
 OpenBabel03252501283D

 40 43  0  0  0  0  0  0  0  0999 V2000
   38.1780   32.0350   40.6640 C   0  0  0  0  0  0  0  0  0  0  0  0
   36.9410   31.8260   40.0490 C   0  0  0  0  0  0  0  0  0  0  0  0
   36.4710   30.6080   40.4380 C   0  0  0  0  0  0  0  0  0  0  0  0
   37.3910   30.0820   41.2670 N   0  0  0  0  0  0  0  0  0  0  0  0
   38.3890   30.9470   41.3830 N   0  0  0  0  0  0  0  0  0  0  0  0
   36.4240   32.5110   39.3710 H   0  0  0  0  0  0  0  0  0  0  0  0
   35.5370   30.1610   40.1320 H   0  0  0  0  0  0  0  0  0  0  0  0
   37.4640   27.5780   39.9760 F   0  0  0  0  0  0  0  0  0  0  0  0
   37.4020   27.6340   41.3120 C   0  0  0  0  0  0  0  0  0  0  0  0
   37.3660   28.8470   41.9280 C   0  0  0  0  0  0  0  0  0  0  0  0
   37.3010   28.9380   43.3340 C   0  0  0  0  0  0  0  0  0  0  0  0
   37.2700   27.8150   44.1120 C   0  0  0  0  0  0  0  0  0  0  0  0
   37.3060   26.5950   43.4620 C   0  0  0  0  0  0  0  0  0  0  0  0
   37.3710   26.4970   42.0840 C   0  0  0  0  0  0  0  0  0  0  0  0
   37.2720   29.8920   43.8450 H   0  0  0  0  0  0  0  0  0  0  0  0
   37.2190   27.8980   45.1910 H   0  0  0  0  0  0  0  0  0  0  0  0
   37.2810   25.7150   44.1000 H   0  0  0  0  0  0  0  0  0  0  0  0
   37.4050   25.1580   41.5010 C   0  0  0  0  0  0  0  0  0  0  0  0
   38.1960   24.0740   41.7570 C   0  0  0  0  0  0  0  0  0  0  0  0
   37.8580   23.0450   40.9610 N   0  0  0  0  0  0  0  0  0  0  0  0
   36.8510   23.4730   40.1980 C   0  0  0  0  0  0  0  0  0  0  0  0
   36.5750   24.7460   40.5220 N   0  0  0  0  0  0  0  0  0  0  0  0
   38.9860   24.1000   42.5200 H   0  0  0  0  0  0  0  0  0  0  0  0
   38.3110   22.1060   40.9610 H   0  0  0  0  0  0  0  0  0  0  0  0
   36.3080   22.9090   39.4230 H   0  0  0  0  0  0  0  0  0  0  0  0
   39.1950   35.4730   39.9790 C   0  0  0  0  0  0  0  0  0  0  0  0
   40.5860   35.4320   40.2030 C   0  0  0  0  0  0  0  0  0  0  0  0
   41.1610   34.2160   40.5870 C   0  0  0  0  0  0  0  0  0  0  0  0
   40.3060   33.1910   40.7070 N   0  0  0  0  0  0  0  0  0  0  0  0
   38.9970   33.2180   40.5000 C   0  0  0  0  0  0  0  0  0  0  0  0
   38.4170   34.3890   40.1250 N   0  0  0  0  0  0  0  0  0  0  0  0
   38.7730   36.4370   39.6790 H   0  0  0  0  0  0  0  0  0  0  0  0
   41.2460   36.2710   40.0980 H   0  0  0  0  0  0  0  0  0  0  0  0
   42.5990   34.0060   40.8580 C   0  0  0  0  0  2  0  0  0  0  0  0
   42.9330   34.1150   42.2510 N   0  0  0  0  0  4  0  0  0  0  0  0
   42.0440   34.0730   42.8250 H   0  0  0  0  0  0  0  0  0  0  0  0
   43.5520   35.4110   42.5510 C   0  0  0  0  0  2  0  0  0  0  0  0
   43.8530   35.4300   43.6060 H   0  0  0  0  0  0  0  0  0  0  0  0
   43.7750   33.0380   42.6810 C   0  0  0  0  0  2  0  0  0  0  0  0
   44.4180   33.3510   43.5310 H   0  0  0  0  0  0  0  0  0  0  0  0
  1  5  2  0  0  0  0
  2  3  2  0  0  0  0
  2  1  1  0  0  0  0
  3  4  1  0  0  0  0
  4  5  1  0  0  0  0
  4 10  1  0  0  0  0
  6  2  1  0  0  0  0
  7  3  1  0  0  0  0
  8  9  1  0  0  0  0
  9 10  2  0  0  0  0
  9 14  1  0  0  0  0
 10 11  1  0  0  0  0
 11 15  1  0  0  0  0
 11 12  2  0  0  0  0
 12 16  1  0  0  0  0
 13 17  1  0  0  0  0
 13 12  1  0  0  0  0
 14 13  2  0  0  0  0
 18 19  2  0  0  0  0
 18 14  1  0  0  0  0
 19 23  1  0  0  0  0
 20 24  1  0  0  0  0
 20 19  1  0  0  0  0
 21 22  2  0  0  0  0
 21 20  1  0  0  0  0
 22 18  1  0  0  0  0
 25 21  1  0  0  0  0
 26 31  2  0  0  0  0
 26 27  1  0  0  0  0
 27 28  2  0  0  0  0
 28 29  1  0  0  0  0
 28 34  1  0  0  0  0
 30  1  1  0  0  0  0
 30 29  2  0  0  0  0
 31 30  1  0  0  0  0
 32 26  1  0  0  0  0
 33 27  1  0  0  0  0
 34 35  1  0  0  0  0
 35 37  1  0  0  0  0
 35 39  1  0  0  0  0
 35 36  1  0  0  0  0
 37 38  1  0  0  0  0
 39 40  1  0  0  0  0
M  END
>  <minimizedAffinity>
-6.84450436

$$$$

 OpenBabel03252501283D

 40 43  0  0  0  0  0  0  0  0999 V2000
   38.2360   32.0510   40.6570 C   0  0  0  0  0  0  0  0  0  0  0  0
   36.9470   31.9080   40.1390 C   0  0  0  0  0  0  0  0  0  0  0  0
   36.4420   30.7190   40.5710 C   0  0  0  0  0  0  0  0  0  0  0  0
   37.3920   30.1470   41.3320 N   0  0  0  0  0  0  0  0  0  0  0  0
   38.4420   30.9550   41.3660 N   0  0  0  0  0  0  0  0  0  0  0  0
   36.4180   32.6180   39.4960 H   0  0  0  0  0  0  0  0  0  0  0  0
   35.4650   30.3230   40.3400 H   0  0  0  0  0  0  0  0  0  0  0  0
   37.5290   27.6320   40.0670 F   0  0  0  0  0  0  0  0  0  0  0  0
   37.4170   27.6990   41.3990 C   0  0  0  0  0  0  0  0  0  0  0  0
   37.3510   28.9170   42.0020 C   0  0  0  0  0  0  0  0  0  0  0  0
   37.2320   29.0190   43.4050 C   0  0  0  0  0  0  0  0  0  0  0  0
   37.1790   27.9020   44.1900 C   0  0  0  0  0  0  0  0  0  0  0  0
   37.2470   26.6780   43.5530 C   0  0  0  0  0  0  0  0  0  0  0  0
   37.3650   26.5680   42.1790 C   0  0  0  0  0  0  0  0  0  0  0  0
   37.1780   29.9770   43.9060 H   0  0  0  0  0  0  0  0  0  0  0  0
   37.0870   27.9940   45.2650 H   0  0  0  0  0  0  0  0  0  0  0  0
   37.2030   25.8030   44.1970 H   0  0  0  0  0  0  0  0  0  0  0  0
   37.4280   25.2250   41.6090 C   0  0  0  0  0  0  0  0  0  0  0  0
   38.2370   24.1590   41.8820 C   0  0  0  0  0  0  0  0  0  0  0  0
   37.9250   23.1150   41.0940 N   0  0  0  0  0  0  0  0  0  0  0  0
   36.9170   23.5170   40.3180 C   0  0  0  0  0  0  0  0  0  0  0  0
   36.6150   24.7880   40.6270 N   0  0  0  0  0  0  0  0  0  0  0  0
   39.0190   24.2070   42.6520 H   0  0  0  0  0  0  0  0  0  0  0  0
   38.3950   22.1860   41.1070 H   0  0  0  0  0  0  0  0  0  0  0  0
   36.3920   22.9360   39.5430 H   0  0  0  0  0  0  0  0  0  0  0  0
   39.3920   35.4730   40.1230 C   0  0  0  0  0  0  0  0  0  0  0  0
   40.7840   35.3070   39.9790 C   0  0  0  0  0  0  0  0  0  0  0  0
   41.3120   34.0140   40.0660 C   0  0  0  0  0  0  0  0  0  0  0  0
   40.4150   33.0440   40.2850 N   0  0  0  0  0  0  0  0  0  0  0  0
   39.1040   33.1870   40.4230 C   0  0  0  0  0  0  0  0  0  0  0  0
   38.5690   34.4340   40.3400 N   0  0  0  0  0  0  0  0  0  0  0  0
   39.0070   36.4950   40.0490 H   0  0  0  0  0  0  0  0  0  0  0  0
   41.4790   36.1060   39.8030 H   0  0  0  0  0  0  0  0  0  0  0  0
   42.7450   33.6730   39.9370 C   0  0  0  0  0  2  0  0  0  0  0  0
   43.4000   34.3790   38.8720 N   0  0  0  0  0  4  0  0  0  0  0  0
   43.1690   35.4100   38.9460 H   0  0  0  0  0  0  0  0  0  0  0  0
   42.9070   33.9430   37.5600 C   0  0  0  0  0  2  0  0  0  0  0  0
   43.4760   34.4540   36.7750 H   0  0  0  0  0  0  0  0  0  0  0  0
   44.8250   34.2510   38.9470 C   0  0  0  0  0  2  0  0  0  0  0  0
   45.2850   34.3320   37.9400 H   0  0  0  0  0  0  0  0  0  0  0  0
  1  5  2  0  0  0  0
  2  3  2  0  0  0  0
  2  1  1  0  0  0  0
  3  4  1  0  0  0  0
  4  5  1  0  0  0  0
  4 10  1  0  0  0  0
  6  2  1  0  0  0  0
  7  3  1  0  0  0  0
  8  9  1  0  0  0  0
  9 10  2  0  0  0  0
  9 14  1  0  0  0  0
 10 11  1  0  0  0  0
 11 15  1  0  0  0  0
 11 12  2  0  0  0  0
 12 16  1  0  0  0  0
 13 12  1  0  0  0  0
 13 17  1  0  0  0  0
 14 13  2  0  0  0  0
 18 19  2  0  0  0  0
 18 14  1  0  0  0  0
 19 23  1  0  0  0  0
 20 24  1  0  0  0  0
 20 19  1  0  0  0  0
 21 22  2  0  0  0  0
 21 20  1  0  0  0  0
 22 18  1  0  0  0  0
 25 21  1  0  0  0  0
 26 31  1  0  0  0  0
 27 28  1  0  0  0  0
 27 26  2  0  0  0  0
 28 29  2  0  0  0  0
 29 30  1  0  0  0  0
 30  1  1  0  0  0  0
 31 30  2  0  0  0  0
 32 26  1  0  0  0  0
 33 27  1  0  0  0  0
 34 28  1  0  0  0  0
 35 36  1  0  0  0  0
 35 39  1  0  0  0  0
 35 34  1  0  0  0  0
 37 35  1  0  0  0  0
 38 37  1  0  0  0  0
 40 39  1  0  0  0  0
M  END
>  <minimizedAffinity>
-6.6308136

$$$$

 OpenBabel03252501283D

 40 43  0  0  0  0  0  0  0  0999 V2000
   37.4920   30.1990   41.1680 C   0  0  0  0  0  0  0  0  0  0  0  0
   36.4760   30.8440   40.4590 C   0  0  0  0  0  0  0  0  0  0  0  0
   36.9630   32.0270   39.9920 C   0  0  0  0  0  0  0  0  0  0  0  0
   38.2420   32.1100   40.4020 N   0  0  0  0  0  0  0  0  0  0  0  0
   38.5280   31.0160   41.0950 N   0  0  0  0  0  0  0  0  0  0  0  0
   35.4580   30.4760   40.2960 H   0  0  0  0  0  0  0  0  0  0  0  0
   36.4180   32.7510   39.4060 H   0  0  0  0  0  0  0  0  0  0  0  0
   40.6380   31.8110   38.9470 F   0  0  0  0  0  0  0  0  0  0  0  0
   40.3250   33.0010   39.4730 C   0  0  0  0  0  0  0  0  0  0  0  0
   39.1670   33.1370   40.1750 C   0  0  0  0  0  0  0  0  0  0  0  0
   38.8120   34.3790   40.7420 C   0  0  0  0  0  0  0  0  0  0  0  0
   39.6180   35.4730   40.6030 C   0  0  0  0  0  0  0  0  0  0  0  0
   40.7890   35.3090   39.8870 C   0  0  0  0  0  0  0  0  0  0  0  0
   41.1450   34.0950   39.3270 C   0  0  0  0  0  0  0  0  0  0  0  0
   37.8950   34.5100   41.3040 H   0  0  0  0  0  0  0  0  0  0  0  0
   39.3340   36.4210   41.0440 H   0  0  0  0  0  0  0  0  0  0  0  0
   41.4150   36.1920   39.7890 H   0  0  0  0  0  0  0  0  0  0  0  0
   42.4050   34.0320   38.5900 C   0  0  0  0  0  0  0  0  0  0  0  0
   42.6750   34.0230   37.2520 C   0  0  0  0  0  0  0  0  0  0  0  0
   44.0020   33.9550   37.0390 N   0  0  0  0  0  0  0  0  0  0  0  0
   44.5750   33.9200   38.2440 C   0  0  0  0  0  0  0  0  0  0  0  0
   43.6150   33.9670   39.1800 N   0  0  0  0  0  0  0  0  0  0  0  0
   41.8780   34.0660   36.4990 H   0  0  0  0  0  0  0  0  0  0  0  0
   44.4640   33.9340   36.1060 H   0  0  0  0  0  0  0  0  0  0  0  0
   45.6500   33.8640   38.4740 H   0  0  0  0  0  0  0  0  0  0  0  0
   37.1280   27.6500   43.7550 C   0  0  0  0  0  0  0  0  0  0  0  0
   37.1220   26.4540   43.0080 C   0  0  0  0  0  0  0  0  0  0  0  0
   37.2450   26.5390   41.6170 C   0  0  0  0  0  0  0  0  0  0  0  0
   37.3580   27.7810   41.1270 N   0  0  0  0  0  0  0  0  0  0  0  0
   37.3640   28.9130   41.8180 C   0  0  0  0  0  0  0  0  0  0  0  0
   37.2460   28.8530   43.1720 N   0  0  0  0  0  0  0  0  0  0  0  0
   37.0310   27.5530   44.8400 H   0  0  0  0  0  0  0  0  0  0  0  0
   37.0310   25.4720   43.4300 H   0  0  0  0  0  0  0  0  0  0  0  0
   37.2570   25.3830   40.6950 C   0  0  0  0  0  2  0  0  0  0  0  0
   38.1300   24.3270   41.1250 N   0  0  0  0  0  4  0  0  0  0  0  0
   38.1490   24.3020   42.1830 H   0  0  0  0  0  0  0  0  0  0  0  0
   39.5130   24.5700   40.6970 C   0  0  0  0  0  2  0  0  0  0  0  0
   40.1340   23.7130   40.9850 H   0  0  0  0  0  0  0  0  0  0  0  0
   37.6760   23.0460   40.6720 C   0  0  0  0  0  2  0  0  0  0  0  0
   38.5280   22.3430   40.5480 H   0  0  0  0  0  0  0  0  0  0  0  0
  1 30  1  0  0  0  0
  2  1  1  0  0  0  0
  3  4  1  0  0  0  0
  3  2  2  0  0  0  0
  4  5  1  0  0  0  0
  5  1  2  0  0  0  0
  6  2  1  0  0  0  0
  7  3  1  0  0  0  0
  8  9  1  0  0  0  0
  9 10  1  0  0  0  0
 10  4  1  0  0  0  0
 10 11  2  0  0  0  0
 11 15  1  0  0  0  0
 12 11  1  0  0  0  0
 12 16  1  0  0  0  0
 13 12  2  0  0  0  0
 14  9  2  0  0  0  0
 14 13  1  0  0  0  0
 17 13  1  0  0  0  0
 18 22  1  0  0  0  0
 18 14  1  0  0  0  0
 19 18  2  0  0  0  0
 20 19  1  0  0  0  0
 20 21  1  0  0  0  0
 21 25  1  0  0  0  0
 21 22  2  0  0  0  0
 23 19  1  0  0  0  0
 24 20  1  0  0  0  0
 26 32  1  0  0  0  0
 27 33  1  0  0  0  0
 27 26  2  0  0  0  0
 28 27  1  0  0  0  0
 29 28  2  0  0  0  0
 29 30  1  0  0  0  0
 30 31  2  0  0  0  0
 31 26  1  0  0  0  0
 34 35  1  0  0  0  0
 34 28  1  0  0  0  0
 35 36  1  0  0  0  0
 37 38  1  0  0  0  0
 37 35  1  0  0  0  0
 39 35  1  0  0  0  0
 40 39  1  0  0  0  0
M  END
>  <minimizedAffinity>
-6.53377962

$$$$

 OpenBabel03252501283D

 40 43  0  0  0  0  0  0  0  0999 V2000
   35.5400   28.3010   39.2230 C   0  0  0  0  0  0  0  0  0  0  0  0
   35.4390   29.0710   40.3840 C   0  0  0  0  0  0  0  0  0  0  0  0
   36.1620   28.4640   41.3650 C   0  0  0  0  0  0  0  0  0  0  0  0
   36.6920   27.3510   40.8260 N   0  0  0  0  0  0  0  0  0  0  0  0
   36.3080   27.2790   39.5590 N   0  0  0  0  0  0  0  0  0  0  0  0
   34.8810   30.0050   40.5020 H   0  0  0  0  0  0  0  0  0  0  0  0
   36.2790   28.8170   42.3780 H   0  0  0  0  0  0  0  0  0  0  0  0
   39.1670   27.9110   42.0530 F   0  0  0  0  0  0  0  0  0  0  0  0
   38.7090   26.6540   42.0280 C   0  0  0  0  0  0  0  0  0  0  0  0
   37.5130   26.3920   41.4330 C   0  0  0  0  0  0  0  0  0  0  0  0
   37.0050   25.0760   41.3900 C   0  0  0  0  0  0  0  0  0  0  0  0
   37.6960   24.0350   41.9420 C   0  0  0  0  0  0  0  0  0  0  0  0
   38.9080   24.3280   42.5390 C   0  0  0  0  0  0  0  0  0  0  0  0
   39.4140   25.6150   42.5860 C   0  0  0  0  0  0  0  0  0  0  0  0
   36.0560   24.8440   40.9220 H   0  0  0  0  0  0  0  0  0  0  0  0
   37.2950   23.0300   41.9020 H   0  0  0  0  0  0  0  0  0  0  0  0
   39.4420   23.4850   42.9720 H   0  0  0  0  0  0  0  0  0  0  0  0
   40.7040   25.8120   43.2420 C   0  0  0  0  0  0  0  0  0  0  0  0
   41.9220   25.2240   43.0490 C   0  0  0  0  0  0  0  0  0  0  0  0
   42.8310   25.7320   43.8990 N   0  0  0  0  0  0  0  0  0  0  0  0
   42.1920   26.6450   44.6340 C   0  0  0  0  0  0  0  0  0  0  0  0
   40.9100   26.6950   44.2400 N   0  0  0  0  0  0  0  0  0  0  0  0
   42.0760   24.4470   42.2890 H   0  0  0  0  0  0  0  0  0  0  0  0
   43.8330   25.4500   43.9520 H   0  0  0  0  0  0  0  0  0  0  0  0
   42.6090   27.2720   45.4370 H   0  0  0  0  0  0  0  0  0  0  0  0
   35.0650   29.0310   35.6780 C   0  0  0  0  0  0  0  0  0  0  0  0
   33.6700   29.2150   35.5870 C   0  0  0  0  0  0  0  0  0  0  0  0
   32.9060   29.0860   36.7520 C   0  0  0  0  0  0  0  0  0  0  0  0
   33.5980   28.7930   37.8610 N   0  0  0  0  0  0  0  0  0  0  0  0
   34.9090   28.6170   37.9590 C   0  0  0  0  0  0  0  0  0  0  0  0
   35.6710   28.7380   36.8400 N   0  0  0  0  0  0  0  0  0  0  0  0
   35.6370   29.1380   34.7520 H   0  0  0  0  0  0  0  0  0  0  0  0
   33.1440   29.4500   34.6820 H   0  0  0  0  0  0  0  0  0  0  0  0
   31.4380   29.2490   36.8250 C   0  0  0  0  0  2  0  0  0  0  0  0
   31.0360   30.5490   37.2820 N   0  0  0  0  0  4  0  0  0  0  0  0
   31.8700   31.0380   37.7160 H   0  0  0  0  0  0  0  0  0  0  0  0
   30.0230   30.4540   38.3400 C   0  0  0  0  0  2  0  0  0  0  0  0
   29.6940   31.4630   38.6150 H   0  0  0  0  0  0  0  0  0  0  0  0
   30.5690   31.3700   36.2050 C   0  0  0  0  0  2  0  0  0  0  0  0
   29.8290   32.1150   36.5650 H   0  0  0  0  0  0  0  0  0  0  0  0
  1  5  2  0  0  0  0
  1  2  1  0  0  0  0
  2  6  1  0  0  0  0
  2  3  2  0  0  0  0
  3  7  1  0  0  0  0
  4  3  1  0  0  0  0
  4 10  1  0  0  0  0
  5  4  1  0  0  0  0
  9  8  1  0  0  0  0
  9 14  1  0  0  0  0
 10  9  2  0  0  0  0
 11 10  1  0  0  0  0
 11 12  2  0  0  0  0
 12 13  1  0  0  0  0
 13 14  2  0  0  0  0
 13 17  1  0  0  0  0
 14 18  1  0  0  0  0
 15 11  1  0  0  0  0
 16 12  1  0  0  0  0
 18 22  1  0  0  0  0
 19 18  2  0  0  0  0
 19 20  1  0  0  0  0
 20 24  1  0  0  0  0
 20 21  1  0  0  0  0
 21 25  1  0  0  0  0
 22 21  2  0  0  0  0
 23 19  1  0  0  0  0
 26 31  1  0  0  0  0
 27 26  2  0  0  0  0
 27 28  1  0  0  0  0
 28 34  1  0  0  0  0
 28 29  2  0  0  0  0
 29 30  1  0  0  0  0
 30  1  1  0  0  0  0
 31 30  2  0  0  0  0
 32 26  1  0  0  0  0
 33 27  1  0  0  0  0
 34 35  1  0  0  0  0
 35 36  1  0  0  0  0
 35 37  1  0  0  0  0
 37 38  1  0  0  0  0
 39 40  1  0  0  0  0
 39 35  1  0  0  0  0
M  END
>  <minimizedAffinity>
-5.8456378

$$$$

 OpenBabel03252501283D

 40 43  0  0  0  0  0  0  0  0999 V2000
   37.0140   29.9450   39.2640 C   0  0  0  0  0  0  0  0  0  0  0  0
   36.3170   30.4910   40.3450 C   0  0  0  0  0  0  0  0  0  0  0  0
   36.8950   31.6810   40.6710 C   0  0  0  0  0  0  0  0  0  0  0  0
   37.9190   31.8620   39.8170 N   0  0  0  0  0  0  0  0  0  0  0  0
   37.9670   30.8210   38.9970 N   0  0  0  0  0  0  0  0  0  0  0  0
   35.4530   30.0540   40.8530 H   0  0  0  0  0  0  0  0  0  0  0  0
   36.5830   32.3420   41.4640 H   0  0  0  0  0  0  0  0  0  0  0  0
   40.4850   31.7220   38.6590 F   0  0  0  0  0  0  0  0  0  0  0  0
   40.0590   32.8750   39.1880 C   0  0  0  0  0  0  0  0  0  0  0  0
   38.8180   32.9330   39.7460 C   0  0  0  0  0  0  0  0  0  0  0  0
   38.3420   34.1350   40.3130 C   0  0  0  0  0  0  0  0  0  0  0  0
   39.1100   35.2650   40.3170 C   0  0  0  0  0  0  0  0  0  0  0  0
   40.3650   35.1780   39.7460 C   0  0  0  0  0  0  0  0  0  0  0  0
   40.8410   34.0050   39.1870 C   0  0  0  0  0  0  0  0  0  0  0  0
   37.3590   34.2050   40.7620 H   0  0  0  0  0  0  0  0  0  0  0  0
   38.7320   36.1800   40.7560 H   0  0  0  0  0  0  0  0  0  0  0  0
   40.9590   36.0890   39.7610 H   0  0  0  0  0  0  0  0  0  0  0  0
   42.1820   34.0240   38.6100 C   0  0  0  0  0  0  0  0  0  0  0  0
   42.6140   34.0600   37.3150 C   0  0  0  0  0  0  0  0  0  0  0  0
   43.9580   34.0650   37.2660 N   0  0  0  0  0  0  0  0  0  0  0  0
   44.3820   34.0330   38.5310 C   0  0  0  0  0  0  0  0  0  0  0  0
   43.3130   34.0090   39.3430 N   0  0  0  0  0  0  0  0  0  0  0  0
   41.9130   34.0790   36.4700 H   0  0  0  0  0  0  0  0  0  0  0  0
   44.5310   34.0890   36.3960 H   0  0  0  0  0  0  0  0  0  0  0  0
   45.4220   34.0270   38.8910 H   0  0  0  0  0  0  0  0  0  0  0  0
   36.1190   27.4760   36.7300 C   0  0  0  0  0  0  0  0  0  0  0  0
   36.1170   26.2710   37.4620 C   0  0  0  0  0  0  0  0  0  0  0  0
   36.4250   26.3230   38.8260 C   0  0  0  0  0  0  0  0  0  0  0  0
   36.6960   27.5440   39.3050 N   0  0  0  0  0  0  0  0  0  0  0  0
   36.7020   28.6840   38.6270 C   0  0  0  0  0  0  0  0  0  0  0  0
   36.4050   28.6570   37.3000 N   0  0  0  0  0  0  0  0  0  0  0  0
   35.8740   27.4060   35.6650 H   0  0  0  0  0  0  0  0  0  0  0  0
   35.8940   25.3070   37.0490 H   0  0  0  0  0  0  0  0  0  0  0  0
   36.4650   25.1540   39.7300 C   0  0  0  0  0  2  0  0  0  0  0  0
   37.4550   25.2740   40.7640 N   0  0  0  0  0  4  0  0  0  0  0  0
   37.6440   26.3000   40.9460 H   0  0  0  0  0  0  0  0  0  0  0  0
   38.7360   24.6910   40.3470 C   0  0  0  0  0  2  0  0  0  0  0  0
   39.4430   24.7410   41.1840 H   0  0  0  0  0  0  0  0  0  0  0  0
   37.0100   24.6940   41.9960 C   0  0  0  0  0  2  0  0  0  0  0  0
   37.8700   24.3340   42.6000 H   0  0  0  0  0  0  0  0  0  0  0  0
  1  2  1  0  0  0  0
  2  3  2  0  0  0  0
  2  6  1  0  0  0  0
  3  7  1  0  0  0  0
  4  3  1  0  0  0  0
  5  1  2  0  0  0  0
  5  4  1  0  0  0  0
  8  9  1  0  0  0  0
  9 10  1  0  0  0  0
 10  4  1  0  0  0  0
 10 11  2  0  0  0  0
 11 12  1  0  0  0  0
 11 15  1  0  0  0  0
 12 16  1  0  0  0  0
 13 17  1  0  0  0  0
 13 12  2  0  0  0  0
 14  9  2  0  0  0  0
 14 13  1  0  0  0  0
 18 14  1  0  0  0  0
 18 22  1  0  0  0  0
 19 18  2  0  0  0  0
 20 19  1  0  0  0  0
 20 21  1  0  0  0  0
 21 25  1  0  0  0  0
 21 22  2  0  0  0  0
 23 19  1  0  0  0  0
 24 20  1  0  0  0  0
 26 31  2  0  0  0  0
 26 27  1  0  0  0  0
 27 28  2  0  0  0  0
 28 29  1  0  0  0  0
 28 34  1  0  0  0  0
 30  1  1  0  0  0  0
 30 29  2  0  0  0  0
 31 30  1  0  0  0  0
 32 26  1  0  0  0  0
 33 27  1  0  0  0  0
 34 35  1  0  0  0  0
 35 36  1  0  0  0  0
 35 39  1  0  0  0  0
 37 35  1  0  0  0  0
 37 38  1  0  0  0  0
 39 40  1  0  0  0  0
M  END
>  <minimizedAffinity>
-5.79744244

$$$$

 OpenBabel03252501283D

 40 43  0  0  0  0  0  0  0  0999 V2000
   38.0340   30.5190   40.8380 C   0  0  0  0  0  0  0  0  0  0  0  0
   37.7290   30.0030   42.0990 C   0  0  0  0  0  0  0  0  0  0  0  0
   37.2630   28.7330   41.9410 C   0  0  0  0  0  0  0  0  0  0  0  0
   37.2800   28.4740   40.6210 N   0  0  0  0  0  0  0  0  0  0  0  0
   37.7390   29.5480   39.9920 N   0  0  0  0  0  0  0  0  0  0  0  0
   37.8400   30.5150   43.0600 H   0  0  0  0  0  0  0  0  0  0  0  0
   36.9450   28.0700   42.7310 H   0  0  0  0  0  0  0  0  0  0  0  0
   38.1660   25.8860   41.2980 F   0  0  0  0  0  0  0  0  0  0  0  0
   37.3170   26.0500   40.2760 C   0  0  0  0  0  0  0  0  0  0  0  0
   36.8950   27.3030   39.9550 C   0  0  0  0  0  0  0  0  0  0  0  0
   36.0010   27.5070   38.8820 C   0  0  0  0  0  0  0  0  0  0  0  0
   35.5390   26.4570   38.1410 C   0  0  0  0  0  0  0  0  0  0  0  0
   35.9840   25.1950   38.4860 C   0  0  0  0  0  0  0  0  0  0  0  0
   36.8600   24.9850   39.5370 C   0  0  0  0  0  0  0  0  0  0  0  0
   35.6520   28.4950   38.6090 H   0  0  0  0  0  0  0  0  0  0  0  0
   34.8540   26.6280   37.3190 H   0  0  0  0  0  0  0  0  0  0  0  0
   35.6050   24.3740   37.8830 H   0  0  0  0  0  0  0  0  0  0  0  0
   37.2660   23.6100   39.8160 C   0  0  0  0  0  0  0  0  0  0  0  0
   38.0710   23.0790   40.7830 C   0  0  0  0  0  0  0  0  0  0  0  0
   38.1560   21.7440   40.6440 N   0  0  0  0  0  0  0  0  0  0  0  0
   37.4060   21.4250   39.5880 C   0  0  0  0  0  0  0  0  0  0  0  0
   36.8680   22.5490   39.0870 N   0  0  0  0  0  0  0  0  0  0  0  0
   38.5560   23.7060   41.5430 H   0  0  0  0  0  0  0  0  0  0  0  0
   38.7090   21.1070   41.2560 H   0  0  0  0  0  0  0  0  0  0  0  0
   37.2300   20.4240   39.1660 H   0  0  0  0  0  0  0  0  0  0  0  0
   38.2060   34.0840   40.0710 C   0  0  0  0  0  0  0  0  0  0  0  0
   39.5910   34.3430   40.1220 C   0  0  0  0  0  0  0  0  0  0  0  0
   40.4540   33.2820   40.4210 C   0  0  0  0  0  0  0  0  0  0  0  0
   39.8570   32.1010   40.6330 N   0  0  0  0  0  0  0  0  0  0  0  0
   38.5570   31.8460   40.5880 C   0  0  0  0  0  0  0  0  0  0  0  0
   37.7000   32.8610   40.2990 N   0  0  0  0  0  0  0  0  0  0  0  0
   37.5550   34.9310   39.8340 H   0  0  0  0  0  0  0  0  0  0  0  0
   40.0390   35.3010   39.9470 H   0  0  0  0  0  0  0  0  0  0  0  0
   41.9250   33.3870   40.5130 C   0  0  0  0  0  2  0  0  0  0  0  0
   42.3890   33.6850   41.8380 N   0  0  0  0  0  4  0  0  0  0  0  0
   41.5540   33.8270   42.4740 H   0  0  0  0  0  0  0  0  0  0  0  0
   43.1440   34.9440   41.8700 C   0  0  0  0  0  2  0  0  0  0  0  0
   43.5360   35.1020   42.8820 H   0  0  0  0  0  0  0  0  0  0  0  0
   43.1670   32.6120   42.3840 C   0  0  0  0  0  2  0  0  0  0  0  0
   43.9070   32.9920   43.1190 H   0  0  0  0  0  0  0  0  0  0  0  0
  1  2  1  0  0  0  0
  2  6  1  0  0  0  0
  3  2  2  0  0  0  0
  3  7  1  0  0  0  0
  4  3  1  0  0  0  0
  5  4  1  0  0  0  0
  5  1  2  0  0  0  0
  9  8  1  0  0  0  0
 10  9  1  0  0  0  0
 10  4  1  0  0  0  0
 11 10  2  0  0  0  0
 12 13  2  0  0  0  0
 12 11  1  0  0  0  0
 13 14  1  0  0  0  0
 14 18  1  0  0  0  0
 14  9  2  0  0  0  0
 15 11  1  0  0  0  0
 16 12  1  0  0  0  0
 17 13  1  0  0  0  0
 18 19  2  0  0  0  0
 19 23  1  0  0  0  0
 20 19  1  0  0  0  0
 20 24  1  0  0  0  0
 21 20  1  0  0  0  0
 22 21  2  0  0  0  0
 22 18  1  0  0  0  0
 25 21  1  0  0  0  0
 26 27  2  0  0  0  0
 26 31  1  0  0  0  0
 27 28  1  0  0  0  0
 28 34  1  0  0  0  0
 28 29  2  0  0  0  0
 30 29  1  0  0  0  0
 30  1  1  0  0  0  0
 31 30  2  0  0  0  0
 32 26  1  0  0  0  0
 33 27  1  0  0  0  0
 34 35  1  0  0  0  0
 35 37  1  0  0  0  0
 35 39  1  0  0  0  0
 35 36  1  0  0  0  0
 37 38  1  0  0  0  0
 39 40  1  0  0  0  0
M  END
>  <minimizedAffinity>
-5.69972849

$$$$

 OpenBabel03252501283D

 40 43  0  0  0  0  0  0  0  0999 V2000
   36.5440   29.5290   38.6080 C   0  0  0  0  0  0  0  0  0  0  0  0
   37.1870   30.7030   39.0050 C   0  0  0  0  0  0  0  0  0  0  0  0
   37.8140   30.4680   40.1910 C   0  0  0  0  0  0  0  0  0  0  0  0
   37.5640   29.1860   40.5150 N   0  0  0  0  0  0  0  0  0  0  0  0
   36.8110   28.6550   39.5620 N   0  0  0  0  0  0  0  0  0  0  0  0
   37.1970   31.6570   38.4690 H   0  0  0  0  0  0  0  0  0  0  0  0
   38.3970   31.1810   40.7540 H   0  0  0  0  0  0  0  0  0  0  0  0
   39.9670   27.7200   40.6650 F   0  0  0  0  0  0  0  0  0  0  0  0
   39.1490   27.7620   41.7230 C   0  0  0  0  0  0  0  0  0  0  0  0
   37.9900   28.4710   41.6420 C   0  0  0  0  0  0  0  0  0  0  0  0
   37.1070   28.5320   42.7420 C   0  0  0  0  0  0  0  0  0  0  0  0
   37.3900   27.8830   43.9100 C   0  0  0  0  0  0  0  0  0  0  0  0
   38.5720   27.1690   43.9660 C   0  0  0  0  0  0  0  0  0  0  0  0
   39.4440   27.1040   42.8930 C   0  0  0  0  0  0  0  0  0  0  0  0
   36.1800   29.0900   42.7000 H   0  0  0  0  0  0  0  0  0  0  0  0
   36.7030   27.9380   44.7460 H   0  0  0  0  0  0  0  0  0  0  0  0
   38.7770   26.6600   44.9040 H   0  0  0  0  0  0  0  0  0  0  0  0
   40.6660   26.3210   43.0600 C   0  0  0  0  0  0  0  0  0  0  0  0
   41.0340   25.0960   42.5800 C   0  0  0  0  0  0  0  0  0  0  0  0
   42.2690   24.7760   43.0020 N   0  0  0  0  0  0  0  0  0  0  0  0
   42.6890   25.7970   43.7520 C   0  0  0  0  0  0  0  0  0  0  0  0
   41.7240   26.7300   43.7880 N   0  0  0  0  0  0  0  0  0  0  0  0
   40.3680   24.5000   41.9420 H   0  0  0  0  0  0  0  0  0  0  0  0
   42.7760   23.8950   42.7740 H   0  0  0  0  0  0  0  0  0  0  0  0
   43.6550   25.8980   44.2700 H   0  0  0  0  0  0  0  0  0  0  0  0
   35.6510   29.2880   35.0770 C   0  0  0  0  0  0  0  0  0  0  0  0
   34.2570   29.0840   35.1260 C   0  0  0  0  0  0  0  0  0  0  0  0
   33.6370   29.0320   36.3790 C   0  0  0  0  0  0  0  0  0  0  0  0
   34.4560   29.1850   37.4290 N   0  0  0  0  0  0  0  0  0  0  0  0
   35.7670   29.3770   37.3960 C   0  0  0  0  0  0  0  0  0  0  0  0
   36.3900   29.4310   36.1880 N   0  0  0  0  0  0  0  0  0  0  0  0
   36.1080   29.3250   34.0830 H   0  0  0  0  0  0  0  0  0  0  0  0
   33.6270   28.9650   34.2650 H   0  0  0  0  0  0  0  0  0  0  0  0
   32.1900   28.8260   36.6020 C   0  0  0  0  0  2  0  0  0  0  0  0
   31.4540   30.0540   36.7050 N   0  0  0  0  0  4  0  0  0  0  0  0
   32.1330   30.8670   36.6970 H   0  0  0  0  0  0  0  0  0  0  0  0
   30.7310   30.1380   37.9790 C   0  0  0  0  0  2  0  0  0  0  0  0
   30.1300   31.0560   37.9910 H   0  0  0  0  0  0  0  0  0  0  0  0
   30.5590   30.2320   35.6000 C   0  0  0  0  0  2  0  0  0  0  0  0
   29.6820   30.8470   35.8930 H   0  0  0  0  0  0  0  0  0  0  0  0
  1  2  1  0  0  0  0
  1  5  2  0  0  0  0
  2  3  2  0  0  0  0
  3  4  1  0  0  0  0
  3  7  1  0  0  0  0
  4 10  1  0  0  0  0
  5  4  1  0  0  0  0
  6  2  1  0  0  0  0
  8  9  1  0  0  0  0
  9 14  1  0  0  0  0
 10  9  2  0  0  0  0
 10 11  1  0  0  0  0
 11 12  2  0  0  0  0
 12 13  1  0  0  0  0
 12 16  1  0  0  0  0
 13 17  1  0  0  0  0
 14 18  1  0  0  0  0
 14 13  2  0  0  0  0
 15 11  1  0  0  0  0
 18 22  1  0  0  0  0
 19 20  1  0  0  0  0
 19 18  2  0  0  0  0
 20 21  1  0  0  0  0
 21 22  2  0  0  0  0
 21 25  1  0  0  0  0
 23 19  1  0  0  0  0
 24 20  1  0  0  0  0
 26 27  2  0  0  0  0
 26 31  1  0  0  0  0
 27 28  1  0  0  0  0
 28 34  1  0  0  0  0
 28 29  2  0  0  0  0
 30 29  1  0  0  0  0
 30  1  1  0  0  0  0
 31 30  2  0  0  0  0
 32 26  1  0  0  0  0
 33 27  1  0  0  0  0
 34 35  1  0  0  0  0
 35 37  1  0  0  0  0
 36 35  1  0  0  0  0
 37 38  1  0  0  0  0
 39 40  1  0  0  0  0
 39 35  1  0  0  0  0
M  END
>  <minimizedAffinity>
-5.69694853

$$$$

 OpenBabel03252501283D

 40 43  0  0  0  0  0  0  0  0999 V2000
   38.6410   29.8650   41.7220 C   0  0  0  0  0  0  0  0  0  0  0  0
   38.4670   29.5880   43.0800 C   0  0  0  0  0  0  0  0  0  0  0  0
   38.2230   28.2550   43.2170 C   0  0  0  0  0  0  0  0  0  0  0  0
   38.2460   27.7260   41.9800 N   0  0  0  0  0  0  0  0  0  0  0  0
   38.4950   28.7000   41.1150 N   0  0  0  0  0  0  0  0  0  0  0  0
   38.5150   30.3050   43.9040 H   0  0  0  0  0  0  0  0  0  0  0  0
   38.0470   27.7340   44.1460 H   0  0  0  0  0  0  0  0  0  0  0  0
   36.2280   26.8490   40.2180 F   0  0  0  0  0  0  0  0  0  0  0  0
   37.0790   25.9620   40.7460 C   0  0  0  0  0  0  0  0  0  0  0  0
   38.0500   26.3930   41.5960 C   0  0  0  0  0  0  0  0  0  0  0  0
   38.9610   25.4800   42.1690 C   0  0  0  0  0  0  0  0  0  0  0  0
   38.8920   24.1450   41.8870 C   0  0  0  0  0  0  0  0  0  0  0  0
   37.8960   23.7330   41.0210 C   0  0  0  0  0  0  0  0  0  0  0  0
   36.9990   24.6210   40.4540 C   0  0  0  0  0  0  0  0  0  0  0  0
   39.7420   25.8000   42.8470 H   0  0  0  0  0  0  0  0  0  0  0  0
   39.5970   23.4550   42.3330 H   0  0  0  0  0  0  0  0  0  0  0  0
   37.8590   22.6670   40.8110 H   0  0  0  0  0  0  0  0  0  0  0  0
   35.9860   24.0780   39.5530 C   0  0  0  0  0  0  0  0  0  0  0  0
   34.9430   23.2230   39.7670 C   0  0  0  0  0  0  0  0  0  0  0  0
   34.2700   23.0030   38.6240 N   0  0  0  0  0  0  0  0  0  0  0  0
   34.8860   23.7190   37.6810 C   0  0  0  0  0  0  0  0  0  0  0  0
   35.9200   24.3680   38.2390 N   0  0  0  0  0  0  0  0  0  0  0  0
   34.7310   22.8030   40.7600 H   0  0  0  0  0  0  0  0  0  0  0  0
   33.4350   22.3890   38.5220 H   0  0  0  0  0  0  0  0  0  0  0  0
   34.6220   23.7930   36.6140 H   0  0  0  0  0  0  0  0  0  0  0  0
   38.1730   33.1560   40.2150 C   0  0  0  0  0  0  0  0  0  0  0  0
   39.4920   33.6480   40.1340 C   0  0  0  0  0  0  0  0  0  0  0  0
   40.5320   32.8360   40.6010 C   0  0  0  0  0  0  0  0  0  0  0  0
   40.1550   31.6470   41.0890 N   0  0  0  0  0  0  0  0  0  0  0  0
   38.9190   31.1740   41.1700 C   0  0  0  0  0  0  0  0  0  0  0  0
   37.8930   31.9450   40.7220 N   0  0  0  0  0  0  0  0  0  0  0  0
   37.3800   33.8120   39.8420 H   0  0  0  0  0  0  0  0  0  0  0  0
   39.7630   34.6060   39.7370 H   0  0  0  0  0  0  0  0  0  0  0  0
   41.9650   33.2020   40.5870 C   0  0  0  0  0  2  0  0  0  0  0  0
   42.4390   33.6760   41.8560 N   0  0  0  0  0  4  0  0  0  0  0  0
   41.6280   33.7180   42.5360 H   0  0  0  0  0  0  0  0  0  0  0  0
   42.9590   35.0450   41.7560 C   0  0  0  0  0  2  0  0  0  0  0  0
   43.3710   35.3450   42.7270 H   0  0  0  0  0  0  0  0  0  0  0  0
   43.4240   32.7990   42.4170 C   0  0  0  0  0  2  0  0  0  0  0  0
   44.1230   33.3550   43.0750 H   0  0  0  0  0  0  0  0  0  0  0  0
  1  2  1  0  0  0  0
  2  3  2  0  0  0  0
  2  6  1  0  0  0  0
  3  7  1  0  0  0  0
  4  3  1  0  0  0  0
  5  1  2  0  0  0  0
  5  4  1  0  0  0  0
  8  9  1  0  0  0  0
  9 10  1  0  0  0  0
 10  4  1  0  0  0  0
 10 11  2  0  0  0  0
 11 15  1  0  0  0  0
 12 11  1  0  0  0  0
 12 16  1  0  0  0  0
 13 12  2  0  0  0  0
 14  9  2  0  0  0  0
 14 13  1  0  0  0  0
 17 13  1  0  0  0  0
 18 19  2  0  0  0  0
 18 14  1  0  0  0  0
 19 23  1  0  0  0  0
 20 19  1  0  0  0  0
 21 22  2  0  0  0  0
 21 20  1  0  0  0  0
 22 18  1  0  0  0  0
 24 20  1  0  0  0  0
 25 21  1  0  0  0  0
 26 31  1  0  0  0  0
 27 26  2  0  0  0  0
 27 28  1  0  0  0  0
 28 29  2  0  0  0  0
 29 30  1  0  0  0  0
 30  1  1  0  0  0  0
 31 30  2  0  0  0  0
 32 26  1  0  0  0  0
 33 27  1  0  0  0  0
 34 28  1  0  0  0  0
 34 35  1  0  0  0  0
 35 39  1  0  0  0  0
 35 36  1  0  0  0  0
 37 35  1  0  0  0  0
 37 38  1  0  0  0  0
 39 40  1  0  0  0  0
M  END
>  <minimizedAffinity>
-5.66626501

$$$$

 OpenBabel03252501283D

 40 43  0  0  0  0  0  0  0  0999 V2000
   38.1720   27.7790   41.7280 C   0  0  0  0  0  0  0  0  0  0  0  0
   38.4720   28.4100   42.9370 C   0  0  0  0  0  0  0  0  0  0  0  0
   38.6700   29.7350   42.6920 C   0  0  0  0  0  0  0  0  0  0  0  0
   38.4970   29.9150   41.3690 N   0  0  0  0  0  0  0  0  0  0  0  0
   38.2040   28.7430   40.8240 N   0  0  0  0  0  0  0  0  0  0  0  0
   38.5400   27.9370   43.9220 H   0  0  0  0  0  0  0  0  0  0  0  0
   38.9170   30.4860   43.4260 H   0  0  0  0  0  0  0  0  0  0  0  0
   40.7710   30.7020   39.9010 F   0  0  0  0  0  0  0  0  0  0  0  0
   39.6880   31.4880   39.9180 C   0  0  0  0  0  0  0  0  0  0  0  0
   38.5940   31.1010   40.6300 C   0  0  0  0  0  0  0  0  0  0  0  0
   37.4370   31.9090   40.6660 C   0  0  0  0  0  0  0  0  0  0  0  0
   37.3860   33.0960   39.9920 C   0  0  0  0  0  0  0  0  0  0  0  0
   38.5100   33.4670   39.2780 C   0  0  0  0  0  0  0  0  0  0  0  0
   39.6480   32.6810   39.2360 C   0  0  0  0  0  0  0  0  0  0  0  0
   36.5560   31.6210   41.2260 H   0  0  0  0  0  0  0  0  0  0  0  0
   36.4920   33.7070   40.0290 H   0  0  0  0  0  0  0  0  0  0  0  0
   38.4470   34.4150   38.7490 H   0  0  0  0  0  0  0  0  0  0  0  0
   40.7790   33.1670   38.4500 C   0  0  0  0  0  0  0  0  0  0  0  0
   41.3690   32.6910   37.3140 C   0  0  0  0  0  0  0  0  0  0  0  0
   42.3940   33.4810   36.9490 N   0  0  0  0  0  0  0  0  0  0  0  0
   42.4570   34.4600   37.8530 C   0  0  0  0  0  0  0  0  0  0  0  0
   41.4840   34.2740   38.7590 N   0  0  0  0  0  0  0  0  0  0  0  0
   41.0110   31.7820   36.8130 H   0  0  0  0  0  0  0  0  0  0  0  0
   43.0040   33.3330   36.1170 H   0  0  0  0  0  0  0  0  0  0  0  0
   43.1700   35.2990   37.8870 H   0  0  0  0  0  0  0  0  0  0  0  0
   38.1990   24.1690   42.2660 C   0  0  0  0  0  0  0  0  0  0  0  0
   37.3470   23.7000   41.2460 C   0  0  0  0  0  0  0  0  0  0  0  0
   36.7710   24.6360   40.3800 C   0  0  0  0  0  0  0  0  0  0  0  0
   37.0980   25.9130   40.6180 N   0  0  0  0  0  0  0  0  0  0  0  0
   37.8970   26.3660   41.5740 C   0  0  0  0  0  0  0  0  0  0  0  0
   38.4680   25.4740   42.4270 N   0  0  0  0  0  0  0  0  0  0  0  0
   38.6370   23.4150   42.9280 H   0  0  0  0  0  0  0  0  0  0  0  0
   37.1050   22.6680   41.0800 H   0  0  0  0  0  0  0  0  0  0  0  0
   35.8590   24.3080   39.2630 C   0  0  0  0  0  2  0  0  0  0  0  0
   36.1730   25.0130   38.0520 N   0  0  0  0  0  4  0  0  0  0  0  0
   36.7850   25.8460   38.2840 H   0  0  0  0  0  0  0  0  0  0  0  0
   34.9640   25.5590   37.4240 C   0  0  0  0  0  2  0  0  0  0  0  0
   35.2360   26.0300   36.4710 H   0  0  0  0  0  0  0  0  0  0  0  0
   36.8980   24.1900   37.1300 C   0  0  0  0  0  2  0  0  0  0  0  0
   36.7090   24.5050   36.0820 H   0  0  0  0  0  0  0  0  0  0  0  0
  1  2  1  0  0  0  0
  2  6  1  0  0  0  0
  3  2  2  0  0  0  0
  3  7  1  0  0  0  0
  4  3  1  0  0  0  0
  5  4  1  0  0  0  0
  5  1  2  0  0  0  0
  8  9  1  0  0  0  0
  9 10  1  0  0  0  0
 10 11  2  0  0  0  0
 10  4  1  0  0  0  0
 11 15  1  0  0  0  0
 12 16  1  0  0  0  0
 12 11  1  0  0  0  0
 13 12  2  0  0  0  0
 14 13  1  0  0  0  0
 14  9  2  0  0  0  0
 17 13  1  0  0  0  0
 18 22  1  0  0  0  0
 18 14  1  0  0  0  0
 19 18  2  0  0  0  0
 20 19  1  0  0  0  0
 20 21  1  0  0  0  0
 21 25  1  0  0  0  0
 21 22  2  0  0  0  0
 23 19  1  0  0  0  0
 24 20  1  0  0  0  0
 26 31  1  0  0  0  0
 26 32  1  0  0  0  0
 27 26  2  0  0  0  0
 28 29  2  0  0  0  0
 28 27  1  0  0  0  0
 29 30  1  0  0  0  0
 30  1  1  0  0  0  0
 30 31  2  0  0  0  0
 33 27  1  0  0  0  0
 34 28  1  0  0  0  0
 35 36  1  0  0  0  0
 35 34  1  0  0  0  0
 37 35  1  0  0  0  0
 38 37  1  0  0  0  0
 39 35  1  0  0  0  0
 40 39  1  0  0  0  0
M  END
>  <minimizedAffinity>
-5.63730431

$$$$
