
 OpenBabel03252502073D

 46 49  0  0  0  0  0  0  0  0999 V2000
   47.5250   32.0170   47.8940 C   0  0  0  0  0  0  0  0  0  0  0  0
   47.0020   30.7170   47.9130 C   0  0  0  0  0  0  0  0  0  0  0  0
   45.9940   30.4510   47.0490 C   0  0  0  0  0  0  0  0  0  0  0  0
   45.5430   31.4090   46.2240 N   0  0  0  0  0  0  0  0  0  0  0  0
   46.0190   32.6340   46.1860 C   0  0  0  0  0  0  0  0  0  0  0  0
   47.0250   32.9250   47.0430 N   0  0  0  0  0  0  0  0  0  0  0  0
   45.4130   29.2040   47.0230 N   0  0  0  0  0  0  0  0  0  0  0  0
   44.1870   28.8570   46.2470 C   0  0  0  0  0  0  0  0  0  0  0  0
   44.0940   27.3600   46.2770 C   0  0  0  0  0  0  0  0  0  0  0  0
   44.7840   27.0060   47.5480 C   0  0  0  0  0  0  0  0  0  0  0  0
   45.8510   28.0330   47.7240 C   0  0  0  0  0  0  0  0  0  0  0  0
   48.3420   32.2840   48.5780 H   0  0  0  0  0  0  0  0  0  0  0  0
   44.2430   29.1990   45.2170 H   0  0  0  0  0  0  0  0  0  0  0  0
   43.3500   29.3460   46.8180 H   0  0  0  0  0  0  0  0  0  0  0  0
   43.0240   27.0130   46.3540 H   0  0  0  0  0  0  0  0  0  0  0  0
   44.6190   26.9110   45.4320 H   0  0  0  0  0  0  0  0  0  0  0  0
   44.0450   26.9650   48.3940 H   0  0  0  0  0  0  0  0  0  0  0  0
   45.2290   25.9860   47.5080 H   0  0  0  0  0  0  0  0  0  0  0  0
   45.8500   28.2310   48.8170 H   0  0  0  0  0  0  0  0  0  0  0  0
   46.7820   27.6160   47.3250 H   0  0  0  0  0  0  0  0  0  0  0  0
   45.6870   33.8060   45.3400 C   0  0  0  0  0  0  0  0  0  0  0  0
   44.8170   34.7610   45.6960 N   0  0  0  0  0  0  0  0  0  0  0  0
   44.5110   35.8230   44.9560 C   0  0  0  0  0  0  0  0  0  0  0  0
   45.0920   36.0000   43.7470 N   0  0  0  0  0  0  0  0  0  0  0  0
   45.9700   35.1230   43.2830 C   0  0  0  0  0  0  0  0  0  0  0  0
   46.5790   35.2970   42.0480 C   0  0  0  0  0  0  0  0  0  0  0  0
   47.4870   34.4080   41.5660 C   0  0  0  0  0  0  0  0  0  0  0  0
   47.7890   33.3180   42.3450 C   0  0  0  0  0  0  0  0  0  0  0  0
   47.1680   33.1670   43.5740 C   0  0  0  0  0  0  0  0  0  0  0  0
   46.2540   34.0360   44.0910 C   0  0  0  0  0  0  0  0  0  0  0  0
   43.7840   36.5420   45.3490 H   0  0  0  0  0  0  0  0  0  0  0  0
   46.3220   36.1630   41.4540 H   0  0  0  0  0  0  0  0  0  0  0  0
   47.9460   34.5680   40.6000 H   0  0  0  0  0  0  0  0  0  0  0  0
   47.5920   31.9810   44.2400 N   0  0  0  0  0  0  0  0  0  0  0  0
   46.9360   31.2620   43.8570 H   0  0  0  0  0  0  0  0  0  0  0  0
   48.3390   31.7550   44.9270 H   0  0  0  0  0  0  0  0  0  0  0  0
   48.7890   32.3660   41.7960 C   0  0  0  0  0  2  0  0  0  0  0  0
   50.1150   32.5960   42.3040 N   0  0  0  0  0  4  0  0  0  0  0  0
   50.2200   32.0970   43.2050 H   0  0  0  0  0  0  0  0  0  0  0  0
   50.4460   33.9930   42.4310 C   0  0  0  0  0  2  0  0  0  0  0  0
   51.3980   34.0550   43.0000 H   0  0  0  0  0  0  0  0  0  0  0  0
   51.1160   32.0410   41.3960 C   0  0  0  0  0  2  0  0  0  0  0  0
   51.2420   32.7660   40.5440 H   0  0  0  0  0  0  0  0  0  0  0  0
   47.5760   29.8160   48.7670 N   0  0  0  0  0  0  0  0  0  0  0  0
   48.2690   29.1470   48.3650 H   0  0  0  0  0  0  0  0  0  0  0  0
   47.3750   29.7470   49.8110 H   0  0  0  0  0  0  0  0  0  0  0  0
  1  2  1  0  0  0  0
  1 12  1  0  0  0  0
  2 44  1  0  0  0  0
  3  2  2  0  0  0  0
  4  3  1  0  0  0  0
  5  4  2  0  0  0  0
  5  6  1  0  0  0  0
  6  1  2  0  0  0  0
  7  3  1  0  0  0  0
  7 11  1  0  0  0  0
  8  9  1  0  0  0  0
  8 14  1  0  0  0  0
  8  7  1  0  0  0  0
  9 15  1  0  0  0  0
  9 10  1  0  0  0  0
 10 11  1  0  0  0  0
 10 17  1  0  0  0  0
 11 19  1  0  0  0  0
 13  8  1  0  0  0  0
 16  9  1  0  0  0  0
 18 10  1  0  0  0  0
 20 11  1  0  0  0  0
 21 22  1  0  0  0  0
 21  5  1  0  0  0  0
 23 31  1  0  0  0  0
 23 22  2  0  0  0  0
 24 23  1  0  0  0  0
 25 24  2  0  0  0  0
 25 30  1  0  0  0  0
 26 25  1  0  0  0  0
 27 26  2  0  0  0  0
 27 28  1  0  0  0  0
 28 29  2  0  0  0  0
 29 30  1  0  0  0  0
 29 34  1  0  0  0  0
 30 21  2  0  0  0  0
 32 26  1  0  0  0  0
 33 27  1  0  0  0  0
 34 36  1  0  0  0  0
 35 34  1  0  0  0  0
 37 38  1  0  0  0  0
 37 28  1  0  0  0  0
 38 40  1  0  0  0  0
 38 39  1  0  0  0  0
 40 41  1  0  0  0  0
 42 38  1  0  0  0  0
 43 42  1  0  0  0  0
 44 46  1  0  0  0  0
 45 44  1  0  0  0  0
M  END
>  <minimizedAffinity>
-6.69125128

>  <minimizedRMSD>
0.514615595

$$$$
