
 OpenBabel03252502073D

 46 49  0  0  0  0  0  0  0  0999 V2000
   47.3240   32.1370   47.8680 C   0  0  0  0  0  0  0  0  0  0  0  0
   46.7970   30.8390   47.8770 C   0  0  0  0  0  0  0  0  0  0  0  0
   45.8850   30.5430   46.9220 C   0  0  0  0  0  0  0  0  0  0  0  0
   45.5280   31.4700   46.0190 N   0  0  0  0  0  0  0  0  0  0  0  0
   46.0110   32.6930   45.9880 C   0  0  0  0  0  0  0  0  0  0  0  0
   46.9220   33.0140   46.9360 N   0  0  0  0  0  0  0  0  0  0  0  0
   45.3030   29.2970   46.8780 N   0  0  0  0  0  0  0  0  0  0  0  0
   44.1650   28.9220   45.9900 C   0  0  0  0  0  0  0  0  0  0  0  0
   44.0620   27.4270   46.0640 C   0  0  0  0  0  0  0  0  0  0  0  0
   44.6130   27.1190   47.4130 C   0  0  0  0  0  0  0  0  0  0  0  0
   45.6600   28.1510   47.6640 C   0  0  0  0  0  0  0  0  0  0  0  0
   48.0650   32.4280   48.6240 H   0  0  0  0  0  0  0  0  0  0  0  0
   44.3320   29.2270   44.9590 H   0  0  0  0  0  0  0  0  0  0  0  0
   43.2750   29.4320   46.4500 H   0  0  0  0  0  0  0  0  0  0  0  0
   42.9900   27.0840   46.0380 H   0  0  0  0  0  0  0  0  0  0  0  0
   44.6720   26.9470   45.2950 H   0  0  0  0  0  0  0  0  0  0  0  0
   43.7880   27.1090   48.1750 H   0  0  0  0  0  0  0  0  0  0  0  0
   45.0550   26.0980   47.4560 H   0  0  0  0  0  0  0  0  0  0  0  0
   45.5430   28.3880   48.7420 H   0  0  0  0  0  0  0  0  0  0  0  0
   46.6260   27.7190   47.3810 H   0  0  0  0  0  0  0  0  0  0  0  0
   45.7760   33.8340   45.0700 C   0  0  0  0  0  0  0  0  0  0  0  0
   44.8570   34.7860   45.2830 N   0  0  0  0  0  0  0  0  0  0  0  0
   44.6350   35.8200   44.4760 C   0  0  0  0  0  0  0  0  0  0  0  0
   45.3630   35.9700   43.3450 N   0  0  0  0  0  0  0  0  0  0  0  0
   46.3030   35.0930   43.0250 C   0  0  0  0  0  0  0  0  0  0  0  0
   47.0610   35.2380   41.8720 C   0  0  0  0  0  0  0  0  0  0  0  0
   48.0330   34.3500   41.5370 C   0  0  0  0  0  0  0  0  0  0  0  0
   48.2470   33.2890   42.3820 C   0  0  0  0  0  0  0  0  0  0  0  0
   47.4750   33.1650   43.5270 C   0  0  0  0  0  0  0  0  0  0  0  0
   46.4940   34.0350   43.8960 C   0  0  0  0  0  0  0  0  0  0  0  0
   43.8560   36.5390   44.7520 H   0  0  0  0  0  0  0  0  0  0  0  0
   46.8730   36.0830   41.2230 H   0  0  0  0  0  0  0  0  0  0  0  0
   48.6090   34.4880   40.6320 H   0  0  0  0  0  0  0  0  0  0  0  0
   47.8260   32.0060   44.2780 N   0  0  0  0  0  0  0  0  0  0  0  0
   47.2310   31.2660   43.8390 H   0  0  0  0  0  0  0  0  0  0  0  0
   48.4820   31.8120   45.0620 H   0  0  0  0  0  0  0  0  0  0  0  0
   49.3190   32.3360   41.9950 C   0  0  0  0  0  2  0  0  0  0  0  0
   49.2420   31.9420   40.6120 N   0  0  0  0  0  4  0  0  0  0  0  0
   48.9170   32.7500   40.0520 H   0  0  0  0  0  0  0  0  0  0  0  0
   48.4210   30.7780   40.3930 C   0  0  0  0  0  2  0  0  0  0  0  0
   48.2770   30.6800   39.2960 H   0  0  0  0  0  0  0  0  0  0  0  0
   50.5640   31.5840   40.1090 C   0  0  0  0  0  2  0  0  0  0  0  0
   50.7940   30.5420   40.4630 H   0  0  0  0  0  0  0  0  0  0  0  0
   47.2720   29.9690   48.8190 N   0  0  0  0  0  0  0  0  0  0  0  0
   48.0000   29.2850   48.5180 H   0  0  0  0  0  0  0  0  0  0  0  0
   46.9610   29.9380   49.8370 H   0  0  0  0  0  0  0  0  0  0  0  0
  1  2  1  0  0  0  0
  1 12  1  0  0  0  0
  2 44  1  0  0  0  0
  3  2  2  0  0  0  0
  4  3  1  0  0  0  0
  5  4  2  0  0  0  0
  5  6  1  0  0  0  0
  6  1  2  0  0  0  0
  7  3  1  0  0  0  0
  7 11  1  0  0  0  0
  8  9  1  0  0  0  0
  8 14  1  0  0  0  0
  8  7  1  0  0  0  0
  9 10  1  0  0  0  0
 10 18  1  0  0  0  0
 10 11  1  0  0  0  0
 10 17  1  0  0  0  0
 11 19  1  0  0  0  0
 13  8  1  0  0  0  0
 15  9  1  0  0  0  0
 16  9  1  0  0  0  0
 20 11  1  0  0  0  0
 21 22  1  0  0  0  0
 21  5  1  0  0  0  0
 23 31  1  0  0  0  0
 23 22  2  0  0  0  0
 24 23  1  0  0  0  0
 25 24  2  0  0  0  0
 25 30  1  0  0  0  0
 26 25  1  0  0  0  0
 27 26  2  0  0  0  0
 27 28  1  0  0  0  0
 28 29  2  0  0  0  0
 29 30  1  0  0  0  0
 29 34  1  0  0  0  0
 30 21  2  0  0  0  0
 32 26  1  0  0  0  0
 33 27  1  0  0  0  0
 34 36  1  0  0  0  0
 35 34  1  0  0  0  0
 37 28  1  0  0  0  0
 38 37  1  0  0  0  0
 39 38  1  0  0  0  0
 40 38  1  0  0  0  0
 41 40  1  0  0  0  0
 42 43  1  0  0  0  0
 42 38  1  0  0  0  0
 44 46  1  0  0  0  0
 45 44  1  0  0  0  0
M  END
>  <minimizedAffinity>
-6.34177637

>  <minimizedRMSD>
0.637028813

$$$$
