
 OpenBabel03242518123D

 29 30  0  0  0  0  0  0  0  0999 V2000
   49.2260   34.4410   42.3120 C   0  0  0  0  0  0  0  0  0  0  0  0
   50.1490   35.0450   42.4400 H   0  0  0  0  0  0  0  0  0  0  0  0
   48.8800   34.1920   43.3420 H   0  0  0  0  0  0  0  0  0  0  0  0
   49.5380   33.2760   41.5480 C   0  0  0  0  0  0  0  0  0  0  0  0
   49.1220   32.6890   40.3050 C   0  0  0  0  0  0  0  0  0  0  0  0
   49.6940   31.5170   39.9030 C   0  0  0  0  0  0  0  0  0  0  0  0
   50.7020   30.9230   40.7650 C   0  0  0  0  0  0  0  0  0  0  0  0
   50.8330   32.0560   42.1690 S   0  0  0  0  0  0  0  0  0  0  0  0
   48.3690   33.2460   39.7850 H   0  0  0  0  0  0  0  0  0  0  0  0
   49.4110   31.0450   38.9790 H   0  0  0  0  0  0  0  0  0  0  0  0
   51.4020   29.7280   40.5270 C   0  0  0  0  0  2  0  0  0  0  0  0
   52.5510   29.9250   39.7090 N   0  0  0  0  0  4  0  0  0  0  0  0
   53.2950   29.2370   39.9690 H   0  0  0  0  0  0  0  0  0  0  0  0
   53.0810   31.2690   39.7270 C   0  0  0  0  0  2  0  0  0  0  0  0
   53.7710   31.3840   40.5850 H   0  0  0  0  0  0  0  0  0  0  0  0
   52.2280   29.6040   38.3160 C   0  0  0  0  0  2  0  0  0  0  0  0
   51.8280   28.5540   38.2900 H   0  0  0  0  0  0  0  0  0  0  0  0
   48.1920   35.3610   41.7060 C   0  0  0  0  0  0  0  0  0  0  0  0
   48.3100   36.3900   42.1310 H   0  0  0  0  0  0  0  0  0  0  0  0
   48.3650   35.4220   40.6370 H   0  0  0  0  0  0  0  0  0  0  0  0
   46.8660   34.8530   42.0290 C   0  0  0  0  0  0  0  0  0  0  0  0
   46.4200   34.7160   43.3310 C   0  0  0  0  0  0  0  0  0  0  0  0
   45.1370   34.2200   43.5540 C   0  0  0  0  0  0  0  0  0  0  0  0
   44.3910   33.8960   42.4740 N   0  0  0  0  0  0  0  0  0  0  0  0
   44.8310   34.0300   41.2220 C   0  0  0  0  0  0  0  0  0  0  0  0
   46.0440   34.5000   41.0320 N   0  0  0  0  0  0  0  0  0  0  0  0
   47.0600   34.9920   44.1660 H   0  0  0  0  0  0  0  0  0  0  0  0
   44.7620   34.1040   44.5780 H   0  0  0  0  0  0  0  0  0  0  0  0
   44.2040   33.7600   40.3820 H   0  0  0  0  0  0  0  0  0  0  0  0
  1  2  1  0  0  0  0
  1  3  1  0  0  0  0
  4  8  1  0  0  0  0
  4  1  1  0  0  0  0
  5  4  2  0  0  0  0
  6  5  1  0  0  0  0
  6  7  2  0  0  0  0
  7  8  1  0  0  0  0
  9  5  1  0  0  0  0
 10  6  1  0  0  0  0
 11  7  1  0  0  0  0
 12 14  1  0  0  0  0
 12 13  1  0  0  0  0
 12 11  1  0  0  0  0
 14 15  1  0  0  0  0
 16 12  1  0  0  0  0
 17 16  1  0  0  0  0
 18 21  1  0  0  0  0
 18 19  1  0  0  0  0
 18  1  1  0  0  0  0
 20 18  1  0  0  0  0
 21 22  1  0  0  0  0
 22 23  2  0  0  0  0
 22 27  1  0  0  0  0
 23 28  1  0  0  0  0
 24 23  1  0  0  0  0
 25 24  2  0  0  0  0
 26 25  1  0  0  0  0
 26 21  2  0  0  0  0
 29 25  1  0  0  0  0
M  END
>  <minimizedAffinity>
-3.3763535

>  <minimizedRMSD>
0.88323772

$$$$
