
 OpenBabel03252506173D

 21 21  0  0  0  0  0  0  0  0999 V2000
   44.7070   35.5670   43.6160 C   0  0  0  0  0  0  0  0  0  0  0  0
   43.9420   35.4400   42.4390 C   0  0  0  0  0  0  0  0  0  0  0  0
   43.8210   34.1650   41.8820 C   0  0  0  0  0  0  0  0  0  0  0  0
   44.4350   33.1250   42.4940 N   0  0  0  0  0  0  0  0  0  0  0  0
   45.1610   33.2790   43.6220 C   0  0  0  0  0  0  0  0  0  0  0  0
   45.2840   34.4910   44.1610 N   0  0  0  0  0  0  0  0  0  0  0  0
   43.5050   36.3240   42.0450 H   0  0  0  0  0  0  0  0  0  0  0  0
   43.2360   34.0600   40.9790 H   0  0  0  0  0  0  0  0  0  0  0  0
   44.8470   36.8940   44.2150 C   0  0  0  0  0  3  0  0  0  0  0  0
   45.2660   37.8920   43.4590 C   0  0  0  0  0  3  0  0  0  0  0  0
   45.4360   39.2670   43.9850 C   0  0  0  0  0  0  0  0  0  0  0  0
   46.4180   39.3940   44.4720 H   0  0  0  0  0  0  0  0  0  0  0  0
   44.6190   39.5180   44.6970 H   0  0  0  0  0  0  0  0  0  0  0  0
   45.3770   39.9970   43.1500 H   0  0  0  0  0  0  0  0  0  0  0  0
   45.7500   32.0380   44.1380 C   0  0  0  0  0  2  0  0  0  0  0  0
   46.6750   31.3980   43.2220 N   0  0  0  0  0  4  0  0  0  0  0  0
   46.3340   31.4740   42.2300 H   0  0  0  0  0  0  0  0  0  0  0  0
   47.9390   32.0950   43.3830 C   0  0  0  0  0  2  0  0  0  0  0  0
   48.0840   32.2280   44.4890 H   0  0  0  0  0  0  0  0  0  0  0  0
   46.8820   30.0120   43.5160 C   0  0  0  0  0  2  0  0  0  0  0  0
   46.6540   29.7500   44.5620 H   0  0  0  0  0  0  0  0  0  0  0  0
  1  6  1  0  0  0  0
  1  9  1  0  0  0  0
  2  1  2  0  0  0  0
  3  2  1  0  0  0  0
  3  4  2  0  0  0  0
  4  5  1  0  0  0  0
  5 15  1  0  0  0  0
  5  6  2  0  0  0  0
  7  2  1  0  0  0  0
  8  3  1  0  0  0  0
 10 11  1  0  0  0  0
 10  9  2  0  0  0  0
 11 12  1  0  0  0  0
 11 13  1  0  0  0  0
 14 11  1  0  0  0  0
 16 18  1  0  0  0  0
 16 20  1  0  0  0  0
 16 15  1  0  0  0  0
 17 16  1  0  0  0  0
 18 19  1  0  0  0  0
 20 21  1  0  0  0  0
M  END
>  <minimizedAffinity>
-2.6564517

>  <minimizedRMSD>
0.845324695

$$$$
