
 OpenBabel03252507513D

 29 30  0  0  1  0  0  0  0  0999 V2000
   47.1270   34.6080   42.1190 C   0  0  2  0  0  0  0  0  0  0  0  0
   46.4510   34.3350   40.8180 C   0  0  0  0  0  0  0  0  0  0  0  0
   47.6520   33.9320   39.9720 C   0  0  0  0  0  0  0  0  0  0  0  0
   48.6110   33.2510   40.9390 C   0  0  1  0  0  0  0  0  0  0  0  0
   47.9360   33.3130   42.2910 C   0  0  0  0  0  0  0  0  0  0  0  0
   47.8500   35.4380   42.0110 H   0  0  0  0  0  0  0  0  0  0  0  0
   45.7070   33.5420   40.8790 H   0  0  0  0  0  0  0  0  0  0  0  0
   46.0750   35.2940   40.4130 H   0  0  0  0  0  0  0  0  0  0  0  0
   47.2530   33.2240   39.2160 H   0  0  0  0  0  0  0  0  0  0  0  0
   48.1080   34.7970   39.4540 H   0  0  0  0  0  0  0  0  0  0  0  0
   49.5110   33.8550   40.9830 H   0  0  0  0  0  0  0  0  0  0  0  0
   48.6840   33.5270   43.0790 H   0  0  0  0  0  0  0  0  0  0  0  0
   47.2530   32.4850   42.5010 H   0  0  0  0  0  0  0  0  0  0  0  0
   44.5390   35.9990   44.4860 C   0  0  0  0  0  0  0  0  0  0  0  0
   45.3260   35.8970   43.3450 C   0  0  0  0  0  0  0  0  0  0  0  0
   46.2330   34.8480   43.2700 C   0  0  0  0  0  0  0  0  0  0  0  0
   46.2990   33.9780   44.3230 N   0  0  0  0  0  0  0  0  0  0  0  0
   45.5280   34.0950   45.4200 C   0  0  0  0  0  0  0  0  0  0  0  0
   44.6470   35.1040   45.5060 N   0  0  0  0  0  0  0  0  0  0  0  0
   43.8150   36.8110   44.5790 H   0  0  0  0  0  0  0  0  0  0  0  0
   45.2650   36.5810   42.5310 H   0  0  0  0  0  0  0  0  0  0  0  0
   45.6160   33.3840   46.2260 H   0  0  0  0  0  0  0  0  0  0  0  0
   48.7720   31.8400   40.4930 C   0  0  0  0  0  2  0  0  0  0  0  0
   50.0170   31.2190   40.8020 N   0  0  0  0  0  4  0  0  0  0  0  0
   50.3060   30.6970   39.9200 H   0  0  0  0  0  0  0  0  0  0  0  0
   51.0870   32.1310   41.0860 C   0  0  0  0  0  2  0  0  0  0  0  0
   51.4660   31.9220   42.1240 H   0  0  0  0  0  0  0  0  0  0  0  0
   49.9030   30.1580   41.8030 C   0  0  0  0  0  2  0  0  0  0  0  0
   50.7270   29.4100   41.6160 H   0  0  0  0  0  0  0  0  0  0  0  0
  1  6  1  6  0  0  0
  1  5  1  0  0  0  0
  1 16  1  0  0  0  0
  2  7  1  0  0  0  0
  2  1  1  0  0  0  0
  3  2  1  0  0  0  0
  3  4  1  0  0  0  0
  4 11  1  1  0  0  0
  4  5  1  0  0  0  0
  5 13  1  0  0  0  0
  5 12  1  0  0  0  0
  8  2  1  0  0  0  0
  9  3  1  0  0  0  0
 10  3  1  0  0  0  0
 14 20  1  0  0  0  0
 14 19  1  0  0  0  0
 15 14  2  0  0  0  0
 16 15  1  0  0  0  0
 16 17  2  0  0  0  0
 17 18  1  0  0  0  0
 18 19  2  0  0  0  0
 18 22  1  0  0  0  0
 21 15  1  0  0  0  0
 23 24  1  0  0  0  0
 23  4  1  0  0  0  0
 24 26  1  0  0  0  0
 24 28  1  0  0  0  0
 25 24  1  0  0  0  0
 26 27  1  0  0  0  0
 29 28  1  0  0  0  0
M  END
>  <minimizedAffinity>
-4.08797407

>  <minimizedRMSD>
1.74284089

$$$$
