
 OpenBabel03242511373D

 40 42  0  0  1  0  0  0  0  0999 V2000
   37.5120   30.5380   41.1830 C   0  0  0  0  0  0  0  0  0  0  0  0
   36.3700   30.6120   40.3440 C   0  0  0  0  0  0  0  0  0  0  0  0
   35.4240   29.5810   40.3430 C   0  0  0  0  0  0  0  0  0  0  0  0
   35.6790   28.5480   41.1750 N   0  0  0  0  0  0  0  0  0  0  0  0
   36.7760   28.4970   41.9670 C   0  0  0  0  0  0  0  0  0  0  0  0
   37.6790   29.4680   41.9770 N   0  0  0  0  0  0  0  0  0  0  0  0
   36.2140   31.4480   39.7060 H   0  0  0  0  0  0  0  0  0  0  0  0
   34.5540   29.5980   39.7300 H   0  0  0  0  0  0  0  0  0  0  0  0
   37.0010   27.3240   42.8850 C   0  0  2  0  0  0  0  0  0  0  0  0
   38.3300   26.9490   43.3480 C   0  0  0  0  0  0  0  0  0  0  0  0
   37.6960   26.0880   42.3120 C   0  0  2  0  0  0  0  0  0  0  0  0
   36.1130   27.1280   43.5280 H   0  0  0  0  0  0  0  0  0  0  0  0
   38.4660   26.5630   44.3810 H   0  0  0  0  0  0  0  0  0  0  0  0
   39.1940   27.5520   42.9980 H   0  0  0  0  0  0  0  0  0  0  0  0
   37.2720   25.1390   42.6930 H   0  0  0  0  0  0  0  0  0  0  0  0
   38.1310   26.0830   40.8820 C   0  0  0  0  0  2  0  0  0  0  0  0
   37.6810   24.8380   40.2790 N   0  0  0  0  0  4  0  0  0  0  0  0
   38.5560   24.3080   40.0400 H   0  0  0  0  0  0  0  0  0  0  0  0
   36.9450   25.1070   39.0830 C   0  0  0  0  0  2  0  0  0  0  0  0
   36.8560   26.1900   38.8330 H   0  0  0  0  0  0  0  0  0  0  0  0
   36.9760   24.0100   41.2400 C   0  0  0  0  0  2  0  0  0  0  0  0
   37.6470   23.9690   42.1360 H   0  0  0  0  0  0  0  0  0  0  0  0
   38.4540   31.6540   41.1350 C   0  0  0  0  0  3  0  0  0  0  0  0
   38.5100   32.3640   40.0080 C   0  0  0  0  0  3  0  0  0  0  0  0
   39.4250   33.5120   39.8470 C   0  0  0  0  0  0  0  0  0  0  0  0
   39.4730   34.0980   40.7890 H   0  0  0  0  0  0  0  0  0  0  0  0
   39.0280   34.1470   39.0350 H   0  0  0  0  0  0  0  0  0  0  0  0
   42.2480   33.3450   37.6150 C   0  0  1  0  0  0  0  0  0  0  0  0
   41.5900   34.1410   38.7450 C   0  0  0  0  0  0  0  0  0  0  0  0
   40.8190   33.0680   39.4230 C   0  0  2  0  0  0  0  0  0  0  0  0
   40.7760   31.9670   38.6090 O   0  0  0  0  0  0  0  0  0  0  0  0
   41.1980   32.2960   37.3540 C   0  0  0  0  0  0  0  0  0  0  0  0
   43.2040   32.9050   37.9330 H   0  0  0  0  0  0  0  0  0  0  0  0
   40.9560   34.9540   38.3500 H   0  0  0  0  0  0  0  0  0  0  0  0
   42.4350   34.5160   39.3680 H   0  0  0  0  0  0  0  0  0  0  0  0
   41.3510   32.7880   40.3640 H   0  0  0  0  0  0  0  0  0  0  0  0
   41.7230   31.4390   36.8680 H   0  0  0  0  0  0  0  0  0  0  0  0
   40.3770   32.6860   36.7430 H   0  0  0  0  0  0  0  0  0  0  0  0
   42.4780   34.1610   36.5210 O   0  0  0  0  0  0  0  0  0  0  0  0
   43.1280   33.7360   35.9260 H   0  0  0  0  0  0  0  0  0  0  0  0
  1  6  1  0  0  0  0
  2  1  2  0  0  0  0
  3  2  1  0  0  0  0
  3  4  2  0  0  0  0
  4  5  1  0  0  0  0
  5  6  2  0  0  0  0
  5  9  1  0  0  0  0
  7  2  1  0  0  0  0
  8  3  1  0  0  0  0
  9 10  1  0  0  0  0
  9 12  1  1  0  0  0
 10 13  1  0  0  0  0
 11 15  1  1  0  0  0
 11  9  1  0  0  0  0
 11 10  1  0  0  0  0
 14 10  1  0  0  0  0
 16 11  1  0  0  0  0
 17 16  1  0  0  0  0
 17 21  1  0  0  0  0
 18 17  1  0  0  0  0
 19 17  1  0  0  0  0
 20 19  1  0  0  0  0
 21 22  1  0  0  0  0
 23  1  1  0  0  0  0
 24 23  2  0  0  0  0
 25 24  1  0  0  0  0
 25 26  1  0  0  0  0
 27 25  1  0  0  0  0
 28 33  1  1  0  0  0
 28 29  1  0  0  0  0
 29 35  1  0  0  0  0
 29 30  1  0  0  0  0
 30 25  1  0  0  0  0
 30 36  1  1  0  0  0
 31 30  1  0  0  0  0
 32 28  1  0  0  0  0
 32 31  1  0  0  0  0
 34 29  1  0  0  0  0
 37 32  1  0  0  0  0
 38 32  1  0  0  0  0
 39 28  1  0  0  0  0
 40 39  1  0  0  0  0
M  END
>  <minimizedAffinity>
-5.42845535

$$$$

 OpenBabel03242511373D

 40 42  0  0  1  0  0  0  0  0999 V2000
   36.0230   27.4020   38.2560 C   0  0  0  0  0  0  0  0  0  0  0  0
   34.7360   27.3560   37.6620 C   0  0  0  0  0  0  0  0  0  0  0  0
   34.3020   28.3930   36.8300 C   0  0  0  0  0  0  0  0  0  0  0  0
   35.1780   29.4050   36.6460 N   0  0  0  0  0  0  0  0  0  0  0  0
   36.4030   29.4300   37.2230 C   0  0  0  0  0  0  0  0  0  0  0  0
   36.8240   28.4530   38.0140 N   0  0  0  0  0  0  0  0  0  0  0  0
   34.0820   26.5360   37.8390 H   0  0  0  0  0  0  0  0  0  0  0  0
   33.3440   28.3970   36.3640 H   0  0  0  0  0  0  0  0  0  0  0  0
   37.3420   30.5800   36.9710 C   0  0  2  0  0  0  0  0  0  0  0  0
   38.6060   30.7170   37.6830 C   0  0  0  0  0  0  0  0  0  0  0  0
   37.4980   31.6330   38.0690 C   0  0  2  0  0  0  0  0  0  0  0  0
   37.2450   30.9710   35.9330 H   0  0  0  0  0  0  0  0  0  0  0  0
   39.4970   31.1160   37.1540 H   0  0  0  0  0  0  0  0  0  0  0  0
   38.8650   29.9440   38.4380 H   0  0  0  0  0  0  0  0  0  0  0  0
   37.5870   32.6620   37.6700 H   0  0  0  0  0  0  0  0  0  0  0  0
   36.7300   31.4890   39.3440 C   0  0  0  0  0  2  0  0  0  0  0  0
   37.1080   32.5850   40.2230 N   0  0  0  0  0  4  0  0  0  0  0  0
   36.3270   32.6700   40.9190 H   0  0  0  0  0  0  0  0  0  0  0  0
   37.2170   33.8010   39.4770 C   0  0  0  0  0  2  0  0  0  0  0  0
   36.9940   33.6940   38.3910 H   0  0  0  0  0  0  0  0  0  0  0  0
   38.2880   32.2550   41.0010 C   0  0  0  0  0  2  0  0  0  0  0  0
   38.0710   31.2500   41.4460 H   0  0  0  0  0  0  0  0  0  0  0  0
   36.4100   26.2810   39.1100 C   0  0  0  0  0  3  0  0  0  0  0  0
   37.1910   26.5470   40.1580 C   0  0  0  0  0  3  0  0  0  0  0  0
   37.6430   25.4930   41.0880 C   0  0  0  0  0  0  0  0  0  0  0  0
   38.6480   25.1250   40.7900 H   0  0  0  0  0  0  0  0  0  0  0  0
   36.9140   24.6640   41.0360 H   0  0  0  0  0  0  0  0  0  0  0  0
   37.5920   27.9970   43.6770 C   0  0  1  0  0  0  0  0  0  0  0  0
   36.7290   27.1130   42.7720 C   0  0  0  0  0  0  0  0  0  0  0  0
   37.6580   25.9800   42.5310 C   0  0  2  0  0  0  0  0  0  0  0  0
   38.9180   26.3420   42.9320 O   0  0  0  0  0  0  0  0  0  0  0  0
   38.9700   27.6870   43.1530 C   0  0  0  0  0  0  0  0  0  0  0  0
   37.4790   27.7240   44.7370 H   0  0  0  0  0  0  0  0  0  0  0  0
   36.4370   27.6440   41.8490 H   0  0  0  0  0  0  0  0  0  0  0  0
   35.8550   26.8210   43.3980 H   0  0  0  0  0  0  0  0  0  0  0  0
   37.3290   25.1110   43.1510 H   0  0  0  0  0  0  0  0  0  0  0  0
   39.6830   27.9320   43.9760 H   0  0  0  0  0  0  0  0  0  0  0  0
   39.1870   28.2370   42.2320 H   0  0  0  0  0  0  0  0  0  0  0  0
   37.2440   29.3280   43.5240 O   0  0  0  0  0  0  0  0  0  0  0  0
   37.5880   29.8450   44.2790 H   0  0  0  0  0  0  0  0  0  0  0  0
  1 23  1  0  0  0  0
  2  7  1  0  0  0  0
  2  1  2  0  0  0  0
  3  2  1  0  0  0  0
  4  3  2  0  0  0  0
  4  5  1  0  0  0  0
  5  6  2  0  0  0  0
  6  1  1  0  0  0  0
  8  3  1  0  0  0  0
  9 12  1  6  0  0  0
  9  5  1  0  0  0  0
  9 10  1  0  0  0  0
  9 11  1  0  0  0  0
 10 11  1  0  0  0  0
 10 14  1  0  0  0  0
 11 15  1  6  0  0  0
 11 16  1  0  0  0  0
 13 10  1  0  0  0  0
 16 17  1  0  0  0  0
 17 18  1  0  0  0  0
 17 21  1  0  0  0  0
 19 17  1  0  0  0  0
 20 19  1  0  0  0  0
 21 22  1  0  0  0  0
 23 24  2  0  0  0  0
 24 25  1  0  0  0  0
 25 30  1  0  0  0  0
 26 25  1  0  0  0  0
 27 25  1  0  0  0  0
 28 33  1  1  0  0  0
 29 35  1  0  0  0  0
 29 28  1  0  0  0  0
 30 29  1  0  0  0  0
 30 31  1  0  0  0  0
 30 36  1  1  0  0  0
 31 32  1  0  0  0  0
 32 28  1  0  0  0  0
 32 37  1  0  0  0  0
 34 29  1  0  0  0  0
 38 32  1  0  0  0  0
 39 28  1  0  0  0  0
 39 40  1  0  0  0  0
M  END
>  <minimizedAffinity>
-5.23671055

$$$$

 OpenBabel03242511373D

 40 42  0  0  1  0  0  0  0  0999 V2000
   35.4710   29.3210   40.3610 C   0  0  0  0  0  0  0  0  0  0  0  0
   36.2380   30.5090   40.2450 C   0  0  0  0  0  0  0  0  0  0  0  0
   37.3160   30.7420   41.1060 C   0  0  0  0  0  0  0  0  0  0  0  0
   37.5570   29.7770   42.0210 N   0  0  0  0  0  0  0  0  0  0  0  0
   36.8120   28.6510   42.1140 C   0  0  0  0  0  0  0  0  0  0  0  0
   35.7880   28.4200   41.3050 N   0  0  0  0  0  0  0  0  0  0  0  0
   36.0070   31.2390   39.5080 H   0  0  0  0  0  0  0  0  0  0  0  0
   37.9170   31.6190   41.0530 H   0  0  0  0  0  0  0  0  0  0  0  0
   37.1360   27.6040   43.1470 C   0  0  2  0  0  0  0  0  0  0  0  0
   38.4820   27.4320   43.6780 C   0  0  0  0  0  0  0  0  0  0  0  0
   37.9890   26.4100   42.7150 C   0  0  2  0  0  0  0  0  0  0  0  0
   36.2530   27.3660   43.7830 H   0  0  0  0  0  0  0  0  0  0  0  0
   38.6230   27.1650   44.7480 H   0  0  0  0  0  0  0  0  0  0  0  0
   39.2840   28.0980   43.2930 H   0  0  0  0  0  0  0  0  0  0  0  0
   37.6620   25.4580   43.1770 H   0  0  0  0  0  0  0  0  0  0  0  0
   38.4730   26.3200   41.3050 C   0  0  0  0  0  2  0  0  0  0  0  0
   37.9820   25.0740   40.7380 N   0  0  0  0  0  4  0  0  0  0  0  0
   38.7980   24.6580   40.2240 H   0  0  0  0  0  0  0  0  0  0  0  0
   36.9210   25.3360   39.8150 C   0  0  0  0  0  2  0  0  0  0  0  0
   36.6730   26.4160   39.6960 H   0  0  0  0  0  0  0  0  0  0  0  0
   37.6470   24.1170   41.7760 C   0  0  0  0  0  2  0  0  0  0  0  0
   38.5420   24.0930   42.4490 H   0  0  0  0  0  0  0  0  0  0  0  0
   34.3620   29.1440   39.4250 C   0  0  0  0  0  3  0  0  0  0  0  0
   34.6490   29.1440   38.1230 C   0  0  0  0  0  3  0  0  0  0  0  0
   33.6080   28.9740   37.0890 C   0  0  0  0  0  0  0  0  0  0  0  0
   33.0740   29.9330   36.9220 H   0  0  0  0  0  0  0  0  0  0  0  0
   32.8960   28.2110   37.4530 H   0  0  0  0  0  0  0  0  0  0  0  0
   36.2310   28.4460   34.6770 C   0  0  1  0  0  0  0  0  0  0  0  0
   35.5580   27.8940   35.9360 C   0  0  0  0  0  0  0  0  0  0  0  0
   34.1900   28.4510   35.7820 C   0  0  2  0  0  0  0  0  0  0  0  0
   34.2080   29.4180   34.8110 O   0  0  0  0  0  0  0  0  0  0  0  0
   35.4960   29.7500   34.5060 C   0  0  0  0  0  0  0  0  0  0  0  0
   36.0910   27.7740   33.8160 H   0  0  0  0  0  0  0  0  0  0  0  0
   36.0710   28.2390   36.8520 H   0  0  0  0  0  0  0  0  0  0  0  0
   35.5820   26.7860   35.8190 H   0  0  0  0  0  0  0  0  0  0  0  0
   33.5080   27.6320   35.4500 H   0  0  0  0  0  0  0  0  0  0  0  0
   35.5950   30.0290   33.4300 H   0  0  0  0  0  0  0  0  0  0  0  0
   35.8810   30.5240   35.1770 H   0  0  0  0  0  0  0  0  0  0  0  0
   37.5880   28.6150   34.8900 O   0  0  0  0  0  0  0  0  0  0  0  0
   38.0460   28.6990   34.0300 H   0  0  0  0  0  0  0  0  0  0  0  0
  1  6  1  0  0  0  0
  2  1  2  0  0  0  0
  2  3  1  0  0  0  0
  3  4  2  0  0  0  0
  4  5  1  0  0  0  0
  5  9  1  0  0  0  0
  6  5  2  0  0  0  0
  7  2  1  0  0  0  0
  8  3  1  0  0  0  0
  9 10  1  0  0  0  0
  9 12  1  1  0  0  0
 10 13  1  0  0  0  0
 11  9  1  0  0  0  0
 11 15  1  1  0  0  0
 11 10  1  0  0  0  0
 14 10  1  0  0  0  0
 16 11  1  0  0  0  0
 17 16  1  0  0  0  0
 17 21  1  0  0  0  0
 18 17  1  0  0  0  0
 19 17  1  0  0  0  0
 20 19  1  0  0  0  0
 21 22  1  0  0  0  0
 23  1  1  0  0  0  0
 24 23  2  0  0  0  0
 25 27  1  0  0  0  0
 25 24  1  0  0  0  0
 26 25  1  0  0  0  0
 28 33  1  6  0  0  0
 28 39  1  0  0  0  0
 28 29  1  0  0  0  0
 29 34  1  0  0  0  0
 30 36  1  6  0  0  0
 30 29  1  0  0  0  0
 30 25  1  0  0  0  0
 31 30  1  0  0  0  0
 32 28  1  0  0  0  0
 32 31  1  0  0  0  0
 32 38  1  0  0  0  0
 35 29  1  0  0  0  0
 37 32  1  0  0  0  0
 40 39  1  0  0  0  0
M  END
>  <minimizedAffinity>
-5.19360399

$$$$

 OpenBabel03242511373D

 40 42  0  0  1  0  0  0  0  0999 V2000
   37.5470   28.8530   42.1070 C   0  0  0  0  0  0  0  0  0  0  0  0
   38.7580   28.9430   42.8410 C   0  0  0  0  0  0  0  0  0  0  0  0
   39.3640   27.7900   43.3520 C   0  0  0  0  0  0  0  0  0  0  0  0
   38.7250   26.6270   43.0970 N   0  0  0  0  0  0  0  0  0  0  0  0
   37.5690   26.5640   42.3950 C   0  0  0  0  0  0  0  0  0  0  0  0
   36.9850   27.6500   41.9070 N   0  0  0  0  0  0  0  0  0  0  0  0
   39.2230   29.8830   43.0150 H   0  0  0  0  0  0  0  0  0  0  0  0
   40.2730   27.8130   43.9060 H   0  0  0  0  0  0  0  0  0  0  0  0
   36.9070   25.2370   42.1320 C   0  0  2  0  0  0  0  0  0  0  0  0
   37.6450   23.9820   42.1770 C   0  0  0  0  0  0  0  0  0  0  0  0
   37.2600   24.5030   40.8370 C   0  0  2  0  0  0  0  0  0  0  0  0
   35.8260   25.2550   42.4000 H   0  0  0  0  0  0  0  0  0  0  0  0
   37.1570   23.0680   42.5780 H   0  0  0  0  0  0  0  0  0  0  0  0
   38.7310   24.0240   42.4060 H   0  0  0  0  0  0  0  0  0  0  0  0
   36.3880   23.9990   40.3760 H   0  0  0  0  0  0  0  0  0  0  0  0
   38.2410   25.1120   39.8880 C   0  0  0  0  0  2  0  0  0  0  0  0
   39.4750   24.3430   39.9610 N   0  0  0  0  0  4  0  0  0  0  0  0
   39.3540   23.6960   40.7780 H   0  0  0  0  0  0  0  0  0  0  0  0
   40.5830   25.2140   40.2010 C   0  0  0  0  0  2  0  0  0  0  0  0
   40.3100   26.2910   40.2920 H   0  0  0  0  0  0  0  0  0  0  0  0
   39.6310   23.4840   38.8020 C   0  0  0  0  0  2  0  0  0  0  0  0
   38.6560   22.9400   38.7100 H   0  0  0  0  0  0  0  0  0  0  0  0
   36.9740   30.0980   41.6010 C   0  0  0  0  0  3  0  0  0  0  0  0
   37.3600   30.5060   40.3920 C   0  0  0  0  0  3  0  0  0  0  0  0
   36.8460   31.7490   39.7820 C   0  0  0  0  0  0  0  0  0  0  0  0
   36.1540   32.2620   40.4820 H   0  0  0  0  0  0  0  0  0  0  0  0
   36.3030   31.4710   38.8600 H   0  0  0  0  0  0  0  0  0  0  0  0
   40.0060   33.4260   40.2110 C   0  0  1  0  0  0  0  0  0  0  0  0
   39.3210   32.1540   39.7030 C   0  0  0  0  0  0  0  0  0  0  0  0
   37.9760   32.6830   39.3670 C   0  0  2  0  0  0  0  0  0  0  0  0
   37.8340   33.9290   39.9200 O   0  0  0  0  0  0  0  0  0  0  0  0
   38.8360   34.1590   40.8170 C   0  0  0  0  0  0  0  0  0  0  0  0
   40.4710   33.9920   39.3900 H   0  0  0  0  0  0  0  0  0  0  0  0
   39.3020   31.3680   40.4790 H   0  0  0  0  0  0  0  0  0  0  0  0
   39.8990   31.8540   38.7980 H   0  0  0  0  0  0  0  0  0  0  0  0
   37.8990   32.7820   38.2570 H   0  0  0  0  0  0  0  0  0  0  0  0
   39.1180   35.2390   40.8360 H   0  0  0  0  0  0  0  0  0  0  0  0
   38.5840   33.7720   41.8090 H   0  0  0  0  0  0  0  0  0  0  0  0
   40.9820   33.1100   41.1390 O   0  0  0  0  0  0  0  0  0  0  0  0
   41.5870   33.8710   41.2510 H   0  0  0  0  0  0  0  0  0  0  0  0
  1  2  1  0  0  0  0
  2  7  1  0  0  0  0
  2  3  2  0  0  0  0
  3  8  1  0  0  0  0
  4  3  1  0  0  0  0
  5  4  2  0  0  0  0
  6  1  2  0  0  0  0
  6  5  1  0  0  0  0
  9 10  1  0  0  0  0
  9  5  1  0  0  0  0
  9 12  1  1  0  0  0
 10 14  1  0  0  0  0
 10 13  1  0  0  0  0
 11 15  1  6  0  0  0
 11  9  1  0  0  0  0
 11 10  1  0  0  0  0
 16 17  1  0  0  0  0
 16 11  1  0  0  0  0
 17 19  1  0  0  0  0
 17 18  1  0  0  0  0
 19 20  1  0  0  0  0
 21 17  1  0  0  0  0
 22 21  1  0  0  0  0
 23  1  1  0  0  0  0
 24 23  2  0  0  0  0
 25 24  1  0  0  0  0
 25 26  1  0  0  0  0
 27 25  1  0  0  0  0
 28 33  1  6  0  0  0
 28 32  1  0  0  0  0
 28 39  1  0  0  0  0
 29 28  1  0  0  0  0
 29 34  1  0  0  0  0
 30 36  1  6  0  0  0
 30 29  1  0  0  0  0
 30 25  1  0  0  0  0
 30 31  1  0  0  0  0
 31 32  1  0  0  0  0
 32 37  1  0  0  0  0
 32 38  1  0  0  0  0
 35 29  1  0  0  0  0
 39 40  1  0  0  0  0
M  END
>  <minimizedAffinity>
-4.94970703

$$$$

 OpenBabel03242511373D

 40 42  0  0  1  0  0  0  0  0999 V2000
   35.8880   29.5890   40.1730 C   0  0  0  0  0  0  0  0  0  0  0  0
   36.5950   28.7130   41.0360 C   0  0  0  0  0  0  0  0  0  0  0  0
   37.6940   29.1740   41.7680 C   0  0  0  0  0  0  0  0  0  0  0  0
   38.0140   30.4750   41.5920 N   0  0  0  0  0  0  0  0  0  0  0  0
   37.3260   31.2950   40.7630 C   0  0  0  0  0  0  0  0  0  0  0  0
   36.2830   30.8690   40.0640 N   0  0  0  0  0  0  0  0  0  0  0  0
   36.3040   27.6960   41.1390 H   0  0  0  0  0  0  0  0  0  0  0  0
   38.2520   28.5510   42.4270 H   0  0  0  0  0  0  0  0  0  0  0  0
   37.7220   32.7410   40.6170 C   0  0  2  0  0  0  0  0  0  0  0  0
   37.3270   33.5380   39.4630 C   0  0  0  0  0  0  0  0  0  0  0  0
   38.7470   33.0980   39.5390 C   0  0  2  0  0  0  0  0  0  0  0  0
   37.8660   33.2300   41.6070 H   0  0  0  0  0  0  0  0  0  0  0  0
   37.0700   34.6110   39.5950 H   0  0  0  0  0  0  0  0  0  0  0  0
   36.7210   33.0460   38.6720 H   0  0  0  0  0  0  0  0  0  0  0  0
   39.4580   33.8820   39.8650 H   0  0  0  0  0  0  0  0  0  0  0  0
   39.3130   32.0200   38.6720 C   0  0  0  0  0  2  0  0  0  0  0  0
   40.3700   32.6030   37.8610 N   0  0  0  0  0  4  0  0  0  0  0  0
   39.8800   33.1400   37.1030 H   0  0  0  0  0  0  0  0  0  0  0  0
   41.1680   31.5710   37.2750 C   0  0  0  0  0  2  0  0  0  0  0  0
   40.8420   30.5370   37.5340 H   0  0  0  0  0  0  0  0  0  0  0  0
   41.1270   33.5900   38.6100 C   0  0  0  0  0  2  0  0  0  0  0  0
   40.3560   34.2630   39.0640 H   0  0  0  0  0  0  0  0  0  0  0  0
   34.7480   29.0390   39.4430 C   0  0  0  0  0  3  0  0  0  0  0  0
   34.7980   29.0690   38.1110 C   0  0  0  0  0  3  0  0  0  0  0  0
   33.7030   28.5410   37.2720 C   0  0  0  0  0  0  0  0  0  0  0  0
   32.8830   29.2860   37.2000 H   0  0  0  0  0  0  0  0  0  0  0  0
   33.3270   27.6200   37.7520 H   0  0  0  0  0  0  0  0  0  0  0  0
   36.0990   28.4080   34.5850 C   0  0  1  0  0  0  0  0  0  0  0  0
   35.6160   27.7250   35.8670 C   0  0  0  0  0  0  0  0  0  0  0  0
   34.1930   28.1490   35.8840 C   0  0  2  0  0  0  0  0  0  0  0  0
   34.0190   29.1630   34.9790 O   0  0  0  0  0  0  0  0  0  0  0  0
   35.2300   29.6390   34.5700 C   0  0  0  0  0  0  0  0  0  0  0  0
   35.9350   27.7730   33.7020 H   0  0  0  0  0  0  0  0  0  0  0  0
   36.1860   28.0700   36.7480 H   0  0  0  0  0  0  0  0  0  0  0  0
   35.7320   26.6330   35.6780 H   0  0  0  0  0  0  0  0  0  0  0  0
   33.5600   27.2850   35.5690 H   0  0  0  0  0  0  0  0  0  0  0  0
   35.1900   29.9830   33.5090 H   0  0  0  0  0  0  0  0  0  0  0  0
   35.6080   30.4110   35.2480 H   0  0  0  0  0  0  0  0  0  0  0  0
   37.4480   28.7010   34.6740 O   0  0  0  0  0  0  0  0  0  0  0  0
   37.8050   28.8760   33.7800 H   0  0  0  0  0  0  0  0  0  0  0  0
  1  2  1  0  0  0  0
  2  7  1  0  0  0  0
  2  3  2  0  0  0  0
  3  8  1  0  0  0  0
  4  3  1  0  0  0  0
  5  4  2  0  0  0  0
  6  1  2  0  0  0  0
  6  5  1  0  0  0  0
  9  5  1  0  0  0  0
  9 12  1  1  0  0  0
 10 11  1  0  0  0  0
 10 13  1  0  0  0  0
 10  9  1  0  0  0  0
 11 15  1  1  0  0  0
 11  9  1  0  0  0  0
 14 10  1  0  0  0  0
 16 11  1  0  0  0  0
 17 21  1  0  0  0  0
 17 16  1  0  0  0  0
 18 17  1  0  0  0  0
 19 20  1  0  0  0  0
 19 17  1  0  0  0  0
 21 22  1  0  0  0  0
 23  1  1  0  0  0  0
 24 23  2  0  0  0  0
 25 27  1  0  0  0  0
 25 24  1  0  0  0  0
 26 25  1  0  0  0  0
 28 33  1  6  0  0  0
 28 39  1  0  0  0  0
 28 29  1  0  0  0  0
 29 30  1  0  0  0  0
 29 34  1  0  0  0  0
 30 36  1  6  0  0  0
 30 25  1  0  0  0  0
 31 30  1  0  0  0  0
 32 28  1  0  0  0  0
 32 31  1  0  0  0  0
 32 38  1  0  0  0  0
 35 29  1  0  0  0  0
 37 32  1  0  0  0  0
 40 39  1  0  0  0  0
M  END
>  <minimizedAffinity>
-4.9349761

$$$$

 OpenBabel03242511373D

 40 42  0  0  1  0  0  0  0  0999 V2000
   37.8220   27.8880   42.5720 C   0  0  0  0  0  0  0  0  0  0  0  0
   39.0780   27.7190   43.2090 C   0  0  0  0  0  0  0  0  0  0  0  0
   39.6360   26.4440   43.3470 C   0  0  0  0  0  0  0  0  0  0  0  0
   38.9080   25.4250   42.8400 N   0  0  0  0  0  0  0  0  0  0  0  0
   37.7110   25.6090   42.2350 C   0  0  0  0  0  0  0  0  0  0  0  0
   37.1710   26.8120   42.1000 N   0  0  0  0  0  0  0  0  0  0  0  0
   39.6130   28.5540   43.5930 H   0  0  0  0  0  0  0  0  0  0  0  0
   40.5760   26.2730   43.8180 H   0  0  0  0  0  0  0  0  0  0  0  0
   36.9480   24.4350   41.6780 C   0  0  2  0  0  0  0  0  0  0  0  0
   37.6180   23.3120   41.0360 C   0  0  0  0  0  0  0  0  0  0  0  0
   36.8940   24.2710   40.1580 C   0  0  2  0  0  0  0  0  0  0  0  0
   35.9880   24.2730   42.2190 H   0  0  0  0  0  0  0  0  0  0  0  0
   37.2250   22.2820   41.1760 H   0  0  0  0  0  0  0  0  0  0  0  0
   38.7260   23.3420   40.9570 H   0  0  0  0  0  0  0  0  0  0  0  0
   35.9080   23.9170   39.7980 H   0  0  0  0  0  0  0  0  0  0  0  0
   37.5930   25.2610   39.2840 C   0  0  0  0  0  2  0  0  0  0  0  0
   36.6220   26.2640   38.8730 N   0  0  0  0  0  4  0  0  0  0  0  0
   36.1640   26.5910   39.7590 H   0  0  0  0  0  0  0  0  0  0  0  0
   35.6390   25.6780   38.0160 C   0  0  0  0  0  2  0  0  0  0  0  0
   35.7860   24.5890   37.8270 H   0  0  0  0  0  0  0  0  0  0  0  0
   37.2760   27.4350   38.3180 C   0  0  0  0  0  2  0  0  0  0  0  0
   38.0610   27.7110   39.0670 H   0  0  0  0  0  0  0  0  0  0  0  0
   37.3030   29.2500   42.4610 C   0  0  0  0  0  3  0  0  0  0  0  0
   36.8150   29.6280   41.2790 C   0  0  0  0  0  3  0  0  0  0  0  0
   36.2660   30.9800   41.0520 C   0  0  0  0  0  0  0  0  0  0  0  0
   36.1750   31.5230   42.0170 H   0  0  0  0  0  0  0  0  0  0  0  0
   35.2660   30.8630   40.5960 H   0  0  0  0  0  0  0  0  0  0  0  0
   38.5130   31.3670   38.2630 C   0  0  1  0  0  0  0  0  0  0  0  0
   37.0450   31.2490   38.6820 C   0  0  0  0  0  0  0  0  0  0  0  0
   37.1120   31.7770   40.0680 C   0  0  2  0  0  0  0  0  0  0  0  0
   38.4240   31.8380   40.4600 O   0  0  0  0  0  0  0  0  0  0  0  0
   39.2070   31.1460   39.5830 C   0  0  0  0  0  0  0  0  0  0  0  0
   38.7340   32.3580   37.8390 H   0  0  0  0  0  0  0  0  0  0  0  0
   36.6930   30.2030   38.6280 H   0  0  0  0  0  0  0  0  0  0  0  0
   36.4900   31.9270   37.9940 H   0  0  0  0  0  0  0  0  0  0  0  0
   36.6950   32.8130   40.0750 H   0  0  0  0  0  0  0  0  0  0  0  0
   40.2160   31.6130   39.4890 H   0  0  0  0  0  0  0  0  0  0  0  0
   39.2580   30.0840   39.8410 H   0  0  0  0  0  0  0  0  0  0  0  0
   38.8250   30.4030   37.3220 O   0  0  0  0  0  0  0  0  0  0  0  0
   39.6540   30.6480   36.8640 H   0  0  0  0  0  0  0  0  0  0  0  0
  1  2  1  0  0  0  0
  2  3  2  0  0  0  0
  2  7  1  0  0  0  0
  3  8  1  0  0  0  0
  4  3  1  0  0  0  0
  5  4  2  0  0  0  0
  6  5  1  0  0  0  0
  6  1  2  0  0  0  0
  9 12  1  1  0  0  0
  9  5  1  0  0  0  0
 10 13  1  0  0  0  0
 10  9  1  0  0  0  0
 11 15  1  6  0  0  0
 11 10  1  0  0  0  0
 11  9  1  0  0  0  0
 14 10  1  0  0  0  0
 16 11  1  0  0  0  0
 17 16  1  0  0  0  0
 17 18  1  0  0  0  0
 19 17  1  0  0  0  0
 20 19  1  0  0  0  0
 21 17  1  0  0  0  0
 21 22  1  0  0  0  0
 23  1  1  0  0  0  0
 24 23  2  0  0  0  0
 25 24  1  0  0  0  0
 25 26  1  0  0  0  0
 27 25  1  0  0  0  0
 28 33  1  6  0  0  0
 28 29  1  0  0  0  0
 28 32  1  0  0  0  0
 29 30  1  0  0  0  0
 30 36  1  6  0  0  0
 30 31  1  0  0  0  0
 30 25  1  0  0  0  0
 32 38  1  0  0  0  0
 32 31  1  0  0  0  0
 34 29  1  0  0  0  0
 35 29  1  0  0  0  0
 37 32  1  0  0  0  0
 39 28  1  0  0  0  0
 40 39  1  0  0  0  0
M  END
>  <minimizedAffinity>
-4.91439915

$$$$

 OpenBabel03242511373D

 40 42  0  0  1  0  0  0  0  0999 V2000
   39.5320   29.1820   42.5790 C   0  0  0  0  0  0  0  0  0  0  0  0
   38.1480   29.3710   42.8290 C   0  0  0  0  0  0  0  0  0  0  0  0
   37.3780   28.3330   43.3640 C   0  0  0  0  0  0  0  0  0  0  0  0
   38.0360   27.1800   43.6150 N   0  0  0  0  0  0  0  0  0  0  0  0
   39.3580   27.0220   43.3680 C   0  0  0  0  0  0  0  0  0  0  0  0
   40.0980   27.9970   42.8600 N   0  0  0  0  0  0  0  0  0  0  0  0
   37.6750   30.2990   42.6140 H   0  0  0  0  0  0  0  0  0  0  0  0
   36.3370   28.4330   43.5680 H   0  0  0  0  0  0  0  0  0  0  0  0
   40.0410   25.7160   43.6790 C   0  0  2  0  0  0  0  0  0  0  0  0
   41.2290   25.2740   42.9590 C   0  0  0  0  0  0  0  0  0  0  0  0
   39.9430   24.5910   42.6460 C   0  0  2  0  0  0  0  0  0  0  0  0
   39.8910   25.4150   44.7410 H   0  0  0  0  0  0  0  0  0  0  0  0
   42.0300   24.7260   43.5010 H   0  0  0  0  0  0  0  0  0  0  0  0
   41.6250   25.9290   42.1550 H   0  0  0  0  0  0  0  0  0  0  0  0
   39.8240   23.5920   43.1080 H   0  0  0  0  0  0  0  0  0  0  0  0
   39.1900   24.8190   41.3760 C   0  0  0  0  0  2  0  0  0  0  0  0
   38.0220   23.9510   41.3820 N   0  0  0  0  0  4  0  0  0  0  0  0
   37.8720   23.6880   42.3880 H   0  0  0  0  0  0  0  0  0  0  0  0
   38.2800   22.7720   40.6140 C   0  0  0  0  0  2  0  0  0  0  0  0
   39.3000   22.7300   40.1680 H   0  0  0  0  0  0  0  0  0  0  0  0
   36.8260   24.6720   40.9860 C   0  0  0  0  0  2  0  0  0  0  0  0
   36.8210   25.5950   41.6180 H   0  0  0  0  0  0  0  0  0  0  0  0
   40.2740   30.3120   42.0220 C   0  0  0  0  0  3  0  0  0  0  0  0
   39.5700   31.2850   41.4430 C   0  0  0  0  0  3  0  0  0  0  0  0
   40.2150   32.4730   40.8480 C   0  0  0  0  0  0  0  0  0  0  0  0
   41.3060   32.2980   40.7310 H   0  0  0  0  0  0  0  0  0  0  0  0
   40.0470   33.3240   41.5320 H   0  0  0  0  0  0  0  0  0  0  0  0
   38.8580   31.7780   37.5840 C   0  0  1  0  0  0  0  0  0  0  0  0
   38.5360   31.8930   39.0760 C   0  0  0  0  0  0  0  0  0  0  0  0
   39.5880   32.8460   39.5110 C   0  0  2  0  0  0  0  0  0  0  0  0
   40.5280   32.9560   38.5210 O   0  0  0  0  0  0  0  0  0  0  0  0
   40.3540   31.9660   37.5980 C   0  0  0  0  0  0  0  0  0  0  0  0
   38.3470   32.5570   36.9980 H   0  0  0  0  0  0  0  0  0  0  0  0
   38.5990   30.9110   39.5790 H   0  0  0  0  0  0  0  0  0  0  0  0
   37.5150   32.3360   39.1200 H   0  0  0  0  0  0  0  0  0  0  0  0
   39.1190   33.8480   39.6630 H   0  0  0  0  0  0  0  0  0  0  0  0
   40.6370   32.3150   36.5760 H   0  0  0  0  0  0  0  0  0  0  0  0
   40.8760   31.0490   37.8880 H   0  0  0  0  0  0  0  0  0  0  0  0
   38.4760   30.5390   37.1020 O   0  0  0  0  0  0  0  0  0  0  0  0
   38.4270   30.5680   36.1250 H   0  0  0  0  0  0  0  0  0  0  0  0
  1  2  2  0  0  0  0
  1  6  1  0  0  0  0
  2  3  1  0  0  0  0
  3  8  1  0  0  0  0
  3  4  2  0  0  0  0
  5  4  1  0  0  0  0
  5  9  1  0  0  0  0
  6  5  2  0  0  0  0
  7  2  1  0  0  0  0
  9 12  1  1  0  0  0
 10 13  1  0  0  0  0
 10  9  1  0  0  0  0
 11 10  1  0  0  0  0
 11 15  1  1  0  0  0
 11  9  1  0  0  0  0
 14 10  1  0  0  0  0
 16 17  1  0  0  0  0
 16 11  1  0  0  0  0
 17 18  1  0  0  0  0
 19 17  1  0  0  0  0
 20 19  1  0  0  0  0
 21 17  1  0  0  0  0
 21 22  1  0  0  0  0
 23  1  1  0  0  0  0
 24 23  2  0  0  0  0
 25 24  1  0  0  0  0
 25 27  1  0  0  0  0
 26 25  1  0  0  0  0
 28 33  1  6  0  0  0
 28 32  1  0  0  0  0
 28 29  1  0  0  0  0
 29 35  1  0  0  0  0
 29 30  1  0  0  0  0
 29 34  1  0  0  0  0
 30 36  1  1  0  0  0
 30 25  1  0  0  0  0
 31 30  1  0  0  0  0
 32 38  1  0  0  0  0
 32 31  1  0  0  0  0
 37 32  1  0  0  0  0
 39 28  1  0  0  0  0
 40 39  1  0  0  0  0
M  END
>  <minimizedAffinity>
-4.89260864

$$$$

 OpenBabel03242511373D

 40 42  0  0  1  0  0  0  0  0999 V2000
   36.6840   30.4800   40.0920 C   0  0  0  0  0  0  0  0  0  0  0  0
   36.3070   29.8050   38.9020 C   0  0  0  0  0  0  0  0  0  0  0  0
   36.0180   28.4370   38.9250 C   0  0  0  0  0  0  0  0  0  0  0  0
   36.1230   27.8330   40.1290 N   0  0  0  0  0  0  0  0  0  0  0  0
   36.4840   28.4960   41.2530 C   0  0  0  0  0  0  0  0  0  0  0  0
   36.7620   29.7920   41.2440 N   0  0  0  0  0  0  0  0  0  0  0  0
   36.2400   30.3260   37.9770 H   0  0  0  0  0  0  0  0  0  0  0  0
   35.7310   27.8930   38.0550 H   0  0  0  0  0  0  0  0  0  0  0  0
   36.5720   27.7720   42.5710 C   0  0  2  0  0  0  0  0  0  0  0  0
   37.3710   28.2790   43.6800 C   0  0  0  0  0  0  0  0  0  0  0  0
   37.8990   27.1030   42.9340 C   0  0  2  0  0  0  0  0  0  0  0  0
   35.6550   27.1740   42.7750 H   0  0  0  0  0  0  0  0  0  0  0  0
   37.0070   28.1560   44.7220 H   0  0  0  0  0  0  0  0  0  0  0  0
   37.9310   29.2250   43.5290 H   0  0  0  0  0  0  0  0  0  0  0  0
   37.7650   26.1310   43.4470 H   0  0  0  0  0  0  0  0  0  0  0  0
   39.0530   27.1910   41.9890 C   0  0  0  0  0  2  0  0  0  0  0  0
   39.4100   25.8390   41.5870 N   0  0  0  0  0  4  0  0  0  0  0  0
   40.4560   25.7890   41.6630 H   0  0  0  0  0  0  0  0  0  0  0  0
   39.0200   25.6100   40.2300 C   0  0  0  0  0  2  0  0  0  0  0  0
   38.5320   26.4830   39.7390 H   0  0  0  0  0  0  0  0  0  0  0  0
   38.9040   24.8570   42.5280 C   0  0  0  0  0  2  0  0  0  0  0  0
   39.2240   25.2270   43.5350 H   0  0  0  0  0  0  0  0  0  0  0  0
   36.9680   31.9100   39.9930 C   0  0  0  0  0  3  0  0  0  0  0  0
   38.1390   32.3390   40.4630 C   0  0  0  0  0  3  0  0  0  0  0  0
   38.5310   33.7620   40.4160 C   0  0  0  0  0  0  0  0  0  0  0  0
   38.5220   34.1960   41.4380 H   0  0  0  0  0  0  0  0  0  0  0  0
   37.7970   34.2910   39.7820 H   0  0  0  0  0  0  0  0  0  0  0  0
   41.7610   32.6680   39.2540 C   0  0  1  0  0  0  0  0  0  0  0  0
   40.2830   32.8200   38.8850 C   0  0  0  0  0  0  0  0  0  0  0  0
   39.8960   33.9510   39.7660 C   0  0  2  0  0  0  0  0  0  0  0  0
   40.8800   34.1470   40.6990 O   0  0  0  0  0  0  0  0  0  0  0  0
   41.7410   33.0890   40.7010 C   0  0  0  0  0  0  0  0  0  0  0  0
   42.4000   33.3210   38.6400 H   0  0  0  0  0  0  0  0  0  0  0  0
   39.7180   31.8930   39.0890 H   0  0  0  0  0  0  0  0  0  0  0  0
   40.2780   33.1000   37.8070 H   0  0  0  0  0  0  0  0  0  0  0  0
   39.8130   34.8750   39.1440 H   0  0  0  0  0  0  0  0  0  0  0  0
   42.7790   33.4160   40.9480 H   0  0  0  0  0  0  0  0  0  0  0  0
   41.3880   32.2840   41.3530 H   0  0  0  0  0  0  0  0  0  0  0  0
   42.1690   31.3580   39.0790 O   0  0  0  0  0  0  0  0  0  0  0  0
   43.1460   31.3200   39.0470 H   0  0  0  0  0  0  0  0  0  0  0  0
  1  6  1  0  0  0  0
  2  3  1  0  0  0  0
  2  1  2  0  0  0  0
  3  4  2  0  0  0  0
  4  5  1  0  0  0  0
  5  9  1  0  0  0  0
  6  5  2  0  0  0  0
  7  2  1  0  0  0  0
  8  3  1  0  0  0  0
  9 12  1  1  0  0  0
  9 11  1  0  0  0  0
  9 10  1  0  0  0  0
 10 13  1  0  0  0  0
 11 15  1  1  0  0  0
 11 10  1  0  0  0  0
 14 10  1  0  0  0  0
 16 11  1  0  0  0  0
 17 18  1  0  0  0  0
 17 16  1  0  0  0  0
 17 21  1  0  0  0  0
 19 17  1  0  0  0  0
 20 19  1  0  0  0  0
 21 22  1  0  0  0  0
 23  1  1  0  0  0  0
 23 24  2  0  0  0  0
 25 24  1  0  0  0  0
 25 26  1  0  0  0  0
 27 25  1  0  0  0  0
 28 33  1  6  0  0  0
 28 32  1  0  0  0  0
 29 34  1  0  0  0  0
 29 28  1  0  0  0  0
 29 30  1  0  0  0  0
 30 36  1  6  0  0  0
 30 25  1  0  0  0  0
 30 31  1  0  0  0  0
 31 32  1  0  0  0  0
 32 37  1  0  0  0  0
 32 38  1  0  0  0  0
 35 29  1  0  0  0  0
 39 28  1  0  0  0  0
 40 39  1  0  0  0  0
M  END
>  <minimizedAffinity>
-4.86009121

$$$$

 OpenBabel03242511373D

 40 42  0  0  1  0  0  0  0  0999 V2000
   37.8910   29.4290   42.1910 C   0  0  0  0  0  0  0  0  0  0  0  0
   36.5630   29.4130   41.6910 C   0  0  0  0  0  0  0  0  0  0  0  0
   36.1070   30.4420   40.8610 C   0  0  0  0  0  0  0  0  0  0  0  0
   37.0020   31.4150   40.5840 N   0  0  0  0  0  0  0  0  0  0  0  0
   38.2650   31.4120   41.0730 C   0  0  0  0  0  0  0  0  0  0  0  0
   38.7080   30.4420   41.8620 N   0  0  0  0  0  0  0  0  0  0  0  0
   35.8960   28.6220   41.9380 H   0  0  0  0  0  0  0  0  0  0  0  0
   35.1190   30.4680   40.4630 H   0  0  0  0  0  0  0  0  0  0  0  0
   39.2230   32.5190   40.7210 C   0  0  2  0  0  0  0  0  0  0  0  0
   38.8430   33.6230   39.8500 C   0  0  0  0  0  0  0  0  0  0  0  0
   39.7490   32.5840   39.2870 C   0  0  2  0  0  0  0  0  0  0  0  0
   39.9790   32.6800   41.5240 H   0  0  0  0  0  0  0  0  0  0  0  0
   39.2300   34.6450   40.0520 H   0  0  0  0  0  0  0  0  0  0  0  0
   37.8130   33.6280   39.4340 H   0  0  0  0  0  0  0  0  0  0  0  0
   40.8150   32.8790   39.2310 H   0  0  0  0  0  0  0  0  0  0  0  0
   39.2980   31.5670   38.2890 C   0  0  0  0  0  2  0  0  0  0  0  0
   40.3900   31.3370   37.3550 N   0  0  0  0  0  4  0  0  0  0  0  0
   39.9500   31.3330   36.4020 H   0  0  0  0  0  0  0  0  0  0  0  0
   40.9950   30.0660   37.6070 C   0  0  0  0  0  2  0  0  0  0  0  0
   40.5310   29.4940   38.4440 H   0  0  0  0  0  0  0  0  0  0  0  0
   41.3220   32.4500   37.3490 C   0  0  0  0  0  2  0  0  0  0  0  0
   40.6840   33.3620   37.2260 H   0  0  0  0  0  0  0  0  0  0  0  0
   38.2990   28.3190   43.0500 C   0  0  0  0  0  3  0  0  0  0  0  0
   39.5200   27.8160   42.8670 C   0  0  0  0  0  3  0  0  0  0  0  0
   40.0370   26.6940   43.6760 C   0  0  0  0  0  0  0  0  0  0  0  0
   39.3470   26.4820   44.5200 H   0  0  0  0  0  0  0  0  0  0  0  0
   41.0250   26.9910   44.0690 H   0  0  0  0  0  0  0  0  0  0  0  0
   39.4230   24.5080   40.8780 C   0  0  1  0  0  0  0  0  0  0  0  0
   40.2290   25.7120   41.3750 C   0  0  0  0  0  0  0  0  0  0  0  0
   40.2520   25.4420   42.8340 C   0  0  2  0  0  0  0  0  0  0  0  0
   39.3310   24.4700   43.1240 O   0  0  0  0  0  0  0  0  0  0  0  0
   38.5100   24.2700   42.0540 C   0  0  0  0  0  0  0  0  0  0  0  0
   40.0710   23.6440   40.6740 H   0  0  0  0  0  0  0  0  0  0  0  0
   39.7340   26.6640   41.1130 H   0  0  0  0  0  0  0  0  0  0  0  0
   41.2330   25.6030   40.9050 H   0  0  0  0  0  0  0  0  0  0  0  0
   41.2650   25.0600   43.1100 H   0  0  0  0  0  0  0  0  0  0  0  0
   38.1860   23.2040   41.9890 H   0  0  0  0  0  0  0  0  0  0  0  0
   37.6650   24.9660   42.0590 H   0  0  0  0  0  0  0  0  0  0  0  0
   38.7370   24.8320   39.7200 O   0  0  0  0  0  0  0  0  0  0  0  0
   38.4570   24.0120   39.2670 H   0  0  0  0  0  0  0  0  0  0  0  0
  1 23  1  0  0  0  0
  2  7  1  0  0  0  0
  2  1  2  0  0  0  0
  3  2  1  0  0  0  0
  4  3  2  0  0  0  0
  4  5  1  0  0  0  0
  5  6  2  0  0  0  0
  6  1  1  0  0  0  0
  8  3  1  0  0  0  0
  9  5  1  0  0  0  0
  9 12  1  1  0  0  0
 10 13  1  0  0  0  0
 10  9  1  0  0  0  0
 11 15  1  6  0  0  0
 11 10  1  0  0  0  0
 11  9  1  0  0  0  0
 14 10  1  0  0  0  0
 16 11  1  0  0  0  0
 17 19  1  0  0  0  0
 17 16  1  0  0  0  0
 18 17  1  0  0  0  0
 19 20  1  0  0  0  0
 21 17  1  0  0  0  0
 22 21  1  0  0  0  0
 24 23  2  0  0  0  0
 24 25  1  0  0  0  0
 25 27  1  0  0  0  0
 25 26  1  0  0  0  0
 28 33  1  6  0  0  0
 28 29  1  0  0  0  0
 28 32  1  0  0  0  0
 29 30  1  0  0  0  0
 30 36  1  1  0  0  0
 30 31  1  0  0  0  0
 30 25  1  0  0  0  0
 32 38  1  0  0  0  0
 32 31  1  0  0  0  0
 34 29  1  0  0  0  0
 35 29  1  0  0  0  0
 37 32  1  0  0  0  0
 39 28  1  0  0  0  0
 40 39  1  0  0  0  0
M  END
>  <minimizedAffinity>
-4.8345418

$$$$
