
 OpenBabel03242514393D

 40 42  0  0  0  0  0  0  0  0999 V2000
   47.7830   34.3020   41.2340 O   0  0  0  0  0  0  0  0  0  0  0  0
   47.2110   33.9850   40.0650 C   0  0  0  0  0  0  0  0  0  0  0  0
   45.9210   33.9440   40.1600 O   0  0  0  0  0  0  0  0  0  0  0  0
   47.5150   33.6520   38.6540 C   0  0  0  0  0  0  0  0  0  0  0  0
   48.3840   34.3530   37.7940 C   0  0  0  0  0  0  0  0  0  0  0  0
   48.4790   33.8220   36.5300 C   0  0  0  0  0  0  0  0  0  0  0  0
   47.8000   32.7350   36.1640 C   0  0  0  0  0  0  0  0  0  0  0  0
   46.8520   32.3050   37.7450 S   0  0  0  0  0  0  0  0  0  0  0  0
   48.9300   35.2320   38.0980 H   0  0  0  0  0  0  0  0  0  0  0  0
   49.0940   34.2220   35.7340 H   0  0  0  0  0  0  0  0  0  0  0  0
   47.6380   31.9130   34.9900 C   0  0  0  0  0  0  0  0  0  0  0  0
   46.8160   30.7970   35.0130 C   0  0  0  0  0  0  0  0  0  0  0  0
   46.7630   30.1050   33.8110 C   0  0  0  0  0  0  0  0  0  0  0  0
   47.4850   30.5450   32.7350 C   0  0  0  0  0  0  0  0  0  0  0  0
   48.2890   31.6560   32.7500 C   0  0  0  0  0  0  0  0  0  0  0  0
   48.3350   32.3280   33.9370 N   0  0  0  0  0  0  0  0  0  0  0  0
   46.2800   30.5170   35.9030 H   0  0  0  0  0  0  0  0  0  0  0  0
   46.1380   29.2200   33.7560 H   0  0  0  0  0  0  0  0  0  0  0  0
   47.4480   30.0090   31.7940 H   0  0  0  0  0  0  0  0  0  0  0  0
   48.8590   32.0010   31.8980 H   0  0  0  0  0  0  0  0  0  0  0  0
   49.6120   34.3830   43.0480 O   0  0  0  0  0  0  0  0  0  0  0  0
   48.9900   33.4640   42.0250 P   0  0  2  0  0  0  0  0  0  0  0  0
   50.1620   33.0470   40.9230 O   0  0  0  0  0  0  0  0  0  0  0  0
   51.0930   33.1860   41.2460 H   0  0  0  0  0  0  0  0  0  0  0  0
   48.3250   32.0740   42.7880 O   0  0  0  0  0  0  0  0  0  0  0  0
   47.0620   33.4290   44.2800 C   0  0  0  0  0  0  0  0  0  0  0  0
   47.5710   32.1860   43.9520 C   0  0  0  0  0  0  0  0  0  0  0  0
   47.2990   31.1210   44.8060 C   0  0  0  0  0  0  0  0  0  0  0  0
   46.5510   31.3470   45.9160 N   0  0  0  0  0  0  0  0  0  0  0  0
   46.0710   32.5700   46.2040 C   0  0  0  0  0  0  0  0  0  0  0  0
   46.3230   33.6030   45.3940 N   0  0  0  0  0  0  0  0  0  0  0  0
   47.1980   34.3350   43.7060 H   0  0  0  0  0  0  0  0  0  0  0  0
   47.6940   30.1500   44.5530 H   0  0  0  0  0  0  0  0  0  0  0  0
   45.2490   32.7990   47.4330 C   0  0  0  0  0  0  0  0  0  0  0  0
   46.0580   32.6010   48.6140 N   0  0  0  0  0  0  0  0  0  0  0  0
   46.0040   33.4430   49.2590 H   0  0  0  0  0  0  0  0  0  0  0  0
   45.5660   31.4850   49.3770 C   0  0  0  0  0  0  0  0  0  0  0  0
   44.4720   31.5520   49.4990 H   0  0  0  0  0  0  0  0  0  0  0  0
   47.4410   32.4130   48.2460 C   0  0  0  0  0  0  0  0  0  0  0  0
   48.0680   32.3220   49.1470 H   0  0  0  0  0  0  0  0  0  0  0  0
  1 22  1  0  0  0  0
  2  3  2  0  0  0  0
  2  1  1  0  0  0  0
  4  2  1  0  0  0  0
  5  9  1  0  0  0  0
  5  4  2  0  0  0  0
  6  5  1  0  0  0  0
  7  6  2  0  0  0  0
  7  8  1  0  0  0  0
  8  4  1  0  0  0  0
 10  6  1  0  0  0  0
 11 12  1  0  0  0  0
 11  7  1  0  0  0  0
 12 17  1  0  0  0  0
 13 12  2  0  0  0  0
 14 15  2  0  0  0  0
 14 13  1  0  0  0  0
 15 16  1  0  0  0  0
 16 11  2  0  0  0  0
 18 13  1  0  0  0  0
 19 14  1  0  0  0  0
 20 15  1  0  0  0  0
 22 25  1  0  0  0  0
 22 21  2  1  0  0  0
 23 24  1  0  0  0  0
 23 22  1  0  0  0  0
 25 27  1  0  0  0  0
 26 31  1  0  0  0  0
 27 26  2  0  0  0  0
 27 28  1  0  0  0  0
 28 29  2  0  0  0  0
 29 30  1  0  0  0  0
 30 34  1  0  0  0  0
 31 30  2  0  0  0  0
 32 26  1  0  0  0  0
 33 28  1  0  0  0  0
 34 35  1  0  0  0  0
 35 36  1  0  0  0  0
 35 37  1  0  0  0  0
 37 38  1  0  0  0  0
 39 35  1  0  0  0  0
 39 40  1  0  0  0  0
M  END
>  <minimizedAffinity>
-5.33065128

>  <minimizedRMSD>
2.60624051

$$$$
