
 OpenBabel03252500253D

 35 36  0  0  1  0  0  0  0  0999 V2000
   47.0370   30.1980   48.2150 C   0  0  2  0  0  0  0  0  0  0  0  0
   45.5780   30.4430   48.2890 C   0  0  2  0  0  0  0  0  0  0  0  0
   45.0140   29.5630   47.2340 C   0  0  0  0  0  0  0  0  0  0  0  0
   45.8500   28.4720   47.1060 O   0  0  0  0  0  0  0  0  0  0  0  0
   46.9740   28.6940   47.8320 C   0  0  0  0  0  0  0  0  0  0  0  0
   47.6940   30.5680   47.4840 H   0  0  0  0  0  0  0  0  0  0  0  0
   45.2800   30.0530   49.3010 H   0  0  0  0  0  0  0  0  0  0  0  0
   44.0650   29.1070   47.6540 H   0  0  0  0  0  0  0  0  0  0  0  0
   44.6540   30.0210   46.3130 H   0  0  0  0  0  0  0  0  0  0  0  0
   46.9070   28.1950   48.8390 H   0  0  0  0  0  0  0  0  0  0  0  0
   47.8880   28.3460   47.3590 H   0  0  0  0  0  0  0  0  0  0  0  0
   45.2370   31.7650   48.1210 O   0  0  0  0  0  0  0  0  0  0  0  0
   47.3980   32.9250   47.3510 O   0  0  0  0  0  0  0  0  0  0  0  0
   46.0750   32.4190   46.8450 P   0  0  1  0  0  0  0  0  0  0  0  0
   46.3660   31.2180   45.6850 O   0  0  0  0  0  0  0  0  0  0  0  0
   45.8700   31.3870   44.8650 H   0  0  0  0  0  0  0  0  0  0  0  0
   45.2740   33.7640   46.1570 O   0  0  0  0  0  0  0  0  0  0  0  0
   45.2280   35.9080   43.2950 C   0  0  0  0  0  0  0  0  0  0  0  0
   46.2570   35.3920   42.4580 C   0  0  0  0  0  0  0  0  0  0  0  0
   46.9610   34.2740   42.9350 C   0  0  0  0  0  0  0  0  0  0  0  0
   46.6250   33.7640   44.1360 N   0  0  0  0  0  0  0  0  0  0  0  0
   45.6410   34.2810   44.9020 C   0  0  0  0  0  0  0  0  0  0  0  0
   44.9470   35.3530   44.4740 N   0  0  0  0  0  0  0  0  0  0  0  0
   46.5010   35.8250   41.5020 H   0  0  0  0  0  0  0  0  0  0  0  0
   47.7610   33.8200   42.3590 H   0  0  0  0  0  0  0  0  0  0  0  0
   44.5430   37.0000   42.8280 O   0  0  0  0  0  0  0  0  0  0  0  0
   45.0110   37.8780   42.7120 H   0  0  0  0  0  0  0  0  0  0  0  0
   47.7200   30.3780   49.3800 O   0  0  0  0  0  0  0  0  0  0  0  0
   48.8760   30.9890   49.5080 C   0  0  0  0  0  2  0  0  0  0  0  0
   50.0220   30.1140   49.1830 N   0  0  0  0  0  4  0  0  0  0  0  0
   49.9520   29.7180   48.2420 H   0  0  0  0  0  0  0  0  0  0  0  0
   51.2560   30.9160   49.2160 C   0  0  0  0  0  2  0  0  0  0  0  0
   50.9210   31.9600   48.9560 H   0  0  0  0  0  0  0  0  0  0  0  0
   50.2100   29.0780   50.1650 C   0  0  0  0  0  2  0  0  0  0  0  0
   49.6370   28.1670   49.9990 H   0  0  0  0  0  0  0  0  0  0  0  0
  1  6  1  6  0  0  0
  1  2  1  0  0  0  0
  1 28  1  0  0  0  0
  2  7  1  1  0  0  0
  3  8  1  0  0  0  0
  3  2  1  0  0  0  0
  4  3  1  0  0  0  0
  4  5  1  0  0  0  0
  5  1  1  0  0  0  0
  5 10  1  0  0  0  0
  9  3  1  0  0  0  0
 11  5  1  0  0  0  0
 12  2  1  0  0  0  0
 14 13  2  1  0  0  0
 14 12  1  0  0  0  0
 15 14  1  0  0  0  0
 16 15  1  0  0  0  0
 17 14  1  0  0  0  0
 18 23  1  0  0  0  0
 19 20  1  0  0  0  0
 19 18  2  0  0  0  0
 20 21  2  0  0  0  0
 21 22  1  0  0  0  0
 22 17  1  0  0  0  0
 23 22  2  0  0  0  0
 24 19  1  0  0  0  0
 25 20  1  0  0  0  0
 26 18  1  0  0  0  0
 27 26  1  0  0  0  0
 28 29  1  0  0  0  0
 30 32  1  0  0  0  0
 30 29  1  0  0  0  0
 30 34  1  0  0  0  0
 31 30  1  0  0  0  0
 33 32  1  0  0  0  0
 35 34  1  0  0  0  0
M  END
>  <minimizedAffinity>
-4.46102571

>  <minimizedRMSD>
0.381485254

$$$$
