
 OpenBabel03252507193D

 42 44  0  0  1  0  0  0  0  0999 V2000
   48.0970   32.9000   42.4950 C   0  0  0  0  0  0  0  0  0  0  0  0
   49.0290   33.7700   42.4500 O   0  0  0  0  0  0  0  0  0  0  0  0
   46.8140   33.0830   41.8460 N   0  0  0  0  0  0  0  0  0  0  0  0
   46.0150   32.1680   41.0460 C   0  0  0  0  0  0  0  0  0  0  0  0
   44.6010   32.1280   41.6250 C   0  0  0  0  0  0  0  0  0  0  0  0
   43.9520   33.4840   41.4940 C   0  0  0  0  0  0  0  0  0  0  0  0
   44.9980   34.5180   41.1820 C   0  0  0  0  0  0  0  0  0  0  0  0
   46.2230   34.4130   42.0260 C   0  0  1  0  0  0  0  0  0  0  0  0
   46.4260   31.1410   41.2630 H   0  0  0  0  0  0  0  0  0  0  0  0
   46.0060   32.4140   39.9840 H   0  0  0  0  0  0  0  0  0  0  0  0
   44.7510   31.9010   42.7190 H   0  0  0  0  0  0  0  0  0  0  0  0
   44.0090   31.3200   41.1720 H   0  0  0  0  0  0  0  0  0  0  0  0
   43.3030   33.4180   40.5820 H   0  0  0  0  0  0  0  0  0  0  0  0
   43.2970   33.7470   42.3220 H   0  0  0  0  0  0  0  0  0  0  0  0
   44.5480   35.5120   41.2870 H   0  0  0  0  0  0  0  0  0  0  0  0
   45.3320   34.4170   40.1170 H   0  0  0  0  0  0  0  0  0  0  0  0
   46.9900   35.0830   41.5850 H   0  0  0  0  0  0  0  0  0  0  0  0
   47.6340   31.4790   44.4150 C   0  0  0  0  0  0  0  0  0  0  0  0
   48.3250   31.6880   43.2190 C   0  0  0  0  0  0  0  0  0  0  0  0
   49.2060   30.7240   42.7630 C   0  0  0  0  0  0  0  0  0  0  0  0
   49.3650   29.6060   43.5030 N   0  0  0  0  0  0  0  0  0  0  0  0
   48.6950   29.3970   44.6680 C   0  0  0  0  0  0  0  0  0  0  0  0
   47.8390   30.3400   45.1050 N   0  0  0  0  0  0  0  0  0  0  0  0
   46.9400   32.1650   44.8360 H   0  0  0  0  0  0  0  0  0  0  0  0
   48.8610   28.4810   45.2230 H   0  0  0  0  0  0  0  0  0  0  0  0
   49.9210   30.9540   41.5250 C   0  0  0  0  0  0  0  0  0  0  0  0
   49.3070   30.7330   40.3280 C   0  0  0  0  0  0  0  0  0  0  0  0
   50.0000   30.9560   39.1600 C   0  0  0  0  0  0  0  0  0  0  0  0
   51.3200   31.4040   39.1460 C   0  0  0  0  0  0  0  0  0  0  0  0
   51.8900   31.6120   40.3900 C   0  0  0  0  0  0  0  0  0  0  0  0
   51.1850   31.3840   41.5080 N   0  0  0  0  0  0  0  0  0  0  0  0
   48.3010   30.3840   40.1730 H   0  0  0  0  0  0  0  0  0  0  0  0
   49.5680   30.7980   38.1770 H   0  0  0  0  0  0  0  0  0  0  0  0
   51.8420   31.5720   38.2160 H   0  0  0  0  0  0  0  0  0  0  0  0
   52.9020   31.9560   40.4230 H   0  0  0  0  0  0  0  0  0  0  0  0
   46.0690   34.7680   43.4620 C   0  0  0  0  0  2  0  0  0  0  0  0
   44.9670   35.6760   43.6350 N   0  0  0  0  0  4  0  0  0  0  0  0
   44.1880   35.4020   43.0020 H   0  0  0  0  0  0  0  0  0  0  0  0
   45.3130   37.0420   43.3680 C   0  0  0  0  0  2  0  0  0  0  0  0
   44.3640   37.6280   43.5200 H   0  0  0  0  0  0  0  0  0  0  0  0
   44.4440   35.6360   44.9970 C   0  0  0  0  0  2  0  0  0  0  0  0
   43.8750   36.5780   45.1390 H   0  0  0  0  0  0  0  0  0  0  0  0
  1 19  1  0  0  0  0
  2  1  2  0  0  0  0
  3  8  1  0  0  0  0
  3  1  1  0  0  0  0
  4  9  1  0  0  0  0
  4  5  1  0  0  0  0
  4  3  1  0  0  0  0
  5 11  1  0  0  0  0
  6  5  1  0  0  0  0
  6 14  1  0  0  0  0
  7 15  1  0  0  0  0
  7  6  1  0  0  0  0
  7  8  1  0  0  0  0
  8 17  1  6  0  0  0
  8 36  1  0  0  0  0
 10  4  1  0  0  0  0
 12  5  1  0  0  0  0
 13  6  1  0  0  0  0
 16  7  1  0  0  0  0
 18 24  1  0  0  0  0
 18 23  1  0  0  0  0
 19 18  2  0  0  0  0
 20 19  1  0  0  0  0
 20 21  2  0  0  0  0
 21 22  1  0  0  0  0
 22 23  2  0  0  0  0
 22 25  1  0  0  0  0
 26 20  1  0  0  0  0
 27 26  2  0  0  0  0
 28 27  1  0  0  0  0
 29 28  2  0  0  0  0
 29 30  1  0  0  0  0
 30 35  1  0  0  0  0
 30 31  2  0  0  0  0
 31 26  1  0  0  0  0
 32 27  1  0  0  0  0
 33 28  1  0  0  0  0
 34 29  1  0  0  0  0
 36 37  1  0  0  0  0
 37 41  1  0  0  0  0
 38 37  1  0  0  0  0
 39 40  1  0  0  0  0
 39 37  1  0  0  0  0
 41 42  1  0  0  0  0
M  END
>  <minimizedAffinity>
-3.84029293

>  <minimizedRMSD>
5.3642211

$$$$
