
 OpenBabel03252502073D

 46 49  0  0  0  0  0  0  0  0999 V2000
   47.4560   32.0630   47.8500 C   0  0  0  0  0  0  0  0  0  0  0  0
   46.9120   30.7720   47.8860 C   0  0  0  0  0  0  0  0  0  0  0  0
   45.9310   30.4970   46.9960 C   0  0  0  0  0  0  0  0  0  0  0  0
   45.5230   31.4370   46.1280 N   0  0  0  0  0  0  0  0  0  0  0  0
   46.0200   32.6530   46.0730 C   0  0  0  0  0  0  0  0  0  0  0  0
   47.0000   32.9540   46.9560 N   0  0  0  0  0  0  0  0  0  0  0  0
   45.3310   29.2580   46.9840 N   0  0  0  0  0  0  0  0  0  0  0  0
   44.1270   28.9070   46.1760 C   0  0  0  0  0  0  0  0  0  0  0  0
   44.0090   27.4130   46.2450 C   0  0  0  0  0  0  0  0  0  0  0  0
   44.6500   27.0860   47.5490 C   0  0  0  0  0  0  0  0  0  0  0  0
   45.7260   28.1010   47.7330 C   0  0  0  0  0  0  0  0  0  0  0  0
   48.2530   32.3370   48.5540 H   0  0  0  0  0  0  0  0  0  0  0  0
   44.2240   29.2190   45.1390 H   0  0  0  0  0  0  0  0  0  0  0  0
   43.2790   29.4240   46.7030 H   0  0  0  0  0  0  0  0  0  0  0  0
   42.9330   27.0840   46.2930 H   0  0  0  0  0  0  0  0  0  0  0  0
   44.5560   26.9320   45.4310 H   0  0  0  0  0  0  0  0  0  0  0  0
   43.8810   27.0800   48.3680 H   0  0  0  0  0  0  0  0  0  0  0  0
   45.0800   26.0580   47.5520 H   0  0  0  0  0  0  0  0  0  0  0  0
   45.6900   28.3300   48.8190 H   0  0  0  0  0  0  0  0  0  0  0  0
   46.6640   27.6590   47.3780 H   0  0  0  0  0  0  0  0  0  0  0  0
   45.7360   33.8050   45.1840 C   0  0  0  0  0  0  0  0  0  0  0  0
   44.8810   34.7920   45.4900 N   0  0  0  0  0  0  0  0  0  0  0  0
   44.6180   35.8370   44.7100 C   0  0  0  0  0  0  0  0  0  0  0  0
   45.2310   35.9620   43.5090 N   0  0  0  0  0  0  0  0  0  0  0  0
   46.0980   35.0500   43.0940 C   0  0  0  0  0  0  0  0  0  0  0  0
   46.7380   35.1690   41.8690 C   0  0  0  0  0  0  0  0  0  0  0  0
   47.6340   34.2450   41.4360 C   0  0  0  0  0  0  0  0  0  0  0  0
   47.8930   33.1730   42.2550 C   0  0  0  0  0  0  0  0  0  0  0  0
   47.2400   33.0760   43.4740 C   0  0  0  0  0  0  0  0  0  0  0  0
   46.3360   33.9820   43.9420 C   0  0  0  0  0  0  0  0  0  0  0  0
   43.9000   36.5840   45.0630 H   0  0  0  0  0  0  0  0  0  0  0  0
   46.5160   36.0220   41.2430 H   0  0  0  0  0  0  0  0  0  0  0  0
   48.1190   34.3640   40.4770 H   0  0  0  0  0  0  0  0  0  0  0  0
   47.6200   31.9020   44.1860 N   0  0  0  0  0  0  0  0  0  0  0  0
   46.9550   31.1870   43.8100 H   0  0  0  0  0  0  0  0  0  0  0  0
   48.3450   31.6800   44.8970 H   0  0  0  0  0  0  0  0  0  0  0  0
   48.8820   32.1810   41.7600 C   0  0  0  0  0  2  0  0  0  0  0  0
   50.0810   32.7940   41.2550 N   0  0  0  0  0  4  0  0  0  0  0  0
   49.8210   33.6080   40.6710 H   0  0  0  0  0  0  0  0  0  0  0  0
   50.9340   31.8790   40.5390 C   0  0  0  0  0  2  0  0  0  0  0  0
   51.7180   32.4850   40.0380 H   0  0  0  0  0  0  0  0  0  0  0  0
   50.8950   33.3060   42.3530 C   0  0  0  0  0  2  0  0  0  0  0  0
   51.4480   32.4350   42.8020 H   0  0  0  0  0  0  0  0  0  0  0  0
   47.4420   29.8870   48.7850 N   0  0  0  0  0  0  0  0  0  0  0  0
   48.1370   29.1970   48.4270 H   0  0  0  0  0  0  0  0  0  0  0  0
   47.2030   29.8510   49.8230 H   0  0  0  0  0  0  0  0  0  0  0  0
  1  2  1  0  0  0  0
  1 12  1  0  0  0  0
  2 44  1  0  0  0  0
  3  2  2  0  0  0  0
  4  3  1  0  0  0  0
  5  4  2  0  0  0  0
  5  6  1  0  0  0  0
  6  1  2  0  0  0  0
  7  3  1  0  0  0  0
  7 11  1  0  0  0  0
  8  9  1  0  0  0  0
  8 14  1  0  0  0  0
  8  7  1  0  0  0  0
  9 15  1  0  0  0  0
  9 10  1  0  0  0  0
 10 18  1  0  0  0  0
 10 11  1  0  0  0  0
 10 17  1  0  0  0  0
 11 19  1  0  0  0  0
 13  8  1  0  0  0  0
 16  9  1  0  0  0  0
 20 11  1  0  0  0  0
 21 22  1  0  0  0  0
 21  5  1  0  0  0  0
 23 31  1  0  0  0  0
 23 22  2  0  0  0  0
 24 23  1  0  0  0  0
 25 24  2  0  0  0  0
 25 30  1  0  0  0  0
 26 25  1  0  0  0  0
 27 26  2  0  0  0  0
 27 28  1  0  0  0  0
 28 29  2  0  0  0  0
 29 30  1  0  0  0  0
 29 34  1  0  0  0  0
 30 21  2  0  0  0  0
 32 26  1  0  0  0  0
 33 27  1  0  0  0  0
 34 36  1  0  0  0  0
 35 34  1  0  0  0  0
 37 28  1  0  0  0  0
 38 37  1  0  0  0  0
 38 42  1  0  0  0  0
 39 38  1  0  0  0  0
 40 38  1  0  0  0  0
 41 40  1  0  0  0  0
 42 43  1  0  0  0  0
 44 46  1  0  0  0  0
 45 44  1  0  0  0  0
M  END
>  <minimizedAffinity>
-6.82135391

>  <minimizedRMSD>
0.770948708

$$$$
