
 OpenBabel03252503143D

 32 34  0  0  0  0  0  0  0  0999 V2000
   39.3170   27.7510   43.4310 C   0  0  0  0  0  0  0  0  0  0  0  0
   38.3010   27.1520   42.6700 C   0  0  0  0  0  0  0  0  0  0  0  0
   38.6870   26.0480   41.9230 C   0  0  0  0  0  0  0  0  0  0  0  0
   39.9470   25.5910   41.9330 N   0  0  0  0  0  0  0  0  0  0  0  0
   40.8990   26.2050   42.6870 C   0  0  0  0  0  0  0  0  0  0  0  0
   40.5810   27.2750   43.4270 N   0  0  0  0  0  0  0  0  0  0  0  0
   39.0800   28.6270   44.0420 H   0  0  0  0  0  0  0  0  0  0  0  0
   41.9020   25.8530   42.7050 H   0  0  0  0  0  0  0  0  0  0  0  0
   37.7260   25.3970   41.1350 C   0  0  0  0  0  0  0  0  0  0  0  0
   36.8540   24.3650   41.3480 C   0  0  0  0  0  0  0  0  0  0  0  0
   36.0250   23.9280   40.4070 C   0  0  0  0  0  0  0  0  0  0  0  0
   36.0750   24.5560   39.1980 C   0  0  0  0  0  0  0  0  0  0  0  0
   37.3860   25.8390   39.4460 S   0  0  0  0  0  0  0  0  0  0  0  0
   36.8970   23.9260   42.3670 H   0  0  0  0  0  0  0  0  0  0  0  0
   35.3130   23.1190   40.5060 H   0  0  0  0  0  0  0  0  0  0  0  0
   35.5250   24.4080   38.2730 H   0  0  0  0  0  0  0  0  0  0  0  0
   36.9810   27.6870   42.7050 C   0  0  0  0  0  0  0  0  0  0  0  0
   36.1880   27.1560   43.5350 O   0  0  0  0  0  0  0  0  0  0  0  0
   36.6000   28.8160   41.7890 C   0  0  0  0  0  0  0  0  0  0  0  0
   35.5440   28.8260   40.8960 C   0  0  0  0  0  0  0  0  0  0  0  0
   35.5920   30.0320   40.3010 N   0  0  0  0  0  0  0  0  0  0  0  0
   36.6450   30.7330   40.8190 C   0  0  0  0  0  0  0  0  0  0  0  0
   37.2680   29.9790   41.7400 N   0  0  0  0  0  0  0  0  0  0  0  0
   34.8280   28.0180   40.7190 H   0  0  0  0  0  0  0  0  0  0  0  0
   34.9150   30.3360   39.5710 H   0  0  0  0  0  0  0  0  0  0  0  0
   36.9380   32.1230   40.3340 C   0  0  0  0  0  2  0  0  0  0  0  0
   38.3460   32.3550   40.1740 N   0  0  0  0  0  4  0  0  0  0  0  0
   38.8650   31.6850   40.7980 H   0  0  0  0  0  0  0  0  0  0  0  0
   38.7510   32.0240   38.8170 C   0  0  0  0  0  2  0  0  0  0  0  0
   38.7850   30.9050   38.7670 H   0  0  0  0  0  0  0  0  0  0  0  0
   38.7830   33.6740   40.5640 C   0  0  0  0  0  2  0  0  0  0  0  0
   38.5050   33.7880   41.6360 H   0  0  0  0  0  0  0  0  0  0  0  0
  1  7  1  0  0  0  0
  2 17  1  0  0  0  0
  2  1  2  0  0  0  0
  3  4  2  0  0  0  0
  3  2  1  0  0  0  0
  4  5  1  0  0  0  0
  5  8  1  0  0  0  0
  5  6  2  0  0  0  0
  6  1  1  0  0  0  0
  9 10  2  0  0  0  0
  9  3  1  0  0  0  0
 10 14  1  0  0  0  0
 11 15  1  0  0  0  0
 11 10  1  0  0  0  0
 12 13  1  0  0  0  0
 12 11  2  0  0  0  0
 13  9  1  0  0  0  0
 16 12  1  0  0  0  0
 17 18  2  0  0  0  0
 19 17  1  0  0  0  0
 20 19  2  0  0  0  0
 21 22  1  0  0  0  0
 21 20  1  0  0  0  0
 22 23  2  0  0  0  0
 23 19  1  0  0  0  0
 24 20  1  0  0  0  0
 25 21  1  0  0  0  0
 26 22  1  0  0  0  0
 27 26  1  0  0  0  0
 27 31  1  0  0  0  0
 27 28  1  0  0  0  0
 29 27  1  0  0  0  0
 30 29  1  0  0  0  0
 31 32  1  0  0  0  0
M  END
>  <minimizedAffinity>
-5.10057402

$$$$

 OpenBabel03252503143D

 32 34  0  0  0  0  0  0  0  0999 V2000
   40.0790   33.5280   39.4960 C   0  0  0  0  0  0  0  0  0  0  0  0
   39.0950   32.5950   39.1320 C   0  0  0  0  0  0  0  0  0  0  0  0
   39.4310   31.7540   38.0810 C   0  0  0  0  0  0  0  0  0  0  0  0
   40.6160   31.8340   37.4600 N   0  0  0  0  0  0  0  0  0  0  0  0
   41.5400   32.7550   37.8480 C   0  0  0  0  0  0  0  0  0  0  0  0
   41.2680   33.5920   38.8580 N   0  0  0  0  0  0  0  0  0  0  0  0
   39.8790   34.2220   40.3180 H   0  0  0  0  0  0  0  0  0  0  0  0
   42.4840   32.8290   37.3650 H   0  0  0  0  0  0  0  0  0  0  0  0
   38.4970   30.7960   37.6580 C   0  0  0  0  0  0  0  0  0  0  0  0
   37.3580   30.8390   36.9030 C   0  0  0  0  0  0  0  0  0  0  0  0
   36.6350   29.7550   36.6440 C   0  0  0  0  0  0  0  0  0  0  0  0
   37.0760   28.5770   37.1670 C   0  0  0  0  0  0  0  0  0  0  0  0
   38.6120   29.0700   38.0750 S   0  0  0  0  0  0  0  0  0  0  0  0
   37.0900   31.8480   36.5270 H   0  0  0  0  0  0  0  0  0  0  0  0
   35.7260   29.7170   36.0570 H   0  0  0  0  0  0  0  0  0  0  0  0
   36.6900   27.5630   37.1160 H   0  0  0  0  0  0  0  0  0  0  0  0
   37.8570   32.5620   39.8340 C   0  0  0  0  0  0  0  0  0  0  0  0
   37.0720   33.5310   39.6220 O   0  0  0  0  0  0  0  0  0  0  0  0
   37.5440   31.4220   40.7620 C   0  0  0  0  0  0  0  0  0  0  0  0
   36.3020   30.8490   40.9660 C   0  0  0  0  0  0  0  0  0  0  0  0
   36.5050   29.8750   41.8720 N   0  0  0  0  0  0  0  0  0  0  0  0
   37.8300   29.8580   42.2070 C   0  0  0  0  0  0  0  0  0  0  0  0
   38.4720   30.8160   41.5180 N   0  0  0  0  0  0  0  0  0  0  0  0
   35.3620   31.1350   40.4860 H   0  0  0  0  0  0  0  0  0  0  0  0
   35.7440   29.2590   42.2300 H   0  0  0  0  0  0  0  0  0  0  0  0
   38.3430   28.8620   43.2060 C   0  0  0  0  0  2  0  0  0  0  0  0
   38.9950   27.7490   42.5740 N   0  0  0  0  0  4  0  0  0  0  0  0
   39.2200   28.0160   41.5810 H   0  0  0  0  0  0  0  0  0  0  0  0
   40.2750   27.4960   43.2150 C   0  0  0  0  0  2  0  0  0  0  0  0
   40.9710   28.2930   42.8460 H   0  0  0  0  0  0  0  0  0  0  0  0
   38.1870   26.5550   42.4860 C   0  0  0  0  0  2  0  0  0  0  0  0
   37.2810   26.8370   41.9050 H   0  0  0  0  0  0  0  0  0  0  0  0
  1  7  1  0  0  0  0
  2  1  1  0  0  0  0
  2 17  1  0  0  0  0
  3  2  2  0  0  0  0
  4  5  2  0  0  0  0
  4  3  1  0  0  0  0
  5  6  1  0  0  0  0
  6  1  2  0  0  0  0
  8  5  1  0  0  0  0
  9 13  1  0  0  0  0
  9  3  1  0  0  0  0
 10  9  2  0  0  0  0
 11 10  1  0  0  0  0
 11 12  2  0  0  0  0
 12 13  1  0  0  0  0
 14 10  1  0  0  0  0
 15 11  1  0  0  0  0
 16 12  1  0  0  0  0
 17 19  1  0  0  0  0
 18 17  2  0  0  0  0
 19 20  2  0  0  0  0
 19 23  1  0  0  0  0
 20 21  1  0  0  0  0
 21 22  1  0  0  0  0
 21 25  1  0  0  0  0
 22 26  1  0  0  0  0
 23 22  2  0  0  0  0
 24 20  1  0  0  0  0
 27 26  1  0  0  0  0
 27 29  1  0  0  0  0
 28 27  1  0  0  0  0
 30 29  1  0  0  0  0
 31 27  1  0  0  0  0
 32 31  1  0  0  0  0
M  END
>  <minimizedAffinity>
-5.02418995

$$$$

 OpenBabel03252503143D

 32 34  0  0  0  0  0  0  0  0999 V2000
   35.8090   29.6450   38.2080 C   0  0  0  0  0  0  0  0  0  0  0  0
   36.3340   29.5340   39.5060 C   0  0  0  0  0  0  0  0  0  0  0  0
   36.5960   28.2400   39.9340 C   0  0  0  0  0  0  0  0  0  0  0  0
   36.3600   27.1740   39.1570 N   0  0  0  0  0  0  0  0  0  0  0  0
   35.8500   27.3310   37.9050 C   0  0  0  0  0  0  0  0  0  0  0  0
   35.5780   28.5580   37.4400 N   0  0  0  0  0  0  0  0  0  0  0  0
   35.5790   30.6360   37.8090 H   0  0  0  0  0  0  0  0  0  0  0  0
   35.6590   26.4940   37.2770 H   0  0  0  0  0  0  0  0  0  0  0  0
   37.1210   28.0490   41.2220 C   0  0  0  0  0  0  0  0  0  0  0  0
   36.5740   27.7990   42.4490 C   0  0  0  0  0  0  0  0  0  0  0  0
   37.3160   27.6560   43.5420 C   0  0  0  0  0  0  0  0  0  0  0  0
   38.6650   27.7700   43.3940 C   0  0  0  0  0  0  0  0  0  0  0  0
   38.8620   28.0990   41.5830 S   0  0  0  0  0  0  0  0  0  0  0  0
   35.4670   27.7250   42.4570 H   0  0  0  0  0  0  0  0  0  0  0  0
   36.9510   27.4590   44.5420 H   0  0  0  0  0  0  0  0  0  0  0  0
   39.4880   27.7010   44.1010 H   0  0  0  0  0  0  0  0  0  0  0  0
   36.5620   30.7070   40.2800 C   0  0  0  0  0  0  0  0  0  0  0  0
   35.8270   30.8520   41.2980 O   0  0  0  0  0  0  0  0  0  0  0  0
   37.6260   31.6870   39.8700 C   0  0  0  0  0  0  0  0  0  0  0  0
   37.4310   33.0140   39.5340 C   0  0  0  0  0  0  0  0  0  0  0  0
   38.6540   33.4910   39.2410 N   0  0  0  0  0  0  0  0  0  0  0  0
   39.5640   32.4820   39.3940 C   0  0  0  0  0  0  0  0  0  0  0  0
   38.9250   31.3660   39.7840 N   0  0  0  0  0  0  0  0  0  0  0  0
   36.4780   33.5520   39.5160 H   0  0  0  0  0  0  0  0  0  0  0  0
   38.8300   34.4750   38.9490 H   0  0  0  0  0  0  0  0  0  0  0  0
   41.0210   32.7330   39.1320 C   0  0  0  0  0  2  0  0  0  0  0  0
   41.2740   33.0570   37.7560 N   0  0  0  0  0  4  0  0  0  0  0  0
   40.3800   33.4140   37.3290 H   0  0  0  0  0  0  0  0  0  0  0  0
   42.2180   34.1610   37.6740 C   0  0  0  0  0  2  0  0  0  0  0  0
   41.6390   35.0850   37.9320 H   0  0  0  0  0  0  0  0  0  0  0  0
   41.6790   31.9360   36.9420 C   0  0  0  0  0  2  0  0  0  0  0  0
   40.8510   31.1940   37.0040 H   0  0  0  0  0  0  0  0  0  0  0  0
  1  2  1  0  0  0  0
  2  3  2  0  0  0  0
  2 17  1  0  0  0  0
  3  9  1  0  0  0  0
  4  3  1  0  0  0  0
  5  4  2  0  0  0  0
  6  5  1  0  0  0  0
  6  1  2  0  0  0  0
  7  1  1  0  0  0  0
  8  5  1  0  0  0  0
  9 13  1  0  0  0  0
  9 10  2  0  0  0  0
 10 14  1  0  0  0  0
 10 11  1  0  0  0  0
 11 15  1  0  0  0  0
 12 11  2  0  0  0  0
 12 16  1  0  0  0  0
 13 12  1  0  0  0  0
 17 18  2  0  0  0  0
 19 17  1  0  0  0  0
 20 19  2  0  0  0  0
 21 22  1  0  0  0  0
 21 20  1  0  0  0  0
 22 23  2  0  0  0  0
 23 19  1  0  0  0  0
 24 20  1  0  0  0  0
 25 21  1  0  0  0  0
 26 22  1  0  0  0  0
 27 26  1  0  0  0  0
 28 27  1  0  0  0  0
 29 27  1  0  0  0  0
 29 30  1  0  0  0  0
 31 32  1  0  0  0  0
 31 27  1  0  0  0  0
M  END
>  <minimizedAffinity>
-5.01552677

$$$$

 OpenBabel03252503143D

 32 34  0  0  0  0  0  0  0  0999 V2000
   37.2780   30.2350   38.1280 C   0  0  0  0  0  0  0  0  0  0  0  0
   37.3320   29.9400   39.5000 C   0  0  0  0  0  0  0  0  0  0  0  0
   37.3790   28.5900   39.8180 C   0  0  0  0  0  0  0  0  0  0  0  0
   37.3720   27.6380   38.8740 N   0  0  0  0  0  0  0  0  0  0  0  0
   37.3190   27.9720   37.5550 C   0  0  0  0  0  0  0  0  0  0  0  0
   37.2720   29.2610   37.1920 N   0  0  0  0  0  0  0  0  0  0  0  0
   37.2390   31.2800   37.8080 H   0  0  0  0  0  0  0  0  0  0  0  0
   37.3130   27.2280   36.7960 H   0  0  0  0  0  0  0  0  0  0  0  0
   37.4320   28.2170   41.1690 C   0  0  0  0  0  0  0  0  0  0  0  0
   36.4920   27.9420   42.1230 C   0  0  0  0  0  0  0  0  0  0  0  0
   36.8180   27.6020   43.3660 C   0  0  0  0  0  0  0  0  0  0  0  0
   38.1460   27.5360   43.6620 C   0  0  0  0  0  0  0  0  0  0  0  0
   38.9560   27.9870   42.0600 S   0  0  0  0  0  0  0  0  0  0  0  0
   35.4420   28.0260   41.7760 H   0  0  0  0  0  0  0  0  0  0  0  0
   36.1280   27.3730   44.1680 H   0  0  0  0  0  0  0  0  0  0  0  0
   38.6820   27.2900   44.5750 H   0  0  0  0  0  0  0  0  0  0  0  0
   37.3380   30.9980   40.4520 C   0  0  0  0  0  0  0  0  0  0  0  0
   36.2440   31.2130   41.0500 O   0  0  0  0  0  0  0  0  0  0  0  0
   38.5930   31.7870   40.6970 C   0  0  0  0  0  0  0  0  0  0  0  0
   38.6800   33.1570   40.8670 C   0  0  0  0  0  0  0  0  0  0  0  0
   39.9880   33.4100   41.0560 N   0  0  0  0  0  0  0  0  0  0  0  0
   40.6740   32.2290   41.0030 C   0  0  0  0  0  0  0  0  0  0  0  0
   39.8090   31.2250   40.7800 N   0  0  0  0  0  0  0  0  0  0  0  0
   37.8530   33.8730   40.8500 H   0  0  0  0  0  0  0  0  0  0  0  0
   40.3690   34.3670   41.2140 H   0  0  0  0  0  0  0  0  0  0  0  0
   42.1640   32.2120   41.1830 C   0  0  0  0  0  2  0  0  0  0  0  0
   42.5490   32.5250   42.5310 N   0  0  0  0  0  4  0  0  0  0  0  0
   41.8270   33.1730   42.9400 H   0  0  0  0  0  0  0  0  0  0  0  0
   42.5070   31.3230   43.3490 C   0  0  0  0  0  2  0  0  0  0  0  0
   41.4230   31.1240   43.5540 H   0  0  0  0  0  0  0  0  0  0  0  0
   43.8100   33.2160   42.6480 C   0  0  0  0  0  2  0  0  0  0  0  0
   43.7030   34.1570   42.0620 H   0  0  0  0  0  0  0  0  0  0  0  0
  1  2  1  0  0  0  0
  2  3  2  0  0  0  0
  2 17  1  0  0  0  0
  3  9  1  0  0  0  0
  4  3  1  0  0  0  0
  5  4  2  0  0  0  0
  6  5  1  0  0  0  0
  6  1  2  0  0  0  0
  7  1  1  0  0  0  0
  8  5  1  0  0  0  0
  9 13  1  0  0  0  0
  9 10  2  0  0  0  0
 10 11  1  0  0  0  0
 11 12  2  0  0  0  0
 11 15  1  0  0  0  0
 12 16  1  0  0  0  0
 13 12  1  0  0  0  0
 14 10  1  0  0  0  0
 17 19  1  0  0  0  0
 17 18  2  0  0  0  0
 19 23  1  0  0  0  0
 19 20  2  0  0  0  0
 20 21  1  0  0  0  0
 21 25  1  0  0  0  0
 22 21  1  0  0  0  0
 22 26  1  0  0  0  0
 23 22  2  0  0  0  0
 24 20  1  0  0  0  0
 26 27  1  0  0  0  0
 27 31  1  0  0  0  0
 27 28  1  0  0  0  0
 27 29  1  0  0  0  0
 29 30  1  0  0  0  0
 32 31  1  0  0  0  0
M  END
>  <minimizedAffinity>
-5.00380754

$$$$

 OpenBabel03252503143D

 32 34  0  0  0  0  0  0  0  0999 V2000
   35.4570   27.2600   38.0270 C   0  0  0  0  0  0  0  0  0  0  0  0
   35.8630   27.8480   39.2350 C   0  0  0  0  0  0  0  0  0  0  0  0
   36.6910   27.0680   40.0290 C   0  0  0  0  0  0  0  0  0  0  0  0
   37.0730   25.8370   39.6610 N   0  0  0  0  0  0  0  0  0  0  0  0
   36.6530   25.3070   38.4790 C   0  0  0  0  0  0  0  0  0  0  0  0
   35.8520   26.0180   37.6730 N   0  0  0  0  0  0  0  0  0  0  0  0
   34.8030   27.8210   37.3530 H   0  0  0  0  0  0  0  0  0  0  0  0
   36.9480   24.3330   38.1740 H   0  0  0  0  0  0  0  0  0  0  0  0
   37.1370   27.5880   41.2540 C   0  0  0  0  0  0  0  0  0  0  0  0
   36.6320   27.6100   42.5240 C   0  0  0  0  0  0  0  0  0  0  0  0
   37.2740   28.1850   43.5350 C   0  0  0  0  0  0  0  0  0  0  0  0
   38.4750   28.7640   43.2560 C   0  0  0  0  0  0  0  0  0  0  0  0
   38.6790   28.4560   41.4430 S   0  0  0  0  0  0  0  0  0  0  0  0
   35.6480   27.1100   42.6400 H   0  0  0  0  0  0  0  0  0  0  0  0
   36.9330   28.2400   44.5610 H   0  0  0  0  0  0  0  0  0  0  0  0
   39.1950   29.2930   43.8760 H   0  0  0  0  0  0  0  0  0  0  0  0
   35.4230   29.1610   39.5660 C   0  0  0  0  0  0  0  0  0  0  0  0
   34.2970   29.2420   40.1370 O   0  0  0  0  0  0  0  0  0  0  0  0
   36.2810   30.3510   39.2370 C   0  0  0  0  0  0  0  0  0  0  0  0
   36.9330   30.5840   38.0400 C   0  0  0  0  0  0  0  0  0  0  0  0
   37.5700   31.7580   38.2050 N   0  0  0  0  0  0  0  0  0  0  0  0
   37.3110   32.2220   39.4640 C   0  0  0  0  0  0  0  0  0  0  0  0
   36.5120   31.3500   40.1010 N   0  0  0  0  0  0  0  0  0  0  0  0
   36.9250   29.9430   37.1540 H   0  0  0  0  0  0  0  0  0  0  0  0
   38.1540   32.2010   37.4640 H   0  0  0  0  0  0  0  0  0  0  0  0
   37.8990   33.5250   39.9240 C   0  0  0  0  0  2  0  0  0  0  0  0
   39.2470   33.3740   40.3930 N   0  0  0  0  0  4  0  0  0  0  0  0
   39.4810   34.2000   41.0030 H   0  0  0  0  0  0  0  0  0  0  0  0
   39.3430   32.2070   41.2550 C   0  0  0  0  0  2  0  0  0  0  0  0
   38.8870   32.5040   42.2340 H   0  0  0  0  0  0  0  0  0  0  0  0
   40.2450   33.3620   39.3500 C   0  0  0  0  0  2  0  0  0  0  0  0
   40.1430   34.3310   38.8120 H   0  0  0  0  0  0  0  0  0  0  0  0
  1  2  1  0  0  0  0
  2 17  1  0  0  0  0
  2  3  2  0  0  0  0
  3  9  1  0  0  0  0
  4  3  1  0  0  0  0
  5  4  2  0  0  0  0
  6  1  2  0  0  0  0
  6  5  1  0  0  0  0
  7  1  1  0  0  0  0
  8  5  1  0  0  0  0
  9 13  1  0  0  0  0
  9 10  2  0  0  0  0
 10 14  1  0  0  0  0
 10 11  1  0  0  0  0
 11 15  1  0  0  0  0
 12 11  2  0  0  0  0
 12 16  1  0  0  0  0
 13 12  1  0  0  0  0
 17 18  2  0  0  0  0
 19 17  1  0  0  0  0
 19 23  1  0  0  0  0
 20 21  1  0  0  0  0
 20 19  2  0  0  0  0
 21 22  1  0  0  0  0
 22 26  1  0  0  0  0
 22 23  2  0  0  0  0
 24 20  1  0  0  0  0
 25 21  1  0  0  0  0
 26 27  1  0  0  0  0
 27 28  1  0  0  0  0
 27 29  1  0  0  0  0
 29 30  1  0  0  0  0
 31 27  1  0  0  0  0
 32 31  1  0  0  0  0
M  END
>  <minimizedAffinity>
-4.87836456

$$$$

 OpenBabel03252503143D

 32 34  0  0  0  0  0  0  0  0999 V2000
   37.2150   27.1350   41.4280 C   0  0  0  0  0  0  0  0  0  0  0  0
   37.2610   28.3660   40.7540 C   0  0  0  0  0  0  0  0  0  0  0  0
   37.5550   29.4680   41.5440 C   0  0  0  0  0  0  0  0  0  0  0  0
   37.7790   29.3580   42.8610 N   0  0  0  0  0  0  0  0  0  0  0  0
   37.7240   28.1420   43.4720 C   0  0  0  0  0  0  0  0  0  0  0  0
   37.4440   27.0450   42.7570 N   0  0  0  0  0  0  0  0  0  0  0  0
   36.9890   26.2260   40.8650 H   0  0  0  0  0  0  0  0  0  0  0  0
   37.9000   28.0390   44.5150 H   0  0  0  0  0  0  0  0  0  0  0  0
   37.6150   30.7330   40.9400 C   0  0  0  0  0  0  0  0  0  0  0  0
   36.7090   31.5300   40.2980 C   0  0  0  0  0  0  0  0  0  0  0  0
   37.0330   32.7210   39.8040 C   0  0  0  0  0  0  0  0  0  0  0  0
   38.3240   33.1260   39.9630 C   0  0  0  0  0  0  0  0  0  0  0  0
   39.0990   31.7130   40.8730 S   0  0  0  0  0  0  0  0  0  0  0  0
   35.6880   31.1040   40.2230 H   0  0  0  0  0  0  0  0  0  0  0  0
   36.3700   33.4010   39.2850 H   0  0  0  0  0  0  0  0  0  0  0  0
   38.8500   34.0300   39.6660 H   0  0  0  0  0  0  0  0  0  0  0  0
   37.0140   28.4140   39.3520 C   0  0  0  0  0  0  0  0  0  0  0  0
   35.8070   28.2930   38.9960 O   0  0  0  0  0  0  0  0  0  0  0  0
   38.1540   28.6000   38.3910 C   0  0  0  0  0  0  0  0  0  0  0  0
   38.0520   28.7650   37.0220 C   0  0  0  0  0  0  0  0  0  0  0  0
   39.3180   28.8920   36.5830 N   0  0  0  0  0  0  0  0  0  0  0  0
   40.1620   28.8080   37.6550 C   0  0  0  0  0  0  0  0  0  0  0  0
   39.4400   28.6260   38.7730 N   0  0  0  0  0  0  0  0  0  0  0  0
   37.1320   28.7860   36.4310 H   0  0  0  0  0  0  0  0  0  0  0  0
   39.5650   29.0320   35.5810 H   0  0  0  0  0  0  0  0  0  0  0  0
   41.6460   28.9190   37.4580 C   0  0  0  0  0  2  0  0  0  0  0  0
   41.9850   29.8460   36.4150 N   0  0  0  0  0  4  0  0  0  0  0  0
   41.1570   29.9390   35.7720 H   0  0  0  0  0  0  0  0  0  0  0  0
   42.1970   31.1690   36.9790 C   0  0  0  0  0  2  0  0  0  0  0  0
   41.1790   31.5780   37.2060 H   0  0  0  0  0  0  0  0  0  0  0  0
   43.0860   29.4300   35.5800 C   0  0  0  0  0  2  0  0  0  0  0  0
   42.7840   28.4570   35.1300 H   0  0  0  0  0  0  0  0  0  0  0  0
  1  6  1  0  0  0  0
  2  1  2  0  0  0  0
  2  3  1  0  0  0  0
  3  4  2  0  0  0  0
  4  5  1  0  0  0  0
  5  8  1  0  0  0  0
  6  5  2  0  0  0  0
  7  1  1  0  0  0  0
  9  3  1  0  0  0  0
 10  9  2  0  0  0  0
 11 12  2  0  0  0  0
 11 10  1  0  0  0  0
 12 13  1  0  0  0  0
 13  9  1  0  0  0  0
 14 10  1  0  0  0  0
 15 11  1  0  0  0  0
 16 12  1  0  0  0  0
 17  2  1  0  0  0  0
 18 17  2  0  0  0  0
 19 23  1  0  0  0  0
 19 17  1  0  0  0  0
 20 19  2  0  0  0  0
 21 20  1  0  0  0  0
 21 22  1  0  0  0  0
 22 23  2  0  0  0  0
 24 20  1  0  0  0  0
 25 21  1  0  0  0  0
 26 22  1  0  0  0  0
 27 29  1  0  0  0  0
 27 26  1  0  0  0  0
 28 27  1  0  0  0  0
 29 30  1  0  0  0  0
 31 27  1  0  0  0  0
 32 31  1  0  0  0  0
M  END
>  <minimizedAffinity>
-4.70474577

$$$$

 OpenBabel03252503143D

 32 34  0  0  0  0  0  0  0  0999 V2000
   39.0420   32.3930   41.1080 C   0  0  0  0  0  0  0  0  0  0  0  0
   38.2990   31.4020   40.4460 C   0  0  0  0  0  0  0  0  0  0  0  0
   38.5810   31.2470   39.0960 C   0  0  0  0  0  0  0  0  0  0  0  0
   39.5000   31.9970   38.4730 N   0  0  0  0  0  0  0  0  0  0  0  0
   40.1970   32.9460   39.1560 C   0  0  0  0  0  0  0  0  0  0  0  0
   39.9650   33.1380   40.4610 N   0  0  0  0  0  0  0  0  0  0  0  0
   38.8700   32.5670   42.1740 H   0  0  0  0  0  0  0  0  0  0  0  0
   40.9300   33.5480   38.6750 H   0  0  0  0  0  0  0  0  0  0  0  0
   37.8760   30.2770   38.3680 C   0  0  0  0  0  0  0  0  0  0  0  0
   36.6450   30.2340   37.7750 C   0  0  0  0  0  0  0  0  0  0  0  0
   36.2050   29.1610   37.1270 C   0  0  0  0  0  0  0  0  0  0  0  0
   37.0380   28.0840   37.0730 C   0  0  0  0  0  0  0  0  0  0  0  0
   38.5290   28.6620   38.0060 S   0  0  0  0  0  0  0  0  0  0  0  0
   36.0480   31.1630   37.8790 H   0  0  0  0  0  0  0  0  0  0  0  0
   35.2450   29.0570   36.6370 H   0  0  0  0  0  0  0  0  0  0  0  0
   36.9370   27.1010   36.6210 H   0  0  0  0  0  0  0  0  0  0  0  0
   37.3370   30.6390   41.1680 C   0  0  0  0  0  0  0  0  0  0  0  0
   36.1560   31.0910   41.1680 O   0  0  0  0  0  0  0  0  0  0  0  0
   37.7490   29.3770   41.8730 C   0  0  0  0  0  0  0  0  0  0  0  0
   38.4930   29.2940   43.0350 C   0  0  0  0  0  0  0  0  0  0  0  0
   38.6120   27.9770   43.2880 N   0  0  0  0  0  0  0  0  0  0  0  0
   37.9590   27.2840   42.3080 C   0  0  0  0  0  0  0  0  0  0  0  0
   37.4250   28.1520   41.4330 N   0  0  0  0  0  0  0  0  0  0  0  0
   38.8940   30.1280   43.6180 H   0  0  0  0  0  0  0  0  0  0  0  0
   39.1280   27.5970   44.1090 H   0  0  0  0  0  0  0  0  0  0  0  0
   37.9280   25.7830   42.3380 C   0  0  0  0  0  2  0  0  0  0  0  0
   39.1970   25.2090   41.9870 N   0  0  0  0  0  4  0  0  0  0  0  0
   39.8910   25.9900   41.8620 H   0  0  0  0  0  0  0  0  0  0  0  0
   39.7000   24.4080   43.0920 C   0  0  0  0  0  2  0  0  0  0  0  0
   40.0800   25.1340   43.8550 H   0  0  0  0  0  0  0  0  0  0  0  0
   39.1990   24.4780   40.7420 C   0  0  0  0  0  2  0  0  0  0  0  0
   38.8870   25.2030   39.9570 H   0  0  0  0  0  0  0  0  0  0  0  0
  1  7  1  0  0  0  0
  2  1  2  0  0  0  0
  2 17  1  0  0  0  0
  3  2  1  0  0  0  0
  4  3  2  0  0  0  0
  4  5  1  0  0  0  0
  5  6  2  0  0  0  0
  6  1  1  0  0  0  0
  8  5  1  0  0  0  0
  9  3  1  0  0  0  0
 10 14  1  0  0  0  0
 10  9  2  0  0  0  0
 11 10  1  0  0  0  0
 12 11  2  0  0  0  0
 12 13  1  0  0  0  0
 13  9  1  0  0  0  0
 15 11  1  0  0  0  0
 16 12  1  0  0  0  0
 17 19  1  0  0  0  0
 18 17  2  0  0  0  0
 19 20  2  0  0  0  0
 20 21  1  0  0  0  0
 20 24  1  0  0  0  0
 21 25  1  0  0  0  0
 22 26  1  0  0  0  0
 22 21  1  0  0  0  0
 23 19  1  0  0  0  0
 23 22  2  0  0  0  0
 27 26  1  0  0  0  0
 27 29  1  0  0  0  0
 28 27  1  0  0  0  0
 29 30  1  0  0  0  0
 31 27  1  0  0  0  0
 32 31  1  0  0  0  0
M  END
>  <minimizedAffinity>
-4.69848251

$$$$

 OpenBabel03252503143D

 32 34  0  0  0  0  0  0  0  0999 V2000
   36.1300   29.4070   38.5870 C   0  0  0  0  0  0  0  0  0  0  0  0
   36.8540   30.3340   39.3530 C   0  0  0  0  0  0  0  0  0  0  0  0
   37.6120   31.2430   38.6280 C   0  0  0  0  0  0  0  0  0  0  0  0
   37.6450   31.2310   37.2890 N   0  0  0  0  0  0  0  0  0  0  0  0
   36.9250   30.3120   36.5880 C   0  0  0  0  0  0  0  0  0  0  0  0
   36.1760   29.4110   37.2370 N   0  0  0  0  0  0  0  0  0  0  0  0
   35.5120   28.6610   39.0960 H   0  0  0  0  0  0  0  0  0  0  0  0
   36.9410   30.2910   35.5250 H   0  0  0  0  0  0  0  0  0  0  0  0
   38.3660   32.2000   39.3260 C   0  0  0  0  0  0  0  0  0  0  0  0
   38.1000   33.4400   39.8340 C   0  0  0  0  0  0  0  0  0  0  0  0
   39.0180   34.1600   40.4700 C   0  0  0  0  0  0  0  0  0  0  0  0
   40.2570   33.6080   40.6000 C   0  0  0  0  0  0  0  0  0  0  0  0
   40.0760   31.9680   39.7590 S   0  0  0  0  0  0  0  0  0  0  0  0
   37.0610   33.7940   39.6730 H   0  0  0  0  0  0  0  0  0  0  0  0
   38.8780   35.1450   40.8960 H   0  0  0  0  0  0  0  0  0  0  0  0
   41.1740   33.9650   41.0620 H   0  0  0  0  0  0  0  0  0  0  0  0
   36.7750   30.2930   40.7740 C   0  0  0  0  0  0  0  0  0  0  0  0
   35.9460   31.0860   41.3070 O   0  0  0  0  0  0  0  0  0  0  0  0
   37.6460   29.3470   41.5530 C   0  0  0  0  0  0  0  0  0  0  0  0
   37.7780   29.3000   42.9280 C   0  0  0  0  0  0  0  0  0  0  0  0
   38.6540   28.3070   43.1680 N   0  0  0  0  0  0  0  0  0  0  0  0
   39.0420   27.7690   41.9720 C   0  0  0  0  0  0  0  0  0  0  0  0
   38.4170   28.4140   40.9740 N   0  0  0  0  0  0  0  0  0  0  0  0
   37.2710   29.9390   43.6580 H   0  0  0  0  0  0  0  0  0  0  0  0
   38.9580   28.0300   44.1250 H   0  0  0  0  0  0  0  0  0  0  0  0
   40.0240   26.6330   41.9390 C   0  0  0  0  0  2  0  0  0  0  0  0
   39.3710   25.3580   41.8440 N   0  0  0  0  0  4  0  0  0  0  0  0
   38.3310   25.5120   41.9040 H   0  0  0  0  0  0  0  0  0  0  0  0
   39.6080   24.7770   40.5320 C   0  0  0  0  0  2  0  0  0  0  0  0
   38.9400   25.3290   39.8220 H   0  0  0  0  0  0  0  0  0  0  0  0
   39.6950   24.4400   42.9100 C   0  0  0  0  0  2  0  0  0  0  0  0
   39.3930   24.9450   43.8550 H   0  0  0  0  0  0  0  0  0  0  0  0
  1  7  1  0  0  0  0
  1  2  1  0  0  0  0
  2 17  1  0  0  0  0
  3  9  1  0  0  0  0
  3  2  2  0  0  0  0
  4  3  1  0  0  0  0
  5  6  1  0  0  0  0
  5  4  2  0  0  0  0
  6  1  2  0  0  0  0
  8  5  1  0  0  0  0
  9 13  1  0  0  0  0
  9 10  2  0  0  0  0
 10 11  1  0  0  0  0
 11 12  2  0  0  0  0
 11 15  1  0  0  0  0
 12 16  1  0  0  0  0
 13 12  1  0  0  0  0
 14 10  1  0  0  0  0
 17 18  2  0  0  0  0
 17 19  1  0  0  0  0
 19 20  2  0  0  0  0
 20 21  1  0  0  0  0
 20 24  1  0  0  0  0
 21 25  1  0  0  0  0
 22 21  1  0  0  0  0
 23 19  1  0  0  0  0
 23 22  2  0  0  0  0
 26 22  1  0  0  0  0
 27 28  1  0  0  0  0
 27 26  1  0  0  0  0
 27 31  1  0  0  0  0
 29 27  1  0  0  0  0
 30 29  1  0  0  0  0
 31 32  1  0  0  0  0
M  END
>  <minimizedAffinity>
-4.68886185

$$$$

 OpenBabel03252503143D

 32 34  0  0  0  0  0  0  0  0999 V2000
   39.3410   30.4370   41.9290 C   0  0  0  0  0  0  0  0  0  0  0  0
   38.3820   30.3680   40.9070 C   0  0  0  0  0  0  0  0  0  0  0  0
   37.7730   29.1320   40.7430 C   0  0  0  0  0  0  0  0  0  0  0  0
   38.0850   28.0800   41.5120 N   0  0  0  0  0  0  0  0  0  0  0  0
   39.0220   28.1940   42.4930 C   0  0  0  0  0  0  0  0  0  0  0  0
   39.6420   29.3650   42.6940 N   0  0  0  0  0  0  0  0  0  0  0  0
   39.8600   31.3820   42.1120 H   0  0  0  0  0  0  0  0  0  0  0  0
   39.2790   27.3690   43.1110 H   0  0  0  0  0  0  0  0  0  0  0  0
   36.8040   28.9860   39.7380 C   0  0  0  0  0  0  0  0  0  0  0  0
   36.8440   28.6590   38.4110 C   0  0  0  0  0  0  0  0  0  0  0  0
   35.7490   28.5870   37.6630 C   0  0  0  0  0  0  0  0  0  0  0  0
   34.5620   28.8580   38.2750 C   0  0  0  0  0  0  0  0  0  0  0  0
   35.0640   29.2310   40.0170 S   0  0  0  0  0  0  0  0  0  0  0  0
   37.8610   28.4580   38.0150 H   0  0  0  0  0  0  0  0  0  0  0  0
   35.7080   28.3360   36.6110 H   0  0  0  0  0  0  0  0  0  0  0  0
   33.5380   28.8740   37.9120 H   0  0  0  0  0  0  0  0  0  0  0  0
   38.0960   31.5240   40.1260 C   0  0  0  0  0  0  0  0  0  0  0  0
   37.1170   32.2260   40.5100 O   0  0  0  0  0  0  0  0  0  0  0  0
   38.9370   31.8500   38.9230 C   0  0  0  0  0  0  0  0  0  0  0  0
   38.5290   31.8070   37.6030 C   0  0  0  0  0  0  0  0  0  0  0  0
   39.6060   32.1740   36.8850 N   0  0  0  0  0  0  0  0  0  0  0  0
   40.6370   32.4320   37.7450 C   0  0  0  0  0  0  0  0  0  0  0  0
   40.2210   32.2310   39.0070 N   0  0  0  0  0  0  0  0  0  0  0  0
   37.5370   31.5320   37.2320 H   0  0  0  0  0  0  0  0  0  0  0  0
   39.6070   32.2370   35.8450 H   0  0  0  0  0  0  0  0  0  0  0  0
   41.9730   32.8660   37.2140 C   0  0  0  0  0  2  0  0  0  0  0  0
   42.9100   31.7800   37.1550 N   0  0  0  0  0  4  0  0  0  0  0  0
   43.6520   32.0200   36.4480 H   0  0  0  0  0  0  0  0  0  0  0  0
   43.6020   31.6530   38.4270 C   0  0  0  0  0  2  0  0  0  0  0  0
   44.3530   32.4840   38.4570 H   0  0  0  0  0  0  0  0  0  0  0  0
   42.3430   30.5260   36.7180 C   0  0  0  0  0  2  0  0  0  0  0  0
   41.9230   30.7120   35.7040 H   0  0  0  0  0  0  0  0  0  0  0  0
  1  7  1  0  0  0  0
  1  6  1  0  0  0  0
  2  1  2  0  0  0  0
  3  2  1  0  0  0  0
  3  4  2  0  0  0  0
  4  5  1  0  0  0  0
  5  6  2  0  0  0  0
  5  8  1  0  0  0  0
  9 13  1  0  0  0  0
  9  3  1  0  0  0  0
 10  9  2  0  0  0  0
 11 12  2  0  0  0  0
 11 10  1  0  0  0  0
 12 13  1  0  0  0  0
 14 10  1  0  0  0  0
 15 11  1  0  0  0  0
 16 12  1  0  0  0  0
 17 18  2  0  0  0  0
 17  2  1  0  0  0  0
 19 23  1  0  0  0  0
 19 17  1  0  0  0  0
 20 19  2  0  0  0  0
 21 20  1  0  0  0  0
 21 22  1  0  0  0  0
 22 23  2  0  0  0  0
 24 20  1  0  0  0  0
 25 21  1  0  0  0  0
 26 22  1  0  0  0  0
 27 26  1  0  0  0  0
 27 29  1  0  0  0  0
 28 27  1  0  0  0  0
 29 30  1  0  0  0  0
 31 27  1  0  0  0  0
 32 31  1  0  0  0  0
M  END
>  <minimizedAffinity>
-4.66588783

$$$$
