
 OpenBabel03242512133D

 39 41  0  0  1  0  0  0  0  0999 V2000
   38.1650   30.1910   42.3400 O   0  0  0  0  0  0  0  0  0  0  0  0
   37.2470   30.2230   41.1280 P   0  0  2  0  0  0  0  0  0  0  0  0
   35.8280   31.0070   41.4380 O   0  0  0  0  0  0  0  0  0  0  0  0
   35.0740   30.6040   40.9260 H   0  0  0  0  0  0  0  0  0  0  0  0
   37.0920   28.6280   40.5880 O   0  0  0  0  0  0  0  0  0  0  0  0
   37.2510   26.3450   41.5040 C   0  0  1  0  0  0  0  0  0  0  0  0
   36.5110   27.3350   42.4920 C   0  0  0  0  0  0  0  0  0  0  0  0
   37.5420   27.7960   41.5960 C   0  0  2  0  0  0  0  0  0  0  0  0
   36.6220   25.9960   40.6880 H   0  0  0  0  0  0  0  0  0  0  0  0
   36.6940   27.1700   43.5710 H   0  0  0  0  0  0  0  0  0  0  0  0
   35.4220   27.4410   42.2810 H   0  0  0  0  0  0  0  0  0  0  0  0
   38.5820   28.0150   41.9010 H   0  0  0  0  0  0  0  0  0  0  0  0
   38.1050   25.3730   42.2460 C   0  0  0  0  0  0  0  0  0  0  0  0
   37.6190   24.2740   42.4940 O   0  0  0  0  0  0  0  0  0  0  0  0
   39.7660   26.2650   43.8110 C   0  0  0  0  0  0  0  0  0  0  0  0
   39.4300   25.6170   42.6840 C   0  0  0  0  0  0  0  0  0  0  0  0
   40.5200   25.1480   41.8780 C   0  0  0  0  0  0  0  0  0  0  0  0
   41.8040   25.3550   42.2520 N   0  0  0  0  0  0  0  0  0  0  0  0
   42.0710   26.0200   43.4070 C   0  0  0  0  0  0  0  0  0  0  0  0
   41.0830   26.4560   44.1550 N   0  0  0  0  0  0  0  0  0  0  0  0
   38.9290   26.6240   44.4240 H   0  0  0  0  0  0  0  0  0  0  0  0
   40.4220   24.6170   40.9700 H   0  0  0  0  0  0  0  0  0  0  0  0
   43.1000   26.1800   43.6950 H   0  0  0  0  0  0  0  0  0  0  0  0
   38.1830   31.0720   39.9340 O   0  0  0  0  0  0  0  0  0  0  0  0
   38.6990   32.3350   40.1140 C   0  0  0  0  0  0  0  0  0  0  0  0
   38.0400   33.5580   40.1240 C   0  0  0  0  0  0  0  0  0  0  0  0
   38.7460   34.7210   40.3250 C   0  0  0  0  0  0  0  0  0  0  0  0
   40.0910   34.6570   40.5130 N   0  0  0  0  0  0  0  0  0  0  0  0
   40.7350   33.4730   40.5050 C   0  0  0  0  0  0  0  0  0  0  0  0
   40.0380   32.3070   40.3050 N   0  0  0  0  0  0  0  0  0  0  0  0
   36.9710   33.4700   39.9620 H   0  0  0  0  0  0  0  0  0  0  0  0
   38.1760   35.6460   40.3220 H   0  0  0  0  0  0  0  0  0  0  0  0
   42.2110   33.4430   40.7150 C   0  0  0  0  0  2  0  0  0  0  0  0
   42.5860   33.6830   42.0730 N   0  0  0  0  0  4  0  0  0  0  0  0
   41.7400   33.7770   42.6800 H   0  0  0  0  0  0  0  0  0  0  0  0
   43.3660   34.8880   42.2530 C   0  0  0  0  0  2  0  0  0  0  0  0
   43.5480   35.0120   43.3410 H   0  0  0  0  0  0  0  0  0  0  0  0
   43.3250   32.5410   42.6260 C   0  0  0  0  0  2  0  0  0  0  0  0
   43.0500   32.3080   43.6550 H   0  0  0  0  0  0  0  0  0  0  0  0
  2  3  1  0  0  0  0
  2  1  2  1  0  0  0
  4  3  1  0  0  0  0
  5  2  1  0  0  0  0
  5  8  1  0  0  0  0
  6  9  1  6  0  0  0
  6  8  1  0  0  0  0
  6 13  1  0  0  0  0
  6  7  1  0  0  0  0
  7 10  1  0  0  0  0
  8 12  1  1  0  0  0
  8  7  1  0  0  0  0
 11  7  1  0  0  0  0
 13 14  2  0  0  0  0
 13 16  1  0  0  0  0
 15 20  1  0  0  0  0
 15 21  1  0  0  0  0
 16 15  2  0  0  0  0
 17 18  2  0  0  0  0
 17 16  1  0  0  0  0
 18 19  1  0  0  0  0
 19 23  1  0  0  0  0
 19 20  2  0  0  0  0
 22 17  1  0  0  0  0
 24 25  1  0  0  0  0
 24  2  1  0  0  0  0
 25 26  2  0  0  0  0
 25 30  1  0  0  0  0
 26 27  1  0  0  0  0
 27 28  2  0  0  0  0
 29 28  1  0  0  0  0
 29 33  1  0  0  0  0
 30 29  2  0  0  0  0
 31 26  1  0  0  0  0
 32 27  1  0  0  0  0
 33 34  1  0  0  0  0
 34 36  1  0  0  0  0
 34 38  1  0  0  0  0
 34 35  1  0  0  0  0
 36 37  1  0  0  0  0
 38 39  1  0  0  0  0
M  END
>  <minimizedAffinity>
-5.82013273

$$$$

 OpenBabel03242512133D

 39 41  0  0  1  0  0  0  0  0999 V2000
   39.7390   29.6540   40.8730 O   0  0  0  0  0  0  0  0  0  0  0  0
   38.9890   30.6600   41.7310 P   0  0  2  0  0  0  0  0  0  0  0  0
   39.9500   31.3340   42.8910 O   0  0  0  0  0  0  0  0  0  0  0  0
   39.4320   31.5330   43.7180 H   0  0  0  0  0  0  0  0  0  0  0  0
   37.6010   29.8800   42.3020 O   0  0  0  0  0  0  0  0  0  0  0  0
   37.1850   27.4520   42.4000 C   0  0  1  0  0  0  0  0  0  0  0  0
   37.1340   28.1260   43.8320 C   0  0  0  0  0  0  0  0  0  0  0  0
   37.9810   28.6420   42.7850 C   0  0  2  0  0  0  0  0  0  0  0  0
   36.2800   27.6040   41.8170 H   0  0  0  0  0  0  0  0  0  0  0  0
   37.5300   27.5180   44.6680 H   0  0  0  0  0  0  0  0  0  0  0  0
   36.1390   28.5570   44.0830 H   0  0  0  0  0  0  0  0  0  0  0  0
   39.0730   28.4760   42.7270 H   0  0  0  0  0  0  0  0  0  0  0  0
   37.8080   26.0980   42.4580 C   0  0  0  0  0  0  0  0  0  0  0  0
   37.0510   25.1350   42.5300 O   0  0  0  0  0  0  0  0  0  0  0  0
   39.9670   25.6240   43.5160 C   0  0  0  0  0  0  0  0  0  0  0  0
   39.2000   25.8370   42.4340 C   0  0  0  0  0  0  0  0  0  0  0  0
   39.8720   25.7920   41.1670 C   0  0  0  0  0  0  0  0  0  0  0  0
   41.2000   25.5470   41.0890 N   0  0  0  0  0  0  0  0  0  0  0  0
   41.9150   25.3400   42.2270 C   0  0  0  0  0  0  0  0  0  0  0  0
   41.3130   25.3780   43.3940 N   0  0  0  0  0  0  0  0  0  0  0  0
   39.4500   25.6600   44.4830 H   0  0  0  0  0  0  0  0  0  0  0  0
   39.4090   25.9320   40.2270 H   0  0  0  0  0  0  0  0  0  0  0  0
   42.9750   25.1450   42.1520 H   0  0  0  0  0  0  0  0  0  0  0  0
   38.4610   31.8560   40.5850 O   0  0  0  0  0  0  0  0  0  0  0  0
   39.0470   33.0920   40.4360 C   0  0  0  0  0  0  0  0  0  0  0  0
   38.4490   34.3450   40.3860 C   0  0  0  0  0  0  0  0  0  0  0  0
   39.2210   35.4730   40.2320 C   0  0  0  0  0  0  0  0  0  0  0  0
   40.5700   35.3450   40.1300 N   0  0  0  0  0  0  0  0  0  0  0  0
   41.1550   34.1320   40.1790 C   0  0  0  0  0  0  0  0  0  0  0  0
   40.3920   33.0000   40.3330 N   0  0  0  0  0  0  0  0  0  0  0  0
   37.3680   34.3080   40.4770 H   0  0  0  0  0  0  0  0  0  0  0  0
   38.6970   36.4240   40.2000 H   0  0  0  0  0  0  0  0  0  0  0  0
   42.6400   34.0310   40.0650 C   0  0  0  0  0  2  0  0  0  0  0  0
   43.1290   34.4440   38.7880 N   0  0  0  0  0  4  0  0  0  0  0  0
   43.1280   35.4870   38.7090 H   0  0  0  0  0  0  0  0  0  0  0  0
   42.3480   33.9400   37.6790 C   0  0  0  0  0  2  0  0  0  0  0  0
   42.7720   34.3670   36.7470 H   0  0  0  0  0  0  0  0  0  0  0  0
   44.5330   34.0520   38.6090 C   0  0  0  0  0  2  0  0  0  0  0  0
   45.1340   34.8170   38.1170 H   0  0  0  0  0  0  0  0  0  0  0  0
  2  1  2  6  0  0  0
  2  5  1  0  0  0  0
  2  3  1  0  0  0  0
  3  4  1  0  0  0  0
  5  8  1  0  0  0  0
  6  9  1  6  0  0  0
  6 13  1  0  0  0  0
  6  8  1  0  0  0  0
  6  7  1  0  0  0  0
  7 11  1  0  0  0  0
  7 10  1  0  0  0  0
  8 12  1  1  0  0  0
  8  7  1  0  0  0  0
 13 14  2  0  0  0  0
 15 21  1  0  0  0  0
 16 13  1  0  0  0  0
 16 15  2  0  0  0  0
 17 16  1  0  0  0  0
 18 17  2  0  0  0  0
 18 19  1  0  0  0  0
 19 20  2  0  0  0  0
 20 15  1  0  0  0  0
 22 17  1  0  0  0  0
 23 19  1  0  0  0  0
 24  2  1  0  0  0  0
 25 24  1  0  0  0  0
 26 25  1  0  0  0  0
 26 31  1  0  0  0  0
 27 26  2  0  0  0  0
 28 29  2  0  0  0  0
 28 27  1  0  0  0  0
 29 30  1  0  0  0  0
 30 25  2  0  0  0  0
 32 27  1  0  0  0  0
 33 29  1  0  0  0  0
 34 33  1  0  0  0  0
 35 34  1  0  0  0  0
 36 34  1  0  0  0  0
 37 36  1  0  0  0  0
 38 34  1  0  0  0  0
 39 38  1  0  0  0  0
M  END
>  <minimizedAffinity>
-5.58291817

$$$$

 OpenBabel03242512133D

 39 41  0  0  1  0  0  0  0  0999 V2000
   40.9870   29.9070   40.6760 O   0  0  0  0  0  0  0  0  0  0  0  0
   40.4600   30.3530   42.0310 P   0  0  2  0  0  0  0  0  0  0  0  0
   41.2670   31.6700   42.6140 O   0  0  0  0  0  0  0  0  0  0  0  0
   41.3320   31.6440   43.6070 H   0  0  0  0  0  0  0  0  0  0  0  0
   40.4710   28.9930   43.0360 O   0  0  0  0  0  0  0  0  0  0  0  0
   38.2420   28.0770   43.5560 C   0  0  1  0  0  0  0  0  0  0  0  0
   39.3300   26.9410   43.3870 C   0  0  0  0  0  0  0  0  0  0  0  0
   39.4170   28.1820   42.6580 C   0  0  2  0  0  0  0  0  0  0  0  0
   38.2840   28.5780   44.5200 H   0  0  0  0  0  0  0  0  0  0  0  0
   38.9820   26.0010   42.9170 H   0  0  0  0  0  0  0  0  0  0  0  0
   39.9050   26.7350   44.3190 H   0  0  0  0  0  0  0  0  0  0  0  0
   39.1450   28.3000   41.5930 H   0  0  0  0  0  0  0  0  0  0  0  0
   36.9240   27.6550   43.0000 C   0  0  0  0  0  0  0  0  0  0  0  0
   36.0950   27.2180   43.7910 O   0  0  0  0  0  0  0  0  0  0  0  0
   35.9070   28.7450   41.0540 C   0  0  0  0  0  0  0  0  0  0  0  0
   36.5550   27.7210   41.6330 C   0  0  0  0  0  0  0  0  0  0  0  0
   36.8860   26.6190   40.7760 C   0  0  0  0  0  0  0  0  0  0  0  0
   36.5570   26.6320   39.4640 N   0  0  0  0  0  0  0  0  0  0  0  0
   35.9000   27.7030   38.9440 C   0  0  0  0  0  0  0  0  0  0  0  0
   35.5900   28.7190   39.7170 N   0  0  0  0  0  0  0  0  0  0  0  0
   35.6540   29.5840   41.7130 H   0  0  0  0  0  0  0  0  0  0  0  0
   37.4000   25.7460   41.0780 H   0  0  0  0  0  0  0  0  0  0  0  0
   35.6420   27.7020   37.8950 H   0  0  0  0  0  0  0  0  0  0  0  0
   38.7930   30.7320   41.7120 O   0  0  0  0  0  0  0  0  0  0  0  0
   38.3760   31.8240   40.9850 C   0  0  0  0  0  0  0  0  0  0  0  0
   37.2350   31.9760   40.2090 C   0  0  0  0  0  0  0  0  0  0  0  0
   36.9970   33.1630   39.5550 C   0  0  0  0  0  0  0  0  0  0  0  0
   37.8920   34.1790   39.6780 N   0  0  0  0  0  0  0  0  0  0  0  0
   39.0010   34.0360   40.4300 C   0  0  0  0  0  0  0  0  0  0  0  0
   39.2460   32.8550   41.0870 N   0  0  0  0  0  0  0  0  0  0  0  0
   36.6060   31.0920   40.1940 H   0  0  0  0  0  0  0  0  0  0  0  0
   36.0880   33.2220   38.9630 H   0  0  0  0  0  0  0  0  0  0  0  0
   39.9590   35.1740   40.5410 C   0  0  0  0  0  2  0  0  0  0  0  0
   41.3230   34.7680   40.4200 N   0  0  0  0  0  4  0  0  0  0  0  0
   41.4280   33.7490   40.6300 H   0  0  0  0  0  0  0  0  0  0  0  0
   42.2180   35.4730   41.3120 C   0  0  0  0  0  2  0  0  0  0  0  0
   43.2320   35.0410   41.1820 H   0  0  0  0  0  0  0  0  0  0  0  0
   41.7980   34.9210   39.0390 C   0  0  0  0  0  2  0  0  0  0  0  0
   42.4310   34.0970   38.7080 H   0  0  0  0  0  0  0  0  0  0  0  0
  2  1  2  6  0  0  0
  2  3  1  0  0  0  0
  2  5  1  0  0  0  0
  3  4  1  0  0  0  0
  6  9  1  1  0  0  0
  7  6  1  0  0  0  0
  7 11  1  0  0  0  0
  8 12  1  6  0  0  0
  8  5  1  0  0  0  0
  8  7  1  0  0  0  0
  8  6  1  0  0  0  0
 10  7  1  0  0  0  0
 13  6  1  0  0  0  0
 13 14  2  0  0  0  0
 15 16  1  0  0  0  0
 15 21  1  0  0  0  0
 16 13  1  0  0  0  0
 17 22  1  0  0  0  0
 17 16  2  0  0  0  0
 18 17  1  0  0  0  0
 19 18  2  0  0  0  0
 19 20  1  0  0  0  0
 20 15  2  0  0  0  0
 23 19  1  0  0  0  0
 24  2  1  0  0  0  0
 25 30  1  0  0  0  0
 25 24  1  0  0  0  0
 26 25  2  0  0  0  0
 27 28  2  0  0  0  0
 27 26  1  0  0  0  0
 28 29  1  0  0  0  0
 29 33  1  0  0  0  0
 29 30  2  0  0  0  0
 31 26  1  0  0  0  0
 32 27  1  0  0  0  0
 34 33  1  0  0  0  0
 34 35  1  0  0  0  0
 34 36  1  0  0  0  0
 37 36  1  0  0  0  0
 38 34  1  0  0  0  0
 39 38  1  0  0  0  0
M  END
>  <minimizedAffinity>
-5.41454744

$$$$

 OpenBabel03242512133D

 39 41  0  0  1  0  0  0  0  0999 V2000
   34.5010   29.0820   40.0580 O   0  0  0  0  0  0  0  0  0  0  0  0
   35.7850   29.8950   40.1250 P   0  0  2  0  0  0  0  0  0  0  0  0
   35.7860   30.9590   41.3870 O   0  0  0  0  0  0  0  0  0  0  0  0
   36.2840   31.7900   41.1580 H   0  0  0  0  0  0  0  0  0  0  0  0
   36.0130   30.5810   38.5970 O   0  0  0  0  0  0  0  0  0  0  0  0
   38.1190   31.8480   38.7860 C   0  0  1  0  0  0  0  0  0  0  0  0
   37.7530   31.5190   37.2820 C   0  0  0  0  0  0  0  0  0  0  0  0
   37.3740   30.6400   38.3600 C   0  0  2  0  0  0  0  0  0  0  0  0
   37.5560   32.6830   39.1970 H   0  0  0  0  0  0  0  0  0  0  0  0
   38.6060   31.3010   36.6120 H   0  0  0  0  0  0  0  0  0  0  0  0
   37.0600   32.2600   36.8220 H   0  0  0  0  0  0  0  0  0  0  0  0
   37.8930   29.6950   38.6070 H   0  0  0  0  0  0  0  0  0  0  0  0
   39.5900   31.7640   39.0190 C   0  0  0  0  0  0  0  0  0  0  0  0
   40.0190   30.7340   39.5290 O   0  0  0  0  0  0  0  0  0  0  0  0
   40.7280   33.9000   39.4050 C   0  0  0  0  0  0  0  0  0  0  0  0
   40.5280   32.7760   38.6970 C   0  0  0  0  0  0  0  0  0  0  0  0
   41.3420   32.6140   37.5270 C   0  0  0  0  0  0  0  0  0  0  0  0
   42.2520   33.5510   37.1760 N   0  0  0  0  0  0  0  0  0  0  0  0
   42.4020   34.6670   37.9390 C   0  0  0  0  0  0  0  0  0  0  0  0
   41.6630   34.8280   39.0130 N   0  0  0  0  0  0  0  0  0  0  0  0
   40.1030   34.0200   40.2980 H   0  0  0  0  0  0  0  0  0  0  0  0
   41.3100   31.7850   36.8720 H   0  0  0  0  0  0  0  0  0  0  0  0
   43.1320   35.4080   37.6480 H   0  0  0  0  0  0  0  0  0  0  0  0
   37.0190   28.6860   40.3260 O   0  0  0  0  0  0  0  0  0  0  0  0
   37.4710   28.2410   41.5470 C   0  0  0  0  0  0  0  0  0  0  0  0
   36.7510   27.9770   42.7050 C   0  0  0  0  0  0  0  0  0  0  0  0
   37.3970   27.5310   43.8350 C   0  0  0  0  0  0  0  0  0  0  0  0
   38.7440   27.3550   43.8020 N   0  0  0  0  0  0  0  0  0  0  0  0
   39.4480   27.6100   42.6810 C   0  0  0  0  0  0  0  0  0  0  0  0
   38.8110   28.0540   41.5490 N   0  0  0  0  0  0  0  0  0  0  0  0
   35.6860   28.1590   42.5980 H   0  0  0  0  0  0  0  0  0  0  0  0
   36.7800   27.3420   44.7080 H   0  0  0  0  0  0  0  0  0  0  0  0
   40.9260   27.4030   42.6830 C   0  0  0  0  0  2  0  0  0  0  0  0
   41.6310   28.4320   43.3790 N   0  0  0  0  0  4  0  0  0  0  0  0
   41.1440   28.6790   44.2710 H   0  0  0  0  0  0  0  0  0  0  0  0
   41.7610   29.6580   42.6200 C   0  0  0  0  0  2  0  0  0  0  0  0
   42.2630   30.4040   43.2700 H   0  0  0  0  0  0  0  0  0  0  0  0
   42.9640   27.9740   43.7890 C   0  0  0  0  0  2  0  0  0  0  0  0
   43.2460   28.3090   44.7880 H   0  0  0  0  0  0  0  0  0  0  0  0
  2  1  2  6  0  0  0
  2 24  1  0  0  0  0
  2  3  1  0  0  0  0
  4  3  1  0  0  0  0
  5  2  1  0  0  0  0
  6 13  1  0  0  0  0
  6  9  1  1  0  0  0
  7  8  1  0  0  0  0
  7  6  1  0  0  0  0
  8  5  1  0  0  0  0
  8 12  1  1  0  0  0
  8  6  1  0  0  0  0
 10  7  1  0  0  0  0
 11  7  1  0  0  0  0
 13 14  2  0  0  0  0
 15 21  1  0  0  0  0
 16 13  1  0  0  0  0
 16 15  2  0  0  0  0
 17 16  1  0  0  0  0
 18 17  2  0  0  0  0
 18 19  1  0  0  0  0
 19 20  2  0  0  0  0
 20 15  1  0  0  0  0
 22 17  1  0  0  0  0
 23 19  1  0  0  0  0
 24 25  1  0  0  0  0
 25 30  2  0  0  0  0
 25 26  1  0  0  0  0
 26 27  2  0  0  0  0
 27 32  1  0  0  0  0
 28 27  1  0  0  0  0
 29 33  1  0  0  0  0
 29 28  2  0  0  0  0
 30 29  1  0  0  0  0
 31 26  1  0  0  0  0
 33 34  1  0  0  0  0
 34 38  1  0  0  0  0
 34 35  1  0  0  0  0
 36 37  1  0  0  0  0
 36 34  1  0  0  0  0
 38 39  1  0  0  0  0
M  END
>  <minimizedAffinity>
-5.3289628

$$$$

 OpenBabel03242512133D

 39 41  0  0  1  0  0  0  0  0999 V2000
   34.5520   29.0960   39.9220 O   0  0  0  0  0  0  0  0  0  0  0  0
   35.8460   29.4240   40.6500 P   0  0  2  0  0  0  0  0  0  0  0  0
   35.8510   30.9580   41.2590 O   0  0  0  0  0  0  0  0  0  0  0  0
   36.7660   31.3510   41.2410 H   0  0  0  0  0  0  0  0  0  0  0  0
   37.1120   29.0600   39.5900 O   0  0  0  0  0  0  0  0  0  0  0  0
   39.0460   30.2350   38.6100 C   0  0  1  0  0  0  0  0  0  0  0  0
   39.3850   29.5980   40.0190 C   0  0  0  0  0  0  0  0  0  0  0  0
   38.0570   30.0630   39.7020 C   0  0  2  0  0  0  0  0  0  0  0  0
   39.0460   29.5140   37.7970 H   0  0  0  0  0  0  0  0  0  0  0  0
   40.0780   30.1760   40.6590 H   0  0  0  0  0  0  0  0  0  0  0  0
   39.6900   28.5280   39.9600 H   0  0  0  0  0  0  0  0  0  0  0  0
   37.6290   31.0180   40.0590 H   0  0  0  0  0  0  0  0  0  0  0  0
   39.7260   31.5510   38.4310 C   0  0  0  0  0  0  0  0  0  0  0  0
   40.5840   31.6250   37.5580 O   0  0  0  0  0  0  0  0  0  0  0  0
   38.2440   33.2660   39.3640 C   0  0  0  0  0  0  0  0  0  0  0  0
   39.4580   32.7190   39.1880 C   0  0  0  0  0  0  0  0  0  0  0  0
   40.5520   33.3920   39.8260 C   0  0  0  0  0  0  0  0  0  0  0  0
   40.3500   34.5110   40.5600 N   0  0  0  0  0  0  0  0  0  0  0  0
   39.0930   35.0100   40.6970 C   0  0  0  0  0  0  0  0  0  0  0  0
   38.0820   34.4040   40.1170 N   0  0  0  0  0  0  0  0  0  0  0  0
   37.4110   32.7490   38.8730 H   0  0  0  0  0  0  0  0  0  0  0  0
   41.5620   33.0840   39.7890 H   0  0  0  0  0  0  0  0  0  0  0  0
   38.9440   35.9040   41.2850 H   0  0  0  0  0  0  0  0  0  0  0  0
   35.9030   28.2440   41.9270 O   0  0  0  0  0  0  0  0  0  0  0  0
   37.0630   27.6730   42.3970 C   0  0  0  0  0  0  0  0  0  0  0  0
   38.0840   28.2480   43.1420 C   0  0  0  0  0  0  0  0  0  0  0  0
   39.1720   27.4960   43.5200 C   0  0  0  0  0  0  0  0  0  0  0  0
   39.2330   26.1880   43.1550 N   0  0  0  0  0  0  0  0  0  0  0  0
   38.2450   25.6250   42.4330 C   0  0  0  0  0  0  0  0  0  0  0  0
   37.1550   26.3680   42.0520 N   0  0  0  0  0  0  0  0  0  0  0  0
   37.9130   29.2960   43.3650 H   0  0  0  0  0  0  0  0  0  0  0  0
   39.9380   28.0010   44.1010 H   0  0  0  0  0  0  0  0  0  0  0  0
   38.3480   24.1860   42.0520 C   0  0  0  0  0  2  0  0  0  0  0  0
   38.1620   23.9650   40.6530 N   0  0  0  0  0  4  0  0  0  0  0  0
   37.4310   24.6070   40.2690 H   0  0  0  0  0  0  0  0  0  0  0  0
   37.7460   22.6170   40.3310 C   0  0  0  0  0  2  0  0  0  0  0  0
   37.5710   22.5720   39.2360 H   0  0  0  0  0  0  0  0  0  0  0  0
   39.3820   24.2870   39.9020 C   0  0  0  0  0  2  0  0  0  0  0  0
   39.1850   24.8030   38.9610 H   0  0  0  0  0  0  0  0  0  0  0  0
  2  1  2  6  0  0  0
  2  3  1  0  0  0  0
  2 24  1  0  0  0  0
  4  3  1  0  0  0  0
  5  8  1  0  0  0  0
  5  2  1  0  0  0  0
  6  9  1  6  0  0  0
  6  8  1  0  0  0  0
  6  7  1  0  0  0  0
  7 10  1  0  0  0  0
  8  7  1  0  0  0  0
  8 12  1  1  0  0  0
 11  7  1  0  0  0  0
 13  6  1  0  0  0  0
 13 16  1  0  0  0  0
 14 13  2  0  0  0  0
 15 20  1  0  0  0  0
 16 15  2  0  0  0  0
 16 17  1  0  0  0  0
 17 18  2  0  0  0  0
 18 19  1  0  0  0  0
 19 23  1  0  0  0  0
 20 19  2  0  0  0  0
 21 15  1  0  0  0  0
 22 17  1  0  0  0  0
 24 25  1  0  0  0  0
 25 26  1  0  0  0  0
 26 31  1  0  0  0  0
 26 27  2  0  0  0  0
 27 32  1  0  0  0  0
 28 27  1  0  0  0  0
 29 28  2  0  0  0  0
 30 25  2  0  0  0  0
 30 29  1  0  0  0  0
 33 29  1  0  0  0  0
 34 33  1  0  0  0  0
 35 34  1  0  0  0  0
 36 34  1  0  0  0  0
 37 36  1  0  0  0  0
 38 34  1  0  0  0  0
 39 38  1  0  0  0  0
M  END
>  <minimizedAffinity>
-5.32412148

$$$$

 OpenBabel03242512133D

 39 41  0  0  1  0  0  0  0  0999 V2000
   38.1980   31.0180   41.4730 O   0  0  0  0  0  0  0  0  0  0  0  0
   36.9840   31.0120   40.5580 P   0  0  2  0  0  0  0  0  0  0  0  0
   35.5650   31.0110   41.4010 O   0  0  0  0  0  0  0  0  0  0  0  0
   34.8590   30.4980   40.9200 H   0  0  0  0  0  0  0  0  0  0  0  0
   37.1880   29.7250   39.4790 O   0  0  0  0  0  0  0  0  0  0  0  0
   37.3730   27.2970   39.8620 C   0  0  1  0  0  0  0  0  0  0  0  0
   36.0040   27.6910   39.1720 C   0  0  0  0  0  0  0  0  0  0  0  0
   36.6770   28.5890   40.0780 C   0  0  2  0  0  0  0  0  0  0  0  0
   38.2140   27.2740   39.1730 H   0  0  0  0  0  0  0  0  0  0  0  0
   35.1200   27.0970   39.4750 H   0  0  0  0  0  0  0  0  0  0  0  0
   36.0720   27.7720   38.0640 H   0  0  0  0  0  0  0  0  0  0  0  0
   36.3790   28.7540   41.1290 H   0  0  0  0  0  0  0  0  0  0  0  0
   37.1890   26.1880   40.8420 C   0  0  0  0  0  0  0  0  0  0  0  0
   36.9810   26.4990   42.0090 O   0  0  0  0  0  0  0  0  0  0  0  0
   36.2230   24.0940   40.0100 C   0  0  0  0  0  0  0  0  0  0  0  0
   37.2360   24.8060   40.5300 C   0  0  0  0  0  0  0  0  0  0  0  0
   38.4500   24.0840   40.7800 C   0  0  0  0  0  0  0  0  0  0  0  0
   38.5470   22.7640   40.5000 N   0  0  0  0  0  0  0  0  0  0  0  0
   37.4800   22.1050   39.9750 C   0  0  0  0  0  0  0  0  0  0  0  0
   36.3620   22.7540   39.7410 N   0  0  0  0  0  0  0  0  0  0  0  0
   35.2960   24.6500   39.8210 H   0  0  0  0  0  0  0  0  0  0  0  0
   39.3360   24.5010   41.1780 H   0  0  0  0  0  0  0  0  0  0  0  0
   37.5690   21.0510   39.7560 H   0  0  0  0  0  0  0  0  0  0  0  0
   37.1640   32.4760   39.6370 O   0  0  0  0  0  0  0  0  0  0  0  0
   38.2340   33.3330   39.7540 C   0  0  0  0  0  0  0  0  0  0  0  0
   38.2610   34.6450   40.2080 C   0  0  0  0  0  0  0  0  0  0  0  0
   39.4480   35.3390   40.2500 C   0  0  0  0  0  0  0  0  0  0  0  0
   40.5890   34.7240   39.8420 N   0  0  0  0  0  0  0  0  0  0  0  0
   40.5690   33.4500   39.4010 C   0  0  0  0  0  0  0  0  0  0  0  0
   39.3890   32.7510   39.3570 N   0  0  0  0  0  0  0  0  0  0  0  0
   37.2840   35.0170   40.5020 H   0  0  0  0  0  0  0  0  0  0  0  0
   39.4060   36.3610   40.6150 H   0  0  0  0  0  0  0  0  0  0  0  0
   41.8430   32.8090   38.9620 C   0  0  0  0  0  2  0  0  0  0  0  0
   42.1370   33.0400   37.5840 N   0  0  0  0  0  4  0  0  0  0  0  0
   41.2990   33.4120   37.0820 H   0  0  0  0  0  0  0  0  0  0  0  0
   42.5560   31.8500   36.8750 C   0  0  0  0  0  2  0  0  0  0  0  0
   42.6970   32.1260   35.8090 H   0  0  0  0  0  0  0  0  0  0  0  0
   43.1630   34.0800   37.4300 C   0  0  0  0  0  2  0  0  0  0  0  0
   42.9630   34.7630   36.6040 H   0  0  0  0  0  0  0  0  0  0  0  0
  2  3  1  0  0  0  0
  2  1  2  1  0  0  0
  4  3  1  0  0  0  0
  5  8  1  0  0  0  0
  5  2  1  0  0  0  0
  6  9  1  6  0  0  0
  6  8  1  0  0  0  0
  6 13  1  0  0  0  0
  7 10  1  0  0  0  0
  7  6  1  0  0  0  0
  7  8  1  0  0  0  0
  8 12  1  1  0  0  0
 11  7  1  0  0  0  0
 13 14  2  0  0  0  0
 15 16  1  0  0  0  0
 16 17  2  0  0  0  0
 16 13  1  0  0  0  0
 17 22  1  0  0  0  0
 18 17  1  0  0  0  0
 19 18  2  0  0  0  0
 20 19  1  0  0  0  0
 20 15  2  0  0  0  0
 21 15  1  0  0  0  0
 23 19  1  0  0  0  0
 24 25  1  0  0  0  0
 24  2  1  0  0  0  0
 25 26  1  0  0  0  0
 26 27  2  0  0  0  0
 26 31  1  0  0  0  0
 27 32  1  0  0  0  0
 28 27  1  0  0  0  0
 29 28  2  0  0  0  0
 30 29  1  0  0  0  0
 30 25  2  0  0  0  0
 33 29  1  0  0  0  0
 34 33  1  0  0  0  0
 35 34  1  0  0  0  0
 36 34  1  0  0  0  0
 37 36  1  0  0  0  0
 38 34  1  0  0  0  0
 39 38  1  0  0  0  0
M  END
>  <minimizedAffinity>
-5.30996037

$$$$

 OpenBabel03242512133D

 39 41  0  0  1  0  0  0  0  0999 V2000
   36.5890   31.4160   39.4090 O   0  0  0  0  0  0  0  0  0  0  0  0
   37.7220   30.9520   40.3110 P   0  0  2  0  0  0  0  0  0  0  0  0
   38.9830   30.3180   39.4560 O   0  0  0  0  0  0  0  0  0  0  0  0
   39.4280   29.5830   39.9610 H   0  0  0  0  0  0  0  0  0  0  0  0
   37.0410   29.9260   41.4690 O   0  0  0  0  0  0  0  0  0  0  0  0
   37.8180   28.2370   43.0880 C   0  0  1  0  0  0  0  0  0  0  0  0
   38.8550   29.4210   42.9150 C   0  0  0  0  0  0  0  0  0  0  0  0
   38.0020   29.0010   41.8300 C   0  0  2  0  0  0  0  0  0  0  0  0
   36.9740   28.4900   43.7250 H   0  0  0  0  0  0  0  0  0  0  0  0
   39.9240   29.1410   42.9700 H   0  0  0  0  0  0  0  0  0  0  0  0
   38.6350   30.3010   43.5620 H   0  0  0  0  0  0  0  0  0  0  0  0
   38.3340   28.3730   40.9820 H   0  0  0  0  0  0  0  0  0  0  0  0
   38.5110   26.9280   43.2640 C   0  0  0  0  0  0  0  0  0  0  0  0
   39.3090   26.8360   44.1910 O   0  0  0  0  0  0  0  0  0  0  0  0
   39.3030   25.0500   41.9030 C   0  0  0  0  0  0  0  0  0  0  0  0
   38.3200   25.7860   42.4480 C   0  0  0  0  0  0  0  0  0  0  0  0
   36.9810   25.3580   42.1630 C   0  0  0  0  0  0  0  0  0  0  0  0
   36.7440   24.2740   41.3900 N   0  0  0  0  0  0  0  0  0  0  0  0
   37.7880   23.5750   40.8700 C   0  0  0  0  0  0  0  0  0  0  0  0
   39.0200   23.9550   41.1220 N   0  0  0  0  0  0  0  0  0  0  0  0
   40.3250   25.3810   42.1220 H   0  0  0  0  0  0  0  0  0  0  0  0
   36.1030   25.8250   42.5220 H   0  0  0  0  0  0  0  0  0  0  0  0
   37.5870   22.7110   40.2530 H   0  0  0  0  0  0  0  0  0  0  0  0
   38.1980   32.4050   41.1410 O   0  0  0  0  0  0  0  0  0  0  0  0
   39.0670   33.3380   40.6240 C   0  0  0  0  0  0  0  0  0  0  0  0
   38.8890   34.7050   40.4600 C   0  0  0  0  0  0  0  0  0  0  0  0
   39.8940   35.4730   39.9180 C   0  0  0  0  0  0  0  0  0  0  0  0
   41.0580   34.8770   39.5480 N   0  0  0  0  0  0  0  0  0  0  0  0
   41.2370   33.5510   39.7060 C   0  0  0  0  0  0  0  0  0  0  0  0
   40.2390   32.7770   40.2460 N   0  0  0  0  0  0  0  0  0  0  0  0
   37.9170   35.0540   40.7930 H   0  0  0  0  0  0  0  0  0  0  0  0
   39.6960   36.5360   39.8150 H   0  0  0  0  0  0  0  0  0  0  0  0
   42.5290   32.9330   39.2890 C   0  0  0  0  0  2  0  0  0  0  0  0
   42.7960   33.0890   37.8950 N   0  0  0  0  0  4  0  0  0  0  0  0
   42.5120   34.0400   37.5660 H   0  0  0  0  0  0  0  0  0  0  0  0
   42.1000   32.1330   37.0620 C   0  0  0  0  0  2  0  0  0  0  0  0
   42.3250   32.3810   36.0040 H   0  0  0  0  0  0  0  0  0  0  0  0
   44.2370   33.0090   37.6210 C   0  0  0  0  0  2  0  0  0  0  0  0
   44.5750   33.7330   36.8790 H   0  0  0  0  0  0  0  0  0  0  0  0
  2  1  2  6  0  0  0
  2 24  1  0  0  0  0
  2  5  1  0  0  0  0
  3  4  1  0  0  0  0
  3  2  1  0  0  0  0
  5  8  1  0  0  0  0
  6 13  1  0  0  0  0
  6  9  1  1  0  0  0
  7 10  1  0  0  0  0
  7  6  1  0  0  0  0
  7 11  1  0  0  0  0
  8 12  1  6  0  0  0
  8  7  1  0  0  0  0
  8  6  1  0  0  0  0
 13 14  2  0  0  0  0
 15 21  1  0  0  0  0
 15 16  1  0  0  0  0
 16 13  1  0  0  0  0
 17 16  2  0  0  0  0
 17 22  1  0  0  0  0
 18 17  1  0  0  0  0
 19 20  1  0  0  0  0
 19 18  2  0  0  0  0
 20 15  2  0  0  0  0
 23 19  1  0  0  0  0
 25 24  1  0  0  0  0
 26 25  1  0  0  0  0
 26 31  1  0  0  0  0
 27 26  2  0  0  0  0
 28 29  2  0  0  0  0
 28 27  1  0  0  0  0
 29 30  1  0  0  0  0
 30 25  2  0  0  0  0
 32 27  1  0  0  0  0
 33 29  1  0  0  0  0
 34 33  1  0  0  0  0
 35 34  1  0  0  0  0
 36 34  1  0  0  0  0
 37 36  1  0  0  0  0
 38 34  1  0  0  0  0
 39 38  1  0  0  0  0
M  END
>  <minimizedAffinity>
-5.2345891

$$$$

 OpenBabel03242512133D

 39 41  0  0  1  0  0  0  0  0999 V2000
   37.7160   30.0950   40.1320 O   0  0  0  0  0  0  0  0  0  0  0  0
   36.7280   29.8400   41.2590 P   0  0  2  0  0  0  0  0  0  0  0  0
   35.6300   31.0620   41.4180 O   0  0  0  0  0  0  0  0  0  0  0  0
   35.3670   31.1890   42.3700 H   0  0  0  0  0  0  0  0  0  0  0  0
   37.6370   29.4960   42.6420 O   0  0  0  0  0  0  0  0  0  0  0  0
   38.7240   27.4470   43.4780 C   0  0  1  0  0  0  0  0  0  0  0  0
   39.7650   28.4680   42.8620 C   0  0  0  0  0  0  0  0  0  0  0  0
   38.4120   28.3840   42.3710 C   0  0  2  0  0  0  0  0  0  0  0  0
   38.4010   27.7100   44.4820 H   0  0  0  0  0  0  0  0  0  0  0  0
   40.6210   28.0200   42.3200 H   0  0  0  0  0  0  0  0  0  0  0  0
   40.1080   29.2420   43.5860 H   0  0  0  0  0  0  0  0  0  0  0  0
   38.1180   27.8730   41.4360 H   0  0  0  0  0  0  0  0  0  0  0  0
   39.0950   26.0360   43.1670 C   0  0  0  0  0  0  0  0  0  0  0  0
   40.0480   25.5600   43.7750 O   0  0  0  0  0  0  0  0  0  0  0  0
   37.1130   24.9740   42.1940 C   0  0  0  0  0  0  0  0  0  0  0  0
   38.4350   25.2050   42.2290 C   0  0  0  0  0  0  0  0  0  0  0  0
   39.2170   24.5430   41.2250 C   0  0  0  0  0  0  0  0  0  0  0  0
   38.6360   23.7390   40.3050 N   0  0  0  0  0  0  0  0  0  0  0  0
   37.2890   23.5500   40.3290 C   0  0  0  0  0  0  0  0  0  0  0  0
   36.5610   24.1500   41.2430 N   0  0  0  0  0  0  0  0  0  0  0  0
   36.5190   25.4820   42.9640 H   0  0  0  0  0  0  0  0  0  0  0  0
   40.2650   24.6270   41.1150 H   0  0  0  0  0  0  0  0  0  0  0  0
   36.8360   22.9050   39.5890 H   0  0  0  0  0  0  0  0  0  0  0  0
   35.9490   28.3580   40.7850 O   0  0  0  0  0  0  0  0  0  0  0  0
   35.8840   27.9020   39.4880 C   0  0  0  0  0  0  0  0  0  0  0  0
   36.6290   26.9070   38.8710 C   0  0  0  0  0  0  0  0  0  0  0  0
   36.4070   26.5950   37.5490 C   0  0  0  0  0  0  0  0  0  0  0  0
   35.4530   27.2740   36.8590 N   0  0  0  0  0  0  0  0  0  0  0  0
   34.7270   28.2420   37.4540 C   0  0  0  0  0  0  0  0  0  0  0  0
   34.9420   28.5580   38.7730 N   0  0  0  0  0  0  0  0  0  0  0  0
   37.3570   26.4450   39.5310 H   0  0  0  0  0  0  0  0  0  0  0  0
   37.0210   25.8080   37.1220 H   0  0  0  0  0  0  0  0  0  0  0  0
   33.6870   28.9650   36.6640 C   0  0  0  0  0  2  0  0  0  0  0  0
   32.3630   28.5030   36.9330 N   0  0  0  0  0  4  0  0  0  0  0  0
   32.3340   27.9510   37.8210 H   0  0  0  0  0  0  0  0  0  0  0  0
   31.8250   27.6520   35.8940 C   0  0  0  0  0  2  0  0  0  0  0  0
   30.8270   27.3010   36.2290 H   0  0  0  0  0  0  0  0  0  0  0  0
   31.4470   29.6290   37.1570 C   0  0  0  0  0  2  0  0  0  0  0  0
   30.7380   29.4530   37.9660 H   0  0  0  0  0  0  0  0  0  0  0  0
  2  1  2  6  0  0  0
  2  3  1  0  0  0  0
  2  5  1  0  0  0  0
  3  4  1  0  0  0  0
  6  9  1  1  0  0  0
  7  6  1  0  0  0  0
  7 11  1  0  0  0  0
  8 12  1  6  0  0  0
  8  5  1  0  0  0  0
  8  7  1  0  0  0  0
  8  6  1  0  0  0  0
 10  7  1  0  0  0  0
 13  6  1  0  0  0  0
 13 14  2  0  0  0  0
 15 16  1  0  0  0  0
 15 21  1  0  0  0  0
 16 13  1  0  0  0  0
 17 16  2  0  0  0  0
 18 19  2  0  0  0  0
 18 17  1  0  0  0  0
 19 20  1  0  0  0  0
 20 15  2  0  0  0  0
 22 17  1  0  0  0  0
 23 19  1  0  0  0  0
 24  2  1  0  0  0  0
 25 24  1  0  0  0  0
 26 25  1  0  0  0  0
 26 31  1  0  0  0  0
 27 26  2  0  0  0  0
 28 29  2  0  0  0  0
 28 27  1  0  0  0  0
 29 30  1  0  0  0  0
 30 25  2  0  0  0  0
 32 27  1  0  0  0  0
 33 34  1  0  0  0  0
 33 29  1  0  0  0  0
 34 38  1  0  0  0  0
 34 35  1  0  0  0  0
 36 37  1  0  0  0  0
 36 34  1  0  0  0  0
 38 39  1  0  0  0  0
M  END
>  <minimizedAffinity>
-5.21742773

$$$$

 OpenBabel03242512133D

 39 41  0  0  1  0  0  0  0  0999 V2000
   35.8270   30.5930   40.6330 O   0  0  0  0  0  0  0  0  0  0  0  0
   37.1850   29.9630   40.3640 P   0  0  2  0  0  0  0  0  0  0  0  0
   37.0550   28.4640   39.6850 O   0  0  0  0  0  0  0  0  0  0  0  0
   37.7950   27.8670   39.9830 H   0  0  0  0  0  0  0  0  0  0  0  0
   38.0550   30.0300   41.8120 O   0  0  0  0  0  0  0  0  0  0  0  0
   38.8640   28.1880   43.2360 C   0  0  1  0  0  0  0  0  0  0  0  0
   40.0520   29.0150   42.5950 C   0  0  0  0  0  0  0  0  0  0  0  0
   38.7880   28.8640   41.9180 C   0  0  2  0  0  0  0  0  0  0  0  0
   38.4080   28.6770   44.0930 H   0  0  0  0  0  0  0  0  0  0  0  0
   40.9500   28.4330   42.3110 H   0  0  0  0  0  0  0  0  0  0  0  0
   40.3290   29.9200   43.1820 H   0  0  0  0  0  0  0  0  0  0  0  0
   38.6100   28.1660   41.0790 H   0  0  0  0  0  0  0  0  0  0  0  0
   39.1870   26.7330   43.3010 C   0  0  0  0  0  0  0  0  0  0  0  0
   39.9300   26.3630   44.2040 O   0  0  0  0  0  0  0  0  0  0  0  0
   39.4690   24.9560   41.6370 C   0  0  0  0  0  0  0  0  0  0  0  0
   38.7030   25.7480   42.4050 C   0  0  0  0  0  0  0  0  0  0  0  0
   37.2860   25.5590   42.2880 C   0  0  0  0  0  0  0  0  0  0  0  0
   36.7720   24.6320   41.4480 N   0  0  0  0  0  0  0  0  0  0  0  0
   37.6080   23.8640   40.6990 C   0  0  0  0  0  0  0  0  0  0  0  0
   38.9080   24.0260   40.7950 N   0  0  0  0  0  0  0  0  0  0  0  0
   40.5520   25.1040   41.7290 H   0  0  0  0  0  0  0  0  0  0  0  0
   36.5530   26.0960   42.8280 H   0  0  0  0  0  0  0  0  0  0  0  0
   37.1860   23.1260   40.0310 H   0  0  0  0  0  0  0  0  0  0  0  0
   37.9400   31.0820   39.2680 O   0  0  0  0  0  0  0  0  0  0  0  0
   38.4700   32.2940   39.6490 C   0  0  0  0  0  0  0  0  0  0  0  0
   37.8300   33.5130   39.8300 C   0  0  0  0  0  0  0  0  0  0  0  0
   38.5480   34.6200   40.2200 C   0  0  0  0  0  0  0  0  0  0  0  0
   39.8870   34.5040   40.4230 N   0  0  0  0  0  0  0  0  0  0  0  0
   40.5130   33.3230   40.2480 C   0  0  0  0  0  0  0  0  0  0  0  0
   39.8040   32.2130   39.8600 N   0  0  0  0  0  0  0  0  0  0  0  0
   36.7630   33.4690   39.6350 H   0  0  0  0  0  0  0  0  0  0  0  0
   37.9920   35.5440   40.3460 H   0  0  0  0  0  0  0  0  0  0  0  0
   41.9840   33.2350   40.4810 C   0  0  0  0  0  2  0  0  0  0  0  0
   42.3400   33.3840   41.8570 N   0  0  0  0  0  4  0  0  0  0  0  0
   41.5110   33.6670   42.4270 H   0  0  0  0  0  0  0  0  0  0  0  0
   43.3640   34.3800   42.0840 C   0  0  0  0  0  2  0  0  0  0  0  0
   43.5190   34.4600   43.1800 H   0  0  0  0  0  0  0  0  0  0  0  0
   42.7760   32.1040   42.4300 C   0  0  0  0  0  2  0  0  0  0  0  0
   42.4080   31.9390   43.4440 H   0  0  0  0  0  0  0  0  0  0  0  0
  2  1  2  1  0  0  0
  2  5  1  0  0  0  0
  3  4  1  0  0  0  0
  3  2  1  0  0  0  0
  5  8  1  0  0  0  0
  6 13  1  0  0  0  0
  6  9  1  1  0  0  0
  7 11  1  0  0  0  0
  7  6  1  0  0  0  0
  8 12  1  6  0  0  0
  8  7  1  0  0  0  0
  8  6  1  0  0  0  0
 10  7  1  0  0  0  0
 13 14  2  0  0  0  0
 15 21  1  0  0  0  0
 15 16  1  0  0  0  0
 16 13  1  0  0  0  0
 17 16  2  0  0  0  0
 17 22  1  0  0  0  0
 18 17  1  0  0  0  0
 19 20  1  0  0  0  0
 19 18  2  0  0  0  0
 20 15  2  0  0  0  0
 23 19  1  0  0  0  0
 24 25  1  0  0  0  0
 24  2  1  0  0  0  0
 25 26  2  0  0  0  0
 25 30  1  0  0  0  0
 26 27  1  0  0  0  0
 27 32  1  0  0  0  0
 27 28  2  0  0  0  0
 29 28  1  0  0  0  0
 29 33  1  0  0  0  0
 30 29  2  0  0  0  0
 31 26  1  0  0  0  0
 33 34  1  0  0  0  0
 34 36  1  0  0  0  0
 34 35  1  0  0  0  0
 34 38  1  0  0  0  0
 36 37  1  0  0  0  0
 38 39  1  0  0  0  0
M  END
>  <minimizedAffinity>
-5.20338488

$$$$
