
 OpenBabel03242518123D

 29 30  0  0  0  0  0  0  0  0999 V2000
   49.0630   34.5500   42.4500 C   0  0  0  0  0  0  0  0  0  0  0  0
   49.9090   35.2190   42.7150 H   0  0  0  0  0  0  0  0  0  0  0  0
   48.6170   34.2240   43.4180 H   0  0  0  0  0  0  0  0  0  0  0  0
   49.5630   33.4530   41.6850 C   0  0  0  0  0  0  0  0  0  0  0  0
   49.1590   32.7030   40.5300 C   0  0  0  0  0  0  0  0  0  0  0  0
   49.9570   31.6870   40.0890 C   0  0  0  0  0  0  0  0  0  0  0  0
   51.1820   31.4180   40.8230 C   0  0  0  0  0  0  0  0  0  0  0  0
   51.1940   32.6360   42.1600 S   0  0  0  0  0  0  0  0  0  0  0  0
   48.2310   33.0200   40.1010 H   0  0  0  0  0  0  0  0  0  0  0  0
   49.6900   31.1010   39.2270 H   0  0  0  0  0  0  0  0  0  0  0  0
   52.1280   30.4220   40.5270 C   0  0  0  0  0  2  0  0  0  0  0  0
   52.0030   29.2850   41.3750 N   0  0  0  0  0  4  0  0  0  0  0  0
   52.3190   28.4250   40.8700 H   0  0  0  0  0  0  0  0  0  0  0  0
   50.6820   29.0860   41.9260 C   0  0  0  0  0  2  0  0  0  0  0  0
   50.0610   28.5160   41.2060 H   0  0  0  0  0  0  0  0  0  0  0  0
   52.9290   29.4050   42.5050 C   0  0  0  0  0  2  0  0  0  0  0  0
   53.9620   29.5470   42.0860 H   0  0  0  0  0  0  0  0  0  0  0  0
   48.0350   35.4120   41.7550 C   0  0  0  0  0  0  0  0  0  0  0  0
   48.0960   36.4590   42.1490 H   0  0  0  0  0  0  0  0  0  0  0  0
   48.2640   35.4420   40.6960 H   0  0  0  0  0  0  0  0  0  0  0  0
   46.7100   34.8710   42.0250 C   0  0  0  0  0  0  0  0  0  0  0  0
   46.1900   34.7820   43.3030 C   0  0  0  0  0  0  0  0  0  0  0  0
   44.9140   34.2500   43.4750 C   0  0  0  0  0  0  0  0  0  0  0  0
   44.2480   33.8450   42.3710 N   0  0  0  0  0  0  0  0  0  0  0  0
   44.7580   33.9340   41.1420 C   0  0  0  0  0  0  0  0  0  0  0  0
   45.9630   34.4390   41.0000 N   0  0  0  0  0  0  0  0  0  0  0  0
   46.7680   35.1240   44.1590 H   0  0  0  0  0  0  0  0  0  0  0  0
   44.4810   34.1710   44.4800 H   0  0  0  0  0  0  0  0  0  0  0  0
   44.1940   33.5990   40.2820 H   0  0  0  0  0  0  0  0  0  0  0  0
  1  2  1  0  0  0  0
  1  3  1  0  0  0  0
  4  8  1  0  0  0  0
  4  1  1  0  0  0  0
  5  4  2  0  0  0  0
  6  5  1  0  0  0  0
  6  7  2  0  0  0  0
  7  8  1  0  0  0  0
  9  5  1  0  0  0  0
 10  6  1  0  0  0  0
 11  7  1  0  0  0  0
 11 12  1  0  0  0  0
 12 14  1  0  0  0  0
 12 16  1  0  0  0  0
 13 12  1  0  0  0  0
 15 14  1  0  0  0  0
 17 16  1  0  0  0  0
 18 21  1  0  0  0  0
 18 19  1  0  0  0  0
 18  1  1  0  0  0  0
 20 18  1  0  0  0  0
 21 22  1  0  0  0  0
 22 23  2  0  0  0  0
 22 27  1  0  0  0  0
 23 28  1  0  0  0  0
 24 23  1  0  0  0  0
 25 24  2  0  0  0  0
 26 25  1  0  0  0  0
 26 21  2  0  0  0  0
 29 25  1  0  0  0  0
M  END
>  <minimizedAffinity>
-3.25511599

>  <minimizedRMSD>
0.496381044

$$$$
