
 OpenBabel03252503123D

 32 34  0  0  0  0  0  0  0  0999 V2000
   45.1780   36.1060   43.3630 C   0  0  0  0  0  0  0  0  0  0  0  0
   45.8120   34.8900   43.0610 C   0  0  0  0  0  0  0  0  0  0  0  0
   45.8040   33.9450   44.0760 C   0  0  0  0  0  0  0  0  0  0  0  0
   45.2280   34.1840   45.2630 N   0  0  0  0  0  0  0  0  0  0  0  0
   44.6250   35.3790   45.5110 C   0  0  0  0  0  0  0  0  0  0  0  0
   44.6040   36.3280   44.5650 N   0  0  0  0  0  0  0  0  0  0  0  0
   45.1490   36.8950   42.6060 H   0  0  0  0  0  0  0  0  0  0  0  0
   44.1640   35.5830   46.4470 H   0  0  0  0  0  0  0  0  0  0  0  0
   46.4200   32.7050   43.8490 C   0  0  0  0  0  0  0  0  0  0  0  0
   47.7080   32.2500   43.9200 C   0  0  0  0  0  0  0  0  0  0  0  0
   48.0330   30.9920   43.6460 C   0  0  0  0  0  0  0  0  0  0  0  0
   47.0210   30.1550   43.2840 C   0  0  0  0  0  0  0  0  0  0  0  0
   45.5290   31.2490   43.3470 S   0  0  0  0  0  0  0  0  0  0  0  0
   48.4530   33.0140   44.2240 H   0  0  0  0  0  0  0  0  0  0  0  0
   49.0280   30.5660   43.6810 H   0  0  0  0  0  0  0  0  0  0  0  0
   47.0020   29.1030   43.0110 H   0  0  0  0  0  0  0  0  0  0  0  0
   46.4030   34.7000   41.7790 C   0  0  0  0  0  0  0  0  0  0  0  0
   47.5680   35.1690   41.6300 O   0  0  0  0  0  0  0  0  0  0  0  0
   45.6480   33.9770   40.6990 C   0  0  0  0  0  0  0  0  0  0  0  0
   44.3080   34.1300   40.3940 C   0  0  0  0  0  0  0  0  0  0  0  0
   44.0790   33.2900   39.3680 N   0  0  0  0  0  0  0  0  0  0  0  0
   45.2450   32.6470   39.0600 C   0  0  0  0  0  0  0  0  0  0  0  0
   46.2160   33.0740   39.8850 N   0  0  0  0  0  0  0  0  0  0  0  0
   43.5950   34.7960   40.8890 H   0  0  0  0  0  0  0  0  0  0  0  0
   43.1470   33.1810   38.9150 H   0  0  0  0  0  0  0  0  0  0  0  0
   45.2830   31.6440   37.9440 C   0  0  0  0  0  2  0  0  0  0  0  0
   44.5210   32.0750   36.8040 N   0  0  0  0  0  4  0  0  0  0  0  0
   43.9740   32.9310   37.0760 H   0  0  0  0  0  0  0  0  0  0  0  0
   45.4190   32.4990   35.7420 C   0  0  0  0  0  2  0  0  0  0  0  0
   45.8040   33.5060   36.0430 H   0  0  0  0  0  0  0  0  0  0  0  0
   43.5460   31.1170   36.3410 C   0  0  0  0  0  2  0  0  0  0  0  0
   42.8620   30.9320   37.2000 H   0  0  0  0  0  0  0  0  0  0  0  0
  1  6  1  0  0  0  0
  2  1  2  0  0  0  0
  2  3  1  0  0  0  0
  3  4  2  0  0  0  0
  4  5  1  0  0  0  0
  5  8  1  0  0  0  0
  6  5  2  0  0  0  0
  7  1  1  0  0  0  0
  9 10  2  0  0  0  0
  9  3  1  0  0  0  0
 10 14  1  0  0  0  0
 11 15  1  0  0  0  0
 11 10  1  0  0  0  0
 12 13  1  0  0  0  0
 12 11  2  0  0  0  0
 13  9  1  0  0  0  0
 16 12  1  0  0  0  0
 17  2  1  0  0  0  0
 18 17  2  0  0  0  0
 19 17  1  0  0  0  0
 20 19  2  0  0  0  0
 20 24  1  0  0  0  0
 21 20  1  0  0  0  0
 22 21  1  0  0  0  0
 22 23  2  0  0  0  0
 23 19  1  0  0  0  0
 25 21  1  0  0  0  0
 26 22  1  0  0  0  0
 27 28  1  0  0  0  0
 27 26  1  0  0  0  0
 29 30  1  0  0  0  0
 29 27  1  0  0  0  0
 31 27  1  0  0  0  0
 31 32  1  0  0  0  0
M  END
>  <minimizedAffinity>
-4.3458066

>  <minimizedRMSD>
0.379009306

$$$$
