
 OpenBabel03242516133D

 39 41  0  0  0  0  0  0  0  0999 V2000
   48.0770   34.5860   41.7300 C   0  0  0  0  0  0  0  0  0  0  0  0
   48.9050   35.8340   41.4280 C   0  0  0  0  0  0  0  0  0  0  0  0
   49.4820   34.6710   42.1110 C   0  0  0  0  0  0  0  0  0  0  0  0
   48.6390   36.7090   42.0530 H   0  0  0  0  0  0  0  0  0  0  0  0
   49.0990   36.0960   40.3810 H   0  0  0  0  0  0  0  0  0  0  0  0
   50.2780   34.1130   41.5380 H   0  0  0  0  0  0  0  0  0  0  0  0
   49.7990   34.8310   43.1520 H   0  0  0  0  0  0  0  0  0  0  0  0
   47.6990   33.7980   40.5080 C   0  0  0  0  0  0  0  0  0  0  0  0
   48.1580   34.4050   39.2000 C   0  0  0  0  0  0  0  0  0  0  0  0
   47.7850   33.3910   38.1240 C   0  0  0  0  0  0  0  0  0  0  0  0
   46.4030   33.4380   37.9700 O   0  0  0  0  0  0  0  0  0  0  0  0
   45.9220   32.8060   39.1430 C   0  0  0  0  0  0  0  0  0  0  0  0
   46.1770   33.7340   40.3290 C   0  0  0  0  0  0  0  0  0  0  0  0
   48.1110   32.7830   40.6240 H   0  0  0  0  0  0  0  0  0  0  0  0
   47.6430   35.3350   38.9640 H   0  0  0  0  0  0  0  0  0  0  0  0
   49.2710   34.4810   39.1670 H   0  0  0  0  0  0  0  0  0  0  0  0
   48.3300   33.5650   37.1820 H   0  0  0  0  0  0  0  0  0  0  0  0
   48.1000   32.3950   38.5220 H   0  0  0  0  0  0  0  0  0  0  0  0
   46.5060   31.8800   39.3470 H   0  0  0  0  0  0  0  0  0  0  0  0
   44.8470   32.5640   39.0470 H   0  0  0  0  0  0  0  0  0  0  0  0
   45.6550   33.3800   41.2170 H   0  0  0  0  0  0  0  0  0  0  0  0
   45.8840   34.7430   39.9850 H   0  0  0  0  0  0  0  0  0  0  0  0
   46.1430   35.7950   42.7530 C   0  0  0  0  0  0  0  0  0  0  0  0
   47.0230   34.7160   42.7860 C   0  0  0  0  0  0  0  0  0  0  0  0
   46.8810   33.7900   43.8420 C   0  0  0  0  0  0  0  0  0  0  0  0
   45.9100   33.9930   44.7590 N   0  0  0  0  0  0  0  0  0  0  0  0
   45.0950   35.0530   44.6710 C   0  0  0  0  0  0  0  0  0  0  0  0
   45.1870   35.9540   43.6930 N   0  0  0  0  0  0  0  0  0  0  0  0
   44.0540   35.3070   45.6120 N   0  0  0  0  0  0  0  0  0  0  0  0
   46.2760   36.4880   41.9310 H   0  0  0  0  0  0  0  0  0  0  0  0
   44.1930   35.6510   46.5820 H   0  0  0  0  0  0  0  0  0  0  0  0
   43.0230   35.1690   45.4160 H   0  0  0  0  0  0  0  0  0  0  0  0
   47.7250   32.6000   43.9660 C   0  0  0  0  0  2  0  0  0  0  0  0
   47.4130   31.4870   43.1300 N   0  0  0  0  0  4  0  0  0  0  0  0
   47.7620   31.6030   42.1530 H   0  0  0  0  0  0  0  0  0  0  0  0
   48.1850   30.3340   43.6360 C   0  0  0  0  0  2  0  0  0  0  0  0
   48.2670   29.5350   42.8860 H   0  0  0  0  0  0  0  0  0  0  0  0
   46.0560   31.0690   43.0610 C   0  0  0  0  0  2  0  0  0  0  0  0
   46.0670   29.9670   42.7940 H   0  0  0  0  0  0  0  0  0  0  0  0
  1  3  1  0  0  0  0
  1 24  1  0  0  0  0
  2  1  1  0  0  0  0
  2  4  1  0  0  0  0
  2  3  1  0  0  0  0
  3  7  1  0  0  0  0
  5  2  1  0  0  0  0
  6  3  1  0  0  0  0
  8 14  1  0  0  0  0
  8  1  1  0  0  0  0
  9  8  1  0  0  0  0
 10 18  1  0  0  0  0
 10  9  1  0  0  0  0
 11 10  1  0  0  0  0
 11 12  1  0  0  0  0
 12 19  1  0  0  0  0
 12 13  1  0  0  0  0
 13  8  1  0  0  0  0
 13 21  1  0  0  0  0
 15  9  1  0  0  0  0
 16  9  1  0  0  0  0
 17 10  1  0  0  0  0
 20 12  1  0  0  0  0
 22 13  1  0  0  0  0
 23 24  2  0  0  0  0
 23 28  1  0  0  0  0
 24 25  1  0  0  0  0
 25 33  1  0  0  0  0
 25 26  2  0  0  0  0
 27 26  1  0  0  0  0
 27 29  1  0  0  0  0
 28 27  2  0  0  0  0
 29 31  1  0  0  0  0
 30 23  1  0  0  0  0
 32 29  1  0  0  0  0
 34 36  1  0  0  0  0
 34 33  1  0  0  0  0
 35 34  1  0  0  0  0
 37 36  1  0  0  0  0
 38 34  1  0  0  0  0
 39 38  1  0  0  0  0
M  END
>  <minimizedAffinity>
-5.2845192

>  <minimizedRMSD>
0.445874751

$$$$
