
 OpenBabel03252503123D

 32 34  0  0  0  0  0  0  0  0999 V2000
   45.1760   36.1010   43.3500 C   0  0  0  0  0  0  0  0  0  0  0  0
   45.8070   34.8840   43.0490 C   0  0  0  0  0  0  0  0  0  0  0  0
   45.8020   33.9410   44.0670 C   0  0  0  0  0  0  0  0  0  0  0  0
   45.2300   34.1830   45.2540 N   0  0  0  0  0  0  0  0  0  0  0  0
   44.6290   35.3790   45.5010 C   0  0  0  0  0  0  0  0  0  0  0  0
   44.6050   36.3260   44.5540 N   0  0  0  0  0  0  0  0  0  0  0  0
   45.1440   36.8880   42.5920 H   0  0  0  0  0  0  0  0  0  0  0  0
   44.1710   35.5850   46.4390 H   0  0  0  0  0  0  0  0  0  0  0  0
   46.4170   32.7000   43.8400 C   0  0  0  0  0  0  0  0  0  0  0  0
   47.7030   32.2440   43.9100 C   0  0  0  0  0  0  0  0  0  0  0  0
   48.0270   30.9840   43.6370 C   0  0  0  0  0  0  0  0  0  0  0  0
   47.0130   30.1480   43.2770 C   0  0  0  0  0  0  0  0  0  0  0  0
   45.5230   31.2450   43.3410 S   0  0  0  0  0  0  0  0  0  0  0  0
   48.4500   33.0070   44.2130 H   0  0  0  0  0  0  0  0  0  0  0  0
   49.0210   30.5570   43.6720 H   0  0  0  0  0  0  0  0  0  0  0  0
   46.9930   29.0960   43.0060 H   0  0  0  0  0  0  0  0  0  0  0  0
   46.3950   34.6900   41.7660 C   0  0  0  0  0  0  0  0  0  0  0  0
   47.5590   35.1580   41.6120 O   0  0  0  0  0  0  0  0  0  0  0  0
   45.6360   33.9650   40.6900 C   0  0  0  0  0  0  0  0  0  0  0  0
   44.2950   34.1170   40.3890 C   0  0  0  0  0  0  0  0  0  0  0  0
   44.0620   33.2750   39.3660 N   0  0  0  0  0  0  0  0  0  0  0  0
   45.2270   32.6320   39.0550 C   0  0  0  0  0  0  0  0  0  0  0  0
   46.2010   33.0610   39.8750 N   0  0  0  0  0  0  0  0  0  0  0  0
   43.5830   34.7840   40.8860 H   0  0  0  0  0  0  0  0  0  0  0  0
   43.1280   33.1650   38.9170 H   0  0  0  0  0  0  0  0  0  0  0  0
   45.2610   31.6270   37.9410 C   0  0  0  0  0  2  0  0  0  0  0  0
   44.5130   32.0650   36.7950 N   0  0  0  0  0  4  0  0  0  0  0  0
   43.9570   32.9160   37.0670 H   0  0  0  0  0  0  0  0  0  0  0  0
   45.4230   32.5050   35.7500 C   0  0  0  0  0  2  0  0  0  0  0  0
   45.7990   33.5110   36.0660 H   0  0  0  0  0  0  0  0  0  0  0  0
   43.5500   31.1070   36.3080 C   0  0  0  0  0  2  0  0  0  0  0  0
   42.8550   30.9090   37.1550 H   0  0  0  0  0  0  0  0  0  0  0  0
  1  6  1  0  0  0  0
  2  1  2  0  0  0  0
  2  3  1  0  0  0  0
  3  4  2  0  0  0  0
  4  5  1  0  0  0  0
  5  8  1  0  0  0  0
  6  5  2  0  0  0  0
  7  1  1  0  0  0  0
  9 10  2  0  0  0  0
  9  3  1  0  0  0  0
 10 14  1  0  0  0  0
 11 15  1  0  0  0  0
 11 10  1  0  0  0  0
 12 13  1  0  0  0  0
 12 11  2  0  0  0  0
 13  9  1  0  0  0  0
 16 12  1  0  0  0  0
 17  2  1  0  0  0  0
 18 17  2  0  0  0  0
 19 17  1  0  0  0  0
 20 19  2  0  0  0  0
 20 24  1  0  0  0  0
 21 20  1  0  0  0  0
 22 21  1  0  0  0  0
 22 23  2  0  0  0  0
 23 19  1  0  0  0  0
 25 21  1  0  0  0  0
 26 22  1  0  0  0  0
 27 28  1  0  0  0  0
 27 26  1  0  0  0  0
 29 30  1  0  0  0  0
 29 27  1  0  0  0  0
 31 27  1  0  0  0  0
 31 32  1  0  0  0  0
M  END
>  <minimizedAffinity>
-4.34214735

>  <minimizedRMSD>
0.442463279

$$$$
