
 OpenBabel03252500243D

 35 36  0  0  1  0  0  0  0  0999 V2000
   47.0480   30.5760   48.2430 C   0  0  2  0  0  0  0  0  0  0  0  0
   45.6180   30.8750   48.4850 C   0  0  2  0  0  0  0  0  0  0  0  0
   44.9010   29.9580   47.5650 C   0  0  0  0  0  0  0  0  0  0  0  0
   45.6830   28.8320   47.3990 O   0  0  0  0  0  0  0  0  0  0  0  0
   46.8970   29.0560   47.9630 C   0  0  0  0  0  0  0  0  0  0  0  0
   47.6160   30.8810   47.4140 H   0  0  0  0  0  0  0  0  0  0  0  0
   45.4410   30.5540   49.5480 H   0  0  0  0  0  0  0  0  0  0  0  0
   44.0010   29.5590   48.1280 H   0  0  0  0  0  0  0  0  0  0  0  0
   44.4390   30.3750   46.6710 H   0  0  0  0  0  0  0  0  0  0  0  0
   46.9440   28.6170   48.9990 H   0  0  0  0  0  0  0  0  0  0  0  0
   47.7330   28.6500   47.4010 H   0  0  0  0  0  0  0  0  0  0  0  0
   45.2950   32.1970   48.2810 O   0  0  0  0  0  0  0  0  0  0  0  0
   47.2210   32.9420   46.7510 O   0  0  0  0  0  0  0  0  0  0  0  0
   45.7420   32.6720   46.7530 P   0  0  1  0  0  0  0  0  0  0  0  0
   45.4210   31.4190   45.6580 O   0  0  0  0  0  0  0  0  0  0  0  0
   44.7100   31.6610   45.0390 H   0  0  0  0  0  0  0  0  0  0  0  0
   44.9830   34.1270   46.2720 O   0  0  0  0  0  0  0  0  0  0  0  0
   44.9740   36.3970   43.5100 C   0  0  0  0  0  0  0  0  0  0  0  0
   45.0290   35.5530   42.3660 C   0  0  0  0  0  0  0  0  0  0  0  0
   45.0710   34.1690   42.6010 C   0  0  0  0  0  0  0  0  0  0  0  0
   45.0550   33.7300   43.8750 N   0  0  0  0  0  0  0  0  0  0  0  0
   45.0010   34.5630   44.9370 C   0  0  0  0  0  0  0  0  0  0  0  0
   44.9600   35.8950   44.7450 N   0  0  0  0  0  0  0  0  0  0  0  0
   45.0410   35.9370   41.3600 H   0  0  0  0  0  0  0  0  0  0  0  0
   45.1150   33.4560   41.7840 H   0  0  0  0  0  0  0  0  0  0  0  0
   44.9340   37.7480   43.2780 O   0  0  0  0  0  0  0  0  0  0  0  0
   45.7190   38.2130   42.8630 H   0  0  0  0  0  0  0  0  0  0  0  0
   47.8800   30.7980   49.3000 O   0  0  0  0  0  0  0  0  0  0  0  0
   49.0280   31.4330   49.2550 C   0  0  0  0  0  2  0  0  0  0  0  0
   50.1820   30.5440   49.5120 N   0  0  0  0  0  4  0  0  0  0  0  0
   50.3070   29.8490   48.7710 H   0  0  0  0  0  0  0  0  0  0  0  0
   51.4080   31.3580   49.5450 C   0  0  0  0  0  2  0  0  0  0  0  0
   51.1830   32.2370   48.8760 H   0  0  0  0  0  0  0  0  0  0  0  0
   50.1040   29.9130   50.8040 C   0  0  0  0  0  2  0  0  0  0  0  0
   49.5450   28.9780   50.8340 H   0  0  0  0  0  0  0  0  0  0  0  0
  1  6  1  6  0  0  0
  1  2  1  0  0  0  0
  1 28  1  0  0  0  0
  2  7  1  1  0  0  0
  3  8  1  0  0  0  0
  3  2  1  0  0  0  0
  4  3  1  0  0  0  0
  4  5  1  0  0  0  0
  5  1  1  0  0  0  0
  5 10  1  0  0  0  0
  9  3  1  0  0  0  0
 11  5  1  0  0  0  0
 12  2  1  0  0  0  0
 14 13  2  1  0  0  0
 14 12  1  0  0  0  0
 15 14  1  0  0  0  0
 16 15  1  0  0  0  0
 17 14  1  0  0  0  0
 18 23  1  0  0  0  0
 19 20  1  0  0  0  0
 19 18  2  0  0  0  0
 20 21  2  0  0  0  0
 21 22  1  0  0  0  0
 22 17  1  0  0  0  0
 23 22  2  0  0  0  0
 24 19  1  0  0  0  0
 25 20  1  0  0  0  0
 26 18  1  0  0  0  0
 27 26  1  0  0  0  0
 29 28  1  0  0  0  0
 29 30  1  0  0  0  0
 30 32  1  0  0  0  0
 30 34  1  0  0  0  0
 31 30  1  0  0  0  0
 33 32  1  0  0  0  0
 34 35  1  0  0  0  0
M  END
>  <minimizedAffinity>
-4.90206432

>  <minimizedRMSD>
1.07846487

$$$$
