
 OpenBabel03252507193D

 42 44  0  0  1  0  0  0  0  0999 V2000
   46.8370   33.2470   43.4100 C   0  0  0  0  0  0  0  0  0  0  0  0
   48.0470   33.0950   43.7840 O   0  0  0  0  0  0  0  0  0  0  0  0
   46.2900   32.6090   42.2290 N   0  0  0  0  0  0  0  0  0  0  0  0
   45.0270   31.9210   42.0190 C   0  0  0  0  0  0  0  0  0  0  0  0
   44.3410   32.5310   40.7960 C   0  0  0  0  0  0  0  0  0  0  0  0
   45.1710   32.2790   39.5620 C   0  0  0  0  0  0  0  0  0  0  0  0
   46.5540   31.8440   39.9610 C   0  0  0  0  0  0  0  0  0  0  0  0
   47.1570   32.6680   41.0460 C   0  0  1  0  0  0  0  0  0  0  0  0
   44.3680   32.2320   42.8810 H   0  0  0  0  0  0  0  0  0  0  0  0
   45.1300   30.8410   41.9220 H   0  0  0  0  0  0  0  0  0  0  0  0
   44.3260   33.6390   41.0040 H   0  0  0  0  0  0  0  0  0  0  0  0
   43.3060   32.1730   40.7020 H   0  0  0  0  0  0  0  0  0  0  0  0
   44.7020   31.3920   39.0620 H   0  0  0  0  0  0  0  0  0  0  0  0
   45.1500   33.0900   38.8370 H   0  0  0  0  0  0  0  0  0  0  0  0
   47.1950   31.8580   39.0720 H   0  0  0  0  0  0  0  0  0  0  0  0
   46.5300   30.7870   40.3340 H   0  0  0  0  0  0  0  0  0  0  0  0
   48.0750   32.1460   41.3910 H   0  0  0  0  0  0  0  0  0  0  0  0
   45.4820   35.2570   43.6170 C   0  0  0  0  0  0  0  0  0  0  0  0
   45.9780   34.0830   44.1890 C   0  0  0  0  0  0  0  0  0  0  0  0
   45.6270   33.7560   45.4860 C   0  0  0  0  0  0  0  0  0  0  0  0
   44.8100   34.5980   46.1560 N   0  0  0  0  0  0  0  0  0  0  0  0
   44.3250   35.7420   45.6040 C   0  0  0  0  0  0  0  0  0  0  0  0
   44.6710   36.0530   44.3400 N   0  0  0  0  0  0  0  0  0  0  0  0
   45.7000   35.5830   42.6290 H   0  0  0  0  0  0  0  0  0  0  0  0
   43.6720   36.3810   46.1870 H   0  0  0  0  0  0  0  0  0  0  0  0
   46.1510   32.5390   46.0720 C   0  0  0  0  0  0  0  0  0  0  0  0
   45.7020   31.3260   45.6430 C   0  0  0  0  0  0  0  0  0  0  0  0
   46.2100   30.1790   46.2100 C   0  0  0  0  0  0  0  0  0  0  0  0
   47.1760   30.2040   47.2150 C   0  0  0  0  0  0  0  0  0  0  0  0
   47.5930   31.4630   47.6070 C   0  0  0  0  0  0  0  0  0  0  0  0
   47.0760   32.5600   47.0340 N   0  0  0  0  0  0  0  0  0  0  0  0
   44.9620   31.1420   44.8860 H   0  0  0  0  0  0  0  0  0  0  0  0
   45.8940   29.1830   45.9140 H   0  0  0  0  0  0  0  0  0  0  0  0
   47.5580   29.2890   47.6430 H   0  0  0  0  0  0  0  0  0  0  0  0
   48.3330   31.5250   48.3770 H   0  0  0  0  0  0  0  0  0  0  0  0
   47.5250   34.0640   40.6910 C   0  0  0  0  0  0  0  0  0  0  0  0
   48.9540   34.2280   40.7300 N   0  0  0  0  0  0  0  0  0  0  0  0
   49.2940   34.5430   39.8000 H   0  0  0  0  0  0  0  0  0  0  0  0
   49.6490   33.0250   41.0870 C   0  0  0  0  0  0  0  0  0  0  0  0
   50.7420   33.2910   41.0580 H   0  0  0  0  0  0  0  0  0  0  0  0
   49.3530   35.2440   41.6990 C   0  0  0  0  0  0  0  0  0  0  0  0
   50.4240   35.0550   41.9240 H   0  0  0  0  0  0  0  0  0  0  0  0
  1  2  2  0  0  0  0
  1 19  1  0  0  0  0
  3  1  1  0  0  0  0
  4  3  1  0  0  0  0
  4  9  1  0  0  0  0
  5 11  1  0  0  0  0
  5  4  1  0  0  0  0
  6  7  1  0  0  0  0
  6  5  1  0  0  0  0
  7 16  1  0  0  0  0
  7  8  1  0  0  0  0
  8 17  1  1  0  0  0
  8  3  1  0  0  0  0
 10  4  1  0  0  0  0
 12  5  1  0  0  0  0
 13  6  1  0  0  0  0
 14  6  1  0  0  0  0
 15  7  1  0  0  0  0
 18 19  2  0  0  0  0
 18 23  1  0  0  0  0
 19 20  1  0  0  0  0
 20 26  1  0  0  0  0
 20 21  2  0  0  0  0
 22 21  1  0  0  0  0
 22 25  1  0  0  0  0
 23 22  2  0  0  0  0
 24 18  1  0  0  0  0
 26 31  1  0  0  0  0
 27 26  2  0  0  0  0
 27 28  1  0  0  0  0
 28 29  2  0  0  0  0
 29 30  1  0  0  0  0
 29 34  1  0  0  0  0
 30 35  1  0  0  0  0
 31 30  2  0  0  0  0
 32 27  1  0  0  0  0
 33 28  1  0  0  0  0
 36 37  1  0  0  0  0
 36  8  1  0  0  0  0
 37 39  1  0  0  0  0
 37 41  1  0  0  0  0
 38 37  1  0  0  0  0
 40 39  1  0  0  0  0
 41 42  1  0  0  0  0
M  END
>  <minimizedAffinity>
-4.84982634

>  <minimizedRMSD>
1.29646373

$$$$
