
 OpenBabel03252501053D

 38 40  0  0  1  0  0  0  0  0999 V2000
   48.8380   32.4800   38.3760 O   0  0  0  0  0  0  0  0  0  0  0  0
   48.0940   33.8050   38.5330 P   0  0  2  0  0  0  0  0  0  0  0  0
   49.0210   34.9410   37.6810 O   0  0  0  0  0  0  0  0  0  0  0  0
   48.4990   35.7880   37.6730 H   0  0  0  0  0  0  0  0  0  0  0  0
   47.8170   34.1810   40.1000 O   0  0  0  0  0  0  0  0  0  0  0  0
   48.2380   35.5760   42.0330 C   0  0  1  0  0  0  0  0  0  0  0  0
   49.4700   34.7910   41.8770 C   0  0  0  0  0  0  0  0  0  0  0  0
   48.5670   35.1400   40.6790 C   0  0  1  0  0  0  0  0  0  0  0  0
   48.3190   36.6380   42.3120 H   0  0  0  0  0  0  0  0  0  0  0  0
   49.5170   33.6900   42.0890 H   0  0  0  0  0  0  0  0  0  0  0  0
   50.4730   35.2530   41.9170 H   0  0  0  0  0  0  0  0  0  0  0  0
   49.0780   35.8320   39.9840 H   0  0  0  0  0  0  0  0  0  0  0  0
   46.3170   33.0510   44.1050 C   0  0  0  0  0  0  0  0  0  0  0  0
   47.3780   33.7180   43.4990 C   0  0  0  0  0  0  0  0  0  0  0  0
   47.1080   34.8510   42.7080 C   0  0  0  0  0  0  0  0  0  0  0  0
   45.8220   35.2570   42.5600 N   0  0  0  0  0  0  0  0  0  0  0  0
   44.8050   34.5920   43.1590 C   0  0  0  0  0  0  0  0  0  0  0  0
   45.0490   33.4950   43.9280 N   0  0  0  0  0  0  0  0  0  0  0  0
   46.5330   32.1820   44.7110 H   0  0  0  0  0  0  0  0  0  0  0  0
   48.3720   33.3550   43.6480 H   0  0  0  0  0  0  0  0  0  0  0  0
   43.8070   34.9930   42.9830 H   0  0  0  0  0  0  0  0  0  0  0  0
   46.6550   33.6000   37.6930 O   0  0  0  0  0  0  0  0  0  0  0  0
   45.6250   32.7740   38.1150 C   0  0  0  0  0  0  0  0  0  0  0  0
   45.3860   31.4570   37.7660 C   0  0  0  0  0  0  0  0  0  0  0  0
   44.3200   30.7840   38.2740 C   0  0  0  0  0  0  0  0  0  0  0  0
   43.4430   31.3860   39.1500 C   0  0  0  0  0  0  0  0  0  0  0  0
   43.7170   32.7180   39.4800 C   0  0  0  0  0  0  0  0  0  0  0  0
   44.7890   33.3820   38.9630 N   0  0  0  0  0  0  0  0  0  0  0  0
   46.1130   31.0460   37.0750 H   0  0  0  0  0  0  0  0  0  0  0  0
   44.1930   29.7560   37.9590 H   0  0  0  0  0  0  0  0  0  0  0  0
   42.6070   30.8650   39.5520 H   0  0  0  0  0  0  0  0  0  0  0  0
   42.7740   33.3720   40.4250 C   0  0  0  0  0  2  0  0  0  0  0  0
   41.4980   33.7020   39.8710 N   0  0  0  0  0  4  0  0  0  0  0  0
   41.0770   32.9380   39.2960 H   0  0  0  0  0  0  0  0  0  0  0  0
   40.5710   33.8870   40.9790 C   0  0  0  0  0  2  0  0  0  0  0  0
   41.1380   34.0620   41.9320 H   0  0  0  0  0  0  0  0  0  0  0  0
   41.5300   34.9660   39.1590 C   0  0  0  0  0  2  0  0  0  0  0  0
   41.4960   35.7840   39.9300 H   0  0  0  0  0  0  0  0  0  0  0  0
  2  1  2  6  0  0  0
  2  5  1  0  0  0  0
  3  2  1  0  0  0  0
  4  3  1  0  0  0  0
  5  8  1  0  0  0  0
  6  9  1  1  0  0  0
  6 15  1  0  0  0  0
  7 11  1  0  0  0  0
  7  6  1  0  0  0  0
  7 10  1  0  0  0  0
  8 12  1  6  0  0  0
  8  7  1  0  0  0  0
  8  6  1  0  0  0  0
 13 19  1  0  0  0  0
 14 20  1  0  0  0  0
 14 13  2  0  0  0  0
 15 14  1  0  0  0  0
 16 15  2  0  0  0  0
 16 17  1  0  0  0  0
 17 18  2  0  0  0  0
 18 13  1  0  0  0  0
 21 17  1  0  0  0  0
 22 23  1  0  0  0  0
 22  2  1  0  0  0  0
 23 28  1  0  0  0  0
 24 23  2  0  0  0  0
 24 25  1  0  0  0  0
 25 26  2  0  0  0  0
 26 27  1  0  0  0  0
 26 31  1  0  0  0  0
 27 32  1  0  0  0  0
 28 27  2  0  0  0  0
 29 24  1  0  0  0  0
 30 25  1  0  0  0  0
 33 32  1  0  0  0  0
 33 35  1  0  0  0  0
 34 33  1  0  0  0  0
 35 36  1  0  0  0  0
 37 33  1  0  0  0  0
 37 38  1  0  0  0  0
M  END
>  <minimizedAffinity>
-4.60125828

>  <minimizedRMSD>
1.24733949

$$$$
