
 OpenBabel03252506173D

 21 21  0  0  0  0  0  0  0  0999 V2000
   44.7000   35.5890   43.6040 C   0  0  0  0  0  0  0  0  0  0  0  0
   43.9370   35.4790   42.4230 C   0  0  0  0  0  0  0  0  0  0  0  0
   43.7990   34.2080   41.8600 C   0  0  0  0  0  0  0  0  0  0  0  0
   44.3960   33.1560   42.4690 N   0  0  0  0  0  0  0  0  0  0  0  0
   45.1210   33.2950   43.6000 C   0  0  0  0  0  0  0  0  0  0  0  0
   45.2590   34.5030   44.1450 N   0  0  0  0  0  0  0  0  0  0  0  0
   43.5140   36.3700   42.0320 H   0  0  0  0  0  0  0  0  0  0  0  0
   43.2160   34.1160   40.9550 H   0  0  0  0  0  0  0  0  0  0  0  0
   44.8560   36.9120   44.2090 C   0  0  0  0  0  3  0  0  0  0  0  0
   45.2600   37.9150   43.4510 C   0  0  0  0  0  3  0  0  0  0  0  0
   45.4450   39.2850   43.9830 C   0  0  0  0  0  0  0  0  0  0  0  0
   46.4380   39.4070   44.4460 H   0  0  0  0  0  0  0  0  0  0  0  0
   44.6460   39.5320   44.7160 H   0  0  0  0  0  0  0  0  0  0  0  0
   45.3670   40.0220   43.1540 H   0  0  0  0  0  0  0  0  0  0  0  0
   45.6910   32.0440   44.1120 C   0  0  0  0  0  2  0  0  0  0  0  0
   47.0820   32.1480   44.5120 N   0  0  0  0  0  4  0  0  0  0  0  0
   47.2830   33.0950   44.9260 H   0  0  0  0  0  0  0  0  0  0  0  0
   47.2910   31.1040   45.4970 C   0  0  0  0  0  2  0  0  0  0  0  0
   46.7830   30.1860   45.0940 H   0  0  0  0  0  0  0  0  0  0  0  0
   47.9900   31.9360   43.4260 C   0  0  0  0  0  2  0  0  0  0  0  0
   47.5530   31.3560   42.5980 H   0  0  0  0  0  0  0  0  0  0  0  0
  1  6  1  0  0  0  0
  1  9  1  0  0  0  0
  2  1  2  0  0  0  0
  3  2  1  0  0  0  0
  3  4  2  0  0  0  0
  4  5  1  0  0  0  0
  5 15  1  0  0  0  0
  5  6  2  0  0  0  0
  7  2  1  0  0  0  0
  8  3  1  0  0  0  0
 10 11  1  0  0  0  0
 10  9  2  0  0  0  0
 11 12  1  0  0  0  0
 11 13  1  0  0  0  0
 14 11  1  0  0  0  0
 15 16  1  0  0  0  0
 16 17  1  0  0  0  0
 16 18  1  0  0  0  0
 19 18  1  0  0  0  0
 20 16  1  0  0  0  0
 21 20  1  0  0  0  0
M  END
>  <minimizedAffinity>
-2.83528376

>  <minimizedRMSD>
0.654661953

$$$$
