
 OpenBabel03242518393D

 37 39  0  0  1  0  0  0  0  0999 V2000
   47.6490   33.6600   39.4500 C   0  0  0  0  0  0  0  0  0  0  0  0
   48.4260   34.5170   38.6550 C   0  0  0  0  0  0  0  0  0  0  0  0
   48.0620   34.3460   37.3350 C   0  0  0  0  0  0  0  0  0  0  0  0
   47.0880   33.4030   37.3780 C   0  0  0  0  0  0  0  0  0  0  0  0
   46.8430   32.9960   38.6180 O   0  0  0  0  0  0  0  0  0  0  0  0
   49.1580   35.1580   39.1140 H   0  0  0  0  0  0  0  0  0  0  0  0
   48.4910   34.8710   36.5150 H   0  0  0  0  0  0  0  0  0  0  0  0
   46.3830   32.8900   36.1830 C   0  0  2  0  0  0  0  0  0  0  0  0
   46.2220   31.4520   35.9760 C   0  0  0  0  0  0  0  0  0  0  0  0
   47.3100   32.1100   35.2080 C   0  0  1  0  0  0  0  0  0  0  0  0
   45.7450   33.6590   35.7060 H   0  0  0  0  0  0  0  0  0  0  0  0
   46.4750   30.7350   36.7680 H   0  0  0  0  0  0  0  0  0  0  0  0
   45.2790   31.1570   35.4320 H   0  0  0  0  0  0  0  0  0  0  0  0
   48.3530   32.0020   35.5150 H   0  0  0  0  0  0  0  0  0  0  0  0
   48.0830   32.7280   32.9300 C   0  0  0  0  0  0  0  0  0  0  0  0
   49.2870   32.8290   33.3020 O   0  0  0  0  0  0  0  0  0  0  0  0
   47.0160   32.4030   33.8060 N   0  0  0  0  0  0  0  0  0  0  0  0
   47.7770   32.8880   31.8910 H   0  0  0  0  0  0  0  0  0  0  0  0
   46.0250   32.3660   33.4840 H   0  0  0  0  0  0  0  0  0  0  0  0
   47.6090   33.4310   40.8510 O   0  0  0  0  0  0  0  0  0  0  0  0
   47.6360   34.5550   41.7140 C   0  0  0  0  0  0  0  0  0  0  0  0
   48.3710   35.5140   41.3530 O   0  0  0  0  0  0  0  0  0  0  0  0
   46.8370   34.4730   42.8840 C   0  0  0  0  0  0  0  0  0  0  0  0
   45.6780   35.1780   42.8750 C   0  0  0  0  0  0  0  0  0  0  0  0
   44.8500   35.1380   43.9950 C   0  0  0  0  0  0  0  0  0  0  0  0
   45.2400   34.3960   45.0460 N   0  0  0  0  0  0  0  0  0  0  0  0
   46.3860   33.7110   45.0300 C   0  0  0  0  0  0  0  0  0  0  0  0
   47.1480   33.7750   43.9460 N   0  0  0  0  0  0  0  0  0  0  0  0
   45.3540   35.7770   42.0350 H   0  0  0  0  0  0  0  0  0  0  0  0
   43.9140   35.6880   44.0240 H   0  0  0  0  0  0  0  0  0  0  0  0
   46.6750   32.9440   46.2620 C   0  0  0  0  0  0  0  0  0  0  0  0
   45.5540   32.0630   46.5130 N   0  0  0  0  0  0  0  0  0  0  0  0
   44.7360   32.4850   46.0100 H   0  0  0  0  0  0  0  0  0  0  0  0
   45.8120   30.7160   46.0930 C   0  0  0  0  0  0  0  0  0  0  0  0
   45.0320   30.4270   45.3580 H   0  0  0  0  0  0  0  0  0  0  0  0
   45.2460   32.1550   47.9310 C   0  0  0  0  0  0  0  0  0  0  0  0
   44.1810   31.9090   48.0550 H   0  0  0  0  0  0  0  0  0  0  0  0
  1 20  1  0  0  0  0
  2  6  1  0  0  0  0
  2  1  2  0  0  0  0
  3  4  2  0  0  0  0
  3  2  1  0  0  0  0
  4  5  1  0  0  0  0
  5  1  1  0  0  0  0
  7  3  1  0  0  0  0
  8 11  1  6  0  0  0
  8  4  1  0  0  0  0
  9  8  1  0  0  0  0
  9 12  1  0  0  0  0
 10 14  1  1  0  0  0
 10  9  1  0  0  0  0
 10  8  1  0  0  0  0
 13  9  1  0  0  0  0
 15 16  2  0  0  0  0
 15 17  1  0  0  0  0
 17 10  1  0  0  0  0
 18 15  1  0  0  0  0
 19 17  1  0  0  0  0
 20 21  1  0  0  0  0
 21 23  1  0  0  0  0
 22 21  2  0  0  0  0
 23 28  1  0  0  0  0
 24 23  2  0  0  0  0
 24 25  1  0  0  0  0
 25 30  1  0  0  0  0
 25 26  2  0  0  0  0
 27 26  1  0  0  0  0
 27 31  1  0  0  0  0
 28 27  2  0  0  0  0
 29 24  1  0  0  0  0
 31 32  1  0  0  0  0
 32 36  1  0  0  0  0
 33 32  1  0  0  0  0
 34 32  1  0  0  0  0
 35 34  1  0  0  0  0
 36 37  1  0  0  0  0
M  END
>  <minimizedAffinity>
-5.38755274

>  <minimizedRMSD>
0.927232742

$$$$
