
 OpenBabel03252506173D

 21 21  0  0  0  0  0  0  0  0999 V2000
   44.9060   35.3580   44.0680 C   0  0  0  0  0  0  0  0  0  0  0  0
   44.4540   34.8360   42.8390 C   0  0  0  0  0  0  0  0  0  0  0  0
   44.6070   33.4640   42.6260 C   0  0  0  0  0  0  0  0  0  0  0  0
   45.1730   32.7110   43.5980 N   0  0  0  0  0  0  0  0  0  0  0  0
   45.5960   33.2420   44.7660 C   0  0  0  0  0  0  0  0  0  0  0  0
   45.4560   34.5500   44.9790 N   0  0  0  0  0  0  0  0  0  0  0  0
   44.0250   35.5180   42.1480 H   0  0  0  0  0  0  0  0  0  0  0  0
   44.2630   33.0560   41.6850 H   0  0  0  0  0  0  0  0  0  0  0  0
   44.7550   36.7930   44.3110 C   0  0  0  0  0  0  0  0  0  0  0  0
   45.4050   37.6410   43.5360 C   0  0  0  0  0  0  0  0  0  0  0  0
   45.3080   39.1090   43.7130 C   0  0  0  0  0  0  0  0  0  0  0  0
   46.0150   39.4700   44.4790 H   0  0  0  0  0  0  0  0  0  0  0  0
   44.2700   39.4050   43.9790 H   0  0  0  0  0  0  0  0  0  0  0  0
   45.5580   39.6190   42.7580 H   0  0  0  0  0  0  0  0  0  0  0  0
   46.1830   32.2710   45.6960 C   0  0  0  0  0  0  0  0  0  0  0  0
   45.2690   31.8100   46.7240 N   0  0  0  0  0  0  0  0  0  0  0  0
   44.2690   31.9100   46.4090 H   0  0  0  0  0  0  0  0  0  0  0  0
   45.5960   30.4130   46.9470 C   0  0  0  0  0  0  0  0  0  0  0  0
   46.7180   30.3560   46.9830 H   0  0  0  0  0  0  0  0  0  0  0  0
   45.4180   32.5140   47.9610 C   0  0  0  0  0  0  0  0  0  0  0  0
   46.4090   32.9820   48.0790 H   0  0  0  0  0  0  0  0  0  0  0  0
  1  9  1  0  0  0  0
  1  6  1  0  0  0  0
  2  1  2  0  0  0  0
  3  2  1  0  0  0  0
  3  4  2  0  0  0  0
  4  5  1  0  0  0  0
  5  6  2  0  0  0  0
  5 15  1  0  0  0  0
  7  2  1  0  0  0  0
  8  3  1  0  0  0  0
 10 11  1  0  0  0  0
 10  9  2  0  0  0  0
 11 13  1  0  0  0  0
 11 12  1  0  0  0  0
 14 11  1  0  0  0  0
 15 16  1  0  0  0  0
 16 18  1  0  0  0  0
 16 20  1  0  0  0  0
 17 16  1  0  0  0  0
 18 19  1  0  0  0  0
 20 21  1  0  0  0  0
M  END
>  <minimizedAffinity>
-3.24384451

>  <minimizedRMSD>
1.2832309

$$$$
