
 OpenBabel03242520563D

 39 40  0  0  0  0  0  0  0  0999 V2000
   48.4880   31.3480   48.5780 C   0  0  0  0  0  3  0  0  0  0  0  0
   47.4820   32.1960   48.6650 C   0  0  0  0  0  3  0  0  0  0  0  0
   51.2260   32.1830   50.8500 C   0  0  0  0  0  0  0  0  0  0  0  0
   51.3260   31.0020   51.6370 C   0  0  0  0  0  0  0  0  0  0  0  0
   50.4780   29.9520   51.3700 C   0  0  0  0  0  0  0  0  0  0  0  0
   49.6050   30.1200   50.3780 N   0  0  0  0  0  0  0  0  0  0  0  0
   49.4990   31.2300   49.6320 C   0  0  0  0  0  0  0  0  0  0  0  0
   50.3120   32.2720   49.8620 N   0  0  0  0  0  0  0  0  0  0  0  0
   51.8380   33.0700   50.9640 H   0  0  0  0  0  0  0  0  0  0  0  0
   50.5260   28.8040   52.0730 O   0  0  0  0  0  0  0  0  0  0  0  0
   51.4480   27.7930   51.6380 C   0  0  0  0  0  0  0  0  0  0  0  0
   51.9520   28.1380   50.3720 F   0  0  0  0  0  0  0  0  0  0  0  0
   52.5160   27.8300   52.5310 F   0  0  0  0  0  0  0  0  0  0  0  0
   50.9190   26.5100   51.6420 F   0  0  0  0  0  0  0  0  0  0  0  0
   52.3300   31.1670   52.7070 C   0  0  0  0  0  2  0  0  0  0  0  0
   51.7170   31.8510   53.8700 N   0  0  0  0  0  4  0  0  0  0  0  0
   50.6790   32.0030   53.6940 H   0  0  0  0  0  0  0  0  0  0  0  0
   51.7940   31.0350   55.0660 C   0  0  0  0  0  2  0  0  0  0  0  0
   52.0450   31.6740   55.9580 H   0  0  0  0  0  0  0  0  0  0  0  0
   52.3640   33.1200   54.1170 C   0  0  0  0  0  2  0  0  0  0  0  0
   52.6780   33.1870   55.1990 H   0  0  0  0  0  0  0  0  0  0  0  0
   46.4810   32.2780   47.5680 C   0  0  0  0  0  0  0  0  0  0  0  0
   46.3530   31.2430   47.2300 H   0  0  0  0  0  0  0  0  0  0  0  0
   45.4860   32.5890   48.0110 H   0  0  0  0  0  0  0  0  0  0  0  0
   46.6260   32.7800   45.2850 C   0  0  0  0  0  0  0  0  0  0  0  0
   46.1810   31.7210   44.7950 O   0  0  0  0  0  0  0  0  0  0  0  0
   46.8230   33.2260   46.5880 N   0  0  0  0  0  0  0  0  0  0  0  0
   47.1920   34.1750   46.7350 H   0  0  0  0  0  0  0  0  0  0  0  0
   44.8730   35.1030   44.3660 Cl  0  0  0  0  0  0  0  0  0  0  0  0
   46.2770   34.5870   43.4740 C   0  0  0  0  0  0  0  0  0  0  0  0
   46.9240   33.5290   44.0580 C   0  0  0  0  0  0  0  0  0  0  0  0
   48.0740   32.9890   43.4730 C   0  0  0  0  0  0  0  0  0  0  0  0
   48.5690   33.5300   42.2870 C   0  0  0  0  0  0  0  0  0  0  0  0
   47.8930   34.6030   41.7170 C   0  0  0  0  0  0  0  0  0  0  0  0
   48.4740   35.3210   40.2310 Cl  0  0  0  0  0  0  0  0  0  0  0  0
   46.7680   35.1150   42.3080 C   0  0  0  0  0  0  0  0  0  0  0  0
   48.6620   32.1820   43.8150 H   0  0  0  0  0  0  0  0  0  0  0  0
   49.4490   33.1710   41.7720 H   0  0  0  0  0  0  0  0  0  0  0  0
   46.1990   35.9480   41.9110 H   0  0  0  0  0  0  0  0  0  0  0  0
  1  2  2  0  0  0  0
  1  7  1  0  0  0  0
  3  9  1  0  0  0  0
  3  4  1  0  0  0  0
  4 15  1  0  0  0  0
  5  4  2  0  0  0  0
  5 10  1  0  0  0  0
  6  5  1  0  0  0  0
  7  8  1  0  0  0  0
  7  6  2  0  0  0  0
  8  3  2  0  0  0  0
 11 14  1  0  0  0  0
 11 10  1  0  0  0  0
 11 13  1  0  0  0  0
 12 11  1  0  0  0  0
 15 16  1  0  0  0  0
 16 20  1  0  0  0  0
 16 18  1  0  0  0  0
 17 16  1  0  0  0  0
 18 19  1  0  0  0  0
 20 21  1  0  0  0  0
 22 24  1  0  0  0  0
 22  2  1  0  0  0  0
 23 22  1  0  0  0  0
 25 27  1  0  0  0  0
 26 25  2  0  0  0  0
 27 28  1  0  0  0  0
 27 22  1  0  0  0  0
 30 31  1  0  0  0  0
 30 29  1  0  0  0  0
 31 25  1  0  0  0  0
 32 37  1  0  0  0  0
 32 31  2  0  0  0  0
 33 32  1  0  0  0  0
 34 33  2  0  0  0  0
 34 36  1  0  0  0  0
 35 34  1  0  0  0  0
 36 30  2  0  0  0  0
 38 33  1  0  0  0  0
 39 36  1  0  0  0  0
M  END
>  <minimizedAffinity>
-6.65472841

>  <minimizedRMSD>
0.18919009

$$$$
