
 OpenBabel03252501063D

 38 40  0  0  1  0  0  0  0  0999 V2000
   48.5910   32.3490   38.0670 O   0  0  0  0  0  0  0  0  0  0  0  0
   48.1030   33.7860   38.2460 P   0  0  2  0  0  0  0  0  0  0  0  0
   49.3140   34.7570   37.5660 O   0  0  0  0  0  0  0  0  0  0  0  0
   48.9680   35.6890   37.5690 H   0  0  0  0  0  0  0  0  0  0  0  0
   47.7420   34.1290   39.8040 O   0  0  0  0  0  0  0  0  0  0  0  0
   48.0810   35.4590   41.7980 C   0  0  1  0  0  0  0  0  0  0  0  0
   49.3120   34.6680   41.6760 C   0  0  0  0  0  0  0  0  0  0  0  0
   48.4710   35.0620   40.4480 C   0  0  1  0  0  0  0  0  0  0  0  0
   48.1570   36.5110   42.1130 H   0  0  0  0  0  0  0  0  0  0  0  0
   49.3390   33.5600   41.8560 H   0  0  0  0  0  0  0  0  0  0  0  0
   50.3150   35.1180   41.7800 H   0  0  0  0  0  0  0  0  0  0  0  0
   49.0210   35.7700   39.8010 H   0  0  0  0  0  0  0  0  0  0  0  0
   46.0460   32.9610   43.7910 C   0  0  0  0  0  0  0  0  0  0  0  0
   47.1390   33.6370   43.2590 C   0  0  0  0  0  0  0  0  0  0  0  0
   46.9130   34.7250   42.3940 C   0  0  0  0  0  0  0  0  0  0  0  0
   45.6360   35.0790   42.1060 N   0  0  0  0  0  0  0  0  0  0  0  0
   44.5860   34.4060   42.6350 C   0  0  0  0  0  0  0  0  0  0  0  0
   44.7880   33.3520   43.4740 N   0  0  0  0  0  0  0  0  0  0  0  0
   46.2290   32.1270   44.4550 H   0  0  0  0  0  0  0  0  0  0  0  0
   48.1250   33.3170   43.5190 H   0  0  0  0  0  0  0  0  0  0  0  0
   43.5980   34.7640   42.3460 H   0  0  0  0  0  0  0  0  0  0  0  0
   46.7470   33.9120   37.2650 O   0  0  0  0  0  0  0  0  0  0  0  0
   45.6670   33.0440   37.3240 C   0  0  0  0  0  0  0  0  0  0  0  0
   45.3460   32.0170   36.4560 C   0  0  0  0  0  0  0  0  0  0  0  0
   44.2390   31.2530   36.6590 C   0  0  0  0  0  0  0  0  0  0  0  0
   43.4020   31.4740   37.7300 C   0  0  0  0  0  0  0  0  0  0  0  0
   43.7590   32.5220   38.5870 C   0  0  0  0  0  0  0  0  0  0  0  0
   44.8710   33.2810   38.3730 N   0  0  0  0  0  0  0  0  0  0  0  0
   46.0450   31.8990   35.6360 H   0  0  0  0  0  0  0  0  0  0  0  0
   44.0480   30.4670   35.9400 H   0  0  0  0  0  0  0  0  0  0  0  0
   42.5350   30.8810   37.8950 H   0  0  0  0  0  0  0  0  0  0  0  0
   42.8600   32.7640   39.7450 C   0  0  0  0  0  2  0  0  0  0  0  0
   41.7790   33.6660   39.4910 N   0  0  0  0  0  4  0  0  0  0  0  0
   41.3790   33.5840   38.5290 H   0  0  0  0  0  0  0  0  0  0  0  0
   40.6850   33.3060   40.3820 C   0  0  0  0  0  2  0  0  0  0  0  0
   41.0690   32.6810   41.2310 H   0  0  0  0  0  0  0  0  0  0  0  0
   42.1320   35.0360   39.8190 C   0  0  0  0  0  2  0  0  0  0  0  0
   42.0580   35.1390   40.9370 H   0  0  0  0  0  0  0  0  0  0  0  0
  2  1  2  6  0  0  0
  2  5  1  0  0  0  0
  3  4  1  0  0  0  0
  3  2  1  0  0  0  0
  5  8  1  0  0  0  0
  6  9  1  1  0  0  0
  6 15  1  0  0  0  0
  7 11  1  0  0  0  0
  7  6  1  0  0  0  0
  7 10  1  0  0  0  0
  8 12  1  6  0  0  0
  8  7  1  0  0  0  0
  8  6  1  0  0  0  0
 13 19  1  0  0  0  0
 14 20  1  0  0  0  0
 14 13  2  0  0  0  0
 15 14  1  0  0  0  0
 16 15  2  0  0  0  0
 16 17  1  0  0  0  0
 17 18  2  0  0  0  0
 18 13  1  0  0  0  0
 21 17  1  0  0  0  0
 22 23  1  0  0  0  0
 22  2  1  0  0  0  0
 23 28  1  0  0  0  0
 24 25  1  0  0  0  0
 24 23  2  0  0  0  0
 25 26  2  0  0  0  0
 26 31  1  0  0  0  0
 26 27  1  0  0  0  0
 27 32  1  0  0  0  0
 28 27  2  0  0  0  0
 29 24  1  0  0  0  0
 30 25  1  0  0  0  0
 33 32  1  0  0  0  0
 33 37  1  0  0  0  0
 33 35  1  0  0  0  0
 34 33  1  0  0  0  0
 35 36  1  0  0  0  0
 37 38  1  0  0  0  0
M  END
>  <minimizedAffinity>
-4.56580687

>  <minimizedRMSD>
1.10068929

$$$$
