
 OpenBabel03242518413D

 37 39  0  0  1  0  0  0  0  0999 V2000
   36.4790   30.5210   40.9550 C   0  0  0  0  0  0  0  0  0  0  0  0
   35.8280   29.5840   40.1380 C   0  0  0  0  0  0  0  0  0  0  0  0
   35.9170   28.3420   40.7330 C   0  0  0  0  0  0  0  0  0  0  0  0
   36.6110   28.5700   41.8760 C   0  0  0  0  0  0  0  0  0  0  0  0
   36.9440   29.8490   42.0100 O   0  0  0  0  0  0  0  0  0  0  0  0
   35.3700   29.9000   39.2180 H   0  0  0  0  0  0  0  0  0  0  0  0
   35.5090   27.4460   40.3310 H   0  0  0  0  0  0  0  0  0  0  0  0
   36.9550   27.5180   42.8570 C   0  0  2  0  0  0  0  0  0  0  0  0
   37.0780   27.8390   44.2780 C   0  0  0  0  0  0  0  0  0  0  0  0
   38.3480   27.7220   43.5170 C   0  0  1  0  0  0  0  0  0  0  0  0
   36.7670   26.4990   42.4680 H   0  0  0  0  0  0  0  0  0  0  0  0
   36.7670   28.8180   44.6660 H   0  0  0  0  0  0  0  0  0  0  0  0
   36.7880   27.0030   44.9770 H   0  0  0  0  0  0  0  0  0  0  0  0
   38.9010   28.6140   43.2130 H   0  0  0  0  0  0  0  0  0  0  0  0
   40.4800   26.5010   43.8810 C   0  0  0  0  0  0  0  0  0  0  0  0
   41.1600   27.5670   43.8810 O   0  0  0  0  0  0  0  0  0  0  0  0
   39.0770   26.4640   43.6790 N   0  0  0  0  0  0  0  0  0  0  0  0
   40.9370   25.5180   44.0370 H   0  0  0  0  0  0  0  0  0  0  0  0
   38.5440   25.5690   43.6420 H   0  0  0  0  0  0  0  0  0  0  0  0
   36.6850   31.9200   40.8260 O   0  0  0  0  0  0  0  0  0  0  0  0
   37.4430   32.3870   39.7230 C   0  0  0  0  0  0  0  0  0  0  0  0
   37.0050   32.0820   38.5800 O   0  0  0  0  0  0  0  0  0  0  0  0
   38.6060   33.1420   40.0280 C   0  0  0  0  0  0  0  0  0  0  0  0
   38.4590   34.4900   40.0670 C   0  0  0  0  0  0  0  0  0  0  0  0
   39.5630   35.2860   40.3610 C   0  0  0  0  0  0  0  0  0  0  0  0
   40.7390   34.6770   40.5960 N   0  0  0  0  0  0  0  0  0  0  0  0
   40.8580   33.3480   40.5510 C   0  0  0  0  0  0  0  0  0  0  0  0
   39.7830   32.6240   40.2670 N   0  0  0  0  0  0  0  0  0  0  0  0
   37.5180   34.9900   39.8810 H   0  0  0  0  0  0  0  0  0  0  0  0
   39.4840   36.3680   40.4030 H   0  0  0  0  0  0  0  0  0  0  0  0
   42.2160   32.8300   40.8320 C   0  0  0  0  0  2  0  0  0  0  0  0
   42.4420   32.9210   42.2580 N   0  0  0  0  0  4  0  0  0  0  0  0
   41.6670   33.5170   42.6380 H   0  0  0  0  0  0  0  0  0  0  0  0
   42.4920   31.6320   42.8880 C   0  0  0  0  0  2  0  0  0  0  0  0
   41.7120   31.6010   43.6760 H   0  0  0  0  0  0  0  0  0  0  0  0
   43.6660   33.6820   42.4500 C   0  0  0  0  0  2  0  0  0  0  0  0
   43.6090   34.1590   43.4400 H   0  0  0  0  0  0  0  0  0  0  0  0
  1  5  1  0  0  0  0
  2  3  1  0  0  0  0
  2  1  2  0  0  0  0
  3  4  2  0  0  0  0
  4  5  1  0  0  0  0
  4  8  1  0  0  0  0
  6  2  1  0  0  0  0
  7  3  1  0  0  0  0
  8 11  1  6  0  0  0
  8 10  1  0  0  0  0
  8  9  1  0  0  0  0
  9 12  1  0  0  0  0
  9 13  1  0  0  0  0
 10 14  1  6  0  0  0
 10 17  1  0  0  0  0
 10  9  1  0  0  0  0
 15 18  1  0  0  0  0
 16 15  2  0  0  0  0
 17 15  1  0  0  0  0
 19 17  1  0  0  0  0
 20  1  1  0  0  0  0
 21 23  1  0  0  0  0
 21 20  1  0  0  0  0
 22 21  2  0  0  0  0
 23 24  2  0  0  0  0
 23 28  1  0  0  0  0
 24 25  1  0  0  0  0
 25 30  1  0  0  0  0
 25 26  2  0  0  0  0
 27 26  1  0  0  0  0
 27 31  1  0  0  0  0
 28 27  2  0  0  0  0
 29 24  1  0  0  0  0
 31 32  1  0  0  0  0
 32 36  1  0  0  0  0
 32 33  1  0  0  0  0
 32 34  1  0  0  0  0
 34 35  1  0  0  0  0
 36 37  1  0  0  0  0
M  END
>  <minimizedAffinity>
-5.94791222

$$$$

 OpenBabel03242518413D

 37 39  0  0  1  0  0  0  0  0999 V2000
   37.3130   29.6050   42.0490 C   0  0  0  0  0  0  0  0  0  0  0  0
   36.3480   29.0110   41.2210 C   0  0  0  0  0  0  0  0  0  0  0  0
   36.0650   29.8740   40.1830 C   0  0  0  0  0  0  0  0  0  0  0  0
   36.8600   30.9480   40.4170 C   0  0  0  0  0  0  0  0  0  0  0  0
   37.5950   30.7940   41.5130 O   0  0  0  0  0  0  0  0  0  0  0  0
   35.9630   28.0350   41.4590 H   0  0  0  0  0  0  0  0  0  0  0  0
   35.3670   29.6780   39.4040 H   0  0  0  0  0  0  0  0  0  0  0  0
   36.9040   32.1470   39.5520 C   0  0  2  0  0  0  0  0  0  0  0  0
   37.8670   32.2370   38.4560 C   0  0  0  0  0  0  0  0  0  0  0  0
   38.2180   32.9660   39.7020 C   0  0  1  0  0  0  0  0  0  0  0  0
   35.9740   32.7430   39.6070 H   0  0  0  0  0  0  0  0  0  0  0  0
   38.4630   31.3650   38.1530 H   0  0  0  0  0  0  0  0  0  0  0  0
   37.5130   32.8300   37.5640 H   0  0  0  0  0  0  0  0  0  0  0  0
   38.9630   32.5640   40.3930 H   0  0  0  0  0  0  0  0  0  0  0  0
   39.0280   35.2860   40.0640 C   0  0  0  0  0  0  0  0  0  0  0  0
   40.1600   34.8910   40.4660 O   0  0  0  0  0  0  0  0  0  0  0  0
   37.9790   34.4090   39.6860 N   0  0  0  0  0  0  0  0  0  0  0  0
   38.7760   36.3480   39.9800 H   0  0  0  0  0  0  0  0  0  0  0  0
   37.0400   34.7570   39.3970 H   0  0  0  0  0  0  0  0  0  0  0  0
   37.9530   29.1650   43.2380 O   0  0  0  0  0  0  0  0  0  0  0  0
   37.6190   27.8830   43.7430 C   0  0  0  0  0  0  0  0  0  0  0  0
   36.6280   27.8340   44.5220 O   0  0  0  0  0  0  0  0  0  0  0  0
   38.4350   26.8030   43.3170 C   0  0  0  0  0  0  0  0  0  0  0  0
   39.6250   26.6550   43.9530 C   0  0  0  0  0  0  0  0  0  0  0  0
   40.4700   25.6130   43.5800 C   0  0  0  0  0  0  0  0  0  0  0  0
   40.0660   24.7900   42.5970 N   0  0  0  0  0  0  0  0  0  0  0  0
   38.8910   24.9570   41.9860 C   0  0  0  0  0  0  0  0  0  0  0  0
   38.1140   25.9620   42.3690 N   0  0  0  0  0  0  0  0  0  0  0  0
   39.9580   27.3110   44.7460 H   0  0  0  0  0  0  0  0  0  0  0  0
   41.4290   25.4630   44.0670 H   0  0  0  0  0  0  0  0  0  0  0  0
   38.5910   23.9700   40.9240 C   0  0  0  0  0  2  0  0  0  0  0  0
   37.5170   24.5010   40.1120 N   0  0  0  0  0  4  0  0  0  0  0  0
   37.2880   25.4430   40.5130 H   0  0  0  0  0  0  0  0  0  0  0  0
   37.8670   24.5750   38.7220 C   0  0  0  0  0  2  0  0  0  0  0  0
   37.7580   25.6290   38.3930 H   0  0  0  0  0  0  0  0  0  0  0  0
   36.3490   23.6690   40.3480 C   0  0  0  0  0  2  0  0  0  0  0  0
   35.4580   24.2840   40.1520 H   0  0  0  0  0  0  0  0  0  0  0  0
  1 20  1  0  0  0  0
  2  6  1  0  0  0  0
  2  1  2  0  0  0  0
  3  4  2  0  0  0  0
  3  2  1  0  0  0  0
  4  5  1  0  0  0  0
  5  1  1  0  0  0  0
  7  3  1  0  0  0  0
  8 11  1  6  0  0  0
  8 10  1  0  0  0  0
  8  4  1  0  0  0  0
  9  8  1  0  0  0  0
  9 10  1  0  0  0  0
 10 14  1  1  0  0  0
 12  9  1  0  0  0  0
 13  9  1  0  0  0  0
 15 16  2  0  0  0  0
 17 10  1  0  0  0  0
 17 15  1  0  0  0  0
 18 15  1  0  0  0  0
 19 17  1  0  0  0  0
 20 21  1  0  0  0  0
 21 22  2  0  0  0  0
 23 21  1  0  0  0  0
 23 24  1  0  0  0  0
 24 29  1  0  0  0  0
 25 24  2  0  0  0  0
 25 30  1  0  0  0  0
 26 25  1  0  0  0  0
 27 28  1  0  0  0  0
 27 26  2  0  0  0  0
 28 23  2  0  0  0  0
 31 27  1  0  0  0  0
 32 36  1  0  0  0  0
 32 33  1  0  0  0  0
 32 31  1  0  0  0  0
 34 32  1  0  0  0  0
 35 34  1  0  0  0  0
 37 36  1  0  0  0  0
M  END
>  <minimizedAffinity>
-5.6432333

$$$$

 OpenBabel03242518413D

 37 39  0  0  1  0  0  0  0  0999 V2000
   37.2410   29.4590   41.6800 C   0  0  0  0  0  0  0  0  0  0  0  0
   36.0340   28.9260   41.2000 C   0  0  0  0  0  0  0  0  0  0  0  0
   35.7950   29.4390   39.9410 C   0  0  0  0  0  0  0  0  0  0  0  0
   36.8540   30.2550   39.7080 C   0  0  0  0  0  0  0  0  0  0  0  0
   37.7060   30.2700   40.7270 O   0  0  0  0  0  0  0  0  0  0  0  0
   35.4720   28.2380   41.8050 H   0  0  0  0  0  0  0  0  0  0  0  0
   34.9490   29.2050   39.3410 H   0  0  0  0  0  0  0  0  0  0  0  0
   37.0380   31.0330   38.4640 C   0  0  2  0  0  0  0  0  0  0  0  0
   37.0390   30.3650   37.1630 C   0  0  0  0  0  0  0  0  0  0  0  0
   38.3700   30.7100   37.7270 C   0  0  1  0  0  0  0  0  0  0  0  0
   36.8320   32.1110   38.6050 H   0  0  0  0  0  0  0  0  0  0  0  0
   36.7490   29.3110   37.0680 H   0  0  0  0  0  0  0  0  0  0  0  0
   36.6350   30.9870   36.3140 H   0  0  0  0  0  0  0  0  0  0  0  0
   39.0000   29.9420   38.1810 H   0  0  0  0  0  0  0  0  0  0  0  0
   40.3720   32.1560   37.4640 C   0  0  0  0  0  0  0  0  0  0  0  0
   41.0740   31.4220   38.2180 O   0  0  0  0  0  0  0  0  0  0  0  0
   39.0060   31.9070   37.1770 N   0  0  0  0  0  0  0  0  0  0  0  0
   40.7780   33.0490   36.9770 H   0  0  0  0  0  0  0  0  0  0  0  0
   38.4360   32.5490   36.5860 H   0  0  0  0  0  0  0  0  0  0  0  0
   37.9490   29.2730   42.8970 O   0  0  0  0  0  0  0  0  0  0  0  0
   37.6570   28.1230   43.6730 C   0  0  0  0  0  0  0  0  0  0  0  0
   36.8130   28.2770   44.5980 O   0  0  0  0  0  0  0  0  0  0  0  0
   38.3460   26.9330   43.3240 C   0  0  0  0  0  0  0  0  0  0  0  0
   39.5780   26.7650   43.8660 C   0  0  0  0  0  0  0  0  0  0  0  0
   40.3040   25.6160   43.5610 C   0  0  0  0  0  0  0  0  0  0  0  0
   39.7470   24.7140   42.7340 N   0  0  0  0  0  0  0  0  0  0  0  0
   38.5320   24.9030   42.2130 C   0  0  0  0  0  0  0  0  0  0  0  0
   37.8730   26.0110   42.5260 N   0  0  0  0  0  0  0  0  0  0  0  0
   40.0360   27.4830   44.5330 H   0  0  0  0  0  0  0  0  0  0  0  0
   41.2930   25.4460   43.9770 H   0  0  0  0  0  0  0  0  0  0  0  0
   38.0580   23.8220   41.3210 C   0  0  0  0  0  2  0  0  0  0  0  0
   37.3150   24.4290   40.2380 N   0  0  0  0  0  4  0  0  0  0  0  0
   37.1010   25.4080   40.5460 H   0  0  0  0  0  0  0  0  0  0  0  0
   38.0330   24.3980   38.9960 C   0  0  0  0  0  2  0  0  0  0  0  0
   38.1440   25.4400   38.6330 H   0  0  0  0  0  0  0  0  0  0  0  0
   36.0360   23.7430   40.1580 C   0  0  0  0  0  2  0  0  0  0  0  0
   35.3100   24.4440   39.7170 H   0  0  0  0  0  0  0  0  0  0  0  0
  1 20  1  0  0  0  0
  2  1  2  0  0  0  0
  2  6  1  0  0  0  0
  3  2  1  0  0  0  0
  4  3  2  0  0  0  0
  4  5  1  0  0  0  0
  5  1  1  0  0  0  0
  7  3  1  0  0  0  0
  8 11  1  1  0  0  0
  8  4  1  0  0  0  0
  9 10  1  0  0  0  0
  9  8  1  0  0  0  0
 10 14  1  1  0  0  0
 10  8  1  0  0  0  0
 12  9  1  0  0  0  0
 13  9  1  0  0  0  0
 15 16  2  0  0  0  0
 17 15  1  0  0  0  0
 17 10  1  0  0  0  0
 18 15  1  0  0  0  0
 19 17  1  0  0  0  0
 20 21  1  0  0  0  0
 21 22  2  0  0  0  0
 23 21  1  0  0  0  0
 23 24  1  0  0  0  0
 24 29  1  0  0  0  0
 25 24  2  0  0  0  0
 25 30  1  0  0  0  0
 26 25  1  0  0  0  0
 27 28  1  0  0  0  0
 27 26  2  0  0  0  0
 28 23  2  0  0  0  0
 31 27  1  0  0  0  0
 32 33  1  0  0  0  0
 32 31  1  0  0  0  0
 34 32  1  0  0  0  0
 35 34  1  0  0  0  0
 36 32  1  0  0  0  0
 37 36  1  0  0  0  0
M  END
>  <minimizedAffinity>
-5.43198347

$$$$

 OpenBabel03242518413D

 37 39  0  0  1  0  0  0  0  0999 V2000
   36.7390   28.5860   41.3440 C   0  0  0  0  0  0  0  0  0  0  0  0
   36.2610   28.5440   40.0240 C   0  0  0  0  0  0  0  0  0  0  0  0
   36.2280   29.8300   39.5260 C   0  0  0  0  0  0  0  0  0  0  0  0
   36.6830   30.5960   40.5490 C   0  0  0  0  0  0  0  0  0  0  0  0
   36.9840   29.8680   41.6200 O   0  0  0  0  0  0  0  0  0  0  0  0
   35.9930   27.6020   39.5800 H   0  0  0  0  0  0  0  0  0  0  0  0
   35.9070   30.0930   38.5460 H   0  0  0  0  0  0  0  0  0  0  0  0
   36.8280   32.0660   40.4800 C   0  0  2  0  0  0  0  0  0  0  0  0
   37.2690   32.7110   39.2450 C   0  0  0  0  0  0  0  0  0  0  0  0
   38.3010   32.5310   40.2990 C   0  0  1  0  0  0  0  0  0  0  0  0
   36.2700   32.5840   41.2820 H   0  0  0  0  0  0  0  0  0  0  0  0
   37.3490   32.1440   38.3070 H   0  0  0  0  0  0  0  0  0  0  0  0
   36.8460   33.7420   39.0740 H   0  0  0  0  0  0  0  0  0  0  0  0
   39.0510   31.7410   40.2160 H   0  0  0  0  0  0  0  0  0  0  0  0
   39.6040   34.6190   40.6340 C   0  0  0  0  0  0  0  0  0  0  0  0
   40.2810   34.4350   39.5810 O   0  0  0  0  0  0  0  0  0  0  0  0
   38.6120   33.7170   41.0960 N   0  0  0  0  0  0  0  0  0  0  0  0
   39.7410   35.5000   41.2690 H   0  0  0  0  0  0  0  0  0  0  0  0
   38.0960   33.8690   41.9890 H   0  0  0  0  0  0  0  0  0  0  0  0
   36.9700   27.5690   42.3080 O   0  0  0  0  0  0  0  0  0  0  0  0
   37.6860   27.9110   43.4830 C   0  0  0  0  0  0  0  0  0  0  0  0
   36.9920   28.2980   44.4630 O   0  0  0  0  0  0  0  0  0  0  0  0
   39.0980   27.7810   43.4240 C   0  0  0  0  0  0  0  0  0  0  0  0
   39.6250   26.6520   43.9600 C   0  0  0  0  0  0  0  0  0  0  0  0
   41.0050   26.4660   43.9320 C   0  0  0  0  0  0  0  0  0  0  0  0
   41.7630   27.4240   43.3700 N   0  0  0  0  0  0  0  0  0  0  0  0
   41.2200   28.5270   42.8500 C   0  0  0  0  0  0  0  0  0  0  0  0
   39.9010   28.6680   42.8960 N   0  0  0  0  0  0  0  0  0  0  0  0
   39.0240   25.8750   44.4140 H   0  0  0  0  0  0  0  0  0  0  0  0
   41.4630   25.5740   44.3500 H   0  0  0  0  0  0  0  0  0  0  0  0
   42.1850   29.4870   42.2690 C   0  0  0  0  0  2  0  0  0  0  0  0
   41.9870   30.7660   42.9160 N   0  0  0  0  0  4  0  0  0  0  0  0
   41.0670   30.7000   43.4140 H   0  0  0  0  0  0  0  0  0  0  0  0
   43.0620   31.1020   43.8050 C   0  0  0  0  0  2  0  0  0  0  0  0
   42.6360   31.2630   44.8180 H   0  0  0  0  0  0  0  0  0  0  0  0
   41.8050   31.7540   41.8650 C   0  0  0  0  0  2  0  0  0  0  0  0
   41.2070   32.5780   42.2830 H   0  0  0  0  0  0  0  0  0  0  0  0
  1  5  1  0  0  0  0
  1 20  1  0  0  0  0
  2  1  2  0  0  0  0
  3  2  1  0  0  0  0
  3  4  2  0  0  0  0
  4  5  1  0  0  0  0
  6  2  1  0  0  0  0
  7  3  1  0  0  0  0
  8  4  1  0  0  0  0
  8 11  1  1  0  0  0
  9 10  1  0  0  0  0
  9  8  1  0  0  0  0
 10 14  1  6  0  0  0
 10  8  1  0  0  0  0
 10 17  1  0  0  0  0
 12  9  1  0  0  0  0
 13  9  1  0  0  0  0
 15 17  1  0  0  0  0
 15 18  1  0  0  0  0
 16 15  2  0  0  0  0
 17 19  1  0  0  0  0
 20 21  1  0  0  0  0
 21 22  2  0  0  0  0
 23 21  1  0  0  0  0
 23 24  1  0  0  0  0
 24 29  1  0  0  0  0
 25 24  2  0  0  0  0
 25 30  1  0  0  0  0
 26 25  1  0  0  0  0
 27 28  1  0  0  0  0
 27 26  2  0  0  0  0
 28 23  2  0  0  0  0
 31 27  1  0  0  0  0
 31 32  1  0  0  0  0
 32 33  1  0  0  0  0
 32 34  1  0  0  0  0
 34 35  1  0  0  0  0
 36 37  1  0  0  0  0
 36 32  1  0  0  0  0
M  END
>  <minimizedAffinity>
-5.39027309

$$$$

 OpenBabel03242518413D

 37 39  0  0  1  0  0  0  0  0999 V2000
   36.2850   28.8350   40.0250 C   0  0  0  0  0  0  0  0  0  0  0  0
   36.5100   27.5450   39.5190 C   0  0  0  0  0  0  0  0  0  0  0  0
   36.8780   26.7200   40.5620 C   0  0  0  0  0  0  0  0  0  0  0  0
   36.8640   27.5320   41.6490 C   0  0  0  0  0  0  0  0  0  0  0  0
   36.5170   28.7760   41.3380 O   0  0  0  0  0  0  0  0  0  0  0  0
   36.3830   27.3500   38.4690 H   0  0  0  0  0  0  0  0  0  0  0  0
   37.1080   25.6860   40.4660 H   0  0  0  0  0  0  0  0  0  0  0  0
   37.1950   27.0830   43.0190 C   0  0  2  0  0  0  0  0  0  0  0  0
   37.2900   28.0460   44.1140 C   0  0  0  0  0  0  0  0  0  0  0  0
   38.5750   27.5970   43.5200 C   0  0  1  0  0  0  0  0  0  0  0  0
   37.0200   25.9990   43.1630 H   0  0  0  0  0  0  0  0  0  0  0  0
   36.9660   29.0870   43.9810 H   0  0  0  0  0  0  0  0  0  0  0  0
   36.9920   27.6430   45.1240 H   0  0  0  0  0  0  0  0  0  0  0  0
   39.1280   28.2420   42.8330 H   0  0  0  0  0  0  0  0  0  0  0  0
   40.4990   26.0410   43.7290 C   0  0  0  0  0  0  0  0  0  0  0  0
   40.9520   26.3530   42.5900 O   0  0  0  0  0  0  0  0  0  0  0  0
   39.3070   26.5810   44.2740 N   0  0  0  0  0  0  0  0  0  0  0  0
   41.0050   25.3210   44.3800 H   0  0  0  0  0  0  0  0  0  0  0  0
   38.9320   26.2770   45.1990 H   0  0  0  0  0  0  0  0  0  0  0  0
   35.8930   30.0500   39.4020 O   0  0  0  0  0  0  0  0  0  0  0  0
   36.7420   30.5980   38.4080 C   0  0  0  0  0  0  0  0  0  0  0  0
   36.6070   30.1310   37.2440 O   0  0  0  0  0  0  0  0  0  0  0  0
   37.6450   31.6070   38.8340 C   0  0  0  0  0  0  0  0  0  0  0  0
   37.1040   32.6680   39.4850 C   0  0  0  0  0  0  0  0  0  0  0  0
   37.9390   33.6910   39.9280 C   0  0  0  0  0  0  0  0  0  0  0  0
   39.2580   33.5810   39.6890 N   0  0  0  0  0  0  0  0  0  0  0  0
   39.7650   32.5270   39.0450 C   0  0  0  0  0  0  0  0  0  0  0  0
   38.9370   31.5740   38.6380 N   0  0  0  0  0  0  0  0  0  0  0  0
   36.0450   32.7650   39.6830 H   0  0  0  0  0  0  0  0  0  0  0  0
   37.5430   34.5550   40.4530 H   0  0  0  0  0  0  0  0  0  0  0  0
   41.2330   32.5540   38.8590 C   0  0  0  0  0  2  0  0  0  0  0  0
   41.5020   32.9260   37.4860 N   0  0  0  0  0  4  0  0  0  0  0  0
   40.5680   33.1050   37.0460 H   0  0  0  0  0  0  0  0  0  0  0  0
   42.3740   34.0620   37.3880 C   0  0  0  0  0  2  0  0  0  0  0  0
   41.8500   34.8510   36.8110 H   0  0  0  0  0  0  0  0  0  0  0  0
   42.0430   31.7510   36.8220 C   0  0  0  0  0  2  0  0  0  0  0  0
   41.8110   31.8400   35.7490 H   0  0  0  0  0  0  0  0  0  0  0  0
  1  5  1  0  0  0  0
  2  1  2  0  0  0  0
  2  3  1  0  0  0  0
  3  4  2  0  0  0  0
  4  8  1  0  0  0  0
  5  4  1  0  0  0  0
  6  2  1  0  0  0  0
  7  3  1  0  0  0  0
  8 11  1  1  0  0  0
  8 10  1  0  0  0  0
  8  9  1  0  0  0  0
  9 13  1  0  0  0  0
 10 14  1  6  0  0  0
 10  9  1  0  0  0  0
 10 17  1  0  0  0  0
 12  9  1  0  0  0  0
 15 17  1  0  0  0  0
 15 18  1  0  0  0  0
 16 15  2  0  0  0  0
 17 19  1  0  0  0  0
 20  1  1  0  0  0  0
 21 23  1  0  0  0  0
 21 20  1  0  0  0  0
 22 21  2  0  0  0  0
 23 24  1  0  0  0  0
 24 29  1  0  0  0  0
 24 25  2  0  0  0  0
 25 30  1  0  0  0  0
 26 25  1  0  0  0  0
 27 26  2  0  0  0  0
 28 23  2  0  0  0  0
 28 27  1  0  0  0  0
 31 27  1  0  0  0  0
 32 31  1  0  0  0  0
 33 32  1  0  0  0  0
 34 32  1  0  0  0  0
 35 34  1  0  0  0  0
 36 32  1  0  0  0  0
 37 36  1  0  0  0  0
M  END
>  <minimizedAffinity>
-5.38328409

$$$$

 OpenBabel03242518413D

 37 39  0  0  1  0  0  0  0  0999 V2000
   36.9710   29.4000   41.8600 C   0  0  0  0  0  0  0  0  0  0  0  0
   35.9250   29.0890   40.9770 C   0  0  0  0  0  0  0  0  0  0  0  0
   35.8320   30.0920   40.0340 C   0  0  0  0  0  0  0  0  0  0  0  0
   36.8140   30.9630   40.3760 C   0  0  0  0  0  0  0  0  0  0  0  0
   37.4850   30.5600   41.4490 O   0  0  0  0  0  0  0  0  0  0  0  0
   35.3560   28.1870   41.1140 H   0  0  0  0  0  0  0  0  0  0  0  0
   35.1230   30.1140   39.2400 H   0  0  0  0  0  0  0  0  0  0  0  0
   37.1020   32.2120   39.6390 C   0  0  2  0  0  0  0  0  0  0  0  0
   37.4290   32.1760   38.2150 C   0  0  0  0  0  0  0  0  0  0  0  0
   38.5760   32.3120   39.1500 C   0  0  1  0  0  0  0  0  0  0  0  0
   36.7230   33.1100   40.1630 H   0  0  0  0  0  0  0  0  0  0  0  0
   37.3140   31.2530   37.6310 H   0  0  0  0  0  0  0  0  0  0  0  0
   37.0980   33.0820   37.6310 H   0  0  0  0  0  0  0  0  0  0  0  0
   39.2180   31.4570   39.3730 H   0  0  0  0  0  0  0  0  0  0  0  0
   40.2540   33.8590   40.1290 C   0  0  0  0  0  0  0  0  0  0  0  0
   40.8010   32.9360   40.7990 O   0  0  0  0  0  0  0  0  0  0  0  0
   39.1220   33.6600   39.2990 N   0  0  0  0  0  0  0  0  0  0  0  0
   40.6220   34.8900   40.1480 H   0  0  0  0  0  0  0  0  0  0  0  0
   38.6620   34.4450   38.7890 H   0  0  0  0  0  0  0  0  0  0  0  0
   37.4930   28.7260   42.9960 O   0  0  0  0  0  0  0  0  0  0  0  0
   37.0470   27.4050   43.2560 C   0  0  0  0  0  0  0  0  0  0  0  0
   36.0330   27.2990   43.9980 O   0  0  0  0  0  0  0  0  0  0  0  0
   37.7890   26.3560   42.6540 C   0  0  0  0  0  0  0  0  0  0  0  0
   37.0800   25.2850   42.2180 C   0  0  0  0  0  0  0  0  0  0  0  0
   37.7520   24.2230   41.6180 C   0  0  0  0  0  0  0  0  0  0  0  0
   39.0880   24.3070   41.4940 N   0  0  0  0  0  0  0  0  0  0  0  0
   39.7640   25.3720   41.9320 C   0  0  0  0  0  0  0  0  0  0  0  0
   39.0880   26.3630   42.4990 N   0  0  0  0  0  0  0  0  0  0  0  0
   36.0050   25.2080   42.3110 H   0  0  0  0  0  0  0  0  0  0  0  0
   37.2180   23.3500   41.2560 H   0  0  0  0  0  0  0  0  0  0  0  0
   41.2280   25.3140   41.7250 C   0  0  0  0  0  2  0  0  0  0  0  0
   41.6310   26.5260   41.0440 N   0  0  0  0  0  4  0  0  0  0  0  0
   40.8400   27.2040   41.1650 H   0  0  0  0  0  0  0  0  0  0  0  0
   42.8720   27.0470   41.5430 C   0  0  0  0  0  2  0  0  0  0  0  0
   42.6950   28.0840   41.8960 H   0  0  0  0  0  0  0  0  0  0  0  0
   41.6870   26.2210   39.6240 C   0  0  0  0  0  2  0  0  0  0  0  0
   41.5170   27.1610   39.0760 H   0  0  0  0  0  0  0  0  0  0  0  0
  1 20  1  0  0  0  0
  2  6  1  0  0  0  0
  2  1  2  0  0  0  0
  3  4  2  0  0  0  0
  3  2  1  0  0  0  0
  4  5  1  0  0  0  0
  5  1  1  0  0  0  0
  7  3  1  0  0  0  0
  8 11  1  1  0  0  0
  8  4  1  0  0  0  0
  9 10  1  0  0  0  0
  9  8  1  0  0  0  0
 10 17  1  0  0  0  0
 10 14  1  1  0  0  0
 10  8  1  0  0  0  0
 12  9  1  0  0  0  0
 13  9  1  0  0  0  0
 15 18  1  0  0  0  0
 15 16  2  0  0  0  0
 17 15  1  0  0  0  0
 19 17  1  0  0  0  0
 20 21  1  0  0  0  0
 21 22  2  0  0  0  0
 23 21  1  0  0  0  0
 24 29  1  0  0  0  0
 24 23  2  0  0  0  0
 25 24  1  0  0  0  0
 26 25  2  0  0  0  0
 26 27  1  0  0  0  0
 27 28  2  0  0  0  0
 28 23  1  0  0  0  0
 30 25  1  0  0  0  0
 31 27  1  0  0  0  0
 32 33  1  0  0  0  0
 32 34  1  0  0  0  0
 32 31  1  0  0  0  0
 34 35  1  0  0  0  0
 36 32  1  0  0  0  0
 37 36  1  0  0  0  0
M  END
>  <minimizedAffinity>
-5.13861513

$$$$

 OpenBabel03242518413D

 37 39  0  0  1  0  0  0  0  0999 V2000
   37.7620   30.9350   40.8370 C   0  0  0  0  0  0  0  0  0  0  0  0
   37.2920   30.3510   39.6490 C   0  0  0  0  0  0  0  0  0  0  0  0
   36.7400   29.1230   39.9500 C   0  0  0  0  0  0  0  0  0  0  0  0
   36.8930   29.0090   41.2930 C   0  0  0  0  0  0  0  0  0  0  0  0
   37.4940   30.0710   41.8180 O   0  0  0  0  0  0  0  0  0  0  0  0
   37.4020   30.8720   38.7150 H   0  0  0  0  0  0  0  0  0  0  0  0
   36.3060   28.4630   39.2380 H   0  0  0  0  0  0  0  0  0  0  0  0
   36.4420   27.8400   42.0790 C   0  0  2  0  0  0  0  0  0  0  0  0
   37.0160   27.5640   43.3950 C   0  0  0  0  0  0  0  0  0  0  0  0
   37.5450   26.7590   42.2640 C   0  0  1  0  0  0  0  0  0  0  0  0
   35.4620   27.4540   41.7390 H   0  0  0  0  0  0  0  0  0  0  0  0
   37.6690   28.2930   43.8920 H   0  0  0  0  0  0  0  0  0  0  0  0
   36.3100   27.0720   44.1230 H   0  0  0  0  0  0  0  0  0  0  0  0
   38.5210   26.9850   41.8270 H   0  0  0  0  0  0  0  0  0  0  0  0
   37.9030   24.3020   42.2940 C   0  0  0  0  0  0  0  0  0  0  0  0
   39.1480   24.4260   42.4790 O   0  0  0  0  0  0  0  0  0  0  0  0
   37.0180   25.4000   42.1450 N   0  0  0  0  0  0  0  0  0  0  0  0
   37.4160   23.3230   42.2340 H   0  0  0  0  0  0  0  0  0  0  0  0
   36.0020   25.2730   41.9520 H   0  0  0  0  0  0  0  0  0  0  0  0
   38.4060   32.1720   41.1020 O   0  0  0  0  0  0  0  0  0  0  0  0
   38.3420   33.1870   40.1140 C   0  0  0  0  0  0  0  0  0  0  0  0
   37.1890   33.6070   39.8240 O   0  0  0  0  0  0  0  0  0  0  0  0
   39.5790   33.6130   39.5640 C   0  0  0  0  0  0  0  0  0  0  0  0
   40.0500   34.8130   39.9900 C   0  0  0  0  0  0  0  0  0  0  0  0
   41.2590   35.2860   39.4870 C   0  0  0  0  0  0  0  0  0  0  0  0
   41.9150   34.5260   38.5930 N   0  0  0  0  0  0  0  0  0  0  0  0
   41.4310   33.3490   38.1890 C   0  0  0  0  0  0  0  0  0  0  0  0
   40.2750   32.9330   38.6910 N   0  0  0  0  0  0  0  0  0  0  0  0
   39.5300   35.4320   40.7100 H   0  0  0  0  0  0  0  0  0  0  0  0
   41.6680   36.2410   39.8050 H   0  0  0  0  0  0  0  0  0  0  0  0
   42.2680   32.6320   37.2010 C   0  0  0  0  0  2  0  0  0  0  0  0
   42.4150   31.2640   37.6500 N   0  0  0  0  0  4  0  0  0  0  0  0
   41.6160   31.0860   38.3050 H   0  0  0  0  0  0  0  0  0  0  0  0
   42.4390   30.3300   36.5600 C   0  0  0  0  0  2  0  0  0  0  0  0
   41.6160   29.6010   36.7110 H   0  0  0  0  0  0  0  0  0  0  0  0
   43.6210   31.2050   38.4600 C   0  0  0  0  0  2  0  0  0  0  0  0
   43.5050   30.3700   39.1670 H   0  0  0  0  0  0  0  0  0  0  0  0
  1 20  1  0  0  0  0
  1  5  1  0  0  0  0
  2  3  1  0  0  0  0
  2  1  2  0  0  0  0
  3  4  2  0  0  0  0
  4  5  1  0  0  0  0
  4  8  1  0  0  0  0
  6  2  1  0  0  0  0
  7  3  1  0  0  0  0
  8 11  1  6  0  0  0
  8 10  1  0  0  0  0
  8  9  1  0  0  0  0
  9 12  1  0  0  0  0
  9 13  1  0  0  0  0
 10 14  1  6  0  0  0
 10  9  1  0  0  0  0
 15 16  2  0  0  0  0
 17 10  1  0  0  0  0
 17 15  1  0  0  0  0
 18 15  1  0  0  0  0
 19 17  1  0  0  0  0
 21 20  1  0  0  0  0
 22 21  2  0  0  0  0
 23 24  1  0  0  0  0
 23 21  1  0  0  0  0
 24 29  1  0  0  0  0
 25 30  1  0  0  0  0
 25 24  2  0  0  0  0
 26 25  1  0  0  0  0
 27 26  2  0  0  0  0
 27 28  1  0  0  0  0
 28 23  2  0  0  0  0
 31 32  1  0  0  0  0
 31 27  1  0  0  0  0
 32 33  1  0  0  0  0
 32 36  1  0  0  0  0
 34 35  1  0  0  0  0
 34 32  1  0  0  0  0
 36 37  1  0  0  0  0
M  END
>  <minimizedAffinity>
-5.13161659

$$$$

 OpenBabel03242518413D

 37 39  0  0  1  0  0  0  0  0999 V2000
   37.3790   30.0370   39.7450 C   0  0  0  0  0  0  0  0  0  0  0  0
   36.0270   29.6720   39.6480 C   0  0  0  0  0  0  0  0  0  0  0  0
   35.7880   28.6290   40.5180 C   0  0  0  0  0  0  0  0  0  0  0  0
   36.9900   28.4020   41.1050 C   0  0  0  0  0  0  0  0  0  0  0  0
   37.9280   29.2270   40.6520 O   0  0  0  0  0  0  0  0  0  0  0  0
   35.3770   30.1940   38.9680 H   0  0  0  0  0  0  0  0  0  0  0  0
   34.8460   28.1540   40.6520 H   0  0  0  0  0  0  0  0  0  0  0  0
   37.2260   27.3610   42.1280 C   0  0  2  0  0  0  0  0  0  0  0  0
   36.5710   27.4390   43.4320 C   0  0  0  0  0  0  0  0  0  0  0  0
   37.9860   27.8880   43.3790 C   0  0  1  0  0  0  0  0  0  0  0  0
   37.6330   26.4270   41.6950 H   0  0  0  0  0  0  0  0  0  0  0  0
   35.7760   28.1730   43.6230 H   0  0  0  0  0  0  0  0  0  0  0  0
   36.3380   26.4410   43.9030 H   0  0  0  0  0  0  0  0  0  0  0  0
   38.2330   28.9530   43.3820 H   0  0  0  0  0  0  0  0  0  0  0  0
   40.3550   27.1950   43.6540 C   0  0  0  0  0  0  0  0  0  0  0  0
   40.7840   28.1940   43.0080 O   0  0  0  0  0  0  0  0  0  0  0  0
   38.9780   26.9340   43.8720 N   0  0  0  0  0  0  0  0  0  0  0  0
   41.0280   26.4520   44.0940 H   0  0  0  0  0  0  0  0  0  0  0  0
   38.6470   26.0810   44.3720 H   0  0  0  0  0  0  0  0  0  0  0  0
   38.1500   31.0320   39.0860 O   0  0  0  0  0  0  0  0  0  0  0  0
   38.2740   32.3010   39.7050 C   0  0  0  0  0  0  0  0  0  0  0  0
   37.3280   32.6430   40.4670 O   0  0  0  0  0  0  0  0  0  0  0  0
   39.4450   33.0430   39.3990 C   0  0  0  0  0  0  0  0  0  0  0  0
   39.5950   34.2300   40.0380 C   0  0  0  0  0  0  0  0  0  0  0  0
   40.7230   35.0040   39.7790 C   0  0  0  0  0  0  0  0  0  0  0  0
   41.6250   34.5350   38.8980 N   0  0  0  0  0  0  0  0  0  0  0  0
   41.4540   33.3630   38.2810 C   0  0  0  0  0  0  0  0  0  0  0  0
   40.3650   32.6560   38.5540 N   0  0  0  0  0  0  0  0  0  0  0  0
   38.8760   34.6150   40.7490 H   0  0  0  0  0  0  0  0  0  0  0  0
   40.8780   35.9590   40.2720 H   0  0  0  0  0  0  0  0  0  0  0  0
   42.5330   32.9870   37.3410 C   0  0  0  0  0  2  0  0  0  0  0  0
   43.7210   32.6990   38.1160 N   0  0  0  0  0  4  0  0  0  0  0  0
   43.6260   33.2450   39.0060 H   0  0  0  0  0  0  0  0  0  0  0  0
   43.8900   31.2950   38.3570 C   0  0  0  0  0  2  0  0  0  0  0  0
   43.9300   31.1340   39.4540 H   0  0  0  0  0  0  0  0  0  0  0  0
   44.8480   33.2810   37.4040 C   0  0  0  0  0  2  0  0  0  0  0  0
   45.6310   33.4990   38.1460 H   0  0  0  0  0  0  0  0  0  0  0  0
  1  5  1  0  0  0  0
  2  1  2  0  0  0  0
  2  3  1  0  0  0  0
  3  7  1  0  0  0  0
  3  4  2  0  0  0  0
  4  8  1  0  0  0  0
  5  4  1  0  0  0  0
  6  2  1  0  0  0  0
  8 11  1  6  0  0  0
  8 10  1  0  0  0  0
  8  9  1  0  0  0  0
  9 12  1  0  0  0  0
  9 13  1  0  0  0  0
 10 14  1  1  0  0  0
 10  9  1  0  0  0  0
 10 17  1  0  0  0  0
 15 17  1  0  0  0  0
 15 18  1  0  0  0  0
 16 15  2  0  0  0  0
 17 19  1  0  0  0  0
 20 21  1  0  0  0  0
 20  1  1  0  0  0  0
 21 22  2  0  0  0  0
 23 21  1  0  0  0  0
 23 24  1  0  0  0  0
 24 29  1  0  0  0  0
 25 24  2  0  0  0  0
 25 30  1  0  0  0  0
 26 25  1  0  0  0  0
 27 28  1  0  0  0  0
 27 26  2  0  0  0  0
 28 23  2  0  0  0  0
 31 32  1  0  0  0  0
 31 27  1  0  0  0  0
 32 34  1  0  0  0  0
 32 33  1  0  0  0  0
 34 35  1  0  0  0  0
 36 32  1  0  0  0  0
 36 37  1  0  0  0  0
M  END
>  <minimizedAffinity>
-5.05610371

$$$$

 OpenBabel03242518413D

 37 39  0  0  1  0  0  0  0  0999 V2000
   37.0480   29.7700   41.4550 C   0  0  0  0  0  0  0  0  0  0  0  0
   36.2420   30.7610   40.8720 C   0  0  0  0  0  0  0  0  0  0  0  0
   37.0410   31.8290   40.5220 C   0  0  0  0  0  0  0  0  0  0  0  0
   38.2880   31.4520   40.9000 C   0  0  0  0  0  0  0  0  0  0  0  0
   38.2970   30.2420   41.4490 O   0  0  0  0  0  0  0  0  0  0  0  0
   35.1840   30.6000   40.7690 H   0  0  0  0  0  0  0  0  0  0  0  0
   36.6920   32.7220   40.0600 H   0  0  0  0  0  0  0  0  0  0  0  0
   39.4950   32.2880   40.7200 C   0  0  2  0  0  0  0  0  0  0  0  0
   39.4930   33.3990   39.7700 C   0  0  0  0  0  0  0  0  0  0  0  0
   40.1400   32.1420   39.3120 C   0  0  1  0  0  0  0  0  0  0  0  0
   40.2000   32.2000   41.5680 H   0  0  0  0  0  0  0  0  0  0  0  0
   38.5630   33.7340   39.2930 H   0  0  0  0  0  0  0  0  0  0  0  0
   40.1490   34.2680   40.0610 H   0  0  0  0  0  0  0  0  0  0  0  0
   39.6300   31.4750   38.6130 H   0  0  0  0  0  0  0  0  0  0  0  0
   42.3430   32.4670   38.2120 C   0  0  0  0  0  0  0  0  0  0  0  0
   41.8120   32.7560   37.1010 O   0  0  0  0  0  0  0  0  0  0  0  0
   41.6010   32.1180   39.3690 N   0  0  0  0  0  0  0  0  0  0  0  0
   43.4280   32.4640   38.3560 H   0  0  0  0  0  0  0  0  0  0  0  0
   42.0620   31.8420   40.2630 H   0  0  0  0  0  0  0  0  0  0  0  0
   36.7500   28.4860   41.9850 O   0  0  0  0  0  0  0  0  0  0  0  0
   37.4950   28.0340   43.1030 C   0  0  0  0  0  0  0  0  0  0  0  0
   37.3460   28.6880   44.1710 O   0  0  0  0  0  0  0  0  0  0  0  0
   38.3230   26.9000   42.8950 C   0  0  0  0  0  0  0  0  0  0  0  0
   39.2950   26.6820   43.8160 C   0  0  0  0  0  0  0  0  0  0  0  0
   40.1390   25.5850   43.6670 C   0  0  0  0  0  0  0  0  0  0  0  0
   39.9530   24.7810   42.6060 N   0  0  0  0  0  0  0  0  0  0  0  0
   38.9890   25.0170   41.7130 C   0  0  0  0  0  0  0  0  0  0  0  0
   38.2050   26.0730   41.8890 N   0  0  0  0  0  0  0  0  0  0  0  0
   39.4530   27.3230   44.6740 H   0  0  0  0  0  0  0  0  0  0  0  0
   40.9280   25.3780   44.3850 H   0  0  0  0  0  0  0  0  0  0  0  0
   38.9120   24.0420   40.6020 C   0  0  0  0  0  2  0  0  0  0  0  0
   37.8670   23.0900   40.9140 N   0  0  0  0  0  4  0  0  0  0  0  0
   37.9080   22.9450   41.9520 H   0  0  0  0  0  0  0  0  0  0  0  0
   36.5740   23.5350   40.4800 C   0  0  0  0  0  2  0  0  0  0  0  0
   35.9040   23.5680   41.3640 H   0  0  0  0  0  0  0  0  0  0  0  0
   38.2500   21.8220   40.3150 C   0  0  0  0  0  2  0  0  0  0  0  0
   37.7740   21.0210   40.9010 H   0  0  0  0  0  0  0  0  0  0  0  0
  1 20  1  0  0  0  0
  2  1  2  0  0  0  0
  3  2  1  0  0  0  0
  3  4  2  0  0  0  0
  4  5  1  0  0  0  0
  5  1  1  0  0  0  0
  6  2  1  0  0  0  0
  7  3  1  0  0  0  0
  8  4  1  0  0  0  0
  8 11  1  1  0  0  0
  9 13  1  0  0  0  0
  9  8  1  0  0  0  0
 10 14  1  6  0  0  0
 10 17  1  0  0  0  0
 10  9  1  0  0  0  0
 10  8  1  0  0  0  0
 12  9  1  0  0  0  0
 15 18  1  0  0  0  0
 15 17  1  0  0  0  0
 16 15  2  0  0  0  0
 17 19  1  0  0  0  0
 20 21  1  0  0  0  0
 21 22  2  0  0  0  0
 23 21  1  0  0  0  0
 23 24  1  0  0  0  0
 24 29  1  0  0  0  0
 25 24  2  0  0  0  0
 25 30  1  0  0  0  0
 26 25  1  0  0  0  0
 27 28  1  0  0  0  0
 27 26  2  0  0  0  0
 28 23  2  0  0  0  0
 31 32  1  0  0  0  0
 31 27  1  0  0  0  0
 32 33  1  0  0  0  0
 34 32  1  0  0  0  0
 34 35  1  0  0  0  0
 36 37  1  0  0  0  0
 36 32  1  0  0  0  0
M  END
>  <minimizedAffinity>
-5.05300236

$$$$
