
 OpenBabel03242516513D

 41 43  0  0  1  0  0  0  0  0999 V2000
   36.5300   30.6910   39.0240 C   0  0  1  0  0  0  0  0  0  0  0  0
   36.7510   29.7550   37.9020 C   0  0  0  0  0  0  0  0  0  0  0  0
   35.3540   29.3560   37.4150 C   0  0  0  0  0  0  0  0  0  0  0  0
   34.7770   28.4700   38.5040 C   0  0  0  0  0  0  0  0  0  0  0  0
   34.7460   29.1210   39.8550 C   0  0  0  0  0  0  0  0  0  0  0  0
   35.8520   30.0200   40.2010 C   0  0  1  0  0  0  0  0  0  0  0  0
   35.7730   31.4660   38.6970 H   0  0  0  0  0  0  0  0  0  0  0  0
   37.3690   28.8860   38.1190 H   0  0  0  0  0  0  0  0  0  0  0  0
   37.2390   30.3460   37.0740 H   0  0  0  0  0  0  0  0  0  0  0  0
   34.7670   30.2870   37.2880 H   0  0  0  0  0  0  0  0  0  0  0  0
   35.4580   28.7510   36.5150 H   0  0  0  0  0  0  0  0  0  0  0  0
   35.4290   27.5640   38.5270 H   0  0  0  0  0  0  0  0  0  0  0  0
   33.7640   28.1880   38.1830 H   0  0  0  0  0  0  0  0  0  0  0  0
   34.6610   28.3150   40.6160 H   0  0  0  0  0  0  0  0  0  0  0  0
   33.7540   29.6540   39.8970 H   0  0  0  0  0  0  0  0  0  0  0  0
   35.4270   30.8770   40.8080 H   0  0  0  0  0  0  0  0  0  0  0  0
   38.6470   33.4520   40.4950 C   0  0  0  0  0  0  0  0  0  0  0  0
   37.5670   32.6850   40.0640 C   0  0  0  0  0  0  0  0  0  0  0  0
   37.7000   31.4400   39.4630 C   0  0  0  0  0  0  0  0  0  0  0  0
   38.9570   30.9940   39.3100 N   0  0  0  0  0  0  0  0  0  0  0  0
   40.0230   31.7290   39.7230 C   0  0  0  0  0  0  0  0  0  0  0  0
   39.8900   32.9200   40.2980 N   0  0  0  0  0  0  0  0  0  0  0  0
   38.4410   34.4060   40.9510 H   0  0  0  0  0  0  0  0  0  0  0  0
   36.5620   33.0590   40.1940 H   0  0  0  0  0  0  0  0  0  0  0  0
   41.0120   31.2970   39.5630 H   0  0  0  0  0  0  0  0  0  0  0  0
   36.8400   29.4030   41.1030 C   0  0  0  0  0  0  0  0  0  0  0  0
   37.3760   29.9610   42.2710 C   0  0  0  0  0  0  0  0  0  0  0  0
   38.2840   29.1610   42.9690 C   0  0  0  0  0  0  0  0  0  0  0  0
   38.5750   27.9080   42.4630 C   0  0  0  0  0  0  0  0  0  0  0  0
   38.0410   27.3780   41.3190 C   0  0  0  0  0  0  0  0  0  0  0  0
   37.1580   28.1560   40.6380 N   0  0  0  0  0  0  0  0  0  0  0  0
   37.0430   30.9250   42.5060 H   0  0  0  0  0  0  0  0  0  0  0  0
   38.6960   29.5880   43.8650 H   0  0  0  0  0  0  0  0  0  0  0  0
   39.2850   27.3320   43.0450 H   0  0  0  0  0  0  0  0  0  0  0  0
   38.4410   26.0100   40.8810 C   0  0  0  0  0  2  0  0  0  0  0  0
   38.1130   25.0040   41.8440 N   0  0  0  0  0  4  0  0  0  0  0  0
   37.7320   25.4750   42.6960 H   0  0  0  0  0  0  0  0  0  0  0  0
   39.2840   24.2410   42.2580 C   0  0  0  0  0  2  0  0  0  0  0  0
   40.0120   24.1850   41.4210 H   0  0  0  0  0  0  0  0  0  0  0  0
   37.1370   24.0510   41.3670 C   0  0  0  0  0  2  0  0  0  0  0  0
   37.5720   23.5470   40.4880 H   0  0  0  0  0  0  0  0  0  0  0  0
  1  7  1  6  0  0  0
  1 19  1  0  0  0  0
  1  6  1  0  0  0  0
  2  8  1  0  0  0  0
  2  1  1  0  0  0  0
  3  2  1  0  0  0  0
  3  4  1  0  0  0  0
  4 12  1  0  0  0  0
  4  5  1  0  0  0  0
  5 15  1  0  0  0  0
  5  6  1  0  0  0  0
  5 14  1  0  0  0  0
  6 16  1  1  0  0  0
  6 26  1  0  0  0  0
  9  2  1  0  0  0  0
 10  3  1  0  0  0  0
 11  3  1  0  0  0  0
 13  4  1  0  0  0  0
 17 23  1  0  0  0  0
 18 24  1  0  0  0  0
 18 17  2  0  0  0  0
 19 18  1  0  0  0  0
 20 19  2  0  0  0  0
 20 21  1  0  0  0  0
 21 22  2  0  0  0  0
 22 17  1  0  0  0  0
 25 21  1  0  0  0  0
 26 27  1  0  0  0  0
 27 32  1  0  0  0  0
 27 28  2  0  0  0  0
 28 33  1  0  0  0  0
 29 28  1  0  0  0  0
 29 34  1  0  0  0  0
 30 29  2  0  0  0  0
 31 26  2  0  0  0  0
 31 30  1  0  0  0  0
 35 30  1  0  0  0  0
 35 36  1  0  0  0  0
 36 38  1  0  0  0  0
 36 37  1  0  0  0  0
 39 38  1  0  0  0  0
 40 36  1  0  0  0  0
 41 40  1  0  0  0  0
M  END
>  <minimizedAffinity>
-5.40516281

$$$$

 OpenBabel03242516513D

 41 43  0  0  1  0  0  0  0  0999 V2000
   38.9170   24.8780   40.8630 C   0  0  1  0  0  0  0  0  0  0  0  0
   38.2960   23.7190   41.5370 C   0  0  0  0  0  0  0  0  0  0  0  0
   37.3970   23.0630   40.4830 C   0  0  0  0  0  0  0  0  0  0  0  0
   36.2360   24.0180   40.2800 C   0  0  0  0  0  0  0  0  0  0  0  0
   36.6570   25.4020   39.8880 C   0  0  0  0  0  0  0  0  0  0  0  0
   37.8960   25.9260   40.4710 C   0  0  1  0  0  0  0  0  0  0  0  0
   39.3290   24.5330   39.8670 H   0  0  0  0  0  0  0  0  0  0  0  0
   37.7540   23.9350   42.4550 H   0  0  0  0  0  0  0  0  0  0  0  0
   39.1270   22.9930   41.7700 H   0  0  0  0  0  0  0  0  0  0  0  0
   37.9990   22.9450   39.5600 H   0  0  0  0  0  0  0  0  0  0  0  0
   36.9990   22.1360   40.8940 H   0  0  0  0  0  0  0  0  0  0  0  0
   35.6960   24.0410   41.2570 H   0  0  0  0  0  0  0  0  0  0  0  0
   35.5870   23.5730   39.5110 H   0  0  0  0  0  0  0  0  0  0  0  0
   35.8120   26.0880   40.1130 H   0  0  0  0  0  0  0  0  0  0  0  0
   36.7090   25.3800   38.7620 H   0  0  0  0  0  0  0  0  0  0  0  0
   38.4180   26.5480   39.6800 H   0  0  0  0  0  0  0  0  0  0  0  0
   41.2860   25.8360   43.6460 C   0  0  0  0  0  0  0  0  0  0  0  0
   40.2390   25.2710   42.9200 C   0  0  0  0  0  0  0  0  0  0  0  0
   40.0390   25.4910   41.5630 C   0  0  0  0  0  0  0  0  0  0  0  0
   40.9270   26.2990   40.9630 N   0  0  0  0  0  0  0  0  0  0  0  0
   41.9540   26.8600   41.6540 C   0  0  0  0  0  0  0  0  0  0  0  0
   42.1410   26.6450   42.9530 N   0  0  0  0  0  0  0  0  0  0  0  0
   41.3580   25.6050   44.6960 H   0  0  0  0  0  0  0  0  0  0  0  0
   39.5340   24.6240   43.4190 H   0  0  0  0  0  0  0  0  0  0  0  0
   42.6320   27.5040   41.0940 H   0  0  0  0  0  0  0  0  0  0  0  0
   37.6610   26.8780   41.5710 C   0  0  0  0  0  0  0  0  0  0  0  0
   36.9860   26.6240   42.7730 C   0  0  0  0  0  0  0  0  0  0  0  0
   36.9170   27.6920   43.6710 C   0  0  0  0  0  0  0  0  0  0  0  0
   37.5070   28.8890   43.3110 C   0  0  0  0  0  0  0  0  0  0  0  0
   38.1630   29.1190   42.1310 C   0  0  0  0  0  0  0  0  0  0  0  0
   38.2310   28.0810   41.2560 N   0  0  0  0  0  0  0  0  0  0  0  0
   36.6000   25.6570   42.8790 H   0  0  0  0  0  0  0  0  0  0  0  0
   36.4010   27.4980   44.5930 H   0  0  0  0  0  0  0  0  0  0  0  0
   37.4230   29.6810   44.0460 H   0  0  0  0  0  0  0  0  0  0  0  0
   38.7560   30.4600   41.8660 C   0  0  0  0  0  2  0  0  0  0  0  0
   38.3190   31.0230   40.6260 N   0  0  0  0  0  4  0  0  0  0  0  0
   38.4420   30.3040   39.8770 H   0  0  0  0  0  0  0  0  0  0  0  0
   39.1120   32.1850   40.2430 C   0  0  0  0  0  2  0  0  0  0  0  0
   39.4700   32.7130   41.1530 H   0  0  0  0  0  0  0  0  0  0  0  0
   36.9370   31.4430   40.6420 C   0  0  0  0  0  2  0  0  0  0  0  0
   36.8390   32.2220   41.4180 H   0  0  0  0  0  0  0  0  0  0  0  0
  1  7  1  6  0  0  0
  1  2  1  0  0  0  0
  1 19  1  0  0  0  0
  2  9  1  0  0  0  0
  2  8  1  0  0  0  0
  3 11  1  0  0  0  0
  3  2  1  0  0  0  0
  4  3  1  0  0  0  0
  4 12  1  0  0  0  0
  5 14  1  0  0  0  0
  5  4  1  0  0  0  0
  5  6  1  0  0  0  0
  6 16  1  6  0  0  0
  6  1  1  0  0  0  0
  6 26  1  0  0  0  0
 10  3  1  0  0  0  0
 13  4  1  0  0  0  0
 15  5  1  0  0  0  0
 17 23  1  0  0  0  0
 18 24  1  0  0  0  0
 18 17  2  0  0  0  0
 19 18  1  0  0  0  0
 20 19  2  0  0  0  0
 20 21  1  0  0  0  0
 21 22  2  0  0  0  0
 22 17  1  0  0  0  0
 25 21  1  0  0  0  0
 26 27  1  0  0  0  0
 27 32  1  0  0  0  0
 27 28  2  0  0  0  0
 28 33  1  0  0  0  0
 29 28  1  0  0  0  0
 29 34  1  0  0  0  0
 30 29  2  0  0  0  0
 31 26  2  0  0  0  0
 31 30  1  0  0  0  0
 35 30  1  0  0  0  0
 36 40  1  0  0  0  0
 36 35  1  0  0  0  0
 37 36  1  0  0  0  0
 38 36  1  0  0  0  0
 38 39  1  0  0  0  0
 40 41  1  0  0  0  0
M  END
>  <minimizedAffinity>
-5.17484856

$$$$

 OpenBabel03242516513D

 41 43  0  0  1  0  0  0  0  0999 V2000
   36.7640   27.7490   40.8060 C   0  0  1  0  0  0  0  0  0  0  0  0
   38.0220   26.9750   40.8580 C   0  0  0  0  0  0  0  0  0  0  0  0
   38.0160   26.2680   42.2170 C   0  0  0  0  0  0  0  0  0  0  0  0
   38.2300   27.3590   43.2490 C   0  0  0  0  0  0  0  0  0  0  0  0
   37.2180   28.4630   43.1770 C   0  0  0  0  0  0  0  0  0  0  0  0
   36.7260   28.8470   41.8500 C   0  0  1  0  0  0  0  0  0  0  0  0
   35.9140   27.0690   41.1150 H   0  0  0  0  0  0  0  0  0  0  0  0
   38.9370   27.5410   40.6990 H   0  0  0  0  0  0  0  0  0  0  0  0
   37.9480   26.1780   40.0630 H   0  0  0  0  0  0  0  0  0  0  0  0
   37.0270   25.7800   42.3330 H   0  0  0  0  0  0  0  0  0  0  0  0
   38.8700   25.5940   42.2630 H   0  0  0  0  0  0  0  0  0  0  0  0
   39.2530   27.7600   43.0500 H   0  0  0  0  0  0  0  0  0  0  0  0
   38.2100   26.8730   44.2360 H   0  0  0  0  0  0  0  0  0  0  0  0
   37.6480   29.3490   43.6920 H   0  0  0  0  0  0  0  0  0  0  0  0
   36.3760   28.1290   43.8470 H   0  0  0  0  0  0  0  0  0  0  0  0
   35.6270   29.1060   41.9470 H   0  0  0  0  0  0  0  0  0  0  0  0
   34.6570   29.0370   37.9470 C   0  0  0  0  0  0  0  0  0  0  0  0
   35.0710   28.5460   39.1840 C   0  0  0  0  0  0  0  0  0  0  0  0
   36.3960   28.2720   39.4970 C   0  0  0  0  0  0  0  0  0  0  0  0
   37.2890   28.5070   38.5230 N   0  0  0  0  0  0  0  0  0  0  0  0
   36.9050   28.9850   37.3100 C   0  0  0  0  0  0  0  0  0  0  0  0
   35.6350   29.2470   37.0160 N   0  0  0  0  0  0  0  0  0  0  0  0
   33.6060   29.2200   37.8000 H   0  0  0  0  0  0  0  0  0  0  0  0
   34.3390   28.3620   39.9560 H   0  0  0  0  0  0  0  0  0  0  0  0
   37.6910   29.1500   36.5730 H   0  0  0  0  0  0  0  0  0  0  0  0
   37.3380   30.0870   41.3410 C   0  0  0  0  0  0  0  0  0  0  0  0
   36.6680   31.2110   40.8390 C   0  0  0  0  0  0  0  0  0  0  0  0
   37.4780   32.2750   40.4380 C   0  0  0  0  0  0  0  0  0  0  0  0
   38.8480   32.1390   40.5650 C   0  0  0  0  0  0  0  0  0  0  0  0
   39.4860   31.0320   41.0570 C   0  0  0  0  0  0  0  0  0  0  0  0
   38.6980   29.9950   41.4480 N   0  0  0  0  0  0  0  0  0  0  0  0
   35.6240   31.1410   40.8150 H   0  0  0  0  0  0  0  0  0  0  0  0
   36.9660   33.1380   40.0540 H   0  0  0  0  0  0  0  0  0  0  0  0
   39.4270   32.9950   40.2380 H   0  0  0  0  0  0  0  0  0  0  0  0
   40.9740   31.0130   41.1410 C   0  0  0  0  0  2  0  0  0  0  0  0
   41.4860   31.9420   42.1000 N   0  0  0  0  0  4  0  0  0  0  0  0
   40.6810   32.4690   42.5100 H   0  0  0  0  0  0  0  0  0  0  0  0
   42.3770   32.9220   41.4900 C   0  0  0  0  0  2  0  0  0  0  0  0
   42.9010   32.4660   40.6230 H   0  0  0  0  0  0  0  0  0  0  0  0
   42.2220   31.3130   43.1720 C   0  0  0  0  0  2  0  0  0  0  0  0
   43.0810   30.7910   42.7180 H   0  0  0  0  0  0  0  0  0  0  0  0
  1  2  1  0  0  0  0
  1  7  1  1  0  0  0
  1  6  1  0  0  0  0
  2  3  1  0  0  0  0
  3 11  1  0  0  0  0
  3 10  1  0  0  0  0
  3  4  1  0  0  0  0
  4 13  1  0  0  0  0
  5  4  1  0  0  0  0
  5 14  1  0  0  0  0
  5 15  1  0  0  0  0
  6 16  1  1  0  0  0
  6  5  1  0  0  0  0
  8  2  1  0  0  0  0
  9  2  1  0  0  0  0
 12  4  1  0  0  0  0
 17 18  1  0  0  0  0
 18 19  2  0  0  0  0
 18 24  1  0  0  0  0
 19  1  1  0  0  0  0
 20 19  1  0  0  0  0
 21 20  2  0  0  0  0
 22 21  1  0  0  0  0
 22 17  2  0  0  0  0
 23 17  1  0  0  0  0
 25 21  1  0  0  0  0
 26 31  1  0  0  0  0
 26  6  1  0  0  0  0
 27 26  2  0  0  0  0
 28 29  2  0  0  0  0
 28 27  1  0  0  0  0
 29 30  1  0  0  0  0
 30 35  1  0  0  0  0
 30 31  2  0  0  0  0
 32 27  1  0  0  0  0
 33 28  1  0  0  0  0
 34 29  1  0  0  0  0
 35 36  1  0  0  0  0
 36 37  1  0  0  0  0
 36 40  1  0  0  0  0
 38 36  1  0  0  0  0
 39 38  1  0  0  0  0
 41 40  1  0  0  0  0
M  END
>  <minimizedAffinity>
-5.14811087

$$$$

 OpenBabel03242516513D

 41 43  0  0  1  0  0  0  0  0999 V2000
   38.6060   30.8370   41.2760 C   0  0  1  0  0  0  0  0  0  0  0  0
   39.6900   30.9250   40.2750 C   0  0  0  0  0  0  0  0  0  0  0  0
   40.0320   32.4150   40.1690 C   0  0  0  0  0  0  0  0  0  0  0  0
   38.8510   33.0600   39.4680 C   0  0  0  0  0  0  0  0  0  0  0  0
   37.5410   32.8240   40.1570 C   0  0  0  0  0  0  0  0  0  0  0  0
   37.3400   31.5260   40.8090 C   0  0  1  0  0  0  0  0  0  0  0  0
   38.9090   31.4410   42.1840 H   0  0  0  0  0  0  0  0  0  0  0  0
   39.4790   30.4870   39.3030 H   0  0  0  0  0  0  0  0  0  0  0  0
   40.5870   30.4040   40.7190 H   0  0  0  0  0  0  0  0  0  0  0  0
   40.1600   32.8010   41.2000 H   0  0  0  0  0  0  0  0  0  0  0  0
   40.9030   32.5260   39.5250 H   0  0  0  0  0  0  0  0  0  0  0  0
   38.8340   32.6140   38.4440 H   0  0  0  0  0  0  0  0  0  0  0  0
   39.0700   34.1350   39.3980 H   0  0  0  0  0  0  0  0  0  0  0  0
   36.7330   33.0050   39.4160 H   0  0  0  0  0  0  0  0  0  0  0  0
   37.4440   33.6730   40.8920 H   0  0  0  0  0  0  0  0  0  0  0  0
   36.7470   31.7010   41.7590 H   0  0  0  0  0  0  0  0  0  0  0  0
   38.3770   27.0700   41.4460 C   0  0  0  0  0  0  0  0  0  0  0  0
   38.6430   28.3730   41.0310 C   0  0  0  0  0  0  0  0  0  0  0  0
   38.3090   29.4990   41.7720 C   0  0  0  0  0  0  0  0  0  0  0  0
   37.6970   29.2690   42.9440 N   0  0  0  0  0  0  0  0  0  0  0  0
   37.4290   28.0050   43.3660 C   0  0  0  0  0  0  0  0  0  0  0  0
   37.7510   26.9310   42.6530 N   0  0  0  0  0  0  0  0  0  0  0  0
   38.6760   26.2610   40.8010 H   0  0  0  0  0  0  0  0  0  0  0  0
   39.1350   28.5400   40.0840 H   0  0  0  0  0  0  0  0  0  0  0  0
   36.9290   27.9030   44.3300 H   0  0  0  0  0  0  0  0  0  0  0  0
   36.4930   30.6090   40.0260 C   0  0  0  0  0  0  0  0  0  0  0  0
   35.4100   29.8550   40.4980 C   0  0  0  0  0  0  0  0  0  0  0  0
   34.7490   29.0750   39.5460 C   0  0  0  0  0  0  0  0  0  0  0  0
   35.2050   29.1090   38.2420 C   0  0  0  0  0  0  0  0  0  0  0  0
   36.2650   29.8520   37.7980 C   0  0  0  0  0  0  0  0  0  0  0  0
   36.9100   30.6110   38.7240 N   0  0  0  0  0  0  0  0  0  0  0  0
   35.2040   29.9510   41.5200 H   0  0  0  0  0  0  0  0  0  0  0  0
   33.9180   28.4970   39.9070 H   0  0  0  0  0  0  0  0  0  0  0  0
   34.6540   28.4850   37.5470 H   0  0  0  0  0  0  0  0  0  0  0  0
   36.6550   29.7980   36.3610 C   0  0  0  0  0  2  0  0  0  0  0  0
   36.5560   28.4820   35.8100 N   0  0  0  0  0  4  0  0  0  0  0  0
   35.8710   27.9360   36.3810 H   0  0  0  0  0  0  0  0  0  0  0  0
   37.8270   27.7690   35.8620 C   0  0  0  0  0  2  0  0  0  0  0  0
   38.6670   28.4910   35.7770 H   0  0  0  0  0  0  0  0  0  0  0  0
   36.1220   28.4680   34.4310 C   0  0  0  0  0  2  0  0  0  0  0  0
   36.8740   29.0220   33.8450 H   0  0  0  0  0  0  0  0  0  0  0  0
  1 19  1  0  0  0  0
  1  7  1  1  0  0  0
  2  9  1  0  0  0  0
  2  1  1  0  0  0  0
  3  2  1  0  0  0  0
  3 10  1  0  0  0  0
  4  5  1  0  0  0  0
  4  3  1  0  0  0  0
  5  6  1  0  0  0  0
  5 15  1  0  0  0  0
  6  1  1  0  0  0  0
  6 16  1  1  0  0  0
  8  2  1  0  0  0  0
 11  3  1  0  0  0  0
 12  4  1  0  0  0  0
 13  4  1  0  0  0  0
 14  5  1  0  0  0  0
 17 22  1  0  0  0  0
 18 17  2  0  0  0  0
 18 19  1  0  0  0  0
 19 20  2  0  0  0  0
 20 21  1  0  0  0  0
 21 25  1  0  0  0  0
 22 21  2  0  0  0  0
 23 17  1  0  0  0  0
 24 18  1  0  0  0  0
 26 27  1  0  0  0  0
 26  6  1  0  0  0  0
 27 32  1  0  0  0  0
 28 33  1  0  0  0  0
 28 27  2  0  0  0  0
 29 28  1  0  0  0  0
 30 29  2  0  0  0  0
 30 31  1  0  0  0  0
 31 26  2  0  0  0  0
 34 29  1  0  0  0  0
 35 30  1  0  0  0  0
 36 38  1  0  0  0  0
 36 35  1  0  0  0  0
 36 37  1  0  0  0  0
 39 38  1  0  0  0  0
 40 36  1  0  0  0  0
 41 40  1  0  0  0  0
M  END
>  <minimizedAffinity>
-5.04653168

$$$$

 OpenBabel03242516513D

 41 43  0  0  1  0  0  0  0  0999 V2000
   36.8470   28.5630   39.3120 C   0  0  1  0  0  0  0  0  0  0  0  0
   35.3830   28.6850   39.4690 C   0  0  0  0  0  0  0  0  0  0  0  0
   34.7840   28.2090   38.1420 C   0  0  0  0  0  0  0  0  0  0  0  0
   35.1220   29.2870   37.1280 C   0  0  0  0  0  0  0  0  0  0  0  0
   36.5890   29.5740   37.0210 C   0  0  0  0  0  0  0  0  0  0  0  0
   37.3870   29.4980   38.2490 C   0  0  1  0  0  0  0  0  0  0  0  0
   37.0760   27.5360   38.8940 H   0  0  0  0  0  0  0  0  0  0  0  0
   35.0130   29.6680   39.7520 H   0  0  0  0  0  0  0  0  0  0  0  0
   35.0760   27.9430   40.2620 H   0  0  0  0  0  0  0  0  0  0  0  0
   35.2630   27.2420   37.8890 H   0  0  0  0  0  0  0  0  0  0  0  0
   33.7000   28.1730   38.2410 H   0  0  0  0  0  0  0  0  0  0  0  0
   34.5740   30.1980   37.4700 H   0  0  0  0  0  0  0  0  0  0  0  0
   34.7160   28.9540   36.1610 H   0  0  0  0  0  0  0  0  0  0  0  0
   36.7040   30.5770   36.5570 H   0  0  0  0  0  0  0  0  0  0  0  0
   36.9680   28.8560   36.2400 H   0  0  0  0  0  0  0  0  0  0  0  0
   38.4000   29.0650   37.9810 H   0  0  0  0  0  0  0  0  0  0  0  0
   37.7300   29.2240   42.9250 C   0  0  0  0  0  0  0  0  0  0  0  0
   37.0360   29.0890   41.7250 C   0  0  0  0  0  0  0  0  0  0  0  0
   37.6270   28.6740   40.5390 C   0  0  0  0  0  0  0  0  0  0  0  0
   38.9390   28.4000   40.6010 N   0  0  0  0  0  0  0  0  0  0  0  0
   39.6340   28.5270   41.7630 C   0  0  0  0  0  0  0  0  0  0  0  0
   39.0630   28.9240   42.8960 N   0  0  0  0  0  0  0  0  0  0  0  0
   37.1830   29.5520   43.7930 H   0  0  0  0  0  0  0  0  0  0  0  0
   35.9800   29.3130   41.6920 H   0  0  0  0  0  0  0  0  0  0  0  0
   40.6970   28.2860   41.7310 H   0  0  0  0  0  0  0  0  0  0  0  0
   37.7060   30.8200   38.8160 C   0  0  0  0  0  0  0  0  0  0  0  0
   36.8180   31.6990   39.4510 C   0  0  0  0  0  0  0  0  0  0  0  0
   37.3730   32.8900   39.9260 C   0  0  0  0  0  0  0  0  0  0  0  0
   38.7260   33.1020   39.7370 C   0  0  0  0  0  0  0  0  0  0  0  0
   39.5790   32.2310   39.1140 C   0  0  0  0  0  0  0  0  0  0  0  0
   39.0400   31.0720   38.6500 N   0  0  0  0  0  0  0  0  0  0  0  0
   35.8240   31.3750   39.5060 H   0  0  0  0  0  0  0  0  0  0  0  0
   36.6930   33.5640   40.4140 H   0  0  0  0  0  0  0  0  0  0  0  0
   39.1010   34.0410   40.1260 H   0  0  0  0  0  0  0  0  0  0  0  0
   41.0210   32.5820   38.9750 C   0  0  0  0  0  2  0  0  0  0  0  0
   41.3670   32.9830   37.6460 N   0  0  0  0  0  4  0  0  0  0  0  0
   40.4850   33.1820   37.1220 H   0  0  0  0  0  0  0  0  0  0  0  0
   42.0720   31.9320   36.9240 C   0  0  0  0  0  2  0  0  0  0  0  0
   42.6640   31.3180   37.6350 H   0  0  0  0  0  0  0  0  0  0  0  0
   42.2050   34.1590   37.6030 C   0  0  0  0  0  2  0  0  0  0  0  0
   43.1400   33.9160   38.1350 H   0  0  0  0  0  0  0  0  0  0  0  0
  1  7  1  6  0  0  0
  1  2  1  0  0  0  0
  1 19  1  0  0  0  0
  2  8  1  0  0  0  0
  2  9  1  0  0  0  0
  3 11  1  0  0  0  0
  3  2  1  0  0  0  0
  4 12  1  0  0  0  0
  4  3  1  0  0  0  0
  5  4  1  0  0  0  0
  5  6  1  0  0  0  0
  6 16  1  6  0  0  0
  6 26  1  0  0  0  0
  6  1  1  0  0  0  0
 10  3  1  0  0  0  0
 13  4  1  0  0  0  0
 14  5  1  0  0  0  0
 15  5  1  0  0  0  0
 17 23  1  0  0  0  0
 18 17  2  0  0  0  0
 19 20  2  0  0  0  0
 19 18  1  0  0  0  0
 20 21  1  0  0  0  0
 21 22  2  0  0  0  0
 22 17  1  0  0  0  0
 24 18  1  0  0  0  0
 25 21  1  0  0  0  0
 26 27  1  0  0  0  0
 27 32  1  0  0  0  0
 27 28  2  0  0  0  0
 28 33  1  0  0  0  0
 29 28  1  0  0  0  0
 29 34  1  0  0  0  0
 30 29  2  0  0  0  0
 31 26  2  0  0  0  0
 31 30  1  0  0  0  0
 35 30  1  0  0  0  0
 36 35  1  0  0  0  0
 37 36  1  0  0  0  0
 38 39  1  0  0  0  0
 38 36  1  0  0  0  0
 40 36  1  0  0  0  0
 40 41  1  0  0  0  0
M  END
>  <minimizedAffinity>
-5.04446363

$$$$

 OpenBabel03242516513D

 41 43  0  0  1  0  0  0  0  0999 V2000
   36.2340   30.0560   38.2730 C   0  0  1  0  0  0  0  0  0  0  0  0
   36.6760   29.2900   37.0890 C   0  0  0  0  0  0  0  0  0  0  0  0
   35.4270   29.1220   36.2180 C   0  0  0  0  0  0  0  0  0  0  0  0
   34.5360   28.1430   36.9600 C   0  0  0  0  0  0  0  0  0  0  0  0
   34.2030   28.5730   38.3570 C   0  0  0  0  0  0  0  0  0  0  0  0
   35.2380   29.2840   39.1140 C   0  0  1  0  0  0  0  0  0  0  0  0
   35.6370   30.9490   37.9170 H   0  0  0  0  0  0  0  0  0  0  0  0
   37.1620   28.3380   37.2900 H   0  0  0  0  0  0  0  0  0  0  0  0
   37.3950   29.9500   36.5230 H   0  0  0  0  0  0  0  0  0  0  0  0
   34.9520   30.1190   36.1220 H   0  0  0  0  0  0  0  0  0  0  0  0
   35.7190   28.6590   35.2760 H   0  0  0  0  0  0  0  0  0  0  0  0
   35.1020   27.1810   36.9770 H   0  0  0  0  0  0  0  0  0  0  0  0
   33.6230   28.0230   36.3580 H   0  0  0  0  0  0  0  0  0  0  0  0
   33.8760   27.6710   38.9180 H   0  0  0  0  0  0  0  0  0  0  0  0
   33.2680   29.1940   38.2530 H   0  0  0  0  0  0  0  0  0  0  0  0
   34.7270   30.0760   39.7440 H   0  0  0  0  0  0  0  0  0  0  0  0
   38.0750   32.3130   40.6800 C   0  0  0  0  0  0  0  0  0  0  0  0
   37.0950   31.7410   39.8710 C   0  0  0  0  0  0  0  0  0  0  0  0
   37.2990   30.6000   39.1080 C   0  0  0  0  0  0  0  0  0  0  0  0
   38.5230   30.0540   39.1840 N   0  0  0  0  0  0  0  0  0  0  0  0
   39.4920   30.5980   39.9660 C   0  0  0  0  0  0  0  0  0  0  0  0
   39.2910   31.6910   40.6960 N   0  0  0  0  0  0  0  0  0  0  0  0
   37.8200   33.2000   41.2360 H   0  0  0  0  0  0  0  0  0  0  0  0
   36.1150   32.1940   39.8210 H   0  0  0  0  0  0  0  0  0  0  0  0
   40.4600   30.0950   39.9740 H   0  0  0  0  0  0  0  0  0  0  0  0
   35.9220   28.4320   40.1020 C   0  0  0  0  0  0  0  0  0  0  0  0
   36.1320   28.7200   41.4570 C   0  0  0  0  0  0  0  0  0  0  0  0
   36.7900   27.7330   42.1950 C   0  0  0  0  0  0  0  0  0  0  0  0
   37.1740   26.5760   41.5440 C   0  0  0  0  0  0  0  0  0  0  0  0
   36.9600   26.3120   40.2170 C   0  0  0  0  0  0  0  0  0  0  0  0
   36.3200   27.2720   39.4980 N   0  0  0  0  0  0  0  0  0  0  0  0
   35.7740   29.6480   41.7840 H   0  0  0  0  0  0  0  0  0  0  0  0
   36.9510   27.9510   43.2350 H   0  0  0  0  0  0  0  0  0  0  0  0
   37.6800   25.8460   42.1650 H   0  0  0  0  0  0  0  0  0  0  0  0
   37.4260   25.0210   39.6360 C   0  0  0  0  0  2  0  0  0  0  0  0
   38.3790   24.3520   40.4680 N   0  0  0  0  0  4  0  0  0  0  0  0
   38.4020   24.8340   41.3950 H   0  0  0  0  0  0  0  0  0  0  0  0
   39.7260   24.4130   39.9140 C   0  0  0  0  0  2  0  0  0  0  0  0
   39.6760   24.4390   38.8050 H   0  0  0  0  0  0  0  0  0  0  0  0
   38.0740   22.9560   40.6800 C   0  0  0  0  0  2  0  0  0  0  0  0
   38.0840   22.4630   39.6930 H   0  0  0  0  0  0  0  0  0  0  0  0
  1  7  1  6  0  0  0
  1 19  1  0  0  0  0
  1  6  1  0  0  0  0
  2  8  1  0  0  0  0
  2  1  1  0  0  0  0
  3  4  1  0  0  0  0
  3  2  1  0  0  0  0
  4 12  1  0  0  0  0
  4  5  1  0  0  0  0
  5 14  1  0  0  0  0
  5  6  1  0  0  0  0
  6 16  1  1  0  0  0
  6 26  1  0  0  0  0
  9  2  1  0  0  0  0
 10  3  1  0  0  0  0
 11  3  1  0  0  0  0
 13  4  1  0  0  0  0
 15  5  1  0  0  0  0
 17 22  1  0  0  0  0
 17 23  1  0  0  0  0
 18 17  2  0  0  0  0
 19 20  2  0  0  0  0
 19 18  1  0  0  0  0
 20 21  1  0  0  0  0
 21 25  1  0  0  0  0
 21 22  2  0  0  0  0
 24 18  1  0  0  0  0
 26 27  1  0  0  0  0
 27 32  1  0  0  0  0
 27 28  2  0  0  0  0
 28 33  1  0  0  0  0
 29 34  1  0  0  0  0
 29 28  1  0  0  0  0
 30 29  2  0  0  0  0
 31 26  2  0  0  0  0
 31 30  1  0  0  0  0
 35 30  1  0  0  0  0
 35 36  1  0  0  0  0
 36 40  1  0  0  0  0
 36 37  1  0  0  0  0
 38 36  1  0  0  0  0
 39 38  1  0  0  0  0
 41 40  1  0  0  0  0
M  END
>  <minimizedAffinity>
-5.01403952

$$$$

 OpenBabel03242516513D

 41 43  0  0  1  0  0  0  0  0999 V2000
   37.9630   29.0570   41.0970 C   0  0  1  0  0  0  0  0  0  0  0  0
   37.4170   29.6790   42.3220 C   0  0  0  0  0  0  0  0  0  0  0  0
   37.6570   28.6620   43.4430 C   0  0  0  0  0  0  0  0  0  0  0  0
   36.6990   27.5170   43.1720 C   0  0  0  0  0  0  0  0  0  0  0  0
   36.8560   26.9110   41.8100 C   0  0  0  0  0  0  0  0  0  0  0  0
   37.2000   27.8090   40.7020 C   0  0  1  0  0  0  0  0  0  0  0  0
   38.9990   28.6640   41.3290 H   0  0  0  0  0  0  0  0  0  0  0  0
   36.3770   29.9940   42.2740 H   0  0  0  0  0  0  0  0  0  0  0  0
   38.0570   30.5810   42.5430 H   0  0  0  0  0  0  0  0  0  0  0  0
   38.7140   28.3390   43.3770 H   0  0  0  0  0  0  0  0  0  0  0  0
   37.3720   29.1170   44.3910 H   0  0  0  0  0  0  0  0  0  0  0  0
   35.6770   27.9520   43.2850 H   0  0  0  0  0  0  0  0  0  0  0  0
   36.8690   26.7660   43.9570 H   0  0  0  0  0  0  0  0  0  0  0  0
   35.9200   26.3610   41.5750 H   0  0  0  0  0  0  0  0  0  0  0  0
   37.6320   26.1040   41.9400 H   0  0  0  0  0  0  0  0  0  0  0  0
   37.9050   27.2540   40.0100 H   0  0  0  0  0  0  0  0  0  0  0  0
   37.6540   32.0970   38.8770 C   0  0  0  0  0  0  0  0  0  0  0  0
   37.5450   31.2080   39.9440 C   0  0  0  0  0  0  0  0  0  0  0  0
   38.1230   29.9450   39.9530 C   0  0  0  0  0  0  0  0  0  0  0  0
   38.8120   29.6070   38.8520 N   0  0  0  0  0  0  0  0  0  0  0  0
   38.9290   30.4610   37.8010 C   0  0  0  0  0  0  0  0  0  0  0  0
   38.3740   31.6690   37.7970 N   0  0  0  0  0  0  0  0  0  0  0  0
   37.1710   33.0560   38.9640 H   0  0  0  0  0  0  0  0  0  0  0  0
   36.9860   31.4960   40.8220 H   0  0  0  0  0  0  0  0  0  0  0  0
   39.5050   30.1120   36.9440 H   0  0  0  0  0  0  0  0  0  0  0  0
   36.0480   28.1390   39.8450 C   0  0  0  0  0  0  0  0  0  0  0  0
   34.9570   28.9510   40.1790 C   0  0  0  0  0  0  0  0  0  0  0  0
   34.0000   29.1300   39.1770 C   0  0  0  0  0  0  0  0  0  0  0  0
   34.2010   28.5040   37.9610 C   0  0  0  0  0  0  0  0  0  0  0  0
   35.2750   27.7120   37.6520 C   0  0  0  0  0  0  0  0  0  0  0  0
   36.2070   27.5370   38.6270 N   0  0  0  0  0  0  0  0  0  0  0  0
   34.9670   29.3450   41.1480 H   0  0  0  0  0  0  0  0  0  0  0  0
   33.1630   29.7540   39.4320 H   0  0  0  0  0  0  0  0  0  0  0  0
   33.4280   28.6780   37.2220 H   0  0  0  0  0  0  0  0  0  0  0  0
   35.3710   27.0940   36.2990 C   0  0  0  0  0  2  0  0  0  0  0  0
   35.5380   28.0620   35.2590 N   0  0  0  0  0  4  0  0  0  0  0  0
   34.8480   28.8320   35.4130 H   0  0  0  0  0  0  0  0  0  0  0  0
   35.2720   27.5000   33.9410 C   0  0  0  0  0  2  0  0  0  0  0  0
   35.5410   26.4220   33.9300 H   0  0  0  0  0  0  0  0  0  0  0  0
   36.8650   28.6320   35.2140 C   0  0  0  0  0  2  0  0  0  0  0  0
   37.5710   27.8070   35.0210 H   0  0  0  0  0  0  0  0  0  0  0  0
  1  7  1  1  0  0  0
  1  2  1  0  0  0  0
  2  9  1  0  0  0  0
  2  3  1  0  0  0  0
  3 11  1  0  0  0  0
  4 12  1  0  0  0  0
  4  3  1  0  0  0  0
  4 13  1  0  0  0  0
  5 15  1  0  0  0  0
  5  4  1  0  0  0  0
  6 16  1  6  0  0  0
  6  1  1  0  0  0  0
  6  5  1  0  0  0  0
  8  2  1  0  0  0  0
 10  3  1  0  0  0  0
 14  5  1  0  0  0  0
 17 23  1  0  0  0  0
 17 18  1  0  0  0  0
 18 19  2  0  0  0  0
 18 24  1  0  0  0  0
 19  1  1  0  0  0  0
 20 19  1  0  0  0  0
 21 20  2  0  0  0  0
 22 21  1  0  0  0  0
 22 17  2  0  0  0  0
 25 21  1  0  0  0  0
 26 27  1  0  0  0  0
 26  6  1  0  0  0  0
 27 32  1  0  0  0  0
 28 33  1  0  0  0  0
 28 27  2  0  0  0  0
 29 28  1  0  0  0  0
 30 29  2  0  0  0  0
 30 31  1  0  0  0  0
 31 26  2  0  0  0  0
 34 29  1  0  0  0  0
 35 30  1  0  0  0  0
 36 37  1  0  0  0  0
 36 35  1  0  0  0  0
 38 36  1  0  0  0  0
 39 38  1  0  0  0  0
 40 36  1  0  0  0  0
 41 40  1  0  0  0  0
M  END
>  <minimizedAffinity>
-4.99238157

$$$$

 OpenBabel03242516513D

 41 43  0  0  1  0  0  0  0  0999 V2000
   36.8300   28.4610   39.5450 C   0  0  1  0  0  0  0  0  0  0  0  0
   35.3720   28.6700   39.6650 C   0  0  0  0  0  0  0  0  0  0  0  0
   34.7920   28.3320   38.2880 C   0  0  0  0  0  0  0  0  0  0  0  0
   35.2340   29.4560   37.3690 C   0  0  0  0  0  0  0  0  0  0  0  0
   36.7200   29.6510   37.3290 C   0  0  0  0  0  0  0  0  0  0  0  0
   37.4670   29.4330   38.5720 C   0  0  1  0  0  0  0  0  0  0  0  0
   37.0070   27.4550   39.0590 H   0  0  0  0  0  0  0  0  0  0  0  0
   35.0560   29.6520   40.0090 H   0  0  0  0  0  0  0  0  0  0  0  0
   34.9900   27.8940   40.3900 H   0  0  0  0  0  0  0  0  0  0  0  0
   35.2160   27.3560   37.9780 H   0  0  0  0  0  0  0  0  0  0  0  0
   33.7050   28.3620   38.3510 H   0  0  0  0  0  0  0  0  0  0  0  0
   34.7350   30.3740   37.7600 H   0  0  0  0  0  0  0  0  0  0  0  0
   34.8430   29.2220   36.3670 H   0  0  0  0  0  0  0  0  0  0  0  0
   36.9160   30.6750   36.9450 H   0  0  0  0  0  0  0  0  0  0  0  0
   37.0800   28.9680   36.5080 H   0  0  0  0  0  0  0  0  0  0  0  0
   38.4590   28.9540   38.3040 H   0  0  0  0  0  0  0  0  0  0  0  0
   37.7230   29.0380   43.1700 C   0  0  0  0  0  0  0  0  0  0  0  0
   37.0590   29.0250   41.9450 C   0  0  0  0  0  0  0  0  0  0  0  0
   37.5700   28.4310   40.8000 C   0  0  0  0  0  0  0  0  0  0  0  0
   38.7740   27.8500   40.9280 N   0  0  0  0  0  0  0  0  0  0  0  0
   39.4380   27.8520   42.1140 C   0  0  0  0  0  0  0  0  0  0  0  0
   38.9430   28.4230   43.2080 N   0  0  0  0  0  0  0  0  0  0  0  0
   37.2430   29.5250   44.0030 H   0  0  0  0  0  0  0  0  0  0  0  0
   36.0910   29.4980   41.8600 H   0  0  0  0  0  0  0  0  0  0  0  0
   40.4100   27.3590   42.1360 H   0  0  0  0  0  0  0  0  0  0  0  0
   37.8490   30.6860   39.2460 C   0  0  0  0  0  0  0  0  0  0  0  0
   36.9980   31.7380   39.6100 C   0  0  0  0  0  0  0  0  0  0  0  0
   37.6040   32.8150   40.2640 C   0  0  0  0  0  0  0  0  0  0  0  0
   38.9660   32.7570   40.4950 C   0  0  0  0  0  0  0  0  0  0  0  0
   39.7820   31.7200   40.1310 C   0  0  0  0  0  0  0  0  0  0  0  0
   39.1940   30.6720   39.4940 N   0  0  0  0  0  0  0  0  0  0  0  0
   35.9910   31.6140   39.3560 H   0  0  0  0  0  0  0  0  0  0  0  0
   36.9530   33.6210   40.5440 H   0  0  0  0  0  0  0  0  0  0  0  0
   39.3810   33.6180   41.0050 H   0  0  0  0  0  0  0  0  0  0  0  0
   41.2390   31.7830   40.4400 C   0  0  0  0  0  2  0  0  0  0  0  0
   41.5020   32.2130   41.7790 N   0  0  0  0  0  4  0  0  0  0  0  0
   40.7640   32.9000   42.0550 H   0  0  0  0  0  0  0  0  0  0  0  0
   42.7880   32.8910   41.8920 C   0  0  0  0  0  2  0  0  0  0  0  0
   43.5000   32.4750   41.1480 H   0  0  0  0  0  0  0  0  0  0  0  0
   41.5100   31.1320   42.7370 C   0  0  0  0  0  2  0  0  0  0  0  0
   42.3150   30.4380   42.4430 H   0  0  0  0  0  0  0  0  0  0  0  0
  1  7  1  6  0  0  0
  1  2  1  0  0  0  0
  1 19  1  0  0  0  0
  2  8  1  0  0  0  0
  2  9  1  0  0  0  0
  3 11  1  0  0  0  0
  3  2  1  0  0  0  0
  4 12  1  0  0  0  0
  4  3  1  0  0  0  0
  5  4  1  0  0  0  0
  5  6  1  0  0  0  0
  6 16  1  6  0  0  0
  6 26  1  0  0  0  0
  6  1  1  0  0  0  0
 10  3  1  0  0  0  0
 13  4  1  0  0  0  0
 14  5  1  0  0  0  0
 15  5  1  0  0  0  0
 17 22  1  0  0  0  0
 17 23  1  0  0  0  0
 18 17  2  0  0  0  0
 19 20  2  0  0  0  0
 19 18  1  0  0  0  0
 20 21  1  0  0  0  0
 21 25  1  0  0  0  0
 21 22  2  0  0  0  0
 24 18  1  0  0  0  0
 26 31  2  0  0  0  0
 26 27  1  0  0  0  0
 27 28  2  0  0  0  0
 28 29  1  0  0  0  0
 28 33  1  0  0  0  0
 29 34  1  0  0  0  0
 30 35  1  0  0  0  0
 30 29  2  0  0  0  0
 31 30  1  0  0  0  0
 32 27  1  0  0  0  0
 35 36  1  0  0  0  0
 36 38  1  0  0  0  0
 36 37  1  0  0  0  0
 36 40  1  0  0  0  0
 39 38  1  0  0  0  0
 41 40  1  0  0  0  0
M  END
>  <minimizedAffinity>
-4.96473646

$$$$

 OpenBabel03242516513D

 41 43  0  0  1  0  0  0  0  0999 V2000
   37.7260   31.3800   39.4290 C   0  0  1  0  0  0  0  0  0  0  0  0
   37.4110   32.5810   40.2300 C   0  0  0  0  0  0  0  0  0  0  0  0
   38.5740   33.5500   39.9930 C   0  0  0  0  0  0  0  0  0  0  0  0
   39.7660   32.9480   40.7130 C   0  0  0  0  0  0  0  0  0  0  0  0
   40.0900   31.5510   40.2750 C   0  0  0  0  0  0  0  0  0  0  0  0
   38.9700   30.6720   39.9250 C   0  0  1  0  0  0  0  0  0  0  0  0
   38.0160   31.7120   38.3870 H   0  0  0  0  0  0  0  0  0  0  0  0
   37.2310   32.4150   41.2900 H   0  0  0  0  0  0  0  0  0  0  0  0
   36.4890   33.0440   39.7750 H   0  0  0  0  0  0  0  0  0  0  0  0
   38.7410   33.6080   38.8990 H   0  0  0  0  0  0  0  0  0  0  0  0
   38.3390   34.4990   40.4730 H   0  0  0  0  0  0  0  0  0  0  0  0
   39.4950   32.9590   41.7960 H   0  0  0  0  0  0  0  0  0  0  0  0
   40.6180   33.6210   40.5390 H   0  0  0  0  0  0  0  0  0  0  0  0
   40.7050   31.0820   41.0730 H   0  0  0  0  0  0  0  0  0  0  0  0
   40.8000   31.6770   39.4090 H   0  0  0  0  0  0  0  0  0  0  0  0
   39.2940   30.0250   39.0530 H   0  0  0  0  0  0  0  0  0  0  0  0
   35.4440   28.8290   37.8290 C   0  0  0  0  0  0  0  0  0  0  0  0
   36.4750   29.7380   38.0610 C   0  0  0  0  0  0  0  0  0  0  0  0
   36.6320   30.4330   39.2520 C   0  0  0  0  0  0  0  0  0  0  0  0
   35.7160   30.1830   40.2020 N   0  0  0  0  0  0  0  0  0  0  0  0
   34.7040   29.3010   39.9940 C   0  0  0  0  0  0  0  0  0  0  0  0
   34.5580   28.6370   38.8510 N   0  0  0  0  0  0  0  0  0  0  0  0
   35.4070   28.3370   36.8700 H   0  0  0  0  0  0  0  0  0  0  0  0
   37.2020   29.9270   37.2850 H   0  0  0  0  0  0  0  0  0  0  0  0
   34.0010   29.1540   40.8150 H   0  0  0  0  0  0  0  0  0  0  0  0
   38.6420   29.7010   40.9840 C   0  0  0  0  0  0  0  0  0  0  0  0
   38.3720   29.9830   42.3300 C   0  0  0  0  0  0  0  0  0  0  0  0
   38.0640   28.8830   43.1340 C   0  0  0  0  0  0  0  0  0  0  0  0
   38.0490   27.6300   42.5510 C   0  0  0  0  0  0  0  0  0  0  0  0
   38.3160   27.3730   41.2330 C   0  0  0  0  0  0  0  0  0  0  0  0
   38.6170   28.4420   40.4490 N   0  0  0  0  0  0  0  0  0  0  0  0
   38.4290   30.9930   42.6000 H   0  0  0  0  0  0  0  0  0  0  0  0
   37.8560   29.0990   44.1660 H   0  0  0  0  0  0  0  0  0  0  0  0
   37.8030   26.8150   43.2220 H   0  0  0  0  0  0  0  0  0  0  0  0
   38.2660   25.9710   40.7300 C   0  0  0  0  0  2  0  0  0  0  0  0
   36.9320   25.4680   40.6240 N   0  0  0  0  0  4  0  0  0  0  0  0
   36.3090   26.0590   41.2190 H   0  0  0  0  0  0  0  0  0  0  0  0
   36.8230   24.0980   41.1100 C   0  0  0  0  0  2  0  0  0  0  0  0
   37.7790   23.5600   40.9370 H   0  0  0  0  0  0  0  0  0  0  0  0
   36.4220   25.4760   39.2720 C   0  0  0  0  0  2  0  0  0  0  0  0
   37.0760   24.8230   38.6700 H   0  0  0  0  0  0  0  0  0  0  0  0
  1  7  1  6  0  0  0
  1  6  1  0  0  0  0
  1  2  1  0  0  0  0
  2  8  1  0  0  0  0
  3  2  1  0  0  0  0
  3 11  1  0  0  0  0
  3  4  1  0  0  0  0
  4 12  1  0  0  0  0
  5  4  1  0  0  0  0
  5 14  1  0  0  0  0
  6 16  1  6  0  0  0
  6  5  1  0  0  0  0
  6 26  1  0  0  0  0
  9  2  1  0  0  0  0
 10  3  1  0  0  0  0
 13  4  1  0  0  0  0
 15  5  1  0  0  0  0
 17 18  2  0  0  0  0
 17 22  1  0  0  0  0
 18 19  1  0  0  0  0
 19  1  1  0  0  0  0
 19 20  2  0  0  0  0
 21 20  1  0  0  0  0
 21 25  1  0  0  0  0
 22 21  2  0  0  0  0
 23 17  1  0  0  0  0
 24 18  1  0  0  0  0
 26 27  1  0  0  0  0
 27 32  1  0  0  0  0
 27 28  2  0  0  0  0
 28 33  1  0  0  0  0
 29 28  1  0  0  0  0
 29 34  1  0  0  0  0
 30 29  2  0  0  0  0
 31 26  2  0  0  0  0
 31 30  1  0  0  0  0
 35 30  1  0  0  0  0
 36 35  1  0  0  0  0
 36 38  1  0  0  0  0
 36 37  1  0  0  0  0
 39 38  1  0  0  0  0
 40 36  1  0  0  0  0
 41 40  1  0  0  0  0
M  END
>  <minimizedAffinity>
-4.96330881

$$$$
