
 OpenBabel03252507073D

 22 22  0  0  0  0  0  0  0  0999 V2000
   44.5770   35.6210   44.7040 C   0  0  0  0  0  0  0  0  0  0  0  0
   45.1400   35.7320   43.4220 C   0  0  0  0  0  0  0  0  0  0  0  0
   46.1870   34.8610   43.1210 C   0  0  0  0  0  0  0  0  0  0  0  0
   46.6100   33.9690   44.0460 N   0  0  0  0  0  0  0  0  0  0  0  0
   46.0420   33.8900   45.2750 C   0  0  0  0  0  0  0  0  0  0  0  0
   45.0210   34.7230   45.5980 N   0  0  0  0  0  0  0  0  0  0  0  0
   43.7650   36.3100   44.9100 H   0  0  0  0  0  0  0  0  0  0  0  0
   44.7770   36.4550   42.7110 H   0  0  0  0  0  0  0  0  0  0  0  0
   46.7470   34.9730   41.8440 O   0  0  0  0  0  0  0  0  0  0  0  0
   48.6210   33.2430   41.1520 O   0  0  0  0  0  0  0  0  0  0  0  0
   48.4180   34.6770   41.6400 P   0  0  0  0  0  0  0  0  0  0  0  0
   49.0500   35.7900   40.5740 O   0  0  0  0  0  0  0  0  0  0  0  0
   49.8790   36.1670   40.9660 H   0  0  0  0  0  0  0  0  0  0  0  0
   49.1510   34.7970   43.1650 O   0  0  0  0  0  0  0  0  0  0  0  0
   49.2140   33.9200   43.6160 H   0  0  0  0  0  0  0  0  0  0  0  0
   46.5570   32.8970   46.2190 C   0  0  0  0  0  2  0  0  0  0  0  0
   45.5270   31.9560   46.5840 N   0  0  0  0  0  4  0  0  0  0  0  0
   44.6540   32.2840   46.0930 H   0  0  0  0  0  0  0  0  0  0  0  0
   45.2260   32.0470   48.0040 C   0  0  0  0  0  2  0  0  0  0  0  0
   45.7540   31.2680   48.5870 H   0  0  0  0  0  0  0  0  0  0  0  0
   45.7580   30.6120   46.1590 C   0  0  0  0  0  2  0  0  0  0  0  0
   45.6120   29.8760   46.9990 H   0  0  0  0  0  0  0  0  0  0  0  0
  1  7  1  0  0  0  0
  1  6  1  0  0  0  0
  2  1  2  0  0  0  0
  3  2  1  0  0  0  0
  3  4  2  0  0  0  0
  4  5  1  0  0  0  0
  5  6  2  0  0  0  0
  5 16  1  0  0  0  0
  8  2  1  0  0  0  0
  9  3  1  0  0  0  0
 10 11  2  0  0  0  0
 11  9  1  0  0  0  0
 11 14  1  0  0  0  0
 12 13  1  0  0  0  0
 12 11  1  0  0  0  0
 14 15  1  0  0  0  0
 16 17  1  0  0  0  0
 17 19  1  0  0  0  0
 18 17  1  0  0  0  0
 19 20  1  0  0  0  0
 21 17  1  0  0  0  0
 21 22  1  0  0  0  0
M  END
>  <minimizedAffinity>
-4.97057533

>  <minimizedRMSD>
1.07268751

$$$$
