
 OpenBabel03252501053D

 38 40  0  0  1  0  0  0  0  0999 V2000
   48.6990   32.3940   38.1640 O   0  0  0  0  0  0  0  0  0  0  0  0
   48.1280   33.8070   38.2730 P   0  0  2  0  0  0  0  0  0  0  0  0
   49.3000   34.8170   37.5780 O   0  0  0  0  0  0  0  0  0  0  0  0
   48.9020   35.7270   37.5340 H   0  0  0  0  0  0  0  0  0  0  0  0
   47.7120   34.1930   39.8070 O   0  0  0  0  0  0  0  0  0  0  0  0
   48.0760   35.4670   41.8320 C   0  0  1  0  0  0  0  0  0  0  0  0
   49.3000   34.6690   41.6810 C   0  0  0  0  0  0  0  0  0  0  0  0
   48.4540   35.1030   40.4700 C   0  0  1  0  0  0  0  0  0  0  0  0
   48.1630   36.5090   42.1750 H   0  0  0  0  0  0  0  0  0  0  0  0
   49.3190   33.5560   41.8310 H   0  0  0  0  0  0  0  0  0  0  0  0
   50.3080   35.1080   41.7890 H   0  0  0  0  0  0  0  0  0  0  0  0
   49.0050   35.8240   39.8380 H   0  0  0  0  0  0  0  0  0  0  0  0
   46.0350   32.9350   43.7770 C   0  0  0  0  0  0  0  0  0  0  0  0
   47.1300   33.6170   43.2550 C   0  0  0  0  0  0  0  0  0  0  0  0
   46.9070   34.7260   42.4180 C   0  0  0  0  0  0  0  0  0  0  0  0
   45.6300   35.0960   42.1450 N   0  0  0  0  0  0  0  0  0  0  0  0
   44.5780   34.4170   42.6630 C   0  0  0  0  0  0  0  0  0  0  0  0
   44.7780   33.3410   43.4760 N   0  0  0  0  0  0  0  0  0  0  0  0
   46.2160   32.0840   44.4200 H   0  0  0  0  0  0  0  0  0  0  0  0
   48.1150   33.2830   43.5020 H   0  0  0  0  0  0  0  0  0  0  0  0
   43.5920   34.7880   42.3880 H   0  0  0  0  0  0  0  0  0  0  0  0
   46.7910   33.8160   37.2590 O   0  0  0  0  0  0  0  0  0  0  0  0
   45.7470   32.9080   37.3480 C   0  0  0  0  0  0  0  0  0  0  0  0
   45.7170   31.5940   36.9170 C   0  0  0  0  0  0  0  0  0  0  0  0
   44.6020   30.8320   37.0820 C   0  0  0  0  0  0  0  0  0  0  0  0
   43.4700   31.3390   37.6800 C   0  0  0  0  0  0  0  0  0  0  0  0
   43.5370   32.6720   38.1030 C   0  0  0  0  0  0  0  0  0  0  0  0
   44.6610   33.4250   37.9320 N   0  0  0  0  0  0  0  0  0  0  0  0
   46.6400   31.2610   36.4560 H   0  0  0  0  0  0  0  0  0  0  0  0
   44.6480   29.8130   36.7210 H   0  0  0  0  0  0  0  0  0  0  0  0
   42.5940   30.7490   37.8120 H   0  0  0  0  0  0  0  0  0  0  0  0
   42.3180   33.2220   38.7490 C   0  0  0  0  0  2  0  0  0  0  0  0
   41.5360   34.0880   37.9230 N   0  0  0  0  0  4  0  0  0  0  0  0
   41.6960   33.9530   36.8990 H   0  0  0  0  0  0  0  0  0  0  0  0
   40.1350   33.7490   38.1290 C   0  0  0  0  0  2  0  0  0  0  0  0
   40.0140   33.1730   39.0840 H   0  0  0  0  0  0  0  0  0  0  0  0
   41.6750   35.4790   38.3160 C   0  0  0  0  0  2  0  0  0  0  0  0
   41.0290   35.6330   39.2240 H   0  0  0  0  0  0  0  0  0  0  0  0
  2  1  2  1  0  0  0
  2  5  1  0  0  0  0
  3  2  1  0  0  0  0
  4  3  1  0  0  0  0
  5  8  1  0  0  0  0
  6  9  1  1  0  0  0
  6 15  1  0  0  0  0
  7 11  1  0  0  0  0
  7 10  1  0  0  0  0
  7  6  1  0  0  0  0
  8 12  1  6  0  0  0
  8  7  1  0  0  0  0
  8  6  1  0  0  0  0
 13 19  1  0  0  0  0
 14 20  1  0  0  0  0
 14 13  2  0  0  0  0
 15 14  1  0  0  0  0
 16 15  2  0  0  0  0
 16 17  1  0  0  0  0
 17 18  2  0  0  0  0
 18 13  1  0  0  0  0
 21 17  1  0  0  0  0
 22 23  1  0  0  0  0
 22  2  1  0  0  0  0
 23 28  1  0  0  0  0
 24 25  1  0  0  0  0
 24 23  2  0  0  0  0
 25 26  2  0  0  0  0
 26 31  1  0  0  0  0
 26 27  1  0  0  0  0
 27 32  1  0  0  0  0
 28 27  2  0  0  0  0
 29 24  1  0  0  0  0
 30 25  1  0  0  0  0
 33 35  1  0  0  0  0
 33 37  1  0  0  0  0
 33 32  1  0  0  0  0
 34 33  1  0  0  0  0
 35 36  1  0  0  0  0
 37 38  1  0  0  0  0
M  END
>  <minimizedAffinity>
-4.83960056

>  <minimizedRMSD>
1.2744571

$$$$
