
 OpenBabel03242523213D

 35 37  0  0  0  0  0  0  0  0999 V2000
   35.3400   28.5790   39.5580 C   0  0  0  0  0  0  0  0  0  0  0  0
   34.2700   29.1350   39.5100 O   0  0  0  0  0  0  0  0  0  0  0  0
   36.2350   30.9890   41.2580 Cl  0  0  0  0  0  0  0  0  0  0  0  0
   36.6500   30.8120   39.5500 C   0  0  0  0  0  0  0  0  0  0  0  0
   36.1560   29.6470   38.9250 C   0  0  0  0  0  0  0  0  0  0  0  0
   36.5300   29.6250   37.5920 C   0  0  0  0  0  0  0  0  0  0  0  0
   37.2430   30.5060   36.8770 C   0  0  0  0  0  0  0  0  0  0  0  0
   37.6820   31.6030   37.5570 C   0  0  0  0  0  0  0  0  0  0  0  0
   37.4050   31.7740   38.8700 C   0  0  0  0  0  0  0  0  0  0  0  0
   36.2520   28.7530   36.9600 H   0  0  0  0  0  0  0  0  0  0  0  0
   37.5020   30.4330   35.8320 H   0  0  0  0  0  0  0  0  0  0  0  0
   38.2710   32.4020   37.1140 H   0  0  0  0  0  0  0  0  0  0  0  0
   37.9000   32.9570   39.6410 C   0  0  0  0  0  2  0  0  0  0  0  0
   39.2880   32.8640   39.9680 N   0  0  0  0  0  4  0  0  0  0  0  0
   39.7300   32.2940   39.1810 H   0  0  0  0  0  0  0  0  0  0  0  0
   39.6130   32.2360   41.2070 C   0  0  0  0  0  2  0  0  0  0  0  0
   39.9860   32.9940   41.9580 H   0  0  0  0  0  0  0  0  0  0  0  0
   39.9270   34.1610   39.9050 C   0  0  0  0  0  2  0  0  0  0  0  0
   40.4660   34.3140   38.9330 H   0  0  0  0  0  0  0  0  0  0  0  0
   36.2170   27.4520   39.8950 C   0  0  0  0  0  0  0  0  0  0  0  0
   36.8030   27.2290   41.0810 C   0  0  0  0  0  0  0  0  0  0  0  0
   37.6580   26.1470   41.1050 C   0  0  0  0  0  0  0  0  0  0  0  0
   37.8320   25.3960   39.9270 N   0  0  0  0  0  0  0  0  0  0  0  0
   37.2170   25.6770   38.8020 C   0  0  0  0  0  0  0  0  0  0  0  0
   36.3570   26.7540   38.7400 N   0  0  0  0  0  0  0  0  0  0  0  0
   38.2130   25.8330   41.9800 H   0  0  0  0  0  0  0  0  0  0  0  0
   37.4480   25.0070   37.9790 H   0  0  0  0  0  0  0  0  0  0  0  0
   36.5410   27.9150   42.2970 C   0  0  0  0  0  0  0  0  0  0  0  0
   36.7600   27.5030   43.5730 C   0  0  0  0  0  0  0  0  0  0  0  0
   37.7990   28.4750   43.0860 C   0  0  0  0  0  0  0  0  0  0  0  0
   35.6900   28.6190   42.2320 H   0  0  0  0  0  0  0  0  0  0  0  0
   37.1870   26.4890   43.7740 H   0  0  0  0  0  0  0  0  0  0  0  0
   36.2710   27.8540   44.5200 H   0  0  0  0  0  0  0  0  0  0  0  0
   38.7590   28.0950   42.7120 H   0  0  0  0  0  0  0  0  0  0  0  0
   37.6960   29.5340   43.3630 H   0  0  0  0  0  0  0  0  0  0  0  0
  1 20  1  0  0  0  0
  2  1  2  0  0  0  0
  4  3  1  0  0  0  0
  5  4  1  0  0  0  0
  5  1  1  0  0  0  0
  6  5  2  0  0  0  0
  7  8  2  0  0  0  0
  7  6  1  0  0  0  0
  8  9  1  0  0  0  0
  9  4  2  0  0  0  0
  9 13  1  0  0  0  0
 10  6  1  0  0  0  0
 11  7  1  0  0  0  0
 12  8  1  0  0  0  0
 13 14  1  0  0  0  0
 14 16  1  0  0  0  0
 15 14  1  0  0  0  0
 16 17  1  0  0  0  0
 18 14  1  0  0  0  0
 19 18  1  0  0  0  0
 20 21  1  0  0  0  0
 21 22  2  0  0  0  0
 21 28  1  0  0  0  0
 22 26  1  0  0  0  0
 23 22  1  0  0  0  0
 24 23  2  0  0  0  0
 25 24  1  0  0  0  0
 25 20  2  0  0  0  0
 27 24  1  0  0  0  0
 28 30  1  0  0  0  0
 28 29  1  0  0  0  0
 29 32  1  0  0  0  0
 29 33  1  0  0  0  0
 30 35  1  0  0  0  0
 30 29  1  0  0  0  0
 31 28  1  0  0  0  0
 34 30  1  0  0  0  0
M  END
>  <minimizedAffinity>
-5.49696922

$$$$

 OpenBabel03242523213D

 35 37  0  0  0  0  0  0  0  0999 V2000
   36.6280   29.7340   39.8970 C   0  0  0  0  0  0  0  0  0  0  0  0
   35.4270   29.6740   39.9940 O   0  0  0  0  0  0  0  0  0  0  0  0
   36.3880   26.6660   39.7070 Cl  0  0  0  0  0  0  0  0  0  0  0  0
   36.9210   27.4990   41.1710 C   0  0  0  0  0  0  0  0  0  0  0  0
   36.9720   28.9070   41.0830 C   0  0  0  0  0  0  0  0  0  0  0  0
   37.3860   29.4470   42.2880 C   0  0  0  0  0  0  0  0  0  0  0  0
   37.7150   28.8450   43.4390 C   0  0  0  0  0  0  0  0  0  0  0  0
   37.6400   27.4850   43.4400 C   0  0  0  0  0  0  0  0  0  0  0  0
   37.2530   26.8010   42.3370 C   0  0  0  0  0  0  0  0  0  0  0  0
   37.5160   30.5480   42.3790 H   0  0  0  0  0  0  0  0  0  0  0  0
   38.0310   29.3250   44.3530 H   0  0  0  0  0  0  0  0  0  0  0  0
   37.8750   26.8590   44.2970 H   0  0  0  0  0  0  0  0  0  0  0  0
   37.1890   25.3070   42.3090 C   0  0  0  0  0  2  0  0  0  0  0  0
   38.3700   24.7120   41.7670 N   0  0  0  0  0  4  0  0  0  0  0  0
   38.8420   25.4810   41.1960 H   0  0  0  0  0  0  0  0  0  0  0  0
   38.1860   23.5800   40.9190 C   0  0  0  0  0  2  0  0  0  0  0  0
   38.5300   22.6330   41.4300 H   0  0  0  0  0  0  0  0  0  0  0  0
   39.3150   24.3800   42.8120 C   0  0  0  0  0  2  0  0  0  0  0  0
   40.1100   25.1630   42.9200 H   0  0  0  0  0  0  0  0  0  0  0  0
   37.8710   30.1760   39.2540 C   0  0  0  0  0  0  0  0  0  0  0  0
   38.4060   31.4040   39.3220 C   0  0  0  0  0  0  0  0  0  0  0  0
   39.5330   31.5840   38.5460 C   0  0  0  0  0  0  0  0  0  0  0  0
   40.0070   30.5000   37.7820 N   0  0  0  0  0  0  0  0  0  0  0  0
   39.4270   29.3230   37.7720 C   0  0  0  0  0  0  0  0  0  0  0  0
   38.2970   29.1080   38.5340 N   0  0  0  0  0  0  0  0  0  0  0  0
   40.0820   32.5140   38.4830 H   0  0  0  0  0  0  0  0  0  0  0  0
   39.9090   28.5850   37.1370 H   0  0  0  0  0  0  0  0  0  0  0  0
   37.9960   32.4610   40.1790 C   0  0  0  0  0  0  0  0  0  0  0  0
   38.4680   33.7320   40.2500 C   0  0  0  0  0  0  0  0  0  0  0  0
   37.1600   33.6340   39.5150 C   0  0  0  0  0  0  0  0  0  0  0  0
   37.6040   32.1110   41.1520 H   0  0  0  0  0  0  0  0  0  0  0  0
   39.3060   34.0630   39.5870 H   0  0  0  0  0  0  0  0  0  0  0  0
   38.4130   34.4570   41.1060 H   0  0  0  0  0  0  0  0  0  0  0  0
   37.1600   33.6100   38.4170 H   0  0  0  0  0  0  0  0  0  0  0  0
   36.2340   33.8650   40.0600 H   0  0  0  0  0  0  0  0  0  0  0  0
  1  2  2  0  0  0  0
  1  5  1  0  0  0  0
  3  4  1  0  0  0  0
  4  9  1  0  0  0  0
  5  4  2  0  0  0  0
  5  6  1  0  0  0  0
  6 10  1  0  0  0  0
  6  7  2  0  0  0  0
  7  8  1  0  0  0  0
  7 11  1  0  0  0  0
  8 12  1  0  0  0  0
  9  8  2  0  0  0  0
 13  9  1  0  0  0  0
 14 13  1  0  0  0  0
 14 18  1  0  0  0  0
 15 14  1  0  0  0  0
 16 17  1  0  0  0  0
 16 14  1  0  0  0  0
 18 19  1  0  0  0  0
 20 21  1  0  0  0  0
 20  1  1  0  0  0  0
 21 28  1  0  0  0  0
 22 21  2  0  0  0  0
 23 22  1  0  0  0  0
 24 23  2  0  0  0  0
 24 25  1  0  0  0  0
 25 20  2  0  0  0  0
 26 22  1  0  0  0  0
 27 24  1  0  0  0  0
 28 29  1  0  0  0  0
 28 31  1  0  0  0  0
 29 33  1  0  0  0  0
 30 35  1  0  0  0  0
 30 28  1  0  0  0  0
 30 29  1  0  0  0  0
 32 29  1  0  0  0  0
 34 30  1  0  0  0  0
M  END
>  <minimizedAffinity>
-5.21945286

$$$$

 OpenBabel03242523213D

 35 37  0  0  0  0  0  0  0  0999 V2000
   35.7860   28.9160   40.7180 C   0  0  0  0  0  0  0  0  0  0  0  0
   34.6080   29.0440   40.4860 O   0  0  0  0  0  0  0  0  0  0  0  0
   35.8290   27.3650   38.0550 Cl  0  0  0  0  0  0  0  0  0  0  0  0
   36.4030   29.0290   38.2060 C   0  0  0  0  0  0  0  0  0  0  0  0
   36.3110   29.5860   39.5000 C   0  0  0  0  0  0  0  0  0  0  0  0
   36.8010   30.8810   39.5000 C   0  0  0  0  0  0  0  0  0  0  0  0
   37.3140   31.6120   38.5020 C   0  0  0  0  0  0  0  0  0  0  0  0
   37.3670   31.0000   37.2850 C   0  0  0  0  0  0  0  0  0  0  0  0
   36.9240   29.7330   37.1150 C   0  0  0  0  0  0  0  0  0  0  0  0
   36.7670   31.4790   40.4370 H   0  0  0  0  0  0  0  0  0  0  0  0
   37.6840   32.6240   38.5640 H   0  0  0  0  0  0  0  0  0  0  0  0
   37.7560   31.4650   36.3830 H   0  0  0  0  0  0  0  0  0  0  0  0
   36.9480   29.0530   35.7830 C   0  0  0  0  0  2  0  0  0  0  0  0
   35.9740   29.5750   34.8770 N   0  0  0  0  0  4  0  0  0  0  0  0
   35.8450   30.5980   35.1530 H   0  0  0  0  0  0  0  0  0  0  0  0
   34.6920   28.9490   34.8820 C   0  0  0  0  0  2  0  0  0  0  0  0
   34.5340   28.3460   33.9400 H   0  0  0  0  0  0  0  0  0  0  0  0
   36.4860   29.6080   33.5230 C   0  0  0  0  0  2  0  0  0  0  0  0
   36.8650   30.6260   33.2450 H   0  0  0  0  0  0  0  0  0  0  0  0
   36.9190   28.4650   41.5340 C   0  0  0  0  0  0  0  0  0  0  0  0
   37.3840   27.2090   41.6220 C   0  0  0  0  0  0  0  0  0  0  0  0
   38.4030   27.0370   42.5360 C   0  0  0  0  0  0  0  0  0  0  0  0
   38.8520   28.1540   43.2670 N   0  0  0  0  0  0  0  0  0  0  0  0
   38.3460   29.3560   43.1190 C   0  0  0  0  0  0  0  0  0  0  0  0
   37.3250   29.5650   42.2170 N   0  0  0  0  0  0  0  0  0  0  0  0
   38.8860   26.0880   42.7330 H   0  0  0  0  0  0  0  0  0  0  0  0
   38.7970   30.1180   43.7490 H   0  0  0  0  0  0  0  0  0  0  0  0
   37.0110   26.1090   40.8050 C   0  0  0  0  0  0  0  0  0  0  0  0
   37.7400   25.0140   40.4650 C   0  0  0  0  0  0  0  0  0  0  0  0
   36.7320   24.7330   41.5460 C   0  0  0  0  0  0  0  0  0  0  0  0
   36.2700   26.3700   40.0270 H   0  0  0  0  0  0  0  0  0  0  0  0
   38.7930   24.9020   40.8240 H   0  0  0  0  0  0  0  0  0  0  0  0
   37.6120   24.3290   39.5850 H   0  0  0  0  0  0  0  0  0  0  0  0
   37.0570   24.7220   42.5940 H   0  0  0  0  0  0  0  0  0  0  0  0
   35.7730   24.2790   41.2610 H   0  0  0  0  0  0  0  0  0  0  0  0
  1 20  1  0  0  0  0
  2  1  2  0  0  0  0
  3  4  1  0  0  0  0
  4  5  1  0  0  0  0
  5  6  2  0  0  0  0
  5  1  1  0  0  0  0
  6 10  1  0  0  0  0
  7 11  1  0  0  0  0
  7  6  1  0  0  0  0
  8  7  2  0  0  0  0
  9  8  1  0  0  0  0
  9  4  2  0  0  0  0
 12  8  1  0  0  0  0
 13  9  1  0  0  0  0
 14 16  1  0  0  0  0
 14 15  1  0  0  0  0
 14 13  1  0  0  0  0
 17 16  1  0  0  0  0
 18 14  1  0  0  0  0
 19 18  1  0  0  0  0
 20 21  2  0  0  0  0
 20 25  1  0  0  0  0
 21 22  1  0  0  0  0
 22 26  1  0  0  0  0
 22 23  2  0  0  0  0
 24 23  1  0  0  0  0
 24 27  1  0  0  0  0
 25 24  2  0  0  0  0
 28 30  1  0  0  0  0
 28 21  1  0  0  0  0
 29 28  1  0  0  0  0
 29 32  1  0  0  0  0
 29 30  1  0  0  0  0
 30 34  1  0  0  0  0
 31 28  1  0  0  0  0
 33 29  1  0  0  0  0
 35 30  1  0  0  0  0
M  END
>  <minimizedAffinity>
-5.1624589

$$$$

 OpenBabel03242523213D

 35 37  0  0  0  0  0  0  0  0999 V2000
   37.1680   27.1550   42.9940 C   0  0  0  0  0  0  0  0  0  0  0  0
   36.1820   27.4350   43.6320 O   0  0  0  0  0  0  0  0  0  0  0  0
   38.7470   29.7980   43.1470 Cl  0  0  0  0  0  0  0  0  0  0  0  0
   37.6470   29.4120   41.8200 C   0  0  0  0  0  0  0  0  0  0  0  0
   37.0050   28.1580   41.9100 C   0  0  0  0  0  0  0  0  0  0  0  0
   36.1610   27.9740   40.8280 C   0  0  0  0  0  0  0  0  0  0  0  0
   35.8960   28.7780   39.7900 C   0  0  0  0  0  0  0  0  0  0  0  0
   36.5570   29.9690   39.7790 C   0  0  0  0  0  0  0  0  0  0  0  0
   37.4230   30.3020   40.7640 C   0  0  0  0  0  0  0  0  0  0  0  0
   35.6030   27.0170   40.7260 H   0  0  0  0  0  0  0  0  0  0  0  0
   35.2210   28.5780   38.9720 H   0  0  0  0  0  0  0  0  0  0  0  0
   36.4470   30.7230   39.0030 H   0  0  0  0  0  0  0  0  0  0  0  0
   38.1790   31.5930   40.7570 C   0  0  0  0  0  2  0  0  0  0  0  0
   39.4410   31.4920   40.0930 N   0  0  0  0  0  4  0  0  0  0  0  0
   39.5690   30.4550   39.8780 H   0  0  0  0  0  0  0  0  0  0  0  0
   40.5850   31.9400   40.8180 C   0  0  0  0  0  2  0  0  0  0  0  0
   40.9840   32.9050   40.3880 H   0  0  0  0  0  0  0  0  0  0  0  0
   39.4050   32.1470   38.8020 C   0  0  0  0  0  2  0  0  0  0  0  0
   39.2370   31.4160   37.9680 H   0  0  0  0  0  0  0  0  0  0  0  0
   38.3850   26.3770   42.7370 C   0  0  0  0  0  0  0  0  0  0  0  0
   38.5340   25.4180   41.8110 C   0  0  0  0  0  0  0  0  0  0  0  0
   39.7540   24.7740   41.8410 C   0  0  0  0  0  0  0  0  0  0  0  0
   40.7030   25.1690   42.8040 N   0  0  0  0  0  0  0  0  0  0  0  0
   40.4820   26.1230   43.6780 C   0  0  0  0  0  0  0  0  0  0  0  0
   39.2730   26.7860   43.6790 N   0  0  0  0  0  0  0  0  0  0  0  0
   40.0340   23.9750   41.1670 H   0  0  0  0  0  0  0  0  0  0  0  0
   41.3080   26.3180   44.3550 H   0  0  0  0  0  0  0  0  0  0  0  0
   37.6230   25.0990   40.7680 C   0  0  0  0  0  0  0  0  0  0  0  0
   37.5360   23.9610   40.0310 C   0  0  0  0  0  0  0  0  0  0  0  0
   36.4910   24.0410   41.1100 C   0  0  0  0  0  0  0  0  0  0  0  0
   37.2710   25.9830   40.2050 H   0  0  0  0  0  0  0  0  0  0  0  0
   38.2570   23.1230   40.1980 H   0  0  0  0  0  0  0  0  0  0  0  0
   37.0800   23.8130   39.0160 H   0  0  0  0  0  0  0  0  0  0  0  0
   36.6530   23.5110   42.0570 H   0  0  0  0  0  0  0  0  0  0  0  0
   35.4840   24.3870   40.8370 H   0  0  0  0  0  0  0  0  0  0  0  0
  1  2  2  0  0  0  0
  4  5  1  0  0  0  0
  4  3  1  0  0  0  0
  5  1  1  0  0  0  0
  6  5  2  0  0  0  0
  7  6  1  0  0  0  0
  8  7  2  0  0  0  0
  8  9  1  0  0  0  0
  9  4  2  0  0  0  0
 10  6  1  0  0  0  0
 11  7  1  0  0  0  0
 12  8  1  0  0  0  0
 13  9  1  0  0  0  0
 14 13  1  0  0  0  0
 14 16  1  0  0  0  0
 15 14  1  0  0  0  0
 17 16  1  0  0  0  0
 18 14  1  0  0  0  0
 19 18  1  0  0  0  0
 20  1  1  0  0  0  0
 20 25  1  0  0  0  0
 21 22  1  0  0  0  0
 21 20  2  0  0  0  0
 22 23  2  0  0  0  0
 23 24  1  0  0  0  0
 24 25  2  0  0  0  0
 24 27  1  0  0  0  0
 26 22  1  0  0  0  0
 28 30  1  0  0  0  0
 28 21  1  0  0  0  0
 29 32  1  0  0  0  0
 29 28  1  0  0  0  0
 29 30  1  0  0  0  0
 30 34  1  0  0  0  0
 31 28  1  0  0  0  0
 33 29  1  0  0  0  0
 35 30  1  0  0  0  0
M  END
>  <minimizedAffinity>
-5.10073328

$$$$

 OpenBabel03242523213D

 35 37  0  0  0  0  0  0  0  0999 V2000
   39.6080   30.0370   40.5630 C   0  0  0  0  0  0  0  0  0  0  0  0
   40.6450   29.4230   40.4950 O   0  0  0  0  0  0  0  0  0  0  0  0
   39.0460   27.1520   39.6340 Cl  0  0  0  0  0  0  0  0  0  0  0  0
   38.5410   27.7680   41.2100 C   0  0  0  0  0  0  0  0  0  0  0  0
   38.8810   29.1130   41.4720 C   0  0  0  0  0  0  0  0  0  0  0  0
   38.4230   29.4880   42.7240 C   0  0  0  0  0  0  0  0  0  0  0  0
   37.7480   28.7870   43.6440 C   0  0  0  0  0  0  0  0  0  0  0  0
   37.4610   27.4970   43.3140 C   0  0  0  0  0  0  0  0  0  0  0  0
   37.8410   26.9740   42.1250 C   0  0  0  0  0  0  0  0  0  0  0  0
   38.6400   30.5110   43.1020 H   0  0  0  0  0  0  0  0  0  0  0  0
   37.4150   29.1380   44.6090 H   0  0  0  0  0  0  0  0  0  0  0  0
   36.9210   26.8060   43.9570 H   0  0  0  0  0  0  0  0  0  0  0  0
   37.5590   25.5520   41.7540 C   0  0  0  0  0  2  0  0  0  0  0  0
   38.7470   24.7690   41.6160 N   0  0  0  0  0  4  0  0  0  0  0  0
   39.4620   25.4130   41.1510 H   0  0  0  0  0  0  0  0  0  0  0  0
   38.6450   23.5810   40.8330 C   0  0  0  0  0  2  0  0  0  0  0  0
   38.6970   22.6620   41.4870 H   0  0  0  0  0  0  0  0  0  0  0  0
   39.3120   24.4450   42.9080 C   0  0  0  0  0  2  0  0  0  0  0  0
   40.1490   25.1380   43.1840 H   0  0  0  0  0  0  0  0  0  0  0  0
   38.7280   31.1630   40.2320 C   0  0  0  0  0  0  0  0  0  0  0  0
   37.6930   31.1380   39.3780 C   0  0  0  0  0  0  0  0  0  0  0  0
   37.0870   32.3610   39.1740 C   0  0  0  0  0  0  0  0  0  0  0  0
   37.5870   33.4860   39.8570 N   0  0  0  0  0  0  0  0  0  0  0  0
   38.6060   33.4270   40.6830 C   0  0  0  0  0  0  0  0  0  0  0  0
   39.2380   32.2230   40.9090 N   0  0  0  0  0  0  0  0  0  0  0  0
   36.2440   32.5150   38.5140 H   0  0  0  0  0  0  0  0  0  0  0  0
   38.8750   34.3760   41.1380 H   0  0  0  0  0  0  0  0  0  0  0  0
   37.1180   29.9860   38.7790 C   0  0  0  0  0  0  0  0  0  0  0  0
   36.2090   29.9130   37.7720 C   0  0  0  0  0  0  0  0  0  0  0  0
   37.6120   29.6210   37.3150 C   0  0  0  0  0  0  0  0  0  0  0  0
   37.0420   29.1230   39.4660 H   0  0  0  0  0  0  0  0  0  0  0  0
   35.7970   30.8460   37.3130 H   0  0  0  0  0  0  0  0  0  0  0  0
   35.5040   29.0760   37.5190 H   0  0  0  0  0  0  0  0  0  0  0  0
   38.1980   30.4160   36.8360 H   0  0  0  0  0  0  0  0  0  0  0  0
   37.9220   28.5720   37.2150 H   0  0  0  0  0  0  0  0  0  0  0  0
  1  5  1  0  0  0  0
  2  1  2  0  0  0  0
  3  4  1  0  0  0  0
  4  5  2  0  0  0  0
  4  9  1  0  0  0  0
  5  6  1  0  0  0  0
  6 10  1  0  0  0  0
  6  7  2  0  0  0  0
  7 11  1  0  0  0  0
  8  7  1  0  0  0  0
  8 12  1  0  0  0  0
  9  8  2  0  0  0  0
 13  9  1  0  0  0  0
 14 13  1  0  0  0  0
 14 18  1  0  0  0  0
 15 14  1  0  0  0  0
 16 17  1  0  0  0  0
 16 14  1  0  0  0  0
 18 19  1  0  0  0  0
 20  1  1  0  0  0  0
 20 25  1  0  0  0  0
 21 20  2  0  0  0  0
 22 21  1  0  0  0  0
 22 23  2  0  0  0  0
 23 24  1  0  0  0  0
 24 25  2  0  0  0  0
 24 27  1  0  0  0  0
 26 22  1  0  0  0  0
 28 21  1  0  0  0  0
 28 31  1  0  0  0  0
 29 28  1  0  0  0  0
 30 29  1  0  0  0  0
 30 28  1  0  0  0  0
 32 29  1  0  0  0  0
 33 29  1  0  0  0  0
 34 30  1  0  0  0  0
 35 30  1  0  0  0  0
M  END
>  <minimizedAffinity>
-4.96162701

$$$$

 OpenBabel03242523213D

 35 37  0  0  0  0  0  0  0  0999 V2000
   36.0670   29.6700   40.2410 C   0  0  0  0  0  0  0  0  0  0  0  0
   34.9700   29.1700   40.2910 O   0  0  0  0  0  0  0  0  0  0  0  0
   36.3700   26.6310   39.8220 Cl  0  0  0  0  0  0  0  0  0  0  0  0
   36.9330   27.4600   41.2760 C   0  0  0  0  0  0  0  0  0  0  0  0
   36.7130   28.8540   41.3020 C   0  0  0  0  0  0  0  0  0  0  0  0
   37.1800   29.3900   42.4910 C   0  0  0  0  0  0  0  0  0  0  0  0
   37.7650   28.7940   43.5380 C   0  0  0  0  0  0  0  0  0  0  0  0
   37.9410   27.4470   43.4320 C   0  0  0  0  0  0  0  0  0  0  0  0
   37.5410   26.7700   42.3310 C   0  0  0  0  0  0  0  0  0  0  0  0
   37.1170   30.4880   42.6580 H   0  0  0  0  0  0  0  0  0  0  0  0
   38.1080   29.2700   44.4440 H   0  0  0  0  0  0  0  0  0  0  0  0
   38.4000   26.8280   44.1990 H   0  0  0  0  0  0  0  0  0  0  0  0
   37.7480   25.2960   42.1830 C   0  0  0  0  0  2  0  0  0  0  0  0
   39.0910   24.9580   41.8260 N   0  0  0  0  0  4  0  0  0  0  0  0
   39.6030   25.8890   41.7240 H   0  0  0  0  0  0  0  0  0  0  0  0
   39.2660   24.2210   40.6180 C   0  0  0  0  0  2  0  0  0  0  0  0
   39.5720   23.1550   40.8360 H   0  0  0  0  0  0  0  0  0  0  0  0
   39.7620   24.2720   42.9090 C   0  0  0  0  0  2  0  0  0  0  0  0
   40.4060   24.9670   43.5080 H   0  0  0  0  0  0  0  0  0  0  0  0
   37.0540   30.6180   39.7100 C   0  0  0  0  0  0  0  0  0  0  0  0
   38.0650   30.3280   38.8770 C   0  0  0  0  0  0  0  0  0  0  0  0
   38.9060   31.3870   38.6050 C   0  0  0  0  0  0  0  0  0  0  0  0
   38.6380   32.6350   39.2010 N   0  0  0  0  0  0  0  0  0  0  0  0
   37.6210   32.8390   40.0050 C   0  0  0  0  0  0  0  0  0  0  0  0
   36.7610   31.8030   40.3020 N   0  0  0  0  0  0  0  0  0  0  0  0
   39.7710   31.3220   37.9570 H   0  0  0  0  0  0  0  0  0  0  0  0
   37.5410   33.8540   40.3850 H   0  0  0  0  0  0  0  0  0  0  0  0
   38.2690   29.1030   38.1870 C   0  0  0  0  0  0  0  0  0  0  0  0
   39.2760   28.7580   37.3430 C   0  0  0  0  0  0  0  0  0  0  0  0
   39.4390   28.1720   38.7190 C   0  0  0  0  0  0  0  0  0  0  0  0
   37.3300   28.5700   37.9490 H   0  0  0  0  0  0  0  0  0  0  0  0
   40.0830   29.4920   37.0950 H   0  0  0  0  0  0  0  0  0  0  0  0
   39.2880   27.9660   36.5470 H   0  0  0  0  0  0  0  0  0  0  0  0
   40.1040   28.6660   39.4390 H   0  0  0  0  0  0  0  0  0  0  0  0
   39.1200   27.1340   38.8870 H   0  0  0  0  0  0  0  0  0  0  0  0
  1  2  2  0  0  0  0
  1  5  1  0  0  0  0
  3  4  1  0  0  0  0
  4  5  2  0  0  0  0
  4  9  1  0  0  0  0
  5  6  1  0  0  0  0
  6 10  1  0  0  0  0
  6  7  2  0  0  0  0
  7 11  1  0  0  0  0
  8  7  1  0  0  0  0
  8 12  1  0  0  0  0
  9  8  2  0  0  0  0
 13  9  1  0  0  0  0
 14 13  1  0  0  0  0
 14 18  1  0  0  0  0
 15 14  1  0  0  0  0
 16 17  1  0  0  0  0
 16 14  1  0  0  0  0
 18 19  1  0  0  0  0
 20  1  1  0  0  0  0
 20 25  1  0  0  0  0
 21 20  2  0  0  0  0
 22 21  1  0  0  0  0
 22 23  2  0  0  0  0
 23 24  1  0  0  0  0
 24 25  2  0  0  0  0
 24 27  1  0  0  0  0
 26 22  1  0  0  0  0
 28 30  1  0  0  0  0
 28 21  1  0  0  0  0
 29 28  1  0  0  0  0
 29 30  1  0  0  0  0
 30 35  1  0  0  0  0
 30 34  1  0  0  0  0
 31 28  1  0  0  0  0
 32 29  1  0  0  0  0
 33 29  1  0  0  0  0
M  END
>  <minimizedAffinity>
-4.95995235

$$$$

 OpenBabel03242523213D

 35 37  0  0  0  0  0  0  0  0999 V2000
   37.3330   27.3760   43.0190 C   0  0  0  0  0  0  0  0  0  0  0  0
   36.2010   27.4310   43.4340 O   0  0  0  0  0  0  0  0  0  0  0  0
   36.2360   29.7700   41.4160 Cl  0  0  0  0  0  0  0  0  0  0  0  0
   36.5110   28.1800   40.6990 C   0  0  0  0  0  0  0  0  0  0  0  0
   37.0170   27.1980   41.5790 C   0  0  0  0  0  0  0  0  0  0  0  0
   37.1760   25.9950   40.9120 C   0  0  0  0  0  0  0  0  0  0  0  0
   36.9260   25.6720   39.6360 C   0  0  0  0  0  0  0  0  0  0  0  0
   36.4410   26.6780   38.8540 C   0  0  0  0  0  0  0  0  0  0  0  0
   36.2300   27.9180   39.3540 C   0  0  0  0  0  0  0  0  0  0  0  0
   37.6020   25.1210   41.4530 H   0  0  0  0  0  0  0  0  0  0  0  0
   37.0710   24.7090   39.1710 H   0  0  0  0  0  0  0  0  0  0  0  0
   36.1920   26.5690   37.8020 H   0  0  0  0  0  0  0  0  0  0  0  0
   35.7230   29.0410   38.5070 C   0  0  0  0  0  2  0  0  0  0  0  0
   36.7640   29.7100   37.7920 N   0  0  0  0  0  4  0  0  0  0  0  0
   37.6460   29.1340   37.9660 H   0  0  0  0  0  0  0  0  0  0  0  0
   37.0340   31.0600   38.1640 C   0  0  0  0  0  2  0  0  0  0  0  0
   36.6880   31.7770   37.3620 H   0  0  0  0  0  0  0  0  0  0  0  0
   36.5420   29.6410   36.3630 C   0  0  0  0  0  2  0  0  0  0  0  0
   37.1400   28.8210   35.8860 H   0  0  0  0  0  0  0  0  0  0  0  0
   38.7920   27.3900   43.1830 C   0  0  0  0  0  0  0  0  0  0  0  0
   39.6080   28.4290   42.9450 C   0  0  0  0  0  0  0  0  0  0  0  0
   40.9510   28.1480   43.0870 C   0  0  0  0  0  0  0  0  0  0  0  0
   41.3340   26.8450   43.4590 N   0  0  0  0  0  0  0  0  0  0  0  0
   40.4710   25.8810   43.6790 C   0  0  0  0  0  0  0  0  0  0  0  0
   39.1200   26.1240   43.5440 N   0  0  0  0  0  0  0  0  0  0  0  0
   41.7400   28.8710   42.9270 H   0  0  0  0  0  0  0  0  0  0  0  0
   40.9150   24.9310   43.9620 H   0  0  0  0  0  0  0  0  0  0  0  0
   39.2170   29.7690   42.6820 C   0  0  0  0  0  0  0  0  0  0  0  0
   39.9910   30.8830   42.6110 C   0  0  0  0  0  0  0  0  0  0  0  0
   39.5990   30.3560   41.2580 C   0  0  0  0  0  0  0  0  0  0  0  0
   38.1890   30.0020   43.0140 H   0  0  0  0  0  0  0  0  0  0  0  0
   41.0930   30.8190   42.7900 H   0  0  0  0  0  0  0  0  0  0  0  0
   39.6930   31.9580   42.7440 H   0  0  0  0  0  0  0  0  0  0  0  0
   40.3070   29.7320   40.6970 H   0  0  0  0  0  0  0  0  0  0  0  0
   38.7470   30.8210   40.7430 H   0  0  0  0  0  0  0  0  0  0  0  0
  1 20  1  0  0  0  0
  1  2  2  0  0  0  0
  4  3  1  0  0  0  0
  4  5  1  0  0  0  0
  5  1  1  0  0  0  0
  6 10  1  0  0  0  0
  6  5  2  0  0  0  0
  7  6  1  0  0  0  0
  8  9  1  0  0  0  0
  8  7  2  0  0  0  0
  9  4  2  0  0  0  0
 11  7  1  0  0  0  0
 12  8  1  0  0  0  0
 13  9  1  0  0  0  0
 14 15  1  0  0  0  0
 14 16  1  0  0  0  0
 14 13  1  0  0  0  0
 17 16  1  0  0  0  0
 18 14  1  0  0  0  0
 19 18  1  0  0  0  0
 20 25  1  0  0  0  0
 21 22  1  0  0  0  0
 21 20  2  0  0  0  0
 22 23  2  0  0  0  0
 23 24  1  0  0  0  0
 24 27  1  0  0  0  0
 25 24  2  0  0  0  0
 26 22  1  0  0  0  0
 28 21  1  0  0  0  0
 28 31  1  0  0  0  0
 29 28  1  0  0  0  0
 29 33  1  0  0  0  0
 29 32  1  0  0  0  0
 30 29  1  0  0  0  0
 30 28  1  0  0  0  0
 34 30  1  0  0  0  0
 35 30  1  0  0  0  0
M  END
>  <minimizedAffinity>
-4.93861198

$$$$

 OpenBabel03242523213D

 35 37  0  0  0  0  0  0  0  0999 V2000
   35.5640   28.4470   39.5090 C   0  0  0  0  0  0  0  0  0  0  0  0
   34.5160   28.8970   39.1160 O   0  0  0  0  0  0  0  0  0  0  0  0
   37.5480   28.9590   37.2060 Cl  0  0  0  0  0  0  0  0  0  0  0  0
   37.2940   30.1040   38.5260 C   0  0  0  0  0  0  0  0  0  0  0  0
   36.3490   29.7090   39.4970 C   0  0  0  0  0  0  0  0  0  0  0  0
   36.2460   30.6730   40.4860 C   0  0  0  0  0  0  0  0  0  0  0  0
   36.8860   31.8420   40.6240 C   0  0  0  0  0  0  0  0  0  0  0  0
   37.7800   32.1480   39.6430 C   0  0  0  0  0  0  0  0  0  0  0  0
   37.9970   31.3110   38.6020 C   0  0  0  0  0  0  0  0  0  0  0  0
   35.5150   30.5340   41.3120 H   0  0  0  0  0  0  0  0  0  0  0  0
   36.7630   32.5560   41.4240 H   0  0  0  0  0  0  0  0  0  0  0  0
   38.3730   33.0590   39.6180 H   0  0  0  0  0  0  0  0  0  0  0  0
   38.9550   31.6400   37.5020 C   0  0  0  0  0  2  0  0  0  0  0  0
   40.3190   31.6110   37.9280 N   0  0  0  0  0  4  0  0  0  0  0  0
   40.2880   31.6680   38.9930 H   0  0  0  0  0  0  0  0  0  0  0  0
   41.1620   32.6580   37.4510 C   0  0  0  0  0  2  0  0  0  0  0  0
   41.8990   32.2670   36.6890 H   0  0  0  0  0  0  0  0  0  0  0  0
   40.9300   30.3310   37.6340 C   0  0  0  0  0  2  0  0  0  0  0  0
   40.9400   29.6580   38.5300 H   0  0  0  0  0  0  0  0  0  0  0  0
   36.4330   27.3570   39.9700 C   0  0  0  0  0  0  0  0  0  0  0  0
   36.9000   27.1860   41.2160 C   0  0  0  0  0  0  0  0  0  0  0  0
   37.7770   26.1300   41.3610 C   0  0  0  0  0  0  0  0  0  0  0  0
   38.0890   25.3510   40.2300 N   0  0  0  0  0  0  0  0  0  0  0  0
   37.5850   25.5810   39.0410 C   0  0  0  0  0  0  0  0  0  0  0  0
   36.7070   26.6290   38.8570 N   0  0  0  0  0  0  0  0  0  0  0  0
   38.2470   25.8590   42.2970 H   0  0  0  0  0  0  0  0  0  0  0  0
   37.9160   24.8940   38.2680 H   0  0  0  0  0  0  0  0  0  0  0  0
   36.4970   27.8990   42.3760 C   0  0  0  0  0  0  0  0  0  0  0  0
   36.7730   27.6320   43.6790 C   0  0  0  0  0  0  0  0  0  0  0  0
   37.6170   28.7430   43.1190 C   0  0  0  0  0  0  0  0  0  0  0  0
   35.5300   28.4230   42.2580 H   0  0  0  0  0  0  0  0  0  0  0  0
   37.3790   26.7340   43.9560 H   0  0  0  0  0  0  0  0  0  0  0  0
   36.2130   27.9540   44.5980 H   0  0  0  0  0  0  0  0  0  0  0  0
   38.6370   28.5240   42.7750 H   0  0  0  0  0  0  0  0  0  0  0  0
   37.3140   29.7810   43.3160 H   0  0  0  0  0  0  0  0  0  0  0  0
  1 20  1  0  0  0  0
  2  1  2  0  0  0  0
  3  4  1  0  0  0  0
  4  9  2  0  0  0  0
  4  5  1  0  0  0  0
  5  1  1  0  0  0  0
  5  6  2  0  0  0  0
  6  7  1  0  0  0  0
  6 10  1  0  0  0  0
  7 11  1  0  0  0  0
  8  7  2  0  0  0  0
  9  8  1  0  0  0  0
 12  8  1  0  0  0  0
 13 14  1  0  0  0  0
 13  9  1  0  0  0  0
 14 15  1  0  0  0  0
 16 14  1  0  0  0  0
 17 16  1  0  0  0  0
 18 14  1  0  0  0  0
 18 19  1  0  0  0  0
 20 21  1  0  0  0  0
 21 22  2  0  0  0  0
 21 28  1  0  0  0  0
 22 26  1  0  0  0  0
 23 22  1  0  0  0  0
 24 23  2  0  0  0  0
 25 24  1  0  0  0  0
 25 20  2  0  0  0  0
 27 24  1  0  0  0  0
 28 30  1  0  0  0  0
 28 29  1  0  0  0  0
 29 32  1  0  0  0  0
 29 33  1  0  0  0  0
 30 35  1  0  0  0  0
 30 29  1  0  0  0  0
 31 28  1  0  0  0  0
 34 30  1  0  0  0  0
M  END
>  <minimizedAffinity>
-4.93734455

$$$$

 OpenBabel03242523213D

 35 37  0  0  0  0  0  0  0  0999 V2000
   37.0680   30.6180   41.1540 C   0  0  0  0  0  0  0  0  0  0  0  0
   35.9920   31.1470   41.2940 O   0  0  0  0  0  0  0  0  0  0  0  0
   35.3210   28.4520   39.8280 Cl  0  0  0  0  0  0  0  0  0  0  0  0
   36.3150   29.5810   38.9040 C   0  0  0  0  0  0  0  0  0  0  0  0
   37.0530   30.5080   39.6720 C   0  0  0  0  0  0  0  0  0  0  0  0
   37.8020   31.3270   38.8450 C   0  0  0  0  0  0  0  0  0  0  0  0
   37.9070   31.3460   37.5090 C   0  0  0  0  0  0  0  0  0  0  0  0
   37.1620   30.4190   36.8430 C   0  0  0  0  0  0  0  0  0  0  0  0
   36.3720   29.5430   37.5070 C   0  0  0  0  0  0  0  0  0  0  0  0
   38.4160   32.1410   39.2900 H   0  0  0  0  0  0  0  0  0  0  0  0
   38.5140   32.0130   36.9170 H   0  0  0  0  0  0  0  0  0  0  0  0
   37.1430   30.3120   35.7620 H   0  0  0  0  0  0  0  0  0  0  0  0
   35.5260   28.5370   36.7930 C   0  0  0  0  0  2  0  0  0  0  0  0
   34.3190   29.0960   36.2720 N   0  0  0  0  0  4  0  0  0  0  0  0
   34.4750   30.1530   36.2590 H   0  0  0  0  0  0  0  0  0  0  0  0
   33.1220   28.8340   37.0020 C   0  0  0  0  0  2  0  0  0  0  0  0
   32.4570   28.1130   36.4410 H   0  0  0  0  0  0  0  0  0  0  0  0
   34.1270   28.7240   34.8860 C   0  0  0  0  0  2  0  0  0  0  0  0
   34.4610   29.5340   34.1860 H   0  0  0  0  0  0  0  0  0  0  0  0
   38.3240   30.0490   41.6560 C   0  0  0  0  0  0  0  0  0  0  0  0
   38.5070   28.7970   42.1000 C   0  0  0  0  0  0  0  0  0  0  0  0
   39.7650   28.5450   42.6080 C   0  0  0  0  0  0  0  0  0  0  0  0
   40.7140   29.5870   42.6110 N   0  0  0  0  0  0  0  0  0  0  0  0
   40.4570   30.7900   42.1530 C   0  0  0  0  0  0  0  0  0  0  0  0
   39.2090   31.0780   41.6410 N   0  0  0  0  0  0  0  0  0  0  0  0
   40.0760   27.5900   43.0100 H   0  0  0  0  0  0  0  0  0  0  0  0
   41.2880   31.4860   42.2190 H   0  0  0  0  0  0  0  0  0  0  0  0
   37.5900   27.7170   41.9920 C   0  0  0  0  0  0  0  0  0  0  0  0
   37.5970   26.5250   42.6420 C   0  0  0  0  0  0  0  0  0  0  0  0
   36.6020   27.4960   43.2140 C   0  0  0  0  0  0  0  0  0  0  0  0
   37.1140   27.6420   40.9970 H   0  0  0  0  0  0  0  0  0  0  0  0
   38.4150   26.2790   43.3640 H   0  0  0  0  0  0  0  0  0  0  0  0
   37.1130   25.5570   42.3430 H   0  0  0  0  0  0  0  0  0  0  0  0
   36.8670   28.0760   44.1070 H   0  0  0  0  0  0  0  0  0  0  0  0
   35.5500   27.4100   42.9050 H   0  0  0  0  0  0  0  0  0  0  0  0
  1  2  2  0  0  0  0
  1 20  1  0  0  0  0
  4  5  1  0  0  0  0
  4  3  1  0  0  0  0
  5  1  1  0  0  0  0
  6 10  1  0  0  0  0
  6  5  2  0  0  0  0
  7  6  1  0  0  0  0
  8  9  1  0  0  0  0
  8  7  2  0  0  0  0
  9  4  2  0  0  0  0
 11  7  1  0  0  0  0
 12  8  1  0  0  0  0
 13  9  1  0  0  0  0
 14 13  1  0  0  0  0
 14 16  1  0  0  0  0
 15 14  1  0  0  0  0
 17 16  1  0  0  0  0
 18 14  1  0  0  0  0
 19 18  1  0  0  0  0
 20 21  1  0  0  0  0
 21 22  2  0  0  0  0
 22 23  1  0  0  0  0
 22 26  1  0  0  0  0
 24 27  1  0  0  0  0
 24 23  2  0  0  0  0
 25 20  2  0  0  0  0
 25 24  1  0  0  0  0
 28 21  1  0  0  0  0
 28 29  1  0  0  0  0
 28 30  1  0  0  0  0
 29 30  1  0  0  0  0
 29 32  1  0  0  0  0
 30 34  1  0  0  0  0
 31 28  1  0  0  0  0
 33 29  1  0  0  0  0
 35 30  1  0  0  0  0
M  END
>  <minimizedAffinity>
-4.92166996

$$$$
