
 OpenBabel03242520563D

 39 40  0  0  0  0  0  0  0  0999 V2000
   48.5680   31.2920   48.7140 C   0  0  0  0  0  3  0  0  0  0  0  0
   47.5750   32.1560   48.7920 C   0  0  0  0  0  3  0  0  0  0  0  0
   51.2600   32.0990   51.0510 C   0  0  0  0  0  0  0  0  0  0  0  0
   51.3720   30.8930   51.7990 C   0  0  0  0  0  0  0  0  0  0  0  0
   50.5470   29.8370   51.4840 C   0  0  0  0  0  0  0  0  0  0  0  0
   49.6840   30.0240   50.4860 N   0  0  0  0  0  0  0  0  0  0  0  0
   49.5670   31.1560   49.7780 C   0  0  0  0  0  0  0  0  0  0  0  0
   50.3570   32.2050   50.0540 N   0  0  0  0  0  0  0  0  0  0  0  0
   51.8530   32.9920   51.2030 H   0  0  0  0  0  0  0  0  0  0  0  0
   50.6070   28.6670   52.1490 O   0  0  0  0  0  0  0  0  0  0  0  0
   51.5040   27.6630   51.6510 C   0  0  0  0  0  0  0  0  0  0  0  0
   51.9980   28.0620   50.3970 F   0  0  0  0  0  0  0  0  0  0  0  0
   52.5840   27.6350   52.5300 F   0  0  0  0  0  0  0  0  0  0  0  0
   50.9500   26.3910   51.5980 F   0  0  0  0  0  0  0  0  0  0  0  0
   52.3580   31.0400   52.8880 C   0  0  0  0  0  2  0  0  0  0  0  0
   52.2440   32.3890   53.4900 N   0  0  0  0  0  4  0  0  0  0  0  0
   51.6750   33.0230   52.8510 H   0  0  0  0  0  0  0  0  0  0  0  0
   51.5190   32.3500   54.7450 C   0  0  0  0  0  2  0  0  0  0  0  0
   52.0030   33.0340   55.4960 H   0  0  0  0  0  0  0  0  0  0  0  0
   53.5510   32.9640   53.7130 C   0  0  0  0  0  2  0  0  0  0  0  0
   53.6390   33.3180   54.7800 H   0  0  0  0  0  0  0  0  0  0  0  0
   46.5870   32.2560   47.6860 C   0  0  0  0  0  0  0  0  0  0  0  0
   46.4080   31.2190   47.3780 H   0  0  0  0  0  0  0  0  0  0  0  0
   45.6050   32.6290   48.1130 H   0  0  0  0  0  0  0  0  0  0  0  0
   46.5650   32.7880   45.4060 C   0  0  0  0  0  0  0  0  0  0  0  0
   45.8880   31.8380   44.9610 O   0  0  0  0  0  0  0  0  0  0  0  0
   46.9810   33.1560   46.6810 N   0  0  0  0  0  0  0  0  0  0  0  0
   47.5250   34.0210   46.7930 H   0  0  0  0  0  0  0  0  0  0  0  0
   44.8640   35.1520   44.4940 Cl  0  0  0  0  0  0  0  0  0  0  0  0
   46.2260   34.5760   43.5740 C   0  0  0  0  0  0  0  0  0  0  0  0
   46.8540   33.5070   44.1590 C   0  0  0  0  0  0  0  0  0  0  0  0
   47.9700   32.9200   43.5530 C   0  0  0  0  0  0  0  0  0  0  0  0
   48.4510   33.4260   42.3460 C   0  0  0  0  0  0  0  0  0  0  0  0
   47.7940   34.5110   41.7750 C   0  0  0  0  0  0  0  0  0  0  0  0
   48.3590   35.1860   40.2630 Cl  0  0  0  0  0  0  0  0  0  0  0  0
   46.7030   35.0690   42.3870 C   0  0  0  0  0  0  0  0  0  0  0  0
   48.5410   32.1000   43.8930 H   0  0  0  0  0  0  0  0  0  0  0  0
   49.3050   33.0310   41.8150 H   0  0  0  0  0  0  0  0  0  0  0  0
   46.1510   35.9140   41.9910 H   0  0  0  0  0  0  0  0  0  0  0  0
  1  2  2  0  0  0  0
  1  7  1  0  0  0  0
  3  9  1  0  0  0  0
  3  4  1  0  0  0  0
  4 15  1  0  0  0  0
  5  4  2  0  0  0  0
  5 10  1  0  0  0  0
  6  5  1  0  0  0  0
  7  8  1  0  0  0  0
  7  6  2  0  0  0  0
  8  3  2  0  0  0  0
 11 10  1  0  0  0  0
 11 13  1  0  0  0  0
 12 11  1  0  0  0  0
 14 11  1  0  0  0  0
 15 16  1  0  0  0  0
 16 20  1  0  0  0  0
 16 18  1  0  0  0  0
 17 16  1  0  0  0  0
 18 19  1  0  0  0  0
 20 21  1  0  0  0  0
 22 24  1  0  0  0  0
 22  2  1  0  0  0  0
 23 22  1  0  0  0  0
 25 27  1  0  0  0  0
 26 25  2  0  0  0  0
 27 28  1  0  0  0  0
 27 22  1  0  0  0  0
 30 31  1  0  0  0  0
 30 29  1  0  0  0  0
 31 25  1  0  0  0  0
 32 37  1  0  0  0  0
 32 31  2  0  0  0  0
 33 32  1  0  0  0  0
 34 33  2  0  0  0  0
 34 36  1  0  0  0  0
 35 34  1  0  0  0  0
 36 30  2  0  0  0  0
 38 33  1  0  0  0  0
 39 36  1  0  0  0  0
M  END
>  <minimizedAffinity>
-6.48773146

>  <minimizedRMSD>
0.234273404

$$$$
