
 OpenBabel03242518133D

 29 30  0  0  0  0  0  0  0  0999 V2000
   48.3120   33.9690   42.7350 C   0  0  0  0  0  0  0  0  0  0  0  0
   48.9300   34.3110   43.5920 H   0  0  0  0  0  0  0  0  0  0  0  0
   47.4640   33.3980   43.1790 H   0  0  0  0  0  0  0  0  0  0  0  0
   49.1200   33.1620   41.8770 C   0  0  0  0  0  0  0  0  0  0  0  0
   48.9360   32.3760   40.6900 C   0  0  0  0  0  0  0  0  0  0  0  0
   50.0120   31.7340   40.1490 C   0  0  0  0  0  0  0  0  0  0  0  0
   51.2970   31.8830   40.8130 C   0  0  0  0  0  0  0  0  0  0  0  0
   50.9600   32.9560   42.2300 S   0  0  0  0  0  0  0  0  0  0  0  0
   47.9310   32.3620   40.3210 H   0  0  0  0  0  0  0  0  0  0  0  0
   49.9170   31.1360   39.2600 H   0  0  0  0  0  0  0  0  0  0  0  0
   52.5130   31.3060   40.4120 C   0  0  0  0  0  2  0  0  0  0  0  0
   52.6640   29.9720   40.8860 N   0  0  0  0  0  4  0  0  0  0  0  0
   53.6780   29.7190   40.9250 H   0  0  0  0  0  0  0  0  0  0  0  0
   51.9290   28.9790   40.1380 C   0  0  0  0  0  2  0  0  0  0  0  0
   52.5280   28.6520   39.2660 H   0  0  0  0  0  0  0  0  0  0  0  0
   52.2140   29.8870   42.2790 C   0  0  0  0  0  2  0  0  0  0  0  0
   52.7930   30.6470   42.8720 H   0  0  0  0  0  0  0  0  0  0  0  0
   47.7300   35.2110   42.1020 C   0  0  0  0  0  0  0  0  0  0  0  0
   48.0390   36.1120   42.6910 H   0  0  0  0  0  0  0  0  0  0  0  0
   48.1350   35.3140   41.1010 H   0  0  0  0  0  0  0  0  0  0  0  0
   46.2780   35.1030   42.1090 C   0  0  0  0  0  0  0  0  0  0  0  0
   45.4960   35.6560   43.1070 C   0  0  0  0  0  0  0  0  0  0  0  0
   44.1120   35.5060   43.0390 C   0  0  0  0  0  0  0  0  0  0  0  0
   43.6050   34.8210   41.9900 N   0  0  0  0  0  0  0  0  0  0  0  0
   44.3660   34.2900   41.0330 C   0  0  0  0  0  0  0  0  0  0  0  0
   45.6700   34.4420   41.1140 N   0  0  0  0  0  0  0  0  0  0  0  0
   45.9550   36.2000   43.9290 H   0  0  0  0  0  0  0  0  0  0  0  0
   43.4730   35.9370   43.8190 H   0  0  0  0  0  0  0  0  0  0  0  0
   43.9230   33.7470   40.2080 H   0  0  0  0  0  0  0  0  0  0  0  0
  1  3  1  0  0  0  0
  1  2  1  0  0  0  0
  4  8  1  0  0  0  0
  4  1  1  0  0  0  0
  5  4  2  0  0  0  0
  6  5  1  0  0  0  0
  6  7  2  0  0  0  0
  7  8  1  0  0  0  0
  9  5  1  0  0  0  0
 10  6  1  0  0  0  0
 11  7  1  0  0  0  0
 11 12  1  0  0  0  0
 12 13  1  0  0  0  0
 12 16  1  0  0  0  0
 14 12  1  0  0  0  0
 15 14  1  0  0  0  0
 16 17  1  0  0  0  0
 18 21  1  0  0  0  0
 18 19  1  0  0  0  0
 18  1  1  0  0  0  0
 20 18  1  0  0  0  0
 21 22  1  0  0  0  0
 22 27  1  0  0  0  0
 23 22  2  0  0  0  0
 23 28  1  0  0  0  0
 24 23  1  0  0  0  0
 25 26  1  0  0  0  0
 25 24  2  0  0  0  0
 26 21  2  0  0  0  0
 29 25  1  0  0  0  0
M  END
>  <minimizedAffinity>
-3.53838491

>  <minimizedRMSD>
1.51203573

$$$$
