
 OpenBabel03242523193D

 35 37  0  0  0  0  0  0  0  0999 V2000
   45.9930   33.7230   44.7430 C   0  0  0  0  0  0  0  0  0  0  0  0
   45.3660   34.1930   45.6610 O   0  0  0  0  0  0  0  0  0  0  0  0
   44.4560   31.9060   42.7840 Cl  0  0  0  0  0  0  0  0  0  0  0  0
   44.4700   33.6670   42.6500 C   0  0  0  0  0  0  0  0  0  0  0  0
   45.2260   34.3430   43.6310 C   0  0  0  0  0  0  0  0  0  0  0  0
   45.1750   35.7100   43.4170 C   0  0  0  0  0  0  0  0  0  0  0  0
   44.5490   36.4150   42.4650 C   0  0  0  0  0  0  0  0  0  0  0  0
   43.8400   35.6860   41.5580 C   0  0  0  0  0  0  0  0  0  0  0  0
   43.7860   34.3350   41.6290 C   0  0  0  0  0  0  0  0  0  0  0  0
   45.6910   36.3950   44.1260 H   0  0  0  0  0  0  0  0  0  0  0  0
   44.5480   37.4880   42.3490 H   0  0  0  0  0  0  0  0  0  0  0  0
   43.2810   36.1150   40.7300 H   0  0  0  0  0  0  0  0  0  0  0  0
   42.9930   33.5180   40.6580 C   0  0  0  0  0  2  0  0  0  0  0  0
   41.5830   33.6110   40.8780 N   0  0  0  0  0  4  0  0  0  0  0  0
   41.1400   33.5840   39.9070 H   0  0  0  0  0  0  0  0  0  0  0  0
   41.1150   34.7790   41.5480 C   0  0  0  0  0  2  0  0  0  0  0  0
   40.7710   34.5320   42.5960 H   0  0  0  0  0  0  0  0  0  0  0  0
   41.0830   32.4350   41.5570 C   0  0  0  0  0  2  0  0  0  0  0  0
   40.6290   31.7000   40.8420 H   0  0  0  0  0  0  0  0  0  0  0  0
   47.0640   32.8970   44.1730 C   0  0  0  0  0  0  0  0  0  0  0  0
   47.9770   33.2920   43.2730 C   0  0  0  0  0  0  0  0  0  0  0  0
   48.8160   32.2900   42.8290 C   0  0  0  0  0  0  0  0  0  0  0  0
   48.6480   30.9900   43.3440 N   0  0  0  0  0  0  0  0  0  0  0  0
   47.7290   30.6840   44.2290 C   0  0  0  0  0  0  0  0  0  0  0  0
   46.8710   31.6590   44.6940 N   0  0  0  0  0  0  0  0  0  0  0  0
   49.6030   32.4390   42.1010 H   0  0  0  0  0  0  0  0  0  0  0  0
   47.7240   29.6420   44.5350 H   0  0  0  0  0  0  0  0  0  0  0  0
   48.2200   34.6230   42.8410 C   0  0  0  0  0  0  0  0  0  0  0  0
   49.2720   35.1100   42.1330 C   0  0  0  0  0  0  0  0  0  0  0  0
   48.0410   34.9130   41.2910 C   0  0  0  0  0  0  0  0  0  0  0  0
   47.7790   35.3890   43.5050 H   0  0  0  0  0  0  0  0  0  0  0  0
   50.1100   34.4360   41.8270 H   0  0  0  0  0  0  0  0  0  0  0  0
   49.6540   36.1650   42.0750 H   0  0  0  0  0  0  0  0  0  0  0  0
   47.9470   34.0060   40.6790 H   0  0  0  0  0  0  0  0  0  0  0  0
   47.4020   35.7830   41.0870 H   0  0  0  0  0  0  0  0  0  0  0  0
  1  2  2  0  0  0  0
  4  3  1  0  0  0  0
  4  5  1  0  0  0  0
  5  1  1  0  0  0  0
  6  5  2  0  0  0  0
  6 10  1  0  0  0  0
  7  6  1  0  0  0  0
  8  9  1  0  0  0  0
  8  7  2  0  0  0  0
  9  4  2  0  0  0  0
 11  7  1  0  0  0  0
 12  8  1  0  0  0  0
 13 14  1  0  0  0  0
 13  9  1  0  0  0  0
 14 16  1  0  0  0  0
 14 18  1  0  0  0  0
 15 14  1  0  0  0  0
 16 17  1  0  0  0  0
 19 18  1  0  0  0  0
 20 25  1  0  0  0  0
 20  1  1  0  0  0  0
 21 20  2  0  0  0  0
 22 21  1  0  0  0  0
 22 23  2  0  0  0  0
 23 24  1  0  0  0  0
 24 27  1  0  0  0  0
 24 25  2  0  0  0  0
 26 22  1  0  0  0  0
 28 21  1  0  0  0  0
 28 31  1  0  0  0  0
 29 28  1  0  0  0  0
 30 29  1  0  0  0  0
 30 28  1  0  0  0  0
 32 29  1  0  0  0  0
 33 29  1  0  0  0  0
 34 30  1  0  0  0  0
 35 30  1  0  0  0  0
M  END
>  <minimizedAffinity>
-5.07262802

>  <minimizedRMSD>
0.496668696

$$$$
