
 OpenBabel03252507063D

 22 22  0  0  0  0  0  0  0  0999 V2000
   44.5740   35.6160   44.7280 C   0  0  0  0  0  0  0  0  0  0  0  0
   45.1360   35.7290   43.4460 C   0  0  0  0  0  0  0  0  0  0  0  0
   46.1820   34.8580   43.1420 C   0  0  0  0  0  0  0  0  0  0  0  0
   46.6040   33.9640   44.0650 N   0  0  0  0  0  0  0  0  0  0  0  0
   46.0370   33.8820   45.2940 C   0  0  0  0  0  0  0  0  0  0  0  0
   45.0170   34.7160   45.6200 N   0  0  0  0  0  0  0  0  0  0  0  0
   43.7620   36.3050   44.9360 H   0  0  0  0  0  0  0  0  0  0  0  0
   44.7740   36.4540   42.7370 H   0  0  0  0  0  0  0  0  0  0  0  0
   46.7410   34.9730   41.8660 O   0  0  0  0  0  0  0  0  0  0  0  0
   48.6140   33.2460   41.1620 O   0  0  0  0  0  0  0  0  0  0  0  0
   48.4130   34.6770   41.6600 P   0  0  0  0  0  0  0  0  0  0  0  0
   49.0460   35.7960   40.6030 O   0  0  0  0  0  0  0  0  0  0  0  0
   49.8750   36.1700   40.9980 H   0  0  0  0  0  0  0  0  0  0  0  0
   49.1440   34.7850   43.1870 O   0  0  0  0  0  0  0  0  0  0  0  0
   49.2070   33.9040   43.6310 H   0  0  0  0  0  0  0  0  0  0  0  0
   46.5520   32.8870   46.2360 C   0  0  0  0  0  2  0  0  0  0  0  0
   45.5210   31.9450   46.5970 N   0  0  0  0  0  4  0  0  0  0  0  0
   44.6490   32.2740   46.1060 H   0  0  0  0  0  0  0  0  0  0  0  0
   45.2170   32.0340   48.0170 C   0  0  0  0  0  2  0  0  0  0  0  0
   45.7440   31.2540   48.6000 H   0  0  0  0  0  0  0  0  0  0  0  0
   45.7520   30.6010   46.1700 C   0  0  0  0  0  2  0  0  0  0  0  0
   45.6060   29.8640   47.0090 H   0  0  0  0  0  0  0  0  0  0  0  0
  1  7  1  0  0  0  0
  1  6  1  0  0  0  0
  2  1  2  0  0  0  0
  3  2  1  0  0  0  0
  3  4  2  0  0  0  0
  4  5  1  0  0  0  0
  5  6  2  0  0  0  0
  5 16  1  0  0  0  0
  8  2  1  0  0  0  0
  9  3  1  0  0  0  0
 10 11  2  0  0  0  0
 11  9  1  0  0  0  0
 11 14  1  0  0  0  0
 12 13  1  0  0  0  0
 12 11  1  0  0  0  0
 14 15  1  0  0  0  0
 16 17  1  0  0  0  0
 17 19  1  0  0  0  0
 18 17  1  0  0  0  0
 19 20  1  0  0  0  0
 21 17  1  0  0  0  0
 21 22  1  0  0  0  0
M  END
>  <minimizedAffinity>
-4.96968746

>  <minimizedRMSD>
0.799769998

$$$$
