
 OpenBabel03252501063D

 38 40  0  0  1  0  0  0  0  0999 V2000
   48.5910   32.3490   38.0700 O   0  0  0  0  0  0  0  0  0  0  0  0
   48.1030   33.7860   38.2470 P   0  0  2  0  0  0  0  0  0  0  0  0
   49.3150   34.7560   37.5670 O   0  0  0  0  0  0  0  0  0  0  0  0
   48.9690   35.6880   37.5680 H   0  0  0  0  0  0  0  0  0  0  0  0
   47.7400   34.1310   39.8040 O   0  0  0  0  0  0  0  0  0  0  0  0
   48.0800   35.4600   41.7980 C   0  0  1  0  0  0  0  0  0  0  0  0
   49.3110   34.6680   41.6750 C   0  0  0  0  0  0  0  0  0  0  0  0
   48.4700   35.0630   40.4480 C   0  0  1  0  0  0  0  0  0  0  0  0
   48.1570   36.5110   42.1140 H   0  0  0  0  0  0  0  0  0  0  0  0
   49.3390   33.5600   41.8550 H   0  0  0  0  0  0  0  0  0  0  0  0
   50.3150   35.1180   41.7790 H   0  0  0  0  0  0  0  0  0  0  0  0
   49.0190   35.7720   39.8010 H   0  0  0  0  0  0  0  0  0  0  0  0
   46.0470   32.9580   43.7890 C   0  0  0  0  0  0  0  0  0  0  0  0
   47.1400   33.6350   43.2560 C   0  0  0  0  0  0  0  0  0  0  0  0
   46.9130   34.7250   42.3950 C   0  0  0  0  0  0  0  0  0  0  0  0
   45.6360   35.0820   42.1100 N   0  0  0  0  0  0  0  0  0  0  0  0
   44.5860   34.4080   42.6390 C   0  0  0  0  0  0  0  0  0  0  0  0
   44.7880   33.3510   43.4750 N   0  0  0  0  0  0  0  0  0  0  0  0
   46.2290   32.1220   44.4500 H   0  0  0  0  0  0  0  0  0  0  0  0
   48.1250   33.3120   43.5140 H   0  0  0  0  0  0  0  0  0  0  0  0
   43.5980   34.7680   42.3530 H   0  0  0  0  0  0  0  0  0  0  0  0
   46.7480   33.9110   37.2640 O   0  0  0  0  0  0  0  0  0  0  0  0
   45.6670   33.0440   37.3230 C   0  0  0  0  0  0  0  0  0  0  0  0
   45.3450   32.0180   36.4540 C   0  0  0  0  0  0  0  0  0  0  0  0
   44.2380   31.2550   36.6570 C   0  0  0  0  0  0  0  0  0  0  0  0
   43.4020   31.4750   37.7300 C   0  0  0  0  0  0  0  0  0  0  0  0
   43.7600   32.5220   38.5880 C   0  0  0  0  0  0  0  0  0  0  0  0
   44.8730   33.2800   38.3730 N   0  0  0  0  0  0  0  0  0  0  0  0
   46.0430   31.9000   35.6340 H   0  0  0  0  0  0  0  0  0  0  0  0
   44.0450   30.4690   35.9380 H   0  0  0  0  0  0  0  0  0  0  0  0
   42.5340   30.8820   37.8960 H   0  0  0  0  0  0  0  0  0  0  0  0
   42.8620   32.7630   39.7470 C   0  0  0  0  0  2  0  0  0  0  0  0
   41.7820   33.6640   39.4950 N   0  0  0  0  0  4  0  0  0  0  0  0
   41.3780   33.5830   38.5340 H   0  0  0  0  0  0  0  0  0  0  0  0
   40.6890   33.3060   40.3880 C   0  0  0  0  0  2  0  0  0  0  0  0
   41.0740   32.6820   41.2370 H   0  0  0  0  0  0  0  0  0  0  0  0
   42.1340   35.0350   39.8210 C   0  0  0  0  0  2  0  0  0  0  0  0
   42.0630   35.1380   40.9390 H   0  0  0  0  0  0  0  0  0  0  0  0
  2  1  2  6  0  0  0
  2  5  1  0  0  0  0
  3  4  1  0  0  0  0
  3  2  1  0  0  0  0
  5  8  1  0  0  0  0
  6  9  1  1  0  0  0
  6 15  1  0  0  0  0
  7 11  1  0  0  0  0
  7  6  1  0  0  0  0
  7 10  1  0  0  0  0
  8 12  1  6  0  0  0
  8  7  1  0  0  0  0
  8  6  1  0  0  0  0
 13 19  1  0  0  0  0
 14 20  1  0  0  0  0
 14 13  2  0  0  0  0
 15 14  1  0  0  0  0
 16 15  2  0  0  0  0
 16 17  1  0  0  0  0
 17 18  2  0  0  0  0
 18 13  1  0  0  0  0
 21 17  1  0  0  0  0
 22 23  1  0  0  0  0
 22  2  1  0  0  0  0
 23 28  1  0  0  0  0
 24 25  1  0  0  0  0
 24 23  2  0  0  0  0
 25 26  2  0  0  0  0
 26 31  1  0  0  0  0
 26 27  1  0  0  0  0
 27 32  1  0  0  0  0
 28 27  2  0  0  0  0
 29 24  1  0  0  0  0
 30 25  1  0  0  0  0
 33 32  1  0  0  0  0
 33 37  1  0  0  0  0
 33 35  1  0  0  0  0
 34 33  1  0  0  0  0
 35 36  1  0  0  0  0
 37 38  1  0  0  0  0
M  END
>  <minimizedAffinity>
-4.56582069

>  <minimizedRMSD>
0.844621718

$$$$
