
 OpenBabel03242516503D

 41 43  0  0  1  0  0  0  0  0999 V2000
   47.8990   32.9770   41.8580 C   0  0  1  0  0  0  0  0  0  0  0  0
   47.6350   32.1720   40.6470 C   0  0  0  0  0  0  0  0  0  0  0  0
   48.6800   32.6190   39.6190 C   0  0  0  0  0  0  0  0  0  0  0  0
   48.2740   34.0220   39.2050 C   0  0  0  0  0  0  0  0  0  0  0  0
   48.1590   34.9780   40.3530 C   0  0  0  0  0  0  0  0  0  0  0  0
   47.6530   34.4540   41.6260 C   0  0  1  0  0  0  0  0  0  0  0  0
   49.0070   32.9310   42.0820 H   0  0  0  0  0  0  0  0  0  0  0  0
   46.6250   32.2250   40.2480 H   0  0  0  0  0  0  0  0  0  0  0  0
   47.8620   31.0990   40.9120 H   0  0  0  0  0  0  0  0  0  0  0  0
   49.6670   32.6070   40.1210 H   0  0  0  0  0  0  0  0  0  0  0  0
   48.6020   31.9780   38.7420 H   0  0  0  0  0  0  0  0  0  0  0  0
   47.2870   33.9080   38.6970 H   0  0  0  0  0  0  0  0  0  0  0  0
   49.0240   34.3690   38.4790 H   0  0  0  0  0  0  0  0  0  0  0  0
   47.5320   35.8320   40.0200 H   0  0  0  0  0  0  0  0  0  0  0  0
   49.1920   35.4150   40.4710 H   0  0  0  0  0  0  0  0  0  0  0  0
   48.2150   34.9690   42.4640 H   0  0  0  0  0  0  0  0  0  0  0  0
   45.5390   31.1180   44.1480 C   0  0  0  0  0  0  0  0  0  0  0  0
   46.2210   31.5780   43.0230 C   0  0  0  0  0  0  0  0  0  0  0  0
   47.2310   32.5290   43.0730 C   0  0  0  0  0  0  0  0  0  0  0  0
   47.5300   33.0030   44.2930 N   0  0  0  0  0  0  0  0  0  0  0  0
   46.8760   32.5680   45.4020 C   0  0  0  0  0  0  0  0  0  0  0  0
   45.9100   31.6560   45.3480 N   0  0  0  0  0  0  0  0  0  0  0  0
   44.7700   30.3770   44.0080 H   0  0  0  0  0  0  0  0  0  0  0  0
   45.9660   31.1860   42.0500 H   0  0  0  0  0  0  0  0  0  0  0  0
   47.1780   33.0020   46.3550 H   0  0  0  0  0  0  0  0  0  0  0  0
   46.2440   34.8040   41.8770 C   0  0  0  0  0  0  0  0  0  0  0  0
   45.7390   35.5320   42.9640 C   0  0  0  0  0  0  0  0  0  0  0  0
   44.3600   35.7540   42.9610 C   0  0  0  0  0  0  0  0  0  0  0  0
   43.6180   35.2500   41.9100 C   0  0  0  0  0  0  0  0  0  0  0  0
   44.1290   34.5400   40.8560 C   0  0  0  0  0  0  0  0  0  0  0  0
   45.4710   34.3230   40.8570 N   0  0  0  0  0  0  0  0  0  0  0  0
   46.4480   35.8370   43.6710 H   0  0  0  0  0  0  0  0  0  0  0  0
   43.9720   36.3120   43.7930 H   0  0  0  0  0  0  0  0  0  0  0  0
   42.5550   35.4520   41.9600 H   0  0  0  0  0  0  0  0  0  0  0  0
   43.2160   34.0510   39.7840 C   0  0  0  0  0  0  0  0  0  0  0  0
   42.0550   34.8720   39.6280 N   0  0  0  0  0  0  0  0  0  0  0  0
   42.0810   35.6210   40.3570 H   0  0  0  0  0  0  0  0  0  0  0  0
   40.8220   34.1190   39.8260 C   0  0  0  0  0  0  0  0  0  0  0  0
   40.9690   33.0650   39.5090 H   0  0  0  0  0  0  0  0  0  0  0  0
   41.9630   35.4950   38.3280 C   0  0  0  0  0  0  0  0  0  0  0  0
   41.9060   34.6870   37.5800 H   0  0  0  0  0  0  0  0  0  0  0  0
  1  7  1  1  0  0  0
  1 19  1  0  0  0  0
  2  9  1  0  0  0  0
  2  1  1  0  0  0  0
  3 10  1  0  0  0  0
  3  2  1  0  0  0  0
  4  3  1  0  0  0  0
  4  5  1  0  0  0  0
  5 15  1  0  0  0  0
  5  6  1  0  0  0  0
  6  1  1  0  0  0  0
  6 26  1  0  0  0  0
  6 16  1  1  0  0  0
  8  2  1  0  0  0  0
 11  3  1  0  0  0  0
 12  4  1  0  0  0  0
 13  4  1  0  0  0  0
 14  5  1  0  0  0  0
 17 22  1  0  0  0  0
 18 19  1  0  0  0  0
 18 17  2  0  0  0  0
 19 20  2  0  0  0  0
 20 21  1  0  0  0  0
 21 25  1  0  0  0  0
 22 21  2  0  0  0  0
 23 17  1  0  0  0  0
 24 18  1  0  0  0  0
 26 27  1  0  0  0  0
 27 32  1  0  0  0  0
 28 27  2  0  0  0  0
 28 33  1  0  0  0  0
 29 34  1  0  0  0  0
 29 28  1  0  0  0  0
 30 31  1  0  0  0  0
 30 29  2  0  0  0  0
 31 26  2  0  0  0  0
 35 30  1  0  0  0  0
 36 35  1  0  0  0  0
 36 38  1  0  0  0  0
 36 37  1  0  0  0  0
 39 38  1  0  0  0  0
 40 36  1  0  0  0  0
 41 40  1  0  0  0  0
M  END
>  <minimizedAffinity>
-5.05307865

>  <minimizedRMSD>
0.641473413

$$$$
