
 OpenBabel03252501063D

 38 40  0  0  1  0  0  0  0  0999 V2000
   48.5930   32.3580   38.0640 O   0  0  0  0  0  0  0  0  0  0  0  0
   48.1000   33.7920   38.2510 P   0  0  2  0  0  0  0  0  0  0  0  0
   49.3050   34.7700   37.5680 O   0  0  0  0  0  0  0  0  0  0  0  0
   48.9550   35.7010   37.5760 H   0  0  0  0  0  0  0  0  0  0  0  0
   47.7450   34.1280   39.8120 O   0  0  0  0  0  0  0  0  0  0  0  0
   48.0820   35.4610   41.8040 C   0  0  1  0  0  0  0  0  0  0  0  0
   49.3130   34.6690   41.6850 C   0  0  0  0  0  0  0  0  0  0  0  0
   48.4740   35.0620   40.4550 C   0  0  1  0  0  0  0  0  0  0  0  0
   48.1580   36.5130   42.1190 H   0  0  0  0  0  0  0  0  0  0  0  0
   49.3400   33.5610   41.8660 H   0  0  0  0  0  0  0  0  0  0  0  0
   50.3170   35.1190   41.7890 H   0  0  0  0  0  0  0  0  0  0  0  0
   49.0250   35.7690   39.8080 H   0  0  0  0  0  0  0  0  0  0  0  0
   46.0450   32.9650   43.7990 C   0  0  0  0  0  0  0  0  0  0  0  0
   47.1390   33.6410   43.2680 C   0  0  0  0  0  0  0  0  0  0  0  0
   46.9140   34.7270   42.4010 C   0  0  0  0  0  0  0  0  0  0  0  0
   45.6370   35.0810   42.1090 N   0  0  0  0  0  0  0  0  0  0  0  0
   44.5860   34.4080   42.6380 C   0  0  0  0  0  0  0  0  0  0  0  0
   44.7870   33.3550   43.4790 N   0  0  0  0  0  0  0  0  0  0  0  0
   46.2270   32.1320   44.4640 H   0  0  0  0  0  0  0  0  0  0  0  0
   48.1240   33.3210   43.5300 H   0  0  0  0  0  0  0  0  0  0  0  0
   43.5990   34.7650   42.3470 H   0  0  0  0  0  0  0  0  0  0  0  0
   46.7390   33.9160   37.2770 O   0  0  0  0  0  0  0  0  0  0  0  0
   45.6670   33.0390   37.3310 C   0  0  0  0  0  0  0  0  0  0  0  0
   45.3740   31.9920   36.4760 C   0  0  0  0  0  0  0  0  0  0  0  0
   44.2720   31.2200   36.6710 C   0  0  0  0  0  0  0  0  0  0  0  0
   43.4110   31.4530   37.7210 C   0  0  0  0  0  0  0  0  0  0  0  0
   43.7390   32.5200   38.5650 C   0  0  0  0  0  0  0  0  0  0  0  0
   44.8480   33.2870   38.3580 N   0  0  0  0  0  0  0  0  0  0  0  0
   46.0920   31.8650   35.6730 H   0  0  0  0  0  0  0  0  0  0  0  0
   44.1030   30.4180   35.9650 H   0  0  0  0  0  0  0  0  0  0  0  0
   42.5470   30.8530   37.8810 H   0  0  0  0  0  0  0  0  0  0  0  0
   42.8140   32.7750   39.6990 C   0  0  0  0  0  2  0  0  0  0  0  0
   41.4780   33.1180   39.3230 N   0  0  0  0  0  4  0  0  0  0  0  0
   41.0120   32.4000   38.7220 H   0  0  0  0  0  0  0  0  0  0  0  0
   40.6750   33.1670   40.5360 C   0  0  0  0  0  2  0  0  0  0  0  0
   41.3410   33.2650   41.4350 H   0  0  0  0  0  0  0  0  0  0  0  0
   41.4070   34.4460   38.7390 C   0  0  0  0  0  2  0  0  0  0  0  0
   41.4400   35.1830   39.5870 H   0  0  0  0  0  0  0  0  0  0  0  0
  2  1  2  6  0  0  0
  2  5  1  0  0  0  0
  3  4  1  0  0  0  0
  3  2  1  0  0  0  0
  5  8  1  0  0  0  0
  6  9  1  1  0  0  0
  6 15  1  0  0  0  0
  7 11  1  0  0  0  0
  7  6  1  0  0  0  0
  7 10  1  0  0  0  0
  8 12  1  6  0  0  0
  8  7  1  0  0  0  0
  8  6  1  0  0  0  0
 13 19  1  0  0  0  0
 14 20  1  0  0  0  0
 14 13  2  0  0  0  0
 15 14  1  0  0  0  0
 16 15  2  0  0  0  0
 16 17  1  0  0  0  0
 17 18  2  0  0  0  0
 18 13  1  0  0  0  0
 21 17  1  0  0  0  0
 22 23  1  0  0  0  0
 22  2  1  0  0  0  0
 23 28  1  0  0  0  0
 24 25  1  0  0  0  0
 24 23  2  0  0  0  0
 25 26  2  0  0  0  0
 26 31  1  0  0  0  0
 26 27  1  0  0  0  0
 27 32  1  0  0  0  0
 28 27  2  0  0  0  0
 29 24  1  0  0  0  0
 30 25  1  0  0  0  0
 33 32  1  0  0  0  0
 33 35  1  0  0  0  0
 34 33  1  0  0  0  0
 35 36  1  0  0  0  0
 37 33  1  0  0  0  0
 37 38  1  0  0  0  0
M  END
>  <minimizedAffinity>
-4.52541304

>  <minimizedRMSD>
1.00103021

$$$$
