
 OpenBabel03252501283D

 40 43  0  0  0  0  0  0  0  0999 V2000
   46.7370   32.4980   44.2020 C   0  0  0  0  0  0  0  0  0  0  0  0
   47.4260   33.6350   43.7740 C   0  0  0  0  0  0  0  0  0  0  0  0
   46.6130   34.3390   42.9370 C   0  0  0  0  0  0  0  0  0  0  0  0
   45.4580   33.6540   42.8510 N   0  0  0  0  0  0  0  0  0  0  0  0
   45.5590   32.5710   43.6080 N   0  0  0  0  0  0  0  0  0  0  0  0
   48.4430   33.9270   44.0530 H   0  0  0  0  0  0  0  0  0  0  0  0
   46.8600   35.2660   42.4430 H   0  0  0  0  0  0  0  0  0  0  0  0
   44.1610   31.8850   41.0810 F   0  0  0  0  0  0  0  0  0  0  0  0
   43.6760   33.1200   41.2580 C   0  0  0  0  0  0  0  0  0  0  0  0
   44.3090   33.9690   42.1140 C   0  0  0  0  0  0  0  0  0  0  0  0
   43.8220   35.2770   42.3200 C   0  0  0  0  0  0  0  0  0  0  0  0
   42.7090   35.7250   41.6670 C   0  0  0  0  0  0  0  0  0  0  0  0
   42.0850   34.8450   40.8020 C   0  0  0  0  0  0  0  0  0  0  0  0
   42.5550   33.5600   40.5950 C   0  0  0  0  0  0  0  0  0  0  0  0
   44.3090   35.9690   42.9950 H   0  0  0  0  0  0  0  0  0  0  0  0
   42.3450   36.7320   41.8330 H   0  0  0  0  0  0  0  0  0  0  0  0
   41.2020   35.2220   40.2940 H   0  0  0  0  0  0  0  0  0  0  0  0
   41.8200   32.7130   39.6590 C   0  0  0  0  0  0  0  0  0  0  0  0
   41.6900   32.7590   38.3010 C   0  0  0  0  0  0  0  0  0  0  0  0
   40.9030   31.7580   37.8680 N   0  0  0  0  0  0  0  0  0  0  0  0
   40.5320   31.0740   38.9520 C   0  0  0  0  0  0  0  0  0  0  0  0
   41.0840   31.6470   40.0330 N   0  0  0  0  0  0  0  0  0  0  0  0
   42.1820   33.5320   37.6970 H   0  0  0  0  0  0  0  0  0  0  0  0
   40.6480   31.5750   36.8750 H   0  0  0  0  0  0  0  0  0  0  0  0
   39.8850   30.1840   38.9970 H   0  0  0  0  0  0  0  0  0  0  0  0
   48.4510   29.5290   45.4550 C   0  0  0  0  0  0  0  0  0  0  0  0
   48.2520   29.6240   46.8470 C   0  0  0  0  0  0  0  0  0  0  0  0
   47.5260   30.7140   47.3410 C   0  0  0  0  0  0  0  0  0  0  0  0
   47.0860   31.5760   46.4140 N   0  0  0  0  0  0  0  0  0  0  0  0
   47.2670   31.4970   45.1030 C   0  0  0  0  0  0  0  0  0  0  0  0
   47.9690   30.4460   44.6010 N   0  0  0  0  0  0  0  0  0  0  0  0
   49.0220   28.6660   45.0970 H   0  0  0  0  0  0  0  0  0  0  0  0
   48.6180   28.9170   47.5660 H   0  0  0  0  0  0  0  0  0  0  0  0
   47.2310   30.9590   48.7690 C   0  0  0  0  0  2  0  0  0  0  0  0
   45.9560   30.4400   49.1790 N   0  0  0  0  0  4  0  0  0  0  0  0
   46.0900   29.8190   50.0260 H   0  0  0  0  0  0  0  0  0  0  0  0
   45.3670   29.5890   48.1380 C   0  0  0  0  0  2  0  0  0  0  0  0
   44.3680   29.2680   48.4590 H   0  0  0  0  0  0  0  0  0  0  0  0
   45.0510   31.4870   49.5510 C   0  0  0  0  0  2  0  0  0  0  0  0
   43.9970   31.1810   49.3790 H   0  0  0  0  0  0  0  0  0  0  0  0
  1 30  1  0  0  0  0
  2  6  1  0  0  0  0
  2  1  1  0  0  0  0
  3  2  2  0  0  0  0
  4  3  1  0  0  0  0
  4  5  1  0  0  0  0
  5  1  2  0  0  0  0
  7  3  1  0  0  0  0
  8  9  1  0  0  0  0
  9 10  1  0  0  0  0
 10 11  2  0  0  0  0
 10  4  1  0  0  0  0
 11 15  1  0  0  0  0
 12 16  1  0  0  0  0
 12 11  1  0  0  0  0
 13 12  2  0  0  0  0
 14 13  1  0  0  0  0
 14  9  2  0  0  0  0
 17 13  1  0  0  0  0
 18 22  1  0  0  0  0
 18 14  1  0  0  0  0
 19 18  2  0  0  0  0
 20 19  1  0  0  0  0
 20 21  1  0  0  0  0
 21 25  1  0  0  0  0
 21 22  2  0  0  0  0
 23 19  1  0  0  0  0
 24 20  1  0  0  0  0
 26 27  1  0  0  0  0
 27 28  2  0  0  0  0
 27 33  1  0  0  0  0
 28 34  1  0  0  0  0
 29 28  1  0  0  0  0
 30 29  2  0  0  0  0
 31 30  1  0  0  0  0
 31 26  2  0  0  0  0
 32 26  1  0  0  0  0
 34 35  1  0  0  0  0
 35 39  1  0  0  0  0
 35 36  1  0  0  0  0
 37 38  1  0  0  0  0
 37 35  1  0  0  0  0
 40 39  1  0  0  0  0
M  END
>  <minimizedAffinity>
-5.14664936

>  <minimizedRMSD>
1.84016156

$$$$
