
 OpenBabel03242518123D

 29 30  0  0  0  0  0  0  0  0999 V2000
   49.0630   34.5500   42.4510 C   0  0  0  0  0  0  0  0  0  0  0  0
   49.9100   35.2200   42.7160 H   0  0  0  0  0  0  0  0  0  0  0  0
   48.6180   34.2250   43.4190 H   0  0  0  0  0  0  0  0  0  0  0  0
   49.5640   33.4530   41.6860 C   0  0  0  0  0  0  0  0  0  0  0  0
   49.1590   32.7030   40.5310 C   0  0  0  0  0  0  0  0  0  0  0  0
   49.9560   31.6870   40.0900 C   0  0  0  0  0  0  0  0  0  0  0  0
   51.1820   31.4180   40.8230 C   0  0  0  0  0  0  0  0  0  0  0  0
   51.1940   32.6360   42.1610 S   0  0  0  0  0  0  0  0  0  0  0  0
   48.2300   33.0210   40.1020 H   0  0  0  0  0  0  0  0  0  0  0  0
   49.6890   31.1020   39.2280 H   0  0  0  0  0  0  0  0  0  0  0  0
   52.1270   30.4220   40.5270 C   0  0  0  0  0  2  0  0  0  0  0  0
   52.0040   29.2860   41.3770 N   0  0  0  0  0  4  0  0  0  0  0  0
   52.3250   28.4270   40.8750 H   0  0  0  0  0  0  0  0  0  0  0  0
   50.6830   29.0830   41.9240 C   0  0  0  0  0  2  0  0  0  0  0  0
   50.0660   28.5100   41.2040 H   0  0  0  0  0  0  0  0  0  0  0  0
   52.9260   29.4130   42.5100 C   0  0  0  0  0  2  0  0  0  0  0  0
   53.9600   29.5570   42.0930 H   0  0  0  0  0  0  0  0  0  0  0  0
   48.0350   35.4130   41.7570 C   0  0  0  0  0  0  0  0  0  0  0  0
   48.0970   36.4600   42.1510 H   0  0  0  0  0  0  0  0  0  0  0  0
   48.2650   35.4440   40.6970 H   0  0  0  0  0  0  0  0  0  0  0  0
   46.7110   34.8720   42.0260 C   0  0  0  0  0  0  0  0  0  0  0  0
   46.1900   34.7820   43.3040 C   0  0  0  0  0  0  0  0  0  0  0  0
   44.9140   34.2500   43.4750 C   0  0  0  0  0  0  0  0  0  0  0  0
   44.2480   33.8450   42.3710 N   0  0  0  0  0  0  0  0  0  0  0  0
   44.7590   33.9340   41.1420 C   0  0  0  0  0  0  0  0  0  0  0  0
   45.9650   34.4400   41.0010 N   0  0  0  0  0  0  0  0  0  0  0  0
   46.7680   35.1240   44.1600 H   0  0  0  0  0  0  0  0  0  0  0  0
   44.4810   34.1700   44.4800 H   0  0  0  0  0  0  0  0  0  0  0  0
   44.1950   33.5990   40.2810 H   0  0  0  0  0  0  0  0  0  0  0  0
  1  2  1  0  0  0  0
  1  3  1  0  0  0  0
  4  8  1  0  0  0  0
  4  1  1  0  0  0  0
  5  4  2  0  0  0  0
  6  5  1  0  0  0  0
  6  7  2  0  0  0  0
  7  8  1  0  0  0  0
  9  5  1  0  0  0  0
 10  6  1  0  0  0  0
 11  7  1  0  0  0  0
 11 12  1  0  0  0  0
 12 14  1  0  0  0  0
 12 16  1  0  0  0  0
 13 12  1  0  0  0  0
 15 14  1  0  0  0  0
 17 16  1  0  0  0  0
 18 21  1  0  0  0  0
 18 19  1  0  0  0  0
 18  1  1  0  0  0  0
 20 18  1  0  0  0  0
 21 22  1  0  0  0  0
 22 23  2  0  0  0  0
 22 27  1  0  0  0  0
 23 28  1  0  0  0  0
 24 23  1  0  0  0  0
 25 24  2  0  0  0  0
 26 25  1  0  0  0  0
 26 21  2  0  0  0  0
 29 25  1  0  0  0  0
M  END
>  <minimizedAffinity>
-3.25524044

>  <minimizedRMSD>
0.656633556

$$$$
