
 OpenBabel03252502073D

 46 49  0  0  0  0  0  0  0  0999 V2000
   47.4280   32.0770   47.8750 C   0  0  0  0  0  0  0  0  0  0  0  0
   46.8910   30.7830   47.8970 C   0  0  0  0  0  0  0  0  0  0  0  0
   45.9260   30.5060   46.9890 C   0  0  0  0  0  0  0  0  0  0  0  0
   45.5280   31.4480   46.1190 N   0  0  0  0  0  0  0  0  0  0  0  0
   46.0180   32.6670   46.0770 C   0  0  0  0  0  0  0  0  0  0  0  0
   46.9820   32.9690   46.9780 N   0  0  0  0  0  0  0  0  0  0  0  0
   45.3330   29.2640   46.9620 N   0  0  0  0  0  0  0  0  0  0  0  0
   44.1450   28.9100   46.1320 C   0  0  0  0  0  0  0  0  0  0  0  0
   44.0350   27.4150   46.1930 C   0  0  0  0  0  0  0  0  0  0  0  0
   44.6550   27.0850   47.5050 C   0  0  0  0  0  0  0  0  0  0  0  0
   45.7230   28.1060   47.7120 C   0  0  0  0  0  0  0  0  0  0  0  0
   48.2110   32.3530   48.5940 H   0  0  0  0  0  0  0  0  0  0  0  0
   44.2580   29.2270   45.0980 H   0  0  0  0  0  0  0  0  0  0  0  0
   43.2850   29.4200   46.6470 H   0  0  0  0  0  0  0  0  0  0  0  0
   42.9600   27.0800   46.2210 H   0  0  0  0  0  0  0  0  0  0  0  0
   44.5980   26.9410   45.3860 H   0  0  0  0  0  0  0  0  0  0  0  0
   43.8730   27.0720   48.3120 H   0  0  0  0  0  0  0  0  0  0  0  0
   45.0910   26.0600   47.5120 H   0  0  0  0  0  0  0  0  0  0  0  0
   45.6670   28.3300   48.7980 H   0  0  0  0  0  0  0  0  0  0  0  0
   46.6690   27.6710   47.3720 H   0  0  0  0  0  0  0  0  0  0  0  0
   45.7430   33.8210   45.1880 C   0  0  0  0  0  0  0  0  0  0  0  0
   44.8440   34.7770   45.4620 N   0  0  0  0  0  0  0  0  0  0  0  0
   44.5870   35.8230   44.6820 C   0  0  0  0  0  0  0  0  0  0  0  0
   45.2540   35.9830   43.5160 N   0  0  0  0  0  0  0  0  0  0  0  0
   46.1690   35.1040   43.1340 C   0  0  0  0  0  0  0  0  0  0  0  0
   46.8660   35.2590   41.9440 C   0  0  0  0  0  0  0  0  0  0  0  0
   47.8110   34.3690   41.5460 C   0  0  0  0  0  0  0  0  0  0  0  0
   48.0620   33.2950   42.3650 C   0  0  0  0  0  0  0  0  0  0  0  0
   47.3530   33.1610   43.5480 C   0  0  0  0  0  0  0  0  0  0  0  0
   46.3990   34.0330   43.9800 C   0  0  0  0  0  0  0  0  0  0  0  0
   43.8290   36.5430   45.0080 H   0  0  0  0  0  0  0  0  0  0  0  0
   46.6490   36.1130   41.3170 H   0  0  0  0  0  0  0  0  0  0  0  0
   48.3390   34.5150   40.6130 H   0  0  0  0  0  0  0  0  0  0  0  0
   47.7340   31.9910   44.2640 N   0  0  0  0  0  0  0  0  0  0  0  0
   47.1110   31.2600   43.8470 H   0  0  0  0  0  0  0  0  0  0  0  0
   48.4290   31.7820   45.0090 H   0  0  0  0  0  0  0  0  0  0  0  0
   49.1050   32.3400   41.9080 C   0  0  0  0  0  2  0  0  0  0  0  0
   48.9370   31.9470   40.5340 N   0  0  0  0  0  4  0  0  0  0  0  0
   48.5240   32.7380   40.0080 H   0  0  0  0  0  0  0  0  0  0  0  0
   48.1660   30.7410   40.3720 C   0  0  0  0  0  2  0  0  0  0  0  0
   47.9400   30.6380   39.2900 H   0  0  0  0  0  0  0  0  0  0  0  0
   50.2320   31.6650   39.9210 C   0  0  0  0  0  2  0  0  0  0  0  0
   50.5470   30.6370   40.2480 H   0  0  0  0  0  0  0  0  0  0  0  0
   47.4100   29.8970   48.8010 N   0  0  0  0  0  0  0  0  0  0  0  0
   48.1150   29.2120   48.4520 H   0  0  0  0  0  0  0  0  0  0  0  0
   47.1550   29.8560   49.8340 H   0  0  0  0  0  0  0  0  0  0  0  0
  1  2  1  0  0  0  0
  1 12  1  0  0  0  0
  2 44  1  0  0  0  0
  3  2  2  0  0  0  0
  4  3  1  0  0  0  0
  5  4  2  0  0  0  0
  5  6  1  0  0  0  0
  6  1  2  0  0  0  0
  7  3  1  0  0  0  0
  7 11  1  0  0  0  0
  8  9  1  0  0  0  0
  8 14  1  0  0  0  0
  8  7  1  0  0  0  0
  9 15  1  0  0  0  0
  9 10  1  0  0  0  0
 10 18  1  0  0  0  0
 10 11  1  0  0  0  0
 10 17  1  0  0  0  0
 11 19  1  0  0  0  0
 13  8  1  0  0  0  0
 16  9  1  0  0  0  0
 20 11  1  0  0  0  0
 21 22  1  0  0  0  0
 21  5  1  0  0  0  0
 23 31  1  0  0  0  0
 23 22  2  0  0  0  0
 24 23  1  0  0  0  0
 25 24  2  0  0  0  0
 25 30  1  0  0  0  0
 26 25  1  0  0  0  0
 27 26  2  0  0  0  0
 27 28  1  0  0  0  0
 28 29  2  0  0  0  0
 29 30  1  0  0  0  0
 29 34  1  0  0  0  0
 30 21  2  0  0  0  0
 32 26  1  0  0  0  0
 33 27  1  0  0  0  0
 34 36  1  0  0  0  0
 35 34  1  0  0  0  0
 37 28  1  0  0  0  0
 38 37  1  0  0  0  0
 39 38  1  0  0  0  0
 40 38  1  0  0  0  0
 41 40  1  0  0  0  0
 42 43  1  0  0  0  0
 42 38  1  0  0  0  0
 44 46  1  0  0  0  0
 45 44  1  0  0  0  0
M  END
>  <minimizedAffinity>
-6.35256338

>  <minimizedRMSD>
0.496115446

$$$$
