
 OpenBabel03242516133D

 39 41  0  0  0  0  0  0  0  0999 V2000
   48.0600   34.5840   41.7280 C   0  0  0  0  0  0  0  0  0  0  0  0
   48.8670   35.8410   41.4070 C   0  0  0  0  0  0  0  0  0  0  0  0
   49.4700   34.6880   42.0860 C   0  0  0  0  0  0  0  0  0  0  0  0
   48.6000   36.7150   42.0330 H   0  0  0  0  0  0  0  0  0  0  0  0
   49.0410   36.1010   40.3560 H   0  0  0  0  0  0  0  0  0  0  0  0
   50.2640   34.1380   41.5020 H   0  0  0  0  0  0  0  0  0  0  0  0
   49.8010   34.8560   43.1200 H   0  0  0  0  0  0  0  0  0  0  0  0
   47.6730   33.7860   40.5150 C   0  0  0  0  0  0  0  0  0  0  0  0
   48.1450   34.3680   39.2010 C   0  0  0  0  0  0  0  0  0  0  0  0
   47.7590   33.3460   38.1370 C   0  0  0  0  0  0  0  0  0  0  0  0
   46.3780   33.4130   37.9790 O   0  0  0  0  0  0  0  0  0  0  0  0
   45.8830   32.8050   39.1580 C   0  0  0  0  0  0  0  0  0  0  0  0
   46.1500   33.7440   40.3330 C   0  0  0  0  0  0  0  0  0  0  0  0
   48.0670   32.7660   40.6460 H   0  0  0  0  0  0  0  0  0  0  0  0
   47.6450   35.3030   38.9510 H   0  0  0  0  0  0  0  0  0  0  0  0
   49.2590   34.4250   39.1700 H   0  0  0  0  0  0  0  0  0  0  0  0
   48.3090   33.4980   37.1940 H   0  0  0  0  0  0  0  0  0  0  0  0
   48.0560   32.3500   38.5490 H   0  0  0  0  0  0  0  0  0  0  0  0
   46.4510   31.8720   39.3760 H   0  0  0  0  0  0  0  0  0  0  0  0
   44.8040   32.5790   39.0620 H   0  0  0  0  0  0  0  0  0  0  0  0
   45.6200   33.4110   41.2230 H   0  0  0  0  0  0  0  0  0  0  0  0
   45.8740   34.7530   39.9750 H   0  0  0  0  0  0  0  0  0  0  0  0
   46.1410   35.7840   42.7890 C   0  0  0  0  0  0  0  0  0  0  0  0
   47.0220   34.7050   42.8000 C   0  0  0  0  0  0  0  0  0  0  0  0
   46.8940   33.7700   43.8500 C   0  0  0  0  0  0  0  0  0  0  0  0
   45.9380   33.9650   44.7830 N   0  0  0  0  0  0  0  0  0  0  0  0
   45.1210   35.0250   44.7160 C   0  0  0  0  0  0  0  0  0  0  0  0
   45.1990   35.9350   43.7440 N   0  0  0  0  0  0  0  0  0  0  0  0
   44.0940   35.2720   45.6740 N   0  0  0  0  0  0  0  0  0  0  0  0
   46.2620   36.4840   41.9710 H   0  0  0  0  0  0  0  0  0  0  0  0
   44.2480   35.6080   46.6450 H   0  0  0  0  0  0  0  0  0  0  0  0
   43.0600   35.1360   45.4920 H   0  0  0  0  0  0  0  0  0  0  0  0
   47.7400   32.5790   43.9520 C   0  0  0  0  0  0  0  0  0  0  0  0
   47.0830   31.3180   44.0630 N   0  0  0  0  0  0  0  0  0  0  0  0
   46.1260   31.3940   44.4770 H   0  0  0  0  0  0  0  0  0  0  0  0
   46.8260   30.8400   42.6890 C   0  0  0  0  0  0  0  0  0  0  0  0
   46.0530   30.0580   42.6660 H   0  0  0  0  0  0  0  0  0  0  0  0
   47.7660   30.2710   44.7360 C   0  0  0  0  0  0  0  0  0  0  0  0
   47.3650   29.2950   44.3190 H   0  0  0  0  0  0  0  0  0  0  0  0
  1  3  1  0  0  0  0
  1 24  1  0  0  0  0
  2  1  1  0  0  0  0
  2  4  1  0  0  0  0
  2  3  1  0  0  0  0
  3  7  1  0  0  0  0
  5  2  1  0  0  0  0
  6  3  1  0  0  0  0
  8 14  1  0  0  0  0
  8  1  1  0  0  0  0
  9  8  1  0  0  0  0
 10 18  1  0  0  0  0
 10  9  1  0  0  0  0
 11 10  1  0  0  0  0
 11 12  1  0  0  0  0
 12 19  1  0  0  0  0
 12 13  1  0  0  0  0
 13  8  1  0  0  0  0
 13 21  1  0  0  0  0
 15  9  1  0  0  0  0
 16  9  1  0  0  0  0
 17 10  1  0  0  0  0
 20 12  1  0  0  0  0
 22 13  1  0  0  0  0
 23 24  2  0  0  0  0
 23 28  1  0  0  0  0
 24 25  1  0  0  0  0
 25 33  1  0  0  0  0
 25 26  2  0  0  0  0
 27 26  1  0  0  0  0
 27 29  1  0  0  0  0
 28 27  2  0  0  0  0
 29 31  1  0  0  0  0
 30 23  1  0  0  0  0
 32 29  1  0  0  0  0
 33 34  1  0  0  0  0
 34 35  1  0  0  0  0
 34 38  1  0  0  0  0
 36 34  1  0  0  0  0
 37 36  1  0  0  0  0
 39 38  1  0  0  0  0
M  END
>  <minimizedAffinity>
-5.3012104

>  <minimizedRMSD>
0.915568173

$$$$
