
 OpenBabel03242517373D

 31 32  0  0  0  0  0  0  0  0999 V2000
   43.1240   35.5930   41.1120 C   0  0  0  0  0  3  0  0  0  0  0  0
   42.1050   35.0170   40.5220 C   0  0  0  0  0  3  0  0  0  0  0  0
   44.5370   35.8530   43.1340 C   0  0  0  0  0  0  0  0  0  0  0  0
   43.9110   35.0340   42.1880 C   0  0  0  0  0  0  0  0  0  0  0  0
   44.0730   33.6680   42.3200 C   0  0  0  0  0  0  0  0  0  0  0  0
   44.8270   33.1870   43.3530 N   0  0  0  0  0  0  0  0  0  0  0  0
   45.4190   34.0020   44.2510 C   0  0  0  0  0  0  0  0  0  0  0  0
   45.2680   35.3220   44.1320 N   0  0  0  0  0  0  0  0  0  0  0  0
   44.3890   36.9290   43.0010 H   0  0  0  0  0  0  0  0  0  0  0  0
   43.6090   32.9840   41.6130 H   0  0  0  0  0  0  0  0  0  0  0  0
   46.2380   33.4800   45.3750 C   0  0  0  0  0  2  0  0  0  0  0  0
   47.4260   32.7790   44.9420 N   0  0  0  0  0  4  0  0  0  0  0  0
   48.1930   33.0410   45.6180 H   0  0  0  0  0  0  0  0  0  0  0  0
   47.3020   31.3510   44.9370 C   0  0  0  0  0  2  0  0  0  0  0  0
   46.9840   30.9940   43.9380 H   0  0  0  0  0  0  0  0  0  0  0  0
   47.8340   33.3160   43.6570 C   0  0  0  0  0  2  0  0  0  0  0  0
   48.2380   32.4900   43.0260 H   0  0  0  0  0  0  0  0  0  0  0  0
   41.3250   35.6320   39.4180 C   0  0  0  0  0  0  0  0  0  0  0  0
   41.9630   35.7090   38.5220 H   0  0  0  0  0  0  0  0  0  0  0  0
   40.9410   36.6270   39.7720 H   0  0  0  0  0  0  0  0  0  0  0  0
   40.1110   34.8210   39.0920 C   0  0  0  0  0  0  0  0  0  0  0  0
   39.8030   34.5970   37.7570 C   0  0  0  0  0  0  0  0  0  0  0  0
   38.6810   33.8470   37.4330 C   0  0  0  0  0  0  0  0  0  0  0  0
   37.8640   33.3210   38.4340 C   0  0  0  0  0  0  0  0  0  0  0  0
   38.1720   33.5440   39.7580 C   0  0  0  0  0  0  0  0  0  0  0  0
   39.2930   34.2930   40.0740 C   0  0  0  0  0  0  0  0  0  0  0  0
   40.4570   35.0190   36.9790 H   0  0  0  0  0  0  0  0  0  0  0  0
   38.5050   33.7140   36.3750 H   0  0  0  0  0  0  0  0  0  0  0  0
   37.0240   32.7560   38.0530 H   0  0  0  0  0  0  0  0  0  0  0  0
   37.5100   33.1170   40.5000 H   0  0  0  0  0  0  0  0  0  0  0  0
   39.5190   34.4590   41.1170 H   0  0  0  0  0  0  0  0  0  0  0  0
  1  4  1  0  0  0  0
  2  1  2  0  0  0  0
  3  8  1  0  0  0  0
  4  5  1  0  0  0  0
  4  3  2  0  0  0  0
  5  6  2  0  0  0  0
  6  7  1  0  0  0  0
  7 11  1  0  0  0  0
  8  7  2  0  0  0  0
  9  3  1  0  0  0  0
 10  5  1  0  0  0  0
 12 11  1  0  0  0  0
 12 13  1  0  0  0  0
 14 12  1  0  0  0  0
 15 14  1  0  0  0  0
 16 12  1  0  0  0  0
 17 16  1  0  0  0  0
 18 20  1  0  0  0  0
 18  2  1  0  0  0  0
 19 18  1  0  0  0  0
 21 18  1  0  0  0  0
 21 26  1  0  0  0  0
 22 21  2  0  0  0  0
 23 22  1  0  0  0  0
 23 24  2  0  0  0  0
 24 25  1  0  0  0  0
 25 26  2  0  0  0  0
 25 30  1  0  0  0  0
 26 31  1  0  0  0  0
 27 22  1  0  0  0  0
 28 23  1  0  0  0  0
 29 24  1  0  0  0  0
M  END
>  <minimizedAffinity>
-5.46882534

>  <minimizedRMSD>
1.15643561

$$$$
