
 OpenBabel03252507093D

 22 22  0  0  0  0  0  0  0  0999 V2000
   40.2060   28.6600   42.8860 C   0  0  0  0  0  0  0  0  0  0  0  0
   39.9530   29.9110   42.2970 C   0  0  0  0  0  0  0  0  0  0  0  0
   38.6810   30.1020   41.7580 C   0  0  0  0  0  0  0  0  0  0  0  0
   37.7660   29.1070   41.8190 N   0  0  0  0  0  0  0  0  0  0  0  0
   38.0460   27.9120   42.3960 C   0  0  0  0  0  0  0  0  0  0  0  0
   39.2740   27.6950   42.9300 N   0  0  0  0  0  0  0  0  0  0  0  0
   41.2030   28.5410   43.2970 H   0  0  0  0  0  0  0  0  0  0  0  0
   40.7060   30.6790   42.2670 H   0  0  0  0  0  0  0  0  0  0  0  0
   38.4300   31.3460   41.1720 O   0  0  0  0  0  0  0  0  0  0  0  0
   36.9530   30.9050   39.0250 O   0  0  0  0  0  0  0  0  0  0  0  0
   36.9360   31.6080   40.3820 P   0  0  0  0  0  0  0  0  0  0  0  0
   35.6960   31.0630   41.3490 O   0  0  0  0  0  0  0  0  0  0  0  0
   34.9970   31.7640   41.3930 H   0  0  0  0  0  0  0  0  0  0  0  0
   36.8000   33.2730   40.0820 O   0  0  0  0  0  0  0  0  0  0  0  0
   37.1340   33.5170   39.1850 H   0  0  0  0  0  0  0  0  0  0  0  0
   37.0010   26.8870   42.4210 C   0  0  0  0  0  2  0  0  0  0  0  0
   37.3420   25.7870   41.5540 N   0  0  0  0  0  4  0  0  0  0  0  0
   38.3910   25.8160   41.4580 H   0  0  0  0  0  0  0  0  0  0  0  0
   36.8310   26.0130   40.2110 C   0  0  0  0  0  2  0  0  0  0  0  0
   35.8730   25.4820   40.0420 H   0  0  0  0  0  0  0  0  0  0  0  0
   37.0090   24.4930   42.0560 C   0  0  0  0  0  2  0  0  0  0  0  0
   36.4540   23.8780   41.2940 H   0  0  0  0  0  0  0  0  0  0  0  0
  1  6  1  0  0  0  0
  1  7  1  0  0  0  0
  2  1  2  0  0  0  0
  3  4  2  0  0  0  0
  3  2  1  0  0  0  0
  4  5  1  0  0  0  0
  5 16  1  0  0  0  0
  5  6  2  0  0  0  0
  8  2  1  0  0  0  0
  9  3  1  0  0  0  0
 10 11  2  0  0  0  0
 11  9  1  0  0  0  0
 11 12  1  0  0  0  0
 12 13  1  0  0  0  0
 14 11  1  0  0  0  0
 15 14  1  0  0  0  0
 17 21  1  0  0  0  0
 17 16  1  0  0  0  0
 18 17  1  0  0  0  0
 19 17  1  0  0  0  0
 20 19  1  0  0  0  0
 22 21  1  0  0  0  0
M  END
>  <minimizedAffinity>
-4.52377892

$$$$

 OpenBabel03252507093D

 22 22  0  0  0  0  0  0  0  0999 V2000
   39.9010   26.8360   43.3430 C   0  0  0  0  0  0  0  0  0  0  0  0
   39.2110   28.0560   43.2400 C   0  0  0  0  0  0  0  0  0  0  0  0
   37.9150   28.0000   42.7300 C   0  0  0  0  0  0  0  0  0  0  0  0
   37.3840   26.8100   42.3640 N   0  0  0  0  0  0  0  0  0  0  0  0
   38.0800   25.6510   42.4790 C   0  0  0  0  0  0  0  0  0  0  0  0
   39.3440   25.6730   42.9720 N   0  0  0  0  0  0  0  0  0  0  0  0
   40.9060   26.9100   43.7440 H   0  0  0  0  0  0  0  0  0  0  0  0
   39.6660   28.9840   43.5410 H   0  0  0  0  0  0  0  0  0  0  0  0
   37.2290   29.2150   42.6270 O   0  0  0  0  0  0  0  0  0  0  0  0
   37.7090   30.0730   40.1740 O   0  0  0  0  0  0  0  0  0  0  0  0
   36.5730   29.6750   41.1170 P   0  0  0  0  0  0  0  0  0  0  0  0
   35.6670   28.4210   40.5020 O   0  0  0  0  0  0  0  0  0  0  0  0
   34.7930   28.7800   40.2010 H   0  0  0  0  0  0  0  0  0  0  0  0
   35.6240   31.0580   41.3700 O   0  0  0  0  0  0  0  0  0  0  0  0
   36.1340   31.8900   41.2210 H   0  0  0  0  0  0  0  0  0  0  0  0
   37.4340   24.4060   42.0610 C   0  0  0  0  0  2  0  0  0  0  0  0
   37.4950   24.2540   40.6290 N   0  0  0  0  0  4  0  0  0  0  0  0
   37.6540   25.2230   40.2470 H   0  0  0  0  0  0  0  0  0  0  0  0
   36.2050   23.8420   40.0990 C   0  0  0  0  0  2  0  0  0  0  0  0
   36.1600   22.7480   39.9320 H   0  0  0  0  0  0  0  0  0  0  0  0
   38.5680   23.4420   40.1510 C   0  0  0  0  0  2  0  0  0  0  0  0
   38.2110   22.6670   39.4160 H   0  0  0  0  0  0  0  0  0  0  0  0
  1  7  1  0  0  0  0
  2  1  1  0  0  0  0
  2  8  1  0  0  0  0
  3  2  2  0  0  0  0
  4  5  2  0  0  0  0
  4  3  1  0  0  0  0
  5  6  1  0  0  0  0
  6  1  2  0  0  0  0
  9  3  1  0  0  0  0
 10 11  2  0  0  0  0
 11 14  1  0  0  0  0
 11  9  1  0  0  0  0
 12 11  1  0  0  0  0
 13 12  1  0  0  0  0
 15 14  1  0  0  0  0
 16  5  1  0  0  0  0
 17 16  1  0  0  0  0
 18 17  1  0  0  0  0
 19 17  1  0  0  0  0
 20 19  1  0  0  0  0
 21 17  1  0  0  0  0
 22 21  1  0  0  0  0
M  END
>  <minimizedAffinity>
-4.14953852

$$$$

 OpenBabel03252507093D

 22 22  0  0  0  0  0  0  0  0999 V2000
   37.0960   27.5690   37.3570 C   0  0  0  0  0  0  0  0  0  0  0  0
   37.0380   28.9710   37.4340 C   0  0  0  0  0  0  0  0  0  0  0  0
   36.9300   29.5230   38.7110 C   0  0  0  0  0  0  0  0  0  0  0  0
   36.8860   28.7130   39.7940 N   0  0  0  0  0  0  0  0  0  0  0  0
   36.9450   27.3630   39.6810 C   0  0  0  0  0  0  0  0  0  0  0  0
   37.0510   26.7960   38.4530 N   0  0  0  0  0  0  0  0  0  0  0  0
   37.1810   27.1690   36.3520 H   0  0  0  0  0  0  0  0  0  0  0  0
   37.0760   29.5840   36.5500 H   0  0  0  0  0  0  0  0  0  0  0  0
   36.8720   30.9180   38.7870 O   0  0  0  0  0  0  0  0  0  0  0  0
   38.3300   31.3070   40.9560 O   0  0  0  0  0  0  0  0  0  0  0  0
   36.9920   31.6740   40.3150 P   0  0  0  0  0  0  0  0  0  0  0  0
   36.8220   33.3200   40.1330 O   0  0  0  0  0  0  0  0  0  0  0  0
   36.1690   33.6470   40.8040 H   0  0  0  0  0  0  0  0  0  0  0  0
   35.7700   31.0320   41.3020 O   0  0  0  0  0  0  0  0  0  0  0  0
   36.0890   30.2640   41.8360 H   0  0  0  0  0  0  0  0  0  0  0  0
   36.8920   26.5580   40.9020 C   0  0  0  0  0  2  0  0  0  0  0  0
   37.4440   27.2850   42.0180 N   0  0  0  0  0  4  0  0  0  0  0  0
   37.5450   28.2800   41.6870 H   0  0  0  0  0  0  0  0  0  0  0  0
   38.7990   26.8390   42.3030 C   0  0  0  0  0  2  0  0  0  0  0  0
   38.8240   26.1030   43.1310 H   0  0  0  0  0  0  0  0  0  0  0  0
   36.6220   27.3190   43.1850 C   0  0  0  0  0  2  0  0  0  0  0  0
   37.1980   27.0400   44.1120 H   0  0  0  0  0  0  0  0  0  0  0  0
  1  2  2  0  0  0  0
  1  6  1  0  0  0  0
  2  3  1  0  0  0  0
  3  9  1  0  0  0  0
  3  4  2  0  0  0  0
  5  4  1  0  0  0  0
  5 16  1  0  0  0  0
  6  5  2  0  0  0  0
  7  1  1  0  0  0  0
  8  2  1  0  0  0  0
  9 11  1  0  0  0  0
 11 10  2  0  0  0  0
 11 14  1  0  0  0  0
 12 11  1  0  0  0  0
 12 13  1  0  0  0  0
 14 15  1  0  0  0  0
 16 17  1  0  0  0  0
 17 19  1  0  0  0  0
 17 21  1  0  0  0  0
 18 17  1  0  0  0  0
 19 20  1  0  0  0  0
 21 22  1  0  0  0  0
M  END
>  <minimizedAffinity>
-4.06369877

$$$$

 OpenBabel03252507093D

 22 22  0  0  0  0  0  0  0  0999 V2000
   36.4390   26.6500   38.9290 C   0  0  0  0  0  0  0  0  0  0  0  0
   36.6370   27.9920   38.5610 C   0  0  0  0  0  0  0  0  0  0  0  0
   37.0100   28.8710   39.5780 C   0  0  0  0  0  0  0  0  0  0  0  0
   37.1620   28.4140   40.8420 N   0  0  0  0  0  0  0  0  0  0  0  0
   36.9630   27.1110   41.1610 C   0  0  0  0  0  0  0  0  0  0  0  0
   36.6000   26.2310   40.1940 N   0  0  0  0  0  0  0  0  0  0  0  0
   36.1510   25.9900   38.1180 H   0  0  0  0  0  0  0  0  0  0  0  0
   36.5070   28.3200   37.5440 H   0  0  0  0  0  0  0  0  0  0  0  0
   37.2060   30.2060   39.2110 O   0  0  0  0  0  0  0  0  0  0  0  0
   38.2590   31.4510   41.2900 O   0  0  0  0  0  0  0  0  0  0  0  0
   37.0230   31.4290   40.3920 P   0  0  0  0  0  0  0  0  0  0  0  0
   36.7780   32.8930   39.6380 O   0  0  0  0  0  0  0  0  0  0  0  0
   36.0030   33.3420   40.0640 H   0  0  0  0  0  0  0  0  0  0  0  0
   35.7010   31.0070   41.3670 O   0  0  0  0  0  0  0  0  0  0  0  0
   35.9780   30.4990   42.1680 H   0  0  0  0  0  0  0  0  0  0  0  0
   37.1480   26.6960   42.5520 C   0  0  0  0  0  2  0  0  0  0  0  0
   38.5370   26.4140   42.8200 N   0  0  0  0  0  4  0  0  0  0  0  0
   38.5400   25.7580   43.6440 H   0  0  0  0  0  0  0  0  0  0  0  0
   39.2250   27.6090   43.2830 C   0  0  0  0  0  2  0  0  0  0  0  0
   39.7750   28.1100   42.4620 H   0  0  0  0  0  0  0  0  0  0  0  0
   39.2350   25.7540   41.7650 C   0  0  0  0  0  2  0  0  0  0  0  0
   40.2120   26.2620   41.5270 H   0  0  0  0  0  0  0  0  0  0  0  0
  1  6  1  0  0  0  0
  2  1  2  0  0  0  0
  2  3  1  0  0  0  0
  3  4  2  0  0  0  0
  4  5  1  0  0  0  0
  5 16  1  0  0  0  0
  6  5  2  0  0  0  0
  7  1  1  0  0  0  0
  8  2  1  0  0  0  0
  9  3  1  0  0  0  0
  9 11  1  0  0  0  0
 11 10  2  0  0  0  0
 11 14  1  0  0  0  0
 12 13  1  0  0  0  0
 12 11  1  0  0  0  0
 14 15  1  0  0  0  0
 16 17  1  0  0  0  0
 17 19  1  0  0  0  0
 17 18  1  0  0  0  0
 20 19  1  0  0  0  0
 21 17  1  0  0  0  0
 22 21  1  0  0  0  0
M  END
>  <minimizedAffinity>
-4.0574379

$$$$

 OpenBabel03252507093D

 22 22  0  0  0  0  0  0  0  0999 V2000
   38.2560   29.1550   43.1380 C   0  0  0  0  0  0  0  0  0  0  0  0
   38.0140   27.7810   43.3100 C   0  0  0  0  0  0  0  0  0  0  0  0
   37.0370   27.2110   42.4940 C   0  0  0  0  0  0  0  0  0  0  0  0
   36.3780   27.9780   41.5950 N   0  0  0  0  0  0  0  0  0  0  0  0
   36.6370   29.3020   41.4570 C   0  0  0  0  0  0  0  0  0  0  0  0
   37.5830   29.8850   42.2360 N   0  0  0  0  0  0  0  0  0  0  0  0
   39.0210   29.5700   43.7860 H   0  0  0  0  0  0  0  0  0  0  0  0
   38.5600   27.2020   44.0360 H   0  0  0  0  0  0  0  0  0  0  0  0
   36.7980   25.8440   42.6660 O   0  0  0  0  0  0  0  0  0  0  0  0
   36.1800   23.9520   40.9270 O   0  0  0  0  0  0  0  0  0  0  0  0
   37.3620   24.7450   41.4840 P   0  0  0  0  0  0  0  0  0  0  0  0
   38.1670   25.5820   40.2900 O   0  0  0  0  0  0  0  0  0  0  0  0
   39.0310   25.1290   40.1150 H   0  0  0  0  0  0  0  0  0  0  0  0
   38.3870   23.6390   42.2610 O   0  0  0  0  0  0  0  0  0  0  0  0
   37.9040   22.8280   42.5530 H   0  0  0  0  0  0  0  0  0  0  0  0
   35.8800   30.0620   40.4610 C   0  0  0  0  0  2  0  0  0  0  0  0
   36.6620   30.2590   39.2660 N   0  0  0  0  0  4  0  0  0  0  0  0
   37.5680   29.7470   39.4310 H   0  0  0  0  0  0  0  0  0  0  0  0
   37.0370   31.6580   39.1220 C   0  0  0  0  0  2  0  0  0  0  0  0
   36.3590   32.1950   38.4300 H   0  0  0  0  0  0  0  0  0  0  0  0
   36.0930   29.7190   38.0740 C   0  0  0  0  0  2  0  0  0  0  0  0
   36.0900   30.4690   37.2340 H   0  0  0  0  0  0  0  0  0  0  0  0
  1  2  1  0  0  0  0
  1  7  1  0  0  0  0
  2  8  1  0  0  0  0
  3  9  1  0  0  0  0
  3  2  2  0  0  0  0
  4  3  1  0  0  0  0
  5  4  2  0  0  0  0
  5  6  1  0  0  0  0
  6  1  2  0  0  0  0
 10 11  2  0  0  0  0
 11 14  1  0  0  0  0
 11  9  1  0  0  0  0
 12 11  1  0  0  0  0
 13 12  1  0  0  0  0
 14 15  1  0  0  0  0
 16  5  1  0  0  0  0
 17 18  1  0  0  0  0
 17 16  1  0  0  0  0
 19 17  1  0  0  0  0
 20 19  1  0  0  0  0
 21 17  1  0  0  0  0
 22 21  1  0  0  0  0
M  END
>  <minimizedAffinity>
-4.03153706

$$$$

 OpenBabel03252507093D

 22 22  0  0  0  0  0  0  0  0999 V2000
   37.2570   25.2300   39.2460 C   0  0  0  0  0  0  0  0  0  0  0  0
   36.5410   26.4380   39.3180 C   0  0  0  0  0  0  0  0  0  0  0  0
   36.6750   27.1750   40.4940 C   0  0  0  0  0  0  0  0  0  0  0  0
   37.4640   26.7150   41.4920 N   0  0  0  0  0  0  0  0  0  0  0  0
   38.1410   25.5440   41.3880 C   0  0  0  0  0  0  0  0  0  0  0  0
   38.0310   24.8050   40.2560 N   0  0  0  0  0  0  0  0  0  0  0  0
   37.1340   24.6790   38.3200 H   0  0  0  0  0  0  0  0  0  0  0  0
   35.9230   26.7720   38.5020 H   0  0  0  0  0  0  0  0  0  0  0  0
   35.9620   28.3760   40.5640 O   0  0  0  0  0  0  0  0  0  0  0  0
   38.0170   30.0280   40.7460 O   0  0  0  0  0  0  0  0  0  0  0  0
   36.6590   29.7110   41.3730 P   0  0  0  0  0  0  0  0  0  0  0  0
   35.6200   31.0100   41.2930 O   0  0  0  0  0  0  0  0  0  0  0  0
   35.5320   31.4000   42.2000 H   0  0  0  0  0  0  0  0  0  0  0  0
   36.9440   29.2460   42.9790 O   0  0  0  0  0  0  0  0  0  0  0  0
   37.8590   28.8960   43.1070 H   0  0  0  0  0  0  0  0  0  0  0  0
   38.9740   25.1170   42.5130 C   0  0  0  0  0  2  0  0  0  0  0  0
   40.1800   25.9040   42.5830 N   0  0  0  0  0  4  0  0  0  0  0  0
   40.1930   26.4830   41.7040 H   0  0  0  0  0  0  0  0  0  0  0  0
   41.3560   25.0510   42.4950 C   0  0  0  0  0  2  0  0  0  0  0  0
   41.7770   24.8280   43.4950 H   0  0  0  0  0  0  0  0  0  0  0  0
   40.2460   26.8160   43.6800 C   0  0  0  0  0  2  0  0  0  0  0  0
   41.2210   26.7310   44.2370 H   0  0  0  0  0  0  0  0  0  0  0  0
  1  2  2  0  0  0  0
  1  6  1  0  0  0  0
  2  3  1  0  0  0  0
  3  9  1  0  0  0  0
  3  4  2  0  0  0  0
  5  4  1  0  0  0  0
  5 16  1  0  0  0  0
  6  5  2  0  0  0  0
  7  1  1  0  0  0  0
  8  2  1  0  0  0  0
  9 11  1  0  0  0  0
 10 11  2  0  0  0  0
 11 14  1  0  0  0  0
 12 11  1  0  0  0  0
 12 13  1  0  0  0  0
 14 15  1  0  0  0  0
 16 17  1  0  0  0  0
 17 21  1  0  0  0  0
 18 17  1  0  0  0  0
 19 17  1  0  0  0  0
 19 20  1  0  0  0  0
 21 22  1  0  0  0  0
M  END
>  <minimizedAffinity>
-4.02668715

$$$$

 OpenBabel03252507093D

 22 22  0  0  0  0  0  0  0  0999 V2000
   38.2070   29.0410   43.2880 C   0  0  0  0  0  0  0  0  0  0  0  0
   38.9830   30.0680   42.7240 C   0  0  0  0  0  0  0  0  0  0  0  0
   38.5960   30.5250   41.4650 C   0  0  0  0  0  0  0  0  0  0  0  0
   37.5210   29.9800   40.8510 N   0  0  0  0  0  0  0  0  0  0  0  0
   36.7950   28.9890   41.4250 C   0  0  0  0  0  0  0  0  0  0  0  0
   37.1460   28.5230   42.6500 N   0  0  0  0  0  0  0  0  0  0  0  0
   38.5320   28.7060   44.2670 H   0  0  0  0  0  0  0  0  0  0  0  0
   39.8330   30.4780   43.2430 H   0  0  0  0  0  0  0  0  0  0  0  0
   39.3690   31.5470   40.9050 O   0  0  0  0  0  0  0  0  0  0  0  0
   39.0070   34.1610   41.0450 O   0  0  0  0  0  0  0  0  0  0  0  0
   38.5880   32.9220   40.2550 P   0  0  0  0  0  0  0  0  0  0  0  0
   38.9630   33.0580   38.6390 O   0  0  0  0  0  0  0  0  0  0  0  0
   38.1250   33.2100   38.1310 H   0  0  0  0  0  0  0  0  0  0  0  0
   36.9190   32.7200   40.4860 O   0  0  0  0  0  0  0  0  0  0  0  0
   36.6080   33.1390   41.3250 H   0  0  0  0  0  0  0  0  0  0  0  0
   35.6460   28.4530   40.6950 C   0  0  0  0  0  2  0  0  0  0  0  0
   35.9850   28.2130   39.3140 N   0  0  0  0  0  4  0  0  0  0  0  0
   36.8440   28.7920   39.1270 H   0  0  0  0  0  0  0  0  0  0  0  0
   34.9620   28.7530   38.4310 C   0  0  0  0  0  2  0  0  0  0  0  0
   34.2500   27.9710   38.1010 H   0  0  0  0  0  0  0  0  0  0  0  0
   36.3210   26.8610   38.9990 C   0  0  0  0  0  2  0  0  0  0  0  0
   35.7620   26.4900   38.0940 H   0  0  0  0  0  0  0  0  0  0  0  0
  1  7  1  0  0  0  0
  2  8  1  0  0  0  0
  2  1  1  0  0  0  0
  3  2  2  0  0  0  0
  4  5  2  0  0  0  0
  4  3  1  0  0  0  0
  5  6  1  0  0  0  0
  6  1  2  0  0  0  0
  9  3  1  0  0  0  0
 11 14  1  0  0  0  0
 11  9  1  0  0  0  0
 11 10  2  0  0  0  0
 12 11  1  0  0  0  0
 13 12  1  0  0  0  0
 14 15  1  0  0  0  0
 16  5  1  0  0  0  0
 17 16  1  0  0  0  0
 18 17  1  0  0  0  0
 19 17  1  0  0  0  0
 20 19  1  0  0  0  0
 21 17  1  0  0  0  0
 22 21  1  0  0  0  0
M  END
>  <minimizedAffinity>
-4.02024126

$$$$

 OpenBabel03252507093D

 22 22  0  0  0  0  0  0  0  0999 V2000
   36.4310   27.3360   40.7230 C   0  0  0  0  0  0  0  0  0  0  0  0
   36.0940   28.6710   40.4460 C   0  0  0  0  0  0  0  0  0  0  0  0
   36.6940   29.6460   41.2430 C   0  0  0  0  0  0  0  0  0  0  0  0
   37.5510   29.2810   42.2240 N   0  0  0  0  0  0  0  0  0  0  0  0
   37.8530   27.9810   42.4630 C   0  0  0  0  0  0  0  0  0  0  0  0
   37.2860   27.0090   41.7040 N   0  0  0  0  0  0  0  0  0  0  0  0
   35.9500   26.6000   40.0870 H   0  0  0  0  0  0  0  0  0  0  0  0
   35.4070   28.9240   39.6560 H   0  0  0  0  0  0  0  0  0  0  0  0
   36.3570   30.9750   40.9670 O   0  0  0  0  0  0  0  0  0  0  0  0
   38.0160   31.3870   38.9510 O   0  0  0  0  0  0  0  0  0  0  0  0
   37.5300   32.0010   40.2640 P   0  0  0  0  0  0  0  0  0  0  0  0
   36.8740   33.5150   40.0360 O   0  0  0  0  0  0  0  0  0  0  0  0
   37.5100   34.1900   40.3850 H   0  0  0  0  0  0  0  0  0  0  0  0
   38.8600   32.0560   41.3150 O   0  0  0  0  0  0  0  0  0  0  0  0
   39.5440   31.3820   41.0830 H   0  0  0  0  0  0  0  0  0  0  0  0
   38.7910   27.6690   43.5430 C   0  0  0  0  0  2  0  0  0  0  0  0
   39.9560   26.9930   43.0290 N   0  0  0  0  0  4  0  0  0  0  0  0
   39.7370   26.7760   42.0220 H   0  0  0  0  0  0  0  0  0  0  0  0
   40.1240   25.6980   43.6700 C   0  0  0  0  0  2  0  0  0  0  0  0
   40.8600   25.7420   44.4970 H   0  0  0  0  0  0  0  0  0  0  0  0
   41.1560   27.7660   43.0340 C   0  0  0  0  0  2  0  0  0  0  0  0
   42.0170   27.2020   43.4920 H   0  0  0  0  0  0  0  0  0  0  0  0
  1  6  1  0  0  0  0
  2  1  2  0  0  0  0
  2  3  1  0  0  0  0
  3  4  2  0  0  0  0
  4  5  1  0  0  0  0
  5 16  1  0  0  0  0
  6  5  2  0  0  0  0
  7  1  1  0  0  0  0
  8  2  1  0  0  0  0
  9  3  1  0  0  0  0
 10 11  2  0  0  0  0
 11  9  1  0  0  0  0
 11 14  1  0  0  0  0
 12 11  1  0  0  0  0
 12 13  1  0  0  0  0
 15 14  1  0  0  0  0
 17 21  1  0  0  0  0
 17 16  1  0  0  0  0
 17 19  1  0  0  0  0
 18 17  1  0  0  0  0
 19 20  1  0  0  0  0
 21 22  1  0  0  0  0
M  END
>  <minimizedAffinity>
-4.01184559

$$$$

 OpenBabel03252507093D

 22 22  0  0  0  0  0  0  0  0999 V2000
   36.9880   29.0050   38.6090 C   0  0  0  0  0  0  0  0  0  0  0  0
   37.1210   30.3870   38.8240 C   0  0  0  0  0  0  0  0  0  0  0  0
   37.0510   30.8230   40.1470 C   0  0  0  0  0  0  0  0  0  0  0  0
   36.8630   29.9280   41.1440 N   0  0  0  0  0  0  0  0  0  0  0  0
   36.7390   28.6000   40.8980 C   0  0  0  0  0  0  0  0  0  0  0  0
   36.8030   28.1440   39.6220 N   0  0  0  0  0  0  0  0  0  0  0  0
   37.0470   28.6950   37.5710 H   0  0  0  0  0  0  0  0  0  0  0  0
   37.2700   31.0700   38.0060 H   0  0  0  0  0  0  0  0  0  0  0  0
   37.1830   32.1990   40.3600 O   0  0  0  0  0  0  0  0  0  0  0  0
   39.7420   31.8520   40.9200 O   0  0  0  0  0  0  0  0  0  0  0  0
   38.7470   32.8890   40.4010 P   0  0  0  0  0  0  0  0  0  0  0  0
   39.1520   33.4320   38.8810 O   0  0  0  0  0  0  0  0  0  0  0  0
   39.5060   34.3550   38.9580 H   0  0  0  0  0  0  0  0  0  0  0  0
   38.7170   34.1610   41.5240 O   0  0  0  0  0  0  0  0  0  0  0  0
   38.9980   33.8680   42.4250 H   0  0  0  0  0  0  0  0  0  0  0  0
   36.5380   27.6960   42.0320 C   0  0  0  0  0  2  0  0  0  0  0  0
   37.6880   26.8460   42.2170 N   0  0  0  0  0  4  0  0  0  0  0  0
   38.2910   26.9940   41.3660 H   0  0  0  0  0  0  0  0  0  0  0  0
   37.3030   25.4430   42.1720 C   0  0  0  0  0  2  0  0  0  0  0  0
   37.1770   25.0200   43.1880 H   0  0  0  0  0  0  0  0  0  0  0  0
   38.4940   27.1560   43.3540 C   0  0  0  0  0  2  0  0  0  0  0  0
   38.7170   26.2410   43.9720 H   0  0  0  0  0  0  0  0  0  0  0  0
  1  2  2  0  0  0  0
  1  6  1  0  0  0  0
  2  3  1  0  0  0  0
  3  9  1  0  0  0  0
  3  4  2  0  0  0  0
  5  4  1  0  0  0  0
  5 16  1  0  0  0  0
  6  5  2  0  0  0  0
  7  1  1  0  0  0  0
  8  2  1  0  0  0  0
  9 11  1  0  0  0  0
 11 10  2  0  0  0  0
 11 14  1  0  0  0  0
 12 13  1  0  0  0  0
 12 11  1  0  0  0  0
 14 15  1  0  0  0  0
 16 17  1  0  0  0  0
 17 21  1  0  0  0  0
 18 17  1  0  0  0  0
 19 17  1  0  0  0  0
 19 20  1  0  0  0  0
 21 22  1  0  0  0  0
M  END
>  <minimizedAffinity>
-3.9607029

$$$$
