
 OpenBabel03242510203D

 34 36  0  0  1  0  0  0  0  0999 V2000
   36.8980   26.3730   40.8960 N   0  0  0  0  0  0  0  0  0  0  0  0
   37.1300   27.6370   40.3890 C   0  0  0  0  0  0  0  0  0  0  0  0
   37.9090   28.0270   39.4750 O   0  0  0  0  0  0  0  0  0  0  0  0
   36.8480   26.3070   41.9540 H   0  0  0  0  0  0  0  0  0  0  0  0
   37.7740   24.1520   40.2300 C   0  0  1  0  0  0  0  0  0  0  0  0
   36.5360   23.9060   40.8740 C   0  0  0  0  0  0  0  0  0  0  0  0
   36.7340   25.2110   40.0820 C   0  0  1  0  0  0  0  0  0  0  0  0
   38.1130   23.5990   39.3410 H   0  0  0  0  0  0  0  0  0  0  0  0
   36.2890   24.0670   41.9400 H   0  0  0  0  0  0  0  0  0  0  0  0
   35.8450   23.1340   40.4320 H   0  0  0  0  0  0  0  0  0  0  0  0
   35.9900   25.2240   39.2580 H   0  0  0  0  0  0  0  0  0  0  0  0
   40.1670   25.0720   40.5910 C   0  0  0  0  0  0  0  0  0  0  0  0
   38.9800   24.4950   41.1100 C   0  0  0  0  0  0  0  0  0  0  0  0
   38.9300   24.2200   42.4570 C   0  0  0  0  0  0  0  0  0  0  0  0
   40.0050   24.5060   43.2280 N   0  0  0  0  0  0  0  0  0  0  0  0
   41.1390   25.0590   42.7250 C   0  0  0  0  0  0  0  0  0  0  0  0
   41.2160   25.3480   41.3590 N   0  0  0  0  0  0  0  0  0  0  0  0
   40.1990   25.2840   39.5550 H   0  0  0  0  0  0  0  0  0  0  0  0
   38.0470   23.7840   42.8790 H   0  0  0  0  0  0  0  0  0  0  0  0
   41.9860   25.2840   43.3300 H   0  0  0  0  0  0  0  0  0  0  0  0
   36.3660   28.8310   40.9440 C   0  0  2  0  0  0  0  0  0  0  0  0
   35.0290   29.1930   40.2230 C   0  0  0  0  0  0  0  0  0  0  0  0
   36.2440   30.0740   40.1870 C   0  0  1  0  0  0  0  0  0  0  0  0
   36.1420   28.8100   42.0270 H   0  0  0  0  0  0  0  0  0  0  0  0
   34.1850   29.5380   40.7960 H   0  0  0  0  0  0  0  0  0  0  0  0
   34.7610   28.5190   39.3900 H   0  0  0  0  0  0  0  0  0  0  0  0
   36.5400   30.1820   39.1250 H   0  0  0  0  0  0  0  0  0  0  0  0
   36.3490   31.3700   40.9090 C   0  0  0  0  0  2  0  0  0  0  0  0
   36.9290   32.4720   40.2280 N   0  0  0  0  0  4  0  0  0  0  0  0
   36.3730   33.3270   40.1620 H   0  0  0  0  0  0  0  0  0  0  0  0
   37.1300   32.0520   38.8230 C   0  0  0  0  0  2  0  0  0  0  0  0
   37.7570   31.1380   38.7930 H   0  0  0  0  0  0  0  0  0  0  0  0
   38.3050   32.7530   40.6750 C   0  0  0  0  0  2  0  0  0  0  0  0
   38.9240   31.8920   40.2860 H   0  0  0  0  0  0  0  0  0  0  0  0
  1  4  1  0  0  0  0
  2  1  1  0  0  0  0
  2 21  1  0  0  0  0
  3  2  2  0  0  0  0
  5  8  1  6  0  0  0
  5  6  1  0  0  0  0
  5 13  1  0  0  0  0
  6  9  1  0  0  0  0
  7 11  1  6  0  0  0
  7  5  1  0  0  0  0
  7  6  1  0  0  0  0
  7  1  1  0  0  0  0
 10  6  1  0  0  0  0
 12 13  2  0  0  0  0
 12 17  1  0  0  0  0
 13 14  1  0  0  0  0
 14 19  1  0  0  0  0
 14 15  2  0  0  0  0
 16 15  1  0  0  0  0
 16 20  1  0  0  0  0
 17 16  2  0  0  0  0
 18 12  1  0  0  0  0
 21 24  1  1  0  0  0
 22 25  1  0  0  0  0
 22 21  1  0  0  0  0
 23 27  1  6  0  0  0
 23 22  1  0  0  0  0
 23 28  1  0  0  0  0
 23 21  1  0  0  0  0
 26 22  1  0  0  0  0
 29 33  1  0  0  0  0
 29 28  1  0  0  0  0
 30 29  1  0  0  0  0
 31 29  1  0  0  0  0
 32 31  1  0  0  0  0
 34 33  1  0  0  0  0
M  END
>  <minimizedAffinity>
-4.58700657

$$$$

 OpenBabel03242510203D

 34 36  0  0  1  0  0  0  0  0999 V2000
   37.5460   29.7440   39.8870 N   0  0  0  0  0  0  0  0  0  0  0  0
   36.8590   29.9110   41.0740 C   0  0  0  0  0  0  0  0  0  0  0  0
   36.0470   30.8070   41.4350 O   0  0  0  0  0  0  0  0  0  0  0  0
   38.5700   29.4820   39.9840 H   0  0  0  0  0  0  0  0  0  0  0  0
   37.2700   31.1730   37.8810 C   0  0  1  0  0  0  0  0  0  0  0  0
   37.9620   30.0160   37.4440 C   0  0  0  0  0  0  0  0  0  0  0  0
   36.9510   29.9050   38.5980 C   0  0  1  0  0  0  0  0  0  0  0  0
   36.4880   31.6690   37.2870 H   0  0  0  0  0  0  0  0  0  0  0  0
   38.9860   29.7000   37.7190 H   0  0  0  0  0  0  0  0  0  0  0  0
   37.6700   29.5560   36.4570 H   0  0  0  0  0  0  0  0  0  0  0  0
   36.1460   29.2090   38.2800 H   0  0  0  0  0  0  0  0  0  0  0  0
   37.4360   33.2420   39.4290 C   0  0  0  0  0  0  0  0  0  0  0  0
   38.0630   32.2230   38.6660 C   0  0  0  0  0  0  0  0  0  0  0  0
   39.4370   32.2000   38.6230 C   0  0  0  0  0  0  0  0  0  0  0  0
   40.1330   33.1420   39.3020 N   0  0  0  0  0  0  0  0  0  0  0  0
   39.5270   34.1140   40.0300 C   0  0  0  0  0  0  0  0  0  0  0  0
   38.1310   34.1610   40.0910 N   0  0  0  0  0  0  0  0  0  0  0  0
   36.3780   33.2530   39.4610 H   0  0  0  0  0  0  0  0  0  0  0  0
   39.9400   31.4420   38.0560 H   0  0  0  0  0  0  0  0  0  0  0  0
   40.0740   34.8570   40.5650 H   0  0  0  0  0  0  0  0  0  0  0  0
   37.0290   28.9000   42.2000 C   0  0  2  0  0  0  0  0  0  0  0  0
   38.2570   29.1130   43.1410 C   0  0  0  0  0  0  0  0  0  0  0  0
   38.1340   27.9450   42.2050 C   0  0  1  0  0  0  0  0  0  0  0  0
   36.1530   28.7470   42.8580 H   0  0  0  0  0  0  0  0  0  0  0  0
   38.1680   28.9120   44.1950 H   0  0  0  0  0  0  0  0  0  0  0  0
   38.8670   30.0010   42.9040 H   0  0  0  0  0  0  0  0  0  0  0  0
   38.9930   27.9920   41.5080 H   0  0  0  0  0  0  0  0  0  0  0  0
   37.8780   26.5490   42.6500 C   0  0  0  0  0  2  0  0  0  0  0  0
   37.2610   25.6570   41.7350 N   0  0  0  0  0  4  0  0  0  0  0  0
   36.2390   25.6260   41.7270 H   0  0  0  0  0  0  0  0  0  0  0  0
   37.6690   24.2900   42.1260 C   0  0  0  0  0  2  0  0  0  0  0  0
   38.7750   24.2170   42.1320 H   0  0  0  0  0  0  0  0  0  0  0  0
   37.8110   25.7740   40.3720 C   0  0  0  0  0  2  0  0  0  0  0  0
   38.8560   25.3500   40.4370 H   0  0  0  0  0  0  0  0  0  0  0  0
  1  4  1  0  0  0  0
  1  2  1  0  0  0  0
  2  3  2  0  0  0  0
  2 21  1  0  0  0  0
  5  8  1  6  0  0  0
  5  7  1  0  0  0  0
  5 13  1  0  0  0  0
  6  9  1  0  0  0  0
  6  5  1  0  0  0  0
  6  7  1  0  0  0  0
  7 11  1  6  0  0  0
  7  1  1  0  0  0  0
 10  6  1  0  0  0  0
 12 18  1  0  0  0  0
 12 17  1  0  0  0  0
 13 12  2  0  0  0  0
 14 13  1  0  0  0  0
 14 15  2  0  0  0  0
 15 16  1  0  0  0  0
 16 17  2  0  0  0  0
 16 20  1  0  0  0  0
 19 14  1  0  0  0  0
 21 23  1  0  0  0  0
 21 24  1  1  0  0  0
 21 22  1  0  0  0  0
 22 25  1  0  0  0  0
 23 27  1  6  0  0  0
 23 28  1  0  0  0  0
 23 22  1  0  0  0  0
 26 22  1  0  0  0  0
 29 31  1  0  0  0  0
 29 28  1  0  0  0  0
 30 29  1  0  0  0  0
 31 32  1  0  0  0  0
 33 34  1  0  0  0  0
 33 29  1  0  0  0  0
M  END
>  <minimizedAffinity>
-4.58620691

$$$$

 OpenBabel03242510203D

 34 36  0  0  1  0  0  0  0  0999 V2000
   36.9250   28.8510   41.5420 N   0  0  0  0  0  0  0  0  0  0  0  0
   35.9410   29.4470   40.7760 C   0  0  0  0  0  0  0  0  0  0  0  0
   34.8110   29.0200   40.4130 O   0  0  0  0  0  0  0  0  0  0  0  0
   37.9150   28.9540   41.1760 H   0  0  0  0  0  0  0  0  0  0  0  0
   37.1330   26.7220   42.7930 C   0  0  1  0  0  0  0  0  0  0  0  0
   37.9260   27.6650   43.4940 C   0  0  0  0  0  0  0  0  0  0  0  0
   36.6630   28.1370   42.7510 C   0  0  1  0  0  0  0  0  0  0  0  0
   36.5150   25.9620   43.2940 H   0  0  0  0  0  0  0  0  0  0  0  0
   38.8540   28.1550   43.1450 H   0  0  0  0  0  0  0  0  0  0  0  0
   37.8910   27.6650   44.6200 H   0  0  0  0  0  0  0  0  0  0  0  0
   35.9700   28.5720   43.5010 H   0  0  0  0  0  0  0  0  0  0  0  0
   36.8670   25.6290   40.4610 C   0  0  0  0  0  0  0  0  0  0  0  0
   37.6960   26.1480   41.4890 C   0  0  0  0  0  0  0  0  0  0  0  0
   39.0570   26.1120   41.3010 C   0  0  0  0  0  0  0  0  0  0  0  0
   39.5510   25.5850   40.1560 N   0  0  0  0  0  0  0  0  0  0  0  0
   38.7520   25.0900   39.1760 C   0  0  0  0  0  0  0  0  0  0  0  0
   37.3640   25.1140   39.3410 N   0  0  0  0  0  0  0  0  0  0  0  0
   35.8190   25.6610   40.6100 H   0  0  0  0  0  0  0  0  0  0  0  0
   39.7100   26.4970   42.0590 H   0  0  0  0  0  0  0  0  0  0  0  0
   39.1380   24.6750   38.2740 H   0  0  0  0  0  0  0  0  0  0  0  0
   36.1470   30.8550   40.2350 C   0  0  2  0  0  0  0  0  0  0  0  0
   36.8260   30.9640   38.8320 C   0  0  0  0  0  0  0  0  0  0  0  0
   37.4820   31.4310   40.1000 C   0  0  1  0  0  0  0  0  0  0  0  0
   35.2510   31.5020   40.2000 H   0  0  0  0  0  0  0  0  0  0  0  0
   36.5040   31.7200   38.1370 H   0  0  0  0  0  0  0  0  0  0  0  0
   37.0660   29.9940   38.3630 H   0  0  0  0  0  0  0  0  0  0  0  0
   38.4190   30.8510   40.2170 H   0  0  0  0  0  0  0  0  0  0  0  0
   37.6870   32.8620   40.4490 C   0  0  0  0  0  2  0  0  0  0  0  0
   38.8350   33.2080   41.2100 N   0  0  0  0  0  4  0  0  0  0  0  0
   38.6800   33.6970   42.0940 H   0  0  0  0  0  0  0  0  0  0  0  0
   39.6210   34.1600   40.3940 C   0  0  0  0  0  2  0  0  0  0  0  0
   39.8660   33.7000   39.4160 H   0  0  0  0  0  0  0  0  0  0  0  0
   39.7700   32.0800   41.3690 C   0  0  0  0  0  2  0  0  0  0  0  0
   40.2150   31.9180   40.3440 H   0  0  0  0  0  0  0  0  0  0  0  0
  1  7  1  0  0  0  0
  2  1  1  0  0  0  0
  3  2  2  0  0  0  0
  4  1  1  0  0  0  0
  5  8  1  1  0  0  0
  5  6  1  0  0  0  0
  6 10  1  0  0  0  0
  7  5  1  0  0  0  0
  7  6  1  0  0  0  0
  7 11  1  1  0  0  0
  9  6  1  0  0  0  0
 12 18  1  0  0  0  0
 12 13  1  0  0  0  0
 13  5  1  0  0  0  0
 14 13  2  0  0  0  0
 14 19  1  0  0  0  0
 15 14  1  0  0  0  0
 16 17  1  0  0  0  0
 16 15  2  0  0  0  0
 17 12  2  0  0  0  0
 20 16  1  0  0  0  0
 21 24  1  1  0  0  0
 21  2  1  0  0  0  0
 22 23  1  0  0  0  0
 22 21  1  0  0  0  0
 23 27  1  1  0  0  0
 23 21  1  0  0  0  0
 23 28  1  0  0  0  0
 25 22  1  0  0  0  0
 26 22  1  0  0  0  0
 28 29  1  0  0  0  0
 29 33  1  0  0  0  0
 29 30  1  0  0  0  0
 31 29  1  0  0  0  0
 32 31  1  0  0  0  0
 34 33  1  0  0  0  0
M  END
>  <minimizedAffinity>
-4.57340622

$$$$

 OpenBabel03242510203D

 34 36  0  0  1  0  0  0  0  0999 V2000
   37.2520   29.0160   41.1750 N   0  0  0  0  0  0  0  0  0  0  0  0
   36.1080   29.2370   40.4320 C   0  0  0  0  0  0  0  0  0  0  0  0
   34.9080   28.9110   40.6530 O   0  0  0  0  0  0  0  0  0  0  0  0
   38.0980   28.6910   40.6240 H   0  0  0  0  0  0  0  0  0  0  0  0
   37.8050   28.0320   43.3810 C   0  0  1  0  0  0  0  0  0  0  0  0
   38.7450   29.0710   43.1700 C   0  0  0  0  0  0  0  0  0  0  0  0
   37.3270   29.2020   42.5890 C   0  0  1  0  0  0  0  0  0  0  0  0
   37.3490   27.8190   44.3600 H   0  0  0  0  0  0  0  0  0  0  0  0
   39.5440   29.1110   42.4060 H   0  0  0  0  0  0  0  0  0  0  0  0
   39.0100   29.7400   44.0380 H   0  0  0  0  0  0  0  0  0  0  0  0
   36.8530   30.0950   43.0470 H   0  0  0  0  0  0  0  0  0  0  0  0
   36.9490   25.8110   42.3610 C   0  0  0  0  0  0  0  0  0  0  0  0
   38.0070   26.7220   42.6130 C   0  0  0  0  0  0  0  0  0  0  0  0
   39.2640   26.3940   42.1610 C   0  0  0  0  0  0  0  0  0  0  0  0
   39.4420   25.2260   41.5010 N   0  0  0  0  0  0  0  0  0  0  0  0
   38.4250   24.3590   41.2620 C   0  0  0  0  0  0  0  0  0  0  0  0
   37.1370   24.6680   41.7110 N   0  0  0  0  0  0  0  0  0  0  0  0
   35.9840   26.0700   42.7090 H   0  0  0  0  0  0  0  0  0  0  0  0
   40.0840   27.0610   42.3350 H   0  0  0  0  0  0  0  0  0  0  0  0
   38.5640   23.4390   40.7430 H   0  0  0  0  0  0  0  0  0  0  0  0
   36.1890   29.9980   39.1160 C   0  0  2  0  0  0  0  0  0  0  0  0
   36.7510   29.2050   37.8930 C   0  0  0  0  0  0  0  0  0  0  0  0
   37.4750   30.3590   38.5250 C   0  0  1  0  0  0  0  0  0  0  0  0
   35.2580   30.4850   38.7730 H   0  0  0  0  0  0  0  0  0  0  0  0
   36.3340   29.3620   36.9140 H   0  0  0  0  0  0  0  0  0  0  0  0
   37.0100   28.1540   38.1090 H   0  0  0  0  0  0  0  0  0  0  0  0
   38.4500   29.9770   38.8870 H   0  0  0  0  0  0  0  0  0  0  0  0
   37.6250   31.6940   37.8860 C   0  0  0  0  0  2  0  0  0  0  0  0
   38.2860   32.7160   38.6160 N   0  0  0  0  0  4  0  0  0  0  0  0
   38.8590   33.3750   38.0850 H   0  0  0  0  0  0  0  0  0  0  0  0
   39.2400   32.0460   39.5270 C   0  0  0  0  0  2  0  0  0  0  0  0
   38.6970   31.3270   40.1730 H   0  0  0  0  0  0  0  0  0  0  0  0
   37.3880   33.4130   39.5550 C   0  0  0  0  0  2  0  0  0  0  0  0
   37.1650   32.6590   40.3660 H   0  0  0  0  0  0  0  0  0  0  0  0
  1  7  1  0  0  0  0
  2  3  2  0  0  0  0
  2  1  1  0  0  0  0
  4  1  1  0  0  0  0
  5  8  1  1  0  0  0
  6  5  1  0  0  0  0
  6 10  1  0  0  0  0
  7 11  1  1  0  0  0
  7  6  1  0  0  0  0
  7  5  1  0  0  0  0
  9  6  1  0  0  0  0
 12 13  1  0  0  0  0
 12 18  1  0  0  0  0
 13  5  1  0  0  0  0
 14 19  1  0  0  0  0
 14 13  2  0  0  0  0
 15 14  1  0  0  0  0
 16 15  2  0  0  0  0
 16 17  1  0  0  0  0
 17 12  2  0  0  0  0
 20 16  1  0  0  0  0
 21 24  1  6  0  0  0
 21  2  1  0  0  0  0
 22 26  1  0  0  0  0
 22 23  1  0  0  0  0
 22 21  1  0  0  0  0
 23 27  1  1  0  0  0
 23 21  1  0  0  0  0
 25 22  1  0  0  0  0
 28 23  1  0  0  0  0
 28 29  1  0  0  0  0
 29 31  1  0  0  0  0
 29 33  1  0  0  0  0
 30 29  1  0  0  0  0
 31 32  1  0  0  0  0
 33 34  1  0  0  0  0
M  END
>  <minimizedAffinity>
-4.54603863

$$$$

 OpenBabel03242510203D

 34 36  0  0  1  0  0  0  0  0999 V2000
   37.2280   28.2890   41.4070 N   0  0  0  0  0  0  0  0  0  0  0  0
   37.8110   28.4100   42.6540 C   0  0  0  0  0  0  0  0  0  0  0  0
   37.7590   29.3470   43.4990 O   0  0  0  0  0  0  0  0  0  0  0  0
   37.8590   27.9140   40.6420 H   0  0  0  0  0  0  0  0  0  0  0  0
   35.6610   29.8280   40.2590 C   0  0  1  0  0  0  0  0  0  0  0  0
   35.4880   28.5640   39.6420 C   0  0  0  0  0  0  0  0  0  0  0  0
   35.8700   28.6370   41.1310 C   0  0  1  0  0  0  0  0  0  0  0  0
   34.8280   30.5150   40.4720 H   0  0  0  0  0  0  0  0  0  0  0  0
   36.2200   28.0120   39.0230 H   0  0  0  0  0  0  0  0  0  0  0  0
   34.4430   28.2260   39.3940 H   0  0  0  0  0  0  0  0  0  0  0  0
   35.0560   28.1570   41.7140 H   0  0  0  0  0  0  0  0  0  0  0  0
   37.7140   30.3300   38.7640 C   0  0  0  0  0  0  0  0  0  0  0  0
   36.9100   30.6350   39.8920 C   0  0  0  0  0  0  0  0  0  0  0  0
   37.2890   31.6890   40.6900 C   0  0  0  0  0  0  0  0  0  0  0  0
   38.4050   32.3880   40.3720 N   0  0  0  0  0  0  0  0  0  0  0  0
   39.1700   32.0900   39.2910 C   0  0  0  0  0  0  0  0  0  0  0  0
   38.8080   31.0230   38.4640 N   0  0  0  0  0  0  0  0  0  0  0  0
   37.4170   29.5190   38.1520 H   0  0  0  0  0  0  0  0  0  0  0  0
   36.7020   31.9460   41.5490 H   0  0  0  0  0  0  0  0  0  0  0  0
   40.0490   32.6380   39.0410 H   0  0  0  0  0  0  0  0  0  0  0  0
   38.6730   27.2820   43.2030 C   0  0  2  0  0  0  0  0  0  0  0  0
   40.1760   27.2920   42.7800 C   0  0  0  0  0  0  0  0  0  0  0  0
   39.2050   26.2380   42.3320 C   0  0  1  0  0  0  0  0  0  0  0  0
   38.6570   27.1420   44.3000 H   0  0  0  0  0  0  0  0  0  0  0  0
   40.9350   26.9960   43.4840 H   0  0  0  0  0  0  0  0  0  0  0  0
   40.4660   28.1420   42.1390 H   0  0  0  0  0  0  0  0  0  0  0  0
   39.1650   26.2780   41.2260 H   0  0  0  0  0  0  0  0  0  0  0  0
   39.2240   24.8330   42.8200 C   0  0  0  0  0  2  0  0  0  0  0  0
   38.4280   23.8760   42.1360 N   0  0  0  0  0  4  0  0  0  0  0  0
   38.4760   22.9090   42.4620 H   0  0  0  0  0  0  0  0  0  0  0  0
   38.9210   23.8230   40.7430 C   0  0  0  0  0  2  0  0  0  0  0  0
   38.8750   24.8340   40.2910 H   0  0  0  0  0  0  0  0  0  0  0  0
   37.0330   24.3210   41.9620 C   0  0  0  0  0  2  0  0  0  0  0  0
   37.0820   25.1600   41.2070 H   0  0  0  0  0  0  0  0  0  0  0  0
  1  2  1  0  0  0  0
  2 21  1  0  0  0  0
  2  3  2  0  0  0  0
  4  1  1  0  0  0  0
  5  8  1  1  0  0  0
  5  7  1  0  0  0  0
  6  5  1  0  0  0  0
  6  7  1  0  0  0  0
  7  1  1  0  0  0  0
  7 11  1  1  0  0  0
  9  6  1  0  0  0  0
 10  6  1  0  0  0  0
 12 13  1  0  0  0  0
 13  5  1  0  0  0  0
 13 14  2  0  0  0  0
 14 19  1  0  0  0  0
 15 14  1  0  0  0  0
 16 15  2  0  0  0  0
 17 12  2  0  0  0  0
 17 16  1  0  0  0  0
 18 12  1  0  0  0  0
 20 16  1  0  0  0  0
 21 24  1  1  0  0  0
 22 21  1  0  0  0  0
 22 25  1  0  0  0  0
 23 27  1  6  0  0  0
 23 22  1  0  0  0  0
 23 28  1  0  0  0  0
 23 21  1  0  0  0  0
 26 22  1  0  0  0  0
 29 30  1  0  0  0  0
 29 28  1  0  0  0  0
 31 29  1  0  0  0  0
 32 31  1  0  0  0  0
 33 29  1  0  0  0  0
 34 33  1  0  0  0  0
M  END
>  <minimizedAffinity>
-4.50291014

$$$$

 OpenBabel03242510203D

 34 36  0  0  1  0  0  0  0  0999 V2000
   37.1900   28.2780   41.3260 N   0  0  0  0  0  0  0  0  0  0  0  0
   37.7860   28.3600   42.5700 C   0  0  0  0  0  0  0  0  0  0  0  0
   37.7500   29.2720   43.4410 O   0  0  0  0  0  0  0  0  0  0  0  0
   37.8100   27.9200   40.5440 H   0  0  0  0  0  0  0  0  0  0  0  0
   35.6250   29.8520   40.2240 C   0  0  1  0  0  0  0  0  0  0  0  0
   35.4310   28.5990   39.5890 C   0  0  0  0  0  0  0  0  0  0  0  0
   35.8320   28.6440   41.0740 C   0  0  1  0  0  0  0  0  0  0  0  0
   34.8010   30.5430   40.4590 H   0  0  0  0  0  0  0  0  0  0  0  0
   36.1490   28.0500   38.9510 H   0  0  0  0  0  0  0  0  0  0  0  0
   34.3790   28.2760   39.3490 H   0  0  0  0  0  0  0  0  0  0  0  0
   35.0210   28.1640   41.6600 H   0  0  0  0  0  0  0  0  0  0  0  0
   37.3970   31.6840   40.6760 C   0  0  0  0  0  0  0  0  0  0  0  0
   36.8770   30.6520   39.8530 C   0  0  0  0  0  0  0  0  0  0  0  0
   37.5220   30.3830   38.6690 C   0  0  0  0  0  0  0  0  0  0  0  0
   38.6170   31.1060   38.3360 N   0  0  0  0  0  0  0  0  0  0  0  0
   39.1100   32.0920   39.1280 C   0  0  0  0  0  0  0  0  0  0  0  0
   38.4730   32.3870   40.3380 N   0  0  0  0  0  0  0  0  0  0  0  0
   36.8980   31.8850   41.5870 H   0  0  0  0  0  0  0  0  0  0  0  0
   37.1540   29.6090   38.0250 H   0  0  0  0  0  0  0  0  0  0  0  0
   39.9710   32.6630   38.8680 H   0  0  0  0  0  0  0  0  0  0  0  0
   38.6440   27.2100   43.0790 C   0  0  2  0  0  0  0  0  0  0  0  0
   40.1230   27.1760   42.5770 C   0  0  0  0  0  0  0  0  0  0  0  0
   39.1010   26.1480   42.1860 C   0  0  1  0  0  0  0  0  0  0  0  0
   38.6830   27.0750   44.1760 H   0  0  0  0  0  0  0  0  0  0  0  0
   40.9090   26.8620   43.2420 H   0  0  0  0  0  0  0  0  0  0  0  0
   40.4020   28.0160   41.9170 H   0  0  0  0  0  0  0  0  0  0  0  0
   39.0030   26.1850   41.0840 H   0  0  0  0  0  0  0  0  0  0  0  0
   39.1050   24.7450   42.6800 C   0  0  0  0  0  2  0  0  0  0  0  0
   38.2240   23.8160   42.0670 N   0  0  0  0  0  4  0  0  0  0  0  0
   38.1710   22.8810   42.4760 H   0  0  0  0  0  0  0  0  0  0  0  0
   38.7220   23.5920   40.6920 C   0  0  0  0  0  2  0  0  0  0  0  0
   38.7820   24.5600   40.1550 H   0  0  0  0  0  0  0  0  0  0  0  0
   36.8830   24.3810   41.8300 C   0  0  0  0  0  2  0  0  0  0  0  0
   37.0230   25.1410   41.0070 H   0  0  0  0  0  0  0  0  0  0  0  0
  1  2  1  0  0  0  0
  2 21  1  0  0  0  0
  2  3  2  0  0  0  0
  4  1  1  0  0  0  0
  5  8  1  1  0  0  0
  5  7  1  0  0  0  0
  6  5  1  0  0  0  0
  6  7  1  0  0  0  0
  7  1  1  0  0  0  0
  7 11  1  1  0  0  0
  9  6  1  0  0  0  0
 10  6  1  0  0  0  0
 12 18  1  0  0  0  0
 13  5  1  0  0  0  0
 13 12  2  0  0  0  0
 14 13  1  0  0  0  0
 15 14  2  0  0  0  0
 15 16  1  0  0  0  0
 16 17  2  0  0  0  0
 17 12  1  0  0  0  0
 19 14  1  0  0  0  0
 20 16  1  0  0  0  0
 21 24  1  1  0  0  0
 22 21  1  0  0  0  0
 22 25  1  0  0  0  0
 23 27  1  6  0  0  0
 23 22  1  0  0  0  0
 23 28  1  0  0  0  0
 23 21  1  0  0  0  0
 26 22  1  0  0  0  0
 29 30  1  0  0  0  0
 29 28  1  0  0  0  0
 31 29  1  0  0  0  0
 32 31  1  0  0  0  0
 33 29  1  0  0  0  0
 34 33  1  0  0  0  0
M  END
>  <minimizedAffinity>
-4.49996901

$$$$

 OpenBabel03242510203D

 34 36  0  0  1  0  0  0  0  0999 V2000
   37.8540   27.1640   41.1480 N   0  0  0  0  0  0  0  0  0  0  0  0
   37.7830   27.1940   42.5280 C   0  0  0  0  0  0  0  0  0  0  0  0
   36.8470   27.5510   43.2950 O   0  0  0  0  0  0  0  0  0  0  0  0
   38.7530   27.5380   40.7280 H   0  0  0  0  0  0  0  0  0  0  0  0
   36.1060   27.6830   39.4690 C   0  0  1  0  0  0  0  0  0  0  0  0
   37.0540   26.8650   38.8050 C   0  0  0  0  0  0  0  0  0  0  0  0
   36.8060   26.6710   40.3120 C   0  0  1  0  0  0  0  0  0  0  0  0
   35.0200   27.5980   39.3120 H   0  0  0  0  0  0  0  0  0  0  0  0
   38.1020   27.1150   38.5570 H   0  0  0  0  0  0  0  0  0  0  0  0
   36.6770   26.0600   38.1130 H   0  0  0  0  0  0  0  0  0  0  0  0
   36.4290   25.6380   40.4640 H   0  0  0  0  0  0  0  0  0  0  0  0
   37.4580   29.8280   38.9430 C   0  0  0  0  0  0  0  0  0  0  0  0
   36.4760   29.1500   39.7110 C   0  0  0  0  0  0  0  0  0  0  0  0
   35.8540   29.8430   40.7220 C   0  0  0  0  0  0  0  0  0  0  0  0
   36.1990   31.1330   40.9450 N   0  0  0  0  0  0  0  0  0  0  0  0
   37.1390   31.7770   40.2060 C   0  0  0  0  0  0  0  0  0  0  0  0
   37.7870   31.0940   39.1720 N   0  0  0  0  0  0  0  0  0  0  0  0
   37.9320   29.2900   38.1650 H   0  0  0  0  0  0  0  0  0  0  0  0
   35.1080   29.3590   41.3200 H   0  0  0  0  0  0  0  0  0  0  0  0
   37.4120   32.7910   40.3810 H   0  0  0  0  0  0  0  0  0  0  0  0
   38.9710   26.7330   43.3600 C   0  0  2  0  0  0  0  0  0  0  0  0
   40.2120   27.6820   43.3790 C   0  0  0  0  0  0  0  0  0  0  0  0
   40.2270   26.3260   42.7340 C   0  0  1  0  0  0  0  0  0  0  0  0
   38.7600   26.4730   44.4140 H   0  0  0  0  0  0  0  0  0  0  0  0
   40.7810   27.8040   44.2840 H   0  0  0  0  0  0  0  0  0  0  0  0
   40.0850   28.6130   42.7990 H   0  0  0  0  0  0  0  0  0  0  0  0
   40.4580   26.4760   41.6610 H   0  0  0  0  0  0  0  0  0  0  0  0
   40.9590   25.1550   43.2850 C   0  0  0  0  0  2  0  0  0  0  0  0
   42.2220   24.8300   42.7240 N   0  0  0  0  0  4  0  0  0  0  0  0
   42.5130   23.8510   42.7610 H   0  0  0  0  0  0  0  0  0  0  0  0
   43.2430   25.5500   43.5170 C   0  0  0  0  0  2  0  0  0  0  0  0
   43.0250   26.6370   43.5070 H   0  0  0  0  0  0  0  0  0  0  0  0
   42.4060   25.4000   41.3770 C   0  0  0  0  0  2  0  0  0  0  0  0
   42.5070   26.5140   41.5380 H   0  0  0  0  0  0  0  0  0  0  0  0
  1  2  1  0  0  0  0
  2  3  2  0  0  0  0
  2 21  1  0  0  0  0
  4  1  1  0  0  0  0
  5  8  1  6  0  0  0
  5 13  1  0  0  0  0
  5  7  1  0  0  0  0
  6  5  1  0  0  0  0
  6  7  1  0  0  0  0
  7 11  1  1  0  0  0
  7  1  1  0  0  0  0
  9  6  1  0  0  0  0
 10  6  1  0  0  0  0
 12 17  2  0  0  0  0
 12 13  1  0  0  0  0
 13 14  2  0  0  0  0
 14 15  1  0  0  0  0
 14 19  1  0  0  0  0
 16 20  1  0  0  0  0
 16 15  2  0  0  0  0
 17 16  1  0  0  0  0
 18 12  1  0  0  0  0
 21 22  1  0  0  0  0
 21 24  1  1  0  0  0
 22 25  1  0  0  0  0
 23 27  1  6  0  0  0
 23 28  1  0  0  0  0
 23 21  1  0  0  0  0
 23 22  1  0  0  0  0
 26 22  1  0  0  0  0
 29 30  1  0  0  0  0
 29 28  1  0  0  0  0
 29 31  1  0  0  0  0
 32 31  1  0  0  0  0
 33 34  1  0  0  0  0
 33 29  1  0  0  0  0
M  END
>  <minimizedAffinity>
-4.45133543

$$$$

 OpenBabel03242510203D

 34 36  0  0  1  0  0  0  0  0999 V2000
   39.0020   27.2500   42.7450 N   0  0  0  0  0  0  0  0  0  0  0  0
   37.8510   27.9440   43.0640 C   0  0  0  0  0  0  0  0  0  0  0  0
   36.8070   27.5710   43.6690 O   0  0  0  0  0  0  0  0  0  0  0  0
   39.3660   27.3970   41.7600 H   0  0  0  0  0  0  0  0  0  0  0  0
   39.7190   24.9390   43.2830 C   0  0  1  0  0  0  0  0  0  0  0  0
   40.9090   25.6730   43.0550 C   0  0  0  0  0  0  0  0  0  0  0  0
   39.6830   26.3830   43.6540 C   0  0  1  0  0  0  0  0  0  0  0  0
   39.6220   24.1760   44.0710 H   0  0  0  0  0  0  0  0  0  0  0  0
   41.2540   26.1140   42.1010 H   0  0  0  0  0  0  0  0  0  0  0  0
   41.7880   25.4980   43.7370 H   0  0  0  0  0  0  0  0  0  0  0  0
   39.9670   26.7630   44.6580 H   0  0  0  0  0  0  0  0  0  0  0  0
   37.5020   24.2470   42.1380 C   0  0  0  0  0  0  0  0  0  0  0  0
   38.8910   24.5250   42.0630 C   0  0  0  0  0  0  0  0  0  0  0  0
   39.5110   24.3930   40.8430 C   0  0  0  0  0  0  0  0  0  0  0  0
   38.7800   24.0070   39.7700 N   0  0  0  0  0  0  0  0  0  0  0  0
   37.4510   23.7440   39.8490 C   0  0  0  0  0  0  0  0  0  0  0  0
   36.7960   23.8690   41.0790 N   0  0  0  0  0  0  0  0  0  0  0  0
   37.0300   24.3510   43.0800 H   0  0  0  0  0  0  0  0  0  0  0  0
   40.5600   24.5970   40.7530 H   0  0  0  0  0  0  0  0  0  0  0  0
   36.8740   23.4390   39.0070 H   0  0  0  0  0  0  0  0  0  0  0  0
   37.7140   29.4100   42.6780 C   0  0  2  0  0  0  0  0  0  0  0  0
   36.7870   29.7200   41.4600 C   0  0  0  0  0  0  0  0  0  0  0  0
   38.2750   29.9230   41.4310 C   0  0  1  0  0  0  0  0  0  0  0  0
   37.4140   30.1040   43.4850 H   0  0  0  0  0  0  0  0  0  0  0  0
   36.1700   30.6020   41.4660 H   0  0  0  0  0  0  0  0  0  0  0  0
   36.3010   28.8340   41.0170 H   0  0  0  0  0  0  0  0  0  0  0  0
   38.6780   29.2800   40.6250 H   0  0  0  0  0  0  0  0  0  0  0  0
   38.9290   31.2590   41.4320 C   0  0  0  0  0  2  0  0  0  0  0  0
   38.3900   32.2700   40.5940 N   0  0  0  0  0  4  0  0  0  0  0  0
   37.3720   32.3340   40.5340 H   0  0  0  0  0  0  0  0  0  0  0  0
   38.8240   31.9620   39.2140 C   0  0  0  0  0  2  0  0  0  0  0  0
   39.9310   31.9040   39.1740 H   0  0  0  0  0  0  0  0  0  0  0  0
   39.0040   33.5890   40.8330 C   0  0  0  0  0  2  0  0  0  0  0  0
   40.0580   33.5010   40.4360 H   0  0  0  0  0  0  0  0  0  0  0  0
  1  2  1  0  0  0  0
  1  7  1  0  0  0  0
  2  3  2  0  0  0  0
  4  1  1  0  0  0  0
  5  7  1  0  0  0  0
  5  8  1  1  0  0  0
  6  5  1  0  0  0  0
  6  7  1  0  0  0  0
  6 10  1  0  0  0  0
  7 11  1  1  0  0  0
  9  6  1  0  0  0  0
 12 18  1  0  0  0  0
 13 12  1  0  0  0  0
 13  5  1  0  0  0  0
 14 13  2  0  0  0  0
 15 16  2  0  0  0  0
 15 14  1  0  0  0  0
 16 17  1  0  0  0  0
 17 12  2  0  0  0  0
 19 14  1  0  0  0  0
 20 16  1  0  0  0  0
 21  2  1  0  0  0  0
 21 24  1  1  0  0  0
 22 25  1  0  0  0  0
 22 21  1  0  0  0  0
 23 27  1  6  0  0  0
 23 28  1  0  0  0  0
 23 22  1  0  0  0  0
 23 21  1  0  0  0  0
 26 22  1  0  0  0  0
 29 33  1  0  0  0  0
 29 28  1  0  0  0  0
 30 29  1  0  0  0  0
 31 29  1  0  0  0  0
 32 31  1  0  0  0  0
 34 33  1  0  0  0  0
M  END
>  <minimizedAffinity>
-4.36049271

$$$$

 OpenBabel03242510203D

 34 36  0  0  1  0  0  0  0  0999 V2000
   37.8720   28.4060   40.8200 N   0  0  0  0  0  0  0  0  0  0  0  0
   37.2650   28.0860   39.6210 C   0  0  0  0  0  0  0  0  0  0  0  0
   36.2220   27.4170   39.3800 O   0  0  0  0  0  0  0  0  0  0  0  0
   38.9270   28.2940   40.8420 H   0  0  0  0  0  0  0  0  0  0  0  0
   37.3430   28.0550   43.2150 C   0  0  1  0  0  0  0  0  0  0  0  0
   38.0600   29.2760   43.1490 C   0  0  0  0  0  0  0  0  0  0  0  0
   37.1600   28.8580   41.9720 C   0  0  1  0  0  0  0  0  0  0  0  0
   36.4860   27.8940   43.8860 H   0  0  0  0  0  0  0  0  0  0  0  0
   39.1200   29.4190   42.8680 H   0  0  0  0  0  0  0  0  0  0  0  0
   37.7110   30.1390   43.7830 H   0  0  0  0  0  0  0  0  0  0  0  0
   36.3720   29.6320   41.8560 H   0  0  0  0  0  0  0  0  0  0  0  0
   37.6210   25.6050   42.4280 C   0  0  0  0  0  0  0  0  0  0  0  0
   38.1390   26.7540   43.0790 C   0  0  0  0  0  0  0  0  0  0  0  0
   39.4000   26.6760   43.6210 C   0  0  0  0  0  0  0  0  0  0  0  0
   40.0920   25.5170   43.5160 N   0  0  0  0  0  0  0  0  0  0  0  0
   39.5910   24.4210   42.8910 C   0  0  0  0  0  0  0  0  0  0  0  0
   38.3100   24.4730   42.3310 N   0  0  0  0  0  0  0  0  0  0  0  0
   36.6500   25.6710   42.0100 H   0  0  0  0  0  0  0  0  0  0  0  0
   39.8200   27.5270   44.1190 H   0  0  0  0  0  0  0  0  0  0  0  0
   40.1340   23.5080   42.8070 H   0  0  0  0  0  0  0  0  0  0  0  0
   37.8630   28.5770   38.3100 C   0  0  2  0  0  0  0  0  0  0  0  0
   37.3510   29.9590   37.7910 C   0  0  0  0  0  0  0  0  0  0  0  0
   37.0620   28.6620   37.0920 C   0  0  1  0  0  0  0  0  0  0  0  0
   38.9670   28.6130   38.2580 H   0  0  0  0  0  0  0  0  0  0  0  0
   38.0330   30.6380   37.3080 H   0  0  0  0  0  0  0  0  0  0  0  0
   36.6170   30.4530   38.4520 H   0  0  0  0  0  0  0  0  0  0  0  0
   35.9610   28.5400   37.0680 H   0  0  0  0  0  0  0  0  0  0  0  0
   37.6750   28.2630   35.7970 C   0  0  0  0  0  2  0  0  0  0  0  0
   36.8180   28.0560   34.6850 N   0  0  0  0  0  4  0  0  0  0  0  0
   37.2010   27.5450   33.8870 H   0  0  0  0  0  0  0  0  0  0  0  0
   36.4850   29.3930   34.1440 C   0  0  0  0  0  2  0  0  0  0  0  0
   36.0280   30.0150   34.9400 H   0  0  0  0  0  0  0  0  0  0  0  0
   35.4960   27.5360   35.0780 C   0  0  0  0  0  2  0  0  0  0  0  0
   34.9840   28.3940   35.6050 H   0  0  0  0  0  0  0  0  0  0  0  0
  1  4  1  0  0  0  0
  1  7  1  0  0  0  0
  2  1  1  0  0  0  0
  3  2  2  0  0  0  0
  5  8  1  1  0  0  0
  6  5  1  0  0  0  0
  6 10  1  0  0  0  0
  7 11  1  6  0  0  0
  7  6  1  0  0  0  0
  7  5  1  0  0  0  0
  9  6  1  0  0  0  0
 12 13  1  0  0  0  0
 13  5  1  0  0  0  0
 13 14  2  0  0  0  0
 14 19  1  0  0  0  0
 15 14  1  0  0  0  0
 16 15  2  0  0  0  0
 17 12  2  0  0  0  0
 17 16  1  0  0  0  0
 18 12  1  0  0  0  0
 20 16  1  0  0  0  0
 21 24  1  6  0  0  0
 21  2  1  0  0  0  0
 22 21  1  0  0  0  0
 22 26  1  0  0  0  0
 23 27  1  1  0  0  0
 23 22  1  0  0  0  0
 23 21  1  0  0  0  0
 25 22  1  0  0  0  0
 28 23  1  0  0  0  0
 29 33  1  0  0  0  0
 29 28  1  0  0  0  0
 30 29  1  0  0  0  0
 31 29  1  0  0  0  0
 31 32  1  0  0  0  0
 33 34  1  0  0  0  0
M  END
>  <minimizedAffinity>
-4.31685925

$$$$
