
 OpenBabel03252501053D

 38 40  0  0  1  0  0  0  0  0999 V2000
   48.6830   32.4010   38.1830 O   0  0  0  0  0  0  0  0  0  0  0  0
   48.1110   33.8130   38.2940 P   0  0  2  0  0  0  0  0  0  0  0  0
   49.2730   34.8230   37.5840 O   0  0  0  0  0  0  0  0  0  0  0  0
   48.8740   35.7330   37.5430 H   0  0  0  0  0  0  0  0  0  0  0  0
   47.7120   34.2020   39.8320 O   0  0  0  0  0  0  0  0  0  0  0  0
   48.1030   35.4720   41.8540 C   0  0  1  0  0  0  0  0  0  0  0  0
   49.3160   34.6610   41.6960 C   0  0  0  0  0  0  0  0  0  0  0  0
   48.4670   35.1030   40.4890 C   0  0  1  0  0  0  0  0  0  0  0  0
   48.2040   36.5140   42.1960 H   0  0  0  0  0  0  0  0  0  0  0  0
   49.3240   33.5480   41.8470 H   0  0  0  0  0  0  0  0  0  0  0  0
   50.3300   35.0890   41.7970 H   0  0  0  0  0  0  0  0  0  0  0  0
   49.0230   35.8180   39.8530 H   0  0  0  0  0  0  0  0  0  0  0  0
   46.0460   32.9530   43.7970 C   0  0  0  0  0  0  0  0  0  0  0  0
   47.1450   33.6210   43.2680 C   0  0  0  0  0  0  0  0  0  0  0  0
   46.9290   34.7450   42.4480 C   0  0  0  0  0  0  0  0  0  0  0  0
   45.6560   35.1410   42.1980 N   0  0  0  0  0  0  0  0  0  0  0  0
   44.5990   34.4750   42.7240 C   0  0  0  0  0  0  0  0  0  0  0  0
   44.7910   33.3850   43.5200 N   0  0  0  0  0  0  0  0  0  0  0  0
   46.2200   32.0910   44.4260 H   0  0  0  0  0  0  0  0  0  0  0  0
   48.1270   33.2670   43.4960 H   0  0  0  0  0  0  0  0  0  0  0  0
   43.6160   34.8670   42.4690 H   0  0  0  0  0  0  0  0  0  0  0  0
   46.7620   33.8180   37.2950 O   0  0  0  0  0  0  0  0  0  0  0  0
   45.7420   32.8820   37.3690 C   0  0  0  0  0  0  0  0  0  0  0  0
   45.7590   31.5630   36.9550 C   0  0  0  0  0  0  0  0  0  0  0  0
   44.6620   30.7720   37.1010 C   0  0  0  0  0  0  0  0  0  0  0  0
   43.5010   31.2550   37.6630 C   0  0  0  0  0  0  0  0  0  0  0  0
   43.5210   32.5940   38.0700 C   0  0  0  0  0  0  0  0  0  0  0  0
   44.6270   33.3760   37.9180 N   0  0  0  0  0  0  0  0  0  0  0  0
   46.7030   31.2490   36.5230 H   0  0  0  0  0  0  0  0  0  0  0  0
   44.7450   29.7500   36.7550 H   0  0  0  0  0  0  0  0  0  0  0  0
   42.6390   30.6420   37.7810 H   0  0  0  0  0  0  0  0  0  0  0  0
   42.2700   33.1180   38.6780 C   0  0  0  0  0  2  0  0  0  0  0  0
   42.4410   33.7830   39.9310 N   0  0  0  0  0  4  0  0  0  0  0  0
   43.4360   33.8370   40.2480 H   0  0  0  0  0  0  0  0  0  0  0  0
   42.0310   35.1700   39.7550 C   0  0  0  0  0  2  0  0  0  0  0  0
   41.3930   35.2710   38.8380 H   0  0  0  0  0  0  0  0  0  0  0  0
   41.5720   33.2330   40.9560 C   0  0  0  0  0  2  0  0  0  0  0  0
   40.5440   33.6570   40.7830 H   0  0  0  0  0  0  0  0  0  0  0  0
  2  1  2  1  0  0  0
  2  5  1  0  0  0  0
  3  2  1  0  0  0  0
  4  3  1  0  0  0  0
  5  8  1  0  0  0  0
  6  9  1  1  0  0  0
  6 15  1  0  0  0  0
  7 11  1  0  0  0  0
  7 10  1  0  0  0  0
  7  6  1  0  0  0  0
  8 12  1  6  0  0  0
  8  7  1  0  0  0  0
  8  6  1  0  0  0  0
 13 19  1  0  0  0  0
 14 20  1  0  0  0  0
 14 13  2  0  0  0  0
 15 14  1  0  0  0  0
 16 15  2  0  0  0  0
 16 17  1  0  0  0  0
 17 18  2  0  0  0  0
 18 13  1  0  0  0  0
 21 17  1  0  0  0  0
 22 23  1  0  0  0  0
 22  2  1  0  0  0  0
 23 28  1  0  0  0  0
 24 25  1  0  0  0  0
 24 23  2  0  0  0  0
 25 26  2  0  0  0  0
 26 31  1  0  0  0  0
 26 27  1  0  0  0  0
 27 32  1  0  0  0  0
 28 27  2  0  0  0  0
 29 24  1  0  0  0  0
 30 25  1  0  0  0  0
 32 33  1  0  0  0  0
 33 34  1  0  0  0  0
 33 37  1  0  0  0  0
 35 33  1  0  0  0  0
 36 35  1  0  0  0  0
 38 37  1  0  0  0  0
M  END
>  <minimizedAffinity>
-4.58826542

>  <minimizedRMSD>
1.62622607

$$$$
