
 OpenBabel03242511363D

 40 42  0  0  1  0  0  0  0  0999 V2000
   44.7190   33.5280   42.0820 C   0  0  0  0  0  0  0  0  0  0  0  0
   44.8060   33.6540   43.4930 C   0  0  0  0  0  0  0  0  0  0  0  0
   45.9440   34.2100   44.0850 C   0  0  0  0  0  0  0  0  0  0  0  0
   46.9170   34.6040   43.2350 N   0  0  0  0  0  0  0  0  0  0  0  0
   46.8140   34.4740   41.8910 C   0  0  0  0  0  0  0  0  0  0  0  0
   45.7410   33.9470   41.3180 N   0  0  0  0  0  0  0  0  0  0  0  0
   44.0110   33.3290   44.1200 H   0  0  0  0  0  0  0  0  0  0  0  0
   46.0490   34.3240   45.1390 H   0  0  0  0  0  0  0  0  0  0  0  0
   47.9280   34.9410   40.9910 C   0  0  2  0  0  0  0  0  0  0  0  0
   48.0680   34.4640   39.6210 C   0  0  0  0  0  0  0  0  0  0  0  0
   49.0280   33.9400   40.6310 C   0  0  2  0  0  0  0  0  0  0  0  0
   48.2730   35.9660   41.2600 H   0  0  0  0  0  0  0  0  0  0  0  0
   48.4200   35.1590   38.8290 H   0  0  0  0  0  0  0  0  0  0  0  0
   47.3250   33.7280   39.2470 H   0  0  0  0  0  0  0  0  0  0  0  0
   50.0340   34.4000   40.5970 H   0  0  0  0  0  0  0  0  0  0  0  0
   48.9630   32.5480   41.1690 C   0  0  0  0  0  0  0  0  0  0  0  0
   50.2910   32.1830   41.6370 N   0  0  0  0  0  0  0  0  0  0  0  0
   50.1460   31.3810   42.2980 H   0  0  0  0  0  0  0  0  0  0  0  0
   50.8840   33.2780   42.3390 C   0  0  0  0  0  0  0  0  0  0  0  0
   50.2400   34.1850   42.4030 H   0  0  0  0  0  0  0  0  0  0  0  0
   51.1050   31.6550   40.5570 C   0  0  0  0  0  0  0  0  0  0  0  0
   50.4670   30.8750   40.0680 H   0  0  0  0  0  0  0  0  0  0  0  0
   43.4980   32.9410   41.5340 C   0  0  0  0  0  0  0  0  0  0  0  0
   43.2210   33.1830   40.2520 C   0  0  0  0  0  0  0  0  0  0  0  0
   42.0150   32.6420   39.5940 C   0  0  0  0  0  0  0  0  0  0  0  0
   41.7260   31.6760   40.0590 H   0  0  0  0  0  0  0  0  0  0  0  0
   42.2580   32.4820   38.5280 H   0  0  0  0  0  0  0  0  0  0  0  0
   40.3060   35.6030   40.7290 C   0  0  1  0  0  0  0  0  0  0  0  0
   41.2960   35.0430   39.7040 C   0  0  0  0  0  0  0  0  0  0  0  0
   40.8550   33.6270   39.6420 C   0  0  2  0  0  0  0  0  0  0  0  0
   40.0160   33.3740   40.6950 O   0  0  0  0  0  0  0  0  0  0  0  0
   40.0790   34.3930   41.5990 C   0  0  0  0  0  0  0  0  0  0  0  0
   39.3790   35.9490   40.2490 H   0  0  0  0  0  0  0  0  0  0  0  0
   42.3400   35.1620   40.0450 H   0  0  0  0  0  0  0  0  0  0  0  0
   41.0840   35.5980   38.7610 H   0  0  0  0  0  0  0  0  0  0  0  0
   40.2840   33.4740   38.6940 H   0  0  0  0  0  0  0  0  0  0  0  0
   39.0940   34.5470   42.1020 H   0  0  0  0  0  0  0  0  0  0  0  0
   40.8960   34.2470   42.3130 H   0  0  0  0  0  0  0  0  0  0  0  0
   40.8710   36.6630   41.4170 O   0  0  0  0  0  0  0  0  0  0  0  0
   40.1670   37.1790   41.8580 H   0  0  0  0  0  0  0  0  0  0  0  0
  1  2  1  0  0  0  0
  2  3  2  0  0  0  0
  2  7  1  0  0  0  0
  3  8  1  0  0  0  0
  4  3  1  0  0  0  0
  5  4  2  0  0  0  0
  6  5  1  0  0  0  0
  6  1  2  0  0  0  0
  9 12  1  1  0  0  0
  9  5  1  0  0  0  0
 10 11  1  0  0  0  0
 10  9  1  0  0  0  0
 11 15  1  6  0  0  0
 11  9  1  0  0  0  0
 11 16  1  0  0  0  0
 13 10  1  0  0  0  0
 14 10  1  0  0  0  0
 16 17  1  0  0  0  0
 17 18  1  0  0  0  0
 17 19  1  0  0  0  0
 19 20  1  0  0  0  0
 21 17  1  0  0  0  0
 22 21  1  0  0  0  0
 23  1  1  0  0  0  0
 24 23  2  0  0  0  0
 25 30  1  0  0  0  0
 25 26  1  0  0  0  0
 25 24  1  0  0  0  0
 27 25  1  0  0  0  0
 28 33  1  6  0  0  0
 28 39  1  0  0  0  0
 28 32  1  0  0  0  0
 29 34  1  0  0  0  0
 29 28  1  0  0  0  0
 30 36  1  6  0  0  0
 30 29  1  0  0  0  0
 30 31  1  0  0  0  0
 31 32  1  0  0  0  0
 32 37  1  0  0  0  0
 32 38  1  0  0  0  0
 35 29  1  0  0  0  0
 39 40  1  0  0  0  0
M  END
>  <minimizedAffinity>
-4.71899366

>  <minimizedRMSD>
5.46281195

$$$$
