
 OpenBabel03252500243D

 35 36  0  0  1  0  0  0  0  0999 V2000
   48.4370   30.1240   48.6840 C   0  0  2  0  0  0  0  0  0  0  0  0
   47.0140   29.7630   48.4860 C   0  0  2  0  0  0  0  0  0  0  0  0
   47.0260   28.9260   47.2600 C   0  0  0  0  0  0  0  0  0  0  0  0
   48.2480   28.2870   47.1990 O   0  0  0  0  0  0  0  0  0  0  0  0
   49.0600   28.8040   48.1540 C   0  0  0  0  0  0  0  0  0  0  0  0
   48.9800   30.8390   48.1380 H   0  0  0  0  0  0  0  0  0  0  0  0
   46.7620   29.1220   49.3750 H   0  0  0  0  0  0  0  0  0  0  0  0
   46.3020   28.0710   47.4350 H   0  0  0  0  0  0  0  0  0  0  0  0
   46.6460   29.3550   46.3330 H   0  0  0  0  0  0  0  0  0  0  0  0
   49.0610   28.1550   49.0740 H   0  0  0  0  0  0  0  0  0  0  0  0
   50.0940   28.9260   47.8440 H   0  0  0  0  0  0  0  0  0  0  0  0
   46.1830   30.8550   48.3790 O   0  0  0  0  0  0  0  0  0  0  0  0
   47.8670   32.7680   48.0440 O   0  0  0  0  0  0  0  0  0  0  0  0
   46.8220   31.9650   47.3210 P   0  0  1  0  0  0  0  0  0  0  0  0
   47.5630   31.1520   46.0310 O   0  0  0  0  0  0  0  0  0  0  0  0
   47.0860   31.2990   45.1960 H   0  0  0  0  0  0  0  0  0  0  0  0
   45.6540   33.0810   46.7610 O   0  0  0  0  0  0  0  0  0  0  0  0
   44.9880   35.4310   44.1490 C   0  0  0  0  0  0  0  0  0  0  0  0
   45.9740   35.1450   43.1640 C   0  0  0  0  0  0  0  0  0  0  0  0
   46.8730   34.1060   43.4520 C   0  0  0  0  0  0  0  0  0  0  0  0
   46.7510   33.4520   44.6240 N   0  0  0  0  0  0  0  0  0  0  0  0
   45.8000   33.7510   45.5340 C   0  0  0  0  0  0  0  0  0  0  0  0
   44.9220   34.7420   45.2890 N   0  0  0  0  0  0  0  0  0  0  0  0
   46.0450   35.6890   42.2370 H   0  0  0  0  0  0  0  0  0  0  0  0
   47.6570   33.8240   42.7550 H   0  0  0  0  0  0  0  0  0  0  0  0
   44.1110   36.4470   43.8670 O   0  0  0  0  0  0  0  0  0  0  0  0
   44.4380   37.3910   43.7930 H   0  0  0  0  0  0  0  0  0  0  0  0
   48.8070   30.3570   49.9740 O   0  0  0  0  0  0  0  0  0  0  0  0
   50.0070   30.7060   50.3790 C   0  0  0  0  0  2  0  0  0  0  0  0
   50.6710   31.6440   49.4470 N   0  0  0  0  0  4  0  0  0  0  0  0
   50.0780   31.8780   48.6470 H   0  0  0  0  0  0  0  0  0  0  0  0
   50.9450   32.9040   50.1590 C   0  0  0  0  0  2  0  0  0  0  0  0
   50.1430   32.9620   50.9490 H   0  0  0  0  0  0  0  0  0  0  0  0
   51.9570   31.1620   49.0140 C   0  0  0  0  0  2  0  0  0  0  0  0
   51.9410   30.5120   48.1390 H   0  0  0  0  0  0  0  0  0  0  0  0
  1  6  1  6  0  0  0
  1 28  1  0  0  0  0
  2  1  1  0  0  0  0
  2  7  1  1  0  0  0
  3  8  1  0  0  0  0
  3  2  1  0  0  0  0
  4  3  1  0  0  0  0
  4  5  1  0  0  0  0
  5  1  1  0  0  0  0
  5 10  1  0  0  0  0
  9  3  1  0  0  0  0
 11  5  1  0  0  0  0
 12  2  1  0  0  0  0
 14 13  2  1  0  0  0
 14 12  1  0  0  0  0
 15 14  1  0  0  0  0
 16 15  1  0  0  0  0
 17 14  1  0  0  0  0
 18 23  1  0  0  0  0
 19 20  1  0  0  0  0
 19 18  2  0  0  0  0
 20 21  2  0  0  0  0
 21 22  1  0  0  0  0
 22 17  1  0  0  0  0
 23 22  2  0  0  0  0
 24 19  1  0  0  0  0
 25 20  1  0  0  0  0
 26 18  1  0  0  0  0
 27 26  1  0  0  0  0
 28 29  1  0  0  0  0
 30 32  1  0  0  0  0
 30 29  1  0  0  0  0
 31 30  1  0  0  0  0
 32 33  1  0  0  0  0
 34 30  1  0  0  0  0
 35 34  1  0  0  0  0
M  END
>  <minimizedAffinity>
-4.50035286

>  <minimizedRMSD>
1.67326236

$$$$
