
 OpenBabel03242518253D

 43 46  0  0  1  0  0  0  0  0999 V2000
   44.1520   34.8000   42.6570 C   0  0  0  0  0  0  0  0  0  0  0  0
   43.3810   34.0390   41.7990 C   0  0  0  0  0  0  0  0  0  0  0  0
   43.4980   32.6450   41.9050 C   0  0  0  0  0  0  0  0  0  0  0  0
   44.3380   32.1060   42.8200 N   0  0  0  0  0  0  0  0  0  0  0  0
   45.0760   32.9040   43.6430 C   0  0  0  0  0  0  0  0  0  0  0  0
   44.9840   34.2350   43.5610 N   0  0  0  0  0  0  0  0  0  0  0  0
   44.1430   35.8880   42.6640 H   0  0  0  0  0  0  0  0  0  0  0  0
   42.8900   32.0750   41.2290 H   0  0  0  0  0  0  0  0  0  0  0  0
   42.5470   34.7220   40.8930 N   0  0  0  0  0  0  0  0  0  0  0  0
   42.7540   34.5040   39.4970 C   0  0  0  0  0  0  0  0  0  0  0  0
   41.8870   35.3280   38.6180 C   0  0  0  0  0  0  0  0  0  0  0  0
   40.5120   35.3300   39.0210 N   0  0  0  0  0  0  0  0  0  0  0  0
   40.2340   35.3280   40.4060 C   0  0  0  0  0  0  0  0  0  0  0  0
   41.4830   35.6350   41.2120 C   0  0  0  0  0  0  0  0  0  0  0  0
   43.8270   34.7220   39.2230 H   0  0  0  0  0  0  0  0  0  0  0  0
   42.6220   33.4340   39.2410 H   0  0  0  0  0  0  0  0  0  0  0  0
   42.2790   36.3740   38.6360 H   0  0  0  0  0  0  0  0  0  0  0  0
   41.9670   34.9410   37.5790 H   0  0  0  0  0  0  0  0  0  0  0  0
   39.9260   34.6320   38.5360 H   0  0  0  0  0  0  0  0  0  0  0  0
   39.4100   35.9720   40.7140 H   0  0  0  0  0  0  0  0  0  0  0  0
   39.9470   34.2760   40.6950 H   0  0  0  0  0  0  0  0  0  0  0  0
   41.2290   35.4730   42.2930 H   0  0  0  0  0  0  0  0  0  0  0  0
   41.7910   36.6970   41.1280 H   0  0  0  0  0  0  0  0  0  0  0  0
   46.4420   30.9930   44.4040 C   0  0  0  0  0  0  0  0  0  0  0  0
   45.9670   32.2380   44.6120 C   0  0  0  0  0  0  0  0  0  0  0  0
   46.3290   32.9110   45.7750 C   0  0  0  0  0  0  0  0  0  0  0  0
   47.1610   32.2870   46.6840 C   0  0  0  0  0  0  0  0  0  0  0  0
   47.6440   31.0010   46.4560 C   0  0  0  0  0  0  0  0  0  0  0  0
   47.2800   30.3360   45.2920 C   0  0  0  0  0  0  0  0  0  0  0  0
   48.4480   30.6570   47.5420 O   0  0  0  0  0  0  0  0  0  0  0  0
   48.1360   31.5560   48.6070 C   0  0  2  0  0  0  0  0  0  0  0  0
   47.6810   32.7100   47.9120 O   0  0  0  0  0  0  0  0  0  0  0  0
   46.1820   30.4420   43.5100 H   0  0  0  0  0  0  0  0  0  0  0  0
   45.9870   33.9090   46.0090 H   0  0  0  0  0  0  0  0  0  0  0  0
   47.6410   29.3310   45.0860 H   0  0  0  0  0  0  0  0  0  0  0  0
   47.3620   31.0990   49.2530 H   0  0  0  0  0  0  0  0  0  0  0  0
   49.4210   31.8040   49.3330 C   0  0  0  0  0  0  0  0  0  0  0  0
   50.2100   30.6220   49.5590 N   0  0  0  0  0  0  0  0  0  0  0  0
   51.0790   30.9380   50.0400 H   0  0  0  0  0  0  0  0  0  0  0  0
   50.5770   29.9560   48.3400 C   0  0  0  0  0  0  0  0  0  0  0  0
   50.1360   30.4040   47.4380 H   0  0  0  0  0  0  0  0  0  0  0  0
   49.5560   29.7220   50.4940 C   0  0  0  0  0  0  0  0  0  0  0  0
   50.3310   29.1520   51.0430 H   0  0  0  0  0  0  0  0  0  0  0  0
  1  7  1  0  0  0  0
  1  6  1  0  0  0  0
  2  3  1  0  0  0  0
  2  1  2  0  0  0  0
  3  4  2  0  0  0  0
  4  5  1  0  0  0  0
  5 25  1  0  0  0  0
  6  5  2  0  0  0  0
  8  3  1  0  0  0  0
  9 14  1  0  0  0  0
  9  2  1  0  0  0  0
 10  9  1  0  0  0  0
 11 17  1  0  0  0  0
 11 12  1  0  0  0  0
 11 10  1  0  0  0  0
 12 13  1  0  0  0  0
 13 21  1  0  0  0  0
 13 20  1  0  0  0  0
 13 14  1  0  0  0  0
 14 22  1  0  0  0  0
 15 10  1  0  0  0  0
 16 10  1  0  0  0  0
 18 11  1  0  0  0  0
 19 12  1  0  0  0  0
 23 14  1  0  0  0  0
 24 25  2  0  0  0  0
 24 29  1  0  0  0  0
 25 26  1  0  0  0  0
 26 34  1  0  0  0  0
 26 27  2  0  0  0  0
 27 32  1  0  0  0  0
 28 27  1  0  0  0  0
 28 30  1  0  0  0  0
 29 28  2  0  0  0  0
 30 31  1  0  0  0  0
 31 36  1  1  0  0  0
 31 37  1  0  0  0  0
 32 31  1  0  0  0  0
 33 24  1  0  0  0  0
 35 29  1  0  0  0  0
 37 38  1  0  0  0  0
 38 39  1  0  0  0  0
 38 42  1  0  0  0  0
 40 38  1  0  0  0  0
 41 40  1  0  0  0  0
 42 43  1  0  0  0  0
M  END
>  <minimizedAffinity>
-5.03180981

>  <minimizedRMSD>
0.516538918

$$$$
