
 OpenBabel03242522203D

 43 45  0  0  0  0  0  0  0  0999 V2000
   43.0510   35.3590   40.2730 C   0  0  0  0  0  0  0  0  0  0  0  0
   42.9040   36.4000   39.8800 H   0  0  0  0  0  0  0  0  0  0  0  0
   44.0140   35.0410   39.7830 H   0  0  0  0  0  0  0  0  0  0  0  0
   42.0030   34.5180   39.7480 C   0  0  0  0  0  0  0  0  0  0  0  0
   41.5810   34.3140   38.4640 C   0  0  0  0  0  0  0  0  0  0  0  0
   40.5610   33.4810   38.0550 C   0  0  0  0  0  0  0  0  0  0  0  0
   39.9150   32.7960   39.0340 C   0  0  0  0  0  0  0  0  0  0  0  0
   40.3310   32.9940   40.3320 C   0  0  0  0  0  0  0  0  0  0  0  0
   41.3300   33.8120   40.7090 N   0  0  0  0  0  0  0  0  0  0  0  0
   42.1480   34.8990   37.7250 H   0  0  0  0  0  0  0  0  0  0  0  0
   40.3420   33.4200   37.0010 H   0  0  0  0  0  0  0  0  0  0  0  0
   39.5750   32.2100   41.3650 C   0  0  0  0  0  0  0  0  0  0  0  0
   38.1940   32.4210   41.1650 F   0  0  0  0  0  0  0  0  0  0  0  0
   39.9730   32.4490   42.6450 F   0  0  0  0  0  0  0  0  0  0  0  0
   39.7700   30.8440   41.1210 F   0  0  0  0  0  0  0  0  0  0  0  0
   38.5850   31.6850   38.6210 S   0  0  0  0  0  0  0  0  0  0  0  0
   38.4640   31.4550   36.8340 C   0  0  0  0  0  2  0  0  0  0  0  0
   38.6980   30.0610   36.4720 N   0  0  0  0  0  4  0  0  0  0  0  0
   38.2360   29.4020   37.1120 H   0  0  0  0  0  0  0  0  0  0  0  0
   40.1630   29.8940   36.5520 C   0  0  0  0  0  2  0  0  0  0  0  0
   40.4700   28.8720   36.2570 H   0  0  0  0  0  0  0  0  0  0  0  0
   38.2910   29.7670   35.1190 C   0  0  0  0  0  2  0  0  0  0  0  0
   39.1030   29.2330   34.6100 H   0  0  0  0  0  0  0  0  0  0  0  0
   43.1800   35.4370   41.7490 C   0  0  0  0  0  0  0  0  0  0  0  0
   42.9990   36.4260   42.1850 H   0  0  0  0  0  0  0  0  0  0  0  0
   42.4160   34.7440   42.1850 H   0  0  0  0  0  0  0  0  0  0  0  0
   46.4850   33.8200   42.2240 C   0  0  0  0  0  0  0  0  0  0  0  0
   46.7410   34.2300   43.4860 C   0  0  0  0  0  0  0  0  0  0  0  0
   45.2410   35.2260   43.8680 S   0  0  0  0  0  0  0  0  0  0  0  0
   44.5060   34.9010   42.1980 C   0  0  0  0  0  0  0  0  0  0  0  0
   45.3510   34.2460   41.7660 N   0  0  0  0  0  0  0  0  0  0  0  0
   47.5910   34.0440   44.1350 H   0  0  0  0  0  0  0  0  0  0  0  0
   49.0940   32.6080   39.7870 C   0  0  0  0  0  0  0  0  0  0  0  0
   48.2610   33.4940   40.4960 C   0  0  0  0  0  0  0  0  0  0  0  0
   47.3970   32.9710   41.4310 C   0  0  0  0  0  0  0  0  0  0  0  0
   47.4160   31.5920   41.6000 N   0  0  0  0  0  0  0  0  0  0  0  0
   48.2270   30.7880   40.9010 C   0  0  0  0  0  0  0  0  0  0  0  0
   49.0750   31.2980   39.9850 N   0  0  0  0  0  0  0  0  0  0  0  0
   49.7910   32.9730   39.0410 H   0  0  0  0  0  0  0  0  0  0  0  0
   48.0310   29.7660   41.2360 H   0  0  0  0  0  0  0  0  0  0  0  0
   48.3700   34.8740   40.2000 N   0  0  0  0  0  0  0  0  0  0  0  0
   49.2090   35.4880   40.4220 H   0  0  0  0  0  0  0  0  0  0  0  0
   47.5400   35.2910   39.7240 H   0  0  0  0  0  0  0  0  0  0  0  0
  1 24  1  0  0  0  0
  2  1  1  0  0  0  0
  3  1  1  0  0  0  0
  4  1  1  0  0  0  0
  4  9  1  0  0  0  0
  5  4  2  0  0  0  0
  6  5  1  0  0  0  0
  6  7  2  0  0  0  0
  7  8  1  0  0  0  0
  8  9  2  0  0  0  0
  8 12  1  0  0  0  0
 10  5  1  0  0  0  0
 11  6  1  0  0  0  0
 12 14  1  0  0  0  0
 13 12  1  0  0  0  0
 15 12  1  0  0  0  0
 16  7  1  0  0  0  0
 17 16  1  0  0  0  0
 18 20  1  0  0  0  0
 18 17  1  0  0  0  0
 18 19  1  0  0  0  0
 21 20  1  0  0  0  0
 22 18  1  0  0  0  0
 23 22  1  0  0  0  0
 24 25  1  0  0  0  0
 24 26  1  0  0  0  0
 24 30  1  0  0  0  0
 27 28  2  0  0  0  0
 28 29  1  0  0  0  0
 28 32  1  0  0  0  0
 30 29  1  0  0  0  0
 31 30  2  0  0  0  0
 31 27  1  0  0  0  0
 33 38  2  0  0  0  0
 33 34  1  0  0  0  0
 34 35  2  0  0  0  0
 35 36  1  0  0  0  0
 35 27  1  0  0  0  0
 37 40  1  0  0  0  0
 37 36  2  0  0  0  0
 38 37  1  0  0  0  0
 39 33  1  0  0  0  0
 41 42  1  0  0  0  0
 41 34  1  0  0  0  0
 43 41  1  0  0  0  0
M  END
>  <minimizedAffinity>
-5.01636219

>  <minimizedRMSD>
1.62015808

$$$$
