
 OpenBabel03242522203D

 43 45  0  0  0  0  0  0  0  0999 V2000
   43.9140   35.4760   41.1500 C   0  0  0  0  0  0  0  0  0  0  0  0
   43.4820   36.4640   40.8390 H   0  0  0  0  0  0  0  0  0  0  0  0
   44.9380   35.4930   40.6810 H   0  0  0  0  0  0  0  0  0  0  0  0
   43.1640   34.4240   40.5080 C   0  0  0  0  0  0  0  0  0  0  0  0
   43.0670   34.0730   39.1910 C   0  0  0  0  0  0  0  0  0  0  0  0
   42.3170   33.0410   38.6660 C   0  0  0  0  0  0  0  0  0  0  0  0
   41.6060   32.3020   39.5570 C   0  0  0  0  0  0  0  0  0  0  0  0
   41.6960   32.6460   40.8870 C   0  0  0  0  0  0  0  0  0  0  0  0
   42.4350   33.6580   41.3770 N   0  0  0  0  0  0  0  0  0  0  0  0
   43.6680   34.7130   38.5280 H   0  0  0  0  0  0  0  0  0  0  0  0
   42.3410   32.8820   37.6000 H   0  0  0  0  0  0  0  0  0  0  0  0
   40.8850   31.7930   41.8170 C   0  0  0  0  0  0  0  0  0  0  0  0
   39.8080   32.5620   42.3080 F   0  0  0  0  0  0  0  0  0  0  0  0
   41.6120   31.2000   42.8040 F   0  0  0  0  0  0  0  0  0  0  0  0
   40.2860   30.7660   41.0740 F   0  0  0  0  0  0  0  0  0  0  0  0
   40.6080   30.9380   38.9930 S   0  0  0  0  0  0  0  0  0  0  0  0
   39.3330   31.5000   37.8450 C   0  0  0  0  0  2  0  0  0  0  0  0
   38.8800   32.8450   38.1900 N   0  0  0  0  0  4  0  0  0  0  0  0
   39.6580   33.5010   38.3320 H   0  0  0  0  0  0  0  0  0  0  0  0
   38.1290   32.6760   39.4510 C   0  0  0  0  0  2  0  0  0  0  0  0
   37.6980   33.6350   39.7950 H   0  0  0  0  0  0  0  0  0  0  0  0
   37.9780   33.3920   37.2050 C   0  0  0  0  0  2  0  0  0  0  0  0
   37.0950   33.7970   37.7170 H   0  0  0  0  0  0  0  0  0  0  0  0
   43.9860   35.4480   42.6310 C   0  0  0  0  0  0  0  0  0  0  0  0
   44.0090   36.4300   43.1200 H   0  0  0  0  0  0  0  0  0  0  0  0
   43.0660   34.9250   42.9980 H   0  0  0  0  0  0  0  0  0  0  0  0
   46.9570   33.2770   43.0950 C   0  0  0  0  0  0  0  0  0  0  0  0
   46.9830   33.2400   44.4470 C   0  0  0  0  0  0  0  0  0  0  0  0
   45.5340   34.2900   44.8770 S   0  0  0  0  0  0  0  0  0  0  0  0
   45.1350   34.6050   43.0950 C   0  0  0  0  0  0  0  0  0  0  0  0
   45.9880   33.9900   42.6200 N   0  0  0  0  0  0  0  0  0  0  0  0
   47.6600   32.7370   45.1310 H   0  0  0  0  0  0  0  0  0  0  0  0
   49.6550   32.5060   40.5760 C   0  0  0  0  0  0  0  0  0  0  0  0
   48.7570   33.2550   41.3600 C   0  0  0  0  0  0  0  0  0  0  0  0
   47.9320   32.5790   42.2320 C   0  0  0  0  0  0  0  0  0  0  0  0
   48.0540   31.1960   42.2660 N   0  0  0  0  0  0  0  0  0  0  0  0
   48.9250   30.5270   41.4990 C   0  0  0  0  0  0  0  0  0  0  0  0
   49.7340   31.1860   40.6460 N   0  0  0  0  0  0  0  0  0  0  0  0
   50.3240   32.9940   39.8760 H   0  0  0  0  0  0  0  0  0  0  0  0
   48.8050   29.4660   41.7310 H   0  0  0  0  0  0  0  0  0  0  0  0
   48.7620   34.6610   41.2010 N   0  0  0  0  0  0  0  0  0  0  0  0
   49.5530   35.3110   41.4900 H   0  0  0  0  0  0  0  0  0  0  0  0
   47.9040   35.0590   40.7610 H   0  0  0  0  0  0  0  0  0  0  0  0
  1 24  1  0  0  0  0
  2  1  1  0  0  0  0
  3  1  1  0  0  0  0
  4  1  1  0  0  0  0
  4  9  1  0  0  0  0
  5  4  2  0  0  0  0
  6  5  1  0  0  0  0
  6  7  2  0  0  0  0
  7  8  1  0  0  0  0
  8  9  2  0  0  0  0
  8 12  1  0  0  0  0
 10  5  1  0  0  0  0
 11  6  1  0  0  0  0
 12 13  1  0  0  0  0
 12 14  1  0  0  0  0
 15 12  1  0  0  0  0
 16  7  1  0  0  0  0
 17 18  1  0  0  0  0
 17 16  1  0  0  0  0
 18 19  1  0  0  0  0
 18 20  1  0  0  0  0
 20 21  1  0  0  0  0
 22 23  1  0  0  0  0
 22 18  1  0  0  0  0
 24 26  1  0  0  0  0
 24 30  1  0  0  0  0
 24 25  1  0  0  0  0
 27 28  2  0  0  0  0
 28 29  1  0  0  0  0
 28 32  1  0  0  0  0
 30 29  1  0  0  0  0
 31 30  2  0  0  0  0
 31 27  1  0  0  0  0
 33 38  2  0  0  0  0
 33 34  1  0  0  0  0
 34 35  2  0  0  0  0
 35 36  1  0  0  0  0
 35 27  1  0  0  0  0
 37 40  1  0  0  0  0
 37 36  2  0  0  0  0
 38 37  1  0  0  0  0
 39 33  1  0  0  0  0
 41 34  1  0  0  0  0
 41 42  1  0  0  0  0
 43 41  1  0  0  0  0
M  END
>  <minimizedAffinity>
-4.64535236

>  <minimizedRMSD>
2.10284233

$$$$
