
 OpenBabel03252507453D

 35 36  0  0  0  0  0  0  0  0999 V2000
   47.5150   34.3390   40.7070 C   0  0  0  0  0  0  0  0  0  0  0  0
   47.8090   35.1430   39.9790 H   0  0  0  0  0  0  0  0  0  0  0  0
   46.8290   33.6680   40.1660 H   0  0  0  0  0  0  0  0  0  0  0  0
   48.7780   33.6550   41.0620 C   0  0  0  0  0  0  0  0  0  0  0  0
   49.2120   32.6520   40.2030 C   0  0  0  0  0  0  0  0  0  0  0  0
   50.3870   31.9600   40.4630 C   0  0  0  0  0  0  0  0  0  0  0  0
   51.0820   32.3090   41.5860 N   0  0  0  0  0  0  0  0  0  0  0  0
   50.6250   33.2950   42.4020 C   0  0  0  0  0  0  0  0  0  0  0  0
   49.5010   33.9430   42.1370 N   0  0  0  0  0  0  0  0  0  0  0  0
   50.7470   31.1760   39.8110 H   0  0  0  0  0  0  0  0  0  0  0  0
   51.1530   33.5890   43.2930 H   0  0  0  0  0  0  0  0  0  0  0  0
   48.2540   32.2350   38.7360 S   0  0  0  0  0  0  0  0  0  0  0  0
   49.4430   32.1550   37.3700 C   0  0  0  0  0  0  0  0  0  0  0  0
   49.1450   33.2080   36.4360 N   0  0  0  0  0  0  0  0  0  0  0  0
   50.0690   33.6760   36.2220 H   0  0  0  0  0  0  0  0  0  0  0  0
   48.3120   34.1860   37.0790 C   0  0  0  0  0  0  0  0  0  0  0  0
   48.5150   34.2590   38.1470 H   0  0  0  0  0  0  0  0  0  0  0  0
   48.5430   32.7080   35.2150 C   0  0  0  0  0  0  0  0  0  0  0  0
   49.2820   32.5150   34.4170 H   0  0  0  0  0  0  0  0  0  0  0  0
   46.7760   34.8650   41.8910 C   0  0  0  0  0  0  0  0  0  0  0  0
   47.0950   34.3130   42.7950 H   0  0  0  0  0  0  0  0  0  0  0  0
   47.0970   35.9190   42.0300 H   0  0  0  0  0  0  0  0  0  0  0  0
   45.3030   34.8950   41.7230 C   0  0  0  0  0  0  0  0  0  0  0  0
   44.4970   35.6320   42.6520 C   0  0  0  0  0  0  0  0  0  0  0  0
   42.7920   35.3610   42.0270 S   0  0  0  0  0  0  0  0  0  0  0  0
   43.4540   34.2860   40.6000 C   0  0  0  0  0  0  0  0  0  0  0  0
   44.5770   34.3120   40.7950 N   0  0  0  0  0  0  0  0  0  0  0  0
   44.8340   36.1970   43.5000 H   0  0  0  0  0  0  0  0  0  0  0  0
   42.6300   33.6930   39.6430 O   0  0  0  0  0  0  0  0  0  0  0  0
   40.7410   33.9350   37.8000 O   0  0  0  0  0  0  0  0  0  0  0  0
   41.7270   34.7320   38.6440 P   0  0  0  0  0  0  0  0  0  0  0  0
   40.8620   35.7890   39.6470 O   0  0  0  0  0  0  0  0  0  0  0  0
   40.0110   35.4190   39.9440 H   0  0  0  0  0  0  0  0  0  0  0  0
   42.7810   35.6370   37.6660 O   0  0  0  0  0  0  0  0  0  0  0  0
   42.7550   36.5940   37.8340 H   0  0  0  0  0  0  0  0  0  0  0  0
  1  4  1  0  0  0  0
  1 20  1  0  0  0  0
  2  1  1  0  0  0  0
  3  1  1  0  0  0  0
  4  9  1  0  0  0  0
  5  6  1  0  0  0  0
  5  4  2  0  0  0  0
  6  7  2  0  0  0  0
  7  8  1  0  0  0  0
  8 11  1  0  0  0  0
  9  8  2  0  0  0  0
 10  6  1  0  0  0  0
 12  5  1  0  0  0  0
 13 12  1  0  0  0  0
 14 16  1  0  0  0  0
 14 13  1  0  0  0  0
 15 14  1  0  0  0  0
 16 17  1  0  0  0  0
 18 14  1  0  0  0  0
 19 18  1  0  0  0  0
 20 22  1  0  0  0  0
 20 21  1  0  0  0  0
 23 20  1  0  0  0  0
 23 24  2  0  0  0  0
 24 28  1  0  0  0  0
 25 24  1  0  0  0  0
 26 27  2  0  0  0  0
 26 25  1  0  0  0  0
 27 23  1  0  0  0  0
 29 26  1  0  0  0  0
 30 31  2  0  0  0  0
 31 29  1  0  0  0  0
 31 32  1  0  0  0  0
 32 33  1  0  0  0  0
 34 35  1  0  0  0  0
 34 31  1  0  0  0  0
M  END
>  <minimizedAffinity>
-4.84012175

>  <minimizedRMSD>
1.05543673

$$$$
