
 OpenBabel03252503153D

 34 36  0  0  0  0  0  0  0  0999 V2000
   46.0730   34.7110   41.7430 C   0  0  0  0  0  0  0  0  0  0  0  0
   47.2980   35.0010   41.5570 O   0  0  0  0  0  0  0  0  0  0  0  0
   45.1280   34.2440   40.6780 C   0  0  0  0  0  0  0  0  0  0  0  0
   43.8130   34.6100   40.5380 C   0  0  0  0  0  0  0  0  0  0  0  0
   43.3650   33.9480   39.4510 N   0  0  0  0  0  0  0  0  0  0  0  0
   44.3780   33.2070   38.9490 C   0  0  0  0  0  0  0  0  0  0  0  0
   45.4890   33.3830   39.7090 N   0  0  0  0  0  0  0  0  0  0  0  0
   44.4390   32.3320   37.8210 N   0  0  0  0  0  0  0  0  0  0  0  0
   43.2400   35.2840   41.1590 H   0  0  0  0  0  0  0  0  0  0  0  0
   43.9010   31.4880   38.1280 H   0  0  0  0  0  0  0  0  0  0  0  0
   44.9220   32.5180   36.9050 H   0  0  0  0  0  0  0  0  0  0  0  0
   42.0580   33.9630   38.8520 C   0  0  0  0  0  0  0  0  0  0  0  0
   41.3610   35.2070   38.9340 N   0  0  0  0  0  0  0  0  0  0  0  0
   41.7480   35.7920   39.7320 H   0  0  0  0  0  0  0  0  0  0  0  0
   41.3150   35.9830   37.7360 C   0  0  0  0  0  0  0  0  0  0  0  0
   41.5490   35.4710   36.8070 H   0  0  0  0  0  0  0  0  0  0  0  0
   39.9830   34.9250   39.3580 C   0  0  0  0  0  0  0  0  0  0  0  0
   39.3940   34.6520   38.4730 H   0  0  0  0  0  0  0  0  0  0  0  0
   44.9930   36.0540   43.4840 C   0  0  0  0  0  0  0  0  0  0  0  0
   45.6160   34.8570   43.0850 C   0  0  0  0  0  0  0  0  0  0  0  0
   45.7330   33.9010   44.0740 C   0  0  0  0  0  0  0  0  0  0  0  0
   45.2870   34.0860   45.3280 N   0  0  0  0  0  0  0  0  0  0  0  0
   44.6910   35.2640   45.6590 C   0  0  0  0  0  0  0  0  0  0  0  0
   44.5470   36.2400   44.7350 N   0  0  0  0  0  0  0  0  0  0  0  0
   44.8760   36.8400   42.7440 H   0  0  0  0  0  0  0  0  0  0  0  0
   44.3270   35.4260   46.6660 H   0  0  0  0  0  0  0  0  0  0  0  0
   46.3520   32.6680   43.7510 C   0  0  0  0  0  0  0  0  0  0  0  0
   47.6230   32.1850   43.7780 C   0  0  0  0  0  0  0  0  0  0  0  0
   47.9280   30.9590   43.4110 C   0  0  0  0  0  0  0  0  0  0  0  0
   46.9070   30.1810   42.9970 C   0  0  0  0  0  0  0  0  0  0  0  0
   45.4460   31.2610   43.1420 S   0  0  0  0  0  0  0  0  0  0  0  0
   48.3680   32.9260   44.1390 H   0  0  0  0  0  0  0  0  0  0  0  0
   48.9190   30.5210   43.4120 H   0  0  0  0  0  0  0  0  0  0  0  0
   46.9140   29.0950   42.6330 H   0  0  0  0  0  0  0  0  0  0  0  0
  1 20  1  0  0  0  0
  2  1  2  0  0  0  0
  3  1  1  0  0  0  0
  4  3  2  0  0  0  0
  4  9  1  0  0  0  0
  5  4  1  0  0  0  0
  6  5  1  0  0  0  0
  6  7  2  0  0  0  0
  7  3  1  0  0  0  0
  8 10  1  0  0  0  0
  8  6  1  0  0  0  0
 11  8  1  0  0  0  0
 12 13  1  0  0  0  0
 12  5  1  0  0  0  0
 13 17  1  0  0  0  0
 13 14  1  0  0  0  0
 15 13  1  0  0  0  0
 16 15  1  0  0  0  0
 18 17  1  0  0  0  0
 19 24  1  0  0  0  0
 20 19  2  0  0  0  0
 20 21  1  0  0  0  0
 21 22  2  0  0  0  0
 22 23  1  0  0  0  0
 23 26  1  0  0  0  0
 24 23  2  0  0  0  0
 25 19  1  0  0  0  0
 27 28  2  0  0  0  0
 27 21  1  0  0  0  0
 28 32  1  0  0  0  0
 29 33  1  0  0  0  0
 29 28  1  0  0  0  0
 30 31  1  0  0  0  0
 30 29  2  0  0  0  0
 31 27  1  0  0  0  0
 34 30  1  0  0  0  0
M  END
>  <minimizedAffinity>
-4.91794729

>  <minimizedRMSD>
0.858047068

$$$$
