
 OpenBabel03252507453D

 35 36  0  0  0  0  0  0  0  0999 V2000
   47.5650   34.7630   41.0420 C   0  0  0  0  0  0  0  0  0  0  0  0
   48.0140   35.6660   40.5450 H   0  0  0  0  0  0  0  0  0  0  0  0
   46.9060   34.2950   40.2930 H   0  0  0  0  0  0  0  0  0  0  0  0
   48.7130   33.8920   41.3780 C   0  0  0  0  0  0  0  0  0  0  0  0
   48.6470   32.5720   40.9460 C   0  0  0  0  0  0  0  0  0  0  0  0
   49.6820   31.6890   41.2190 C   0  0  0  0  0  0  0  0  0  0  0  0
   50.7480   32.1740   41.9210 N   0  0  0  0  0  0  0  0  0  0  0  0
   50.7750   33.4700   42.3270 C   0  0  0  0  0  0  0  0  0  0  0  0
   49.7780   34.2980   42.0560 N   0  0  0  0  0  0  0  0  0  0  0  0
   49.6560   30.6580   40.8940 H   0  0  0  0  0  0  0  0  0  0  0  0
   51.6040   33.8770   42.8820 H   0  0  0  0  0  0  0  0  0  0  0  0
   47.2150   31.9890   40.0220 S   0  0  0  0  0  0  0  0  0  0  0  0
   47.7540   31.8590   38.2960 C   0  0  0  0  0  2  0  0  0  0  0  0
   48.7350   32.8790   38.0400 N   0  0  0  0  0  4  0  0  0  0  0  0
   49.0340   33.2380   38.9900 H   0  0  0  0  0  0  0  0  0  0  0  0
   48.1090   33.9730   37.3520 C   0  0  0  0  0  2  0  0  0  0  0  0
   47.0630   34.0890   37.6300 H   0  0  0  0  0  0  0  0  0  0  0  0
   49.8830   32.3700   37.3140 C   0  0  0  0  0  2  0  0  0  0  0  0
   50.7090   32.0570   37.9770 H   0  0  0  0  0  0  0  0  0  0  0  0
   46.7180   35.1050   42.2210 C   0  0  0  0  0  0  0  0  0  0  0  0
   47.0420   34.5020   43.0900 H   0  0  0  0  0  0  0  0  0  0  0  0
   46.9300   36.1660   42.4730 H   0  0  0  0  0  0  0  0  0  0  0  0
   45.2610   35.0170   41.9680 C   0  0  0  0  0  0  0  0  0  0  0  0
   44.3430   35.6380   42.8790 C   0  0  0  0  0  0  0  0  0  0  0  0
   42.7050   35.2520   42.1440 S   0  0  0  0  0  0  0  0  0  0  0  0
   43.5370   34.3080   40.7130 C   0  0  0  0  0  0  0  0  0  0  0  0
   44.6400   34.4200   40.9750 N   0  0  0  0  0  0  0  0  0  0  0  0
   44.5810   36.1880   43.7690 H   0  0  0  0  0  0  0  0  0  0  0  0
   42.8210   33.6930   39.6840 O   0  0  0  0  0  0  0  0  0  0  0  0
   40.9090   33.8820   37.8600 O   0  0  0  0  0  0  0  0  0  0  0  0
   41.9120   34.7030   38.6600 P   0  0  0  0  0  0  0  0  0  0  0  0
   41.0700   35.8030   39.6350 O   0  0  0  0  0  0  0  0  0  0  0  0
   40.2200   35.4510   39.9570 H   0  0  0  0  0  0  0  0  0  0  0  0
   42.9590   35.5620   37.6350 O   0  0  0  0  0  0  0  0  0  0  0  0
   42.9430   36.5240   37.7670 H   0  0  0  0  0  0  0  0  0  0  0  0
  1  4  1  0  0  0  0
  1 20  1  0  0  0  0
  2  1  1  0  0  0  0
  3  1  1  0  0  0  0
  4  9  1  0  0  0  0
  5  6  1  0  0  0  0
  5  4  2  0  0  0  0
  6  7  2  0  0  0  0
  7  8  1  0  0  0  0
  8 11  1  0  0  0  0
  9  8  2  0  0  0  0
 10  6  1  0  0  0  0
 12  5  1  0  0  0  0
 13 12  1  0  0  0  0
 14 13  1  0  0  0  0
 14 15  1  0  0  0  0
 16 17  1  0  0  0  0
 16 14  1  0  0  0  0
 18 19  1  0  0  0  0
 18 14  1  0  0  0  0
 20 22  1  0  0  0  0
 20 21  1  0  0  0  0
 23 20  1  0  0  0  0
 23 24  2  0  0  0  0
 24 28  1  0  0  0  0
 25 24  1  0  0  0  0
 26 27  2  0  0  0  0
 26 25  1  0  0  0  0
 27 23  1  0  0  0  0
 29 26  1  0  0  0  0
 30 31  2  0  0  0  0
 31 32  1  0  0  0  0
 31 29  1  0  0  0  0
 32 33  1  0  0  0  0
 34 35  1  0  0  0  0
 34 31  1  0  0  0  0
M  END
>  <minimizedAffinity>
-4.36189699

>  <minimizedRMSD>
0.859845877

$$$$
