
 OpenBabel03252507453D

 35 36  0  0  0  0  0  0  0  0999 V2000
   47.5220   34.4900   40.7830 C   0  0  0  0  0  0  0  0  0  0  0  0
   47.8340   35.3530   40.1350 H   0  0  0  0  0  0  0  0  0  0  0  0
   46.8590   33.8640   40.1650 H   0  0  0  0  0  0  0  0  0  0  0  0
   48.7780   33.7830   41.1210 C   0  0  0  0  0  0  0  0  0  0  0  0
   49.1010   32.6720   40.3500 C   0  0  0  0  0  0  0  0  0  0  0  0
   50.2600   31.9530   40.6020 C   0  0  0  0  0  0  0  0  0  0  0  0
   51.0530   32.3850   41.6270 N   0  0  0  0  0  0  0  0  0  0  0  0
   50.7030   33.4740   42.3580 C   0  0  0  0  0  0  0  0  0  0  0  0
   49.5920   34.1470   42.1030 N   0  0  0  0  0  0  0  0  0  0  0  0
   50.5350   31.0860   40.0170 H   0  0  0  0  0  0  0  0  0  0  0  0
   51.3100   33.8350   43.1720 H   0  0  0  0  0  0  0  0  0  0  0  0
   48.0160   32.1510   39.0100 S   0  0  0  0  0  0  0  0  0  0  0  0
   49.0570   32.0750   37.5270 C   0  0  0  0  0  2  0  0  0  0  0  0
   48.6950   33.1610   36.6550 N   0  0  0  0  0  4  0  0  0  0  0  0
   49.4720   33.8740   36.7420 H   0  0  0  0  0  0  0  0  0  0  0  0
   47.4940   33.7790   37.1450 C   0  0  0  0  0  2  0  0  0  0  0  0
   47.4170   33.7210   38.2300 H   0  0  0  0  0  0  0  0  0  0  0  0
   48.5580   32.7370   35.2740 C   0  0  0  0  0  2  0  0  0  0  0  0
   49.4840   32.8700   34.6890 H   0  0  0  0  0  0  0  0  0  0  0  0
   46.7400   34.9100   41.9810 C   0  0  0  0  0  0  0  0  0  0  0  0
   47.0480   34.3000   42.8510 H   0  0  0  0  0  0  0  0  0  0  0  0
   47.0340   35.9570   42.2060 H   0  0  0  0  0  0  0  0  0  0  0  0
   45.2720   34.9220   41.7750 C   0  0  0  0  0  0  0  0  0  0  0  0
   44.4310   35.6280   42.6980 C   0  0  0  0  0  0  0  0  0  0  0  0
   42.7480   35.3450   42.0230 S   0  0  0  0  0  0  0  0  0  0  0  0
   43.4630   34.3100   40.5910 C   0  0  0  0  0  0  0  0  0  0  0  0
   44.5790   34.3490   40.8160 N   0  0  0  0  0  0  0  0  0  0  0  0
   44.7370   36.1790   43.5660 H   0  0  0  0  0  0  0  0  0  0  0  0
   42.6730   33.7250   39.6000 O   0  0  0  0  0  0  0  0  0  0  0  0
   40.7430   33.9740   37.8010 O   0  0  0  0  0  0  0  0  0  0  0  0
   41.7410   34.7700   38.6330 P   0  0  0  0  0  0  0  0  0  0  0  0
   40.8910   35.8100   39.6660 O   0  0  0  0  0  0  0  0  0  0  0  0
   40.0490   35.4300   39.9770 H   0  0  0  0  0  0  0  0  0  0  0  0
   42.7680   35.6930   37.6430 O   0  0  0  0  0  0  0  0  0  0  0  0
   42.7400   36.6470   37.8220 H   0  0  0  0  0  0  0  0  0  0  0  0
  1  4  1  0  0  0  0
  1 20  1  0  0  0  0
  2  1  1  0  0  0  0
  3  1  1  0  0  0  0
  4  9  1  0  0  0  0
  5  6  1  0  0  0  0
  5  4  2  0  0  0  0
  6  7  2  0  0  0  0
  7  8  1  0  0  0  0
  8 11  1  0  0  0  0
  9  8  2  0  0  0  0
 10  6  1  0  0  0  0
 12  5  1  0  0  0  0
 13 12  1  0  0  0  0
 14 15  1  0  0  0  0
 14 16  1  0  0  0  0
 14 13  1  0  0  0  0
 16 17  1  0  0  0  0
 18 14  1  0  0  0  0
 19 18  1  0  0  0  0
 20 22  1  0  0  0  0
 20 21  1  0  0  0  0
 23 20  1  0  0  0  0
 23 24  2  0  0  0  0
 24 28  1  0  0  0  0
 25 24  1  0  0  0  0
 26 27  2  0  0  0  0
 26 25  1  0  0  0  0
 27 23  1  0  0  0  0
 29 26  1  0  0  0  0
 30 31  2  0  0  0  0
 31 29  1  0  0  0  0
 31 32  1  0  0  0  0
 32 33  1  0  0  0  0
 34 35  1  0  0  0  0
 34 31  1  0  0  0  0
M  END
>  <minimizedAffinity>
-4.69543362

>  <minimizedRMSD>
0.928918421

$$$$
