
 OpenBabel03252507443D

 35 36  0  0  0  0  0  0  0  0999 V2000
   47.7280   34.6830   40.9300 C   0  0  0  0  0  0  0  0  0  0  0  0
   48.1220   35.6420   40.4950 H   0  0  0  0  0  0  0  0  0  0  0  0
   47.1080   34.2210   40.1460 H   0  0  0  0  0  0  0  0  0  0  0  0
   48.9270   33.8680   41.2270 C   0  0  0  0  0  0  0  0  0  0  0  0
   49.2030   32.8170   40.3590 C   0  0  0  0  0  0  0  0  0  0  0  0
   50.3070   32.0040   40.5650 C   0  0  0  0  0  0  0  0  0  0  0  0
   51.0950   32.2830   41.6460 N   0  0  0  0  0  0  0  0  0  0  0  0
   50.7920   33.3180   42.4720 C   0  0  0  0  0  0  0  0  0  0  0  0
   49.7330   34.0830   42.2580 N   0  0  0  0  0  0  0  0  0  0  0  0
   50.5450   31.1810   39.9060 H   0  0  0  0  0  0  0  0  0  0  0  0
   51.3960   33.5590   43.3300 H   0  0  0  0  0  0  0  0  0  0  0  0
   48.1270   32.4980   38.9500 S   0  0  0  0  0  0  0  0  0  0  0  0
   49.2280   32.1850   37.5430 C   0  0  0  0  0  2  0  0  0  0  0  0
   49.0940   33.2650   36.6030 N   0  0  0  0  0  4  0  0  0  0  0  0
   50.0670   33.6580   36.4730 H   0  0  0  0  0  0  0  0  0  0  0  0
   48.2920   34.3030   37.1890 C   0  0  0  0  0  2  0  0  0  0  0  0
   48.4110   34.3520   38.2710 H   0  0  0  0  0  0  0  0  0  0  0  0
   48.5570   32.8230   35.3300 C   0  0  0  0  0  2  0  0  0  0  0  0
   49.3430   32.5770   34.5930 H   0  0  0  0  0  0  0  0  0  0  0  0
   46.8510   34.8970   42.1170 C   0  0  0  0  0  0  0  0  0  0  0  0
   47.1710   34.2240   42.9340 H   0  0  0  0  0  0  0  0  0  0  0  0
   47.0330   35.9350   42.4690 H   0  0  0  0  0  0  0  0  0  0  0  0
   45.4010   34.8030   41.8260 C   0  0  0  0  0  0  0  0  0  0  0  0
   44.5030   35.7830   42.3630 C   0  0  0  0  0  0  0  0  0  0  0  0
   42.8670   35.2360   41.7330 S   0  0  0  0  0  0  0  0  0  0  0  0
   43.6730   33.7590   40.8390 C   0  0  0  0  0  0  0  0  0  0  0  0
   44.7710   33.9000   41.1060 N   0  0  0  0  0  0  0  0  0  0  0  0
   44.7520   36.6240   42.9820 H   0  0  0  0  0  0  0  0  0  0  0  0
   42.9490   32.8310   40.0880 O   0  0  0  0  0  0  0  0  0  0  0  0
   41.8930   32.2630   37.7250 O   0  0  0  0  0  0  0  0  0  0  0  0
   42.1610   33.4070   38.6940 P   0  0  0  0  0  0  0  0  0  0  0  0
   40.6820   34.0790   39.1760 O   0  0  0  0  0  0  0  0  0  0  0  0
   39.9700   33.4170   39.2430 H   0  0  0  0  0  0  0  0  0  0  0  0
   43.1070   34.6180   37.9680 O   0  0  0  0  0  0  0  0  0  0  0  0
   42.6890   35.4950   37.9560 H   0  0  0  0  0  0  0  0  0  0  0  0
  1  4  1  0  0  0  0
  1 20  1  0  0  0  0
  2  1  1  0  0  0  0
  3  1  1  0  0  0  0
  4  9  1  0  0  0  0
  5  6  1  0  0  0  0
  5  4  2  0  0  0  0
  6  7  2  0  0  0  0
  7  8  1  0  0  0  0
  8 11  1  0  0  0  0
  9  8  2  0  0  0  0
 10  6  1  0  0  0  0
 12  5  1  0  0  0  0
 13 12  1  0  0  0  0
 14 16  1  0  0  0  0
 14 13  1  0  0  0  0
 15 14  1  0  0  0  0
 16 17  1  0  0  0  0
 18 14  1  0  0  0  0
 19 18  1  0  0  0  0
 20 22  1  0  0  0  0
 20 21  1  0  0  0  0
 23 20  1  0  0  0  0
 23 24  2  0  0  0  0
 24 28  1  0  0  0  0
 25 24  1  0  0  0  0
 26 27  2  0  0  0  0
 26 25  1  0  0  0  0
 27 23  1  0  0  0  0
 29 26  1  0  0  0  0
 30 31  2  0  0  0  0
 31 32  1  0  0  0  0
 31 29  1  0  0  0  0
 32 33  1  0  0  0  0
 34 31  1  0  0  0  0
 35 34  1  0  0  0  0
M  END
>  <minimizedAffinity>
-4.67467785

>  <minimizedRMSD>
1.30394149

$$$$
