
 OpenBabel03252507453D

 35 36  0  0  0  0  0  0  0  0999 V2000
   47.3540   34.2280   40.3690 C   0  0  0  0  0  0  0  0  0  0  0  0
   47.6620   35.0630   39.6830 H   0  0  0  0  0  0  0  0  0  0  0  0
   46.6000   33.6410   39.8210 H   0  0  0  0  0  0  0  0  0  0  0  0
   48.5870   33.4450   40.6080 C   0  0  0  0  0  0  0  0  0  0  0  0
   48.9380   32.5150   39.6360 C   0  0  0  0  0  0  0  0  0  0  0  0
   50.0790   31.7400   39.7820 C   0  0  0  0  0  0  0  0  0  0  0  0
   50.8260   31.9340   40.9100 N   0  0  0  0  0  0  0  0  0  0  0  0
   50.4490   32.8520   41.8380 C   0  0  0  0  0  0  0  0  0  0  0  0
   49.3560   33.5820   41.6800 N   0  0  0  0  0  0  0  0  0  0  0  0
   50.3760   31.0100   39.0420 H   0  0  0  0  0  0  0  0  0  0  0  0
   51.0190   33.0240   42.7350 H   0  0  0  0  0  0  0  0  0  0  0  0
   47.9150   32.3050   38.1690 S   0  0  0  0  0  0  0  0  0  0  0  0
   48.6600   33.3490   36.8870 C   0  0  0  0  0  2  0  0  0  0  0  0
   47.9130   33.1860   35.6680 N   0  0  0  0  0  4  0  0  0  0  0  0
   47.5770   34.1530   35.4030 H   0  0  0  0  0  0  0  0  0  0  0  0
   46.7460   32.3890   35.9340 C   0  0  0  0  0  2  0  0  0  0  0  0
   46.3750   32.5330   36.9480 H   0  0  0  0  0  0  0  0  0  0  0  0
   48.7170   32.6240   34.6000 C   0  0  0  0  0  2  0  0  0  0  0  0
   49.1740   33.3940   33.9530 H   0  0  0  0  0  0  0  0  0  0  0  0
   46.7090   34.7110   41.6240 C   0  0  0  0  0  0  0  0  0  0  0  0
   47.0560   34.0940   42.4740 H   0  0  0  0  0  0  0  0  0  0  0  0
   47.0840   35.7410   41.8040 H   0  0  0  0  0  0  0  0  0  0  0  0
   45.2320   34.8110   41.5490 C   0  0  0  0  0  0  0  0  0  0  0  0
   44.5200   35.5680   42.5370 C   0  0  0  0  0  0  0  0  0  0  0  0
   42.7690   35.3850   42.0150 S   0  0  0  0  0  0  0  0  0  0  0  0
   43.2910   34.3060   40.5350 C   0  0  0  0  0  0  0  0  0  0  0  0
   44.4240   34.2780   40.6600 N   0  0  0  0  0  0  0  0  0  0  0  0
   44.9340   36.1030   43.3700 H   0  0  0  0  0  0  0  0  0  0  0  0
   42.3830   33.7670   39.6220 O   0  0  0  0  0  0  0  0  0  0  0  0
   40.5650   34.1180   37.7270 O   0  0  0  0  0  0  0  0  0  0  0  0
   41.5710   34.8570   38.5980 P   0  0  0  0  0  0  0  0  0  0  0  0
   40.7430   35.9650   39.5770 O   0  0  0  0  0  0  0  0  0  0  0  0
   39.8630   35.6460   39.8500 H   0  0  0  0  0  0  0  0  0  0  0  0
   42.7050   35.6960   37.6510 O   0  0  0  0  0  0  0  0  0  0  0  0
   42.7310   36.6530   37.8180 H   0  0  0  0  0  0  0  0  0  0  0  0
  1  4  1  0  0  0  0
  1 20  1  0  0  0  0
  2  1  1  0  0  0  0
  3  1  1  0  0  0  0
  4  9  1  0  0  0  0
  5  6  1  0  0  0  0
  5  4  2  0  0  0  0
  6  7  2  0  0  0  0
  7  8  1  0  0  0  0
  8 11  1  0  0  0  0
  9  8  2  0  0  0  0
 10  6  1  0  0  0  0
 12  5  1  0  0  0  0
 13 12  1  0  0  0  0
 14 16  1  0  0  0  0
 14 13  1  0  0  0  0
 15 14  1  0  0  0  0
 16 17  1  0  0  0  0
 18 14  1  0  0  0  0
 19 18  1  0  0  0  0
 20 22  1  0  0  0  0
 20 21  1  0  0  0  0
 23 20  1  0  0  0  0
 23 24  2  0  0  0  0
 24 28  1  0  0  0  0
 25 24  1  0  0  0  0
 26 27  2  0  0  0  0
 26 25  1  0  0  0  0
 27 23  1  0  0  0  0
 29 26  1  0  0  0  0
 30 31  2  0  0  0  0
 31 32  1  0  0  0  0
 31 29  1  0  0  0  0
 32 33  1  0  0  0  0
 34 35  1  0  0  0  0
 34 31  1  0  0  0  0
M  END
>  <minimizedAffinity>
-4.70152998

>  <minimizedRMSD>
1.16576123

$$$$
