
 OpenBabel03252507453D

 35 36  0  0  0  0  0  0  0  0999 V2000
   47.4750   34.2780   40.5540 C   0  0  0  0  0  0  0  0  0  0  0  0
   47.7820   35.0900   39.8390 H   0  0  0  0  0  0  0  0  0  0  0  0
   46.7550   33.6460   40.0100 H   0  0  0  0  0  0  0  0  0  0  0  0
   48.7190   33.5410   40.8660 C   0  0  0  0  0  0  0  0  0  0  0  0
   49.1200   32.5700   39.9550 C   0  0  0  0  0  0  0  0  0  0  0  0
   50.2750   31.8330   40.1730 C   0  0  0  0  0  0  0  0  0  0  0  0
   50.9850   32.1060   41.3070 N   0  0  0  0  0  0  0  0  0  0  0  0
   50.5620   33.0630   42.1730 C   0  0  0  0  0  0  0  0  0  0  0  0
   49.4560   33.7550   41.9480 N   0  0  0  0  0  0  0  0  0  0  0  0
   50.6090   31.0720   39.4810 H   0  0  0  0  0  0  0  0  0  0  0  0
   51.1030   33.2970   43.0740 H   0  0  0  0  0  0  0  0  0  0  0  0
   48.1410   32.2540   38.4760 S   0  0  0  0  0  0  0  0  0  0  0  0
   48.7860   33.3750   37.2040 C   0  0  0  0  0  2  0  0  0  0  0  0
   47.9240   33.3100   36.0540 N   0  0  0  0  0  4  0  0  0  0  0  0
   47.7220   34.3130   35.7870 H   0  0  0  0  0  0  0  0  0  0  0  0
   46.6740   32.7110   36.4350 C   0  0  0  0  0  2  0  0  0  0  0  0
   46.4140   32.9300   37.4700 H   0  0  0  0  0  0  0  0  0  0  0  0
   48.5400   32.6100   34.9430 C   0  0  0  0  0  2  0  0  0  0  0  0
   49.0550   33.2870   34.2390 H   0  0  0  0  0  0  0  0  0  0  0  0
   46.7780   34.7990   41.7640 C   0  0  0  0  0  0  0  0  0  0  0  0
   47.1120   34.2290   42.6520 H   0  0  0  0  0  0  0  0  0  0  0  0
   47.1210   35.8450   41.9090 H   0  0  0  0  0  0  0  0  0  0  0  0
   45.3020   34.8560   41.6390 C   0  0  0  0  0  0  0  0  0  0  0  0
   44.5370   35.6150   42.5850 C   0  0  0  0  0  0  0  0  0  0  0  0
   42.8100   35.3730   42.0110 S   0  0  0  0  0  0  0  0  0  0  0  0
   43.4100   34.2760   40.5730 C   0  0  0  0  0  0  0  0  0  0  0  0
   44.5380   34.2810   40.7360 N   0  0  0  0  0  0  0  0  0  0  0  0
   44.9080   36.1790   43.4190 H   0  0  0  0  0  0  0  0  0  0  0  0
   42.5470   33.6920   39.6440 O   0  0  0  0  0  0  0  0  0  0  0  0
   40.6780   33.9540   37.7850 O   0  0  0  0  0  0  0  0  0  0  0  0
   41.6650   34.7410   38.6370 P   0  0  0  0  0  0  0  0  0  0  0  0
   40.8030   35.8080   39.6330 O   0  0  0  0  0  0  0  0  0  0  0  0
   39.9450   35.4470   39.9220 H   0  0  0  0  0  0  0  0  0  0  0  0
   42.7380   35.6340   37.6690 O   0  0  0  0  0  0  0  0  0  0  0  0
   42.7210   36.5910   37.8370 H   0  0  0  0  0  0  0  0  0  0  0  0
  1  4  1  0  0  0  0
  1 20  1  0  0  0  0
  2  1  1  0  0  0  0
  3  1  1  0  0  0  0
  4  9  1  0  0  0  0
  5  6  1  0  0  0  0
  5  4  2  0  0  0  0
  6  7  2  0  0  0  0
  7  8  1  0  0  0  0
  8 11  1  0  0  0  0
  9  8  2  0  0  0  0
 10  6  1  0  0  0  0
 12  5  1  0  0  0  0
 13 12  1  0  0  0  0
 14 16  1  0  0  0  0
 14 13  1  0  0  0  0
 15 14  1  0  0  0  0
 16 17  1  0  0  0  0
 18 14  1  0  0  0  0
 19 18  1  0  0  0  0
 20 22  1  0  0  0  0
 20 21  1  0  0  0  0
 23 20  1  0  0  0  0
 23 24  2  0  0  0  0
 24 28  1  0  0  0  0
 25 24  1  0  0  0  0
 26 27  2  0  0  0  0
 26 25  1  0  0  0  0
 27 23  1  0  0  0  0
 29 26  1  0  0  0  0
 30 31  2  0  0  0  0
 31 32  1  0  0  0  0
 31 29  1  0  0  0  0
 32 33  1  0  0  0  0
 34 35  1  0  0  0  0
 34 31  1  0  0  0  0
M  END
>  <minimizedAffinity>
-4.71983719

>  <minimizedRMSD>
1.11794138

$$$$
