
 OpenBabel03252507453D

 35 36  0  0  0  0  0  0  0  0999 V2000
   47.4310   34.4550   40.7510 C   0  0  0  0  0  0  0  0  0  0  0  0
   47.7210   35.2770   40.0420 H   0  0  0  0  0  0  0  0  0  0  0  0
   46.7780   33.7740   40.1830 H   0  0  0  0  0  0  0  0  0  0  0  0
   48.7030   33.8000   41.1290 C   0  0  0  0  0  0  0  0  0  0  0  0
   49.0590   32.6610   40.4160 C   0  0  0  0  0  0  0  0  0  0  0  0
   50.2360   31.9860   40.7080 C   0  0  0  0  0  0  0  0  0  0  0  0
   51.0120   32.4900   41.7120 N   0  0  0  0  0  0  0  0  0  0  0  0
   50.6300   33.6050   42.3870 C   0  0  0  0  0  0  0  0  0  0  0  0
   49.5030   34.2350   42.0940 N   0  0  0  0  0  0  0  0  0  0  0  0
   50.5370   31.0980   40.1680 H   0  0  0  0  0  0  0  0  0  0  0  0
   51.2230   34.0220   43.1830 H   0  0  0  0  0  0  0  0  0  0  0  0
   47.9950   32.0440   39.1000 S   0  0  0  0  0  0  0  0  0  0  0  0
   48.9860   32.1140   37.5840 C   0  0  0  0  0  2  0  0  0  0  0  0
   48.4470   33.1360   36.7270 N   0  0  0  0  0  4  0  0  0  0  0  0
   49.0180   34.0060   36.9190 H   0  0  0  0  0  0  0  0  0  0  0  0
   47.0950   33.4190   37.1250 C   0  0  0  0  0  2  0  0  0  0  0  0
   46.9440   33.2760   38.1940 H   0  0  0  0  0  0  0  0  0  0  0  0
   48.5330   32.7810   35.3230 C   0  0  0  0  0  2  0  0  0  0  0  0
   49.4440   33.1670   34.8360 H   0  0  0  0  0  0  0  0  0  0  0  0
   46.6480   34.9430   41.9220 C   0  0  0  0  0  0  0  0  0  0  0  0
   46.9700   34.3990   42.8290 H   0  0  0  0  0  0  0  0  0  0  0  0
   46.9230   36.0080   42.0740 H   0  0  0  0  0  0  0  0  0  0  0  0
   45.1790   34.9150   41.7250 C   0  0  0  0  0  0  0  0  0  0  0  0
   44.3180   35.5100   42.7060 C   0  0  0  0  0  0  0  0  0  0  0  0
   42.6420   35.2190   42.0170 S   0  0  0  0  0  0  0  0  0  0  0  0
   43.3850   34.3340   40.5020 C   0  0  0  0  0  0  0  0  0  0  0  0
   44.5010   34.3960   40.7250 N   0  0  0  0  0  0  0  0  0  0  0  0
   44.6100   35.9990   43.6150 H   0  0  0  0  0  0  0  0  0  0  0  0
   42.6100   33.8030   39.4700 O   0  0  0  0  0  0  0  0  0  0  0  0
   40.6500   34.1620   37.7240 O   0  0  0  0  0  0  0  0  0  0  0  0
   41.7090   34.8990   38.5310 P   0  0  0  0  0  0  0  0  0  0  0  0
   40.9420   35.9770   39.5910 O   0  0  0  0  0  0  0  0  0  0  0  0
   40.0900   35.6400   39.9220 H   0  0  0  0  0  0  0  0  0  0  0  0
   42.7570   35.7730   37.5180 O   0  0  0  0  0  0  0  0  0  0  0  0
   42.7830   36.7260   37.7020 H   0  0  0  0  0  0  0  0  0  0  0  0
  1  4  1  0  0  0  0
  1 20  1  0  0  0  0
  2  1  1  0  0  0  0
  3  1  1  0  0  0  0
  4  9  1  0  0  0  0
  5  6  1  0  0  0  0
  5  4  2  0  0  0  0
  6  7  2  0  0  0  0
  7  8  1  0  0  0  0
  8 11  1  0  0  0  0
  9  8  2  0  0  0  0
 10  6  1  0  0  0  0
 12  5  1  0  0  0  0
 13 12  1  0  0  0  0
 14 15  1  0  0  0  0
 14 16  1  0  0  0  0
 14 13  1  0  0  0  0
 16 17  1  0  0  0  0
 18 14  1  0  0  0  0
 19 18  1  0  0  0  0
 20 22  1  0  0  0  0
 20 21  1  0  0  0  0
 23 20  1  0  0  0  0
 23 24  2  0  0  0  0
 24 28  1  0  0  0  0
 25 24  1  0  0  0  0
 26 27  2  0  0  0  0
 26 25  1  0  0  0  0
 27 23  1  0  0  0  0
 29 26  1  0  0  0  0
 30 31  2  0  0  0  0
 31 29  1  0  0  0  0
 31 32  1  0  0  0  0
 32 33  1  0  0  0  0
 34 35  1  0  0  0  0
 34 31  1  0  0  0  0
M  END
>  <minimizedAffinity>
-4.6437335

>  <minimizedRMSD>
0.657084703

$$$$
