
 OpenBabel03252507453D

 35 36  0  0  0  0  0  0  0  0999 V2000
   47.6060   34.5740   40.8200 C   0  0  0  0  0  0  0  0  0  0  0  0
   47.9540   35.4620   40.2260 H   0  0  0  0  0  0  0  0  0  0  0  0
   46.9320   34.0060   40.1590 H   0  0  0  0  0  0  0  0  0  0  0  0
   48.8330   33.8090   41.1330 C   0  0  0  0  0  0  0  0  0  0  0  0
   49.0980   32.6960   40.3440 C   0  0  0  0  0  0  0  0  0  0  0  0
   50.2280   31.9230   40.5710 C   0  0  0  0  0  0  0  0  0  0  0  0
   51.0520   32.3070   41.5910 N   0  0  0  0  0  0  0  0  0  0  0  0
   50.7590   33.4010   42.3410 C   0  0  0  0  0  0  0  0  0  0  0  0
   49.6750   34.1250   42.1090 N   0  0  0  0  0  0  0  0  0  0  0  0
   50.4580   31.0530   39.9720 H   0  0  0  0  0  0  0  0  0  0  0  0
   51.3910   33.7240   43.1510 H   0  0  0  0  0  0  0  0  0  0  0  0
   47.9750   32.2390   39.0120 S   0  0  0  0  0  0  0  0  0  0  0  0
   48.6000   33.0720   37.5270 C   0  0  0  0  0  2  0  0  0  0  0  0
   48.7620   32.0940   36.4830 N   0  0  0  0  0  4  0  0  0  0  0  0
   48.0140   31.3650   36.6510 H   0  0  0  0  0  0  0  0  0  0  0  0
   50.0320   31.4430   36.6410 C   0  0  0  0  0  2  0  0  0  0  0  0
   50.3350   31.3810   37.6860 H   0  0  0  0  0  0  0  0  0  0  0  0
   48.6110   32.6710   35.1600 C   0  0  0  0  0  2  0  0  0  0  0  0
   47.5820   32.5900   34.7690 H   0  0  0  0  0  0  0  0  0  0  0  0
   46.8210   34.9520   42.0300 C   0  0  0  0  0  0  0  0  0  0  0  0
   47.1490   34.3330   42.8860 H   0  0  0  0  0  0  0  0  0  0  0  0
   47.0890   36.0020   42.2740 H   0  0  0  0  0  0  0  0  0  0  0  0
   45.3520   34.9300   41.8330 C   0  0  0  0  0  0  0  0  0  0  0  0
   44.5000   35.6160   42.7620 C   0  0  0  0  0  0  0  0  0  0  0  0
   42.8200   35.2950   42.0960 S   0  0  0  0  0  0  0  0  0  0  0  0
   43.5500   34.2790   40.6590 C   0  0  0  0  0  0  0  0  0  0  0  0
   44.6670   34.3430   40.8780 N   0  0  0  0  0  0  0  0  0  0  0  0
   44.7990   36.1730   43.6290 H   0  0  0  0  0  0  0  0  0  0  0  0
   42.7680   33.6780   39.6720 O   0  0  0  0  0  0  0  0  0  0  0  0
   40.8660   33.9070   37.8420 O   0  0  0  0  0  0  0  0  0  0  0  0
   41.8750   34.7080   38.6530 P   0  0  0  0  0  0  0  0  0  0  0  0
   41.0420   35.8090   39.6360 O   0  0  0  0  0  0  0  0  0  0  0  0
   40.1870   35.4640   39.9510 H   0  0  0  0  0  0  0  0  0  0  0  0
   42.9370   35.5640   37.6410 O   0  0  0  0  0  0  0  0  0  0  0  0
   42.9320   36.5250   37.7830 H   0  0  0  0  0  0  0  0  0  0  0  0
  1  4  1  0  0  0  0
  1 20  1  0  0  0  0
  2  1  1  0  0  0  0
  3  1  1  0  0  0  0
  4  9  1  0  0  0  0
  5  6  1  0  0  0  0
  5  4  2  0  0  0  0
  6  7  2  0  0  0  0
  7  8  1  0  0  0  0
  8 11  1  0  0  0  0
  9  8  2  0  0  0  0
 10  6  1  0  0  0  0
 12  5  1  0  0  0  0
 13 12  1  0  0  0  0
 14 16  1  0  0  0  0
 14 15  1  0  0  0  0
 14 13  1  0  0  0  0
 16 17  1  0  0  0  0
 18 14  1  0  0  0  0
 19 18  1  0  0  0  0
 20 22  1  0  0  0  0
 20 21  1  0  0  0  0
 23 20  1  0  0  0  0
 23 24  2  0  0  0  0
 24 28  1  0  0  0  0
 25 24  1  0  0  0  0
 26 27  2  0  0  0  0
 26 25  1  0  0  0  0
 27 23  1  0  0  0  0
 29 26  1  0  0  0  0
 30 31  2  0  0  0  0
 31 32  1  0  0  0  0
 31 29  1  0  0  0  0
 32 33  1  0  0  0  0
 34 35  1  0  0  0  0
 34 31  1  0  0  0  0
M  END
>  <minimizedAffinity>
-4.51353073

>  <minimizedRMSD>
1.03549492

$$$$
