
 OpenBabel03252508593D

 43 44  0  0  1  0  0  0  0  0999 V2000
   46.7200   34.3650   43.6540 N   0  0  0  0  0  0  0  0  0  0  0  0
   46.3030   35.1610   42.5540 C   0  0  0  0  0  0  0  0  0  0  0  0
   44.8100   35.3140   42.4000 C   0  0  0  0  0  0  0  0  0  0  0  0
   44.0390   35.3020   43.6950 C   0  0  0  0  0  0  0  0  0  0  0  0
   44.9640   35.2620   44.8870 C   0  0  0  0  0  0  0  0  0  0  0  0
   45.8230   33.9680   44.6330 C   0  0  2  0  0  0  0  0  0  0  0  0
   46.6990   34.8790   41.5750 H   0  0  0  0  0  0  0  0  0  0  0  0
   46.7100   36.1940   42.7500 H   0  0  0  0  0  0  0  0  0  0  0  0
   44.5930   36.3000   41.9120 H   0  0  0  0  0  0  0  0  0  0  0  0
   44.4570   34.5590   41.6690 H   0  0  0  0  0  0  0  0  0  0  0  0
   43.3910   34.4130   43.7500 H   0  0  0  0  0  0  0  0  0  0  0  0
   43.3750   36.1840   43.8260 H   0  0  0  0  0  0  0  0  0  0  0  0
   45.6470   36.1110   44.9490 H   0  0  0  0  0  0  0  0  0  0  0  0
   44.4040   35.0140   45.7970 H   0  0  0  0  0  0  0  0  0  0  0  0
   45.1170   33.1480   44.3820 H   0  0  0  0  0  0  0  0  0  0  0  0
   47.8540   33.5340   43.3780 C   0  0  0  0  0  0  0  0  0  0  0  0
   48.3220   33.1500   44.3170 H   0  0  0  0  0  0  0  0  0  0  0  0
   48.6070   34.1060   42.8310 H   0  0  0  0  0  0  0  0  0  0  0  0
   47.3940   32.3380   42.5960 C   0  0  0  0  0  0  0  0  0  0  0  0
   46.3250   32.4650   42.2770 H   0  0  0  0  0  0  0  0  0  0  0  0
   47.4360   31.3830   43.1300 H   0  0  0  0  0  0  0  0  0  0  0  0
   50.2150   31.6670   40.2050 C   0  0  0  0  0  0  0  0  0  0  0  0
   49.4620   31.7550   41.3920 C   0  0  0  0  0  0  0  0  0  0  0  0
   48.1820   32.2500   41.3370 C   0  0  0  0  0  0  0  0  0  0  0  0
   47.7110   32.6290   40.1410 N   0  0  0  0  0  0  0  0  0  0  0  0
   48.4420   32.5400   39.0140 C   0  0  0  0  0  0  0  0  0  0  0  0
   49.6980   32.0590   39.0350 N   0  0  0  0  0  0  0  0  0  0  0  0
   51.2030   31.2670   40.3500 H   0  0  0  0  0  0  0  0  0  0  0  0
   49.8530   31.4490   42.3310 H   0  0  0  0  0  0  0  0  0  0  0  0
   47.9690   32.8720   38.1000 H   0  0  0  0  0  0  0  0  0  0  0  0
   46.4430   33.8050   45.8620 O   0  0  0  0  0  0  0  0  0  0  0  0
   45.7530   31.2700   45.4580 O   0  0  0  0  0  0  0  0  0  0  0  0
   46.1900   32.2790   46.5230 P   0  0  2  0  0  0  0  0  0  0  0  0
   44.8260   32.4290   47.5510 O   0  0  0  0  0  0  0  0  0  0  0  0
   45.1080   32.7190   48.4550 H   0  0  0  0  0  0  0  0  0  0  0  0
   47.4770   31.7630   47.4330 O   0  0  0  0  0  0  0  0  0  0  0  0
   47.6240   30.4090   47.5400 C   0  0  0  0  0  2  0  0  0  0  0  0
   48.8900   30.1490   48.2040 N   0  0  0  0  0  4  0  0  0  0  0  0
   49.6310   30.6600   47.6770 H   0  0  0  0  0  0  0  0  0  0  0  0
   48.8580   30.6760   49.5570 C   0  0  0  0  0  2  0  0  0  0  0  0
   47.8530   30.5460   50.0100 H   0  0  0  0  0  0  0  0  0  0  0  0
   49.2030   28.7380   48.2690 C   0  0  0  0  0  2  0  0  0  0  0  0
   48.3440   28.1100   48.4980 H   0  0  0  0  0  0  0  0  0  0  0  0
  1  6  1  0  0  0  0
  2  8  1  0  0  0  0
  2  1  1  0  0  0  0
  3  2  1  0  0  0  0
  3  4  1  0  0  0  0
  4 11  1  0  0  0  0
  4 12  1  0  0  0  0
  4  5  1  0  0  0  0
  5 13  1  0  0  0  0
  5 14  1  0  0  0  0
  6 15  1  6  0  0  0
  6  5  1  0  0  0  0
  6 31  1  0  0  0  0
  7  2  1  0  0  0  0
  9  3  1  0  0  0  0
 10  3  1  0  0  0  0
 16  1  1  0  0  0  0
 16 17  1  0  0  0  0
 18 16  1  0  0  0  0
 19 21  1  0  0  0  0
 19 16  1  0  0  0  0
 20 19  1  0  0  0  0
 22 28  1  0  0  0  0
 22 23  1  0  0  0  0
 23 29  1  0  0  0  0
 24 23  2  0  0  0  0
 24 19  1  0  0  0  0
 25 24  1  0  0  0  0
 26 27  1  0  0  0  0
 26 25  2  0  0  0  0
 27 22  2  0  0  0  0
 30 26  1  0  0  0  0
 31 33  1  0  0  0  0
 33 32  2  6  0  0  0
 33 36  1  0  0  0  0
 33 34  1  0  0  0  0
 34 35  1  0  0  0  0
 36 37  1  0  0  0  0
 37 38  1  0  0  0  0
 38 42  1  0  0  0  0
 38 40  1  0  0  0  0
 39 38  1  0  0  0  0
 40 41  1  0  0  0  0
 42 43  1  0  0  0  0
M  END
>  <minimizedAffinity>
-4.26219368

>  <minimizedRMSD>
2.52957344

$$$$
