
 OpenBabel03252508583D

 43 44  0  0  1  0  0  0  0  0999 V2000
   46.7370   34.3760   43.3900 N   0  0  0  0  0  0  0  0  0  0  0  0
   46.4600   34.8580   42.0830 C   0  0  0  0  0  0  0  0  0  0  0  0
   45.0080   34.8200   41.6770 C   0  0  0  0  0  0  0  0  0  0  0  0
   44.0330   35.0210   42.8080 C   0  0  0  0  0  0  0  0  0  0  0  0
   44.7450   35.3450   44.0990 C   0  0  0  0  0  0  0  0  0  0  0  0
   45.7150   34.1210   44.2910 C   0  0  2  0  0  0  0  0  0  0  0  0
   47.0330   34.4050   41.2700 H   0  0  0  0  0  0  0  0  0  0  0  0
   46.7620   35.9440   42.0860 H   0  0  0  0  0  0  0  0  0  0  0  0
   44.8130   35.6440   40.9410 H   0  0  0  0  0  0  0  0  0  0  0  0
   44.8330   33.8880   41.1030 H   0  0  0  0  0  0  0  0  0  0  0  0
   43.4430   34.1070   42.9760 H   0  0  0  0  0  0  0  0  0  0  0  0
   43.3020   35.8390   42.6260 H   0  0  0  0  0  0  0  0  0  0  0  0
   45.3520   36.2500   44.0580 H   0  0  0  0  0  0  0  0  0  0  0  0
   44.0570   35.2520   44.9480 H   0  0  0  0  0  0  0  0  0  0  0  0
   45.1150   33.1970   44.1410 H   0  0  0  0  0  0  0  0  0  0  0  0
   47.9520   33.6230   43.4920 C   0  0  0  0  0  0  0  0  0  0  0  0
   48.2070   33.3940   44.5560 H   0  0  0  0  0  0  0  0  0  0  0  0
   48.7770   34.1930   43.0580 H   0  0  0  0  0  0  0  0  0  0  0  0
   47.7630   32.3080   42.7940 C   0  0  0  0  0  0  0  0  0  0  0  0
   46.8380   32.3310   42.1560 H   0  0  0  0  0  0  0  0  0  0  0  0
   47.6520   31.4400   43.4500 H   0  0  0  0  0  0  0  0  0  0  0  0
   51.2490   32.1500   41.4010 C   0  0  0  0  0  0  0  0  0  0  0  0
   50.1720   32.3510   42.2840 C   0  0  0  0  0  0  0  0  0  0  0  0
   48.8940   32.0910   41.8530 C   0  0  0  0  0  0  0  0  0  0  0  0
   48.7380   31.6530   40.5960 N   0  0  0  0  0  0  0  0  0  0  0  0
   49.7770   31.4640   39.7610 C   0  0  0  0  0  0  0  0  0  0  0  0
   51.0400   31.7090   40.1540 N   0  0  0  0  0  0  0  0  0  0  0  0
   52.2080   32.3800   41.8300 H   0  0  0  0  0  0  0  0  0  0  0  0
   50.3150   32.7000   43.2770 H   0  0  0  0  0  0  0  0  0  0  0  0
   49.5440   31.1070   38.7680 H   0  0  0  0  0  0  0  0  0  0  0  0
   46.1290   34.3010   45.6020 O   0  0  0  0  0  0  0  0  0  0  0  0
   45.7470   31.6710   45.6340 O   0  0  0  0  0  0  0  0  0  0  0  0
   46.0590   32.8870   46.5100 P   0  0  2  0  0  0  0  0  0  0  0  0
   44.6850   33.0440   47.5230 O   0  0  0  0  0  0  0  0  0  0  0  0
   44.9300   33.5100   48.3620 H   0  0  0  0  0  0  0  0  0  0  0  0
   47.3960   32.6840   47.4680 O   0  0  0  0  0  0  0  0  0  0  0  0
   47.2740   31.7690   48.4750 C   0  0  0  0  0  2  0  0  0  0  0  0
   48.3600   30.8130   48.3440 N   0  0  0  0  0  4  0  0  0  0  0  0
   49.0820   31.2420   47.7240 H   0  0  0  0  0  0  0  0  0  0  0  0
   48.9690   30.5720   49.6400 C   0  0  0  0  0  2  0  0  0  0  0  0
   48.2030   30.5720   50.4440 H   0  0  0  0  0  0  0  0  0  0  0  0
   47.9220   29.5450   47.8000 C   0  0  0  0  0  2  0  0  0  0  0  0
   46.9650   29.2100   48.1930 H   0  0  0  0  0  0  0  0  0  0  0  0
  1 16  1  0  0  0  0
  1  6  1  0  0  0  0
  2  8  1  0  0  0  0
  2  1  1  0  0  0  0
  3  2  1  0  0  0  0
  3  4  1  0  0  0  0
  4 11  1  0  0  0  0
  4  5  1  0  0  0  0
  5  6  1  0  0  0  0
  5 14  1  0  0  0  0
  6 15  1  6  0  0  0
  6 31  1  0  0  0  0
  7  2  1  0  0  0  0
  9  3  1  0  0  0  0
 10  3  1  0  0  0  0
 12  4  1  0  0  0  0
 13  5  1  0  0  0  0
 16 17  1  0  0  0  0
 18 16  1  0  0  0  0
 19 21  1  0  0  0  0
 19 16  1  0  0  0  0
 20 19  1  0  0  0  0
 22 28  1  0  0  0  0
 22 23  1  0  0  0  0
 23 29  1  0  0  0  0
 24 23  2  0  0  0  0
 24 19  1  0  0  0  0
 25 24  1  0  0  0  0
 26 27  1  0  0  0  0
 26 25  2  0  0  0  0
 27 22  2  0  0  0  0
 30 26  1  0  0  0  0
 31 33  1  0  0  0  0
 33 32  2  6  0  0  0
 33 36  1  0  0  0  0
 33 34  1  0  0  0  0
 34 35  1  0  0  0  0
 36 37  1  0  0  0  0
 38 37  1  0  0  0  0
 38 40  1  0  0  0  0
 39 38  1  0  0  0  0
 40 41  1  0  0  0  0
 42 43  1  0  0  0  0
 42 38  1  0  0  0  0
M  END
>  <minimizedAffinity>
-4.55212736

>  <minimizedRMSD>
3.0479939

$$$$
