
 OpenBabel03252509023D

 43 44  0  0  1  0  0  0  0  0999 V2000
   36.2970   29.2850   39.7280 N   0  0  0  0  0  0  0  0  0  0  0  0
   35.3610   28.4990   39.0050 C   0  0  0  0  0  0  0  0  0  0  0  0
   35.0150   29.0120   37.6300 C   0  0  0  0  0  0  0  0  0  0  0  0
   36.1350   29.7360   36.9290 C   0  0  0  0  0  0  0  0  0  0  0  0
   37.4150   29.6760   37.7270 C   0  0  0  0  0  0  0  0  0  0  0  0
   37.0060   30.3040   39.1100 C   0  0  2  0  0  0  0  0  0  0  0  0
   34.4170   28.2830   39.5140 H   0  0  0  0  0  0  0  0  0  0  0  0
   35.8510   27.4960   38.8570 H   0  0  0  0  0  0  0  0  0  0  0  0
   34.7400   28.1450   36.9750 H   0  0  0  0  0  0  0  0  0  0  0  0
   34.0830   29.6090   37.7060 H   0  0  0  0  0  0  0  0  0  0  0  0
   35.8820   30.7990   36.7900 H   0  0  0  0  0  0  0  0  0  0  0  0
   36.3620   29.3330   35.9170 H   0  0  0  0  0  0  0  0  0  0  0  0
   37.7770   28.6640   37.9110 H   0  0  0  0  0  0  0  0  0  0  0  0
   38.1440   30.3950   37.3340 H   0  0  0  0  0  0  0  0  0  0  0  0
   36.4650   31.2510   38.8960 H   0  0  0  0  0  0  0  0  0  0  0  0
   36.0170   29.3900   41.1290 C   0  0  0  0  0  0  0  0  0  0  0  0
   34.9400   29.6230   41.3180 H   0  0  0  0  0  0  0  0  0  0  0  0
   36.6210   30.1890   41.5670 H   0  0  0  0  0  0  0  0  0  0  0  0
   36.2990   28.0660   41.7770 C   0  0  0  0  0  0  0  0  0  0  0  0
   36.0170   27.2240   41.0890 H   0  0  0  0  0  0  0  0  0  0  0  0
   35.7650   27.8780   42.7140 H   0  0  0  0  0  0  0  0  0  0  0  0
   39.7830   26.6580   41.7640 C   0  0  0  0  0  0  0  0  0  0  0  0
   38.3960   26.7930   41.5630 C   0  0  0  0  0  0  0  0  0  0  0  0
   37.7650   27.9340   41.9930 C   0  0  0  0  0  0  0  0  0  0  0  0
   38.5130   28.8720   42.5900 N   0  0  0  0  0  0  0  0  0  0  0  0
   39.8380   28.7310   42.7750 C   0  0  0  0  0  0  0  0  0  0  0  0
   40.4850   27.6260   42.3650 N   0  0  0  0  0  0  0  0  0  0  0  0
   40.1840   25.7320   41.3920 H   0  0  0  0  0  0  0  0  0  0  0  0
   37.8190   26.0380   41.0880 H   0  0  0  0  0  0  0  0  0  0  0  0
   40.3510   29.5470   43.2670 H   0  0  0  0  0  0  0  0  0  0  0  0
   38.2450   30.4980   39.7010 O   0  0  0  0  0  0  0  0  0  0  0  0
   39.1930   32.1920   41.5170 O   0  0  0  0  0  0  0  0  0  0  0  0
   38.5100   32.0980   40.1500 P   0  0  2  0  0  0  0  0  0  0  0  0
   36.9590   32.7820   40.4020 O   0  0  0  0  0  0  0  0  0  0  0  0
   36.5980   33.1350   39.5500 H   0  0  0  0  0  0  0  0  0  0  0  0
   39.2810   32.9670   38.9660 O   0  0  0  0  0  0  0  0  0  0  0  0
   40.1160   32.2540   38.1540 C   0  0  0  0  0  2  0  0  0  0  0  0
   41.0810   33.1780   37.5840 N   0  0  0  0  0  4  0  0  0  0  0  0
   40.5970   33.7090   36.8270 H   0  0  0  0  0  0  0  0  0  0  0  0
   41.5120   34.1300   38.5930 C   0  0  0  0  0  2  0  0  0  0  0  0
   41.5950   33.6440   39.5870 H   0  0  0  0  0  0  0  0  0  0  0  0
   42.2500   32.5070   37.0570 C   0  0  0  0  0  2  0  0  0  0  0  0
   42.6030   31.6910   37.6830 H   0  0  0  0  0  0  0  0  0  0  0  0
  1 16  1  0  0  0  0
  2  7  1  0  0  0  0
  2  1  1  0  0  0  0
  3 10  1  0  0  0  0
  3  2  1  0  0  0  0
  4  3  1  0  0  0  0
  4  5  1  0  0  0  0
  5 13  1  0  0  0  0
  5  6  1  0  0  0  0
  6 15  1  6  0  0  0
  6 31  1  0  0  0  0
  6  1  1  0  0  0  0
  8  2  1  0  0  0  0
  9  3  1  0  0  0  0
 11  4  1  0  0  0  0
 12  4  1  0  0  0  0
 14  5  1  0  0  0  0
 16 17  1  0  0  0  0
 16 18  1  0  0  0  0
 16 19  1  0  0  0  0
 19 24  1  0  0  0  0
 19 21  1  0  0  0  0
 20 19  1  0  0  0  0
 22 27  1  0  0  0  0
 23 22  2  0  0  0  0
 23 24  1  0  0  0  0
 24 25  2  0  0  0  0
 25 26  1  0  0  0  0
 26 30  1  0  0  0  0
 27 26  2  0  0  0  0
 28 22  1  0  0  0  0
 29 23  1  0  0  0  0
 31 33  1  0  0  0  0
 33 34  1  0  0  0  0
 33 32  2  1  0  0  0
 35 34  1  0  0  0  0
 36 33  1  0  0  0  0
 37 36  1  0  0  0  0
 38 37  1  0  0  0  0
 38 40  1  0  0  0  0
 39 38  1  0  0  0  0
 40 41  1  0  0  0  0
 42 38  1  0  0  0  0
 42 43  1  0  0  0  0
M  END
>  <minimizedAffinity>
-4.64338207

$$$$

 OpenBabel03252509023D

 43 44  0  0  1  0  0  0  0  0999 V2000
   37.5970   29.4160   41.1990 N   0  0  0  0  0  0  0  0  0  0  0  0
   36.3060   28.8580   41.0080 C   0  0  0  0  0  0  0  0  0  0  0  0
   35.4320   29.5820   40.0150 C   0  0  0  0  0  0  0  0  0  0  0  0
   36.1770   30.2360   38.8810 C   0  0  0  0  0  0  0  0  0  0  0  0
   37.6500   29.9090   38.9270 C   0  0  0  0  0  0  0  0  0  0  0  0
   38.0830   30.4040   40.3560 C   0  0  2  0  0  0  0  0  0  0  0  0
   35.7070   28.7050   41.9100 H   0  0  0  0  0  0  0  0  0  0  0  0
   36.4760   27.8260   40.5890 H   0  0  0  0  0  0  0  0  0  0  0  0
   34.7250   28.8480   39.5470 H   0  0  0  0  0  0  0  0  0  0  0  0
   34.7770   30.2810   40.5740 H   0  0  0  0  0  0  0  0  0  0  0  0
   36.0800   31.3320   38.9360 H   0  0  0  0  0  0  0  0  0  0  0  0
   35.8080   29.9380   37.8740 H   0  0  0  0  0  0  0  0  0  0  0  0
   37.8700   28.8430   38.8600 H   0  0  0  0  0  0  0  0  0  0  0  0
   38.2090   30.5710   38.2540 H   0  0  0  0  0  0  0  0  0  0  0  0
   37.6830   31.4330   40.4840 H   0  0  0  0  0  0  0  0  0  0  0  0
   38.0570   29.3790   42.5550 C   0  0  0  0  0  0  0  0  0  0  0  0
   37.6860   30.2550   43.1410 H   0  0  0  0  0  0  0  0  0  0  0  0
   39.1500   29.3940   42.5750 H   0  0  0  0  0  0  0  0  0  0  0  0
   37.5110   28.1470   43.2150 C   0  0  0  0  0  0  0  0  0  0  0  0
   36.6390   27.7440   42.6330 H   0  0  0  0  0  0  0  0  0  0  0  0
   37.1490   28.2830   44.2390 H   0  0  0  0  0  0  0  0  0  0  0  0
   39.1960   24.8490   42.5810 C   0  0  0  0  0  0  0  0  0  0  0  0
   38.2240   25.8670   42.6180 C   0  0  0  0  0  0  0  0  0  0  0  0
   38.5450   27.0780   43.1800 C   0  0  0  0  0  0  0  0  0  0  0  0
   39.7830   27.2290   43.6710 N   0  0  0  0  0  0  0  0  0  0  0  0
   40.7030   26.2480   43.6290 C   0  0  0  0  0  0  0  0  0  0  0  0
   40.4190   25.0500   43.0850 N   0  0  0  0  0  0  0  0  0  0  0  0
   38.8500   23.9390   42.1210 H   0  0  0  0  0  0  0  0  0  0  0  0
   37.2480   25.7280   42.2250 H   0  0  0  0  0  0  0  0  0  0  0  0
   41.6730   26.4710   44.0510 H   0  0  0  0  0  0  0  0  0  0  0  0
   39.4650   30.3590   40.2550 O   0  0  0  0  0  0  0  0  0  0  0  0
   41.6560   31.8030   40.6780 O   0  0  0  0  0  0  0  0  0  0  0  0
   40.1740   31.8840   40.3030 P   0  0  2  0  0  0  0  0  0  0  0  0
   39.4460   32.7030   41.6210 O   0  0  0  0  0  0  0  0  0  0  0  0
   38.6150   33.1540   41.3270 H   0  0  0  0  0  0  0  0  0  0  0  0
   39.8890   32.7560   38.9220 O   0  0  0  0  0  0  0  0  0  0  0  0
   40.3820   32.2190   37.7670 C   0  0  0  0  0  2  0  0  0  0  0  0
   41.8270   32.3700   37.7850 N   0  0  0  0  0  4  0  0  0  0  0  0
   42.1540   32.1360   38.7480 H   0  0  0  0  0  0  0  0  0  0  0  0
   42.4370   31.4270   36.8640 C   0  0  0  0  0  2  0  0  0  0  0  0
   41.8130   31.3010   35.9540 H   0  0  0  0  0  0  0  0  0  0  0  0
   42.2500   33.7050   37.4220 C   0  0  0  0  0  2  0  0  0  0  0  0
   41.6820   34.1340   36.5990 H   0  0  0  0  0  0  0  0  0  0  0  0
  1 16  1  0  0  0  0
  2  1  1  0  0  0  0
  2  7  1  0  0  0  0
  3 10  1  0  0  0  0
  3  2  1  0  0  0  0
  4  5  1  0  0  0  0
  4 11  1  0  0  0  0
  4  3  1  0  0  0  0
  5  6  1  0  0  0  0
  6 15  1  1  0  0  0
  6  1  1  0  0  0  0
  8  2  1  0  0  0  0
  9  3  1  0  0  0  0
 12  4  1  0  0  0  0
 13  5  1  0  0  0  0
 14  5  1  0  0  0  0
 16 18  1  0  0  0  0
 16 17  1  0  0  0  0
 16 19  1  0  0  0  0
 19 21  1  0  0  0  0
 20 19  1  0  0  0  0
 22 23  2  0  0  0  0
 22 27  1  0  0  0  0
 23 24  1  0  0  0  0
 24 19  1  0  0  0  0
 24 25  2  0  0  0  0
 26 25  1  0  0  0  0
 26 30  1  0  0  0  0
 27 26  2  0  0  0  0
 28 22  1  0  0  0  0
 29 23  1  0  0  0  0
 31 33  1  0  0  0  0
 31  6  1  0  0  0  0
 33 32  2  1  0  0  0
 33 34  1  0  0  0  0
 35 34  1  0  0  0  0
 36 33  1  0  0  0  0
 37 38  1  0  0  0  0
 37 36  1  0  0  0  0
 38 39  1  0  0  0  0
 40 38  1  0  0  0  0
 41 40  1  0  0  0  0
 42 38  1  0  0  0  0
 43 42  1  0  0  0  0
M  END
>  <minimizedAffinity>
-4.62751722

$$$$

 OpenBabel03252509023D

 43 44  0  0  1  0  0  0  0  0999 V2000
   36.9020   27.9860   37.5660 N   0  0  0  0  0  0  0  0  0  0  0  0
   35.8530   27.2040   37.0140 C   0  0  0  0  0  0  0  0  0  0  0  0
   34.7450   27.9870   36.3560 C   0  0  0  0  0  0  0  0  0  0  0  0
   35.1820   29.2760   35.7110 C   0  0  0  0  0  0  0  0  0  0  0  0
   36.6820   29.4380   35.7630 C   0  0  0  0  0  0  0  0  0  0  0  0
   37.0010   29.3430   37.3010 C   0  0  2  0  0  0  0  0  0  0  0  0
   35.3810   26.4840   37.6880 H   0  0  0  0  0  0  0  0  0  0  0  0
   36.3280   26.5810   36.2040 H   0  0  0  0  0  0  0  0  0  0  0  0
   34.2920   27.3640   35.5410 H   0  0  0  0  0  0  0  0  0  0  0  0
   33.9270   28.1170   37.0930 H   0  0  0  0  0  0  0  0  0  0  0  0
   34.7390   30.1390   36.2330 H   0  0  0  0  0  0  0  0  0  0  0  0
   34.8810   29.3660   34.6440 H   0  0  0  0  0  0  0  0  0  0  0  0
   37.2320   28.6440   35.2570 H   0  0  0  0  0  0  0  0  0  0  0  0
   36.9640   30.4680   35.5140 H   0  0  0  0  0  0  0  0  0  0  0  0
   36.2960   30.0230   37.8270 H   0  0  0  0  0  0  0  0  0  0  0  0
   37.4150   27.4860   38.8070 C   0  0  0  0  0  0  0  0  0  0  0  0
   38.3290   28.0420   39.1290 H   0  0  0  0  0  0  0  0  0  0  0  0
   37.6780   26.4310   38.6990 H   0  0  0  0  0  0  0  0  0  0  0  0
   36.3790   27.6910   39.8730 C   0  0  0  0  0  0  0  0  0  0  0  0
   35.9520   26.7050   40.2000 H   0  0  0  0  0  0  0  0  0  0  0  0
   35.5230   28.3070   39.5830 H   0  0  0  0  0  0  0  0  0  0  0  0
   37.3330   28.2770   43.4600 C   0  0  0  0  0  0  0  0  0  0  0  0
   36.7220   27.7400   42.3110 C   0  0  0  0  0  0  0  0  0  0  0  0
   37.0320   28.2650   41.0800 C   0  0  0  0  0  0  0  0  0  0  0  0
   37.9130   29.2740   41.0370 N   0  0  0  0  0  0  0  0  0  0  0  0
   38.4910   29.7780   42.1430 C   0  0  0  0  0  0  0  0  0  0  0  0
   38.2080   29.2850   43.3630 N   0  0  0  0  0  0  0  0  0  0  0  0
   37.0270   27.8000   44.3750 H   0  0  0  0  0  0  0  0  0  0  0  0
   36.0250   26.9410   42.3660 H   0  0  0  0  0  0  0  0  0  0  0  0
   39.1890   30.5910   42.0000 H   0  0  0  0  0  0  0  0  0  0  0  0
   38.3170   29.7780   37.3360 O   0  0  0  0  0  0  0  0  0  0  0  0
   37.1150   31.9510   38.2860 O   0  0  0  0  0  0  0  0  0  0  0  0
   38.4620   31.3770   37.8390 P   0  0  2  0  0  0  0  0  0  0  0  0
   38.8630   32.2790   36.4370 O   0  0  0  0  0  0  0  0  0  0  0  0
   39.8440   32.2850   36.3030 H   0  0  0  0  0  0  0  0  0  0  0  0
   39.6690   31.5810   38.9560 O   0  0  0  0  0  0  0  0  0  0  0  0
   40.8970   31.9080   38.4530 C   0  0  0  0  0  2  0  0  0  0  0  0
   40.9010   33.3360   38.1810 N   0  0  0  0  0  4  0  0  0  0  0  0
   40.0590   33.5460   37.6010 H   0  0  0  0  0  0  0  0  0  0  0  0
   40.7860   34.0790   39.4230 C   0  0  0  0  0  2  0  0  0  0  0  0
   41.3470   33.5770   40.2390 H   0  0  0  0  0  0  0  0  0  0  0  0
   42.1010   33.7670   37.4980 C   0  0  0  0  0  2  0  0  0  0  0  0
   43.0080   33.2950   37.8690 H   0  0  0  0  0  0  0  0  0  0  0  0
  1 16  1  0  0  0  0
  2  1  1  0  0  0  0
  2  7  1  0  0  0  0
  3  2  1  0  0  0  0
  3 10  1  0  0  0  0
  4  5  1  0  0  0  0
  4 11  1  0  0  0  0
  4  3  1  0  0  0  0
  5  6  1  0  0  0  0
  6 31  1  0  0  0  0
  6  1  1  0  0  0  0
  6 15  1  1  0  0  0
  8  2  1  0  0  0  0
  9  3  1  0  0  0  0
 12  4  1  0  0  0  0
 13  5  1  0  0  0  0
 14  5  1  0  0  0  0
 16 17  1  0  0  0  0
 16 19  1  0  0  0  0
 18 16  1  0  0  0  0
 19 20  1  0  0  0  0
 19 24  1  0  0  0  0
 21 19  1  0  0  0  0
 22 28  1  0  0  0  0
 23 29  1  0  0  0  0
 23 22  2  0  0  0  0
 24 23  1  0  0  0  0
 25 24  2  0  0  0  0
 25 26  1  0  0  0  0
 26 27  2  0  0  0  0
 27 22  1  0  0  0  0
 30 26  1  0  0  0  0
 31 33  1  0  0  0  0
 33 32  2  1  0  0  0
 33 36  1  0  0  0  0
 34 33  1  0  0  0  0
 35 34  1  0  0  0  0
 37 36  1  0  0  0  0
 38 37  1  0  0  0  0
 38 40  1  0  0  0  0
 39 38  1  0  0  0  0
 40 41  1  0  0  0  0
 42 43  1  0  0  0  0
 42 38  1  0  0  0  0
M  END
>  <minimizedAffinity>
-4.60525894

$$$$

 OpenBabel03252509023D

 43 44  0  0  1  0  0  0  0  0999 V2000
   38.0620   27.7100   42.9980 N   0  0  0  0  0  0  0  0  0  0  0  0
   39.2460   27.2140   43.6040 C   0  0  0  0  0  0  0  0  0  0  0  0
   40.5350   27.7740   43.0550 C   0  0  0  0  0  0  0  0  0  0  0  0
   40.4440   29.1950   42.5650 C   0  0  0  0  0  0  0  0  0  0  0  0
   39.0870   29.7920   42.8520 C   0  0  0  0  0  0  0  0  0  0  0  0
   38.0990   28.7980   42.1390 C   0  0  2  0  0  0  0  0  0  0  0  0
   39.3560   26.1260   43.6320 H   0  0  0  0  0  0  0  0  0  0  0  0
   39.1950   27.5320   44.6840 H   0  0  0  0  0  0  0  0  0  0  0  0
   41.3100   27.7680   43.8660 H   0  0  0  0  0  0  0  0  0  0  0  0
   40.9240   27.0680   42.2940 H   0  0  0  0  0  0  0  0  0  0  0  0
   40.6000   29.2390   41.4750 H   0  0  0  0  0  0  0  0  0  0  0  0
   41.2010   29.8730   43.0180 H   0  0  0  0  0  0  0  0  0  0  0  0
   38.8290   29.8210   43.9110 H   0  0  0  0  0  0  0  0  0  0  0  0
   38.9530   30.7230   42.2880 H   0  0  0  0  0  0  0  0  0  0  0  0
   38.4850   28.6290   41.1100 H   0  0  0  0  0  0  0  0  0  0  0  0
   37.0370   26.7250   42.8210 C   0  0  0  0  0  0  0  0  0  0  0  0
   36.2320   27.0860   42.1350 H   0  0  0  0  0  0  0  0  0  0  0  0
   36.5810   26.4900   43.7870 H   0  0  0  0  0  0  0  0  0  0  0  0
   37.6420   25.5080   42.1860 C   0  0  0  0  0  0  0  0  0  0  0  0
   37.4660   24.6020   42.8260 H   0  0  0  0  0  0  0  0  0  0  0  0
   38.7230   25.5530   42.0210 H   0  0  0  0  0  0  0  0  0  0  0  0
   35.7410   23.7190   39.4840 C   0  0  0  0  0  0  0  0  0  0  0  0
   36.4030   23.9890   40.6970 C   0  0  0  0  0  0  0  0  0  0  0  0
   36.9450   25.2340   40.9010 C   0  0  0  0  0  0  0  0  0  0  0  0
   36.8140   26.1380   39.9210 N   0  0  0  0  0  0  0  0  0  0  0  0
   36.1780   25.8680   38.7660 C   0  0  0  0  0  0  0  0  0  0  0  0
   35.6370   24.6580   38.5360 N   0  0  0  0  0  0  0  0  0  0  0  0
   35.3500   22.7180   39.4190 H   0  0  0  0  0  0  0  0  0  0  0  0
   36.4970   23.2580   41.4620 H   0  0  0  0  0  0  0  0  0  0  0  0
   36.1270   26.6670   38.0400 H   0  0  0  0  0  0  0  0  0  0  0  0
   36.9140   29.5170   42.1710 O   0  0  0  0  0  0  0  0  0  0  0  0
   34.9750   29.2520   40.3730 O   0  0  0  0  0  0  0  0  0  0  0  0
   36.3380   29.8970   40.6370 P   0  0  2  0  0  0  0  0  0  0  0  0
   37.3950   29.1240   39.5300 O   0  0  0  0  0  0  0  0  0  0  0  0
   38.1680   29.7100   39.3290 H   0  0  0  0  0  0  0  0  0  0  0  0
   36.3660   31.5270   40.3370 O   0  0  0  0  0  0  0  0  0  0  0  0
   37.2120   31.9350   39.3450 C   0  0  0  0  0  2  0  0  0  0  0  0
   38.5660   31.9050   39.8730 N   0  0  0  0  0  4  0  0  0  0  0  0
   38.7070   30.9720   40.3190 H   0  0  0  0  0  0  0  0  0  0  0  0
   39.5250   32.0320   38.7900 C   0  0  0  0  0  2  0  0  0  0  0  0
   39.1520   32.7290   38.0100 H   0  0  0  0  0  0  0  0  0  0  0  0
   38.8120   32.9620   40.8300 C   0  0  0  0  0  2  0  0  0  0  0  0
   38.3740   33.9160   40.5480 H   0  0  0  0  0  0  0  0  0  0  0  0
  1  2  1  0  0  0  0
  2  7  1  0  0  0  0
  2  8  1  0  0  0  0
  3  2  1  0  0  0  0
  3  9  1  0  0  0  0
  4  5  1  0  0  0  0
  4 12  1  0  0  0  0
  4  3  1  0  0  0  0
  5 13  1  0  0  0  0
  6 15  1  6  0  0  0
  6 31  1  0  0  0  0
  6  5  1  0  0  0  0
  6  1  1  0  0  0  0
 10  3  1  0  0  0  0
 11  4  1  0  0  0  0
 14  5  1  0  0  0  0
 16  1  1  0  0  0  0
 16 18  1  0  0  0  0
 17 16  1  0  0  0  0
 19 16  1  0  0  0  0
 19 20  1  0  0  0  0
 21 19  1  0  0  0  0
 22 23  1  0  0  0  0
 23 24  2  0  0  0  0
 23 29  1  0  0  0  0
 24 19  1  0  0  0  0
 25 24  1  0  0  0  0
 26 25  2  0  0  0  0
 27 26  1  0  0  0  0
 27 22  2  0  0  0  0
 28 22  1  0  0  0  0
 30 26  1  0  0  0  0
 33 32  2  6  0  0  0
 33 31  1  0  0  0  0
 34 33  1  0  0  0  0
 35 34  1  0  0  0  0
 36 33  1  0  0  0  0
 37 38  1  0  0  0  0
 37 36  1  0  0  0  0
 38 39  1  0  0  0  0
 38 42  1  0  0  0  0
 40 38  1  0  0  0  0
 41 40  1  0  0  0  0
 43 42  1  0  0  0  0
M  END
>  <minimizedAffinity>
-4.60431862

$$$$

 OpenBabel03252509023D

 43 44  0  0  1  0  0  0  0  0999 V2000
   37.9830   29.5390   39.5580 N   0  0  0  0  0  0  0  0  0  0  0  0
   36.8290   29.7390   40.3620 C   0  0  0  0  0  0  0  0  0  0  0  0
   36.5920   31.1620   40.8050 C   0  0  0  0  0  0  0  0  0  0  0  0
   37.0560   32.2100   39.8280 C   0  0  0  0  0  0  0  0  0  0  0  0
   37.5520   31.5880   38.5450 C   0  0  0  0  0  0  0  0  0  0  0  0
   38.6860   30.6130   39.0340 C   0  0  2  0  0  0  0  0  0  0  0  0
   36.7450   29.1080   41.2510 H   0  0  0  0  0  0  0  0  0  0  0  0
   35.9510   29.4560   39.7150 H   0  0  0  0  0  0  0  0  0  0  0  0
   35.4900   31.3220   40.9420 H   0  0  0  0  0  0  0  0  0  0  0  0
   37.0180   31.2850   41.8210 H   0  0  0  0  0  0  0  0  0  0  0  0
   37.8860   32.7950   40.2540 H   0  0  0  0  0  0  0  0  0  0  0  0
   36.2650   32.9420   39.5500 H   0  0  0  0  0  0  0  0  0  0  0  0
   36.8030   30.9950   38.0200 H   0  0  0  0  0  0  0  0  0  0  0  0
   38.1010   32.3280   37.9490 H   0  0  0  0  0  0  0  0  0  0  0  0
   39.3400   31.1870   39.7260 H   0  0  0  0  0  0  0  0  0  0  0  0
   38.6860   28.3220   39.8340 C   0  0  0  0  0  0  0  0  0  0  0  0
   39.7750   28.4140   39.6040 H   0  0  0  0  0  0  0  0  0  0  0  0
   38.2750   27.5130   39.2250 H   0  0  0  0  0  0  0  0  0  0  0  0
   38.5710   28.0220   41.3000 C   0  0  0  0  0  0  0  0  0  0  0  0
   37.6490   28.4990   41.7280 H   0  0  0  0  0  0  0  0  0  0  0  0
   39.4030   28.3710   41.9180 H   0  0  0  0  0  0  0  0  0  0  0  0
   36.9730   24.7090   42.0710 C   0  0  0  0  0  0  0  0  0  0  0  0
   37.1600   26.0930   41.8950 C   0  0  0  0  0  0  0  0  0  0  0  0
   38.3850   26.5570   41.4820 C   0  0  0  0  0  0  0  0  0  0  0  0
   39.3510   25.6550   41.2660 N   0  0  0  0  0  0  0  0  0  0  0  0
   39.1600   24.3330   41.4370 C   0  0  0  0  0  0  0  0  0  0  0  0
   37.9720   23.8480   41.8410 N   0  0  0  0  0  0  0  0  0  0  0  0
   35.9820   24.4440   42.3950 H   0  0  0  0  0  0  0  0  0  0  0  0
   36.3810   26.7930   42.0720 H   0  0  0  0  0  0  0  0  0  0  0  0
   40.0050   23.6890   41.2350 H   0  0  0  0  0  0  0  0  0  0  0  0
   39.3030   30.2870   37.8370 O   0  0  0  0  0  0  0  0  0  0  0  0
   41.3420   31.5780   38.9520 O   0  0  0  0  0  0  0  0  0  0  0  0
   40.7720   31.0800   37.6220 P   0  0  2  0  0  0  0  0  0  0  0  0
   40.4120   32.5120   36.7510 O   0  0  0  0  0  0  0  0  0  0  0  0
   40.4250   32.3320   35.7770 H   0  0  0  0  0  0  0  0  0  0  0  0
   41.8500   30.1840   36.7360 O   0  0  0  0  0  0  0  0  0  0  0  0
   43.0120   30.8170   36.3980 C   0  0  0  0  0  2  0  0  0  0  0  0
   43.7860   29.9130   35.5650 N   0  0  0  0  0  4  0  0  0  0  0  0
   43.2310   29.7300   34.7010 H   0  0  0  0  0  0  0  0  0  0  0  0
   45.0330   30.5460   35.1700 C   0  0  0  0  0  2  0  0  0  0  0  0
   45.4380   31.1720   35.9930 H   0  0  0  0  0  0  0  0  0  0  0  0
   44.0970   28.6690   36.2350 C   0  0  0  0  0  2  0  0  0  0  0  0
   44.3700   28.7930   37.2810 H   0  0  0  0  0  0  0  0  0  0  0  0
  1 16  1  0  0  0  0
  1  2  1  0  0  0  0
  2  3  1  0  0  0  0
  2  7  1  0  0  0  0
  3  9  1  0  0  0  0
  3 10  1  0  0  0  0
  4 11  1  0  0  0  0
  4  3  1  0  0  0  0
  5  6  1  0  0  0  0
  5  4  1  0  0  0  0
  6  1  1  0  0  0  0
  6 15  1  1  0  0  0
  8  2  1  0  0  0  0
 12  4  1  0  0  0  0
 13  5  1  0  0  0  0
 14  5  1  0  0  0  0
 16 19  1  0  0  0  0
 17 16  1  0  0  0  0
 18 16  1  0  0  0  0
 19 24  1  0  0  0  0
 19 20  1  0  0  0  0
 19 21  1  0  0  0  0
 22 28  1  0  0  0  0
 23 22  1  0  0  0  0
 23 29  1  0  0  0  0
 24 23  2  0  0  0  0
 25 26  2  0  0  0  0
 25 24  1  0  0  0  0
 26 27  1  0  0  0  0
 27 22  2  0  0  0  0
 30 26  1  0  0  0  0
 31  6  1  0  0  0  0
 33 31  1  0  0  0  0
 33 32  2  1  0  0  0
 34 33  1  0  0  0  0
 35 34  1  0  0  0  0
 36 33  1  0  0  0  0
 37 36  1  0  0  0  0
 38 42  1  0  0  0  0
 38 37  1  0  0  0  0
 39 38  1  0  0  0  0
 40 38  1  0  0  0  0
 40 41  1  0  0  0  0
 42 43  1  0  0  0  0
M  END
>  <minimizedAffinity>
-4.58857059

$$$$

 OpenBabel03252509023D

 43 44  0  0  1  0  0  0  0  0999 V2000
   37.1950   29.3420   42.0670 N   0  0  0  0  0  0  0  0  0  0  0  0
   36.5230   28.0970   42.1890 C   0  0  0  0  0  0  0  0  0  0  0  0
   37.3860   26.8770   41.9930 C   0  0  0  0  0  0  0  0  0  0  0  0
   38.8170   27.0400   42.4370 C   0  0  0  0  0  0  0  0  0  0  0  0
   39.0370   28.3750   43.1060 C   0  0  0  0  0  0  0  0  0  0  0  0
   38.5790   29.4070   42.0100 C   0  0  2  0  0  0  0  0  0  0  0  0
   35.6340   27.9650   41.5660 H   0  0  0  0  0  0  0  0  0  0  0  0
   36.1470   28.0540   43.2510 H   0  0  0  0  0  0  0  0  0  0  0  0
   36.9630   26.0300   42.5930 H   0  0  0  0  0  0  0  0  0  0  0  0
   37.2860   26.5470   40.9390 H   0  0  0  0  0  0  0  0  0  0  0  0
   39.4980   26.9870   41.5730 H   0  0  0  0  0  0  0  0  0  0  0  0
   39.1530   26.2570   43.1520 H   0  0  0  0  0  0  0  0  0  0  0  0
   38.4240   28.5340   43.9940 H   0  0  0  0  0  0  0  0  0  0  0  0
   40.1100   28.5790   43.2060 H   0  0  0  0  0  0  0  0  0  0  0  0
   39.0690   29.1140   41.0560 H   0  0  0  0  0  0  0  0  0  0  0  0
   36.4290   30.3610   41.4120 C   0  0  0  0  0  0  0  0  0  0  0  0
   37.0850   31.1410   40.9560 H   0  0  0  0  0  0  0  0  0  0  0  0
   35.7700   30.8480   42.1350 H   0  0  0  0  0  0  0  0  0  0  0  0
   35.6510   29.7330   40.2930 C   0  0  0  0  0  0  0  0  0  0  0  0
   34.6020   30.1340   40.2700 H   0  0  0  0  0  0  0  0  0  0  0  0
   35.5550   28.6440   40.3410 H   0  0  0  0  0  0  0  0  0  0  0  0
   37.5970   31.6630   37.7220 C   0  0  0  0  0  0  0  0  0  0  0  0
   37.0160   31.2770   38.9450 C   0  0  0  0  0  0  0  0  0  0  0  0
   36.2610   30.1310   38.9960 C   0  0  0  0  0  0  0  0  0  0  0  0
   36.1140   29.4310   37.8620 N   0  0  0  0  0  0  0  0  0  0  0  0
   36.6750   29.8110   36.6990 C   0  0  0  0  0  0  0  0  0  0  0  0
   37.4210   30.9280   36.6170 N   0  0  0  0  0  0  0  0  0  0  0  0
   38.1700   32.5720   37.7840 H   0  0  0  0  0  0  0  0  0  0  0  0
   37.1440   31.8460   39.8330 H   0  0  0  0  0  0  0  0  0  0  0  0
   36.4960   29.1760   35.8430 H   0  0  0  0  0  0  0  0  0  0  0  0
   39.0590   30.5960   42.5340 O   0  0  0  0  0  0  0  0  0  0  0  0
   40.8650   30.3200   40.6030 O   0  0  0  0  0  0  0  0  0  0  0  0
   40.2050   31.3310   41.5450 P   0  0  2  0  0  0  0  0  0  0  0  0
   41.4720   31.8350   42.5830 O   0  0  0  0  0  0  0  0  0  0  0  0
   41.2800   32.7370   42.9440 H   0  0  0  0  0  0  0  0  0  0  0  0
   39.6040   32.6650   40.7650 O   0  0  0  0  0  0  0  0  0  0  0  0
   40.5080   33.6510   40.4910 C   0  0  0  0  0  2  0  0  0  0  0  0
   41.5560   33.0790   39.6620 N   0  0  0  0  0  4  0  0  0  0  0  0
   41.6320   32.0670   39.9080 H   0  0  0  0  0  0  0  0  0  0  0  0
   41.1860   33.1720   38.2600 C   0  0  0  0  0  2  0  0  0  0  0  0
   40.6470   34.1200   38.0540 H   0  0  0  0  0  0  0  0  0  0  0  0
   42.8310   33.7370   39.8450 C   0  0  0  0  0  2  0  0  0  0  0  0
   42.7550   34.8190   39.9320 H   0  0  0  0  0  0  0  0  0  0  0  0
  1  2  1  0  0  0  0
  2  8  1  0  0  0  0
  3  2  1  0  0  0  0
  3  4  1  0  0  0  0
  3  9  1  0  0  0  0
  4  5  1  0  0  0  0
  4 12  1  0  0  0  0
  5 14  1  0  0  0  0
  5 13  1  0  0  0  0
  6 15  1  6  0  0  0
  6  1  1  0  0  0  0
  6 31  1  0  0  0  0
  6  5  1  0  0  0  0
  7  2  1  0  0  0  0
 10  3  1  0  0  0  0
 11  4  1  0  0  0  0
 16  1  1  0  0  0  0
 16 18  1  0  0  0  0
 17 16  1  0  0  0  0
 19 21  1  0  0  0  0
 19 16  1  0  0  0  0
 20 19  1  0  0  0  0
 22 28  1  0  0  0  0
 22 23  1  0  0  0  0
 23 24  2  0  0  0  0
 23 29  1  0  0  0  0
 24 19  1  0  0  0  0
 25 24  1  0  0  0  0
 26 25  2  0  0  0  0
 27 26  1  0  0  0  0
 27 22  2  0  0  0  0
 30 26  1  0  0  0  0
 33 32  2  6  0  0  0
 33 31  1  0  0  0  0
 33 34  1  0  0  0  0
 34 35  1  0  0  0  0
 36 33  1  0  0  0  0
 37 36  1  0  0  0  0
 38 42  1  0  0  0  0
 38 39  1  0  0  0  0
 38 37  1  0  0  0  0
 40 38  1  0  0  0  0
 41 40  1  0  0  0  0
 42 43  1  0  0  0  0
M  END
>  <minimizedAffinity>
-4.58189201

$$$$

 OpenBabel03252509023D

 43 44  0  0  1  0  0  0  0  0999 V2000
   37.0990   26.6990   41.7750 N   0  0  0  0  0  0  0  0  0  0  0  0
   37.2460   25.3060   42.0070 C   0  0  0  0  0  0  0  0  0  0  0  0
   36.5990   24.4100   40.9810 C   0  0  0  0  0  0  0  0  0  0  0  0
   36.5720   24.9710   39.5830 C   0  0  0  0  0  0  0  0  0  0  0  0
   37.3250   26.2770   39.4990 C   0  0  0  0  0  0  0  0  0  0  0  0
   36.6050   27.1760   40.5700 C   0  0  2  0  0  0  0  0  0  0  0  0
   36.9340   24.9450   42.9910 H   0  0  0  0  0  0  0  0  0  0  0  0
   38.3530   25.1010   41.9560 H   0  0  0  0  0  0  0  0  0  0  0  0
   37.1710   23.4470   40.9250 H   0  0  0  0  0  0  0  0  0  0  0  0
   35.5980   24.1170   41.3580 H   0  0  0  0  0  0  0  0  0  0  0  0
   35.5360   25.1650   39.2640 H   0  0  0  0  0  0  0  0  0  0  0  0
   37.0130   24.2910   38.8220 H   0  0  0  0  0  0  0  0  0  0  0  0
   38.3770   26.2020   39.7750 H   0  0  0  0  0  0  0  0  0  0  0  0
   37.0990   26.7870   38.5540 H   0  0  0  0  0  0  0  0  0  0  0  0
   35.5110   27.0900   40.3920 H   0  0  0  0  0  0  0  0  0  0  0  0
   36.8890   27.4730   42.9620 C   0  0  0  0  0  0  0  0  0  0  0  0
   36.1860   26.9650   43.6660 H   0  0  0  0  0  0  0  0  0  0  0  0
   36.4650   28.4450   42.6980 H   0  0  0  0  0  0  0  0  0  0  0  0
   38.1990   27.6180   43.6790 C   0  0  0  0  0  0  0  0  0  0  0  0
   38.7890   26.6640   43.6170 H   0  0  0  0  0  0  0  0  0  0  0  0
   38.1280   27.8570   44.7450 H   0  0  0  0  0  0  0  0  0  0  0  0
   41.0290   29.2410   41.8140 C   0  0  0  0  0  0  0  0  0  0  0  0
   40.2420   28.2770   42.4720 C   0  0  0  0  0  0  0  0  0  0  0  0
   39.0220   28.6450   42.9840 C   0  0  0  0  0  0  0  0  0  0  0  0
   38.6390   29.9190   42.8270 N   0  0  0  0  0  0  0  0  0  0  0  0
   39.4000   30.8310   42.1940 C   0  0  0  0  0  0  0  0  0  0  0  0
   40.6000   30.5020   41.6820 N   0  0  0  0  0  0  0  0  0  0  0  0
   41.9650   28.8570   41.4480 H   0  0  0  0  0  0  0  0  0  0  0  0
   40.5640   27.2710   42.5870 H   0  0  0  0  0  0  0  0  0  0  0  0
   38.9990   31.8330   42.1210 H   0  0  0  0  0  0  0  0  0  0  0  0
   37.1160   28.4280   40.2660 O   0  0  0  0  0  0  0  0  0  0  0  0
   36.3570   30.5960   38.9270 O   0  0  0  0  0  0  0  0  0  0  0  0
   35.9160   29.5710   39.9750 P   0  0  2  0  0  0  0  0  0  0  0  0
   35.7670   30.4790   41.4210 O   0  0  0  0  0  0  0  0  0  0  0  0
   35.1280   30.0390   42.0370 H   0  0  0  0  0  0  0  0  0  0  0  0
   34.4490   28.8750   39.6400 O   0  0  0  0  0  0  0  0  0  0  0  0
   34.0020   29.0180   38.3570 C   0  0  0  0  0  2  0  0  0  0  0  0
   34.8810   28.2500   37.4910 N   0  0  0  0  0  4  0  0  0  0  0  0
   35.7990   28.1590   37.9780 H   0  0  0  0  0  0  0  0  0  0  0  0
   34.3420   26.9150   37.2950 C   0  0  0  0  0  2  0  0  0  0  0  0
   33.2340   26.9400   37.2320 H   0  0  0  0  0  0  0  0  0  0  0  0
   35.0590   28.8670   36.1940 C   0  0  0  0  0  2  0  0  0  0  0  0
   34.1460   29.2900   35.7820 H   0  0  0  0  0  0  0  0  0  0  0  0
  1  2  1  0  0  0  0
  1 16  1  0  0  0  0
  2  7  1  0  0  0  0
  3 10  1  0  0  0  0
  3  2  1  0  0  0  0
  4  3  1  0  0  0  0
  5  4  1  0  0  0  0
  5 13  1  0  0  0  0
  5  6  1  0  0  0  0
  6 15  1  6  0  0  0
  6  1  1  0  0  0  0
  8  2  1  0  0  0  0
  9  3  1  0  0  0  0
 11  4  1  0  0  0  0
 12  4  1  0  0  0  0
 14  5  1  0  0  0  0
 16 17  1  0  0  0  0
 16 19  1  0  0  0  0
 18 16  1  0  0  0  0
 19 21  1  0  0  0  0
 20 19  1  0  0  0  0
 22 23  1  0  0  0  0
 23 29  1  0  0  0  0
 23 24  2  0  0  0  0
 24 19  1  0  0  0  0
 25 24  1  0  0  0  0
 26 25  2  0  0  0  0
 27 22  2  0  0  0  0
 27 26  1  0  0  0  0
 28 22  1  0  0  0  0
 30 26  1  0  0  0  0
 31  6  1  0  0  0  0
 33 32  2  6  0  0  0
 33 31  1  0  0  0  0
 33 34  1  0  0  0  0
 34 35  1  0  0  0  0
 36 33  1  0  0  0  0
 37 36  1  0  0  0  0
 38 39  1  0  0  0  0
 38 37  1  0  0  0  0
 40 38  1  0  0  0  0
 41 40  1  0  0  0  0
 42 38  1  0  0  0  0
 43 42  1  0  0  0  0
M  END
>  <minimizedAffinity>
-4.56278181

$$$$

 OpenBabel03252509023D

 43 44  0  0  1  0  0  0  0  0999 V2000
   38.9550   28.7460   41.8530 N   0  0  0  0  0  0  0  0  0  0  0  0
   39.0840   27.8670   42.9610 C   0  0  0  0  0  0  0  0  0  0  0  0
   37.7970   27.5400   43.6770 C   0  0  0  0  0  0  0  0  0  0  0  0
   36.5760   27.5120   42.7950 C   0  0  0  0  0  0  0  0  0  0  0  0
   36.9410   27.7010   41.3420 C   0  0  0  0  0  0  0  0  0  0  0  0
   37.7090   29.0740   41.3400 C   0  0  2  0  0  0  0  0  0  0  0  0
   39.8120   28.1560   43.7240 H   0  0  0  0  0  0  0  0  0  0  0  0
   39.4700   26.8960   42.5400 H   0  0  0  0  0  0  0  0  0  0  0  0
   37.8830   26.5180   44.1320 H   0  0  0  0  0  0  0  0  0  0  0  0
   37.7000   28.2220   44.5450 H   0  0  0  0  0  0  0  0  0  0  0  0
   35.8830   28.3220   43.0700 H   0  0  0  0  0  0  0  0  0  0  0  0
   35.9970   26.5650   42.8650 H   0  0  0  0  0  0  0  0  0  0  0  0
   37.6150   26.9390   40.9500 H   0  0  0  0  0  0  0  0  0  0  0  0
   36.0440   27.9170   40.7490 H   0  0  0  0  0  0  0  0  0  0  0  0
   37.0910   29.7990   41.9130 H   0  0  0  0  0  0  0  0  0  0  0  0
   40.0240   29.6910   41.7260 C   0  0  0  0  0  0  0  0  0  0  0  0
   40.2540   29.9120   40.6550 H   0  0  0  0  0  0  0  0  0  0  0  0
   40.9270   29.2900   42.1930 H   0  0  0  0  0  0  0  0  0  0  0  0
   39.6020   30.9830   42.3590 C   0  0  0  0  0  0  0  0  0  0  0  0
   40.2660   31.2290   43.2310 H   0  0  0  0  0  0  0  0  0  0  0  0
   38.5790   31.0040   42.7480 H   0  0  0  0  0  0  0  0  0  0  0  0
   41.2140   33.2670   39.8480 C   0  0  0  0  0  0  0  0  0  0  0  0
   41.0190   32.2240   40.7730 C   0  0  0  0  0  0  0  0  0  0  0  0
   39.7960   32.0890   41.3830 C   0  0  0  0  0  0  0  0  0  0  0  0
   38.8390   32.9690   41.0600 N   0  0  0  0  0  0  0  0  0  0  0  0
   39.0370   33.9620   40.1740 C   0  0  0  0  0  0  0  0  0  0  0  0
   40.2240   34.1210   39.5600 N   0  0  0  0  0  0  0  0  0  0  0  0
   42.2030   33.2900   39.4240 H   0  0  0  0  0  0  0  0  0  0  0  0
   41.7910   31.5360   41.0160 H   0  0  0  0  0  0  0  0  0  0  0  0
   38.2000   34.6190   39.9830 H   0  0  0  0  0  0  0  0  0  0  0  0
   37.7700   29.3520   39.9840 O   0  0  0  0  0  0  0  0  0  0  0  0
   37.1090   31.4300   38.4630 O   0  0  0  0  0  0  0  0  0  0  0  0
   36.5720   30.4220   39.4820 P   0  0  2  0  0  0  0  0  0  0  0  0
   36.1820   31.3730   40.8540 O   0  0  0  0  0  0  0  0  0  0  0  0
   35.4840   30.9240   41.3940 H   0  0  0  0  0  0  0  0  0  0  0  0
   35.1990   29.6420   38.9780 O   0  0  0  0  0  0  0  0  0  0  0  0
   35.1900   29.2390   37.6720 C   0  0  0  0  0  2  0  0  0  0  0  0
   36.4070   28.4830   37.4300 N   0  0  0  0  0  4  0  0  0  0  0  0
   37.1160   28.7990   38.1280 H   0  0  0  0  0  0  0  0  0  0  0  0
   36.1650   27.0680   37.6460 C   0  0  0  0  0  2  0  0  0  0  0  0
   35.1490   26.7820   37.3010 H   0  0  0  0  0  0  0  0  0  0  0  0
   36.9130   28.6620   36.0860 C   0  0  0  0  0  2  0  0  0  0  0  0
   36.1360   28.6740   35.3250 H   0  0  0  0  0  0  0  0  0  0  0  0
  1  2  1  0  0  0  0
  2  3  1  0  0  0  0
  2  7  1  0  0  0  0
  3  9  1  0  0  0  0
  3 10  1  0  0  0  0
  4 12  1  0  0  0  0
  4 11  1  0  0  0  0
  4  3  1  0  0  0  0
  5  4  1  0  0  0  0
  6  5  1  0  0  0  0
  6  1  1  0  0  0  0
  6 15  1  1  0  0  0
  8  2  1  0  0  0  0
 13  5  1  0  0  0  0
 14  5  1  0  0  0  0
 16  1  1  0  0  0  0
 16 18  1  0  0  0  0
 16 19  1  0  0  0  0
 17 16  1  0  0  0  0
 19 21  1  0  0  0  0
 19 20  1  0  0  0  0
 22 23  1  0  0  0  0
 23 29  1  0  0  0  0
 23 24  2  0  0  0  0
 24 19  1  0  0  0  0
 25 24  1  0  0  0  0
 26 25  2  0  0  0  0
 27 22  2  0  0  0  0
 27 26  1  0  0  0  0
 28 22  1  0  0  0  0
 30 26  1  0  0  0  0
 31  6  1  0  0  0  0
 33 32  2  6  0  0  0
 33 31  1  0  0  0  0
 33 34  1  0  0  0  0
 34 35  1  0  0  0  0
 36 33  1  0  0  0  0
 37 36  1  0  0  0  0
 38 40  1  0  0  0  0
 38 37  1  0  0  0  0
 38 39  1  0  0  0  0
 41 40  1  0  0  0  0
 42 38  1  0  0  0  0
 43 42  1  0  0  0  0
M  END
>  <minimizedAffinity>
-4.56174374

$$$$

 OpenBabel03252509023D

 43 44  0  0  1  0  0  0  0  0999 V2000
   36.4690   29.6620   38.5540 N   0  0  0  0  0  0  0  0  0  0  0  0
   35.3240   29.0010   38.0350 C   0  0  0  0  0  0  0  0  0  0  0  0
   35.1030   29.1640   36.5520 C   0  0  0  0  0  0  0  0  0  0  0  0
   36.3640   29.2970   35.7390 C   0  0  0  0  0  0  0  0  0  0  0  0
   37.5940   29.1100   36.5940 C   0  0  0  0  0  0  0  0  0  0  0  0
   37.4250   30.2070   37.7110 C   0  0  2  0  0  0  0  0  0  0  0  0
   34.3730   29.2240   38.5270 H   0  0  0  0  0  0  0  0  0  0  0  0
   35.4960   27.9020   38.2120 H   0  0  0  0  0  0  0  0  0  0  0  0
   34.5690   28.2590   36.1610 H   0  0  0  0  0  0  0  0  0  0  0  0
   34.3880   29.9970   36.3970 H   0  0  0  0  0  0  0  0  0  0  0  0
   36.4270   30.2990   35.2840 H   0  0  0  0  0  0  0  0  0  0  0  0
   36.4350   28.5670   34.9030 H   0  0  0  0  0  0  0  0  0  0  0  0
   37.6510   28.1380   37.0840 H   0  0  0  0  0  0  0  0  0  0  0  0
   38.4890   29.4420   36.0540 H   0  0  0  0  0  0  0  0  0  0  0  0
   37.1770   31.1620   37.2000 H   0  0  0  0  0  0  0  0  0  0  0  0
   36.2720   30.2490   39.8450 C   0  0  0  0  0  0  0  0  0  0  0  0
   35.6130   31.1500   39.7920 H   0  0  0  0  0  0  0  0  0  0  0  0
   37.2350   30.5550   40.2620 H   0  0  0  0  0  0  0  0  0  0  0  0
   35.5800   29.2520   40.7270 C   0  0  0  0  0  0  0  0  0  0  0  0
   35.1450   28.4190   40.1120 H   0  0  0  0  0  0  0  0  0  0  0  0
   34.7530   29.6470   41.3250 H   0  0  0  0  0  0  0  0  0  0  0  0
   37.7690   26.6460   42.3210 C   0  0  0  0  0  0  0  0  0  0  0  0
   36.8190   27.2630   41.4850 C   0  0  0  0  0  0  0  0  0  0  0  0
   36.5860   28.6100   41.6160 C   0  0  0  0  0  0  0  0  0  0  0  0
   37.2850   29.2750   42.5460 N   0  0  0  0  0  0  0  0  0  0  0  0
   38.1900   28.6740   43.3390 C   0  0  0  0  0  0  0  0  0  0  0  0
   38.4410   27.3560   43.2350 N   0  0  0  0  0  0  0  0  0  0  0  0
   37.8810   25.5910   42.1420 H   0  0  0  0  0  0  0  0  0  0  0  0
   36.2750   26.7180   40.7530 H   0  0  0  0  0  0  0  0  0  0  0  0
   38.7010   29.3000   44.0580 H   0  0  0  0  0  0  0  0  0  0  0  0
   38.6840   30.2020   38.2920 O   0  0  0  0  0  0  0  0  0  0  0  0
   38.7050   32.7460   39.0630 O   0  0  0  0  0  0  0  0  0  0  0  0
   39.4420   31.7030   38.2190 P   0  0  2  0  0  0  0  0  0  0  0  0
   39.2530   32.2500   36.6060 O   0  0  0  0  0  0  0  0  0  0  0  0
   39.9890   31.9080   36.0390 H   0  0  0  0  0  0  0  0  0  0  0  0
   41.0630   31.6090   38.5540 O   0  0  0  0  0  0  0  0  0  0  0  0
   41.4070   31.7450   39.8690 C   0  0  0  0  0  2  0  0  0  0  0  0
   40.5630   30.8520   40.6460 N   0  0  0  0  0  4  0  0  0  0  0  0
   39.6860   30.6980   40.1020 H   0  0  0  0  0  0  0  0  0  0  0  0
   41.2190   29.5670   40.8100 C   0  0  0  0  0  2  0  0  0  0  0  0
   42.3150   29.6940   40.9390 H   0  0  0  0  0  0  0  0  0  0  0  0
   40.2550   31.3810   41.9570 C   0  0  0  0  0  2  0  0  0  0  0  0
   41.0990   31.8680   42.4400 H   0  0  0  0  0  0  0  0  0  0  0  0
  1 16  1  0  0  0  0
  2  8  1  0  0  0  0
  2  7  1  0  0  0  0
  2  1  1  0  0  0  0
  3  2  1  0  0  0  0
  4  3  1  0  0  0  0
  4  5  1  0  0  0  0
  5 13  1  0  0  0  0
  5  6  1  0  0  0  0
  6 15  1  6  0  0  0
  6 31  1  0  0  0  0
  6  1  1  0  0  0  0
  9  3  1  0  0  0  0
 10  3  1  0  0  0  0
 11  4  1  0  0  0  0
 12  4  1  0  0  0  0
 14  5  1  0  0  0  0
 16 18  1  0  0  0  0
 16 19  1  0  0  0  0
 17 16  1  0  0  0  0
 19 21  1  0  0  0  0
 19 24  1  0  0  0  0
 20 19  1  0  0  0  0
 22 27  1  0  0  0  0
 23 24  1  0  0  0  0
 23 22  2  0  0  0  0
 24 25  2  0  0  0  0
 25 26  1  0  0  0  0
 26 30  1  0  0  0  0
 27 26  2  0  0  0  0
 28 22  1  0  0  0  0
 29 23  1  0  0  0  0
 33 31  1  0  0  0  0
 33 36  1  0  0  0  0
 33 32  2  1  0  0  0
 34 33  1  0  0  0  0
 35 34  1  0  0  0  0
 36 37  1  0  0  0  0
 37 38  1  0  0  0  0
 38 40  1  0  0  0  0
 38 42  1  0  0  0  0
 39 38  1  0  0  0  0
 40 41  1  0  0  0  0
 42 43  1  0  0  0  0
M  END
>  <minimizedAffinity>
-4.53203154

$$$$
