
 OpenBabel03252508583D

 43 44  0  0  1  0  0  0  0  0999 V2000
   46.7620   34.3560   43.6600 N   0  0  0  0  0  0  0  0  0  0  0  0
   46.3540   35.2000   42.5930 C   0  0  0  0  0  0  0  0  0  0  0  0
   44.8630   35.3690   42.4390 C   0  0  0  0  0  0  0  0  0  0  0  0
   44.0880   35.3100   43.7290 C   0  0  0  0  0  0  0  0  0  0  0  0
   45.0080   35.2150   44.9220 C   0  0  0  0  0  0  0  0  0  0  0  0
   45.8580   33.9260   44.6190 C   0  0  2  0  0  0  0  0  0  0  0  0
   46.7530   34.9550   41.6040 H   0  0  0  0  0  0  0  0  0  0  0  0
   46.7680   36.2200   42.8320 H   0  0  0  0  0  0  0  0  0  0  0  0
   44.6550   36.3760   41.9910 H   0  0  0  0  0  0  0  0  0  0  0  0
   44.5080   34.6470   41.6770 H   0  0  0  0  0  0  0  0  0  0  0  0
   43.4330   34.4240   43.7460 H   0  0  0  0  0  0  0  0  0  0  0  0
   43.4300   36.1910   43.8950 H   0  0  0  0  0  0  0  0  0  0  0  0
   45.6960   36.0550   45.0210 H   0  0  0  0  0  0  0  0  0  0  0  0
   44.4420   34.9340   45.8190 H   0  0  0  0  0  0  0  0  0  0  0  0
   45.1470   33.1220   44.3320 H   0  0  0  0  0  0  0  0  0  0  0  0
   47.8910   33.5280   43.3540 C   0  0  0  0  0  0  0  0  0  0  0  0
   48.3700   33.1270   44.2810 H   0  0  0  0  0  0  0  0  0  0  0  0
   48.6380   34.1100   42.8090 H   0  0  0  0  0  0  0  0  0  0  0  0
   47.4200   32.3480   42.5570 C   0  0  0  0  0  0  0  0  0  0  0  0
   46.3530   32.4910   42.2360 H   0  0  0  0  0  0  0  0  0  0  0  0
   47.4480   31.3860   43.0790 H   0  0  0  0  0  0  0  0  0  0  0  0
   50.1490   31.4870   40.1220 C   0  0  0  0  0  0  0  0  0  0  0  0
   49.3940   31.5700   41.3070 C   0  0  0  0  0  0  0  0  0  0  0  0
   48.2090   32.2650   41.2990 C   0  0  0  0  0  0  0  0  0  0  0  0
   47.8300   32.8360   40.1470 N   0  0  0  0  0  0  0  0  0  0  0  0
   48.5610   32.7480   39.0200 C   0  0  0  0  0  0  0  0  0  0  0  0
   49.7250   32.0740   38.9960 N   0  0  0  0  0  0  0  0  0  0  0  0
   51.0580   30.9220   40.2280 H   0  0  0  0  0  0  0  0  0  0  0  0
   49.7120   31.1120   42.2110 H   0  0  0  0  0  0  0  0  0  0  0  0
   48.1660   33.2430   38.1440 H   0  0  0  0  0  0  0  0  0  0  0  0
   46.4730   33.7080   45.8420 O   0  0  0  0  0  0  0  0  0  0  0  0
   45.6960   31.2110   45.3640 O   0  0  0  0  0  0  0  0  0  0  0  0
   46.1780   32.1700   46.4560 P   0  0  2  0  0  0  0  0  0  0  0  0
   44.8320   32.3300   47.5060 O   0  0  0  0  0  0  0  0  0  0  0  0
   45.1340   32.5790   48.4150 H   0  0  0  0  0  0  0  0  0  0  0  0
   47.4580   31.5830   47.3310 O   0  0  0  0  0  0  0  0  0  0  0  0
   47.2070   30.4650   48.0750 C   0  0  0  0  0  2  0  0  0  0  0  0
   47.2160   29.3220   47.1780 N   0  0  0  0  0  4  0  0  0  0  0  0
   47.1340   29.6860   46.2040 H   0  0  0  0  0  0  0  0  0  0  0  0
   48.4810   28.6160   47.2860 C   0  0  0  0  0  2  0  0  0  0  0  0
   48.8480   28.6170   48.3340 H   0  0  0  0  0  0  0  0  0  0  0  0
   46.1450   28.3880   47.4570 C   0  0  0  0  0  2  0  0  0  0  0  0
   45.9710   28.2280   48.5180 H   0  0  0  0  0  0  0  0  0  0  0  0
  1  6  1  0  0  0  0
  2  8  1  0  0  0  0
  2  1  1  0  0  0  0
  3  2  1  0  0  0  0
  3  4  1  0  0  0  0
  4 11  1  0  0  0  0
  4 12  1  0  0  0  0
  4  5  1  0  0  0  0
  5 13  1  0  0  0  0
  5 14  1  0  0  0  0
  6 15  1  6  0  0  0
  6  5  1  0  0  0  0
  6 31  1  0  0  0  0
  7  2  1  0  0  0  0
  9  3  1  0  0  0  0
 10  3  1  0  0  0  0
 16  1  1  0  0  0  0
 16 17  1  0  0  0  0
 18 16  1  0  0  0  0
 19 21  1  0  0  0  0
 19 16  1  0  0  0  0
 20 19  1  0  0  0  0
 22 28  1  0  0  0  0
 22 23  1  0  0  0  0
 23 29  1  0  0  0  0
 24 23  2  0  0  0  0
 24 19  1  0  0  0  0
 25 24  1  0  0  0  0
 26 25  2  0  0  0  0
 27 26  1  0  0  0  0
 27 22  2  0  0  0  0
 30 26  1  0  0  0  0
 31 33  1  0  0  0  0
 33 32  2  6  0  0  0
 33 36  1  0  0  0  0
 33 34  1  0  0  0  0
 34 35  1  0  0  0  0
 36 37  1  0  0  0  0
 38 40  1  0  0  0  0
 38 42  1  0  0  0  0
 38 37  1  0  0  0  0
 39 38  1  0  0  0  0
 40 41  1  0  0  0  0
 42 43  1  0  0  0  0
M  END
>  <minimizedAffinity>
-4.09326744

>  <minimizedRMSD>
2.10245442

$$$$
