
 OpenBabel03252508583D

 43 44  0  0  1  0  0  0  0  0999 V2000
   46.7210   34.3650   43.6540 N   0  0  0  0  0  0  0  0  0  0  0  0
   46.3040   35.1610   42.5550 C   0  0  0  0  0  0  0  0  0  0  0  0
   44.8110   35.3150   42.4000 C   0  0  0  0  0  0  0  0  0  0  0  0
   44.0400   35.3020   43.6950 C   0  0  0  0  0  0  0  0  0  0  0  0
   44.9650   35.2630   44.8870 C   0  0  0  0  0  0  0  0  0  0  0  0
   45.8230   33.9680   44.6330 C   0  0  2  0  0  0  0  0  0  0  0  0
   46.7000   34.8790   41.5760 H   0  0  0  0  0  0  0  0  0  0  0  0
   46.7110   36.1930   42.7510 H   0  0  0  0  0  0  0  0  0  0  0  0
   44.5940   36.3000   41.9120 H   0  0  0  0  0  0  0  0  0  0  0  0
   44.4580   34.5590   41.6690 H   0  0  0  0  0  0  0  0  0  0  0  0
   43.3920   34.4140   43.7500 H   0  0  0  0  0  0  0  0  0  0  0  0
   43.3770   36.1850   43.8260 H   0  0  0  0  0  0  0  0  0  0  0  0
   45.6470   36.1110   44.9490 H   0  0  0  0  0  0  0  0  0  0  0  0
   44.4050   35.0150   45.7970 H   0  0  0  0  0  0  0  0  0  0  0  0
   45.1170   33.1480   44.3820 H   0  0  0  0  0  0  0  0  0  0  0  0
   47.8540   33.5330   43.3780 C   0  0  0  0  0  0  0  0  0  0  0  0
   48.3210   33.1480   44.3180 H   0  0  0  0  0  0  0  0  0  0  0  0
   48.6080   34.1050   42.8320 H   0  0  0  0  0  0  0  0  0  0  0  0
   47.3940   32.3380   42.5970 C   0  0  0  0  0  0  0  0  0  0  0  0
   46.3250   32.4650   42.2770 H   0  0  0  0  0  0  0  0  0  0  0  0
   47.4360   31.3830   43.1300 H   0  0  0  0  0  0  0  0  0  0  0  0
   50.2150   31.6680   40.2050 C   0  0  0  0  0  0  0  0  0  0  0  0
   49.4620   31.7550   41.3920 C   0  0  0  0  0  0  0  0  0  0  0  0
   48.1820   32.2490   41.3370 C   0  0  0  0  0  0  0  0  0  0  0  0
   47.7110   32.6280   40.1410 N   0  0  0  0  0  0  0  0  0  0  0  0
   48.4410   32.5390   39.0140 C   0  0  0  0  0  0  0  0  0  0  0  0
   49.6980   32.0590   39.0350 N   0  0  0  0  0  0  0  0  0  0  0  0
   51.2030   31.2680   40.3500 H   0  0  0  0  0  0  0  0  0  0  0  0
   49.8530   31.4500   42.3310 H   0  0  0  0  0  0  0  0  0  0  0  0
   47.9680   32.8710   38.1000 H   0  0  0  0  0  0  0  0  0  0  0  0
   46.4430   33.8050   45.8620 O   0  0  0  0  0  0  0  0  0  0  0  0
   45.7530   31.2700   45.4580 O   0  0  0  0  0  0  0  0  0  0  0  0
   46.1900   32.2790   46.5230 P   0  0  2  0  0  0  0  0  0  0  0  0
   44.8260   32.4290   47.5510 O   0  0  0  0  0  0  0  0  0  0  0  0
   45.1090   32.7180   48.4550 H   0  0  0  0  0  0  0  0  0  0  0  0
   47.4770   31.7620   47.4330 O   0  0  0  0  0  0  0  0  0  0  0  0
   47.6230   30.4080   47.5400 C   0  0  0  0  0  2  0  0  0  0  0  0
   48.8900   30.1490   48.2050 N   0  0  0  0  0  4  0  0  0  0  0  0
   49.6310   30.6600   47.6780 H   0  0  0  0  0  0  0  0  0  0  0  0
   48.8580   30.6760   49.5570 C   0  0  0  0  0  2  0  0  0  0  0  0
   47.8530   30.5450   50.0120 H   0  0  0  0  0  0  0  0  0  0  0  0
   49.2040   28.7380   48.2700 C   0  0  0  0  0  2  0  0  0  0  0  0
   48.3460   28.1110   48.4990 H   0  0  0  0  0  0  0  0  0  0  0  0
  1  6  1  0  0  0  0
  2  8  1  0  0  0  0
  2  1  1  0  0  0  0
  3  2  1  0  0  0  0
  3  4  1  0  0  0  0
  4 11  1  0  0  0  0
  4 12  1  0  0  0  0
  4  5  1  0  0  0  0
  5 13  1  0  0  0  0
  5 14  1  0  0  0  0
  6 15  1  6  0  0  0
  6  5  1  0  0  0  0
  6 31  1  0  0  0  0
  7  2  1  0  0  0  0
  9  3  1  0  0  0  0
 10  3  1  0  0  0  0
 16  1  1  0  0  0  0
 16 17  1  0  0  0  0
 18 16  1  0  0  0  0
 19 21  1  0  0  0  0
 19 16  1  0  0  0  0
 20 19  1  0  0  0  0
 22 28  1  0  0  0  0
 22 23  1  0  0  0  0
 23 29  1  0  0  0  0
 24 23  2  0  0  0  0
 24 19  1  0  0  0  0
 25 24  1  0  0  0  0
 26 27  1  0  0  0  0
 26 25  2  0  0  0  0
 27 22  2  0  0  0  0
 30 26  1  0  0  0  0
 31 33  1  0  0  0  0
 33 32  2  6  0  0  0
 33 36  1  0  0  0  0
 33 34  1  0  0  0  0
 34 35  1  0  0  0  0
 36 37  1  0  0  0  0
 37 38  1  0  0  0  0
 38 42  1  0  0  0  0
 38 40  1  0  0  0  0
 39 38  1  0  0  0  0
 40 41  1  0  0  0  0
 42 43  1  0  0  0  0
M  END
>  <minimizedAffinity>
-4.26240015

>  <minimizedRMSD>
2.08823061

$$$$
