
 OpenBabel03252508593D

 43 44  0  0  1  0  0  0  0  0999 V2000
   46.5100   34.4320   43.7110 N   0  0  0  0  0  0  0  0  0  0  0  0
   46.0910   35.1610   42.5670 C   0  0  0  0  0  0  0  0  0  0  0  0
   44.6000   35.3540   42.4360 C   0  0  0  0  0  0  0  0  0  0  0  0
   43.8630   35.4610   43.7450 C   0  0  0  0  0  0  0  0  0  0  0  0
   44.8160   35.4750   44.9160 C   0  0  0  0  0  0  0  0  0  0  0  0
   45.6250   34.1370   44.7370 C   0  0  2  0  0  0  0  0  0  0  0  0
   46.4530   34.7960   41.6020 H   0  0  0  0  0  0  0  0  0  0  0  0
   46.5360   36.1900   42.6780 H   0  0  0  0  0  0  0  0  0  0  0  0
   44.4030   36.3090   41.8830 H   0  0  0  0  0  0  0  0  0  0  0  0
   44.2050   34.5610   41.7700 H   0  0  0  0  0  0  0  0  0  0  0  0
   43.1880   34.6010   43.8800 H   0  0  0  0  0  0  0  0  0  0  0  0
   43.2320   36.3730   43.8280 H   0  0  0  0  0  0  0  0  0  0  0  0
   45.5270   36.3010   44.9000 H   0  0  0  0  0  0  0  0  0  0  0  0
   44.2710   35.3120   45.8540 H   0  0  0  0  0  0  0  0  0  0  0  0
   44.8860   33.3250   44.5620 H   0  0  0  0  0  0  0  0  0  0  0  0
   47.6080   33.5440   43.4700 C   0  0  0  0  0  0  0  0  0  0  0  0
   47.5800   32.6590   44.1520 H   0  0  0  0  0  0  0  0  0  0  0  0
   48.5510   34.0710   43.6330 H   0  0  0  0  0  0  0  0  0  0  0  0
   47.5050   33.0200   42.0680 C   0  0  0  0  0  0  0  0  0  0  0  0
   47.1660   33.8310   41.3690 H   0  0  0  0  0  0  0  0  0  0  0  0
   46.8040   32.1910   41.9270 H   0  0  0  0  0  0  0  0  0  0  0  0
   51.2370   32.6110   41.9110 C   0  0  0  0  0  0  0  0  0  0  0  0
   49.9510   32.9800   42.3490 C   0  0  0  0  0  0  0  0  0  0  0  0
   48.8590   32.6240   41.5960 C   0  0  0  0  0  0  0  0  0  0  0  0
   49.0790   31.9340   40.4690 N   0  0  0  0  0  0  0  0  0  0  0  0
   50.3130   31.5870   40.0610 C   0  0  0  0  0  0  0  0  0  0  0  0
   51.4020   31.9210   40.7770 N   0  0  0  0  0  0  0  0  0  0  0  0
   52.0260   32.9340   42.5680 H   0  0  0  0  0  0  0  0  0  0  0  0
   49.7970   33.5280   43.2460 H   0  0  0  0  0  0  0  0  0  0  0  0
   50.3820   31.0300   39.1370 H   0  0  0  0  0  0  0  0  0  0  0  0
   46.2710   34.0410   45.9590 O   0  0  0  0  0  0  0  0  0  0  0  0
   45.6930   31.4640   45.6550 O   0  0  0  0  0  0  0  0  0  0  0  0
   46.0840   32.5320   46.6800 P   0  0  2  0  0  0  0  0  0  0  0  0
   44.7140   32.6620   47.7010 O   0  0  0  0  0  0  0  0  0  0  0  0
   44.9820   32.9980   48.5930 H   0  0  0  0  0  0  0  0  0  0  0  0
   47.3910   32.1080   47.6070 O   0  0  0  0  0  0  0  0  0  0  0  0
   47.4080   30.8180   48.0570 C   0  0  0  0  0  2  0  0  0  0  0  0
   48.7900   30.4580   48.3250 N   0  0  0  0  0  4  0  0  0  0  0  0
   49.3960   31.0950   47.7640 H   0  0  0  0  0  0  0  0  0  0  0  0
   49.0960   30.6710   49.7290 C   0  0  0  0  0  2  0  0  0  0  0  0
   48.2260   30.4130   50.3690 H   0  0  0  0  0  0  0  0  0  0  0  0
   49.0750   29.0770   47.9980 C   0  0  0  0  0  2  0  0  0  0  0  0
   48.2830   28.3890   48.2810 H   0  0  0  0  0  0  0  0  0  0  0  0
  1  6  1  0  0  0  0
  2  8  1  0  0  0  0
  2  1  1  0  0  0  0
  3  2  1  0  0  0  0
  3  4  1  0  0  0  0
  4 12  1  0  0  0  0
  4 11  1  0  0  0  0
  4  5  1  0  0  0  0
  5 14  1  0  0  0  0
  6 15  1  6  0  0  0
  6  5  1  0  0  0  0
  6 31  1  0  0  0  0
  7  2  1  0  0  0  0
  9  3  1  0  0  0  0
 10  3  1  0  0  0  0
 13  5  1  0  0  0  0
 16 18  1  0  0  0  0
 16  1  1  0  0  0  0
 16 17  1  0  0  0  0
 19 16  1  0  0  0  0
 20 19  1  0  0  0  0
 21 19  1  0  0  0  0
 22 23  1  0  0  0  0
 22 28  1  0  0  0  0
 23 29  1  0  0  0  0
 24 19  1  0  0  0  0
 24 23  2  0  0  0  0
 25 24  1  0  0  0  0
 26 25  2  0  0  0  0
 26 27  1  0  0  0  0
 27 22  2  0  0  0  0
 30 26  1  0  0  0  0
 31 33  1  0  0  0  0
 33 32  2  6  0  0  0
 33 36  1  0  0  0  0
 33 34  1  0  0  0  0
 34 35  1  0  0  0  0
 36 37  1  0  0  0  0
 37 38  1  0  0  0  0
 38 40  1  0  0  0  0
 39 38  1  0  0  0  0
 40 41  1  0  0  0  0
 42 43  1  0  0  0  0
 42 38  1  0  0  0  0
M  END
>  <minimizedAffinity>
-4.54247236

>  <minimizedRMSD>
2.62018561

$$$$
