
 OpenBabel03252508593D

 43 44  0  0  1  0  0  0  0  0999 V2000
   46.6190   34.5260   43.6170 N   0  0  0  0  0  0  0  0  0  0  0  0
   46.1250   35.5020   42.7110 C   0  0  0  0  0  0  0  0  0  0  0  0
   44.6270   35.6750   42.7050 C   0  0  0  0  0  0  0  0  0  0  0  0
   43.9600   35.4330   44.0340 C   0  0  0  0  0  0  0  0  0  0  0  0
   44.9750   35.1870   45.1230 C   0  0  0  0  0  0  0  0  0  0  0  0
   45.7970   33.9600   44.5790 C   0  0  2  0  0  0  0  0  0  0  0  0
   46.4410   35.3980   41.6690 H   0  0  0  0  0  0  0  0  0  0  0  0
   46.5580   36.4850   43.0530 H   0  0  0  0  0  0  0  0  0  0  0  0
   44.3820   36.7310   42.4160 H   0  0  0  0  0  0  0  0  0  0  0  0
   44.2100   35.0590   41.8830 H   0  0  0  0  0  0  0  0  0  0  0  0
   43.3080   34.5460   43.9830 H   0  0  0  0  0  0  0  0  0  0  0  0
   43.3180   36.2760   44.3710 H   0  0  0  0  0  0  0  0  0  0  0  0
   45.6690   36.0130   45.2790 H   0  0  0  0  0  0  0  0  0  0  0  0
   44.4850   34.7810   46.0170 H   0  0  0  0  0  0  0  0  0  0  0  0
   45.0640   33.1950   44.2440 H   0  0  0  0  0  0  0  0  0  0  0  0
   47.7180   33.7600   43.1100 C   0  0  0  0  0  0  0  0  0  0  0  0
   48.2970   33.2750   43.9340 H   0  0  0  0  0  0  0  0  0  0  0  0
   48.3970   34.4110   42.5540 H   0  0  0  0  0  0  0  0  0  0  0  0
   47.1790   32.6580   42.2470 C   0  0  0  0  0  0  0  0  0  0  0  0
   46.0650   32.7540   42.1380 H   0  0  0  0  0  0  0  0  0  0  0  0
   47.3570   31.6420   42.6150 H   0  0  0  0  0  0  0  0  0  0  0  0
   49.3050   32.1280   39.1940 C   0  0  0  0  0  0  0  0  0  0  0  0
   48.7760   31.9980   40.4920 C   0  0  0  0  0  0  0  0  0  0  0  0
   47.7310   32.8030   40.8730 C   0  0  0  0  0  0  0  0  0  0  0  0
   47.2640   33.6830   39.9770 N   0  0  0  0  0  0  0  0  0  0  0  0
   47.7790   33.7970   38.7380 C   0  0  0  0  0  0  0  0  0  0  0  0
   48.8020   33.0230   38.3360 N   0  0  0  0  0  0  0  0  0  0  0  0
   50.1190   31.4540   38.9910 H   0  0  0  0  0  0  0  0  0  0  0  0
   49.1600   31.2940   41.1890 H   0  0  0  0  0  0  0  0  0  0  0  0
   47.3300   34.5380   38.0910 H   0  0  0  0  0  0  0  0  0  0  0  0
   46.5100   33.5850   45.7070 O   0  0  0  0  0  0  0  0  0  0  0  0
   45.6050   31.1790   45.0300 O   0  0  0  0  0  0  0  0  0  0  0  0
   46.2030   31.9990   46.1760 P   0  0  2  0  0  0  0  0  0  0  0  0
   44.9460   32.0840   47.3380 O   0  0  0  0  0  0  0  0  0  0  0  0
   45.3240   32.2250   48.2420 H   0  0  0  0  0  0  0  0  0  0  0  0
   47.5210   31.2820   46.8820 O   0  0  0  0  0  0  0  0  0  0  0  0
   47.9260   30.1030   46.3240 C   0  0  0  0  0  2  0  0  0  0  0  0
   48.8260   29.4530   47.2620 N   0  0  0  0  0  4  0  0  0  0  0  0
   49.7630   29.3920   46.8080 H   0  0  0  0  0  0  0  0  0  0  0  0
   48.9620   30.2590   48.4610 C   0  0  0  0  0  2  0  0  0  0  0  0
   47.9990   30.7470   48.7230 H   0  0  0  0  0  0  0  0  0  0  0  0
   48.3690   28.1350   47.6460 C   0  0  0  0  0  2  0  0  0  0  0  0
   47.2960   28.0760   47.8120 H   0  0  0  0  0  0  0  0  0  0  0  0
  1  6  1  0  0  0  0
  2  8  1  0  0  0  0
  2  1  1  0  0  0  0
  3  2  1  0  0  0  0
  3  4  1  0  0  0  0
  4 12  1  0  0  0  0
  4  5  1  0  0  0  0
  5 13  1  0  0  0  0
  5 14  1  0  0  0  0
  6 15  1  6  0  0  0
  6  5  1  0  0  0  0
  6 31  1  0  0  0  0
  7  2  1  0  0  0  0
  9  3  1  0  0  0  0
 10  3  1  0  0  0  0
 11  4  1  0  0  0  0
 16  1  1  0  0  0  0
 16 17  1  0  0  0  0
 18 16  1  0  0  0  0
 19 21  1  0  0  0  0
 19 16  1  0  0  0  0
 20 19  1  0  0  0  0
 22 23  1  0  0  0  0
 23 24  2  0  0  0  0
 23 29  1  0  0  0  0
 24 19  1  0  0  0  0
 25 24  1  0  0  0  0
 26 25  2  0  0  0  0
 27 26  1  0  0  0  0
 27 22  2  0  0  0  0
 28 22  1  0  0  0  0
 30 26  1  0  0  0  0
 31 33  1  0  0  0  0
 33 32  2  6  0  0  0
 33 36  1  0  0  0  0
 33 34  1  0  0  0  0
 34 35  1  0  0  0  0
 37 36  1  0  0  0  0
 37 38  1  0  0  0  0
 38 42  1  0  0  0  0
 38 40  1  0  0  0  0
 39 38  1  0  0  0  0
 40 41  1  0  0  0  0
 42 43  1  0  0  0  0
M  END
>  <minimizedAffinity>
-4.03614807

>  <minimizedRMSD>
1.4637022

$$$$
