
 OpenBabel03252508583D

 43 44  0  0  1  0  0  0  0  0999 V2000
   46.6010   34.5540   43.6110 N   0  0  0  0  0  0  0  0  0  0  0  0
   46.0940   35.5430   42.7280 C   0  0  0  0  0  0  0  0  0  0  0  0
   44.5950   35.7140   42.7430 C   0  0  0  0  0  0  0  0  0  0  0  0
   43.9460   35.4490   44.0760 C   0  0  0  0  0  0  0  0  0  0  0  0
   44.9750   35.1860   45.1490 C   0  0  0  0  0  0  0  0  0  0  0  0
   45.7920   33.9700   44.5740 C   0  0  2  0  0  0  0  0  0  0  0  0
   46.3960   35.4570   41.6810 H   0  0  0  0  0  0  0  0  0  0  0  0
   46.5290   36.5210   43.0800 H   0  0  0  0  0  0  0  0  0  0  0  0
   44.3460   36.7740   42.4750 H   0  0  0  0  0  0  0  0  0  0  0  0
   44.1690   35.1110   41.9170 H   0  0  0  0  0  0  0  0  0  0  0  0
   43.2950   34.5620   44.0190 H   0  0  0  0  0  0  0  0  0  0  0  0
   43.3070   36.2850   44.4350 H   0  0  0  0  0  0  0  0  0  0  0  0
   45.6700   36.0110   45.3090 H   0  0  0  0  0  0  0  0  0  0  0  0
   44.4980   34.7650   46.0420 H   0  0  0  0  0  0  0  0  0  0  0  0
   45.0560   33.2090   44.2360 H   0  0  0  0  0  0  0  0  0  0  0  0
   47.6950   33.7970   43.0780 C   0  0  0  0  0  0  0  0  0  0  0  0
   48.2800   33.2940   43.8860 H   0  0  0  0  0  0  0  0  0  0  0  0
   48.3690   34.4600   42.5300 H   0  0  0  0  0  0  0  0  0  0  0  0
   47.1460   32.7150   42.1950 C   0  0  0  0  0  0  0  0  0  0  0  0
   46.0360   32.8320   42.0730 H   0  0  0  0  0  0  0  0  0  0  0  0
   47.3020   31.6920   42.5530 H   0  0  0  0  0  0  0  0  0  0  0  0
   49.0500   31.9930   39.0370 C   0  0  0  0  0  0  0  0  0  0  0  0
   48.5050   31.8590   40.3280 C   0  0  0  0  0  0  0  0  0  0  0  0
   47.7170   32.8660   40.8300 C   0  0  0  0  0  0  0  0  0  0  0  0
   47.5070   33.9380   40.0540 N   0  0  0  0  0  0  0  0  0  0  0  0
   48.0350   34.0540   38.8210 C   0  0  0  0  0  0  0  0  0  0  0  0
   48.8090   33.0840   38.3010 N   0  0  0  0  0  0  0  0  0  0  0  0
   49.6510   31.1530   38.7330 H   0  0  0  0  0  0  0  0  0  0  0  0
   48.6830   31.0010   40.9280 H   0  0  0  0  0  0  0  0  0  0  0  0
   47.8040   34.9580   38.2750 H   0  0  0  0  0  0  0  0  0  0  0  0
   46.5200   33.5780   45.6860 O   0  0  0  0  0  0  0  0  0  0  0  0
   45.6270   31.1730   44.9890 O   0  0  0  0  0  0  0  0  0  0  0  0
   46.2020   31.9910   46.1480 P   0  0  2  0  0  0  0  0  0  0  0  0
   44.9210   32.0770   47.2840 O   0  0  0  0  0  0  0  0  0  0  0  0
   45.2810   32.2170   48.1960 H   0  0  0  0  0  0  0  0  0  0  0  0
   47.5050   31.2740   46.8800 O   0  0  0  0  0  0  0  0  0  0  0  0
   47.9280   30.1010   46.3230 C   0  0  0  0  0  2  0  0  0  0  0  0
   48.8290   29.4590   47.2660 N   0  0  0  0  0  4  0  0  0  0  0  0
   49.7690   29.4030   46.8150 H   0  0  0  0  0  0  0  0  0  0  0  0
   48.9550   30.2700   48.4630 C   0  0  0  0  0  2  0  0  0  0  0  0
   47.9890   30.7530   48.7200 H   0  0  0  0  0  0  0  0  0  0  0  0
   48.3790   28.1390   47.6530 C   0  0  0  0  0  2  0  0  0  0  0  0
   47.3060   28.0750   47.8160 H   0  0  0  0  0  0  0  0  0  0  0  0
  1  6  1  0  0  0  0
  2  3  1  0  0  0  0
  2  8  1  0  0  0  0
  2  1  1  0  0  0  0
  3  4  1  0  0  0  0
  4 12  1  0  0  0  0
  4  5  1  0  0  0  0
  5 13  1  0  0  0  0
  5 14  1  0  0  0  0
  6 15  1  6  0  0  0
  6  5  1  0  0  0  0
  6 31  1  0  0  0  0
  7  2  1  0  0  0  0
  9  3  1  0  0  0  0
 10  3  1  0  0  0  0
 11  4  1  0  0  0  0
 16  1  1  0  0  0  0
 16 17  1  0  0  0  0
 18 16  1  0  0  0  0
 19 21  1  0  0  0  0
 19 16  1  0  0  0  0
 20 19  1  0  0  0  0
 22 23  1  0  0  0  0
 23 24  2  0  0  0  0
 23 29  1  0  0  0  0
 24 19  1  0  0  0  0
 25 24  1  0  0  0  0
 26 25  2  0  0  0  0
 27 26  1  0  0  0  0
 27 22  2  0  0  0  0
 28 22  1  0  0  0  0
 30 26  1  0  0  0  0
 31 33  1  0  0  0  0
 33 32  2  6  0  0  0
 33 36  1  0  0  0  0
 33 34  1  0  0  0  0
 34 35  1  0  0  0  0
 37 36  1  0  0  0  0
 37 38  1  0  0  0  0
 38 42  1  0  0  0  0
 38 40  1  0  0  0  0
 39 38  1  0  0  0  0
 40 41  1  0  0  0  0
 42 43  1  0  0  0  0
M  END
>  <minimizedAffinity>
-4.02166176

>  <minimizedRMSD>
1.28661966

$$$$
