
 OpenBabel03252508593D

 43 44  0  0  1  0  0  0  0  0999 V2000
   46.7360   34.3610   43.6570 N   0  0  0  0  0  0  0  0  0  0  0  0
   46.3230   35.1630   42.5610 C   0  0  0  0  0  0  0  0  0  0  0  0
   44.8310   35.3200   42.4030 C   0  0  0  0  0  0  0  0  0  0  0  0
   44.0570   35.3040   43.6950 C   0  0  0  0  0  0  0  0  0  0  0  0
   44.9790   35.2560   44.8900 C   0  0  0  0  0  0  0  0  0  0  0  0
   45.8350   33.9610   44.6320 C   0  0  2  0  0  0  0  0  0  0  0  0
   46.7220   34.8850   41.5810 H   0  0  0  0  0  0  0  0  0  0  0  0
   46.7320   36.1940   42.7630 H   0  0  0  0  0  0  0  0  0  0  0  0
   44.6180   36.3090   41.9190 H   0  0  0  0  0  0  0  0  0  0  0  0
   44.4790   34.5690   41.6670 H   0  0  0  0  0  0  0  0  0  0  0  0
   43.4070   34.4160   43.7440 H   0  0  0  0  0  0  0  0  0  0  0  0
   43.3950   36.1870   43.8290 H   0  0  0  0  0  0  0  0  0  0  0  0
   45.6630   36.1030   44.9570 H   0  0  0  0  0  0  0  0  0  0  0  0
   44.4150   35.0050   45.7970 H   0  0  0  0  0  0  0  0  0  0  0  0
   45.1270   33.1430   44.3750 H   0  0  0  0  0  0  0  0  0  0  0  0
   47.8680   33.5280   43.3810 C   0  0  0  0  0  0  0  0  0  0  0  0
   48.3370   33.1440   44.3200 H   0  0  0  0  0  0  0  0  0  0  0  0
   48.6220   34.0990   42.8330 H   0  0  0  0  0  0  0  0  0  0  0  0
   47.4070   32.3320   42.6000 C   0  0  0  0  0  0  0  0  0  0  0  0
   46.3360   32.4580   42.2850 H   0  0  0  0  0  0  0  0  0  0  0  0
   47.4520   31.3770   43.1320 H   0  0  0  0  0  0  0  0  0  0  0  0
   50.2170   31.6700   40.1950 C   0  0  0  0  0  0  0  0  0  0  0  0
   49.4700   31.7550   41.3850 C   0  0  0  0  0  0  0  0  0  0  0  0
   48.1880   32.2460   41.3370 C   0  0  0  0  0  0  0  0  0  0  0  0
   47.7110   32.6240   40.1430 N   0  0  0  0  0  0  0  0  0  0  0  0
   48.4360   32.5380   39.0130 C   0  0  0  0  0  0  0  0  0  0  0  0
   49.6940   32.0600   39.0270 N   0  0  0  0  0  0  0  0  0  0  0  0
   51.2080   31.2720   40.3360 H   0  0  0  0  0  0  0  0  0  0  0  0
   49.8660   31.4500   42.3220 H   0  0  0  0  0  0  0  0  0  0  0  0
   47.9580   32.8690   38.1010 H   0  0  0  0  0  0  0  0  0  0  0  0
   46.4510   33.7900   45.8620 O   0  0  0  0  0  0  0  0  0  0  0  0
   45.7370   31.2630   45.4520 O   0  0  0  0  0  0  0  0  0  0  0  0
   46.1840   32.2650   46.5200 P   0  0  2  0  0  0  0  0  0  0  0  0
   44.8230   32.4250   47.5480 O   0  0  0  0  0  0  0  0  0  0  0  0
   45.1090   32.7100   48.4530 H   0  0  0  0  0  0  0  0  0  0  0  0
   47.4670   31.7350   47.4270 O   0  0  0  0  0  0  0  0  0  0  0  0
   47.8010   30.4190   47.2720 C   0  0  0  0  0  2  0  0  0  0  0  0
   48.9580   30.1530   48.1100 N   0  0  0  0  0  4  0  0  0  0  0  0
   49.7800   30.6220   47.6710 H   0  0  0  0  0  0  0  0  0  0  0  0
   48.7620   30.7320   49.4270 C   0  0  0  0  0  2  0  0  0  0  0  0
   47.7010   30.6470   49.7440 H   0  0  0  0  0  0  0  0  0  0  0  0
   49.2150   28.7360   48.2670 C   0  0  0  0  0  2  0  0  0  0  0  0
   48.3140   28.1420   48.4000 H   0  0  0  0  0  0  0  0  0  0  0  0
  1  6  1  0  0  0  0
  2  8  1  0  0  0  0
  2  1  1  0  0  0  0
  3  2  1  0  0  0  0
  3  4  1  0  0  0  0
  4 11  1  0  0  0  0
  4 12  1  0  0  0  0
  4  5  1  0  0  0  0
  5 13  1  0  0  0  0
  5 14  1  0  0  0  0
  6 15  1  6  0  0  0
  6  5  1  0  0  0  0
  6 31  1  0  0  0  0
  7  2  1  0  0  0  0
  9  3  1  0  0  0  0
 10  3  1  0  0  0  0
 16  1  1  0  0  0  0
 16 17  1  0  0  0  0
 18 16  1  0  0  0  0
 19 21  1  0  0  0  0
 19 16  1  0  0  0  0
 20 19  1  0  0  0  0
 22 28  1  0  0  0  0
 22 23  1  0  0  0  0
 23 29  1  0  0  0  0
 24 23  2  0  0  0  0
 24 19  1  0  0  0  0
 25 24  1  0  0  0  0
 26 27  1  0  0  0  0
 26 25  2  0  0  0  0
 27 22  2  0  0  0  0
 30 26  1  0  0  0  0
 31 33  1  0  0  0  0
 33 32  2  6  0  0  0
 33 36  1  0  0  0  0
 33 34  1  0  0  0  0
 34 35  1  0  0  0  0
 37 36  1  0  0  0  0
 37 38  1  0  0  0  0
 38 42  1  0  0  0  0
 38 40  1  0  0  0  0
 39 38  1  0  0  0  0
 40 41  1  0  0  0  0
 42 43  1  0  0  0  0
M  END
>  <minimizedAffinity>
-4.24414587

>  <minimizedRMSD>
1.92851508

$$$$
