
 OpenBabel03242518293D

 19 19  0  0  0  0  0  0  0  0999 V2000
   35.8540   29.5040   41.0240 C   0  0  0  0  0  0  0  0  0  0  0  0
   34.8920   29.0880   40.3120 O   0  0  0  0  0  0  0  0  0  0  0  0
   36.7620   28.6870   41.7710 C   0  0  0  0  0  0  0  0  0  0  0  0
   36.7660   27.3480   41.3670 C   0  0  0  0  0  0  0  0  0  0  0  0
   37.6380   26.4790   42.0580 C   0  0  0  0  0  0  0  0  0  0  0  0
   38.4060   26.9710   43.0520 N   0  0  0  0  0  0  0  0  0  0  0  0
   38.3600   28.2840   43.4030 C   0  0  0  0  0  0  0  0  0  0  0  0
   37.5410   29.1230   42.7590 N   0  0  0  0  0  0  0  0  0  0  0  0
   36.1720   26.9070   40.5790 H   0  0  0  0  0  0  0  0  0  0  0  0
   37.6860   25.4350   41.7920 H   0  0  0  0  0  0  0  0  0  0  0  0
   38.9740   28.6960   44.2020 H   0  0  0  0  0  0  0  0  0  0  0  0
   36.0800   30.8650   41.1140 O   0  0  0  0  0  0  0  0  0  0  0  0
   36.8090   31.5510   40.0840 C   0  0  0  0  0  2  0  0  0  0  0  0
   37.2350   32.8580   40.4720 N   0  0  0  0  0  4  0  0  0  0  0  0
   36.7340   33.2130   41.2950 H   0  0  0  0  0  0  0  0  0  0  0  0
   38.6380   32.7100   40.8730 C   0  0  0  0  0  2  0  0  0  0  0  0
   39.0860   32.0360   40.1060 H   0  0  0  0  0  0  0  0  0  0  0  0
   37.2080   33.8180   39.3900 C   0  0  0  0  0  2  0  0  0  0  0  0
   36.2130   34.2100   39.1500 H   0  0  0  0  0  0  0  0  0  0  0  0
  1 12  1  0  0  0  0
  1  3  1  0  0  0  0
  2  1  2  0  0  0  0
  3  8  1  0  0  0  0
  4  3  2  0  0  0  0
  4  5  1  0  0  0  0
  5  6  2  0  0  0  0
  6  7  1  0  0  0  0
  7 11  1  0  0  0  0
  8  7  2  0  0  0  0
  9  4  1  0  0  0  0
 10  5  1  0  0  0  0
 13 14  1  0  0  0  0
 13 12  1  0  0  0  0
 14 16  1  0  0  0  0
 14 15  1  0  0  0  0
 17 16  1  0  0  0  0
 18 14  1  0  0  0  0
 19 18  1  0  0  0  0
M  END
>  <minimizedAffinity>
-3.99012613

$$$$

 OpenBabel03242518293D

 19 19  0  0  0  0  0  0  0  0999 V2000
   37.2640   30.1960   41.5890 C   0  0  0  0  0  0  0  0  0  0  0  0
   36.1500   30.7090   41.2700 O   0  0  0  0  0  0  0  0  0  0  0  0
   37.4850   28.8330   41.9670 C   0  0  0  0  0  0  0  0  0  0  0  0
   38.3630   28.6900   43.0450 C   0  0  0  0  0  0  0  0  0  0  0  0
   38.6310   27.3720   43.4760 C   0  0  0  0  0  0  0  0  0  0  0  0
   38.0400   26.3400   42.8390 N   0  0  0  0  0  0  0  0  0  0  0  0
   37.1950   26.5380   41.7940 C   0  0  0  0  0  0  0  0  0  0  0  0
   36.9280   27.7790   41.3720 N   0  0  0  0  0  0  0  0  0  0  0  0
   38.8590   29.4830   43.5870 H   0  0  0  0  0  0  0  0  0  0  0  0
   39.2990   27.1970   44.3040 H   0  0  0  0  0  0  0  0  0  0  0  0
   36.7110   25.7150   41.2700 H   0  0  0  0  0  0  0  0  0  0  0  0
   38.3940   30.9940   41.5830 O   0  0  0  0  0  0  0  0  0  0  0  0
   38.6470   31.8880   40.4890 C   0  0  0  0  0  2  0  0  0  0  0  0
   37.9250   33.1170   40.5880 N   0  0  0  0  0  4  0  0  0  0  0  0
   37.3310   33.1640   41.4240 H   0  0  0  0  0  0  0  0  0  0  0  0
   38.9460   34.1590   40.7470 C   0  0  0  0  0  2  0  0  0  0  0  0
   39.7500   33.8850   40.0240 H   0  0  0  0  0  0  0  0  0  0  0  0
   37.1770   33.4440   39.3950 C   0  0  0  0  0  2  0  0  0  0  0  0
   36.2340   32.8960   39.2800 H   0  0  0  0  0  0  0  0  0  0  0  0
  1  3  1  0  0  0  0
  2  1  2  0  0  0  0
  3  4  1  0  0  0  0
  4  5  2  0  0  0  0
  4  9  1  0  0  0  0
  5 10  1  0  0  0  0
  6  5  1  0  0  0  0
  7  6  2  0  0  0  0
  8  7  1  0  0  0  0
  8  3  2  0  0  0  0
 11  7  1  0  0  0  0
 12  1  1  0  0  0  0
 13 14  1  0  0  0  0
 13 12  1  0  0  0  0
 14 16  1  0  0  0  0
 14 15  1  0  0  0  0
 17 16  1  0  0  0  0
 18 14  1  0  0  0  0
 19 18  1  0  0  0  0
M  END
>  <minimizedAffinity>
-3.65043235

$$$$

 OpenBabel03242518293D

 19 19  0  0  0  0  0  0  0  0999 V2000
   38.3360   27.8520   42.6980 C   0  0  0  0  0  0  0  0  0  0  0  0
   39.3370   28.5200   43.0950 O   0  0  0  0  0  0  0  0  0  0  0  0
   38.3080   26.4410   42.4590 C   0  0  0  0  0  0  0  0  0  0  0  0
   37.0640   25.9750   42.0240 C   0  0  0  0  0  0  0  0  0  0  0  0
   36.9580   24.5910   41.7670 C   0  0  0  0  0  0  0  0  0  0  0  0
   38.0380   23.8040   41.9500 N   0  0  0  0  0  0  0  0  0  0  0  0
   39.2250   24.3110   42.3760 C   0  0  0  0  0  0  0  0  0  0  0  0
   39.3450   25.6200   42.6240 N   0  0  0  0  0  0  0  0  0  0  0  0
   36.1720   26.5640   41.8620 H   0  0  0  0  0  0  0  0  0  0  0  0
   36.0240   24.1720   41.4280 H   0  0  0  0  0  0  0  0  0  0  0  0
   40.1050   23.6890   42.5290 H   0  0  0  0  0  0  0  0  0  0  0  0
   37.1430   28.5110   42.4640 O   0  0  0  0  0  0  0  0  0  0  0  0
   37.1420   29.8460   41.9370 C   0  0  0  0  0  2  0  0  0  0  0  0
   35.9350   30.1770   41.2460 N   0  0  0  0  0  4  0  0  0  0  0  0
   35.2760   30.7080   41.8280 H   0  0  0  0  0  0  0  0  0  0  0  0
   36.3390   31.0710   40.1560 C   0  0  0  0  0  2  0  0  0  0  0  0
   37.2700   30.6160   39.7430 H   0  0  0  0  0  0  0  0  0  0  0  0
   35.2890   29.0360   40.6350 C   0  0  0  0  0  2  0  0  0  0  0  0
   34.7240   28.4030   41.3290 H   0  0  0  0  0  0  0  0  0  0  0  0
  1  2  2  0  0  0  0
  3  8  1  0  0  0  0
  3  1  1  0  0  0  0
  4  3  2  0  0  0  0
  5  6  2  0  0  0  0
  5  4  1  0  0  0  0
  6  7  1  0  0  0  0
  7 11  1  0  0  0  0
  7  8  2  0  0  0  0
  9  4  1  0  0  0  0
 10  5  1  0  0  0  0
 12  1  1  0  0  0  0
 13 12  1  0  0  0  0
 14 15  1  0  0  0  0
 14 13  1  0  0  0  0
 16 14  1  0  0  0  0
 17 16  1  0  0  0  0
 18 14  1  0  0  0  0
 18 19  1  0  0  0  0
M  END
>  <minimizedAffinity>
-3.63703728

$$$$

 OpenBabel03242518293D

 19 19  0  0  0  0  0  0  0  0999 V2000
   37.4400   28.1120   42.7930 C   0  0  0  0  0  0  0  0  0  0  0  0
   37.8180   29.2080   43.3040 O   0  0  0  0  0  0  0  0  0  0  0  0
   38.1720   26.8820   42.8070 C   0  0  0  0  0  0  0  0  0  0  0  0
   39.3120   26.9220   43.6150 C   0  0  0  0  0  0  0  0  0  0  0  0
   40.0870   25.7430   43.6800 C   0  0  0  0  0  0  0  0  0  0  0  0
   39.6990   24.6620   42.9730 N   0  0  0  0  0  0  0  0  0  0  0  0
   38.5800   24.6800   42.2020 C   0  0  0  0  0  0  0  0  0  0  0  0
   37.8330   25.7860   42.1290 N   0  0  0  0  0  0  0  0  0  0  0  0
   39.6640   27.7610   44.1990 H   0  0  0  0  0  0  0  0  0  0  0  0
   40.9780   25.7120   44.2870 H   0  0  0  0  0  0  0  0  0  0  0  0
   38.2530   23.8140   41.6260 H   0  0  0  0  0  0  0  0  0  0  0  0
   36.2140   28.0590   42.1550 O   0  0  0  0  0  0  0  0  0  0  0  0
   35.9400   28.9130   41.0350 C   0  0  0  0  0  2  0  0  0  0  0  0
   37.0470   29.7420   40.6760 N   0  0  0  0  0  4  0  0  0  0  0  0
   37.8680   29.5910   41.2730 H   0  0  0  0  0  0  0  0  0  0  0  0
   37.4340   29.3180   39.3260 C   0  0  0  0  0  2  0  0  0  0  0  0
   36.4690   29.1770   38.7830 H   0  0  0  0  0  0  0  0  0  0  0  0
   36.7120   31.1470   40.5930 C   0  0  0  0  0  2  0  0  0  0  0  0
   36.6380   31.6580   41.5600 H   0  0  0  0  0  0  0  0  0  0  0  0
  1  3  1  0  0  0  0
  1  2  2  0  0  0  0
  3  4  1  0  0  0  0
  4  5  2  0  0  0  0
  4  9  1  0  0  0  0
  5 10  1  0  0  0  0
  6  5  1  0  0  0  0
  7  6  2  0  0  0  0
  8  7  1  0  0  0  0
  8  3  2  0  0  0  0
 11  7  1  0  0  0  0
 12  1  1  0  0  0  0
 13 12  1  0  0  0  0
 14 13  1  0  0  0  0
 14 15  1  0  0  0  0
 16 14  1  0  0  0  0
 17 16  1  0  0  0  0
 18 14  1  0  0  0  0
 18 19  1  0  0  0  0
M  END
>  <minimizedAffinity>
-3.47341585

$$$$

 OpenBabel03242518293D

 19 19  0  0  0  0  0  0  0  0999 V2000
   37.0350   29.6460   41.6770 C   0  0  0  0  0  0  0  0  0  0  0  0
   36.1930   28.8760   41.1260 O   0  0  0  0  0  0  0  0  0  0  0  0
   37.6000   30.8270   41.0970 C   0  0  0  0  0  0  0  0  0  0  0  0
   36.7550   31.4540   40.1770 C   0  0  0  0  0  0  0  0  0  0  0  0
   37.2440   32.6260   39.5620 C   0  0  0  0  0  0  0  0  0  0  0  0
   38.4760   33.0730   39.8840 N   0  0  0  0  0  0  0  0  0  0  0  0
   39.2560   32.4220   40.7860 C   0  0  0  0  0  0  0  0  0  0  0  0
   38.8090   31.3100   41.3800 N   0  0  0  0  0  0  0  0  0  0  0  0
   35.7640   31.1360   39.8860 H   0  0  0  0  0  0  0  0  0  0  0  0
   36.6380   33.1560   38.8430 H   0  0  0  0  0  0  0  0  0  0  0  0
   40.2520   32.7700   41.0570 H   0  0  0  0  0  0  0  0  0  0  0  0
   37.4720   29.3530   42.9560 O   0  0  0  0  0  0  0  0  0  0  0  0
   37.4200   28.0060   43.4510 C   0  0  0  0  0  2  0  0  0  0  0  0
   38.2780   27.1120   42.7400 N   0  0  0  0  0  4  0  0  0  0  0  0
   38.7330   27.5540   41.9320 H   0  0  0  0  0  0  0  0  0  0  0  0
   39.3500   26.7650   43.6800 C   0  0  0  0  0  2  0  0  0  0  0  0
   38.8330   26.6000   44.6550 H   0  0  0  0  0  0  0  0  0  0  0  0
   37.6340   25.8730   42.3640 C   0  0  0  0  0  2  0  0  0  0  0  0
   36.9780   25.9440   41.4890 H   0  0  0  0  0  0  0  0  0  0  0  0
  1 12  1  0  0  0  0
  2  1  2  0  0  0  0
  3  8  1  0  0  0  0
  3  1  1  0  0  0  0
  4  3  2  0  0  0  0
  5  6  2  0  0  0  0
  5  4  1  0  0  0  0
  6  7  1  0  0  0  0
  7 11  1  0  0  0  0
  7  8  2  0  0  0  0
  9  4  1  0  0  0  0
 10  5  1  0  0  0  0
 12 13  1  0  0  0  0
 14 13  1  0  0  0  0
 14 16  1  0  0  0  0
 15 14  1  0  0  0  0
 16 17  1  0  0  0  0
 18 14  1  0  0  0  0
 19 18  1  0  0  0  0
M  END
>  <minimizedAffinity>
-3.4074471

$$$$

 OpenBabel03242518293D

 19 19  0  0  0  0  0  0  0  0999 V2000
   36.2210   30.2050   40.6380 C   0  0  0  0  0  0  0  0  0  0  0  0
   35.4180   29.7800   39.7540 O   0  0  0  0  0  0  0  0  0  0  0  0
   36.8920   29.4070   41.6180 C   0  0  0  0  0  0  0  0  0  0  0  0
   36.2870   28.1650   41.8320 C   0  0  0  0  0  0  0  0  0  0  0  0
   36.8920   27.3200   42.7870 C   0  0  0  0  0  0  0  0  0  0  0  0
   37.9990   27.7430   43.4330 N   0  0  0  0  0  0  0  0  0  0  0  0
   38.5440   28.9630   43.1850 C   0  0  0  0  0  0  0  0  0  0  0  0
   37.9850   29.7780   42.2830 N   0  0  0  0  0  0  0  0  0  0  0  0
   35.4040   27.7810   41.3420 H   0  0  0  0  0  0  0  0  0  0  0  0
   36.4730   26.3480   42.9960 H   0  0  0  0  0  0  0  0  0  0  0  0
   39.4370   29.3190   43.6980 H   0  0  0  0  0  0  0  0  0  0  0  0
   36.5010   31.5590   40.6910 O   0  0  0  0  0  0  0  0  0  0  0  0
   37.1660   32.2070   39.5960 C   0  0  0  0  0  2  0  0  0  0  0  0
   37.9830   31.3200   38.8290 N   0  0  0  0  0  4  0  0  0  0  0  0
   37.7240   30.3340   38.9520 H   0  0  0  0  0  0  0  0  0  0  0  0
   37.7080   31.6490   37.4260 C   0  0  0  0  0  2  0  0  0  0  0  0
   37.6770   32.7630   37.3940 H   0  0  0  0  0  0  0  0  0  0  0  0
   39.4000   31.5190   39.0350 C   0  0  0  0  0  2  0  0  0  0  0  0
   39.7940   31.0860   39.9630 H   0  0  0  0  0  0  0  0  0  0  0  0
  1 12  1  0  0  0  0
  1  3  1  0  0  0  0
  2  1  2  0  0  0  0
  3  4  2  0  0  0  0
  3  8  1  0  0  0  0
  4  5  1  0  0  0  0
  5 10  1  0  0  0  0
  5  6  2  0  0  0  0
  7  6  1  0  0  0  0
  7 11  1  0  0  0  0
  8  7  2  0  0  0  0
  9  4  1  0  0  0  0
 13 12  1  0  0  0  0
 14 15  1  0  0  0  0
 14 18  1  0  0  0  0
 14 13  1  0  0  0  0
 16 14  1  0  0  0  0
 17 16  1  0  0  0  0
 18 19  1  0  0  0  0
M  END
>  <minimizedAffinity>
-3.39244032

$$$$

 OpenBabel03242518293D

 19 19  0  0  0  0  0  0  0  0999 V2000
   38.7700   30.8800   41.7600 C   0  0  0  0  0  0  0  0  0  0  0  0
   39.9550   31.1850   42.0900 O   0  0  0  0  0  0  0  0  0  0  0  0
   38.0450   29.7270   42.2000 C   0  0  0  0  0  0  0  0  0  0  0  0
   37.0560   29.3150   41.3020 C   0  0  0  0  0  0  0  0  0  0  0  0
   36.2980   28.1820   41.6680 C   0  0  0  0  0  0  0  0  0  0  0  0
   36.5570   27.5670   42.8400 N   0  0  0  0  0  0  0  0  0  0  0  0
   37.5320   28.0130   43.6770 C   0  0  0  0  0  0  0  0  0  0  0  0
   38.2610   29.0840   43.3470 N   0  0  0  0  0  0  0  0  0  0  0  0
   36.8110   29.7710   40.3530 H   0  0  0  0  0  0  0  0  0  0  0  0
   35.5210   27.8150   41.0160 H   0  0  0  0  0  0  0  0  0  0  0  0
   37.7530   27.5270   44.6260 H   0  0  0  0  0  0  0  0  0  0  0  0
   38.0810   31.7120   40.8960 O   0  0  0  0  0  0  0  0  0  0  0  0
   38.7310   32.8510   40.3120 C   0  0  0  0  0  2  0  0  0  0  0  0
   38.6260   32.8880   38.8870 N   0  0  0  0  0  4  0  0  0  0  0  0
   38.6680   33.8430   38.5090 H   0  0  0  0  0  0  0  0  0  0  0  0
   39.8180   32.1940   38.3880 C   0  0  0  0  0  2  0  0  0  0  0  0
   39.9280   31.3030   39.0510 H   0  0  0  0  0  0  0  0  0  0  0  0
   37.4790   32.1730   38.3740 C   0  0  0  0  0  2  0  0  0  0  0  0
   36.5270   32.7090   38.4620 H   0  0  0  0  0  0  0  0  0  0  0  0
  1  2  2  0  0  0  0
  1  3  1  0  0  0  0
  3  8  1  0  0  0  0
  4  5  1  0  0  0  0
  4  3  2  0  0  0  0
  5  6  2  0  0  0  0
  6  7  1  0  0  0  0
  7 11  1  0  0  0  0
  8  7  2  0  0  0  0
  9  4  1  0  0  0  0
 10  5  1  0  0  0  0
 12  1  1  0  0  0  0
 13 12  1  0  0  0  0
 14 13  1  0  0  0  0
 15 14  1  0  0  0  0
 16 14  1  0  0  0  0
 16 17  1  0  0  0  0
 18 19  1  0  0  0  0
 18 14  1  0  0  0  0
M  END
>  <minimizedAffinity>
-3.34651899

$$$$

 OpenBabel03242518293D

 19 19  0  0  0  0  0  0  0  0999 V2000
   36.7270   30.5860   41.0330 C   0  0  0  0  0  0  0  0  0  0  0  0
   35.6600   30.3550   40.3890 O   0  0  0  0  0  0  0  0  0  0  0  0
   37.6580   31.6400   40.7660 C   0  0  0  0  0  0  0  0  0  0  0  0
   38.9530   31.3640   41.2140 C   0  0  0  0  0  0  0  0  0  0  0  0
   39.9290   32.3590   40.9870 C   0  0  0  0  0  0  0  0  0  0  0  0
   39.5710   33.5010   40.3640 N   0  0  0  0  0  0  0  0  0  0  0  0
   38.2950   33.7160   39.9510 C   0  0  0  0  0  0  0  0  0  0  0  0
   37.3560   32.7860   40.1570 N   0  0  0  0  0  0  0  0  0  0  0  0
   39.2880   30.4670   41.7150 H   0  0  0  0  0  0  0  0  0  0  0  0
   40.9470   32.2040   41.3080 H   0  0  0  0  0  0  0  0  0  0  0  0
   37.9910   34.6330   39.4470 H   0  0  0  0  0  0  0  0  0  0  0  0
   37.0560   29.7660   42.0970 O   0  0  0  0  0  0  0  0  0  0  0  0
   36.7580   28.3630   42.0530 C   0  0  0  0  0  2  0  0  0  0  0  0
   37.9260   27.5390   42.0690 N   0  0  0  0  0  4  0  0  0  0  0  0
   38.5020   27.6490   41.2260 H   0  0  0  0  0  0  0  0  0  0  0  0
   38.7360   28.0290   43.1900 C   0  0  0  0  0  2  0  0  0  0  0  0
   38.0060   28.2100   44.0130 H   0  0  0  0  0  0  0  0  0  0  0  0
   37.6450   26.1460   42.3330 C   0  0  0  0  0  2  0  0  0  0  0  0
   37.2570   25.5850   41.4740 H   0  0  0  0  0  0  0  0  0  0  0  0
  1 12  1  0  0  0  0
  2  1  2  0  0  0  0
  3  1  1  0  0  0  0
  3  4  1  0  0  0  0
  4  9  1  0  0  0  0
  5  4  2  0  0  0  0
  5 10  1  0  0  0  0
  6  5  1  0  0  0  0
  7  8  1  0  0  0  0
  7  6  2  0  0  0  0
  8  3  2  0  0  0  0
 11  7  1  0  0  0  0
 13 14  1  0  0  0  0
 13 12  1  0  0  0  0
 14 18  1  0  0  0  0
 14 16  1  0  0  0  0
 15 14  1  0  0  0  0
 16 17  1  0  0  0  0
 19 18  1  0  0  0  0
M  END
>  <minimizedAffinity>
-3.30517197

$$$$

 OpenBabel03242518293D

 19 19  0  0  0  0  0  0  0  0999 V2000
   37.4710   28.1470   43.0370 C   0  0  0  0  0  0  0  0  0  0  0  0
   36.4060   27.5730   43.4140 O   0  0  0  0  0  0  0  0  0  0  0  0
   37.5490   29.3430   42.2540 C   0  0  0  0  0  0  0  0  0  0  0  0
   38.8140   29.9380   42.2730 C   0  0  0  0  0  0  0  0  0  0  0  0
   38.9700   31.1230   41.5220 C   0  0  0  0  0  0  0  0  0  0  0  0
   37.9140   31.6130   40.8410 N   0  0  0  0  0  0  0  0  0  0  0  0
   36.7050   30.9930   40.8590 C   0  0  0  0  0  0  0  0  0  0  0  0
   36.5380   29.8680   41.5630 N   0  0  0  0  0  0  0  0  0  0  0  0
   39.6890   29.5850   42.8010 H   0  0  0  0  0  0  0  0  0  0  0  0
   39.9220   31.6290   41.4970 H   0  0  0  0  0  0  0  0  0  0  0  0
   35.8430   31.3760   40.3130 H   0  0  0  0  0  0  0  0  0  0  0  0
   38.6880   27.5980   43.3950 O   0  0  0  0  0  0  0  0  0  0  0  0
   39.0160   26.2500   43.0250 C   0  0  0  0  0  2  0  0  0  0  0  0
   38.2500   25.7690   41.9180 N   0  0  0  0  0  4  0  0  0  0  0  0
   37.5220   26.4290   41.6200 H   0  0  0  0  0  0  0  0  0  0  0  0
   39.1970   25.6670   40.8020 C   0  0  0  0  0  2  0  0  0  0  0  0
   40.1200   25.2270   41.2490 H   0  0  0  0  0  0  0  0  0  0  0  0
   37.7040   24.4470   42.1260 C   0  0  0  0  0  2  0  0  0  0  0  0
   36.8110   24.4140   42.7620 H   0  0  0  0  0  0  0  0  0  0  0  0
  1 12  1  0  0  0  0
  1  2  2  0  0  0  0
  3  4  1  0  0  0  0
  3  1  1  0  0  0  0
  4  9  1  0  0  0  0
  5  4  2  0  0  0  0
  6  7  2  0  0  0  0
  6  5  1  0  0  0  0
  7  8  1  0  0  0  0
  8  3  2  0  0  0  0
 10  5  1  0  0  0  0
 11  7  1  0  0  0  0
 13 12  1  0  0  0  0
 14 18  1  0  0  0  0
 14 13  1  0  0  0  0
 15 14  1  0  0  0  0
 16 17  1  0  0  0  0
 16 14  1  0  0  0  0
 18 19  1  0  0  0  0
M  END
>  <minimizedAffinity>
-3.2772429

$$$$
