
 OpenBabel03242518283D

 19 19  0  0  0  0  0  0  0  0999 V2000
   47.0920   34.9390   41.9400 C   0  0  0  0  0  0  0  0  0  0  0  0
   48.1960   35.5430   41.7880 O   0  0  0  0  0  0  0  0  0  0  0  0
   46.3200   34.8890   43.1450 C   0  0  0  0  0  0  0  0  0  0  0  0
   45.3640   35.9050   43.2350 C   0  0  0  0  0  0  0  0  0  0  0  0
   44.5620   35.9220   44.3970 C   0  0  0  0  0  0  0  0  0  0  0  0
   44.7540   34.9780   45.3420 N   0  0  0  0  0  0  0  0  0  0  0  0
   45.7000   34.0130   45.2010 C   0  0  0  0  0  0  0  0  0  0  0  0
   46.4690   33.9800   44.1070 N   0  0  0  0  0  0  0  0  0  0  0  0
   45.1720   36.6810   42.5070 H   0  0  0  0  0  0  0  0  0  0  0  0
   43.8070   36.6810   44.5240 H   0  0  0  0  0  0  0  0  0  0  0  0
   45.8670   33.2450   45.9550 H   0  0  0  0  0  0  0  0  0  0  0  0
   46.5510   34.2540   40.8670 O   0  0  0  0  0  0  0  0  0  0  0  0
   47.3780   33.8700   39.7580 C   0  0  0  0  0  2  0  0  0  0  0  0
   47.3540   32.4660   39.4980 N   0  0  0  0  0  4  0  0  0  0  0  0
   46.4600   32.1480   39.1050 H   0  0  0  0  0  0  0  0  0  0  0  0
   48.3670   32.2420   38.4590 C   0  0  0  0  0  2  0  0  0  0  0  0
   49.2340   32.8750   38.7650 H   0  0  0  0  0  0  0  0  0  0  0  0
   47.7390   31.6630   40.6370 C   0  0  0  0  0  2  0  0  0  0  0  0
   46.9580   31.5400   41.3960 H   0  0  0  0  0  0  0  0  0  0  0  0
  1  3  1  0  0  0  0
  2  1  2  0  0  0  0
  3  4  2  0  0  0  0
  3  8  1  0  0  0  0
  4  5  1  0  0  0  0
  5 10  1  0  0  0  0
  5  6  2  0  0  0  0
  7  6  1  0  0  0  0
  7 11  1  0  0  0  0
  8  7  2  0  0  0  0
  9  4  1  0  0  0  0
 12  1  1  0  0  0  0
 13 12  1  0  0  0  0
 14 13  1  0  0  0  0
 14 18  1  0  0  0  0
 15 14  1  0  0  0  0
 16 17  1  0  0  0  0
 16 14  1  0  0  0  0
 18 19  1  0  0  0  0
M  END
>  <minimizedAffinity>
-3.42958713

>  <minimizedRMSD>
0.805683315

$$$$
