
 OpenBabel03242517103D

 45 47  0  0  1  0  0  0  0  0999 V2000
   46.1950   33.6120   43.3890 C   0  0  2  0  0  0  0  0  0  0  0  0
   45.4050   34.7290   42.7990 C   0  0  2  0  0  0  0  0  0  0  0  0
   45.2350   35.8740   43.7250 C   0  0  0  0  0  0  0  0  0  0  0  0
   44.7060   35.5040   45.0850 C   0  0  0  0  0  0  0  0  0  0  0  0
   45.1970   34.1830   45.5900 C   0  0  0  0  0  0  0  0  0  0  0  0
   46.4430   33.7170   44.8650 C   0  0  0  0  0  0  0  0  0  0  0  0
   45.6280   32.6500   43.2090 H   0  0  0  0  0  0  0  0  0  0  0  0
   45.9430   35.1040   41.9010 H   0  0  0  0  0  0  0  0  0  0  0  0
   44.5690   36.6200   43.2610 H   0  0  0  0  0  0  0  0  0  0  0  0
   46.2180   36.3860   43.8800 H   0  0  0  0  0  0  0  0  0  0  0  0
   43.5860   35.4360   44.9890 H   0  0  0  0  0  0  0  0  0  0  0  0
   44.8980   36.3430   45.7770 H   0  0  0  0  0  0  0  0  0  0  0  0
   45.5210   34.3540   46.6470 H   0  0  0  0  0  0  0  0  0  0  0  0
   44.4310   33.3980   45.6350 H   0  0  0  0  0  0  0  0  0  0  0  0
   47.3190   34.2540   45.1900 H   0  0  0  0  0  0  0  0  0  0  0  0
   46.5960   32.6540   45.2300 H   0  0  0  0  0  0  0  0  0  0  0  0
   43.1930   35.2540   41.6990 C   0  0  1  0  0  0  0  0  0  0  0  0
   44.0670   34.2180   42.3110 C   0  0  1  0  0  0  0  0  0  0  0  0
   44.3030   33.2210   41.3740 O   0  0  0  0  0  0  0  0  0  0  0  0
   44.0260   33.7450   40.1200 C   0  0  0  0  0  0  0  0  0  0  0  0
   42.7700   34.5330   40.4010 C   0  0  2  0  0  0  0  0  0  0  0  0
   43.6990   36.1800   41.4210 H   0  0  0  0  0  0  0  0  0  0  0  0
   43.5110   33.7600   43.1640 H   0  0  0  0  0  0  0  0  0  0  0  0
   43.8930   32.9060   39.4290 H   0  0  0  0  0  0  0  0  0  0  0  0
   44.8390   34.4290   39.7850 H   0  0  0  0  0  0  0  0  0  0  0  0
   41.9180   33.8850   40.6040 H   0  0  0  0  0  0  0  0  0  0  0  0
   42.0490   35.5130   42.4300 O   0  0  0  0  0  0  0  0  0  0  0  0
   41.3520   35.9760   41.9290 H   0  0  0  0  0  0  0  0  0  0  0  0
   42.5250   35.4800   39.4140 O   0  0  0  0  0  0  0  0  0  0  0  0
   41.1900   35.4420   39.0670 C   0  0  0  0  0  2  0  0  0  0  0  0
   40.9540   35.2290   37.6610 N   0  0  0  0  0  4  0  0  0  0  0  0
   41.6480   34.5840   37.2590 H   0  0  0  0  0  0  0  0  0  0  0  0
   39.6200   34.6470   37.4810 C   0  0  0  0  0  2  0  0  0  0  0  0
   38.9450   35.4950   37.2310 H   0  0  0  0  0  0  0  0  0  0  0  0
   41.0280   36.4920   36.9330 C   0  0  0  0  0  2  0  0  0  0  0  0
   40.7700   36.3070   35.8810 H   0  0  0  0  0  0  0  0  0  0  0  0
   47.4900   33.4180   42.7070 C   0  0  0  0  0  0  0  0  0  0  0  0
   48.4790   34.3400   43.0480 C   0  0  0  0  0  0  0  0  0  0  0  0
   49.7540   34.2510   42.4630 C   0  0  0  0  0  0  0  0  0  0  0  0
   49.9300   33.2120   41.5600 N   0  0  0  0  0  0  0  0  0  0  0  0
   48.9410   32.3380   41.2570 C   0  0  0  0  0  0  0  0  0  0  0  0
   47.7280   32.4440   41.8300 N   0  0  0  0  0  0  0  0  0  0  0  0
   48.4850   35.1890   43.7120 H   0  0  0  0  0  0  0  0  0  0  0  0
   50.5950   34.9000   42.6470 H   0  0  0  0  0  0  0  0  0  0  0  0
   49.2030   31.5720   40.5360 H   0  0  0  0  0  0  0  0  0  0  0  0
  1  7  1  6  0  0  0
  1  6  1  0  0  0  0
  2  8  1  6  0  0  0
  2  1  1  0  0  0  0
  2  3  1  0  0  0  0
  3 10  1  0  0  0  0
  3  4  1  0  0  0  0
  4  5  1  0  0  0  0
  4 12  1  0  0  0  0
  5 14  1  0  0  0  0
  5 13  1  0  0  0  0
  6 15  1  0  0  0  0
  6 16  1  0  0  0  0
  6  5  1  0  0  0  0
  9  3  1  0  0  0  0
 11  4  1  0  0  0  0
 17 22  1  6  0  0  0
 17 18  1  0  0  0  0
 17 27  1  0  0  0  0
 18  2  1  0  0  0  0
 18 23  1  1  0  0  0
 19 18  1  0  0  0  0
 20 21  1  0  0  0  0
 20 19  1  0  0  0  0
 21 26  1  1  0  0  0
 21 17  1  0  0  0  0
 24 20  1  0  0  0  0
 25 20  1  0  0  0  0
 28 27  1  0  0  0  0
 29 21  1  0  0  0  0
 30 29  1  0  0  0  0
 31 30  1  0  0  0  0
 32 31  1  0  0  0  0
 33 31  1  0  0  0  0
 34 33  1  0  0  0  0
 35 31  1  0  0  0  0
 36 35  1  0  0  0  0
 37 38  1  0  0  0  0
 37  1  1  0  0  0  0
 38 43  1  0  0  0  0
 39 44  1  0  0  0  0
 39 38  2  0  0  0  0
 40 39  1  0  0  0  0
 41 40  2  0  0  0  0
 41 42  1  0  0  0  0
 42 37  2  0  0  0  0
 45 41  1  0  0  0  0
M  END
>  <minimizedAffinity>
-5.78365993

>  <minimizedRMSD>
0.599750042

$$$$
