
 OpenBabel03242517103D

 45 47  0  0  1  0  0  0  0  0999 V2000
   46.0480   33.8180   43.1980 C   0  0  2  0  0  0  0  0  0  0  0  0
   45.2470   34.8810   42.5280 C   0  0  2  0  0  0  0  0  0  0  0  0
   45.0840   36.0970   43.3600 C   0  0  0  0  0  0  0  0  0  0  0  0
   44.5740   35.8390   44.7520 C   0  0  0  0  0  0  0  0  0  0  0  0
   45.0760   34.5650   45.3570 C   0  0  0  0  0  0  0  0  0  0  0  0
   46.3140   34.0440   44.6560 C   0  0  0  0  0  0  0  0  0  0  0  0
   45.4820   32.8430   43.1040 H   0  0  0  0  0  0  0  0  0  0  0  0
   45.7720   35.1820   41.5960 H   0  0  0  0  0  0  0  0  0  0  0  0
   44.4100   36.8020   42.8440 H   0  0  0  0  0  0  0  0  0  0  0  0
   46.0670   36.6230   43.4590 H   0  0  0  0  0  0  0  0  0  0  0  0
   43.4530   35.7600   44.6760 H   0  0  0  0  0  0  0  0  0  0  0  0
   44.7720   36.7330   45.3700 H   0  0  0  0  0  0  0  0  0  0  0  0
   45.4130   34.8230   46.3920 H   0  0  0  0  0  0  0  0  0  0  0  0
   44.3130   33.7840   45.4760 H   0  0  0  0  0  0  0  0  0  0  0  0
   47.1930   34.6080   44.9250 H   0  0  0  0  0  0  0  0  0  0  0  0
   46.4750   33.0150   45.1060 H   0  0  0  0  0  0  0  0  0  0  0  0
   42.9820   35.3310   41.5050 C   0  0  1  0  0  0  0  0  0  0  0  0
   43.9040   34.3290   42.1010 C   0  0  1  0  0  0  0  0  0  0  0  0
   44.1290   33.3200   41.1740 O   0  0  0  0  0  0  0  0  0  0  0  0
   43.7920   33.8130   39.9210 C   0  0  0  0  0  0  0  0  0  0  0  0
   42.5280   34.5760   40.2370 C   0  0  2  0  0  0  0  0  0  0  0  0
   43.4530   36.2640   41.1920 H   0  0  0  0  0  0  0  0  0  0  0  0
   43.3930   33.8730   42.9820 H   0  0  0  0  0  0  0  0  0  0  0  0
   43.6530   32.9600   39.2510 H   0  0  0  0  0  0  0  0  0  0  0  0
   44.5740   34.5110   39.5430 H   0  0  0  0  0  0  0  0  0  0  0  0
   41.7010   33.9110   40.4840 H   0  0  0  0  0  0  0  0  0  0  0  0
   41.8600   35.5760   42.2740 O   0  0  0  0  0  0  0  0  0  0  0  0
   41.1330   36.0120   41.7930 H   0  0  0  0  0  0  0  0  0  0  0  0
   42.2220   35.4990   39.2440 O   0  0  0  0  0  0  0  0  0  0  0  0
   40.8530   35.5520   39.0780 C   0  0  0  0  0  2  0  0  0  0  0  0
   40.1940   34.2770   39.2160 N   0  0  0  0  0  4  0  0  0  0  0  0
   40.7680   33.6170   39.7560 H   0  0  0  0  0  0  0  0  0  0  0  0
   38.9200   34.4690   39.9160 C   0  0  0  0  0  2  0  0  0  0  0  0
   38.1390   34.5280   39.1280 H   0  0  0  0  0  0  0  0  0  0  0  0
   39.9350   33.6920   37.9030 C   0  0  0  0  0  2  0  0  0  0  0  0
   39.3680   32.7610   38.0400 H   0  0  0  0  0  0  0  0  0  0  0  0
   47.3350   33.5720   42.5170 C   0  0  0  0  0  0  0  0  0  0  0  0
   48.3970   34.3550   42.9650 C   0  0  0  0  0  0  0  0  0  0  0  0
   49.6720   34.2040   42.3930 C   0  0  0  0  0  0  0  0  0  0  0  0
   49.7710   33.2510   41.3880 N   0  0  0  0  0  0  0  0  0  0  0  0
   48.7120   32.5120   40.9830 C   0  0  0  0  0  0  0  0  0  0  0  0
   47.5010   32.6740   41.5460 N   0  0  0  0  0  0  0  0  0  0  0  0
   48.4670   35.1270   43.7150 H   0  0  0  0  0  0  0  0  0  0  0  0
   50.5660   34.7480   42.6540 H   0  0  0  0  0  0  0  0  0  0  0  0
   48.9180   31.8020   40.1890 H   0  0  0  0  0  0  0  0  0  0  0  0
  1  7  1  6  0  0  0
  1  6  1  0  0  0  0
  2  8  1  6  0  0  0
  2  1  1  0  0  0  0
  2  3  1  0  0  0  0
  3 10  1  0  0  0  0
  3  4  1  0  0  0  0
  4  5  1  0  0  0  0
  4 12  1  0  0  0  0
  5 14  1  0  0  0  0
  5 13  1  0  0  0  0
  6 15  1  0  0  0  0
  6 16  1  0  0  0  0
  6  5  1  0  0  0  0
  9  3  1  0  0  0  0
 11  4  1  0  0  0  0
 17 22  1  6  0  0  0
 17 18  1  0  0  0  0
 17 27  1  0  0  0  0
 18  2  1  0  0  0  0
 18 23  1  1  0  0  0
 19 18  1  0  0  0  0
 20 21  1  0  0  0  0
 20 19  1  0  0  0  0
 21 26  1  1  0  0  0
 21 17  1  0  0  0  0
 24 20  1  0  0  0  0
 25 20  1  0  0  0  0
 28 27  1  0  0  0  0
 29 21  1  0  0  0  0
 30 31  1  0  0  0  0
 30 29  1  0  0  0  0
 31 32  1  0  0  0  0
 31 33  1  0  0  0  0
 34 33  1  0  0  0  0
 35 36  1  0  0  0  0
 35 31  1  0  0  0  0
 37 38  1  0  0  0  0
 37  1  1  0  0  0  0
 38 43  1  0  0  0  0
 39 44  1  0  0  0  0
 39 38  2  0  0  0  0
 40 39  1  0  0  0  0
 41 40  2  0  0  0  0
 41 42  1  0  0  0  0
 42 37  2  0  0  0  0
 45 41  1  0  0  0  0
M  END
>  <minimizedAffinity>
-5.82517719

>  <minimizedRMSD>
0.620622754

$$$$
