
 OpenBabel03242517093D

 45 47  0  0  1  0  0  0  0  0999 V2000
   46.0410   33.8170   43.1900 C   0  0  2  0  0  0  0  0  0  0  0  0
   45.2300   34.8720   42.5190 C   0  0  2  0  0  0  0  0  0  0  0  0
   45.0660   36.0920   43.3460 C   0  0  0  0  0  0  0  0  0  0  0  0
   44.5660   35.8390   44.7420 C   0  0  0  0  0  0  0  0  0  0  0  0
   45.0790   34.5710   45.3510 C   0  0  0  0  0  0  0  0  0  0  0  0
   46.3150   34.0520   44.6450 C   0  0  0  0  0  0  0  0  0  0  0  0
   45.4790   32.8390   43.1050 H   0  0  0  0  0  0  0  0  0  0  0  0
   45.7480   35.1700   41.5820 H   0  0  0  0  0  0  0  0  0  0  0  0
   44.3850   36.7900   42.8310 H   0  0  0  0  0  0  0  0  0  0  0  0
   46.0470   36.6230   43.4350 H   0  0  0  0  0  0  0  0  0  0  0  0
   43.4450   35.7540   44.6740 H   0  0  0  0  0  0  0  0  0  0  0  0
   44.7630   36.7370   45.3540 H   0  0  0  0  0  0  0  0  0  0  0  0
   45.4220   34.8370   46.3830 H   0  0  0  0  0  0  0  0  0  0  0  0
   44.3210   33.7870   45.4790 H   0  0  0  0  0  0  0  0  0  0  0  0
   47.1930   34.6230   44.9050 H   0  0  0  0  0  0  0  0  0  0  0  0
   46.4850   33.0270   45.1000 H   0  0  0  0  0  0  0  0  0  0  0  0
   42.9460   35.3100   41.5360 C   0  0  1  0  0  0  0  0  0  0  0  0
   43.8870   34.3100   42.1050 C   0  0  1  0  0  0  0  0  0  0  0  0
   44.1100   33.3160   41.1600 O   0  0  0  0  0  0  0  0  0  0  0  0
   43.7490   33.8230   39.9200 C   0  0  0  0  0  0  0  0  0  0  0  0
   42.4820   34.5670   40.2640 C   0  0  2  0  0  0  0  0  0  0  0  0
   43.4020   36.2520   41.2280 H   0  0  0  0  0  0  0  0  0  0  0  0
   43.3940   33.8360   42.9870 H   0  0  0  0  0  0  0  0  0  0  0  0
   43.6100   32.9770   39.2400 H   0  0  0  0  0  0  0  0  0  0  0  0
   44.5180   34.5350   39.5400 H   0  0  0  0  0  0  0  0  0  0  0  0
   41.6660   33.8890   40.5140 H   0  0  0  0  0  0  0  0  0  0  0  0
   41.8320   35.5320   42.3240 O   0  0  0  0  0  0  0  0  0  0  0  0
   41.0940   35.9660   41.8590 H   0  0  0  0  0  0  0  0  0  0  0  0
   42.1510   35.5000   39.2880 O   0  0  0  0  0  0  0  0  0  0  0  0
   40.7810   35.6690   39.2660 C   0  0  0  0  0  2  0  0  0  0  0  0
   40.0420   34.4520   39.0360 N   0  0  0  0  0  4  0  0  0  0  0  0
   40.6220   33.6230   39.2190 H   0  0  0  0  0  0  0  0  0  0  0  0
   38.8830   34.4180   39.9340 C   0  0  0  0  0  2  0  0  0  0  0  0
   38.0200   34.7840   39.3390 H   0  0  0  0  0  0  0  0  0  0  0  0
   39.5770   34.3900   37.6530 C   0  0  0  0  0  2  0  0  0  0  0  0
   38.9570   33.4920   37.5310 H   0  0  0  0  0  0  0  0  0  0  0  0
   47.3240   33.5730   42.5020 C   0  0  0  0  0  0  0  0  0  0  0  0
   48.3920   34.3460   42.9570 C   0  0  0  0  0  0  0  0  0  0  0  0
   49.6640   34.1970   42.3790 C   0  0  0  0  0  0  0  0  0  0  0  0
   49.7560   33.2560   41.3620 N   0  0  0  0  0  0  0  0  0  0  0  0
   48.6920   32.5270   40.9510 C   0  0  0  0  0  0  0  0  0  0  0  0
   47.4840   32.6880   41.5200 N   0  0  0  0  0  0  0  0  0  0  0  0
   48.4680   35.1080   43.7160 H   0  0  0  0  0  0  0  0  0  0  0  0
   50.5610   34.7330   42.6450 H   0  0  0  0  0  0  0  0  0  0  0  0
   48.8930   31.8260   40.1470 H   0  0  0  0  0  0  0  0  0  0  0  0
  1  7  1  6  0  0  0
  1  6  1  0  0  0  0
  2  8  1  6  0  0  0
  2  1  1  0  0  0  0
  2  3  1  0  0  0  0
  3 10  1  0  0  0  0
  3  4  1  0  0  0  0
  4  5  1  0  0  0  0
  4 12  1  0  0  0  0
  5 14  1  0  0  0  0
  5 13  1  0  0  0  0
  6 15  1  0  0  0  0
  6 16  1  0  0  0  0
  6  5  1  0  0  0  0
  9  3  1  0  0  0  0
 11  4  1  0  0  0  0
 17 22  1  6  0  0  0
 17 18  1  0  0  0  0
 17 27  1  0  0  0  0
 18  2  1  0  0  0  0
 18 23  1  1  0  0  0
 19 18  1  0  0  0  0
 20 21  1  0  0  0  0
 20 19  1  0  0  0  0
 21 26  1  1  0  0  0
 21 17  1  0  0  0  0
 24 20  1  0  0  0  0
 25 20  1  0  0  0  0
 28 27  1  0  0  0  0
 29 21  1  0  0  0  0
 30 29  1  0  0  0  0
 31 32  1  0  0  0  0
 31 30  1  0  0  0  0
 31 33  1  0  0  0  0
 34 33  1  0  0  0  0
 35 31  1  0  0  0  0
 36 35  1  0  0  0  0
 37 38  1  0  0  0  0
 37  1  1  0  0  0  0
 38 43  1  0  0  0  0
 39 44  1  0  0  0  0
 39 38  2  0  0  0  0
 40 39  1  0  0  0  0
 41 40  2  0  0  0  0
 41 42  1  0  0  0  0
 42 37  2  0  0  0  0
 45 41  1  0  0  0  0
M  END
>  <minimizedAffinity>
-5.91603899

>  <minimizedRMSD>
0.97255528

$$$$
