
 OpenBabel03252503373D

 40 42  0  0  1  0  0  0  0  0999 V2000
   37.7180   32.4880   40.1260 C   0  0  0  0  0  0  0  0  0  0  0  0
   39.0300   32.3150   40.2800 C   0  0  0  0  0  0  0  0  0  0  0  0
   39.5340   31.1090   40.8260 N   0  0  0  0  0  0  0  0  0  0  0  0
   40.5300   30.1050   40.8610 C   0  0  0  0  0  0  0  0  0  0  0  0
   41.6630   29.9300   40.3040 O   0  0  0  0  0  0  0  0  0  0  0  0
   39.8300   29.2480   41.8020 C   0  0  1  0  0  0  0  0  0  0  0  0
   38.8430   30.3880   41.8750 C   0  0  2  0  0  0  0  0  0  0  0  0
   37.1870   30.0340   41.2760 S   0  0  0  0  0  0  0  0  0  0  0  0
   36.6250   31.5300   40.4620 C   0  0  0  0  0  0  0  0  0  0  0  0
   40.2660   29.1230   42.8320 H   0  0  0  0  0  0  0  0  0  0  0  0
   38.8790   30.9480   42.8350 H   0  0  0  0  0  0  0  0  0  0  0  0
   35.8800   32.0860   41.0430 H   0  0  0  0  0  0  0  0  0  0  0  0
   36.1760   31.2260   39.4900 H   0  0  0  0  0  0  0  0  0  0  0  0
   39.3670   28.0020   41.2090 C   0  0  0  0  0  0  0  0  0  0  0  0
   39.2600   27.6080   40.0350 O   0  0  0  0  0  0  0  0  0  0  0  0
   38.9510   27.0220   42.1830 N   0  0  0  0  0  0  0  0  0  0  0  0
   38.9180   27.0060   43.2270 H   0  0  0  0  0  0  0  0  0  0  0  0
   36.6650   24.2030   41.4030 C   0  0  0  0  0  0  0  0  0  0  0  0
   37.1040   25.4750   41.7740 C   0  0  0  0  0  0  0  0  0  0  0  0
   38.4560   25.7540   41.7910 C   0  0  0  0  0  0  0  0  0  0  0  0
   39.3180   24.7850   41.4450 N   0  0  0  0  0  0  0  0  0  0  0  0
   38.8770   23.5430   41.0840 C   0  0  0  0  0  0  0  0  0  0  0  0
   37.5590   23.2780   41.0700 N   0  0  0  0  0  0  0  0  0  0  0  0
   35.5830   24.1070   41.4290 H   0  0  0  0  0  0  0  0  0  0  0  0
   36.4040   26.2740   42.0580 H   0  0  0  0  0  0  0  0  0  0  0  0
   39.5800   22.7710   40.8080 H   0  0  0  0  0  0  0  0  0  0  0  0
   37.3230   33.7960   39.5500 C   0  0  0  0  0  0  0  0  0  0  0  0
   37.6170   34.6660   40.1730 H   0  0  0  0  0  0  0  0  0  0  0  0
   36.2430   33.8430   39.3130 H   0  0  0  0  0  0  0  0  0  0  0  0
   37.9020   33.8750   38.5910 H   0  0  0  0  0  0  0  0  0  0  0  0
   39.9810   33.3430   39.8970 C   0  0  0  0  0  0  0  0  0  0  0  0
   40.3360   34.2750   40.6710 O   0  0  0  0  0  0  0  0  0  0  0  0
   40.6940   33.5930   38.7450 O   0  0  0  0  0  0  0  0  0  0  0  0
   40.8830   32.6950   37.7020 C   0  0  0  0  0  2  0  0  0  0  0  0
   42.0910   33.0830   37.0040 N   0  0  0  0  0  4  0  0  0  0  0  0
   41.7840   33.3000   36.0070 H   0  0  0  0  0  0  0  0  0  0  0  0
   43.1450   32.1180   37.0590 C   0  0  0  0  0  2  0  0  0  0  0  0
   44.1590   32.5590   37.2240 H   0  0  0  0  0  0  0  0  0  0  0  0
   42.6040   34.3470   37.5020 C   0  0  0  0  0  2  0  0  0  0  0  0
   43.6900   34.4480   37.3200 H   0  0  0  0  0  0  0  0  0  0  0  0
  1  2  2  0  0  0  0
  1  9  1  0  0  0  0
  2  3  1  0  0  0  0
  3  4  1  0  0  0  0
  3  7  1  0  0  0  0
  4  6  1  0  0  0  0
  5  4  2  0  0  0  0
  6  7  1  0  0  0  0
  6 10  1  1  0  0  0
  7 11  1  1  0  0  0
  8  7  1  0  0  0  0
  9 12  1  0  0  0  0
  9  8  1  0  0  0  0
 13  9  1  0  0  0  0
 14  6  1  0  0  0  0
 14 16  1  0  0  0  0
 15 14  2  0  0  0  0
 16 17  1  0  0  0  0
 18 24  1  0  0  0  0
 18 19  1  0  0  0  0
 19 20  2  0  0  0  0
 19 25  1  0  0  0  0
 20 16  1  0  0  0  0
 21 20  1  0  0  0  0
 22 21  2  0  0  0  0
 23 22  1  0  0  0  0
 23 18  2  0  0  0  0
 26 22  1  0  0  0  0
 27  1  1  0  0  0  0
 27 28  1  0  0  0  0
 29 27  1  0  0  0  0
 30 27  1  0  0  0  0
 31  2  1  0  0  0  0
 31 32  2  0  0  0  0
 33 31  1  0  0  0  0
 34 33  1  0  0  0  0
 35 37  1  0  0  0  0
 35 39  1  0  0  0  0
 35 34  1  0  0  0  0
 36 35  1  0  0  0  0
 37 38  1  0  0  0  0
 40 39  1  0  0  0  0
M  END
>  <minimizedAffinity>
-5.34226131

$$$$

 OpenBabel03252503373D

 40 42  0  0  1  0  0  0  0  0999 V2000
   37.7120   30.8450   38.6260 C   0  0  0  0  0  0  0  0  0  0  0  0
   38.0990   31.5030   39.7170 C   0  0  0  0  0  0  0  0  0  0  0  0
   38.1590   30.8430   40.9690 N   0  0  0  0  0  0  0  0  0  0  0  0
   38.7860   30.6520   42.2230 C   0  0  0  0  0  0  0  0  0  0  0  0
   39.7380   31.2160   42.8560 O   0  0  0  0  0  0  0  0  0  0  0  0
   37.9600   29.5260   42.6220 C   0  0  1  0  0  0  0  0  0  0  0  0
   37.1990   29.8280   41.3530 C   0  0  2  0  0  0  0  0  0  0  0  0
   37.2390   28.5510   40.0900 S   0  0  0  0  0  0  0  0  0  0  0  0
   37.3100   29.4130   38.5190 C   0  0  0  0  0  0  0  0  0  0  0  0
   37.2430   29.6710   43.4780 H   0  0  0  0  0  0  0  0  0  0  0  0
   36.1960   30.2730   41.5290 H   0  0  0  0  0  0  0  0  0  0  0  0
   36.3610   29.3870   37.9680 H   0  0  0  0  0  0  0  0  0  0  0  0
   38.0990   28.9190   37.9070 H   0  0  0  0  0  0  0  0  0  0  0  0
   38.6910   28.2700   42.6790 C   0  0  0  0  0  0  0  0  0  0  0  0
   38.3420   27.0920   42.8720 O   0  0  0  0  0  0  0  0  0  0  0  0
   40.1100   28.4190   42.4630 N   0  0  0  0  0  0  0  0  0  0  0  0
   40.7310   29.2360   42.2630 H   0  0  0  0  0  0  0  0  0  0  0  0
   42.4620   25.8040   43.6490 C   0  0  0  0  0  0  0  0  0  0  0  0
   41.5890   26.8920   43.6680 C   0  0  0  0  0  0  0  0  0  0  0  0
   40.9850   27.3060   42.4970 C   0  0  0  0  0  0  0  0  0  0  0  0
   41.2570   26.6430   41.3620 N   0  0  0  0  0  0  0  0  0  0  0  0
   42.1140   25.5790   41.3550 C   0  0  0  0  0  0  0  0  0  0  0  0
   42.6990   25.1810   42.4980 N   0  0  0  0  0  0  0  0  0  0  0  0
   42.8720   25.5750   44.6280 H   0  0  0  0  0  0  0  0  0  0  0  0
   41.3600   27.4400   44.5940 H   0  0  0  0  0  0  0  0  0  0  0  0
   42.3260   25.0530   40.4360 H   0  0  0  0  0  0  0  0  0  0  0  0
   37.6870   31.6540   37.3830 C   0  0  0  0  0  0  0  0  0  0  0  0
   36.9810   32.5090   37.4210 H   0  0  0  0  0  0  0  0  0  0  0  0
   37.4940   31.0380   36.4840 H   0  0  0  0  0  0  0  0  0  0  0  0
   38.7190   32.0900   37.3030 H   0  0  0  0  0  0  0  0  0  0  0  0
   38.4700   32.9060   39.6660 C   0  0  0  0  0  0  0  0  0  0  0  0
   37.6460   33.8440   39.8480 O   0  0  0  0  0  0  0  0  0  0  0  0
   39.6600   33.5640   39.4380 O   0  0  0  0  0  0  0  0  0  0  0  0
   40.8750   32.9570   39.1490 C   0  0  0  0  0  2  0  0  0  0  0  0
   41.1390   33.1570   37.7390 N   0  0  0  0  0  4  0  0  0  0  0  0
   40.2880   33.6760   37.3630 H   0  0  0  0  0  0  0  0  0  0  0  0
   41.4210   31.9600   37.0110 C   0  0  0  0  0  2  0  0  0  0  0  0
   42.2550   32.0600   36.2730 H   0  0  0  0  0  0  0  0  0  0  0  0
   42.2390   34.0830   37.5370 C   0  0  0  0  0  2  0  0  0  0  0  0
   42.7300   33.9290   36.5580 H   0  0  0  0  0  0  0  0  0  0  0  0
  1  2  2  0  0  0  0
  2  3  1  0  0  0  0
  3  7  1  0  0  0  0
  3  4  1  0  0  0  0
  4  6  1  0  0  0  0
  4  5  2  0  0  0  0
  6 14  1  0  0  0  0
  6 10  1  1  0  0  0
  7 11  1  1  0  0  0
  7  6  1  0  0  0  0
  8  7  1  0  0  0  0
  9  1  1  0  0  0  0
  9  8  1  0  0  0  0
 12  9  1  0  0  0  0
 13  9  1  0  0  0  0
 14 15  2  0  0  0  0
 16 20  1  0  0  0  0
 16 14  1  0  0  0  0
 17 16  1  0  0  0  0
 18 19  1  0  0  0  0
 18 24  1  0  0  0  0
 19 25  1  0  0  0  0
 20 19  2  0  0  0  0
 21 20  1  0  0  0  0
 22 21  2  0  0  0  0
 22 23  1  0  0  0  0
 23 18  2  0  0  0  0
 26 22  1  0  0  0  0
 27 28  1  0  0  0  0
 27  1  1  0  0  0  0
 29 27  1  0  0  0  0
 30 27  1  0  0  0  0
 31  2  1  0  0  0  0
 31 32  2  0  0  0  0
 33 31  1  0  0  0  0
 34 33  1  0  0  0  0
 35 34  1  0  0  0  0
 36 35  1  0  0  0  0
 37 35  1  0  0  0  0
 38 37  1  0  0  0  0
 39 35  1  0  0  0  0
 40 39  1  0  0  0  0
M  END
>  <minimizedAffinity>
-5.09002972

$$$$

 OpenBabel03252503373D

 40 42  0  0  1  0  0  0  0  0999 V2000
   39.4060   31.8040   38.3600 C   0  0  0  0  0  0  0  0  0  0  0  0
   39.5390   31.8690   39.6840 C   0  0  0  0  0  0  0  0  0  0  0  0
   38.5550   31.3020   40.5320 N   0  0  0  0  0  0  0  0  0  0  0  0
   38.2130   30.6170   41.7210 C   0  0  0  0  0  0  0  0  0  0  0  0
   38.8440   30.2280   42.7570 O   0  0  0  0  0  0  0  0  0  0  0  0
   36.8050   30.4710   41.3970 C   0  0  1  0  0  0  0  0  0  0  0  0
   37.1450   31.3300   40.2020 C   0  0  2  0  0  0  0  0  0  0  0  0
   36.9570   30.5500   38.5950 S   0  0  0  0  0  0  0  0  0  0  0  0
   38.3000   31.1740   37.5840 C   0  0  0  0  0  0  0  0  0  0  0  0
   36.0560   31.0440   42.0120 H   0  0  0  0  0  0  0  0  0  0  0  0
   36.7400   32.3630   40.2660 H   0  0  0  0  0  0  0  0  0  0  0  0
   37.9750   31.9080   36.8370 H   0  0  0  0  0  0  0  0  0  0  0  0
   38.7530   30.3000   37.0620 H   0  0  0  0  0  0  0  0  0  0  0  0
   36.4160   29.0930   41.1390 C   0  0  0  0  0  0  0  0  0  0  0  0
   35.3470   28.5630   40.7850 O   0  0  0  0  0  0  0  0  0  0  0  0
   37.4890   28.1470   41.3270 N   0  0  0  0  0  0  0  0  0  0  0  0
   38.4940   28.2360   41.6000 H   0  0  0  0  0  0  0  0  0  0  0  0
   37.1030   24.8140   39.7400 C   0  0  0  0  0  0  0  0  0  0  0  0
   37.3240   26.1850   39.8810 C   0  0  0  0  0  0  0  0  0  0  0  0
   37.2930   26.7570   41.1370 C   0  0  0  0  0  0  0  0  0  0  0  0
   37.0500   25.9710   42.1970 N   0  0  0  0  0  0  0  0  0  0  0  0
   36.8340   24.6300   42.0470 C   0  0  0  0  0  0  0  0  0  0  0  0
   36.8650   24.0790   40.8210 N   0  0  0  0  0  0  0  0  0  0  0  0
   37.1520   24.4840   38.7060 H   0  0  0  0  0  0  0  0  0  0  0  0
   37.5240   26.8350   39.0170 H   0  0  0  0  0  0  0  0  0  0  0  0
   36.6390   24.0080   42.9080 H   0  0  0  0  0  0  0  0  0  0  0  0
   40.5020   32.4420   37.5910 C   0  0  0  0  0  0  0  0  0  0  0  0
   40.6040   33.5310   37.7770 H   0  0  0  0  0  0  0  0  0  0  0  0
   40.4220   32.2460   36.5040 H   0  0  0  0  0  0  0  0  0  0  0  0
   41.4410   31.9590   37.9720 H   0  0  0  0  0  0  0  0  0  0  0  0
   40.6840   32.5140   40.3020 C   0  0  0  0  0  0  0  0  0  0  0  0
   40.6870   33.7290   40.6450 O   0  0  0  0  0  0  0  0  0  0  0  0
   41.9400   32.0760   40.6590 O   0  0  0  0  0  0  0  0  0  0  0  0
   43.0070   32.8900   41.0180 C   0  0  0  0  0  2  0  0  0  0  0  0
   43.0220   32.9780   42.4640 N   0  0  0  0  0  4  0  0  0  0  0  0
   42.1240   33.4860   42.7260 H   0  0  0  0  0  0  0  0  0  0  0  0
   44.1880   33.6020   43.0090 C   0  0  0  0  0  2  0  0  0  0  0  0
   44.5910   33.0980   43.9220 H   0  0  0  0  0  0  0  0  0  0  0  0
   42.8810   31.6670   43.0720 C   0  0  0  0  0  2  0  0  0  0  0  0
   43.3070   31.6410   44.0920 H   0  0  0  0  0  0  0  0  0  0  0  0
  1  2  2  0  0  0  0
  2 31  1  0  0  0  0
  2  3  1  0  0  0  0
  3  4  1  0  0  0  0
  4  5  2  0  0  0  0
  6  4  1  0  0  0  0
  6 10  1  1  0  0  0
  7 11  1  1  0  0  0
  7  3  1  0  0  0  0
  7  6  1  0  0  0  0
  8  7  1  0  0  0  0
  9  1  1  0  0  0  0
  9  8  1  0  0  0  0
 12  9  1  0  0  0  0
 13  9  1  0  0  0  0
 14 16  1  0  0  0  0
 14  6  1  0  0  0  0
 15 14  2  0  0  0  0
 16 17  1  0  0  0  0
 18 19  2  0  0  0  0
 18 23  1  0  0  0  0
 19 20  1  0  0  0  0
 20 16  1  0  0  0  0
 20 21  2  0  0  0  0
 22 21  1  0  0  0  0
 22 26  1  0  0  0  0
 23 22  2  0  0  0  0
 24 18  1  0  0  0  0
 25 19  1  0  0  0  0
 27 28  1  0  0  0  0
 27 30  1  0  0  0  0
 27  1  1  0  0  0  0
 29 27  1  0  0  0  0
 31 32  2  0  0  0  0
 31 33  1  0  0  0  0
 33 34  1  0  0  0  0
 34 35  1  0  0  0  0
 35 36  1  0  0  0  0
 35 37  1  0  0  0  0
 35 39  1  0  0  0  0
 37 38  1  0  0  0  0
 39 40  1  0  0  0  0
M  END
>  <minimizedAffinity>
-5.06789398

$$$$

 OpenBabel03252503373D

 40 42  0  0  1  0  0  0  0  0999 V2000
   37.0490   29.1480   41.5230 C   0  0  0  0  0  0  0  0  0  0  0  0
   36.5450   29.5240   40.3490 C   0  0  0  0  0  0  0  0  0  0  0  0
   37.1070   30.6180   39.6450 N   0  0  0  0  0  0  0  0  0  0  0  0
   37.4670   31.2290   38.4210 C   0  0  0  0  0  0  0  0  0  0  0  0
   37.3020   30.9570   37.1870 O   0  0  0  0  0  0  0  0  0  0  0  0
   38.1430   32.3630   39.0270 C   0  0  1  0  0  0  0  0  0  0  0  0
   37.6280   31.7860   40.3240 C   0  0  2  0  0  0  0  0  0  0  0  0
   38.8780   31.2170   41.4820 S   0  0  0  0  0  0  0  0  0  0  0  0
   38.2020   29.7470   42.2550 C   0  0  0  0  0  0  0  0  0  0  0  0
   37.6770   33.3820   38.9120 H   0  0  0  0  0  0  0  0  0  0  0  0
   36.8080   32.3800   40.7820 H   0  0  0  0  0  0  0  0  0  0  0  0
   37.8730   29.9140   43.2880 H   0  0  0  0  0  0  0  0  0  0  0  0
   39.0020   28.9740   42.2490 H   0  0  0  0  0  0  0  0  0  0  0  0
   39.5830   32.3530   38.8170 C   0  0  0  0  0  0  0  0  0  0  0  0
   40.3880   31.4610   38.4970 O   0  0  0  0  0  0  0  0  0  0  0  0
   40.2020   33.6410   39.0160 N   0  0  0  0  0  0  0  0  0  0  0  0
   39.8400   34.5880   39.2690 H   0  0  0  0  0  0  0  0  0  0  0  0
   43.5670   34.1630   37.5370 C   0  0  0  0  0  0  0  0  0  0  0  0
   42.1830   34.0140   37.6340 C   0  0  0  0  0  0  0  0  0  0  0  0
   41.6000   33.8200   38.8700 C   0  0  0  0  0  0  0  0  0  0  0  0
   42.3890   33.7810   39.9550 N   0  0  0  0  0  0  0  0  0  0  0  0
   43.7430   33.9290   39.8490 C   0  0  0  0  0  0  0  0  0  0  0  0
   44.3050   34.1160   38.6420 N   0  0  0  0  0  0  0  0  0  0  0  0
   43.9050   34.3080   36.5150 H   0  0  0  0  0  0  0  0  0  0  0  0
   41.5290   34.0440   36.7490 H   0  0  0  0  0  0  0  0  0  0  0  0
   44.3680   33.8960   40.7290 H   0  0  0  0  0  0  0  0  0  0  0  0
   36.3650   27.9950   42.1570 C   0  0  0  0  0  0  0  0  0  0  0  0
   35.2970   28.1830   42.3930 H   0  0  0  0  0  0  0  0  0  0  0  0
   36.8970   27.6320   43.0570 H   0  0  0  0  0  0  0  0  0  0  0  0
   36.3860   27.1850   41.3790 H   0  0  0  0  0  0  0  0  0  0  0  0
   35.4150   28.8340   39.7520 C   0  0  0  0  0  0  0  0  0  0  0  0
   34.2190   29.2010   39.9180 O   0  0  0  0  0  0  0  0  0  0  0  0
   35.3020   27.7300   38.9360 O   0  0  0  0  0  0  0  0  0  0  0  0
   36.3620   26.9790   38.4440 C   0  0  0  0  0  2  0  0  0  0  0  0
   36.5470   25.8490   39.3310 N   0  0  0  0  0  4  0  0  0  0  0  0
   35.8950   26.0270   40.1550 H   0  0  0  0  0  0  0  0  0  0  0  0
   37.9000   25.6280   39.7380 C   0  0  0  0  0  2  0  0  0  0  0  0
   38.2040   24.5520   39.7480 H   0  0  0  0  0  0  0  0  0  0  0  0
   36.0440   24.6240   38.7360 C   0  0  0  0  0  2  0  0  0  0  0  0
   36.5360   23.7300   39.1620 H   0  0  0  0  0  0  0  0  0  0  0  0
  1 27  1  0  0  0  0
  1  9  1  0  0  0  0
  2  1  2  0  0  0  0
  3  7  1  0  0  0  0
  3  2  1  0  0  0  0
  4  6  1  0  0  0  0
  4  3  1  0  0  0  0
  5  4  2  0  0  0  0
  6 10  1  6  0  0  0
  6  7  1  0  0  0  0
  7 11  1  1  0  0  0
  7  8  1  0  0  0  0
  8  9  1  0  0  0  0
  9 12  1  0  0  0  0
 13  9  1  0  0  0  0
 14 16  1  0  0  0  0
 14  6  1  0  0  0  0
 15 14  2  0  0  0  0
 16 17  1  0  0  0  0
 18 19  2  0  0  0  0
 18 23  1  0  0  0  0
 19 20  1  0  0  0  0
 20 16  1  0  0  0  0
 20 21  2  0  0  0  0
 22 21  1  0  0  0  0
 22 26  1  0  0  0  0
 23 22  2  0  0  0  0
 24 18  1  0  0  0  0
 25 19  1  0  0  0  0
 27 28  1  0  0  0  0
 27 29  1  0  0  0  0
 30 27  1  0  0  0  0
 31 32  2  0  0  0  0
 31  2  1  0  0  0  0
 33 31  1  0  0  0  0
 34 33  1  0  0  0  0
 34 35  1  0  0  0  0
 35 37  1  0  0  0  0
 35 36  1  0  0  0  0
 37 38  1  0  0  0  0
 39 40  1  0  0  0  0
 39 35  1  0  0  0  0
M  END
>  <minimizedAffinity>
-4.9342351

$$$$

 OpenBabel03252503373D

 40 42  0  0  1  0  0  0  0  0999 V2000
   38.9840   25.6880   42.7220 C   0  0  0  0  0  0  0  0  0  0  0  0
   37.9940   25.5140   41.8480 C   0  0  0  0  0  0  0  0  0  0  0  0
   37.2840   26.6300   41.3380 N   0  0  0  0  0  0  0  0  0  0  0  0
   36.6170   27.2690   40.2670 C   0  0  0  0  0  0  0  0  0  0  0  0
   36.2730   26.9370   39.0850 O   0  0  0  0  0  0  0  0  0  0  0  0
   36.4160   28.5290   40.9610 C   0  0  1  0  0  0  0  0  0  0  0  0
   36.9930   27.7940   42.1470 C   0  0  2  0  0  0  0  0  0  0  0  0
   38.5590   28.4160   42.7710 S   0  0  0  0  0  0  0  0  0  0  0  0
   39.4970   26.9740   43.2760 C   0  0  0  0  0  0  0  0  0  0  0  0
   35.3630   28.8210   41.2350 H   0  0  0  0  0  0  0  0  0  0  0  0
   36.2430   27.5570   42.9330 H   0  0  0  0  0  0  0  0  0  0  0  0
   39.5520   26.8530   44.3650 H   0  0  0  0  0  0  0  0  0  0  0  0
   40.5270   27.0920   42.8710 H   0  0  0  0  0  0  0  0  0  0  0  0
   37.2000   29.6210   40.4060 C   0  0  0  0  0  0  0  0  0  0  0  0
   38.0040   29.6950   39.4600 O   0  0  0  0  0  0  0  0  0  0  0  0
   37.0020   30.8760   41.0900 N   0  0  0  0  0  0  0  0  0  0  0  0
   36.4070   31.1770   41.8950 H   0  0  0  0  0  0  0  0  0  0  0  0
   39.6300   33.4680   40.6970 C   0  0  0  0  0  0  0  0  0  0  0  0
   38.9970   32.2870   41.0880 C   0  0  0  0  0  0  0  0  0  0  0  0
   37.6940   32.0490   40.7000 C   0  0  0  0  0  0  0  0  0  0  0  0
   37.0660   32.9690   39.9500 N   0  0  0  0  0  0  0  0  0  0  0  0
   37.6960   34.1220   39.5730 C   0  0  0  0  0  0  0  0  0  0  0  0
   38.9650   34.3480   39.9550 N   0  0  0  0  0  0  0  0  0  0  0  0
   40.6500   33.5400   41.0640 H   0  0  0  0  0  0  0  0  0  0  0  0
   39.5040   31.5290   41.7020 H   0  0  0  0  0  0  0  0  0  0  0  0
   37.1810   34.8540   38.9700 H   0  0  0  0  0  0  0  0  0  0  0  0
   39.6390   24.4390   43.1810 C   0  0  0  0  0  0  0  0  0  0  0  0
   38.9560   23.7470   43.7140 H   0  0  0  0  0  0  0  0  0  0  0  0
   40.5390   24.6370   43.7950 H   0  0  0  0  0  0  0  0  0  0  0  0
   39.9570   23.9170   42.2390 H   0  0  0  0  0  0  0  0  0  0  0  0
   37.6080   24.1910   41.3900 C   0  0  0  0  0  0  0  0  0  0  0  0
   36.4210   23.7650   41.4370 O   0  0  0  0  0  0  0  0  0  0  0  0
   38.3060   23.1380   40.8410 O   0  0  0  0  0  0  0  0  0  0  0  0
   38.6300   22.9970   39.4980 C   0  0  0  0  0  2  0  0  0  0  0  0
   37.9170   24.0230   38.7660 N   0  0  0  0  0  4  0  0  0  0  0  0
   37.5260   24.6790   39.5090 H   0  0  0  0  0  0  0  0  0  0  0  0
   36.9100   23.5300   37.8790 C   0  0  0  0  0  2  0  0  0  0  0  0
   36.8770   24.0500   36.8910 H   0  0  0  0  0  0  0  0  0  0  0  0
   38.8300   24.8540   38.0020 C   0  0  0  0  0  2  0  0  0  0  0  0
   38.3260   25.3300   37.1410 H   0  0  0  0  0  0  0  0  0  0  0  0
  1 27  1  0  0  0  0
  1  9  1  0  0  0  0
  2  1  2  0  0  0  0
  3  2  1  0  0  0  0
  3  7  1  0  0  0  0
  4  6  1  0  0  0  0
  4  3  1  0  0  0  0
  5  4  2  0  0  0  0
  6 10  1  1  0  0  0
  6  7  1  0  0  0  0
  7  8  1  0  0  0  0
  7 11  1  1  0  0  0
  8  9  1  0  0  0  0
  9 12  1  0  0  0  0
 13  9  1  0  0  0  0
 14  6  1  0  0  0  0
 14 16  1  0  0  0  0
 15 14  2  0  0  0  0
 16 17  1  0  0  0  0
 18 24  1  0  0  0  0
 18 19  1  0  0  0  0
 19 25  1  0  0  0  0
 20 19  2  0  0  0  0
 20 16  1  0  0  0  0
 21 20  1  0  0  0  0
 22 21  2  0  0  0  0
 22 23  1  0  0  0  0
 23 18  2  0  0  0  0
 26 22  1  0  0  0  0
 27 28  1  0  0  0  0
 27 29  1  0  0  0  0
 30 27  1  0  0  0  0
 31 32  2  0  0  0  0
 31  2  1  0  0  0  0
 33 31  1  0  0  0  0
 34 33  1  0  0  0  0
 35 34  1  0  0  0  0
 35 36  1  0  0  0  0
 37 35  1  0  0  0  0
 38 37  1  0  0  0  0
 39 35  1  0  0  0  0
 40 39  1  0  0  0  0
M  END
>  <minimizedAffinity>
-4.92079544

$$$$

 OpenBabel03252503373D

 40 42  0  0  1  0  0  0  0  0999 V2000
   38.6870   31.3440   40.6460 C   0  0  0  0  0  0  0  0  0  0  0  0
   39.6750   30.7420   41.3070 C   0  0  0  0  0  0  0  0  0  0  0  0
   39.4100   29.6120   42.1190 N   0  0  0  0  0  0  0  0  0  0  0  0
   39.8050   28.3540   42.6300 C   0  0  0  0  0  0  0  0  0  0  0  0
   40.8600   27.6400   42.5690 O   0  0  0  0  0  0  0  0  0  0  0  0
   38.5510   28.0790   43.3080 C   0  0  1  0  0  0  0  0  0  0  0  0
   38.1890   29.4830   42.8870 C   0  0  2  0  0  0  0  0  0  0  0  0
   36.8170   29.6300   41.7370 S   0  0  0  0  0  0  0  0  0  0  0  0
   37.2430   30.9740   40.6290 C   0  0  0  0  0  0  0  0  0  0  0  0
   38.5490   28.0620   44.4340 H   0  0  0  0  0  0  0  0  0  0  0  0
   38.1680   30.2100   43.7280 H   0  0  0  0  0  0  0  0  0  0  0  0
   36.6750   31.8910   40.8230 H   0  0  0  0  0  0  0  0  0  0  0  0
   37.0300   30.6270   39.5930 H   0  0  0  0  0  0  0  0  0  0  0  0
   37.8000   26.9870   42.7070 C   0  0  0  0  0  0  0  0  0  0  0  0
   36.6750   26.5060   42.9300 O   0  0  0  0  0  0  0  0  0  0  0  0
   38.5010   26.3310   41.6310 N   0  0  0  0  0  0  0  0  0  0  0  0
   39.4320   26.4760   41.1770 H   0  0  0  0  0  0  0  0  0  0  0  0
   36.4890   24.3070   39.2570 C   0  0  0  0  0  0  0  0  0  0  0  0
   37.0410   25.4180   39.8970 C   0  0  0  0  0  0  0  0  0  0  0  0
   37.9320   25.2360   40.9360 C   0  0  0  0  0  0  0  0  0  0  0  0
   38.2460   23.9840   41.3040 N   0  0  0  0  0  0  0  0  0  0  0  0
   37.6990   22.9030   40.6700 C   0  0  0  0  0  0  0  0  0  0  0  0
   36.8320   23.0880   39.6590 N   0  0  0  0  0  0  0  0  0  0  0  0
   35.8030   24.5790   38.4590 H   0  0  0  0  0  0  0  0  0  0  0  0
   36.7890   26.4470   39.6020 H   0  0  0  0  0  0  0  0  0  0  0  0
   37.9590   21.9010   40.9740 H   0  0  0  0  0  0  0  0  0  0  0  0
   39.0990   32.5180   39.8390 C   0  0  0  0  0  0  0  0  0  0  0  0
   39.5350   33.3430   40.4400 H   0  0  0  0  0  0  0  0  0  0  0  0
   38.2780   32.9010   39.2030 H   0  0  0  0  0  0  0  0  0  0  0  0
   39.9190   32.1370   39.1730 H   0  0  0  0  0  0  0  0  0  0  0  0
   41.0450   31.2160   41.2210 C   0  0  0  0  0  0  0  0  0  0  0  0
   41.9080   30.6950   40.4610 O   0  0  0  0  0  0  0  0  0  0  0  0
   41.7380   32.2310   41.8440 O   0  0  0  0  0  0  0  0  0  0  0  0
   42.9220   32.0820   42.5550 C   0  0  0  0  0  2  0  0  0  0  0  0
   43.4130   33.4080   42.8690 N   0  0  0  0  0  4  0  0  0  0  0  0
   42.8710   33.7120   43.7350 H   0  0  0  0  0  0  0  0  0  0  0  0
   43.3130   34.3490   41.7970 C   0  0  0  0  0  2  0  0  0  0  0  0
   44.2070   35.0100   41.6850 H   0  0  0  0  0  0  0  0  0  0  0  0
   44.7950   33.3660   43.3110 C   0  0  0  0  0  2  0  0  0  0  0  0
   45.3080   34.3310   43.1430 H   0  0  0  0  0  0  0  0  0  0  0  0
  1  2  2  0  0  0  0
  2  3  1  0  0  0  0
  3  4  1  0  0  0  0
  3  7  1  0  0  0  0
  4  6  1  0  0  0  0
  5  4  2  0  0  0  0
  6 10  1  1  0  0  0
  7  6  1  0  0  0  0
  7 11  1  1  0  0  0
  8  7  1  0  0  0  0
  9  1  1  0  0  0  0
  9 12  1  0  0  0  0
  9  8  1  0  0  0  0
 13  9  1  0  0  0  0
 14 15  2  0  0  0  0
 14  6  1  0  0  0  0
 16 14  1  0  0  0  0
 17 16  1  0  0  0  0
 18 23  2  0  0  0  0
 18 19  1  0  0  0  0
 19 20  2  0  0  0  0
 20 21  1  0  0  0  0
 20 16  1  0  0  0  0
 22 26  1  0  0  0  0
 22 21  2  0  0  0  0
 23 22  1  0  0  0  0
 24 18  1  0  0  0  0
 25 19  1  0  0  0  0
 27 28  1  0  0  0  0
 27  1  1  0  0  0  0
 29 27  1  0  0  0  0
 30 27  1  0  0  0  0
 31  2  1  0  0  0  0
 31 33  1  0  0  0  0
 32 31  2  0  0  0  0
 33 34  1  0  0  0  0
 34 35  1  0  0  0  0
 35 39  1  0  0  0  0
 35 36  1  0  0  0  0
 37 35  1  0  0  0  0
 38 37  1  0  0  0  0
 40 39  1  0  0  0  0
M  END
>  <minimizedAffinity>
-4.90525103

$$$$

 OpenBabel03252503373D

 40 42  0  0  1  0  0  0  0  0999 V2000
   39.8030   27.5430   43.0930 C   0  0  0  0  0  0  0  0  0  0  0  0
   38.6800   28.1000   42.6420 C   0  0  0  0  0  0  0  0  0  0  0  0
   38.6990   29.4060   42.0930 N   0  0  0  0  0  0  0  0  0  0  0  0
   38.2200   30.3410   41.1450 C   0  0  0  0  0  0  0  0  0  0  0  0
   37.3050   30.3460   40.2580 O   0  0  0  0  0  0  0  0  0  0  0  0
   39.1550   31.3930   41.5040 C   0  0  1  0  0  0  0  0  0  0  0  0
   39.5610   30.4480   42.6100 C   0  0  2  0  0  0  0  0  0  0  0  0
   41.2460   29.8300   42.5370 S   0  0  0  0  0  0  0  0  0  0  0  0
   41.1740   28.1300   43.1000 C   0  0  0  0  0  0  0  0  0  0  0  0
   38.7480   32.3200   41.9960 H   0  0  0  0  0  0  0  0  0  0  0  0
   39.2310   30.7750   43.6200 H   0  0  0  0  0  0  0  0  0  0  0  0
   41.5760   27.9910   44.1110 H   0  0  0  0  0  0  0  0  0  0  0  0
   41.7700   27.5200   42.3850 H   0  0  0  0  0  0  0  0  0  0  0  0
   40.1380   31.6660   40.4660 C   0  0  0  0  0  0  0  0  0  0  0  0
   40.5230   31.0270   39.4720 O   0  0  0  0  0  0  0  0  0  0  0  0
   40.7970   32.9400   40.6200 N   0  0  0  0  0  0  0  0  0  0  0  0
   40.7160   33.7200   41.3110 H   0  0  0  0  0  0  0  0  0  0  0  0
   42.4920   34.3170   37.6180 C   0  0  0  0  0  0  0  0  0  0  0  0
   41.4740   33.9270   38.4900 C   0  0  0  0  0  0  0  0  0  0  0  0
   41.7950   33.3710   39.7120 C   0  0  0  0  0  0  0  0  0  0  0  0
   43.0900   33.2200   40.0310 N   0  0  0  0  0  0  0  0  0  0  0  0
   44.0790   33.6040   39.1690 C   0  0  0  0  0  0  0  0  0  0  0  0
   43.7600   34.1450   37.9800 N   0  0  0  0  0  0  0  0  0  0  0  0
   42.1150   34.7390   36.6910 H   0  0  0  0  0  0  0  0  0  0  0  0
   40.4110   34.0490   38.2350 H   0  0  0  0  0  0  0  0  0  0  0  0
   45.1170   33.4770   39.4370 H   0  0  0  0  0  0  0  0  0  0  0  0
   39.6440   26.1770   43.6480 C   0  0  0  0  0  0  0  0  0  0  0  0
   38.9710   26.1280   44.5290 H   0  0  0  0  0  0  0  0  0  0  0  0
   40.6160   25.7020   43.8830 H   0  0  0  0  0  0  0  0  0  0  0  0
   39.1480   25.5890   42.8300 H   0  0  0  0  0  0  0  0  0  0  0  0
   37.4100   27.3980   42.6950 C   0  0  0  0  0  0  0  0  0  0  0  0
   36.6230   27.4710   43.6790 O   0  0  0  0  0  0  0  0  0  0  0  0
   36.7550   26.5570   41.8220 O   0  0  0  0  0  0  0  0  0  0  0  0
   37.2700   26.0760   40.6250 C   0  0  0  0  0  2  0  0  0  0  0  0
   37.1480   27.1310   39.6400 N   0  0  0  0  0  4  0  0  0  0  0  0
   37.0360   28.0300   40.2020 H   0  0  0  0  0  0  0  0  0  0  0  0
   36.0960   26.9400   38.6910 C   0  0  0  0  0  2  0  0  0  0  0  0
   36.3740   27.2070   37.6420 H   0  0  0  0  0  0  0  0  0  0  0  0
   38.3900   27.3170   38.9120 C   0  0  0  0  0  2  0  0  0  0  0  0
   38.2190   27.7720   37.9190 H   0  0  0  0  0  0  0  0  0  0  0  0
  1  9  1  0  0  0  0
  1 27  1  0  0  0  0
  2 31  1  0  0  0  0
  2  1  2  0  0  0  0
  3  7  1  0  0  0  0
  3  2  1  0  0  0  0
  4  6  1  0  0  0  0
  4  3  1  0  0  0  0
  5  4  2  0  0  0  0
  6 10  1  1  0  0  0
  6  7  1  0  0  0  0
  7 11  1  1  0  0  0
  8  7  1  0  0  0  0
  8  9  1  0  0  0  0
  9 12  1  0  0  0  0
 13  9  1  0  0  0  0
 14 16  1  0  0  0  0
 14  6  1  0  0  0  0
 15 14  2  0  0  0  0
 16 17  1  0  0  0  0
 18 23  2  0  0  0  0
 18 19  1  0  0  0  0
 19 20  2  0  0  0  0
 20 21  1  0  0  0  0
 20 16  1  0  0  0  0
 22 26  1  0  0  0  0
 22 21  2  0  0  0  0
 23 22  1  0  0  0  0
 24 18  1  0  0  0  0
 25 19  1  0  0  0  0
 27 29  1  0  0  0  0
 27 28  1  0  0  0  0
 30 27  1  0  0  0  0
 31 32  2  0  0  0  0
 33 31  1  0  0  0  0
 34 33  1  0  0  0  0
 35 36  1  0  0  0  0
 35 34  1  0  0  0  0
 37 35  1  0  0  0  0
 38 37  1  0  0  0  0
 39 35  1  0  0  0  0
 40 39  1  0  0  0  0
M  END
>  <minimizedAffinity>
-4.89628983

$$$$

 OpenBabel03252503373D

 40 42  0  0  1  0  0  0  0  0999 V2000
   37.3470   31.1990   39.9850 C   0  0  0  0  0  0  0  0  0  0  0  0
   38.5590   30.8760   40.4360 C   0  0  0  0  0  0  0  0  0  0  0  0
   38.7320   29.7580   41.2890 N   0  0  0  0  0  0  0  0  0  0  0  0
   39.5050   28.6530   41.7160 C   0  0  0  0  0  0  0  0  0  0  0  0
   40.6650   28.2000   41.4470 O   0  0  0  0  0  0  0  0  0  0  0  0
   38.5080   28.1320   42.6340 C   0  0  1  0  0  0  0  0  0  0  0  0
   37.7490   29.3910   42.2880 C   0  0  2  0  0  0  0  0  0  0  0  0
   36.1850   29.1580   41.4370 S   0  0  0  0  0  0  0  0  0  0  0  0
   36.0570   30.5050   40.2600 C   0  0  0  0  0  0  0  0  0  0  0  0
   38.7290   28.1740   43.7370 H   0  0  0  0  0  0  0  0  0  0  0  0
   37.7210   30.1360   43.1130 H   0  0  0  0  0  0  0  0  0  0  0  0
   35.3370   31.2750   40.5610 H   0  0  0  0  0  0  0  0  0  0  0  0
   35.7340   30.0650   39.2890 H   0  0  0  0  0  0  0  0  0  0  0  0
   37.9340   26.8670   42.2010 C   0  0  0  0  0  0  0  0  0  0  0  0
   37.0070   26.1620   42.6370 O   0  0  0  0  0  0  0  0  0  0  0  0
   38.5660   26.3220   41.0240 N   0  0  0  0  0  0  0  0  0  0  0  0
   39.3430   26.6430   40.4040 H   0  0  0  0  0  0  0  0  0  0  0  0
   36.7770   23.7820   38.9920 C   0  0  0  0  0  0  0  0  0  0  0  0
   37.1700   25.0230   39.4960 C   0  0  0  0  0  0  0  0  0  0  0  0
   38.1500   25.0880   40.4660 C   0  0  0  0  0  0  0  0  0  0  0  0
   38.7050   23.9450   40.8990 N   0  0  0  0  0  0  0  0  0  0  0  0
   38.3130   22.7360   40.3990 C   0  0  0  0  0  0  0  0  0  0  0  0
   37.3570   22.6790   39.4550 N   0  0  0  0  0  0  0  0  0  0  0  0
   36.0000   23.8610   38.2370 H   0  0  0  0  0  0  0  0  0  0  0  0
   36.7200   25.9640   39.1460 H   0  0  0  0  0  0  0  0  0  0  0  0
   38.7660   21.8230   40.7550 H   0  0  0  0  0  0  0  0  0  0  0  0
   37.3050   32.3930   39.1060 C   0  0  0  0  0  0  0  0  0  0  0  0
   37.6410   33.3250   39.6040 H   0  0  0  0  0  0  0  0  0  0  0  0
   36.3090   32.5420   38.6470 H   0  0  0  0  0  0  0  0  0  0  0  0
   38.0460   32.1760   38.2900 H   0  0  0  0  0  0  0  0  0  0  0  0
   39.7340   31.6480   40.0740 C   0  0  0  0  0  0  0  0  0  0  0  0
   40.2970   32.4570   40.8620 O   0  0  0  0  0  0  0  0  0  0  0  0
   40.4980   31.7320   38.9300 O   0  0  0  0  0  0  0  0  0  0  0  0
   40.5760   30.7610   37.9390 C   0  0  0  0  0  2  0  0  0  0  0  0
   41.3950   31.2930   36.8690 N   0  0  0  0  0  4  0  0  0  0  0  0
   40.7260   31.4560   36.0560 H   0  0  0  0  0  0  0  0  0  0  0  0
   42.5100   30.4730   36.5100 C   0  0  0  0  0  2  0  0  0  0  0  0
   43.4520   31.0430   36.3160 H   0  0  0  0  0  0  0  0  0  0  0  0
   41.8900   32.6180   37.1950 C   0  0  0  0  0  2  0  0  0  0  0  0
   42.8160   32.8570   36.6400 H   0  0  0  0  0  0  0  0  0  0  0  0
  1  9  1  0  0  0  0
  1  2  2  0  0  0  0
  2  3  1  0  0  0  0
  3  4  1  0  0  0  0
  3  7  1  0  0  0  0
  4  6  1  0  0  0  0
  5  4  2  0  0  0  0
  6 10  1  1  0  0  0
  7  6  1  0  0  0  0
  7 11  1  1  0  0  0
  8  7  1  0  0  0  0
  9 12  1  0  0  0  0
  9  8  1  0  0  0  0
 13  9  1  0  0  0  0
 14  6  1  0  0  0  0
 14 15  2  0  0  0  0
 16 14  1  0  0  0  0
 17 16  1  0  0  0  0
 18 23  2  0  0  0  0
 18 19  1  0  0  0  0
 19 20  2  0  0  0  0
 20 21  1  0  0  0  0
 20 16  1  0  0  0  0
 22 26  1  0  0  0  0
 22 21  2  0  0  0  0
 23 22  1  0  0  0  0
 24 18  1  0  0  0  0
 25 19  1  0  0  0  0
 27 28  1  0  0  0  0
 27  1  1  0  0  0  0
 29 27  1  0  0  0  0
 30 27  1  0  0  0  0
 31  2  1  0  0  0  0
 31 32  2  0  0  0  0
 33 31  1  0  0  0  0
 34 33  1  0  0  0  0
 35 39  1  0  0  0  0
 35 34  1  0  0  0  0
 36 35  1  0  0  0  0
 37 35  1  0  0  0  0
 38 37  1  0  0  0  0
 40 39  1  0  0  0  0
M  END
>  <minimizedAffinity>
-4.85753155

$$$$

 OpenBabel03252503373D

 40 42  0  0  1  0  0  0  0  0999 V2000
   37.3880   31.0800   38.2840 C   0  0  0  0  0  0  0  0  0  0  0  0
   38.1590   31.4610   39.3010 C   0  0  0  0  0  0  0  0  0  0  0  0
   37.9990   30.8730   40.5800 N   0  0  0  0  0  0  0  0  0  0  0  0
   38.5640   30.4020   41.7890 C   0  0  0  0  0  0  0  0  0  0  0  0
   39.7260   30.4110   42.3110 O   0  0  0  0  0  0  0  0  0  0  0  0
   37.3260   29.8550   42.3160 C   0  0  1  0  0  0  0  0  0  0  0  0
   36.7020   30.4900   41.0960 C   0  0  2  0  0  0  0  0  0  0  0  0
   35.9690   29.3580   39.9090 S   0  0  0  0  0  0  0  0  0  0  0  0
   36.3110   30.0500   38.2910 C   0  0  0  0  0  0  0  0  0  0  0  0
   36.8670   30.3520   43.2170 H   0  0  0  0  0  0  0  0  0  0  0  0
   36.0830   31.3840   41.3260 H   0  0  0  0  0  0  0  0  0  0  0  0
   35.4310   30.5040   37.8200 H   0  0  0  0  0  0  0  0  0  0  0  0
   36.6790   29.2190   37.6480 H   0  0  0  0  0  0  0  0  0  0  0  0
   37.3250   28.4020   42.3870 C   0  0  0  0  0  0  0  0  0  0  0  0
   36.4790   27.5700   42.7600 O   0  0  0  0  0  0  0  0  0  0  0  0
   38.5540   27.8030   41.9260 N   0  0  0  0  0  0  0  0  0  0  0  0
   39.4470   28.1850   41.5410 H   0  0  0  0  0  0  0  0  0  0  0  0
   39.5380   24.3720   42.9460 C   0  0  0  0  0  0  0  0  0  0  0  0
   39.3550   25.7550   42.9920 C   0  0  0  0  0  0  0  0  0  0  0  0
   38.7410   26.3990   41.9360 C   0  0  0  0  0  0  0  0  0  0  0  0
   38.3340   25.6700   40.8850 N   0  0  0  0  0  0  0  0  0  0  0  0
   38.5200   24.3160   40.8500 C   0  0  0  0  0  0  0  0  0  0  0  0
   39.1180   23.6950   41.8820 N   0  0  0  0  0  0  0  0  0  0  0  0
   40.0310   23.9830   43.8330 H   0  0  0  0  0  0  0  0  0  0  0  0
   39.6850   26.3590   43.8490 H   0  0  0  0  0  0  0  0  0  0  0  0
   38.1880   23.7400   40.0000 H   0  0  0  0  0  0  0  0  0  0  0  0
   37.6550   31.7790   37.0030 C   0  0  0  0  0  0  0  0  0  0  0  0
   37.4840   32.8740   37.0470 H   0  0  0  0  0  0  0  0  0  0  0  0
   37.0910   31.3380   36.1580 H   0  0  0  0  0  0  0  0  0  0  0  0
   38.7520   31.6300   36.8160 H   0  0  0  0  0  0  0  0  0  0  0  0
   39.1810   32.4810   39.1400 C   0  0  0  0  0  0  0  0  0  0  0  0
   39.0850   33.6360   39.6400 O   0  0  0  0  0  0  0  0  0  0  0  0
   40.3960   32.5110   38.4920 O   0  0  0  0  0  0  0  0  0  0  0  0
   41.6240   32.7630   39.0890 C   0  0  0  0  0  2  0  0  0  0  0  0
   41.6860   31.9820   40.3070 N   0  0  0  0  0  4  0  0  0  0  0  0
   40.6810   31.6960   40.5110 H   0  0  0  0  0  0  0  0  0  0  0  0
   42.3040   32.6490   41.4110 C   0  0  0  0  0  2  0  0  0  0  0  0
   42.9890   32.0010   42.0110 H   0  0  0  0  0  0  0  0  0  0  0  0
   42.3780   30.7240   40.0900 C   0  0  0  0  0  2  0  0  0  0  0  0
   42.8100   30.3270   41.0280 H   0  0  0  0  0  0  0  0  0  0  0  0
  1  9  1  0  0  0  0
  1  2  2  0  0  0  0
  2  3  1  0  0  0  0
  3  7  1  0  0  0  0
  3  4  1  0  0  0  0
  4  5  2  0  0  0  0
  4  6  1  0  0  0  0
  6 14  1  0  0  0  0
  6 10  1  1  0  0  0
  7 11  1  1  0  0  0
  7  6  1  0  0  0  0
  8  7  1  0  0  0  0
  9  8  1  0  0  0  0
 12  9  1  0  0  0  0
 13  9  1  0  0  0  0
 14 15  2  0  0  0  0
 16 20  1  0  0  0  0
 16 14  1  0  0  0  0
 17 16  1  0  0  0  0
 18 19  1  0  0  0  0
 18 24  1  0  0  0  0
 19 25  1  0  0  0  0
 20 19  2  0  0  0  0
 21 20  1  0  0  0  0
 22 21  2  0  0  0  0
 22 23  1  0  0  0  0
 23 18  2  0  0  0  0
 26 22  1  0  0  0  0
 27 28  1  0  0  0  0
 27  1  1  0  0  0  0
 29 27  1  0  0  0  0
 30 27  1  0  0  0  0
 31  2  1  0  0  0  0
 31 32  2  0  0  0  0
 33 34  1  0  0  0  0
 33 31  1  0  0  0  0
 34 35  1  0  0  0  0
 35 36  1  0  0  0  0
 35 37  1  0  0  0  0
 37 38  1  0  0  0  0
 39 35  1  0  0  0  0
 39 40  1  0  0  0  0
M  END
>  <minimizedAffinity>
-4.85520267

$$$$
