
 OpenBabel03242517103D

 45 47  0  0  1  0  0  0  0  0999 V2000
   46.0400   33.8170   43.1920 C   0  0  2  0  0  0  0  0  0  0  0  0
   45.2300   34.8720   42.5200 C   0  0  2  0  0  0  0  0  0  0  0  0
   45.0660   36.0920   43.3460 C   0  0  0  0  0  0  0  0  0  0  0  0
   44.5660   35.8400   44.7430 C   0  0  0  0  0  0  0  0  0  0  0  0
   45.0780   34.5720   45.3530 C   0  0  0  0  0  0  0  0  0  0  0  0
   46.3150   34.0530   44.6470 C   0  0  0  0  0  0  0  0  0  0  0  0
   45.4790   32.8390   43.1070 H   0  0  0  0  0  0  0  0  0  0  0  0
   45.7480   35.1700   41.5830 H   0  0  0  0  0  0  0  0  0  0  0  0
   44.3850   36.7900   42.8310 H   0  0  0  0  0  0  0  0  0  0  0  0
   46.0470   36.6230   43.4360 H   0  0  0  0  0  0  0  0  0  0  0  0
   43.4450   35.7550   44.6740 H   0  0  0  0  0  0  0  0  0  0  0  0
   44.7630   36.7380   45.3540 H   0  0  0  0  0  0  0  0  0  0  0  0
   45.4210   34.8380   46.3840 H   0  0  0  0  0  0  0  0  0  0  0  0
   44.3200   33.7880   45.4810 H   0  0  0  0  0  0  0  0  0  0  0  0
   47.1920   34.6240   44.9070 H   0  0  0  0  0  0  0  0  0  0  0  0
   46.4840   33.0280   45.1020 H   0  0  0  0  0  0  0  0  0  0  0  0
   42.9460   35.3100   41.5360 C   0  0  1  0  0  0  0  0  0  0  0  0
   43.8870   34.3100   42.1060 C   0  0  1  0  0  0  0  0  0  0  0  0
   44.1100   33.3160   41.1610 O   0  0  0  0  0  0  0  0  0  0  0  0
   43.7490   33.8230   39.9210 C   0  0  0  0  0  0  0  0  0  0  0  0
   42.4820   34.5670   40.2650 C   0  0  2  0  0  0  0  0  0  0  0  0
   43.4020   36.2520   41.2290 H   0  0  0  0  0  0  0  0  0  0  0  0
   43.3940   33.8360   42.9880 H   0  0  0  0  0  0  0  0  0  0  0  0
   43.6110   32.9770   39.2410 H   0  0  0  0  0  0  0  0  0  0  0  0
   44.5180   34.5340   39.5410 H   0  0  0  0  0  0  0  0  0  0  0  0
   41.6660   33.8890   40.5150 H   0  0  0  0  0  0  0  0  0  0  0  0
   41.8320   35.5310   42.3250 O   0  0  0  0  0  0  0  0  0  0  0  0
   41.0940   35.9650   41.8600 H   0  0  0  0  0  0  0  0  0  0  0  0
   42.1510   35.4990   39.2890 O   0  0  0  0  0  0  0  0  0  0  0  0
   40.7820   35.6690   39.2670 C   0  0  0  0  0  2  0  0  0  0  0  0
   40.0420   34.4530   39.0360 N   0  0  0  0  0  4  0  0  0  0  0  0
   40.6220   33.6230   39.2200 H   0  0  0  0  0  0  0  0  0  0  0  0
   38.8820   34.4180   39.9340 C   0  0  0  0  0  2  0  0  0  0  0  0
   38.0200   34.7860   39.3370 H   0  0  0  0  0  0  0  0  0  0  0  0
   39.5780   34.3910   37.6530 C   0  0  0  0  0  2  0  0  0  0  0  0
   38.9570   33.4930   37.5310 H   0  0  0  0  0  0  0  0  0  0  0  0
   47.3240   33.5730   42.5040 C   0  0  0  0  0  0  0  0  0  0  0  0
   48.3910   34.3470   42.9580 C   0  0  0  0  0  0  0  0  0  0  0  0
   49.6640   34.1980   42.3800 C   0  0  0  0  0  0  0  0  0  0  0  0
   49.7560   33.2560   41.3650 N   0  0  0  0  0  0  0  0  0  0  0  0
   48.6930   32.5260   40.9540 C   0  0  0  0  0  0  0  0  0  0  0  0
   47.4840   32.6860   41.5230 N   0  0  0  0  0  0  0  0  0  0  0  0
   48.4660   35.1110   43.7160 H   0  0  0  0  0  0  0  0  0  0  0  0
   50.5600   34.7350   42.6450 H   0  0  0  0  0  0  0  0  0  0  0  0
   48.8940   31.8240   40.1520 H   0  0  0  0  0  0  0  0  0  0  0  0
  1  7  1  6  0  0  0
  1  6  1  0  0  0  0
  2  8  1  6  0  0  0
  2  1  1  0  0  0  0
  2  3  1  0  0  0  0
  3 10  1  0  0  0  0
  3  4  1  0  0  0  0
  4  5  1  0  0  0  0
  4 12  1  0  0  0  0
  5 14  1  0  0  0  0
  5 13  1  0  0  0  0
  6 15  1  0  0  0  0
  6 16  1  0  0  0  0
  6  5  1  0  0  0  0
  9  3  1  0  0  0  0
 11  4  1  0  0  0  0
 17 22  1  6  0  0  0
 17 18  1  0  0  0  0
 17 27  1  0  0  0  0
 18  2  1  0  0  0  0
 18 23  1  1  0  0  0
 19 18  1  0  0  0  0
 20 21  1  0  0  0  0
 20 19  1  0  0  0  0
 21 26  1  1  0  0  0
 21 17  1  0  0  0  0
 24 20  1  0  0  0  0
 25 20  1  0  0  0  0
 28 27  1  0  0  0  0
 29 21  1  0  0  0  0
 30 29  1  0  0  0  0
 31 32  1  0  0  0  0
 31 30  1  0  0  0  0
 31 33  1  0  0  0  0
 34 33  1  0  0  0  0
 35 31  1  0  0  0  0
 36 35  1  0  0  0  0
 37 38  1  0  0  0  0
 37  1  1  0  0  0  0
 38 43  1  0  0  0  0
 39 44  1  0  0  0  0
 39 38  2  0  0  0  0
 40 39  1  0  0  0  0
 41 40  2  0  0  0  0
 41 42  1  0  0  0  0
 42 37  2  0  0  0  0
 45 41  1  0  0  0  0
M  END
>  <minimizedAffinity>
-5.91602564

>  <minimizedRMSD>
0.878022552

$$$$
