
 OpenBabel03242518283D

 19 19  0  0  0  0  0  0  0  0999 V2000
   48.4760   33.4950   42.6170 C   0  0  0  0  0  0  0  0  0  0  0  0
   48.0490   33.0320   43.7160 O   0  0  0  0  0  0  0  0  0  0  0  0
   49.4050   32.8520   41.7370 C   0  0  0  0  0  0  0  0  0  0  0  0
   48.8390   32.4650   40.5180 C   0  0  0  0  0  0  0  0  0  0  0  0
   49.6940   31.8220   39.5970 C   0  0  0  0  0  0  0  0  0  0  0  0
   50.9850   31.6180   39.9300 N   0  0  0  0  0  0  0  0  0  0  0  0
   51.4820   32.0150   41.1310 C   0  0  0  0  0  0  0  0  0  0  0  0
   50.6870   32.6260   42.0170 N   0  0  0  0  0  0  0  0  0  0  0  0
   47.8140   32.6060   40.2050 H   0  0  0  0  0  0  0  0  0  0  0  0
   49.3170   31.5000   38.6390 H   0  0  0  0  0  0  0  0  0  0  0  0
   52.5210   31.8570   41.4150 H   0  0  0  0  0  0  0  0  0  0  0  0
   48.0270   34.7330   42.1940 O   0  0  0  0  0  0  0  0  0  0  0  0
   46.6290   34.9580   41.9570 C   0  0  0  0  0  2  0  0  0  0  0  0
   45.8490   34.9540   43.1530 N   0  0  0  0  0  4  0  0  0  0  0  0
   46.4220   34.8850   44.0020 H   0  0  0  0  0  0  0  0  0  0  0  0
   45.1950   36.2670   43.2000 C   0  0  0  0  0  2  0  0  0  0  0  0
   44.8570   36.4550   42.1540 H   0  0  0  0  0  0  0  0  0  0  0  0
   44.7960   33.9630   43.1510 C   0  0  0  0  0  2  0  0  0  0  0  0
   45.1290   32.9390   43.3600 H   0  0  0  0  0  0  0  0  0  0  0  0
  1  2  2  0  0  0  0
  3  8  1  0  0  0  0
  3  1  1  0  0  0  0
  4  3  2  0  0  0  0
  5  6  2  0  0  0  0
  5  4  1  0  0  0  0
  6  7  1  0  0  0  0
  7 11  1  0  0  0  0
  7  8  2  0  0  0  0
  9  4  1  0  0  0  0
 10  5  1  0  0  0  0
 12  1  1  0  0  0  0
 13 12  1  0  0  0  0
 13 14  1  0  0  0  0
 14 16  1  0  0  0  0
 14 15  1  0  0  0  0
 17 16  1  0  0  0  0
 18 14  1  0  0  0  0
 18 19  1  0  0  0  0
M  END
>  <minimizedAffinity>
-2.81841421

>  <minimizedRMSD>
5.42625093

$$$$
