
 OpenBabel03242518283D

 19 19  0  0  0  0  0  0  0  0999 V2000
   47.0700   34.9010   41.9360 C   0  0  0  0  0  0  0  0  0  0  0  0
   48.1880   35.4750   41.7770 O   0  0  0  0  0  0  0  0  0  0  0  0
   46.3060   34.8690   43.1460 C   0  0  0  0  0  0  0  0  0  0  0  0
   45.3590   35.8940   43.2340 C   0  0  0  0  0  0  0  0  0  0  0  0
   44.5660   35.9280   44.4010 C   0  0  0  0  0  0  0  0  0  0  0  0
   44.7570   34.9920   45.3540 N   0  0  0  0  0  0  0  0  0  0  0  0
   45.6940   34.0180   45.2160 C   0  0  0  0  0  0  0  0  0  0  0  0
   46.4550   33.9690   44.1170 N   0  0  0  0  0  0  0  0  0  0  0  0
   45.1690   36.6650   42.5000 H   0  0  0  0  0  0  0  0  0  0  0  0
   43.8180   36.6950   44.5270 H   0  0  0  0  0  0  0  0  0  0  0  0
   45.8600   33.2550   45.9760 H   0  0  0  0  0  0  0  0  0  0  0  0
   46.5020   34.2350   40.8660 O   0  0  0  0  0  0  0  0  0  0  0  0
   47.2740   33.9620   39.6860 C   0  0  0  0  0  2  0  0  0  0  0  0
   47.6830   32.5980   39.5850 N   0  0  0  0  0  4  0  0  0  0  0  0
   47.0710   31.9580   40.1040 H   0  0  0  0  0  0  0  0  0  0  0  0
   47.5390   32.2490   38.1670 C   0  0  0  0  0  2  0  0  0  0  0  0
   47.9350   33.1330   37.6140 H   0  0  0  0  0  0  0  0  0  0  0  0
   49.0720   32.3860   39.9290 C   0  0  0  0  0  2  0  0  0  0  0  0
   49.2810   32.3720   41.0050 H   0  0  0  0  0  0  0  0  0  0  0  0
  1  3  1  0  0  0  0
  2  1  2  0  0  0  0
  3  4  2  0  0  0  0
  3  8  1  0  0  0  0
  4  5  1  0  0  0  0
  5 10  1  0  0  0  0
  5  6  2  0  0  0  0
  7  6  1  0  0  0  0
  7 11  1  0  0  0  0
  8  7  2  0  0  0  0
  9  4  1  0  0  0  0
 12  1  1  0  0  0  0
 13 12  1  0  0  0  0
 14 13  1  0  0  0  0
 14 18  1  0  0  0  0
 14 15  1  0  0  0  0
 16 14  1  0  0  0  0
 17 16  1  0  0  0  0
 18 19  1  0  0  0  0
M  END
>  <minimizedAffinity>
-3.49986291

>  <minimizedRMSD>
0.833029509

$$$$
