
 OpenBabel03242523273D

 43 45  0  0  1  0  0  0  0  0999 V2000
   36.9310   28.9140   40.3690 C   0  0  0  0  0  0  0  0  0  0  0  0
   36.9050   27.8070   41.0860 C   0  0  0  0  0  0  0  0  0  0  0  0
   37.1480   26.6460   40.3730 C   0  0  0  0  0  0  0  0  0  0  0  0
   37.3890   26.7730   38.9820 N   0  0  0  0  0  0  0  0  0  0  0  0
   37.3960   27.9090   38.3400 C   0  0  0  0  0  0  0  0  0  0  0  0
   37.1570   29.0820   39.0390 N   0  0  0  0  0  0  0  0  0  0  0  0
   37.1740   25.6420   40.7690 H   0  0  0  0  0  0  0  0  0  0  0  0
   37.5940   27.8430   37.2790 H   0  0  0  0  0  0  0  0  0  0  0  0
   36.5410   27.6610   42.4740 C   0  0  1  0  0  0  0  0  0  0  0  0
   36.7730   26.5960   43.2750 C   0  0  0  0  0  0  0  0  0  0  0  0
   37.7770   27.6900   43.4860 C   0  0  1  0  0  0  0  0  0  0  0  0
   35.8590   28.5180   42.7760 H   0  0  0  0  0  0  0  0  0  0  0  0
   36.1640   26.3620   44.1740 H   0  0  0  0  0  0  0  0  0  0  0  0
   37.2080   25.6280   42.8830 H   0  0  0  0  0  0  0  0  0  0  0  0
   37.6530   28.3350   44.3720 H   0  0  0  0  0  0  0  0  0  0  0  0
   39.0550   27.5340   42.8890 N   0  0  0  0  0  0  0  0  0  0  0  0
   39.6570   28.3860   42.9250 H   0  0  0  0  0  0  0  0  0  0  0  0
   39.7110   26.5040   43.6790 C   0  0  0  0  0  2  0  0  0  0  0  0
   40.3510   25.5070   42.8830 N   0  0  0  0  0  4  0  0  0  0  0  0
   41.2890   25.2720   43.2740 H   0  0  0  0  0  0  0  0  0  0  0  0
   40.6260   26.1140   41.5850 C   0  0  0  0  0  2  0  0  0  0  0  0
   41.1260   27.0950   41.7860 H   0  0  0  0  0  0  0  0  0  0  0  0
   39.5450   24.3180   42.6850 C   0  0  0  0  0  2  0  0  0  0  0  0
   39.5960   23.7270   43.6320 H   0  0  0  0  0  0  0  0  0  0  0  0
   36.7740   30.2970   40.9050 C   0  0  0  0  0  0  0  0  0  0  0  0
   36.1580   31.2330   41.3190 O   0  0  0  0  0  0  0  0  0  0  0  0
   37.6870   32.2850   38.7090 Cl  0  0  0  0  0  0  0  0  0  0  0  0
   38.7050   31.8310   40.0600 C   0  0  0  0  0  0  0  0  0  0  0  0
   38.1510   30.9170   40.9980 C   0  0  0  0  0  0  0  0  0  0  0  0
   39.0450   30.6550   41.9990 C   0  0  0  0  0  0  0  0  0  0  0  0
   40.2670   31.0980   42.2040 C   0  0  0  0  0  0  0  0  0  0  0  0
   40.7590   31.9810   41.2640 C   0  0  0  0  0  0  0  0  0  0  0  0
   39.9960   32.3450   40.2080 C   0  0  0  0  0  0  0  0  0  0  0  0
   38.6910   29.9530   42.7990 H   0  0  0  0  0  0  0  0  0  0  0  0
   40.9020   30.8160   43.0520 H   0  0  0  0  0  0  0  0  0  0  0  0
   41.7820   32.3680   41.4120 H   0  0  0  0  0  0  0  0  0  0  0  0
   40.5840   33.2290   39.3370 O   0  0  0  0  0  0  0  0  0  0  0  0
   42.1720   34.1610   37.4710 O   0  0  0  0  0  0  0  0  0  0  0  0
   41.4230   32.9270   37.8970 P   0  0  0  0  0  0  0  0  0  0  0  0
   42.4790   31.6250   38.1410 O   0  0  0  0  0  0  0  0  0  0  0  0
   42.2330   30.8160   37.6640 H   0  0  0  0  0  0  0  0  0  0  0  0
   40.3780   32.4510   36.6530 O   0  0  0  0  0  0  0  0  0  0  0  0
   40.2510   33.2210   36.0310 H   0  0  0  0  0  0  0  0  0  0  0  0
  1 25  1  0  0  0  0
  1  2  1  0  0  0  0
  2  9  1  0  0  0  0
  3  7  1  0  0  0  0
  3  2  2  0  0  0  0
  4  3  1  0  0  0  0
  5  4  2  0  0  0  0
  5  6  1  0  0  0  0
  6  1  2  0  0  0  0
  8  5  1  0  0  0  0
  9 12  1  1  0  0  0
  9 10  1  0  0  0  0
  9 11  1  0  0  0  0
 10 11  1  0  0  0  0
 10 13  1  0  0  0  0
 11 15  1  1  0  0  0
 14 10  1  0  0  0  0
 16 17  1  0  0  0  0
 16 11  1  0  0  0  0
 16 18  1  0  0  0  0
 19 20  1  0  0  0  0
 19 18  1  0  0  0  0
 21 22  1  0  0  0  0
 21 19  1  0  0  0  0
 23 19  1  0  0  0  0
 23 24  1  0  0  0  0
 25 29  1  0  0  0  0
 25 26  2  0  0  0  0
 27 28  1  0  0  0  0
 28 33  2  0  0  0  0
 28 29  1  0  0  0  0
 29 30  2  0  0  0  0
 30 31  1  0  0  0  0
 30 34  1  0  0  0  0
 31 35  1  0  0  0  0
 32 36  1  0  0  0  0
 32 31  2  0  0  0  0
 33 32  1  0  0  0  0
 37 33  1  0  0  0  0
 38 39  2  0  0  0  0
 39 40  1  0  0  0  0
 39 37  1  0  0  0  0
 41 40  1  0  0  0  0
 42 39  1  0  0  0  0
 43 42  1  0  0  0  0
M  END
>  <minimizedAffinity>
-5.62509632

$$$$

 OpenBabel03242523273D

 43 45  0  0  1  0  0  0  0  0999 V2000
   39.0500   32.0410   40.8260 C   0  0  0  0  0  0  0  0  0  0  0  0
   40.2950   32.3960   40.5710 C   0  0  0  0  0  0  0  0  0  0  0  0
   41.2560   31.6960   41.2800 C   0  0  0  0  0  0  0  0  0  0  0  0
   40.8060   30.7000   42.1820 N   0  0  0  0  0  0  0  0  0  0  0  0
   39.5490   30.4070   42.3820 C   0  0  0  0  0  0  0  0  0  0  0  0
   38.5740   31.0960   41.6790 N   0  0  0  0  0  0  0  0  0  0  0  0
   42.3260   31.8290   41.2170 H   0  0  0  0  0  0  0  0  0  0  0  0
   39.3640   29.6230   43.1040 H   0  0  0  0  0  0  0  0  0  0  0  0
   40.7530   33.4880   39.7470 C   0  0  1  0  0  0  0  0  0  0  0  0
   42.0090   33.7040   39.2950 C   0  0  0  0  0  0  0  0  0  0  0  0
   41.1360   33.0710   38.2530 C   0  0  1  0  0  0  0  0  0  0  0  0
   39.9280   34.2650   39.6630 H   0  0  0  0  0  0  0  0  0  0  0  0
   42.3940   34.7070   39.0130 H   0  0  0  0  0  0  0  0  0  0  0  0
   42.8870   33.0680   39.6220 H   0  0  0  0  0  0  0  0  0  0  0  0
   40.7330   33.7220   37.4580 H   0  0  0  0  0  0  0  0  0  0  0  0
   41.2820   31.6770   38.0300 N   0  0  0  0  0  0  0  0  0  0  0  0
   40.3910   31.1760   37.8170 H   0  0  0  0  0  0  0  0  0  0  0  0
   42.1290   31.5770   36.8520 C   0  0  0  0  0  2  0  0  0  0  0  0
   42.1710   30.2610   36.3000 N   0  0  0  0  0  4  0  0  0  0  0  0
   41.2960   30.0570   35.7720 H   0  0  0  0  0  0  0  0  0  0  0  0
   42.1580   29.3300   37.4240 C   0  0  0  0  0  2  0  0  0  0  0  0
   41.3180   29.6440   38.0940 H   0  0  0  0  0  0  0  0  0  0  0  0
   43.3500   30.0080   35.4940 C   0  0  0  0  0  2  0  0  0  0  0  0
   43.1880   30.5160   34.5110 H   0  0  0  0  0  0  0  0  0  0  0  0
   37.8390   32.5850   40.1470 C   0  0  0  0  0  0  0  0  0  0  0  0
   37.1160   33.4510   39.7570 O   0  0  0  0  0  0  0  0  0  0  0  0
   37.9830   31.8100   37.1500 Cl  0  0  0  0  0  0  0  0  0  0  0  0
   36.9810   30.9550   38.3020 C   0  0  0  0  0  0  0  0  0  0  0  0
   37.0220   31.4130   39.6480 C   0  0  0  0  0  0  0  0  0  0  0  0
   36.2020   30.6560   40.4390 C   0  0  0  0  0  0  0  0  0  0  0  0
   35.4290   29.6320   40.1500 C   0  0  0  0  0  0  0  0  0  0  0  0
   35.4230   29.2270   38.8300 C   0  0  0  0  0  0  0  0  0  0  0  0
   36.1840   29.8730   37.9180 C   0  0  0  0  0  0  0  0  0  0  0  0
   36.1790   30.9330   41.5260 H   0  0  0  0  0  0  0  0  0  0  0  0
   34.8050   29.0940   40.8740 H   0  0  0  0  0  0  0  0  0  0  0  0
   34.7820   28.3690   38.5610 H   0  0  0  0  0  0  0  0  0  0  0  0
   36.1030   29.3860   36.6360 O   0  0  0  0  0  0  0  0  0  0  0  0
   36.7980   26.9550   35.9460 O   0  0  0  0  0  0  0  0  0  0  0  0
   37.1870   28.4010   35.7870 P   0  0  0  0  0  0  0  0  0  0  0  0
   37.1830   28.8590   34.1560 O   0  0  0  0  0  0  0  0  0  0  0  0
   38.0040   29.2830   33.8580 H   0  0  0  0  0  0  0  0  0  0  0  0
   38.7780   28.6130   36.3250 O   0  0  0  0  0  0  0  0  0  0  0  0
   39.0280   27.8340   36.8960 H   0  0  0  0  0  0  0  0  0  0  0  0
  1  6  1  0  0  0  0
  2  1  2  0  0  0  0
  2  3  1  0  0  0  0
  3  4  2  0  0  0  0
  4  5  1  0  0  0  0
  5  8  1  0  0  0  0
  6  5  2  0  0  0  0
  7  3  1  0  0  0  0
  9 12  1  1  0  0  0
  9  2  1  0  0  0  0
 10 14  1  0  0  0  0
 10  9  1  0  0  0  0
 11 15  1  6  0  0  0
 11 10  1  0  0  0  0
 11  9  1  0  0  0  0
 13 10  1  0  0  0  0
 16 11  1  0  0  0  0
 17 16  1  0  0  0  0
 18 16  1  0  0  0  0
 19 18  1  0  0  0  0
 19 21  1  0  0  0  0
 20 19  1  0  0  0  0
 21 22  1  0  0  0  0
 23 19  1  0  0  0  0
 24 23  1  0  0  0  0
 25  1  1  0  0  0  0
 26 25  2  0  0  0  0
 27 28  1  0  0  0  0
 28 29  1  0  0  0  0
 29 25  1  0  0  0  0
 29 30  2  0  0  0  0
 30 34  1  0  0  0  0
 31 30  1  0  0  0  0
 31 35  1  0  0  0  0
 32 31  2  0  0  0  0
 33 28  2  0  0  0  0
 33 32  1  0  0  0  0
 36 32  1  0  0  0  0
 37 33  1  0  0  0  0
 39 38  2  0  0  0  0
 39 42  1  0  0  0  0
 39 37  1  0  0  0  0
 40 39  1  0  0  0  0
 41 40  1  0  0  0  0
 42 43  1  0  0  0  0
M  END
>  <minimizedAffinity>
-5.62058163

$$$$

 OpenBabel03242523273D

 43 45  0  0  1  0  0  0  0  0999 V2000
   39.2040   26.5400   41.6870 C   0  0  0  0  0  0  0  0  0  0  0  0
   39.1980   25.2420   41.4520 C   0  0  0  0  0  0  0  0  0  0  0  0
   40.2060   24.7970   40.6140 C   0  0  0  0  0  0  0  0  0  0  0  0
   41.1100   25.7640   40.1100 N   0  0  0  0  0  0  0  0  0  0  0  0
   41.0500   27.0390   40.3870 C   0  0  0  0  0  0  0  0  0  0  0  0
   40.0490   27.5010   41.2270 N   0  0  0  0  0  0  0  0  0  0  0  0
   40.3790   23.7780   40.3000 H   0  0  0  0  0  0  0  0  0  0  0  0
   41.8110   27.6520   39.9240 H   0  0  0  0  0  0  0  0  0  0  0  0
   38.2110   24.2730   41.8630 C   0  0  1  0  0  0  0  0  0  0  0  0
   36.8790   24.4660   41.9950 C   0  0  0  0  0  0  0  0  0  0  0  0
   37.2270   23.8000   40.6960 C   0  0  1  0  0  0  0  0  0  0  0  0
   38.7360   23.3390   42.2400 H   0  0  0  0  0  0  0  0  0  0  0  0
   36.2340   23.8510   42.6590 H   0  0  0  0  0  0  0  0  0  0  0  0
   36.4010   25.4860   41.8860 H   0  0  0  0  0  0  0  0  0  0  0  0
   37.0670   22.7110   40.6210 H   0  0  0  0  0  0  0  0  0  0  0  0
   37.2390   24.6040   39.5270 N   0  0  0  0  0  0  0  0  0  0  0  0
   37.8560   24.2490   38.7640 H   0  0  0  0  0  0  0  0  0  0  0  0
   35.8720   24.5650   39.0360 C   0  0  0  0  0  2  0  0  0  0  0  0
   35.6810   25.3260   37.8430 N   0  0  0  0  0  4  0  0  0  0  0  0
   34.8030   25.8850   37.9020 H   0  0  0  0  0  0  0  0  0  0  0  0
   35.4480   24.3710   36.7650 C   0  0  0  0  0  2  0  0  0  0  0  0
   34.6590   23.6630   37.1250 H   0  0  0  0  0  0  0  0  0  0  0  0
   36.8190   26.1560   37.4980 C   0  0  0  0  0  2  0  0  0  0  0  0
   36.7940   27.0440   38.1780 H   0  0  0  0  0  0  0  0  0  0  0  0
   38.2770   27.2580   42.6070 C   0  0  0  0  0  0  0  0  0  0  0  0
   37.7940   27.5190   43.6680 O   0  0  0  0  0  0  0  0  0  0  0  0
   38.8490   30.2980   42.7990 Cl  0  0  0  0  0  0  0  0  0  0  0  0
   37.5940   29.6330   41.7750 C   0  0  0  0  0  0  0  0  0  0  0  0
   37.4520   28.2180   41.7780 C   0  0  0  0  0  0  0  0  0  0  0  0
   36.4460   27.8350   40.9350 C   0  0  0  0  0  0  0  0  0  0  0  0
   35.6410   28.5430   40.1720 C   0  0  0  0  0  0  0  0  0  0  0  0
   35.8190   29.9120   40.2070 C   0  0  0  0  0  0  0  0  0  0  0  0
   36.7780   30.4530   40.9920 C   0  0  0  0  0  0  0  0  0  0  0  0
   36.2660   26.7300   40.8580 H   0  0  0  0  0  0  0  0  0  0  0  0
   34.8590   28.1250   39.5280 H   0  0  0  0  0  0  0  0  0  0  0  0
   35.1560   30.5300   39.5760 H   0  0  0  0  0  0  0  0  0  0  0  0
   36.8680   31.8230   40.9480 O   0  0  0  0  0  0  0  0  0  0  0  0
   39.0720   31.9470   39.5340 O   0  0  0  0  0  0  0  0  0  0  0  0
   38.0160   32.8030   40.1800 P   0  0  0  0  0  0  0  0  0  0  0  0
   37.2310   33.7730   39.0360 O   0  0  0  0  0  0  0  0  0  0  0  0
   37.2070   34.7180   39.2600 H   0  0  0  0  0  0  0  0  0  0  0  0
   38.7520   33.8710   41.2680 O   0  0  0  0  0  0  0  0  0  0  0  0
   39.6670   33.5320   41.4790 H   0  0  0  0  0  0  0  0  0  0  0  0
  1 25  1  0  0  0  0
  2  1  1  0  0  0  0
  2  9  1  0  0  0  0
  3  2  2  0  0  0  0
  4  5  2  0  0  0  0
  4  3  1  0  0  0  0
  5  6  1  0  0  0  0
  6  1  2  0  0  0  0
  7  3  1  0  0  0  0
  8  5  1  0  0  0  0
  9 10  1  0  0  0  0
  9 12  1  1  0  0  0
 10 13  1  0  0  0  0
 11 15  1  6  0  0  0
 11  9  1  0  0  0  0
 11 10  1  0  0  0  0
 14 10  1  0  0  0  0
 16 11  1  0  0  0  0
 17 16  1  0  0  0  0
 18 16  1  0  0  0  0
 19 20  1  0  0  0  0
 19 18  1  0  0  0  0
 21 22  1  0  0  0  0
 21 19  1  0  0  0  0
 23 19  1  0  0  0  0
 23 24  1  0  0  0  0
 25 26  2  0  0  0  0
 28 29  1  0  0  0  0
 28 27  1  0  0  0  0
 29 25  1  0  0  0  0
 30 29  2  0  0  0  0
 31 32  2  0  0  0  0
 31 30  1  0  0  0  0
 32 33  1  0  0  0  0
 33 28  2  0  0  0  0
 34 30  1  0  0  0  0
 35 31  1  0  0  0  0
 36 32  1  0  0  0  0
 37 33  1  0  0  0  0
 38 39  2  0  0  0  0
 39 37  1  0  0  0  0
 39 42  1  0  0  0  0
 40 41  1  0  0  0  0
 40 39  1  0  0  0  0
 42 43  1  0  0  0  0
M  END
>  <minimizedAffinity>
-5.45842409

$$$$

 OpenBabel03242523273D

 43 45  0  0  1  0  0  0  0  0999 V2000
   37.9040   26.0200   41.5850 C   0  0  0  0  0  0  0  0  0  0  0  0
   38.9930   26.1160   40.8460 C   0  0  0  0  0  0  0  0  0  0  0  0
   39.2050   25.0560   39.9810 C   0  0  0  0  0  0  0  0  0  0  0  0
   38.2510   24.0080   39.9880 N   0  0  0  0  0  0  0  0  0  0  0  0
   37.1940   23.9830   40.7540 C   0  0  0  0  0  0  0  0  0  0  0  0
   36.9660   25.0370   41.6240 N   0  0  0  0  0  0  0  0  0  0  0  0
   40.0290   24.9420   39.2940 H   0  0  0  0  0  0  0  0  0  0  0  0
   36.5610   23.1130   40.6450 H   0  0  0  0  0  0  0  0  0  0  0  0
   40.0270   27.1180   40.9220 C   0  0  1  0  0  0  0  0  0  0  0  0
   41.0170   27.3450   40.0280 C   0  0  0  0  0  0  0  0  0  0  0  0
   39.8750   28.3040   39.8610 C   0  0  1  0  0  0  0  0  0  0  0  0
   40.0070   27.6020   41.9500 H   0  0  0  0  0  0  0  0  0  0  0  0
   41.9800   27.8310   40.2920 H   0  0  0  0  0  0  0  0  0  0  0  0
   41.1950   26.6680   39.1390 H   0  0  0  0  0  0  0  0  0  0  0  0
   40.0000   29.3230   40.2650 H   0  0  0  0  0  0  0  0  0  0  0  0
   38.9600   28.0600   38.8040 N   0  0  0  0  0  0  0  0  0  0  0  0
   37.9970   27.8050   39.1150 H   0  0  0  0  0  0  0  0  0  0  0  0
   38.8680   29.3250   38.0940 C   0  0  0  0  0  2  0  0  0  0  0  0
   38.4580   29.1780   36.7350 N   0  0  0  0  0  4  0  0  0  0  0  0
   38.9570   29.8620   36.1260 H   0  0  0  0  0  0  0  0  0  0  0  0
   37.0540   29.5720   36.6710 C   0  0  0  0  0  2  0  0  0  0  0  0
   36.9710   30.5600   37.1910 H   0  0  0  0  0  0  0  0  0  0  0  0
   38.5890   27.8240   36.2330 C   0  0  0  0  0  2  0  0  0  0  0  0
   39.6750   27.6580   36.0200 H   0  0  0  0  0  0  0  0  0  0  0  0
   37.4100   27.0550   42.5380 C   0  0  0  0  0  0  0  0  0  0  0  0
   37.1800   27.5080   43.6190 O   0  0  0  0  0  0  0  0  0  0  0  0
   38.6020   29.8760   43.0140 Cl  0  0  0  0  0  0  0  0  0  0  0  0
   37.3330   29.5670   41.8460 C   0  0  0  0  0  0  0  0  0  0  0  0
   36.8900   28.2220   41.7260 C   0  0  0  0  0  0  0  0  0  0  0  0
   35.9080   28.1220   40.7800 C   0  0  0  0  0  0  0  0  0  0  0  0
   35.3480   29.0350   40.0160 C   0  0  0  0  0  0  0  0  0  0  0  0
   35.8120   30.3260   40.1730 C   0  0  0  0  0  0  0  0  0  0  0  0
   36.7880   30.5930   41.0700 C   0  0  0  0  0  0  0  0  0  0  0  0
   35.5030   27.0910   40.6020 H   0  0  0  0  0  0  0  0  0  0  0  0
   34.5570   28.8400   39.2820 H   0  0  0  0  0  0  0  0  0  0  0  0
   35.3600   31.1120   39.5430 H   0  0  0  0  0  0  0  0  0  0  0  0
   37.1750   31.9090   41.1420 O   0  0  0  0  0  0  0  0  0  0  0  0
   39.7080   31.7980   40.4770 O   0  0  0  0  0  0  0  0  0  0  0  0
   38.4940   32.6870   40.4180 P   0  0  0  0  0  0  0  0  0  0  0  0
   38.0940   33.0710   38.8180 O   0  0  0  0  0  0  0  0  0  0  0  0
   37.9910   34.0210   38.6480 H   0  0  0  0  0  0  0  0  0  0  0  0
   38.8430   34.1600   41.1760 O   0  0  0  0  0  0  0  0  0  0  0  0
   39.6500   34.0390   41.7510 H   0  0  0  0  0  0  0  0  0  0  0  0
  1  6  1  0  0  0  0
  1 25  1  0  0  0  0
  2  9  1  0  0  0  0
  2  1  2  0  0  0  0
  3  4  2  0  0  0  0
  3  2  1  0  0  0  0
  4  5  1  0  0  0  0
  5  6  2  0  0  0  0
  7  3  1  0  0  0  0
  8  5  1  0  0  0  0
  9 12  1  1  0  0  0
 10 13  1  0  0  0  0
 10  9  1  0  0  0  0
 11 10  1  0  0  0  0
 11 15  1  1  0  0  0
 11  9  1  0  0  0  0
 14 10  1  0  0  0  0
 16 17  1  0  0  0  0
 16 11  1  0  0  0  0
 18 16  1  0  0  0  0
 19 18  1  0  0  0  0
 20 19  1  0  0  0  0
 21 19  1  0  0  0  0
 21 22  1  0  0  0  0
 23 19  1  0  0  0  0
 24 23  1  0  0  0  0
 25 26  2  0  0  0  0
 28 27  1  0  0  0  0
 29 28  1  0  0  0  0
 29 25  1  0  0  0  0
 30 29  2  0  0  0  0
 31 32  2  0  0  0  0
 31 30  1  0  0  0  0
 32 33  1  0  0  0  0
 33 37  1  0  0  0  0
 33 28  2  0  0  0  0
 34 30  1  0  0  0  0
 35 31  1  0  0  0  0
 36 32  1  0  0  0  0
 39 38  2  0  0  0  0
 39 37  1  0  0  0  0
 39 42  1  0  0  0  0
 40 39  1  0  0  0  0
 41 40  1  0  0  0  0
 42 43  1  0  0  0  0
M  END
>  <minimizedAffinity>
-5.3199048

$$$$

 OpenBabel03242523273D

 43 45  0  0  1  0  0  0  0  0999 V2000
   37.6930   29.9900   41.7840 C   0  0  0  0  0  0  0  0  0  0  0  0
   37.1230   28.8140   41.9690 C   0  0  0  0  0  0  0  0  0  0  0  0
   35.9730   28.6030   41.2280 C   0  0  0  0  0  0  0  0  0  0  0  0
   35.5440   29.6500   40.3750 N   0  0  0  0  0  0  0  0  0  0  0  0
   36.1640   30.7920   40.2470 C   0  0  0  0  0  0  0  0  0  0  0  0
   37.3190   31.0190   40.9800 N   0  0  0  0  0  0  0  0  0  0  0  0
   35.3600   27.7130   41.2310 H   0  0  0  0  0  0  0  0  0  0  0  0
   35.7130   31.4920   39.5570 H   0  0  0  0  0  0  0  0  0  0  0  0
   37.4850   27.7960   42.9240 C   0  0  1  0  0  0  0  0  0  0  0  0
   37.0270   26.5240   42.9800 C   0  0  0  0  0  0  0  0  0  0  0  0
   38.3720   26.6110   42.3190 C   0  0  1  0  0  0  0  0  0  0  0  0
   38.1000   28.2640   43.7570 H   0  0  0  0  0  0  0  0  0  0  0  0
   37.0200   25.9170   43.9100 H   0  0  0  0  0  0  0  0  0  0  0  0
   36.1970   26.1500   42.3080 H   0  0  0  0  0  0  0  0  0  0  0  0
   39.2550   26.3250   42.9150 H   0  0  0  0  0  0  0  0  0  0  0  0
   38.4140   26.5460   40.9020 N   0  0  0  0  0  0  0  0  0  0  0  0
   38.7120   27.4310   40.4370 H   0  0  0  0  0  0  0  0  0  0  0  0
   39.4180   25.5380   40.6060 C   0  0  0  0  0  2  0  0  0  0  0  0
   39.3760   25.0810   39.2550 N   0  0  0  0  0  4  0  0  0  0  0  0
   39.1400   24.0660   39.2180 H   0  0  0  0  0  0  0  0  0  0  0  0
   40.7360   25.1710   38.7350 C   0  0  0  0  0  2  0  0  0  0  0  0
   41.4030   24.6760   39.4870 H   0  0  0  0  0  0  0  0  0  0  0  0
   38.4960   25.8620   38.4070 C   0  0  0  0  0  2  0  0  0  0  0  0
   37.4500   25.5470   38.6430 H   0  0  0  0  0  0  0  0  0  0  0  0
   38.9740   30.4370   42.4020 C   0  0  0  0  0  0  0  0  0  0  0  0
   39.6620   30.8500   43.2870 O   0  0  0  0  0  0  0  0  0  0  0  0
   39.8990   32.9910   40.9090 Cl  0  0  0  0  0  0  0  0  0  0  0  0
   40.5700   31.4070   40.5830 C   0  0  0  0  0  0  0  0  0  0  0  0
   40.0590   30.3260   41.3520 C   0  0  0  0  0  0  0  0  0  0  0  0
   40.6710   29.1550   41.0020 C   0  0  0  0  0  0  0  0  0  0  0  0
   41.6050   28.9010   40.1110 C   0  0  0  0  0  0  0  0  0  0  0  0
   42.0660   29.9840   39.3890 C   0  0  0  0  0  0  0  0  0  0  0  0
   41.5620   31.2180   39.6170 C   0  0  0  0  0  0  0  0  0  0  0  0
   40.3440   28.2430   41.5680 H   0  0  0  0  0  0  0  0  0  0  0  0
   42.0280   27.9100   39.9110 H   0  0  0  0  0  0  0  0  0  0  0  0
   42.8500   29.7990   38.6340 H   0  0  0  0  0  0  0  0  0  0  0  0
   42.0940   32.2210   38.8440 O   0  0  0  0  0  0  0  0  0  0  0  0
   42.7470   31.4750   36.4180 O   0  0  0  0  0  0  0  0  0  0  0  0
   41.9440   32.4950   37.1800 P   0  0  0  0  0  0  0  0  0  0  0  0
   40.3060   32.4220   36.7580 O   0  0  0  0  0  0  0  0  0  0  0  0
   39.9210   33.2750   36.4970 H   0  0  0  0  0  0  0  0  0  0  0  0
   42.4650   34.0480   36.7530 O   0  0  0  0  0  0  0  0  0  0  0  0
   43.3650   33.9770   36.3270 H   0  0  0  0  0  0  0  0  0  0  0  0
  1  2  1  0  0  0  0
  1 25  1  0  0  0  0
  2  9  1  0  0  0  0
  3  7  1  0  0  0  0
  3  2  2  0  0  0  0
  4  3  1  0  0  0  0
  5  4  2  0  0  0  0
  5  6  1  0  0  0  0
  6  1  2  0  0  0  0
  8  5  1  0  0  0  0
  9 10  1  0  0  0  0
  9 12  1  1  0  0  0
 10 13  1  0  0  0  0
 11 15  1  1  0  0  0
 11  9  1  0  0  0  0
 11 10  1  0  0  0  0
 14 10  1  0  0  0  0
 16 11  1  0  0  0  0
 17 16  1  0  0  0  0
 18 16  1  0  0  0  0
 19 18  1  0  0  0  0
 20 19  1  0  0  0  0
 21 19  1  0  0  0  0
 21 22  1  0  0  0  0
 23 24  1  0  0  0  0
 23 19  1  0  0  0  0
 25 26  2  0  0  0  0
 28 27  1  0  0  0  0
 28 29  1  0  0  0  0
 29 25  1  0  0  0  0
 30 29  2  0  0  0  0
 30 34  1  0  0  0  0
 31 30  1  0  0  0  0
 32 33  1  0  0  0  0
 32 31  2  0  0  0  0
 33 28  2  0  0  0  0
 35 31  1  0  0  0  0
 36 32  1  0  0  0  0
 37 33  1  0  0  0  0
 38 39  2  0  0  0  0
 39 37  1  0  0  0  0
 40 39  1  0  0  0  0
 41 40  1  0  0  0  0
 42 39  1  0  0  0  0
 43 42  1  0  0  0  0
M  END
>  <minimizedAffinity>
-5.30234098

$$$$

 OpenBabel03242523273D

 43 45  0  0  1  0  0  0  0  0999 V2000
   36.7900   27.5890   40.8060 C   0  0  0  0  0  0  0  0  0  0  0  0
   36.9590   26.2870   40.9470 C   0  0  0  0  0  0  0  0  0  0  0  0
   36.6050   25.5310   39.8430 C   0  0  0  0  0  0  0  0  0  0  0  0
   36.1080   26.2230   38.7110 N   0  0  0  0  0  0  0  0  0  0  0  0
   35.9660   27.5190   38.6470 C   0  0  0  0  0  0  0  0  0  0  0  0
   36.3190   28.2920   39.7420 N   0  0  0  0  0  0  0  0  0  0  0  0
   36.6680   24.4570   39.7520 H   0  0  0  0  0  0  0  0  0  0  0  0
   35.5720   27.8990   37.7140 H   0  0  0  0  0  0  0  0  0  0  0  0
   37.3490   25.5700   42.1360 C   0  0  1  0  0  0  0  0  0  0  0  0
   37.7900   24.2940   42.2170 C   0  0  0  0  0  0  0  0  0  0  0  0
   38.9170   25.2850   42.2500 C   0  0  1  0  0  0  0  0  0  0  0  0
   37.0660   26.1810   43.0520 H   0  0  0  0  0  0  0  0  0  0  0  0
   37.7070   23.6740   43.1350 H   0  0  0  0  0  0  0  0  0  0  0  0
   37.8010   23.6010   41.3230 H   0  0  0  0  0  0  0  0  0  0  0  0
   39.3720   25.5100   43.2300 H   0  0  0  0  0  0  0  0  0  0  0  0
   39.6580   25.4780   41.0560 N   0  0  0  0  0  0  0  0  0  0  0  0
   39.4710   26.3840   40.5720 H   0  0  0  0  0  0  0  0  0  0  0  0
   41.0490   25.4900   41.4790 C   0  0  0  0  0  2  0  0  0  0  0  0
   41.9580   25.1550   40.4320 N   0  0  0  0  0  4  0  0  0  0  0  0
   42.0160   24.1210   40.3130 H   0  0  0  0  0  0  0  0  0  0  0  0
   43.2870   25.5560   40.8820 C   0  0  0  0  0  2  0  0  0  0  0  0
   43.4200   25.1380   41.9120 H   0  0  0  0  0  0  0  0  0  0  0  0
   41.6670   25.8190   39.1770 C   0  0  0  0  0  2  0  0  0  0  0  0
   40.7980   25.2850   38.7180 H   0  0  0  0  0  0  0  0  0  0  0  0
   37.1610   28.6240   41.8120 C   0  0  0  0  0  0  0  0  0  0  0  0
   37.3370   29.0450   42.9160 O   0  0  0  0  0  0  0  0  0  0  0  0
   40.0220   28.8840   40.6470 Cl  0  0  0  0  0  0  0  0  0  0  0  0
   38.8160   30.1440   40.4890 C   0  0  0  0  0  0  0  0  0  0  0  0
   37.5410   29.8830   41.0630 C   0  0  0  0  0  0  0  0  0  0  0  0
   36.6980   30.9410   40.8620 C   0  0  0  0  0  0  0  0  0  0  0  0
   36.8860   32.0920   40.2540 C   0  0  0  0  0  0  0  0  0  0  0  0
   38.1410   32.2970   39.7150 C   0  0  0  0  0  0  0  0  0  0  0  0
   39.0930   31.3430   39.8270 C   0  0  0  0  0  0  0  0  0  0  0  0
   35.6590   30.8220   41.2680 H   0  0  0  0  0  0  0  0  0  0  0  0
   36.1290   32.8780   40.1520 H   0  0  0  0  0  0  0  0  0  0  0  0
   38.3260   33.2550   39.1990 H   0  0  0  0  0  0  0  0  0  0  0  0
   40.3030   31.6500   39.2540 O   0  0  0  0  0  0  0  0  0  0  0  0
   42.2010   32.0370   37.4880 O   0  0  0  0  0  0  0  0  0  0  0  0
   40.7870   31.5420   37.6340 P   0  0  0  0  0  0  0  0  0  0  0  0
   40.6460   29.9330   37.1260 O   0  0  0  0  0  0  0  0  0  0  0  0
   39.9410   29.7780   36.4770 H   0  0  0  0  0  0  0  0  0  0  0  0
   39.7730   32.4410   36.6180 O   0  0  0  0  0  0  0  0  0  0  0  0
   40.2450   33.2820   36.3610 H   0  0  0  0  0  0  0  0  0  0  0  0
  1  2  1  0  0  0  0
  1 25  1  0  0  0  0
  2  9  1  0  0  0  0
  3  2  2  0  0  0  0
  4  3  1  0  0  0  0
  5  4  2  0  0  0  0
  5  6  1  0  0  0  0
  6  1  2  0  0  0  0
  7  3  1  0  0  0  0
  8  5  1  0  0  0  0
  9 10  1  0  0  0  0
  9 11  1  0  0  0  0
  9 12  1  1  0  0  0
 10 11  1  0  0  0  0
 10 13  1  0  0  0  0
 11 15  1  1  0  0  0
 14 10  1  0  0  0  0
 16 18  1  0  0  0  0
 16 11  1  0  0  0  0
 17 16  1  0  0  0  0
 19 21  1  0  0  0  0
 19 18  1  0  0  0  0
 20 19  1  0  0  0  0
 21 22  1  0  0  0  0
 23 19  1  0  0  0  0
 24 23  1  0  0  0  0
 25 26  2  0  0  0  0
 28 27  1  0  0  0  0
 28 29  1  0  0  0  0
 29 25  1  0  0  0  0
 30 29  2  0  0  0  0
 30 34  1  0  0  0  0
 31 30  1  0  0  0  0
 32 33  1  0  0  0  0
 32 31  2  0  0  0  0
 33 28  2  0  0  0  0
 35 31  1  0  0  0  0
 36 32  1  0  0  0  0
 37 33  1  0  0  0  0
 38 39  2  0  0  0  0
 39 37  1  0  0  0  0
 40 39  1  0  0  0  0
 41 40  1  0  0  0  0
 42 39  1  0  0  0  0
 43 42  1  0  0  0  0
M  END
>  <minimizedAffinity>
-5.26125431

$$$$

 OpenBabel03242523273D

 43 45  0  0  1  0  0  0  0  0999 V2000
   37.5100   30.7920   39.8710 C   0  0  0  0  0  0  0  0  0  0  0  0
   38.5940   30.4580   39.1960 C   0  0  0  0  0  0  0  0  0  0  0  0
   39.5410   31.4610   39.0820 C   0  0  0  0  0  0  0  0  0  0  0  0
   39.2460   32.7080   39.6870 N   0  0  0  0  0  0  0  0  0  0  0  0
   38.1440   32.9650   40.3400 C   0  0  0  0  0  0  0  0  0  0  0  0
   37.1870   31.9710   40.4660 N   0  0  0  0  0  0  0  0  0  0  0  0
   40.4920   31.3940   38.5760 H   0  0  0  0  0  0  0  0  0  0  0  0
   38.0650   33.9650   40.7430 H   0  0  0  0  0  0  0  0  0  0  0  0
   38.8450   29.2330   38.4770 C   0  0  1  0  0  0  0  0  0  0  0  0
   40.0260   28.8050   37.9750 C   0  0  0  0  0  0  0  0  0  0  0  0
   39.7020   28.1560   39.2890 C   0  0  1  0  0  0  0  0  0  0  0  0
   37.8550   28.7340   38.2280 H   0  0  0  0  0  0  0  0  0  0  0  0
   40.1080   28.0910   37.1270 H   0  0  0  0  0  0  0  0  0  0  0  0
   40.9570   29.4480   37.9860 H   0  0  0  0  0  0  0  0  0  0  0  0
   39.3130   27.1240   39.2680 H   0  0  0  0  0  0  0  0  0  0  0  0
   40.3600   28.6490   40.4460 N   0  0  0  0  0  0  0  0  0  0  0  0
   39.7790   28.6360   41.3130 H   0  0  0  0  0  0  0  0  0  0  0  0
   41.4750   27.7410   40.6540 C   0  0  0  0  0  2  0  0  0  0  0  0
   41.3620   26.9780   41.8550 N   0  0  0  0  0  4  0  0  0  0  0  0
   40.4450   26.4840   41.8900 H   0  0  0  0  0  0  0  0  0  0  0  0
   41.3180   27.9310   42.9590 C   0  0  0  0  0  2  0  0  0  0  0  0
   40.5480   28.6990   42.6930 H   0  0  0  0  0  0  0  0  0  0  0  0
   42.4680   26.0640   42.0670 C   0  0  0  0  0  2  0  0  0  0  0  0
   42.3050   25.1910   41.3880 H   0  0  0  0  0  0  0  0  0  0  0  0
   36.3790   29.8780   40.1990 C   0  0  0  0  0  0  0  0  0  0  0  0
   35.2730   29.4420   40.0830 O   0  0  0  0  0  0  0  0  0  0  0  0
   36.3080   26.8150   39.7320 Cl  0  0  0  0  0  0  0  0  0  0  0  0
   36.8460   27.5330   41.2360 C   0  0  0  0  0  0  0  0  0  0  0  0
   36.8360   28.9530   41.3060 C   0  0  0  0  0  0  0  0  0  0  0  0
   37.2830   29.3780   42.5260 C   0  0  0  0  0  0  0  0  0  0  0  0
   37.6930   28.7030   43.5790 C   0  0  0  0  0  0  0  0  0  0  0  0
   37.6820   27.3270   43.4610 C   0  0  0  0  0  0  0  0  0  0  0  0
   37.2670   26.7470   42.3120 C   0  0  0  0  0  0  0  0  0  0  0  0
   37.3260   30.4890   42.6720 H   0  0  0  0  0  0  0  0  0  0  0  0
   38.0340   29.1530   44.5180 H   0  0  0  0  0  0  0  0  0  0  0  0
   38.0210   26.7370   44.3300 H   0  0  0  0  0  0  0  0  0  0  0  0
   37.2990   25.3730   42.3040 O   0  0  0  0  0  0  0  0  0  0  0  0
   39.3790   24.9690   40.7600 O   0  0  0  0  0  0  0  0  0  0  0  0
   38.5460   24.3260   41.8370 P   0  0  0  0  0  0  0  0  0  0  0  0
   39.4850   23.9510   43.1950 O   0  0  0  0  0  0  0  0  0  0  0  0
   39.4060   23.0310   43.4940 H   0  0  0  0  0  0  0  0  0  0  0  0
   37.9410   22.8510   41.2680 O   0  0  0  0  0  0  0  0  0  0  0  0
   38.0060   22.8430   40.2720 H   0  0  0  0  0  0  0  0  0  0  0  0
  1 25  1  0  0  0  0
  1  6  1  0  0  0  0
  2  1  2  0  0  0  0
  3  2  1  0  0  0  0
  3  4  2  0  0  0  0
  4  5  1  0  0  0  0
  5  6  2  0  0  0  0
  5  8  1  0  0  0  0
  7  3  1  0  0  0  0
  9 12  1  6  0  0  0
  9  2  1  0  0  0  0
  9 11  1  0  0  0  0
 10 14  1  0  0  0  0
 10  9  1  0  0  0  0
 10 11  1  0  0  0  0
 11 15  1  6  0  0  0
 11 16  1  0  0  0  0
 13 10  1  0  0  0  0
 16 18  1  0  0  0  0
 16 17  1  0  0  0  0
 18 19  1  0  0  0  0
 19 20  1  0  0  0  0
 19 23  1  0  0  0  0
 19 21  1  0  0  0  0
 22 21  1  0  0  0  0
 24 23  1  0  0  0  0
 25 29  1  0  0  0  0
 26 25  2  0  0  0  0
 27 28  1  0  0  0  0
 28 29  2  0  0  0  0
 28 33  1  0  0  0  0
 29 30  1  0  0  0  0
 30 34  1  0  0  0  0
 30 31  2  0  0  0  0
 31 35  1  0  0  0  0
 32 31  1  0  0  0  0
 32 36  1  0  0  0  0
 33 32  2  0  0  0  0
 37 33  1  0  0  0  0
 38 39  2  0  0  0  0
 39 37  1  0  0  0  0
 39 40  1  0  0  0  0
 40 41  1  0  0  0  0
 42 39  1  0  0  0  0
 43 42  1  0  0  0  0
M  END
>  <minimizedAffinity>
-5.18435287

$$$$

 OpenBabel03242523273D

 43 45  0  0  1  0  0  0  0  0999 V2000
   38.8140   24.9060   40.5770 C   0  0  0  0  0  0  0  0  0  0  0  0
   40.0630   25.0130   40.9910 C   0  0  0  0  0  0  0  0  0  0  0  0
   41.0120   25.0150   39.9830 C   0  0  0  0  0  0  0  0  0  0  0  0
   40.5470   24.9020   38.6490 N   0  0  0  0  0  0  0  0  0  0  0  0
   39.2890   24.7970   38.3170 C   0  0  0  0  0  0  0  0  0  0  0  0
   38.3250   24.7970   39.3130 N   0  0  0  0  0  0  0  0  0  0  0  0
   42.0810   25.0950   40.1070 H   0  0  0  0  0  0  0  0  0  0  0  0
   39.0920   24.7180   37.2570 H   0  0  0  0  0  0  0  0  0  0  0  0
   40.5480   25.0050   42.3490 C   0  0  1  0  0  0  0  0  0  0  0  0
   41.8280   25.1430   42.7640 C   0  0  0  0  0  0  0  0  0  0  0  0
   41.0570   26.4260   42.8750 C   0  0  1  0  0  0  0  0  0  0  0  0
   39.7080   24.6870   43.0460 H   0  0  0  0  0  0  0  0  0  0  0  0
   42.2010   24.7550   43.7360 H   0  0  0  0  0  0  0  0  0  0  0  0
   42.6970   25.1790   42.0400 H   0  0  0  0  0  0  0  0  0  0  0  0
   40.6960   26.7210   43.8750 H   0  0  0  0  0  0  0  0  0  0  0  0
   41.2640   27.4070   41.8710 N   0  0  0  0  0  0  0  0  0  0  0  0
   40.6130   27.3390   41.0580 H   0  0  0  0  0  0  0  0  0  0  0  0
   41.0060   28.6750   42.5320 C   0  0  0  0  0  2  0  0  0  0  0  0
   41.9620   29.6840   42.2060 N   0  0  0  0  0  4  0  0  0  0  0  0
   42.8510   29.5290   42.7280 H   0  0  0  0  0  0  0  0  0  0  0  0
   41.4380   30.9450   42.7210 C   0  0  0  0  0  2  0  0  0  0  0  0
   41.1390   30.7610   43.7840 H   0  0  0  0  0  0  0  0  0  0  0  0
   42.1980   29.8200   40.7820 C   0  0  0  0  0  2  0  0  0  0  0  0
   42.8560   28.9690   40.4770 H   0  0  0  0  0  0  0  0  0  0  0  0
   37.6060   24.9530   41.4490 C   0  0  0  0  0  0  0  0  0  0  0  0
   36.6620   24.4890   42.0140 O   0  0  0  0  0  0  0  0  0  0  0  0
   36.3430   27.0150   39.5100 Cl  0  0  0  0  0  0  0  0  0  0  0  0
   36.8710   27.4340   41.1270 C   0  0  0  0  0  0  0  0  0  0  0  0
   37.4220   26.3830   41.9100 C   0  0  0  0  0  0  0  0  0  0  0  0
   37.7840   26.8440   43.1460 C   0  0  0  0  0  0  0  0  0  0  0  0
   37.7030   28.0440   43.6780 C   0  0  0  0  0  0  0  0  0  0  0  0
   37.1630   29.0290   42.8750 C   0  0  0  0  0  0  0  0  0  0  0  0
   36.7510   28.7350   41.6210 C   0  0  0  0  0  0  0  0  0  0  0  0
   38.2170   26.0800   43.8450 H   0  0  0  0  0  0  0  0  0  0  0  0
   38.0300   28.3040   44.6910 H   0  0  0  0  0  0  0  0  0  0  0  0
   37.0830   30.0460   43.2980 H   0  0  0  0  0  0  0  0  0  0  0  0
   36.2280   29.7890   40.9130 O   0  0  0  0  0  0  0  0  0  0  0  0
   36.5650   30.8110   38.5220 O   0  0  0  0  0  0  0  0  0  0  0  0
   37.0170   30.9400   39.9520 P   0  0  0  0  0  0  0  0  0  0  0  0
   36.6850   32.4840   40.5620 O   0  0  0  0  0  0  0  0  0  0  0  0
   37.4480   32.9280   40.9660 H   0  0  0  0  0  0  0  0  0  0  0  0
   38.7000   30.7640   40.0230 O   0  0  0  0  0  0  0  0  0  0  0  0
   39.0110   30.3290   39.1800 H   0  0  0  0  0  0  0  0  0  0  0  0
  1  2  1  0  0  0  0
  1 25  1  0  0  0  0
  2  9  1  0  0  0  0
  3  7  1  0  0  0  0
  3  2  2  0  0  0  0
  4  3  1  0  0  0  0
  5  4  2  0  0  0  0
  5  6  1  0  0  0  0
  6  1  2  0  0  0  0
  8  5  1  0  0  0  0
  9 10  1  0  0  0  0
  9 11  1  0  0  0  0
  9 12  1  1  0  0  0
 10 11  1  0  0  0  0
 10 13  1  0  0  0  0
 11 15  1  1  0  0  0
 14 10  1  0  0  0  0
 16 18  1  0  0  0  0
 16 11  1  0  0  0  0
 17 16  1  0  0  0  0
 19 18  1  0  0  0  0
 19 21  1  0  0  0  0
 19 20  1  0  0  0  0
 21 22  1  0  0  0  0
 23 19  1  0  0  0  0
 24 23  1  0  0  0  0
 25 29  1  0  0  0  0
 25 26  2  0  0  0  0
 27 28  1  0  0  0  0
 28 33  2  0  0  0  0
 28 29  1  0  0  0  0
 29 30  2  0  0  0  0
 30 31  1  0  0  0  0
 30 34  1  0  0  0  0
 31 35  1  0  0  0  0
 32 36  1  0  0  0  0
 32 31  2  0  0  0  0
 33 32  1  0  0  0  0
 37 33  1  0  0  0  0
 38 39  2  0  0  0  0
 39 42  1  0  0  0  0
 39 40  1  0  0  0  0
 39 37  1  0  0  0  0
 40 41  1  0  0  0  0
 43 42  1  0  0  0  0
M  END
>  <minimizedAffinity>
-5.08292246

$$$$

 OpenBabel03242523273D

 43 45  0  0  1  0  0  0  0  0999 V2000
   38.5240   26.0790   39.5110 C   0  0  0  0  0  0  0  0  0  0  0  0
   38.9170   25.0060   40.1710 C   0  0  0  0  0  0  0  0  0  0  0  0
   40.0660   24.4100   39.6800 C   0  0  0  0  0  0  0  0  0  0  0  0
   40.6760   25.0020   38.5470 N   0  0  0  0  0  0  0  0  0  0  0  0
   40.2230   26.0680   37.9440 C   0  0  0  0  0  0  0  0  0  0  0  0
   39.0760   26.6800   38.4240 N   0  0  0  0  0  0  0  0  0  0  0  0
   40.5520   23.5300   40.0750 H   0  0  0  0  0  0  0  0  0  0  0  0
   40.7990   26.4000   37.0900 H   0  0  0  0  0  0  0  0  0  0  0  0
   38.2350   24.3300   41.2470 C   0  0  1  0  0  0  0  0  0  0  0  0
   36.9130   24.3670   41.5310 C   0  0  0  0  0  0  0  0  0  0  0  0
   37.2930   23.1270   40.7770 C   0  0  1  0  0  0  0  0  0  0  0  0
   39.0020   23.8810   41.9540 H   0  0  0  0  0  0  0  0  0  0  0  0
   36.4990   24.1710   42.5440 H   0  0  0  0  0  0  0  0  0  0  0  0
   36.1950   25.0480   40.9830 H   0  0  0  0  0  0  0  0  0  0  0  0
   37.3960   22.1900   41.3510 H   0  0  0  0  0  0  0  0  0  0  0  0
   37.0050   23.0870   39.3880 N   0  0  0  0  0  0  0  0  0  0  0  0
   37.2120   22.1730   38.9290 H   0  0  0  0  0  0  0  0  0  0  0  0
   35.5710   23.3050   39.3000 C   0  0  0  0  0  2  0  0  0  0  0  0
   35.1880   24.0770   38.1630 N   0  0  0  0  0  4  0  0  0  0  0  0
   34.6630   24.9290   38.4570 H   0  0  0  0  0  0  0  0  0  0  0  0
   34.2210   23.2790   37.4160 C   0  0  0  0  0  2  0  0  0  0  0  0
   33.4550   22.9260   38.1530 H   0  0  0  0  0  0  0  0  0  0  0  0
   36.2960   24.4100   37.2890 C   0  0  0  0  0  2  0  0  0  0  0  0
   36.8600   25.2420   37.7790 H   0  0  0  0  0  0  0  0  0  0  0  0
   37.3660   26.9440   39.8760 C   0  0  0  0  0  0  0  0  0  0  0  0
   36.2270   27.3010   39.8330 O   0  0  0  0  0  0  0  0  0  0  0  0
   38.3790   29.6750   38.8180 Cl  0  0  0  0  0  0  0  0  0  0  0  0
   38.3580   29.2670   40.5210 C   0  0  0  0  0  0  0  0  0  0  0  0
   37.8550   27.9820   40.8630 C   0  0  0  0  0  0  0  0  0  0  0  0
   37.8890   27.7970   42.2170 C   0  0  0  0  0  0  0  0  0  0  0  0
   38.2960   28.5880   43.1870 C   0  0  0  0  0  0  0  0  0  0  0  0
   38.7770   29.8240   42.8020 C   0  0  0  0  0  0  0  0  0  0  0  0
   38.8090   30.1630   41.4940 C   0  0  0  0  0  0  0  0  0  0  0  0
   37.4960   26.8140   42.5870 H   0  0  0  0  0  0  0  0  0  0  0  0
   38.2780   28.3330   44.2530 H   0  0  0  0  0  0  0  0  0  0  0  0
   39.1250   30.5070   43.5960 H   0  0  0  0  0  0  0  0  0  0  0  0
   39.3040   31.4160   41.2240 O   0  0  0  0  0  0  0  0  0  0  0  0
   39.0320   32.9770   39.1360 O   0  0  0  0  0  0  0  0  0  0  0  0
   38.5300   32.7570   40.5380 P   0  0  0  0  0  0  0  0  0  0  0  0
   36.8570   32.4910   40.5530 O   0  0  0  0  0  0  0  0  0  0  0  0
   36.3670   33.0630   41.1660 H   0  0  0  0  0  0  0  0  0  0  0  0
   38.7860   34.1600   41.4500 O   0  0  0  0  0  0  0  0  0  0  0  0
   39.4630   34.7250   40.9820 H   0  0  0  0  0  0  0  0  0  0  0  0
  1 25  1  0  0  0  0
  1  2  1  0  0  0  0
  2  9  1  0  0  0  0
  3  7  1  0  0  0  0
  3  2  2  0  0  0  0
  4  3  1  0  0  0  0
  5  6  1  0  0  0  0
  5  4  2  0  0  0  0
  6  1  2  0  0  0  0
  8  5  1  0  0  0  0
  9 10  1  0  0  0  0
  9 12  1  1  0  0  0
 10 13  1  0  0  0  0
 11  9  1  0  0  0  0
 11 15  1  1  0  0  0
 11 10  1  0  0  0  0
 14 10  1  0  0  0  0
 16 11  1  0  0  0  0
 17 16  1  0  0  0  0
 18 16  1  0  0  0  0
 19 20  1  0  0  0  0
 19 18  1  0  0  0  0
 21 22  1  0  0  0  0
 21 19  1  0  0  0  0
 23 24  1  0  0  0  0
 23 19  1  0  0  0  0
 25 29  1  0  0  0  0
 26 25  2  0  0  0  0
 27 28  1  0  0  0  0
 28 29  2  0  0  0  0
 28 33  1  0  0  0  0
 29 30  1  0  0  0  0
 30 34  1  0  0  0  0
 30 31  2  0  0  0  0
 31 35  1  0  0  0  0
 32 31  1  0  0  0  0
 32 36  1  0  0  0  0
 33 32  2  0  0  0  0
 37 33  1  0  0  0  0
 38 39  2  0  0  0  0
 39 40  1  0  0  0  0
 39 37  1  0  0  0  0
 39 42  1  0  0  0  0
 40 41  1  0  0  0  0
 43 42  1  0  0  0  0
M  END
>  <minimizedAffinity>
-4.99691725

$$$$
