
 OpenBabel03252507493D

 43 44  0  0  0  0  0  0  0  0999 V2000
   46.6860   34.8100   42.0070 C   0  0  0  0  0  0  0  0  0  0  0  0
   46.8720   33.9980   42.7700 H   0  0  0  0  0  0  0  0  0  0  0  0
   46.9370   35.7780   42.4660 H   0  0  0  0  0  0  0  0  0  0  0  0
   45.2250   34.7520   41.7330 C   0  0  0  0  0  0  0  0  0  0  0  0
   44.3540   35.7550   42.2540 C   0  0  0  0  0  0  0  0  0  0  0  0
   42.7140   35.2480   41.6540 S   0  0  0  0  0  0  0  0  0  0  0  0
   43.4790   33.7300   40.7760 C   0  0  0  0  0  0  0  0  0  0  0  0
   44.5810   33.8560   41.0380 N   0  0  0  0  0  0  0  0  0  0  0  0
   44.6400   36.5970   42.8570 H   0  0  0  0  0  0  0  0  0  0  0  0
   42.7260   32.8170   40.0510 O   0  0  0  0  0  0  0  0  0  0  0  0
   41.2100   34.1380   38.3250 O   0  0  0  0  0  0  0  0  0  0  0  0
   42.4080   33.1800   38.4310 P   0  0  1  0  0  0  0  0  0  0  0  0
   43.7650   34.0030   37.8080 O   0  0  0  0  0  0  0  0  0  0  0  0
   44.2510   33.4440   37.1500 H   0  0  0  0  0  0  0  0  0  0  0  0
   42.1760   31.7940   37.5330 O   0  0  0  0  0  0  0  0  0  0  0  0
   40.9570   31.2040   37.6640 C   0  0  0  0  0  2  0  0  0  0  0  0
   40.3090   31.2990   38.9380 N   0  0  0  0  0  4  0  0  0  0  0  0
   40.6900   31.9870   39.5920 H   0  0  0  0  0  0  0  0  0  0  0  0
   40.4960   29.9810   39.5700 C   0  0  0  0  0  2  0  0  0  0  0  0
   39.9610   29.9640   40.5410 H   0  0  0  0  0  0  0  0  0  0  0  0
   38.8820   31.4920   38.8400 C   0  0  0  0  0  2  0  0  0  0  0  0
   38.5570   31.7970   37.8230 H   0  0  0  0  0  0  0  0  0  0  0  0
   47.5510   34.5150   40.8310 C   0  0  0  0  0  0  0  0  0  0  0  0
   46.9860   34.0210   40.0390 H   0  0  0  0  0  0  0  0  0  0  0  0
   47.8590   35.5080   40.3910 H   0  0  0  0  0  0  0  0  0  0  0  0
   48.7990   33.8130   41.1770 C   0  0  0  0  0  0  0  0  0  0  0  0
   49.0900   32.6590   40.4610 C   0  0  0  0  0  0  0  0  0  0  0  0
   50.2360   31.9330   40.7140 C   0  0  0  0  0  0  0  0  0  0  0  0
   51.0680   32.4240   41.7180 N   0  0  0  0  0  0  0  0  0  0  0  0
   50.7380   33.5620   42.3950 C   0  0  0  0  0  0  0  0  0  0  0  0
   49.6230   34.2300   42.1170 N   0  0  0  0  0  0  0  0  0  0  0  0
   50.4720   31.0450   40.1690 H   0  0  0  0  0  0  0  0  0  0  0  0
   51.4510   33.8400   43.1410 H   0  0  0  0  0  0  0  0  0  0  0  0
   47.9700   32.0920   39.1830 S   0  0  0  0  0  0  0  0  0  0  0  0
   48.7580   32.2280   37.5520 C   0  0  0  0  0  0  0  0  0  0  0  0
   48.2970   31.4330   36.9080 H   0  0  0  0  0  0  0  0  0  0  0  0
   49.8490   32.0600   37.6110 H   0  0  0  0  0  0  0  0  0  0  0  0
   48.4510   33.5720   36.9710 C   0  0  0  0  0  0  0  0  0  0  0  0
   47.6010   34.0370   37.5400 H   0  0  0  0  0  0  0  0  0  0  0  0
   49.3070   34.2860   37.0780 H   0  0  0  0  0  0  0  0  0  0  0  0
   48.0380   33.4140   35.6120 N   0  0  0  0  0  0  0  0  0  0  0  0
   48.1510   34.2870   35.0510 H   0  0  0  0  0  0  0  0  0  0  0  0
   48.6920   32.7170   35.1650 H   0  0  0  0  0  0  0  0  0  0  0  0
  1  3  1  0  0  0  0
  1  2  1  0  0  0  0
  4  1  1  0  0  0  0
  4  5  2  0  0  0  0
  5  9  1  0  0  0  0
  6  5  1  0  0  0  0
  7  8  2  0  0  0  0
  7  6  1  0  0  0  0
  8  4  1  0  0  0  0
 10  7  1  0  0  0  0
 12 11  2  6  0  0  0
 12 10  1  0  0  0  0
 13 12  1  0  0  0  0
 14 13  1  0  0  0  0
 15 16  1  0  0  0  0
 15 12  1  0  0  0  0
 16 17  1  0  0  0  0
 17 19  1  0  0  0  0
 17 18  1  0  0  0  0
 19 20  1  0  0  0  0
 21 17  1  0  0  0  0
 22 21  1  0  0  0  0
 23 26  1  0  0  0  0
 23  1  1  0  0  0  0
 24 23  1  0  0  0  0
 25 23  1  0  0  0  0
 26 31  1  0  0  0  0
 27 28  1  0  0  0  0
 27 26  2  0  0  0  0
 28 29  2  0  0  0  0
 29 30  1  0  0  0  0
 30 33  1  0  0  0  0
 31 30  2  0  0  0  0
 32 28  1  0  0  0  0
 34 27  1  0  0  0  0
 35 37  1  0  0  0  0
 35 34  1  0  0  0  0
 36 35  1  0  0  0  0
 38 40  1  0  0  0  0
 38 39  1  0  0  0  0
 38 35  1  0  0  0  0
 41 38  1  0  0  0  0
 42 41  1  0  0  0  0
 43 41  1  0  0  0  0
M  END
>  <minimizedAffinity>
-4.28800821

>  <minimizedRMSD>
2.49651194

$$$$
