
 OpenBabel03252506123D

 34 35  0  0  0  0  0  0  0  0999 V2000
   45.0430   33.4020   41.1530 F   0  0  0  0  0  0  0  0  0  0  0  0
   46.2220   33.9670   40.9810 C   0  0  0  0  0  0  0  0  0  0  0  0
   46.7540   34.7290   41.9980 C   0  0  0  0  0  0  0  0  0  0  0  0
   47.9990   35.3690   41.9140 C   0  0  0  0  0  0  0  0  0  0  0  0
   48.7430   35.2320   40.7420 C   0  0  0  0  0  0  0  0  0  0  0  0
   48.1760   34.4610   39.7500 C   0  0  0  0  0  0  0  0  0  0  0  0
   46.9730   33.8360   39.8160 C   0  0  0  0  0  0  0  0  0  0  0  0
   48.3430   35.9540   42.7690 H   0  0  0  0  0  0  0  0  0  0  0  0
   49.6820   35.7400   40.7340 H   0  0  0  0  0  0  0  0  0  0  0  0
   48.8700   34.4360   38.9050 H   0  0  0  0  0  0  0  0  0  0  0  0
   45.4180   34.0690   45.3530 C   0  0  0  0  0  0  0  0  0  0  0  0
   44.6190   35.2280   45.5790 C   0  0  0  0  0  0  0  0  0  0  0  0
   44.5510   36.2330   44.5630 C   0  0  0  0  0  0  0  0  0  0  0  0
   45.2720   36.0000   43.4250 N   0  0  0  0  0  0  0  0  0  0  0  0
   46.0060   34.8990   43.2570 C   0  0  0  0  0  0  0  0  0  0  0  0
   46.0780   33.9480   44.2050 N   0  0  0  0  0  0  0  0  0  0  0  0
   44.0540   35.3980   46.4860 H   0  0  0  0  0  0  0  0  0  0  0  0
   43.9640   37.1030   44.7100 H   0  0  0  0  0  0  0  0  0  0  0  0
   45.4750   33.1120   46.3780 N   0  0  0  0  0  0  0  0  0  0  0  0
   46.2750   33.4070   47.0100 H   0  0  0  0  0  0  0  0  0  0  0  0
   44.8720   32.2730   46.5190 H   0  0  0  0  0  0  0  0  0  0  0  0
   46.5130   33.0970   38.7610 O   0  0  0  0  0  0  0  0  0  0  0  0
   47.8330   34.4820   36.9300 O   0  0  0  0  0  0  0  0  0  0  0  0
   46.9210   33.2940   37.1440 P   0  0  2  0  0  0  0  0  0  0  0  0
   45.4730   33.4990   36.2500 O   0  0  0  0  0  0  0  0  0  0  0  0
   45.7890   33.7280   35.3220 H   0  0  0  0  0  0  0  0  0  0  0  0
   47.6700   31.9360   36.4700 O   0  0  0  0  0  0  0  0  0  0  0  0
   48.5170   32.2850   35.4450 C   0  0  0  0  0  0  0  0  0  0  0  0
   47.8460   32.6740   34.2310 N   0  0  0  0  0  0  0  0  0  0  0  0
   47.1600   33.4320   34.4370 H   0  0  0  0  0  0  0  0  0  0  0  0
   47.0770   31.5370   33.7450 C   0  0  0  0  0  0  0  0  0  0  0  0
   46.3550   31.2550   34.5370 H   0  0  0  0  0  0  0  0  0  0  0  0
   48.7830   33.0890   33.1990 C   0  0  0  0  0  0  0  0  0  0  0  0
   49.8370   33.0530   33.5470 H   0  0  0  0  0  0  0  0  0  0  0  0
  2  1  1  0  0  0  0
  2  3  1  0  0  0  0
  3 15  1  0  0  0  0
  4  3  2  0  0  0  0
  4  8  1  0  0  0  0
  5  4  1  0  0  0  0
  6  7  1  0  0  0  0
  6  5  2  0  0  0  0
  7  2  2  0  0  0  0
  9  5  1  0  0  0  0
 10  6  1  0  0  0  0
 11 12  1  0  0  0  0
 11 19  1  0  0  0  0
 12 17  1  0  0  0  0
 13 18  1  0  0  0  0
 13 12  2  0  0  0  0
 14 13  1  0  0  0  0
 15 14  2  0  0  0  0
 15 16  1  0  0  0  0
 16 11  2  0  0  0  0
 19 21  1  0  0  0  0
 19 20  1  0  0  0  0
 22  7  1  0  0  0  0
 24 23  2  6  0  0  0
 24 22  1  0  0  0  0
 25 24  1  0  0  0  0
 26 25  1  0  0  0  0
 27 24  1  0  0  0  0
 28 27  1  0  0  0  0
 29 30  1  0  0  0  0
 29 28  1  0  0  0  0
 31 29  1  0  0  0  0
 31 32  1  0  0  0  0
 33 34  1  0  0  0  0
 33 29  1  0  0  0  0
M  END
>  <minimizedAffinity>
-6.2115345

>  <minimizedRMSD>
1.85274506

$$$$
