
 OpenBabel03242518163D

 30 31  0  0  0  0  0  0  0  0999 V2000
   36.3210   28.0310   41.8490 C   0  0  0  0  0  0  0  0  0  0  0  0
   35.1890   27.9670   41.8780 H   0  0  0  0  0  0  0  0  0  0  0  0
   36.5660   27.2640   41.0550 H   0  0  0  0  0  0  0  0  0  0  0  0
   36.6740   29.3120   41.3710 C   0  0  0  0  0  0  0  0  0  0  0  0
   36.0590   30.3450   40.6250 C   0  0  0  0  0  0  0  0  0  0  0  0
   36.7260   31.4790   40.3190 C   0  0  0  0  0  0  0  0  0  0  0  0
   38.0810   31.5870   40.7860 C   0  0  0  0  0  0  0  0  0  0  0  0
   38.3860   30.0450   41.6680 S   0  0  0  0  0  0  0  0  0  0  0  0
   35.0470   30.0910   40.3610 H   0  0  0  0  0  0  0  0  0  0  0  0
   36.2620   32.2660   39.7520 H   0  0  0  0  0  0  0  0  0  0  0  0
   38.8870   32.5770   40.6040 O   0  0  0  0  0  0  0  0  0  0  0  0
   39.7280   33.0010   39.5810 C   0  0  0  0  0  2  0  0  0  0  0  0
   39.8580   34.4170   39.4230 N   0  0  0  0  0  4  0  0  0  0  0  0
   39.7250   34.7660   38.4670 H   0  0  0  0  0  0  0  0  0  0  0  0
   41.2110   34.7920   39.8120 C   0  0  0  0  0  2  0  0  0  0  0  0
   41.9600   34.0800   39.4030 H   0  0  0  0  0  0  0  0  0  0  0  0
   38.9600   35.0960   40.3380 C   0  0  0  0  0  2  0  0  0  0  0  0
   37.9370   35.1600   39.9360 H   0  0  0  0  0  0  0  0  0  0  0  0
   36.8650   27.5930   43.1450 C   0  0  0  0  0  0  0  0  0  0  0  0
   37.4170   28.4330   43.6580 H   0  0  0  0  0  0  0  0  0  0  0  0
   36.0850   27.2810   43.8910 H   0  0  0  0  0  0  0  0  0  0  0  0
   37.8070   26.4980   42.9790 C   0  0  0  0  0  0  0  0  0  0  0  0
   37.4970   25.3760   42.2420 C   0  0  0  0  0  0  0  0  0  0  0  0
   38.4410   24.3660   42.1260 C   0  0  0  0  0  0  0  0  0  0  0  0
   39.6250   24.5310   42.7410 N   0  0  0  0  0  0  0  0  0  0  0  0
   39.8990   25.6430   43.4560 C   0  0  0  0  0  0  0  0  0  0  0  0
   39.0100   26.5980   43.5680 N   0  0  0  0  0  0  0  0  0  0  0  0
   36.5610   25.2440   41.7550 H   0  0  0  0  0  0  0  0  0  0  0  0
   38.2130   23.4760   41.5490 H   0  0  0  0  0  0  0  0  0  0  0  0
   40.8850   25.7180   43.9340 H   0  0  0  0  0  0  0  0  0  0  0  0
  1  2  1  0  0  0  0
  1 19  1  0  0  0  0
  3  1  1  0  0  0  0
  4  8  1  0  0  0  0
  4  1  1  0  0  0  0
  5  4  2  0  0  0  0
  6  5  1  0  0  0  0
  6  7  2  0  0  0  0
  7  8  1  0  0  0  0
  9  5  1  0  0  0  0
 10  6  1  0  0  0  0
 11  7  1  0  0  0  0
 12 11  1  0  0  0  0
 13 12  1  0  0  0  0
 13 15  1  0  0  0  0
 13 17  1  0  0  0  0
 14 13  1  0  0  0  0
 16 15  1  0  0  0  0
 18 17  1  0  0  0  0
 19 20  1  0  0  0  0
 19 21  1  0  0  0  0
 22 19  1  0  0  0  0
 22 27  1  0  0  0  0
 23 22  2  0  0  0  0
 24 23  1  0  0  0  0
 24 25  2  0  0  0  0
 25 26  1  0  0  0  0
 26 27  2  0  0  0  0
 26 30  1  0  0  0  0
 28 23  1  0  0  0  0
 29 24  1  0  0  0  0
M  END
>  <minimizedAffinity>
-4.82228279

$$$$

 OpenBabel03242518163D

 30 31  0  0  0  0  0  0  0  0999 V2000
   36.9930   27.2630   42.5360 C   0  0  0  0  0  0  0  0  0  0  0  0
   36.0180   26.7930   42.8760 H   0  0  0  0  0  0  0  0  0  0  0  0
   37.3760   26.4810   41.8150 H   0  0  0  0  0  0  0  0  0  0  0  0
   36.6830   28.4370   41.8140 C   0  0  0  0  0  0  0  0  0  0  0  0
   35.6770   28.8670   40.9180 C   0  0  0  0  0  0  0  0  0  0  0  0
   35.7030   30.1060   40.3790 C   0  0  0  0  0  0  0  0  0  0  0  0
   36.7940   30.9620   40.7590 C   0  0  0  0  0  0  0  0  0  0  0  0
   37.7790   29.9700   41.8970 S   0  0  0  0  0  0  0  0  0  0  0  0
   34.9450   28.0970   40.7500 H   0  0  0  0  0  0  0  0  0  0  0  0
   34.9400   30.4350   39.6970 H   0  0  0  0  0  0  0  0  0  0  0  0
   37.0050   32.1700   40.3620 O   0  0  0  0  0  0  0  0  0  0  0  0
   37.3920   32.7730   39.1710 C   0  0  0  0  0  2  0  0  0  0  0  0
   38.6040   33.5330   39.2190 N   0  0  0  0  0  4  0  0  0  0  0  0
   38.7310   34.2070   38.4560 H   0  0  0  0  0  0  0  0  0  0  0  0
   39.7220   32.6030   39.1340 C   0  0  0  0  0  2  0  0  0  0  0  0
   39.5410   31.8250   38.3600 H   0  0  0  0  0  0  0  0  0  0  0  0
   38.7150   34.1970   40.5030 C   0  0  0  0  0  2  0  0  0  0  0  0
   38.1430   35.1370   40.5300 H   0  0  0  0  0  0  0  0  0  0  0  0
   37.9080   27.3680   43.6850 C   0  0  0  0  0  0  0  0  0  0  0  0
   38.2410   28.4350   43.8420 H   0  0  0  0  0  0  0  0  0  0  0  0
   37.4480   27.0780   44.6690 H   0  0  0  0  0  0  0  0  0  0  0  0
   39.1050   26.5690   43.4810 C   0  0  0  0  0  0  0  0  0  0  0  0
   40.3230   26.9340   44.0140 C   0  0  0  0  0  0  0  0  0  0  0  0
   41.4280   26.1290   43.7790 C   0  0  0  0  0  0  0  0  0  0  0  0
   41.2580   25.0200   43.0380 N   0  0  0  0  0  0  0  0  0  0  0  0
   40.0520   24.6890   42.5310 C   0  0  0  0  0  0  0  0  0  0  0  0
   39.0070   25.4480   42.7500 N   0  0  0  0  0  0  0  0  0  0  0  0
   40.4590   27.8110   44.5990 H   0  0  0  0  0  0  0  0  0  0  0  0
   42.3930   26.4020   44.1910 H   0  0  0  0  0  0  0  0  0  0  0  0
   39.9780   23.7700   41.9350 H   0  0  0  0  0  0  0  0  0  0  0  0
  1  2  1  0  0  0  0
  1 19  1  0  0  0  0
  3  1  1  0  0  0  0
  4  8  1  0  0  0  0
  4  1  1  0  0  0  0
  5  4  2  0  0  0  0
  6  7  2  0  0  0  0
  6  5  1  0  0  0  0
  7  8  1  0  0  0  0
  9  5  1  0  0  0  0
 10  6  1  0  0  0  0
 11  7  1  0  0  0  0
 12 13  1  0  0  0  0
 12 11  1  0  0  0  0
 13 17  1  0  0  0  0
 14 13  1  0  0  0  0
 15 13  1  0  0  0  0
 16 15  1  0  0  0  0
 17 18  1  0  0  0  0
 19 20  1  0  0  0  0
 19 21  1  0  0  0  0
 22 19  1  0  0  0  0
 22 23  1  0  0  0  0
 23 28  1  0  0  0  0
 24 23  2  0  0  0  0
 24 29  1  0  0  0  0
 25 24  1  0  0  0  0
 26 27  1  0  0  0  0
 26 25  2  0  0  0  0
 27 22  2  0  0  0  0
 30 26  1  0  0  0  0
M  END
>  <minimizedAffinity>
-4.81714582

$$$$

 OpenBabel03242518163D

 30 31  0  0  0  0  0  0  0  0999 V2000
   36.6680   28.2790   42.0420 C   0  0  0  0  0  0  0  0  0  0  0  0
   35.6620   28.7980   42.1130 H   0  0  0  0  0  0  0  0  0  0  0  0
   36.5940   27.7900   41.0260 H   0  0  0  0  0  0  0  0  0  0  0  0
   37.6700   29.2740   41.9980 C   0  0  0  0  0  0  0  0  0  0  0  0
   38.7410   29.7040   42.8160 C   0  0  0  0  0  0  0  0  0  0  0  0
   39.5200   30.7480   42.4570 C   0  0  0  0  0  0  0  0  0  0  0  0
   39.2120   31.3960   41.2110 C   0  0  0  0  0  0  0  0  0  0  0  0
   37.7950   30.4910   40.5620 S   0  0  0  0  0  0  0  0  0  0  0  0
   38.8210   29.1040   43.7050 H   0  0  0  0  0  0  0  0  0  0  0  0
   40.3340   31.0770   43.0770 H   0  0  0  0  0  0  0  0  0  0  0  0
   39.8260   32.4030   40.6890 O   0  0  0  0  0  0  0  0  0  0  0  0
   39.7870   33.0690   39.4690 C   0  0  0  0  0  2  0  0  0  0  0  0
   39.9200   34.4920   39.5290 N   0  0  0  0  0  4  0  0  0  0  0  0
   39.9860   34.9650   38.6210 H   0  0  0  0  0  0  0  0  0  0  0  0
   41.1530   34.8000   40.2420 C   0  0  0  0  0  2  0  0  0  0  0  0
   41.9850   34.1410   39.9110 H   0  0  0  0  0  0  0  0  0  0  0  0
   38.8370   35.0530   40.3130 C   0  0  0  0  0  2  0  0  0  0  0  0
   37.9200   35.1790   39.7150 H   0  0  0  0  0  0  0  0  0  0  0  0
   36.7550   27.2440   43.0860 C   0  0  0  0  0  0  0  0  0  0  0  0
   37.2850   27.6360   44.0020 H   0  0  0  0  0  0  0  0  0  0  0  0
   35.7600   26.8950   43.4730 H   0  0  0  0  0  0  0  0  0  0  0  0
   37.5010   26.0870   42.6200 C   0  0  0  0  0  0  0  0  0  0  0  0
   36.8910   25.0510   41.9460 C   0  0  0  0  0  0  0  0  0  0  0  0
   37.6590   23.9730   41.5320 C   0  0  0  0  0  0  0  0  0  0  0  0
   38.9760   23.9890   41.8080 N   0  0  0  0  0  0  0  0  0  0  0  0
   39.5440   25.0190   42.4700 C   0  0  0  0  0  0  0  0  0  0  0  0
   38.8200   26.0380   42.8630 N   0  0  0  0  0  0  0  0  0  0  0  0
   35.8500   25.0360   41.7280 H   0  0  0  0  0  0  0  0  0  0  0  0
   37.1940   23.1500   41.0000 H   0  0  0  0  0  0  0  0  0  0  0  0
   40.6240   24.9740   42.6640 H   0  0  0  0  0  0  0  0  0  0  0  0
  1  2  1  0  0  0  0
  1 19  1  0  0  0  0
  3  1  1  0  0  0  0
  4  1  1  0  0  0  0
  4  5  2  0  0  0  0
  5  9  1  0  0  0  0
  6  5  1  0  0  0  0
  6 10  1  0  0  0  0
  7  6  2  0  0  0  0
  8  7  1  0  0  0  0
  8  4  1  0  0  0  0
 11  7  1  0  0  0  0
 12 13  1  0  0  0  0
 12 11  1  0  0  0  0
 13 15  1  0  0  0  0
 13 17  1  0  0  0  0
 14 13  1  0  0  0  0
 16 15  1  0  0  0  0
 18 17  1  0  0  0  0
 19 21  1  0  0  0  0
 19 20  1  0  0  0  0
 22 27  1  0  0  0  0
 22 19  1  0  0  0  0
 23 22  2  0  0  0  0
 24 25  2  0  0  0  0
 24 23  1  0  0  0  0
 25 26  1  0  0  0  0
 26 30  1  0  0  0  0
 26 27  2  0  0  0  0
 28 23  1  0  0  0  0
 29 24  1  0  0  0  0
M  END
>  <minimizedAffinity>
-4.6571641

$$$$

 OpenBabel03242518163D

 30 31  0  0  0  0  0  0  0  0999 V2000
   36.4840   31.0940   40.9200 C   0  0  0  0  0  0  0  0  0  0  0  0
   35.3690   30.8860   40.8900 H   0  0  0  0  0  0  0  0  0  0  0  0
   36.5240   31.9870   41.6130 H   0  0  0  0  0  0  0  0  0  0  0  0
   37.1150   29.9990   41.5500 C   0  0  0  0  0  0  0  0  0  0  0  0
   38.2080   29.7950   42.4250 C   0  0  0  0  0  0  0  0  0  0  0  0
   38.5580   28.5550   42.8290 C   0  0  0  0  0  0  0  0  0  0  0  0
   37.7720   27.4580   42.3340 C   0  0  0  0  0  0  0  0  0  0  0  0
   36.5250   28.2270   41.2830 S   0  0  0  0  0  0  0  0  0  0  0  0
   38.6780   30.7260   42.6900 H   0  0  0  0  0  0  0  0  0  0  0  0
   39.3890   28.3970   43.4930 H   0  0  0  0  0  0  0  0  0  0  0  0
   37.9370   26.2060   42.5950 O   0  0  0  0  0  0  0  0  0  0  0  0
   37.3440   25.0170   42.1830 C   0  0  0  0  0  2  0  0  0  0  0  0
   38.1690   23.8510   42.2510 N   0  0  0  0  0  4  0  0  0  0  0  0
   37.7970   23.0820   42.8200 H   0  0  0  0  0  0  0  0  0  0  0  0
   39.4380   24.2310   42.8590 C   0  0  0  0  0  2  0  0  0  0  0  0
   39.2820   24.8980   43.7340 H   0  0  0  0  0  0  0  0  0  0  0  0
   38.4740   23.3860   40.9120 C   0  0  0  0  0  2  0  0  0  0  0  0
   37.6620   22.7680   40.4980 H   0  0  0  0  0  0  0  0  0  0  0  0
   36.9410   31.4880   39.5770 C   0  0  0  0  0  0  0  0  0  0  0  0
   37.3450   30.6000   39.0100 H   0  0  0  0  0  0  0  0  0  0  0  0
   36.1290   31.8910   38.9130 H   0  0  0  0  0  0  0  0  0  0  0  0
   38.0080   32.4720   39.6500 C   0  0  0  0  0  0  0  0  0  0  0  0
   39.3020   32.1730   39.2800 C   0  0  0  0  0  0  0  0  0  0  0  0
   40.2740   33.1570   39.3770 C   0  0  0  0  0  0  0  0  0  0  0  0
   39.9070   34.3690   39.8300 N   0  0  0  0  0  0  0  0  0  0  0  0
   38.6310   34.6320   40.1840 C   0  0  0  0  0  0  0  0  0  0  0  0
   37.7110   33.7040   40.0940 N   0  0  0  0  0  0  0  0  0  0  0  0
   39.5940   31.2150   38.9230 H   0  0  0  0  0  0  0  0  0  0  0  0
   41.2970   32.9370   39.0900 H   0  0  0  0  0  0  0  0  0  0  0  0
   38.3950   35.6410   40.5450 H   0  0  0  0  0  0  0  0  0  0  0  0
  1  4  1  0  0  0  0
  1  3  1  0  0  0  0
  2  1  1  0  0  0  0
  4  5  2  0  0  0  0
  5  9  1  0  0  0  0
  5  6  1  0  0  0  0
  6 10  1  0  0  0  0
  7 11  1  0  0  0  0
  7  6  2  0  0  0  0
  8  4  1  0  0  0  0
  8  7  1  0  0  0  0
 12 13  1  0  0  0  0
 12 11  1  0  0  0  0
 13 14  1  0  0  0  0
 13 15  1  0  0  0  0
 15 16  1  0  0  0  0
 17 13  1  0  0  0  0
 18 17  1  0  0  0  0
 19 22  1  0  0  0  0
 19  1  1  0  0  0  0
 20 19  1  0  0  0  0
 21 19  1  0  0  0  0
 22 27  1  0  0  0  0
 23 24  1  0  0  0  0
 23 22  2  0  0  0  0
 24 25  2  0  0  0  0
 25 26  1  0  0  0  0
 26 30  1  0  0  0  0
 27 26  2  0  0  0  0
 28 23  1  0  0  0  0
 29 24  1  0  0  0  0
M  END
>  <minimizedAffinity>
-4.64689398

$$$$

 OpenBabel03242518163D

 30 31  0  0  0  0  0  0  0  0999 V2000
   36.7680   31.2610   40.6280 C   0  0  0  0  0  0  0  0  0  0  0  0
   36.4750   31.2160   41.7240 H   0  0  0  0  0  0  0  0  0  0  0  0
   35.7760   31.5060   40.1440 H   0  0  0  0  0  0  0  0  0  0  0  0
   37.6430   32.3550   40.4550 C   0  0  0  0  0  0  0  0  0  0  0  0
   37.5800   33.6550   39.9010 C   0  0  0  0  0  0  0  0  0  0  0  0
   38.6630   34.4630   39.8870 C   0  0  0  0  0  0  0  0  0  0  0  0
   39.8740   33.9440   40.4600 C   0  0  0  0  0  0  0  0  0  0  0  0
   39.4420   32.2850   41.0190 S   0  0  0  0  0  0  0  0  0  0  0  0
   36.5980   33.8720   39.5190 H   0  0  0  0  0  0  0  0  0  0  0  0
   38.6180   35.4510   39.4660 H   0  0  0  0  0  0  0  0  0  0  0  0
   41.0110   34.5460   40.5470 O   0  0  0  0  0  0  0  0  0  0  0  0
   42.3240   34.1620   40.7990 C   0  0  0  0  0  2  0  0  0  0  0  0
   42.6850   34.0400   42.1780 N   0  0  0  0  0  4  0  0  0  0  0  0
   41.9220   34.1910   42.8470 H   0  0  0  0  0  0  0  0  0  0  0  0
   43.6920   35.0520   42.4720 C   0  0  0  0  0  2  0  0  0  0  0  0
   43.4260   36.0300   42.0130 H   0  0  0  0  0  0  0  0  0  0  0  0
   43.3120   32.7540   42.4090 C   0  0  0  0  0  2  0  0  0  0  0  0
   42.5680   31.9540   42.5490 H   0  0  0  0  0  0  0  0  0  0  0  0
   37.2160   29.9280   40.1910 C   0  0  0  0  0  0  0  0  0  0  0  0
   36.5170   29.4990   39.4170 H   0  0  0  0  0  0  0  0  0  0  0  0
   38.2200   29.9220   39.6870 H   0  0  0  0  0  0  0  0  0  0  0  0
   37.2530   28.9930   41.3030 C   0  0  0  0  0  0  0  0  0  0  0  0
   36.9980   27.6490   41.1320 C   0  0  0  0  0  0  0  0  0  0  0  0
   37.0450   26.8100   42.2360 C   0  0  0  0  0  0  0  0  0  0  0  0
   37.3430   27.3500   43.4310 N   0  0  0  0  0  0  0  0  0  0  0  0
   37.5880   28.6710   43.5660 C   0  0  0  0  0  0  0  0  0  0  0  0
   37.5440   29.4650   42.5250 N   0  0  0  0  0  0  0  0  0  0  0  0
   36.7620   27.2200   40.1880 H   0  0  0  0  0  0  0  0  0  0  0  0
   36.8470   25.7500   42.1180 H   0  0  0  0  0  0  0  0  0  0  0  0
   37.8270   29.0500   44.5680 H   0  0  0  0  0  0  0  0  0  0  0  0
  1  2  1  0  0  0  0
  3  1  1  0  0  0  0
  4  1  1  0  0  0  0
  4  8  1  0  0  0  0
  5  4  2  0  0  0  0
  6  5  1  0  0  0  0
  6  7  2  0  0  0  0
  7 11  1  0  0  0  0
  7  8  1  0  0  0  0
  9  5  1  0  0  0  0
 10  6  1  0  0  0  0
 11 12  1  0  0  0  0
 12 13  1  0  0  0  0
 13 17  1  0  0  0  0
 13 15  1  0  0  0  0
 13 14  1  0  0  0  0
 16 15  1  0  0  0  0
 17 18  1  0  0  0  0
 19  1  1  0  0  0  0
 19 22  1  0  0  0  0
 20 19  1  0  0  0  0
 21 19  1  0  0  0  0
 22 27  1  0  0  0  0
 23 22  2  0  0  0  0
 23 24  1  0  0  0  0
 24 25  2  0  0  0  0
 25 26  1  0  0  0  0
 26 30  1  0  0  0  0
 27 26  2  0  0  0  0
 28 23  1  0  0  0  0
 29 24  1  0  0  0  0
M  END
>  <minimizedAffinity>
-4.61624241

$$$$

 OpenBabel03242518163D

 30 31  0  0  0  0  0  0  0  0999 V2000
   40.1120   25.8560   43.2460 C   0  0  0  0  0  0  0  0  0  0  0  0
   40.9000   25.9820   42.4390 H   0  0  0  0  0  0  0  0  0  0  0  0
   40.7400   25.9390   44.1830 H   0  0  0  0  0  0  0  0  0  0  0  0
   39.2390   26.9630   43.1810 C   0  0  0  0  0  0  0  0  0  0  0  0
   38.1410   27.4630   43.9210 C   0  0  0  0  0  0  0  0  0  0  0  0
   37.5010   28.5910   43.5450 C   0  0  0  0  0  0  0  0  0  0  0  0
   37.9850   29.2580   42.3680 C   0  0  0  0  0  0  0  0  0  0  0  0
   39.3680   28.2480   41.8060 S   0  0  0  0  0  0  0  0  0  0  0  0
   37.9200   26.8360   44.7670 H   0  0  0  0  0  0  0  0  0  0  0  0
   36.6660   28.9730   44.1050 H   0  0  0  0  0  0  0  0  0  0  0  0
   37.5190   30.3400   41.8430 O   0  0  0  0  0  0  0  0  0  0  0  0
   36.3690   30.6920   41.1440 C   0  0  0  0  0  2  0  0  0  0  0  0
   36.5390   31.6670   40.1110 N   0  0  0  0  0  4  0  0  0  0  0  0
   35.7240   32.2650   39.9330 H   0  0  0  0  0  0  0  0  0  0  0  0
   36.8100   30.9620   38.8650 C   0  0  0  0  0  2  0  0  0  0  0  0
   36.1380   30.0840   38.7450 H   0  0  0  0  0  0  0  0  0  0  0  0
   37.7080   32.4780   40.3900 C   0  0  0  0  0  2  0  0  0  0  0  0
   37.4840   33.2900   41.1000 H   0  0  0  0  0  0  0  0  0  0  0  0
   39.5370   24.5030   43.1540 C   0  0  0  0  0  0  0  0  0  0  0  0
   40.3480   23.7190   43.1370 H   0  0  0  0  0  0  0  0  0  0  0  0
   38.8950   24.2140   44.0300 H   0  0  0  0  0  0  0  0  0  0  0  0
   38.7570   24.3430   41.9380 C   0  0  0  0  0  0  0  0  0  0  0  0
   37.3860   24.2030   41.9660 C   0  0  0  0  0  0  0  0  0  0  0  0
   36.7020   24.0510   40.7690 C   0  0  0  0  0  0  0  0  0  0  0  0
   37.4130   24.0470   39.6270 N   0  0  0  0  0  0  0  0  0  0  0  0
   38.7560   24.1860   39.6340 C   0  0  0  0  0  0  0  0  0  0  0  0
   39.4050   24.3300   40.7620 N   0  0  0  0  0  0  0  0  0  0  0  0
   36.8230   24.2060   42.8670 H   0  0  0  0  0  0  0  0  0  0  0  0
   35.6220   23.9400   40.7730 H   0  0  0  0  0  0  0  0  0  0  0  0
   39.2790   24.1760   38.6680 H   0  0  0  0  0  0  0  0  0  0  0  0
  1  3  1  0  0  0  0
  2  1  1  0  0  0  0
  4  1  1  0  0  0  0
  4  5  2  0  0  0  0
  5  9  1  0  0  0  0
  6  5  1  0  0  0  0
  6 10  1  0  0  0  0
  7  6  2  0  0  0  0
  8  7  1  0  0  0  0
  8  4  1  0  0  0  0
 11  7  1  0  0  0  0
 12 11  1  0  0  0  0
 13 17  1  0  0  0  0
 13 12  1  0  0  0  0
 14 13  1  0  0  0  0
 15 13  1  0  0  0  0
 16 15  1  0  0  0  0
 17 18  1  0  0  0  0
 19  1  1  0  0  0  0
 19 21  1  0  0  0  0
 20 19  1  0  0  0  0
 22 23  1  0  0  0  0
 22 19  1  0  0  0  0
 23 28  1  0  0  0  0
 24 29  1  0  0  0  0
 24 23  2  0  0  0  0
 25 26  2  0  0  0  0
 25 24  1  0  0  0  0
 26 27  1  0  0  0  0
 27 22  2  0  0  0  0
 30 26  1  0  0  0  0
M  END
>  <minimizedAffinity>
-4.5664773

$$$$

 OpenBabel03242518163D

 30 31  0  0  0  0  0  0  0  0999 V2000
   37.9910   25.2710   42.3590 C   0  0  0  0  0  0  0  0  0  0  0  0
   38.8030   25.0080   41.6110 H   0  0  0  0  0  0  0  0  0  0  0  0
   38.3940   24.7920   43.3000 H   0  0  0  0  0  0  0  0  0  0  0  0
   37.9890   26.6730   42.5250 C   0  0  0  0  0  0  0  0  0  0  0  0
   38.3960   27.6010   43.5130 C   0  0  0  0  0  0  0  0  0  0  0  0
   38.2180   28.9290   43.3410 C   0  0  0  0  0  0  0  0  0  0  0  0
   37.6020   29.3530   42.1140 C   0  0  0  0  0  0  0  0  0  0  0  0
   37.2820   27.8270   41.2100 S   0  0  0  0  0  0  0  0  0  0  0  0
   38.8350   27.1040   44.3600 H   0  0  0  0  0  0  0  0  0  0  0  0
   38.5260   29.6350   44.0910 H   0  0  0  0  0  0  0  0  0  0  0  0
   37.3430   30.5650   41.7550 O   0  0  0  0  0  0  0  0  0  0  0  0
   36.6020   31.1660   40.7440 C   0  0  0  0  0  2  0  0  0  0  0  0
   37.0570   32.4530   40.3160 N   0  0  0  0  0  4  0  0  0  0  0  0
   36.4270   33.2350   40.5300 H   0  0  0  0  0  0  0  0  0  0  0  0
   37.1950   32.4240   38.8660 C   0  0  0  0  0  2  0  0  0  0  0  0
   36.3300   31.9140   38.3890 H   0  0  0  0  0  0  0  0  0  0  0  0
   38.3800   32.7090   40.8530 C   0  0  0  0  0  2  0  0  0  0  0  0
   38.3370   33.0840   41.8870 H   0  0  0  0  0  0  0  0  0  0  0  0
   36.7350   24.6100   41.9650 C   0  0  0  0  0  0  0  0  0  0  0  0
   36.3140   24.0020   42.8170 H   0  0  0  0  0  0  0  0  0  0  0  0
   35.9060   25.3190   41.6970 H   0  0  0  0  0  0  0  0  0  0  0  0
   36.9440   23.7010   40.8500 C   0  0  0  0  0  0  0  0  0  0  0  0
   35.9710   23.4770   39.9010 C   0  0  0  0  0  0  0  0  0  0  0  0
   36.2330   22.5940   38.8640 C   0  0  0  0  0  0  0  0  0  0  0  0
   37.4360   21.9940   38.8310 N   0  0  0  0  0  0  0  0  0  0  0  0
   38.3700   22.2350   39.7750 C   0  0  0  0  0  0  0  0  0  0  0  0
   38.1250   23.0680   40.7560 N   0  0  0  0  0  0  0  0  0  0  0  0
   35.0190   23.9500   39.9260 H   0  0  0  0  0  0  0  0  0  0  0  0
   35.4770   22.4060   38.1090 H   0  0  0  0  0  0  0  0  0  0  0  0
   39.3330   21.7150   39.6920 H   0  0  0  0  0  0  0  0  0  0  0  0
  1  4  1  0  0  0  0
  1  3  1  0  0  0  0
  2  1  1  0  0  0  0
  4  5  2  0  0  0  0
  5  9  1  0  0  0  0
  6  5  1  0  0  0  0
  6 10  1  0  0  0  0
  7  6  2  0  0  0  0
  8  7  1  0  0  0  0
  8  4  1  0  0  0  0
 11  7  1  0  0  0  0
 12 11  1  0  0  0  0
 13 14  1  0  0  0  0
 13 12  1  0  0  0  0
 13 17  1  0  0  0  0
 15 13  1  0  0  0  0
 16 15  1  0  0  0  0
 17 18  1  0  0  0  0
 19  1  1  0  0  0  0
 19 20  1  0  0  0  0
 21 19  1  0  0  0  0
 22 19  1  0  0  0  0
 23 28  1  0  0  0  0
 23 22  2  0  0  0  0
 24 23  1  0  0  0  0
 25 24  2  0  0  0  0
 25 26  1  0  0  0  0
 26 27  2  0  0  0  0
 27 22  1  0  0  0  0
 29 24  1  0  0  0  0
 30 26  1  0  0  0  0
M  END
>  <minimizedAffinity>
-4.52123165

$$$$

 OpenBabel03242518163D

 30 31  0  0  0  0  0  0  0  0999 V2000
   36.7990   27.1290   42.7880 C   0  0  0  0  0  0  0  0  0  0  0  0
   36.3850   27.3230   43.8260 H   0  0  0  0  0  0  0  0  0  0  0  0
   36.0980   26.3240   42.4170 H   0  0  0  0  0  0  0  0  0  0  0  0
   36.6040   28.2960   42.0160 C   0  0  0  0  0  0  0  0  0  0  0  0
   35.6880   28.7500   41.0380 C   0  0  0  0  0  0  0  0  0  0  0  0
   35.8180   29.9690   40.4710 C   0  0  0  0  0  0  0  0  0  0  0  0
   36.9210   30.7800   40.9080 C   0  0  0  0  0  0  0  0  0  0  0  0
   37.7700   29.7730   42.1390 S   0  0  0  0  0  0  0  0  0  0  0  0
   34.9310   28.0120   40.8360 H   0  0  0  0  0  0  0  0  0  0  0  0
   35.1240   30.3170   39.7270 H   0  0  0  0  0  0  0  0  0  0  0  0
   37.2230   31.9640   40.4970 O   0  0  0  0  0  0  0  0  0  0  0  0
   37.3880   32.5760   39.2590 C   0  0  0  0  0  2  0  0  0  0  0  0
   38.4970   33.4730   39.1490 N   0  0  0  0  0  4  0  0  0  0  0  0
   38.5700   33.9740   38.2560 H   0  0  0  0  0  0  0  0  0  0  0  0
   39.7220   32.6950   39.2810 C   0  0  0  0  0  2  0  0  0  0  0  0
   39.6640   31.7500   38.6980 H   0  0  0  0  0  0  0  0  0  0  0  0
   38.4820   34.4120   40.2540 C   0  0  0  0  0  2  0  0  0  0  0  0
   37.8000   35.2560   40.0660 H   0  0  0  0  0  0  0  0  0  0  0  0
   38.1630   26.5850   42.9030 C   0  0  0  0  0  0  0  0  0  0  0  0
   38.9350   27.3840   42.7050 H   0  0  0  0  0  0  0  0  0  0  0  0
   38.4210   26.2010   43.9260 H   0  0  0  0  0  0  0  0  0  0  0  0
   38.3890   25.5210   41.9390 C   0  0  0  0  0  0  0  0  0  0  0  0
   39.3980   25.5890   41.0030 C   0  0  0  0  0  0  0  0  0  0  0  0
   39.5590   24.5390   40.1100 C   0  0  0  0  0  0  0  0  0  0  0  0
   38.7170   23.4950   40.2010 N   0  0  0  0  0  0  0  0  0  0  0  0
   37.7380   23.4580   41.1290 C   0  0  0  0  0  0  0  0  0  0  0  0
   37.5840   24.4470   41.9740 N   0  0  0  0  0  0  0  0  0  0  0  0
   40.0650   26.4140   40.9300 H   0  0  0  0  0  0  0  0  0  0  0  0
   40.3490   24.5780   39.3670 H   0  0  0  0  0  0  0  0  0  0  0  0
   37.0830   22.5760   41.1530 H   0  0  0  0  0  0  0  0  0  0  0  0
  1 19  1  0  0  0  0
  1  2  1  0  0  0  0
  3  1  1  0  0  0  0
  4  8  1  0  0  0  0
  4  1  1  0  0  0  0
  5  4  2  0  0  0  0
  6  7  2  0  0  0  0
  6  5  1  0  0  0  0
  7  8  1  0  0  0  0
  9  5  1  0  0  0  0
 10  6  1  0  0  0  0
 11  7  1  0  0  0  0
 12 11  1  0  0  0  0
 13 12  1  0  0  0  0
 13 15  1  0  0  0  0
 13 17  1  0  0  0  0
 14 13  1  0  0  0  0
 16 15  1  0  0  0  0
 18 17  1  0  0  0  0
 19 21  1  0  0  0  0
 20 19  1  0  0  0  0
 22 27  1  0  0  0  0
 22 19  1  0  0  0  0
 23 22  2  0  0  0  0
 24 25  2  0  0  0  0
 24 23  1  0  0  0  0
 25 26  1  0  0  0  0
 26 30  1  0  0  0  0
 26 27  2  0  0  0  0
 28 23  1  0  0  0  0
 29 24  1  0  0  0  0
M  END
>  <minimizedAffinity>
-4.49644518

$$$$

 OpenBabel03242518163D

 30 31  0  0  0  0  0  0  0  0999 V2000
   37.1240   31.8550   39.0740 C   0  0  0  0  0  0  0  0  0  0  0  0
   38.0750   31.6060   38.5060 H   0  0  0  0  0  0  0  0  0  0  0  0
   36.3640   31.8680   38.2370 H   0  0  0  0  0  0  0  0  0  0  0  0
   36.8350   30.7750   39.9360 C   0  0  0  0  0  0  0  0  0  0  0  0
   35.8150   29.8040   40.0760 C   0  0  0  0  0  0  0  0  0  0  0  0
   35.8500   28.8920   41.0720 C   0  0  0  0  0  0  0  0  0  0  0  0
   36.9650   28.9520   41.9760 C   0  0  0  0  0  0  0  0  0  0  0  0
   37.9630   30.3310   41.3810 S   0  0  0  0  0  0  0  0  0  0  0  0
   35.0640   29.9110   39.3130 H   0  0  0  0  0  0  0  0  0  0  0  0
   35.0760   28.1540   41.1810 H   0  0  0  0  0  0  0  0  0  0  0  0
   37.1870   28.1820   42.9860 O   0  0  0  0  0  0  0  0  0  0  0  0
   37.8330   26.9670   43.1880 C   0  0  0  0  0  2  0  0  0  0  0  0
   38.2040   26.2520   42.0050 N   0  0  0  0  0  4  0  0  0  0  0  0
   38.1250   26.7820   41.1290 H   0  0  0  0  0  0  0  0  0  0  0  0
   37.3130   25.1070   41.8710 C   0  0  0  0  0  2  0  0  0  0  0  0
   36.2600   25.3890   42.0870 H   0  0  0  0  0  0  0  0  0  0  0  0
   39.5440   25.7200   42.1540 C   0  0  0  0  0  2  0  0  0  0  0  0
   40.3130   26.4730   41.9220 H   0  0  0  0  0  0  0  0  0  0  0  0
   37.2440   33.2030   39.6540 C   0  0  0  0  0  0  0  0  0  0  0  0
   36.7130   33.9670   39.0150 H   0  0  0  0  0  0  0  0  0  0  0  0
   36.7680   33.3130   40.6660 H   0  0  0  0  0  0  0  0  0  0  0  0
   38.6350   33.6140   39.7500 C   0  0  0  0  0  0  0  0  0  0  0  0
   39.0100   34.7610   40.4160 C   0  0  0  0  0  0  0  0  0  0  0  0
   40.3550   35.0980   40.4690 C   0  0  0  0  0  0  0  0  0  0  0  0
   41.2370   34.2840   39.8640 N   0  0  0  0  0  0  0  0  0  0  0  0
   40.8380   33.1670   39.2190 C   0  0  0  0  0  0  0  0  0  0  0  0
   39.5690   32.8460   39.1680 N   0  0  0  0  0  0  0  0  0  0  0  0
   38.3140   35.4060   40.8950 H   0  0  0  0  0  0  0  0  0  0  0  0
   40.6670   35.9980   40.9890 H   0  0  0  0  0  0  0  0  0  0  0  0
   41.6070   32.5420   38.7460 H   0  0  0  0  0  0  0  0  0  0  0  0
  1 19  1  0  0  0  0
  1  4  1  0  0  0  0
  2  1  1  0  0  0  0
  3  1  1  0  0  0  0
  4  5  2  0  0  0  0
  4  8  1  0  0  0  0
  5  6  1  0  0  0  0
  6 10  1  0  0  0  0
  6  7  2  0  0  0  0
  7 11  1  0  0  0  0
  8  7  1  0  0  0  0
  9  5  1  0  0  0  0
 11 12  1  0  0  0  0
 13 17  1  0  0  0  0
 13 12  1  0  0  0  0
 14 13  1  0  0  0  0
 15 13  1  0  0  0  0
 15 16  1  0  0  0  0
 18 17  1  0  0  0  0
 19 22  1  0  0  0  0
 19 21  1  0  0  0  0
 20 19  1  0  0  0  0
 22 23  1  0  0  0  0
 23 24  2  0  0  0  0
 23 28  1  0  0  0  0
 24 29  1  0  0  0  0
 25 24  1  0  0  0  0
 26 25  2  0  0  0  0
 27 26  1  0  0  0  0
 27 22  2  0  0  0  0
 30 26  1  0  0  0  0
M  END
>  <minimizedAffinity>
-4.3553133

$$$$
