
 OpenBabel03242523263D

 43 45  0  0  1  0  0  0  0  0999 V2000
   47.3730   32.6890   44.0730 C   0  0  0  0  0  0  0  0  0  0  0  0
   48.2420   33.1750   43.2070 C   0  0  0  0  0  0  0  0  0  0  0  0
   49.0450   32.2270   42.5950 C   0  0  0  0  0  0  0  0  0  0  0  0
   48.8500   30.8720   42.9610 N   0  0  0  0  0  0  0  0  0  0  0  0
   47.9660   30.4680   43.8330 C   0  0  0  0  0  0  0  0  0  0  0  0
   47.1520   31.4030   44.4530 N   0  0  0  0  0  0  0  0  0  0  0  0
   49.8130   32.4140   41.8590 H   0  0  0  0  0  0  0  0  0  0  0  0
   47.9390   29.4010   44.0070 H   0  0  0  0  0  0  0  0  0  0  0  0
   48.5270   34.5600   42.9210 C   0  0  1  0  0  0  0  0  0  0  0  0
   49.4250   35.0460   42.0350 C   0  0  0  0  0  0  0  0  0  0  0  0
   48.0290   35.0520   41.4850 C   0  0  1  0  0  0  0  0  0  0  0  0
   48.0010   35.2160   43.6860 H   0  0  0  0  0  0  0  0  0  0  0  0
   49.8820   36.0560   42.1180 H   0  0  0  0  0  0  0  0  0  0  0  0
   50.1470   34.3780   41.4770 H   0  0  0  0  0  0  0  0  0  0  0  0
   47.4880   36.0140   41.4720 H   0  0  0  0  0  0  0  0  0  0  0  0
   47.6760   34.0200   40.5770 N   0  0  0  0  0  0  0  0  0  0  0  0
   46.6520   33.8290   40.5160 H   0  0  0  0  0  0  0  0  0  0  0  0
   48.1070   34.5060   39.2770 C   0  0  0  0  0  0  0  0  0  0  0  0
   48.9920   33.6080   38.6060 N   0  0  0  0  0  0  0  0  0  0  0  0
   49.9850   33.8790   38.7750 H   0  0  0  0  0  0  0  0  0  0  0  0
   48.7880   33.8030   37.1750 C   0  0  0  0  0  0  0  0  0  0  0  0
   48.8390   34.9050   36.9870 H   0  0  0  0  0  0  0  0  0  0  0  0
   48.7580   32.2140   38.9290 C   0  0  0  0  0  0  0  0  0  0  0  0
   49.1960   32.0360   39.9430 H   0  0  0  0  0  0  0  0  0  0  0  0
   46.3480   33.4840   44.8090 C   0  0  0  0  0  0  0  0  0  0  0  0
   45.8030   33.9060   45.7840 O   0  0  0  0  0  0  0  0  0  0  0  0
   44.5120   31.7590   43.0040 Cl  0  0  0  0  0  0  0  0  0  0  0  0
   44.5890   33.5040   42.8860 C   0  0  0  0  0  0  0  0  0  0  0  0
   45.4680   34.1670   43.7860 C   0  0  0  0  0  0  0  0  0  0  0  0
   45.4250   35.5200   43.5900 C   0  0  0  0  0  0  0  0  0  0  0  0
   44.7330   36.2490   42.7420 C   0  0  0  0  0  0  0  0  0  0  0  0
   43.8960   35.5570   41.8890 C   0  0  0  0  0  0  0  0  0  0  0  0
   43.8200   34.2090   41.9550 C   0  0  0  0  0  0  0  0  0  0  0  0
   46.0770   36.1330   44.2680 H   0  0  0  0  0  0  0  0  0  0  0  0
   44.7780   37.3420   42.6720 H   0  0  0  0  0  0  0  0  0  0  0  0
   43.3030   36.1450   41.1660 H   0  0  0  0  0  0  0  0  0  0  0  0
   42.9560   33.6240   41.0620 O   0  0  0  0  0  0  0  0  0  0  0  0
   40.6950   33.0440   39.8680 O   0  0  0  0  0  0  0  0  0  0  0  0
   41.3030   33.2880   41.2230 P   0  0  0  0  0  0  0  0  0  0  0  0
   41.1140   31.9400   42.2300 O   0  0  0  0  0  0  0  0  0  0  0  0
   40.7190   32.1390   43.0950 H   0  0  0  0  0  0  0  0  0  0  0  0
   40.4800   34.5570   41.9840 O   0  0  0  0  0  0  0  0  0  0  0  0
   39.9730   35.0680   41.2930 H   0  0  0  0  0  0  0  0  0  0  0  0
  1  6  1  0  0  0  0
  1 25  1  0  0  0  0
  2  1  2  0  0  0  0
  3  4  2  0  0  0  0
  3  2  1  0  0  0  0
  4  5  1  0  0  0  0
  5  8  1  0  0  0  0
  5  6  2  0  0  0  0
  7  3  1  0  0  0  0
  9  2  1  0  0  0  0
  9 12  1  1  0  0  0
 10 13  1  0  0  0  0
 10  9  1  0  0  0  0
 11 15  1  6  0  0  0
 11 10  1  0  0  0  0
 11  9  1  0  0  0  0
 14 10  1  0  0  0  0
 16 11  1  0  0  0  0
 17 16  1  0  0  0  0
 18 16  1  0  0  0  0
 19 20  1  0  0  0  0
 19 23  1  0  0  0  0
 19 18  1  0  0  0  0
 21 19  1  0  0  0  0
 22 21  1  0  0  0  0
 23 24  1  0  0  0  0
 25 26  2  0  0  0  0
 28 27  1  0  0  0  0
 28 29  1  0  0  0  0
 29 25  1  0  0  0  0
 30 29  2  0  0  0  0
 30 34  1  0  0  0  0
 31 30  1  0  0  0  0
 32 33  1  0  0  0  0
 32 31  2  0  0  0  0
 33 28  2  0  0  0  0
 35 31  1  0  0  0  0
 36 32  1  0  0  0  0
 37 39  1  0  0  0  0
 37 33  1  0  0  0  0
 38 39  2  0  0  0  0
 39 42  1  0  0  0  0
 39 40  1  0  0  0  0
 40 41  1  0  0  0  0
 43 42  1  0  0  0  0
M  END
>  <minimizedAffinity>
-5.73097849

>  <minimizedRMSD>
0.732050955

$$$$
