
 OpenBabel03252509133D

 30 32  0  0  0  0  0  0  0  0999 V2000
   39.4740   30.4260   42.1100 C   0  0  0  0  0  0  0  0  0  0  0  0
   38.2420   29.9570   41.6480 C   0  0  0  0  0  0  0  0  0  0  0  0
   37.3840   30.7360   40.9250 C   0  0  0  0  0  0  0  0  0  0  0  0
   37.7260   32.0630   40.6200 C   0  0  0  0  0  0  0  0  0  0  0  0
   37.1480   33.0980   39.9510 N   0  0  0  0  0  0  0  0  0  0  0  0
   37.9860   34.1610   39.9970 C   0  0  0  0  0  0  0  0  0  0  0  0
   39.0670   33.7720   40.6920 N   0  0  0  0  0  0  0  0  0  0  0  0
   38.9370   32.4980   41.0860 C   0  0  0  0  0  0  0  0  0  0  0  0
   39.8390   31.7390   41.8220 C   0  0  0  0  0  0  0  0  0  0  0  0
   40.1540   29.8010   42.6860 H   0  0  0  0  0  0  0  0  0  0  0  0
   36.2070   32.9200   39.5330 H   0  0  0  0  0  0  0  0  0  0  0  0
   37.7050   35.1010   39.5140 H   0  0  0  0  0  0  0  0  0  0  0  0
   40.7800   32.1590   42.1540 H   0  0  0  0  0  0  0  0  0  0  0  0
   36.7440   27.0640   43.3290 C   0  0  0  0  0  0  0  0  0  0  0  0
   37.1390   26.0020   42.5160 C   0  0  0  0  0  0  0  0  0  0  0  0
   37.9170   26.2800   41.3960 C   0  0  0  0  0  0  0  0  0  0  0  0
   38.2600   27.5860   41.1420 N   0  0  0  0  0  0  0  0  0  0  0  0
   37.8570   28.5820   41.9510 C   0  0  0  0  0  0  0  0  0  0  0  0
   37.1020   28.3410   43.0440 N   0  0  0  0  0  0  0  0  0  0  0  0
   36.1310   26.8880   44.2190 H   0  0  0  0  0  0  0  0  0  0  0  0
   36.8400   24.9830   42.7640 H   0  0  0  0  0  0  0  0  0  0  0  0
   38.2410   25.4970   40.7480 H   0  0  0  0  0  0  0  0  0  0  0  0
   35.8140   30.1350   40.3330 S   0  0  0  0  0  0  0  0  0  0  0  0
   35.8480   29.6470   38.6000 C   0  0  0  0  0  2  0  0  0  0  0  0
   37.0300   28.7930   38.4150 N   0  0  0  0  0  4  0  0  0  0  0  0
   37.5570   28.6500   39.3040 H   0  0  0  0  0  0  0  0  0  0  0  0
   37.9340   29.5370   37.5310 C   0  0  0  0  0  2  0  0  0  0  0  0
   37.8150   30.6170   37.8180 H   0  0  0  0  0  0  0  0  0  0  0  0
   36.7020   27.4960   37.9070 C   0  0  0  0  0  2  0  0  0  0  0  0
   35.6800   27.1710   38.2110 H   0  0  0  0  0  0  0  0  0  0  0  0
  1 10  1  0  0  0  0
  2 18  1  0  0  0  0
  2  1  2  0  0  0  0
  3  2  1  0  0  0  0
  4  3  2  0  0  0  0
  4  8  1  0  0  0  0
  5  6  1  0  0  0  0
  5  4  1  0  0  0  0
  6  7  2  0  0  0  0
  7  8  1  0  0  0  0
  8  9  2  0  0  0  0
  9  1  1  0  0  0  0
  9 13  1  0  0  0  0
 11  5  1  0  0  0  0
 12  6  1  0  0  0  0
 14 20  1  0  0  0  0
 15 21  1  0  0  0  0
 15 14  2  0  0  0  0
 16 15  1  0  0  0  0
 17 16  2  0  0  0  0
 17 18  1  0  0  0  0
 18 19  2  0  0  0  0
 19 14  1  0  0  0  0
 22 16  1  0  0  0  0
 23  3  1  0  0  0  0
 24 23  1  0  0  0  0
 25 24  1  0  0  0  0
 25 26  1  0  0  0  0
 27 28  1  0  0  0  0
 27 25  1  0  0  0  0
 29 30  1  0  0  0  0
 29 25  1  0  0  0  0
M  END
>  <minimizedAffinity>
-4.87208128

$$$$

 OpenBabel03252509133D

 30 32  0  0  0  0  0  0  0  0999 V2000
   37.0820   30.2950   36.9060 C   0  0  0  0  0  0  0  0  0  0  0  0
   36.3810   29.6440   37.9250 C   0  0  0  0  0  0  0  0  0  0  0  0
   36.2730   30.1570   39.1860 C   0  0  0  0  0  0  0  0  0  0  0  0
   36.8790   31.3830   39.5010 C   0  0  0  0  0  0  0  0  0  0  0  0
   36.9830   32.1730   40.6050 N   0  0  0  0  0  0  0  0  0  0  0  0
   37.7150   33.2660   40.2840 C   0  0  0  0  0  0  0  0  0  0  0  0
   38.0550   33.1390   38.9910 N   0  0  0  0  0  0  0  0  0  0  0  0
   37.5590   32.0000   38.4870 C   0  0  0  0  0  0  0  0  0  0  0  0
   37.6930   31.5140   37.1920 C   0  0  0  0  0  0  0  0  0  0  0  0
   37.1650   29.8830   35.9030 H   0  0  0  0  0  0  0  0  0  0  0  0
   36.5100   31.8330   41.4720 H   0  0  0  0  0  0  0  0  0  0  0  0
   37.9170   34.0320   41.0390 H   0  0  0  0  0  0  0  0  0  0  0  0
   38.2500   32.0660   36.4440 H   0  0  0  0  0  0  0  0  0  0  0  0
   35.8620   26.0390   37.5110 C   0  0  0  0  0  0  0  0  0  0  0  0
   34.5410   25.9700   37.0710 C   0  0  0  0  0  0  0  0  0  0  0  0
   33.8330   27.1590   36.9160 C   0  0  0  0  0  0  0  0  0  0  0  0
   34.4660   28.3430   37.2050 N   0  0  0  0  0  0  0  0  0  0  0  0
   35.7430   28.3660   37.6280 C   0  0  0  0  0  0  0  0  0  0  0  0
   36.4530   27.2280   37.7870 N   0  0  0  0  0  0  0  0  0  0  0  0
   36.4540   25.1270   37.6460 H   0  0  0  0  0  0  0  0  0  0  0  0
   34.0860   25.0030   36.8540 H   0  0  0  0  0  0  0  0  0  0  0  0
   32.8210   27.1510   36.5810 H   0  0  0  0  0  0  0  0  0  0  0  0
   35.3760   29.3250   40.4820 S   0  0  0  0  0  0  0  0  0  0  0  0
   36.3560   28.0830   41.3410 C   0  0  0  0  0  2  0  0  0  0  0  0
   36.5600   28.5670   42.7140 N   0  0  0  0  0  4  0  0  0  0  0  0
   35.8260   29.2510   43.0040 H   0  0  0  0  0  0  0  0  0  0  0  0
   37.8200   29.3160   42.6990 C   0  0  0  0  0  2  0  0  0  0  0  0
   37.8530   29.8300   41.7000 H   0  0  0  0  0  0  0  0  0  0  0  0
   36.5540   27.5110   43.6800 C   0  0  0  0  0  2  0  0  0  0  0  0
   35.9250   26.6480   43.3580 H   0  0  0  0  0  0  0  0  0  0  0  0
  1  9  2  0  0  0  0
  1  2  1  0  0  0  0
  2  3  2  0  0  0  0
  3  4  1  0  0  0  0
  3 23  1  0  0  0  0
  4  5  1  0  0  0  0
  5 11  1  0  0  0  0
  6  5  1  0  0  0  0
  6 12  1  0  0  0  0
  7  6  2  0  0  0  0
  8  7  1  0  0  0  0
  8  4  2  0  0  0  0
  9  8  1  0  0  0  0
 10  1  1  0  0  0  0
 13  9  1  0  0  0  0
 14 20  1  0  0  0  0
 14 19  1  0  0  0  0
 15 14  2  0  0  0  0
 16 15  1  0  0  0  0
 16 17  2  0  0  0  0
 17 18  1  0  0  0  0
 18 19  2  0  0  0  0
 18  2  1  0  0  0  0
 21 15  1  0  0  0  0
 22 16  1  0  0  0  0
 23 24  1  0  0  0  0
 24 25  1  0  0  0  0
 25 26  1  0  0  0  0
 25 29  1  0  0  0  0
 27 25  1  0  0  0  0
 28 27  1  0  0  0  0
 30 29  1  0  0  0  0
M  END
>  <minimizedAffinity>
-4.8356123

$$$$

 OpenBabel03252509133D

 30 32  0  0  0  0  0  0  0  0999 V2000
   37.3250   30.8020   36.8640 C   0  0  0  0  0  0  0  0  0  0  0  0
   37.0860   30.8500   38.2400 C   0  0  0  0  0  0  0  0  0  0  0  0
   36.1960   30.0200   38.8610 C   0  0  0  0  0  0  0  0  0  0  0  0
   35.4790   29.0730   38.1140 C   0  0  0  0  0  0  0  0  0  0  0  0
   34.5450   28.1180   38.3750 N   0  0  0  0  0  0  0  0  0  0  0  0
   34.2200   27.5040   37.2120 C   0  0  0  0  0  0  0  0  0  0  0  0
   34.9530   28.0860   36.2490 N   0  0  0  0  0  0  0  0  0  0  0  0
   35.7300   29.0470   36.7690 C   0  0  0  0  0  0  0  0  0  0  0  0
   36.6260   29.8700   36.0990 C   0  0  0  0  0  0  0  0  0  0  0  0
   38.0350   31.4650   36.3740 H   0  0  0  0  0  0  0  0  0  0  0  0
   34.2450   28.0140   39.3710 H   0  0  0  0  0  0  0  0  0  0  0  0
   33.4790   26.6990   37.2050 H   0  0  0  0  0  0  0  0  0  0  0  0
   36.7680   29.7860   35.0280 H   0  0  0  0  0  0  0  0  0  0  0  0
   37.9500   33.9580   39.9810 C   0  0  0  0  0  0  0  0  0  0  0  0
   39.1860   33.6550   40.5500 C   0  0  0  0  0  0  0  0  0  0  0  0
   39.7200   32.3870   40.3350 C   0  0  0  0  0  0  0  0  0  0  0  0
   39.0060   31.4940   39.5740 N   0  0  0  0  0  0  0  0  0  0  0  0
   37.8150   31.8260   39.0430 C   0  0  0  0  0  0  0  0  0  0  0  0
   37.2740   33.0490   39.2360 N   0  0  0  0  0  0  0  0  0  0  0  0
   37.4950   34.9440   40.1260 H   0  0  0  0  0  0  0  0  0  0  0  0
   39.7130   34.4020   41.1450 H   0  0  0  0  0  0  0  0  0  0  0  0
   40.6630   32.1140   40.7510 H   0  0  0  0  0  0  0  0  0  0  0  0
   35.8970   30.0810   40.6160 S   0  0  0  0  0  0  0  0  0  0  0  0
   36.3030   28.5440   41.4610 C   0  0  0  0  0  2  0  0  0  0  0  0
   36.8210   28.9030   42.7880 N   0  0  0  0  0  4  0  0  0  0  0  0
   36.2030   29.5860   43.2810 H   0  0  0  0  0  0  0  0  0  0  0  0
   38.0860   29.6070   42.5550 C   0  0  0  0  0  2  0  0  0  0  0  0
   37.9310   30.2020   41.6140 H   0  0  0  0  0  0  0  0  0  0  0  0
   36.9670   27.7710   43.6500 C   0  0  0  0  0  2  0  0  0  0  0  0
   36.2400   26.9610   43.4100 H   0  0  0  0  0  0  0  0  0  0  0  0
  1  2  1  0  0  0  0
  2  3  2  0  0  0  0
  2 18  1  0  0  0  0
  3 23  1  0  0  0  0
  4  5  1  0  0  0  0
  4  3  1  0  0  0  0
  5 11  1  0  0  0  0
  6  5  1  0  0  0  0
  7  8  1  0  0  0  0
  7  6  2  0  0  0  0
  8  4  2  0  0  0  0
  9  8  1  0  0  0  0
  9  1  2  0  0  0  0
 10  1  1  0  0  0  0
 12  6  1  0  0  0  0
 13  9  1  0  0  0  0
 14 20  1  0  0  0  0
 14 15  1  0  0  0  0
 15 21  1  0  0  0  0
 16 15  2  0  0  0  0
 16 22  1  0  0  0  0
 17 16  1  0  0  0  0
 18 19  1  0  0  0  0
 18 17  2  0  0  0  0
 19 14  2  0  0  0  0
 23 24  1  0  0  0  0
 24 25  1  0  0  0  0
 25 26  1  0  0  0  0
 25 29  1  0  0  0  0
 27 25  1  0  0  0  0
 28 27  1  0  0  0  0
 30 29  1  0  0  0  0
M  END
>  <minimizedAffinity>
-4.80135202

$$$$

 OpenBabel03252509133D

 30 32  0  0  0  0  0  0  0  0999 V2000
   36.7100   30.8340   40.3350 C   0  0  0  0  0  0  0  0  0  0  0  0
   37.6760   30.2170   41.1350 C   0  0  0  0  0  0  0  0  0  0  0  0
   38.8440   30.8330   41.4830 C   0  0  0  0  0  0  0  0  0  0  0  0
   39.1130   32.1350   41.0350 C   0  0  0  0  0  0  0  0  0  0  0  0
   40.1280   33.0320   41.1710 N   0  0  0  0  0  0  0  0  0  0  0  0
   39.8060   34.1550   40.4860 C   0  0  0  0  0  0  0  0  0  0  0  0
   38.5990   33.9400   39.9360 N   0  0  0  0  0  0  0  0  0  0  0  0
   38.1520   32.7170   40.2530 C   0  0  0  0  0  0  0  0  0  0  0  0
   36.9520   32.1270   39.8770 C   0  0  0  0  0  0  0  0  0  0  0  0
   35.7810   30.3390   40.0600 H   0  0  0  0  0  0  0  0  0  0  0  0
   40.9460   32.7310   41.7480 H   0  0  0  0  0  0  0  0  0  0  0  0
   40.4950   35.0040   40.4690 H   0  0  0  0  0  0  0  0  0  0  0  0
   36.2410   32.6560   39.2530 H   0  0  0  0  0  0  0  0  0  0  0  0
   37.4170   26.5610   41.2240 C   0  0  0  0  0  0  0  0  0  0  0  0
   36.9550   26.3200   42.5170 C   0  0  0  0  0  0  0  0  0  0  0  0
   36.7340   27.4100   43.3540 C   0  0  0  0  0  0  0  0  0  0  0  0
   36.9800   28.6720   42.8690 N   0  0  0  0  0  0  0  0  0  0  0  0
   37.4260   28.8610   41.6140 C   0  0  0  0  0  0  0  0  0  0  0  0
   37.6490   27.8220   40.7810 N   0  0  0  0  0  0  0  0  0  0  0  0
   37.6040   25.7320   40.5340 H   0  0  0  0  0  0  0  0  0  0  0  0
   36.7750   25.2980   42.8520 H   0  0  0  0  0  0  0  0  0  0  0  0
   36.3800   27.2700   44.3500 H   0  0  0  0  0  0  0  0  0  0  0  0
   40.0720   30.0450   42.5060 S   0  0  0  0  0  0  0  0  0  0  0  0
   41.1630   28.9460   41.5880 C   0  0  0  0  0  2  0  0  0  0  0  0
   40.6730   27.5760   41.7990 N   0  0  0  0  0  4  0  0  0  0  0  0
   39.7110   27.4380   41.4180 H   0  0  0  0  0  0  0  0  0  0  0  0
   40.5550   27.4060   43.2510 C   0  0  0  0  0  2  0  0  0  0  0  0
   40.2160   28.4020   43.6450 H   0  0  0  0  0  0  0  0  0  0  0  0
   41.5120   26.5890   41.1910 C   0  0  0  0  0  2  0  0  0  0  0  0
   42.0430   26.9810   40.2930 H   0  0  0  0  0  0  0  0  0  0  0  0
  1  2  1  0  0  0  0
  2  3  2  0  0  0  0
  2 18  1  0  0  0  0
  3 23  1  0  0  0  0
  4  5  1  0  0  0  0
  4  3  1  0  0  0  0
  5 11  1  0  0  0  0
  6  5  1  0  0  0  0
  7  8  1  0  0  0  0
  7  6  2  0  0  0  0
  8  4  2  0  0  0  0
  9  8  1  0  0  0  0
  9  1  2  0  0  0  0
 10  1  1  0  0  0  0
 12  6  1  0  0  0  0
 13  9  1  0  0  0  0
 14 15  1  0  0  0  0
 15 21  1  0  0  0  0
 15 16  2  0  0  0  0
 16 22  1  0  0  0  0
 17 16  1  0  0  0  0
 18 17  2  0  0  0  0
 19 14  2  0  0  0  0
 19 18  1  0  0  0  0
 20 14  1  0  0  0  0
 24 25  1  0  0  0  0
 24 23  1  0  0  0  0
 25 27  1  0  0  0  0
 26 25  1  0  0  0  0
 27 28  1  0  0  0  0
 29 25  1  0  0  0  0
 30 29  1  0  0  0  0
M  END
>  <minimizedAffinity>
-4.70561647

$$$$

 OpenBabel03252509133D

 30 32  0  0  0  0  0  0  0  0999 V2000
   40.3020   29.7860   42.2150 C   0  0  0  0  0  0  0  0  0  0  0  0
   39.3660   30.4920   41.4550 C   0  0  0  0  0  0  0  0  0  0  0  0
   38.0400   30.1680   41.4370 C   0  0  0  0  0  0  0  0  0  0  0  0
   37.5690   29.0880   42.2000 C   0  0  0  0  0  0  0  0  0  0  0  0
   36.3650   28.4920   42.4220 N   0  0  0  0  0  0  0  0  0  0  0  0
   36.5470   27.4620   43.2810 C   0  0  0  0  0  0  0  0  0  0  0  0
   37.8570   27.4320   43.5780 N   0  0  0  0  0  0  0  0  0  0  0  0
   38.5050   28.4120   42.9340 C   0  0  0  0  0  0  0  0  0  0  0  0
   39.8620   28.7090   42.9810 C   0  0  0  0  0  0  0  0  0  0  0  0
   41.3580   30.0470   42.2260 H   0  0  0  0  0  0  0  0  0  0  0  0
   35.5410   28.9000   41.9250 H   0  0  0  0  0  0  0  0  0  0  0  0
   35.6960   26.8490   43.5900 H   0  0  0  0  0  0  0  0  0  0  0  0
   40.5400   28.1220   43.5900 H   0  0  0  0  0  0  0  0  0  0  0  0
   40.8540   32.4190   38.7140 C   0  0  0  0  0  0  0  0  0  0  0  0
   40.6870   33.7360   39.1420 C   0  0  0  0  0  0  0  0  0  0  0  0
   40.0670   33.9590   40.3680 C   0  0  0  0  0  0  0  0  0  0  0  0
   39.6470   32.8740   41.0990 N   0  0  0  0  0  0  0  0  0  0  0  0
   39.8260   31.6190   40.6500 C   0  0  0  0  0  0  0  0  0  0  0  0
   40.4250   31.3740   39.4650 N   0  0  0  0  0  0  0  0  0  0  0  0
   41.3360   32.2000   37.7560 H   0  0  0  0  0  0  0  0  0  0  0  0
   41.0400   34.5610   38.5230 H   0  0  0  0  0  0  0  0  0  0  0  0
   39.9210   34.9500   40.7330 H   0  0  0  0  0  0  0  0  0  0  0  0
   36.8470   31.0740   40.4700 S   0  0  0  0  0  0  0  0  0  0  0  0
   36.5270   30.3340   38.8610 C   0  0  0  0  0  2  0  0  0  0  0  0
   37.7820   30.3980   38.0980 N   0  0  0  0  0  4  0  0  0  0  0  0
   38.5940   30.6640   38.6970 H   0  0  0  0  0  0  0  0  0  0  0  0
   37.6180   31.4950   37.1390 C   0  0  0  0  0  2  0  0  0  0  0  0
   37.0140   32.2770   37.6740 H   0  0  0  0  0  0  0  0  0  0  0  0
   38.1120   29.1560   37.4690 C   0  0  0  0  0  2  0  0  0  0  0  0
   37.7120   28.2790   38.0310 H   0  0  0  0  0  0  0  0  0  0  0  0
  1 10  1  0  0  0  0
  1  9  1  0  0  0  0
  2  1  2  0  0  0  0
  3  2  1  0  0  0  0
  3  4  2  0  0  0  0
  4  5  1  0  0  0  0
  4  8  1  0  0  0  0
  5  6  1  0  0  0  0
  6  7  2  0  0  0  0
  6 12  1  0  0  0  0
  8  9  2  0  0  0  0
  8  7  1  0  0  0  0
  9 13  1  0  0  0  0
 11  5  1  0  0  0  0
 14 15  2  0  0  0  0
 14 19  1  0  0  0  0
 15 16  1  0  0  0  0
 16 22  1  0  0  0  0
 16 17  2  0  0  0  0
 18 17  1  0  0  0  0
 18  2  1  0  0  0  0
 19 18  2  0  0  0  0
 20 14  1  0  0  0  0
 21 15  1  0  0  0  0
 23  3  1  0  0  0  0
 24 23  1  0  0  0  0
 25 26  1  0  0  0  0
 25 24  1  0  0  0  0
 27 28  1  0  0  0  0
 27 25  1  0  0  0  0
 29 30  1  0  0  0  0
 29 25  1  0  0  0  0
M  END
>  <minimizedAffinity>
-4.70188236

$$$$

 OpenBabel03252509133D

 30 32  0  0  0  0  0  0  0  0999 V2000
   36.5540   26.4320   39.4450 C   0  0  0  0  0  0  0  0  0  0  0  0
   36.2150   27.7800   39.3020 C   0  0  0  0  0  0  0  0  0  0  0  0
   36.3090   28.6740   40.3300 C   0  0  0  0  0  0  0  0  0  0  0  0
   36.7590   28.2520   41.5900 C   0  0  0  0  0  0  0  0  0  0  0  0
   36.9730   28.8330   42.8030 N   0  0  0  0  0  0  0  0  0  0  0  0
   37.4240   27.8860   43.6600 C   0  0  0  0  0  0  0  0  0  0  0  0
   37.4830   26.7350   42.9690 N   0  0  0  0  0  0  0  0  0  0  0  0
   37.0830   26.9270   41.7050 C   0  0  0  0  0  0  0  0  0  0  0  0
   37.0030   25.9860   40.6860 C   0  0  0  0  0  0  0  0  0  0  0  0
   36.4770   25.7240   38.6240 H   0  0  0  0  0  0  0  0  0  0  0  0
   36.7680   29.8550   42.8770 H   0  0  0  0  0  0  0  0  0  0  0  0
   37.6570   28.1500   44.6950 H   0  0  0  0  0  0  0  0  0  0  0  0
   37.2790   24.9530   40.8590 H   0  0  0  0  0  0  0  0  0  0  0  0
   36.2020   29.1600   35.9060 C   0  0  0  0  0  0  0  0  0  0  0  0
   34.8500   29.1260   35.5690 C   0  0  0  0  0  0  0  0  0  0  0  0
   33.9470   28.6320   36.5060 C   0  0  0  0  0  0  0  0  0  0  0  0
   34.4280   28.2000   37.7180 N   0  0  0  0  0  0  0  0  0  0  0  0
   35.7420   28.2490   38.0040 C   0  0  0  0  0  0  0  0  0  0  0  0
   36.6390   28.7240   37.1130 N   0  0  0  0  0  0  0  0  0  0  0  0
   36.9450   29.5410   35.1970 H   0  0  0  0  0  0  0  0  0  0  0  0
   34.5200   29.4830   34.5920 H   0  0  0  0  0  0  0  0  0  0  0  0
   32.9040   28.5890   36.2890 H   0  0  0  0  0  0  0  0  0  0  0  0
   35.8810   30.3940   40.1430 S   0  0  0  0  0  0  0  0  0  0  0  0
   37.2270   31.3950   39.4880 C   0  0  0  0  0  2  0  0  0  0  0  0
   37.3390   32.5830   40.3450 N   0  0  0  0  0  4  0  0  0  0  0  0
   36.5920   32.6150   41.0740 H   0  0  0  0  0  0  0  0  0  0  0  0
   37.0960   33.7370   39.4740 C   0  0  0  0  0  2  0  0  0  0  0  0
   36.3140   33.4020   38.7400 H   0  0  0  0  0  0  0  0  0  0  0  0
   38.5950   32.6570   41.0260 C   0  0  0  0  0  2  0  0  0  0  0  0
   39.0330   31.6490   41.2150 H   0  0  0  0  0  0  0  0  0  0  0  0
  1  9  1  0  0  0  0
  2  1  2  0  0  0  0
  2  3  1  0  0  0  0
  3  4  2  0  0  0  0
  4  8  1  0  0  0  0
  4  5  1  0  0  0  0
  5 11  1  0  0  0  0
  5  6  1  0  0  0  0
  6 12  1  0  0  0  0
  7  6  2  0  0  0  0
  8  7  1  0  0  0  0
  9 13  1  0  0  0  0
  9  8  2  0  0  0  0
 10  1  1  0  0  0  0
 14 19  1  0  0  0  0
 15 14  2  0  0  0  0
 15 16  1  0  0  0  0
 16 17  2  0  0  0  0
 17 18  1  0  0  0  0
 18  2  1  0  0  0  0
 19 18  2  0  0  0  0
 20 14  1  0  0  0  0
 21 15  1  0  0  0  0
 22 16  1  0  0  0  0
 23  3  1  0  0  0  0
 24 23  1  0  0  0  0
 24 25  1  0  0  0  0
 25 29  1  0  0  0  0
 25 26  1  0  0  0  0
 27 25  1  0  0  0  0
 28 27  1  0  0  0  0
 29 30  1  0  0  0  0
M  END
>  <minimizedAffinity>
-4.65585375

$$$$

 OpenBabel03252509133D

 30 32  0  0  0  0  0  0  0  0999 V2000
   37.2460   33.0040   39.6730 C   0  0  0  0  0  0  0  0  0  0  0  0
   37.5920   31.6500   39.6630 C   0  0  0  0  0  0  0  0  0  0  0  0
   38.8580   31.2140   39.9320 C   0  0  0  0  0  0  0  0  0  0  0  0
   39.8710   32.1380   40.2330 C   0  0  0  0  0  0  0  0  0  0  0  0
   41.1960   32.0780   40.5400 N   0  0  0  0  0  0  0  0  0  0  0  0
   41.6500   33.3400   40.7310 C   0  0  0  0  0  0  0  0  0  0  0  0
   40.6050   34.1610   40.5400 N   0  0  0  0  0  0  0  0  0  0  0  0
   39.5060   33.4570   40.2350 C   0  0  0  0  0  0  0  0  0  0  0  0
   38.2320   33.9420   39.9680 C   0  0  0  0  0  0  0  0  0  0  0  0
   36.2360   33.3470   39.4570 H   0  0  0  0  0  0  0  0  0  0  0  0
   41.6270   31.1270   40.5780 H   0  0  0  0  0  0  0  0  0  0  0  0
   42.6990   33.5120   40.9890 H   0  0  0  0  0  0  0  0  0  0  0  0
   38.0250   35.0060   39.9890 H   0  0  0  0  0  0  0  0  0  0  0  0
   34.8420   29.2600   40.0690 C   0  0  0  0  0  0  0  0  0  0  0  0
   34.6260   28.8210   38.7630 C   0  0  0  0  0  0  0  0  0  0  0  0
   35.4240   29.3440   37.7490 C   0  0  0  0  0  0  0  0  0  0  0  0
   36.3840   30.2680   38.0790 N   0  0  0  0  0  0  0  0  0  0  0  0
   36.5600   30.6660   39.3520 C   0  0  0  0  0  0  0  0  0  0  0  0
   35.8020   30.1750   40.3550 N   0  0  0  0  0  0  0  0  0  0  0  0
   34.2370   28.8740   40.8950 H   0  0  0  0  0  0  0  0  0  0  0  0
   33.8500   28.0840   38.5550 H   0  0  0  0  0  0  0  0  0  0  0  0
   35.2920   29.0340   36.7370 H   0  0  0  0  0  0  0  0  0  0  0  0
   39.2960   29.4870   39.9240 S   0  0  0  0  0  0  0  0  0  0  0  0
   38.9320   28.6540   41.4780 C   0  0  0  0  0  2  0  0  0  0  0  0
   40.1690   28.6610   42.2720 N   0  0  0  0  0  4  0  0  0  0  0  0
   40.3290   29.5790   42.7430 H   0  0  0  0  0  0  0  0  0  0  0  0
   41.2680   28.5070   41.3140 C   0  0  0  0  0  2  0  0  0  0  0  0
   40.9520   29.0740   40.3970 H   0  0  0  0  0  0  0  0  0  0  0  0
   40.1770   27.6580   43.2920 C   0  0  0  0  0  2  0  0  0  0  0  0
   39.1500   27.4120   43.6510 H   0  0  0  0  0  0  0  0  0  0  0  0
  1  9  1  0  0  0  0
  2  1  2  0  0  0  0
  2  3  1  0  0  0  0
  3  4  2  0  0  0  0
  4  8  1  0  0  0  0
  4  5  1  0  0  0  0
  5 11  1  0  0  0  0
  5  6  1  0  0  0  0
  6 12  1  0  0  0  0
  7  6  2  0  0  0  0
  8  7  1  0  0  0  0
  9 13  1  0  0  0  0
  9  8  2  0  0  0  0
 10  1  1  0  0  0  0
 14 19  1  0  0  0  0
 14 20  1  0  0  0  0
 15 14  2  0  0  0  0
 16 17  2  0  0  0  0
 16 15  1  0  0  0  0
 17 18  1  0  0  0  0
 18  2  1  0  0  0  0
 18 19  2  0  0  0  0
 21 15  1  0  0  0  0
 22 16  1  0  0  0  0
 23  3  1  0  0  0  0
 23 24  1  0  0  0  0
 24 25  1  0  0  0  0
 25 26  1  0  0  0  0
 25 29  1  0  0  0  0
 27 25  1  0  0  0  0
 28 27  1  0  0  0  0
 29 30  1  0  0  0  0
M  END
>  <minimizedAffinity>
-4.5171833

$$$$

 OpenBabel03252509133D

 30 32  0  0  0  0  0  0  0  0999 V2000
   37.1920   28.6120   42.9200 C   0  0  0  0  0  0  0  0  0  0  0  0
   37.7480   28.8850   41.6670 C   0  0  0  0  0  0  0  0  0  0  0  0
   37.9840   27.9100   40.7400 C   0  0  0  0  0  0  0  0  0  0  0  0
   37.6670   26.5740   41.0290 C   0  0  0  0  0  0  0  0  0  0  0  0
   37.7580   25.3800   40.3810 N   0  0  0  0  0  0  0  0  0  0  0  0
   37.2800   24.4100   41.1970 C   0  0  0  0  0  0  0  0  0  0  0  0
   36.9010   25.0140   42.3350 N   0  0  0  0  0  0  0  0  0  0  0  0
   37.1260   26.3330   42.2630 C   0  0  0  0  0  0  0  0  0  0  0  0
   36.8690   27.2940   43.2330 C   0  0  0  0  0  0  0  0  0  0  0  0
   37.0070   29.3920   43.6550 H   0  0  0  0  0  0  0  0  0  0  0  0
   38.1570   25.3980   39.4160 H   0  0  0  0  0  0  0  0  0  0  0  0
   37.2650   23.3690   40.8610 H   0  0  0  0  0  0  0  0  0  0  0  0
   36.4370   27.0200   44.1880 H   0  0  0  0  0  0  0  0  0  0  0  0
   39.6350   32.0120   41.3600 C   0  0  0  0  0  0  0  0  0  0  0  0
   38.7270   32.8550   40.7200 C   0  0  0  0  0  0  0  0  0  0  0  0
   37.4710   32.3490   40.3960 C   0  0  0  0  0  0  0  0  0  0  0  0
   37.1840   31.0450   40.7210 N   0  0  0  0  0  0  0  0  0  0  0  0
   38.0900   30.2650   41.3380 C   0  0  0  0  0  0  0  0  0  0  0  0
   39.3150   30.7300   41.6640 N   0  0  0  0  0  0  0  0  0  0  0  0
   40.6330   32.3710   41.6320 H   0  0  0  0  0  0  0  0  0  0  0  0
   39.0050   33.8830   40.4860 H   0  0  0  0  0  0  0  0  0  0  0  0
   36.7460   32.9590   39.9070 H   0  0  0  0  0  0  0  0  0  0  0  0
   38.6880   28.2610   39.1410 S   0  0  0  0  0  0  0  0  0  0  0  0
   37.4630   28.3230   37.8230 C   0  0  0  0  0  2  0  0  0  0  0  0
   36.7390   29.5940   37.9640 N   0  0  0  0  0  4  0  0  0  0  0  0
   36.8220   29.9900   38.9270 H   0  0  0  0  0  0  0  0  0  0  0  0
   35.3190   29.2750   37.7850 C   0  0  0  0  0  2  0  0  0  0  0  0
   35.1750   28.2640   38.2530 H   0  0  0  0  0  0  0  0  0  0  0  0
   37.2010   30.5980   37.0550 C   0  0  0  0  0  2  0  0  0  0  0  0
   38.2750   30.4630   36.7880 H   0  0  0  0  0  0  0  0  0  0  0  0
  1  9  1  0  0  0  0
  1 10  1  0  0  0  0
  2  1  2  0  0  0  0
  3  4  2  0  0  0  0
  3  2  1  0  0  0  0
  4  8  1  0  0  0  0
  5  4  1  0  0  0  0
  5  6  1  0  0  0  0
  6  7  2  0  0  0  0
  8  7  1  0  0  0  0
  8  9  2  0  0  0  0
  9 13  1  0  0  0  0
 11  5  1  0  0  0  0
 12  6  1  0  0  0  0
 14 20  1  0  0  0  0
 14 19  1  0  0  0  0
 15 14  2  0  0  0  0
 16 15  1  0  0  0  0
 16 17  2  0  0  0  0
 17 18  1  0  0  0  0
 18 19  2  0  0  0  0
 18  2  1  0  0  0  0
 21 15  1  0  0  0  0
 22 16  1  0  0  0  0
 23  3  1  0  0  0  0
 24 25  1  0  0  0  0
 24 23  1  0  0  0  0
 25 26  1  0  0  0  0
 27 25  1  0  0  0  0
 27 28  1  0  0  0  0
 29 25  1  0  0  0  0
 30 29  1  0  0  0  0
M  END
>  <minimizedAffinity>
-4.51447487

$$$$

 OpenBabel03252509133D

 30 32  0  0  0  0  0  0  0  0999 V2000
   41.4120   29.4100   42.5420 C   0  0  0  0  0  0  0  0  0  0  0  0
   40.2700   29.5240   41.7440 C   0  0  0  0  0  0  0  0  0  0  0  0
   39.3520   28.5200   41.6290 C   0  0  0  0  0  0  0  0  0  0  0  0
   39.5340   27.3160   42.3260 C   0  0  0  0  0  0  0  0  0  0  0  0
   38.8600   26.1400   42.4510 N   0  0  0  0  0  0  0  0  0  0  0  0
   39.5530   25.3330   43.2890 C   0  0  0  0  0  0  0  0  0  0  0  0
   40.6440   26.0170   43.6710 N   0  0  0  0  0  0  0  0  0  0  0  0
   40.6600   27.2290   43.0990 C   0  0  0  0  0  0  0  0  0  0  0  0
   41.6180   28.2250   43.2450 C   0  0  0  0  0  0  0  0  0  0  0  0
   42.1410   30.2120   42.6300 H   0  0  0  0  0  0  0  0  0  0  0  0
   37.9680   26.0510   41.9130 H   0  0  0  0  0  0  0  0  0  0  0  0
   39.1770   24.3330   43.5230 H   0  0  0  0  0  0  0  0  0  0  0  0
   42.4840   28.0770   43.8790 H   0  0  0  0  0  0  0  0  0  0  0  0
   40.2980   32.0010   39.0420 C   0  0  0  0  0  0  0  0  0  0  0  0
   39.6470   33.0900   39.6210 C   0  0  0  0  0  0  0  0  0  0  0  0
   39.2020   32.9720   40.9340 C   0  0  0  0  0  0  0  0  0  0  0  0
   39.4230   31.7910   41.5990 N   0  0  0  0  0  0  0  0  0  0  0  0
   40.0540   30.7630   41.0040 C   0  0  0  0  0  0  0  0  0  0  0  0
   40.4970   30.8500   39.7310 N   0  0  0  0  0  0  0  0  0  0  0  0
   40.6630   32.0530   38.0110 H   0  0  0  0  0  0  0  0  0  0  0  0
   39.4980   34.0060   39.0480 H   0  0  0  0  0  0  0  0  0  0  0  0
   38.7000   33.7810   41.4150 H   0  0  0  0  0  0  0  0  0  0  0  0
   37.8940   28.6700   40.6130 S   0  0  0  0  0  0  0  0  0  0  0  0
   36.3630   28.6370   41.5590 C   0  0  0  0  0  2  0  0  0  0  0  0
   35.5010   29.7000   41.0220 N   0  0  0  0  0  4  0  0  0  0  0  0
   34.7590   29.9850   41.6990 H   0  0  0  0  0  0  0  0  0  0  0  0
   34.7930   29.1110   39.8810 C   0  0  0  0  0  2  0  0  0  0  0  0
   34.5920   28.0430   40.1680 H   0  0  0  0  0  0  0  0  0  0  0  0
   36.2300   30.8800   40.6740 C   0  0  0  0  0  2  0  0  0  0  0  0
   37.1460   31.0090   41.2950 H   0  0  0  0  0  0  0  0  0  0  0  0
  1 10  1  0  0  0  0
  1  9  1  0  0  0  0
  2  1  2  0  0  0  0
  3  2  1  0  0  0  0
  3  4  2  0  0  0  0
  4  5  1  0  0  0  0
  4  8  1  0  0  0  0
  5  6  1  0  0  0  0
  6 12  1  0  0  0  0
  6  7  2  0  0  0  0
  8  9  2  0  0  0  0
  8  7  1  0  0  0  0
  9 13  1  0  0  0  0
 11  5  1  0  0  0  0
 14 15  2  0  0  0  0
 14 19  1  0  0  0  0
 15 16  1  0  0  0  0
 16 22  1  0  0  0  0
 16 17  2  0  0  0  0
 18 17  1  0  0  0  0
 18  2  1  0  0  0  0
 19 18  2  0  0  0  0
 20 14  1  0  0  0  0
 21 15  1  0  0  0  0
 23 24  1  0  0  0  0
 23  3  1  0  0  0  0
 25 24  1  0  0  0  0
 25 26  1  0  0  0  0
 27 28  1  0  0  0  0
 27 25  1  0  0  0  0
 29 25  1  0  0  0  0
 29 30  1  0  0  0  0
M  END
>  <minimizedAffinity>
-4.49358225

$$$$
