
 OpenBabel03252505273D

 22 22  0  0  0  0  0  0  0  0999 V2000
   46.8970   32.3820   48.4750 O   0  0  0  0  0  0  0  0  0  0  0  0
   45.8360   32.4840   47.3910 P   0  0  1  0  0  0  0  0  0  0  0  0
   44.5590   33.4700   47.8520 O   0  0  0  0  0  0  0  0  0  0  0  0
   43.6910   33.0830   47.5260 H   0  0  0  0  0  0  0  0  0  0  0  0
   46.5750   33.0530   45.9940 O   0  0  0  0  0  0  0  0  0  0  0  0
   44.5060   35.6720   44.7590 C   0  0  0  0  0  0  0  0  0  0  0  0
   44.9420   35.8570   43.4390 C   0  0  0  0  0  0  0  0  0  0  0  0
   45.9930   35.0330   42.9810 C   0  0  0  0  0  0  0  0  0  0  0  0
   46.5070   34.1230   43.8450 N   0  0  0  0  0  0  0  0  0  0  0  0
   46.0630   33.9740   45.1050 C   0  0  0  0  0  0  0  0  0  0  0  0
   45.0710   34.7400   45.5620 N   0  0  0  0  0  0  0  0  0  0  0  0
   43.6910   36.3060   45.1240 H   0  0  0  0  0  0  0  0  0  0  0  0
   44.5030   36.6000   42.7770 H   0  0  0  0  0  0  0  0  0  0  0  0
   46.3600   35.1460   41.9630 H   0  0  0  0  0  0  0  0  0  0  0  0
   45.2180   30.9170   47.2040 O   0  0  0  0  0  0  0  0  0  0  0  0
   45.5410   30.2360   48.3830 C   0  0  0  0  0  0  0  0  0  0  0  0
   45.9320   28.8720   48.1320 N   0  0  0  0  0  0  0  0  0  0  0  0
   46.1180   28.4420   49.0780 H   0  0  0  0  0  0  0  0  0  0  0  0
   47.1930   28.8790   47.4330 C   0  0  0  0  0  0  0  0  0  0  0  0
   47.1680   29.4260   46.4810 H   0  0  0  0  0  0  0  0  0  0  0  0
   44.9090   28.1270   47.4640 C   0  0  0  0  0  0  0  0  0  0  0  0
   44.1300   28.8430   47.1410 H   0  0  0  0  0  0  0  0  0  0  0  0
  2  3  1  0  0  0  0
  2  1  2  1  0  0  0
  4  3  1  0  0  0  0
  5  2  1  0  0  0  0
  6 12  1  0  0  0  0
  6 11  1  0  0  0  0
  7  6  2  0  0  0  0
  8  7  1  0  0  0  0
  8  9  2  0  0  0  0
  9 10  1  0  0  0  0
 10 11  2  0  0  0  0
 10  5  1  0  0  0  0
 13  7  1  0  0  0  0
 14  8  1  0  0  0  0
 15  2  1  0  0  0  0
 15 16  1  0  0  0  0
 17 16  1  0  0  0  0
 17 18  1  0  0  0  0
 19 17  1  0  0  0  0
 20 19  1  0  0  0  0
 21 17  1  0  0  0  0
 22 21  1  0  0  0  0
M  END
>  <minimizedAffinity>
-4.4538126

>  <minimizedRMSD>
0.606974304

$$$$
