
 OpenBabel03252504313D

 31 31  0  0  0  0  0  0  0  0999 V2000
   38.2190   31.3000   40.2360 C   0  0  0  0  0  0  0  0  0  0  0  0
   38.6980   30.8710   39.3270 H   0  0  0  0  0  0  0  0  0  0  0  0
   37.2310   31.7350   40.0220 H   0  0  0  0  0  0  0  0  0  0  0  0
   36.8840   29.7300   41.7270 C   0  0  0  0  0  3  0  0  0  0  0  0
   38.0380   30.1030   41.1520 C   0  0  0  0  0  3  0  0  0  0  0  0
   36.9270   28.6010   42.5270 O   0  0  0  0  0  0  0  0  0  0  0  0
   37.7640   28.3350   43.5780 C   0  0  0  0  0  0  0  0  0  0  0  0
   38.5620   29.1390   43.5970 H   0  0  0  0  0  0  0  0  0  0  0  0
   37.2600   28.3440   44.5430 H   0  0  0  0  0  0  0  0  0  0  0  0
   37.9170   26.1570   42.5460 C   0  0  0  0  0  0  0  0  0  0  0  0
   38.5350   27.0740   43.4240 C   0  0  0  0  0  0  0  0  0  0  0  0
   39.7110   26.6960   43.9910 C   0  0  0  0  0  0  0  0  0  0  0  0
   40.1920   25.4940   43.6790 N   0  0  0  0  0  0  0  0  0  0  0  0
   39.6100   24.6300   42.8520 C   0  0  0  0  0  0  0  0  0  0  0  0
   38.3990   24.9450   42.2300 N   0  0  0  0  0  0  0  0  0  0  0  0
   36.9710   26.3420   42.0260 H   0  0  0  0  0  0  0  0  0  0  0  0
   40.1320   27.4400   44.6510 H   0  0  0  0  0  0  0  0  0  0  0  0
   40.0820   23.6790   42.6660 H   0  0  0  0  0  0  0  0  0  0  0  0
   39.1010   32.1530   40.8450 O   0  0  0  0  0  0  0  0  0  0  0  0
   37.5290   33.9550   39.6810 O   0  0  0  0  0  0  0  0  0  0  0  0
   38.8230   33.7840   40.3900 P   0  0  1  0  0  0  0  0  0  0  0  0
   38.8240   34.7350   41.8050 O   0  0  0  0  0  0  0  0  0  0  0  0
   39.5740   34.4210   42.3580 H   0  0  0  0  0  0  0  0  0  0  0  0
   40.1500   34.2870   39.4770 O   0  0  0  0  0  0  0  0  0  0  0  0
   41.3560   33.7430   39.8200 C   0  0  0  0  0  2  0  0  0  0  0  0
   41.8160   33.9080   41.1590 N   0  0  0  0  0  4  0  0  0  0  0  0
   40.9130   33.9900   41.7580 H   0  0  0  0  0  0  0  0  0  0  0  0
   42.5130   35.1400   41.4330 C   0  0  0  0  0  2  0  0  0  0  0  0
   42.2640   35.4780   42.4900 H   0  0  0  0  0  0  0  0  0  0  0  0
   42.5280   32.7800   41.7060 C   0  0  0  0  0  2  0  0  0  0  0  0
   42.6390   31.9540   40.9810 H   0  0  0  0  0  0  0  0  0  0  0  0
  1 19  1  0  0  0  0
  1  5  1  0  0  0  0
  2  1  1  0  0  0  0
  3  1  1  0  0  0  0
  4  6  1  0  0  0  0
  5  4  2  0  0  0  0
  6  7  1  0  0  0  0
  7  8  1  0  0  0  0
  7  9  1  0  0  0  0
 10 11  1  0  0  0  0
 11  7  1  0  0  0  0
 11 12  2  0  0  0  0
 12 17  1  0  0  0  0
 13 12  1  0  0  0  0
 14 13  2  0  0  0  0
 15 10  2  0  0  0  0
 15 14  1  0  0  0  0
 16 10  1  0  0  0  0
 18 14  1  0  0  0  0
 21 20  2  6  0  0  0
 21 19  1  0  0  0  0
 21 22  1  0  0  0  0
 22 23  1  0  0  0  0
 24 25  1  0  0  0  0
 24 21  1  0  0  0  0
 25 26  1  0  0  0  0
 26 28  1  0  0  0  0
 26 30  1  0  0  0  0
 26 27  1  0  0  0  0
 28 29  1  0  0  0  0
 31 30  1  0  0  0  0
M  END
>  <minimizedAffinity>
-4.59963369

$$$$

 OpenBabel03252504313D

 31 31  0  0  0  0  0  0  0  0999 V2000
   36.7880   30.5020   40.1290 C   0  0  0  0  0  0  0  0  0  0  0  0
   37.7080   30.4170   39.5100 H   0  0  0  0  0  0  0  0  0  0  0  0
   35.9330   29.9730   39.6820 H   0  0  0  0  0  0  0  0  0  0  0  0
   38.3010   30.0060   42.1130 C   0  0  0  0  0  3  0  0  0  0  0  0
   37.1590   29.8170   41.4320 C   0  0  0  0  0  3  0  0  0  0  0  0
   38.4480   29.2870   43.2870 O   0  0  0  0  0  0  0  0  0  0  0  0
   37.7980   28.1440   43.6720 C   0  0  0  0  0  0  0  0  0  0  0  0
   37.6700   28.1820   44.7970 H   0  0  0  0  0  0  0  0  0  0  0  0
   36.8100   28.0410   43.2280 H   0  0  0  0  0  0  0  0  0  0  0  0
   37.9780   26.0310   42.5180 C   0  0  0  0  0  0  0  0  0  0  0  0
   38.5850   26.9040   43.4470 C   0  0  0  0  0  0  0  0  0  0  0  0
   39.7650   26.5090   43.9920 C   0  0  0  0  0  0  0  0  0  0  0  0
   40.2610   25.3330   43.6120 N   0  0  0  0  0  0  0  0  0  0  0  0
   39.6890   24.5100   42.7380 C   0  0  0  0  0  0  0  0  0  0  0  0
   38.4750   24.8440   42.1340 N   0  0  0  0  0  0  0  0  0  0  0  0
   37.0290   26.2330   42.0090 H   0  0  0  0  0  0  0  0  0  0  0  0
   40.1770   27.2200   44.6930 H   0  0  0  0  0  0  0  0  0  0  0  0
   40.1730   23.5770   42.4980 H   0  0  0  0  0  0  0  0  0  0  0  0
   36.5600   31.8230   40.4110 O   0  0  0  0  0  0  0  0  0  0  0  0
   38.2200   32.2280   38.3740 O   0  0  0  0  0  0  0  0  0  0  0  0
   37.6830   32.8450   39.6130 P   0  0  1  0  0  0  0  0  0  0  0  0
   36.8890   34.3020   39.2220 O   0  0  0  0  0  0  0  0  0  0  0  0
   36.3520   34.5530   40.0070 H   0  0  0  0  0  0  0  0  0  0  0  0
   38.8860   33.2440   40.7290 O   0  0  0  0  0  0  0  0  0  0  0  0
   40.1680   33.2380   40.2570 C   0  0  0  0  0  2  0  0  0  0  0  0
   40.4960   34.1110   39.1800 N   0  0  0  0  0  4  0  0  0  0  0  0
   39.5930   34.1680   38.5790 H   0  0  0  0  0  0  0  0  0  0  0  0
   41.4840   33.6160   38.2530 C   0  0  0  0  0  2  0  0  0  0  0  0
   41.2230   33.9760   37.2070 H   0  0  0  0  0  0  0  0  0  0  0  0
   40.7810   35.4730   39.5580 C   0  0  0  0  0  2  0  0  0  0  0  0
   40.7310   35.6300   40.6500 H   0  0  0  0  0  0  0  0  0  0  0  0
  1 19  1  0  0  0  0
  1  5  1  0  0  0  0
  2  1  1  0  0  0  0
  3  1  1  0  0  0  0
  4  6  1  0  0  0  0
  5  4  2  0  0  0  0
  6  7  1  0  0  0  0
  7  8  1  0  0  0  0
  9  7  1  0  0  0  0
 10 11  1  0  0  0  0
 11  7  1  0  0  0  0
 11 12  2  0  0  0  0
 12 17  1  0  0  0  0
 13 12  1  0  0  0  0
 14 13  2  0  0  0  0
 15 10  2  0  0  0  0
 15 14  1  0  0  0  0
 16 10  1  0  0  0  0
 18 14  1  0  0  0  0
 21 20  2  6  0  0  0
 21 19  1  0  0  0  0
 21 24  1  0  0  0  0
 22 21  1  0  0  0  0
 22 23  1  0  0  0  0
 25 24  1  0  0  0  0
 26 30  1  0  0  0  0
 26 25  1  0  0  0  0
 27 26  1  0  0  0  0
 28 26  1  0  0  0  0
 29 28  1  0  0  0  0
 30 31  1  0  0  0  0
M  END
>  <minimizedAffinity>
-4.57056856

$$$$

 OpenBabel03252504313D

 31 31  0  0  0  0  0  0  0  0999 V2000
   37.4410   29.3440   42.6110 C   0  0  0  0  0  0  0  0  0  0  0  0
   36.3860   29.4360   42.9530 H   0  0  0  0  0  0  0  0  0  0  0  0
   38.0700   30.1720   42.9680 H   0  0  0  0  0  0  0  0  0  0  0  0
   39.1830   27.5950   43.2250 C   0  0  0  0  0  3  0  0  0  0  0  0
   37.9210   28.0540   43.2500 C   0  0  0  0  0  3  0  0  0  0  0  0
   39.4190   26.3960   43.8760 O   0  0  0  0  0  0  0  0  0  0  0  0
   39.9280   25.2340   43.3590 C   0  0  0  0  0  0  0  0  0  0  0  0
   40.9270   25.4760   42.8810 H   0  0  0  0  0  0  0  0  0  0  0  0
   40.0970   24.4660   44.1120 H   0  0  0  0  0  0  0  0  0  0  0  0
   39.8280   24.6650   41.0150 C   0  0  0  0  0  0  0  0  0  0  0  0
   39.1270   24.6750   42.2400 C   0  0  0  0  0  0  0  0  0  0  0  0
   37.8570   24.1900   42.2330 C   0  0  0  0  0  0  0  0  0  0  0  0
   37.3700   23.7430   41.0780 N   0  0  0  0  0  0  0  0  0  0  0  0
   38.0300   23.7340   39.9230 C   0  0  0  0  0  0  0  0  0  0  0  0
   39.3390   24.2160   39.8480 N   0  0  0  0  0  0  0  0  0  0  0  0
   40.8540   25.0270   40.8870 H   0  0  0  0  0  0  0  0  0  0  0  0
   37.3760   24.2240   43.2000 H   0  0  0  0  0  0  0  0  0  0  0  0
   37.5440   23.3500   39.0410 H   0  0  0  0  0  0  0  0  0  0  0  0
   37.4550   29.1590   41.2540 O   0  0  0  0  0  0  0  0  0  0  0  0
   34.9430   28.8540   40.4350 O   0  0  0  0  0  0  0  0  0  0  0  0
   36.0620   29.8280   40.5080 P   0  0  1  0  0  0  0  0  0  0  0  0
   35.5740   31.1850   41.4170 O   0  0  0  0  0  0  0  0  0  0  0  0
   36.3910   31.6840   41.6430 H   0  0  0  0  0  0  0  0  0  0  0  0
   36.5300   30.4120   38.9950 O   0  0  0  0  0  0  0  0  0  0  0  0
   37.1660   31.6210   38.9890 C   0  0  0  0  0  2  0  0  0  0  0  0
   38.2520   31.8190   39.8900 N   0  0  0  0  0  4  0  0  0  0  0  0
   38.0310   31.1810   40.7420 H   0  0  0  0  0  0  0  0  0  0  0  0
   38.3480   33.1340   40.4730 C   0  0  0  0  0  2  0  0  0  0  0  0
   38.7280   33.0390   41.5410 H   0  0  0  0  0  0  0  0  0  0  0  0
   39.5370   31.3720   39.4120 C   0  0  0  0  0  2  0  0  0  0  0  0
   39.4900   30.9640   38.3870 H   0  0  0  0  0  0  0  0  0  0  0  0
  1  2  1  0  0  0  0
  1  3  1  0  0  0  0
  1  5  1  0  0  0  0
  4  5  2  0  0  0  0
  4  6  1  0  0  0  0
  7  6  1  0  0  0  0
  7  9  1  0  0  0  0
  8  7  1  0  0  0  0
 10 11  1  0  0  0  0
 11  7  1  0  0  0  0
 12 11  2  0  0  0  0
 12 17  1  0  0  0  0
 13 12  1  0  0  0  0
 14 13  2  0  0  0  0
 15 14  1  0  0  0  0
 15 10  2  0  0  0  0
 16 10  1  0  0  0  0
 18 14  1  0  0  0  0
 19  1  1  0  0  0  0
 21 20  2  6  0  0  0
 21 19  1  0  0  0  0
 21 22  1  0  0  0  0
 22 23  1  0  0  0  0
 24 21  1  0  0  0  0
 25 24  1  0  0  0  0
 25 26  1  0  0  0  0
 26 28  1  0  0  0  0
 26 27  1  0  0  0  0
 28 29  1  0  0  0  0
 30 26  1  0  0  0  0
 31 30  1  0  0  0  0
M  END
>  <minimizedAffinity>
-4.34124231

$$$$

 OpenBabel03252504313D

 31 31  0  0  0  0  0  0  0  0999 V2000
   36.9400   31.7630   39.8380 C   0  0  0  0  0  0  0  0  0  0  0  0
   36.2130   32.5750   40.0630 H   0  0  0  0  0  0  0  0  0  0  0  0
   37.9830   32.0930   39.9520 H   0  0  0  0  0  0  0  0  0  0  0  0
   37.5580   29.9310   41.4910 C   0  0  0  0  0  3  0  0  0  0  0  0
   36.6430   30.7070   40.8870 C   0  0  0  0  0  3  0  0  0  0  0  0
   37.0830   29.0300   42.4280 O   0  0  0  0  0  0  0  0  0  0  0  0
   37.7040   28.5730   43.5610 C   0  0  0  0  0  0  0  0  0  0  0  0
   38.5590   29.2790   43.7950 H   0  0  0  0  0  0  0  0  0  0  0  0
   37.0490   28.5460   44.4290 H   0  0  0  0  0  0  0  0  0  0  0  0
   37.6400   26.3780   42.5580 C   0  0  0  0  0  0  0  0  0  0  0  0
   38.3690   27.2560   43.3890 C   0  0  0  0  0  0  0  0  0  0  0  0
   39.5390   26.7950   43.9040 C   0  0  0  0  0  0  0  0  0  0  0  0
   39.9110   25.5570   43.5880 N   0  0  0  0  0  0  0  0  0  0  0  0
   39.2250   24.7290   42.8050 C   0  0  0  0  0  0  0  0  0  0  0  0
   38.0120   25.1280   42.2380 N   0  0  0  0  0  0  0  0  0  0  0  0
   36.6850   26.6280   42.0820 H   0  0  0  0  0  0  0  0  0  0  0  0
   40.0480   27.5140   44.5310 H   0  0  0  0  0  0  0  0  0  0  0  0
   39.6140   23.7430   42.6110 H   0  0  0  0  0  0  0  0  0  0  0  0
   36.6410   31.2220   38.6160 O   0  0  0  0  0  0  0  0  0  0  0  0
   38.0490   29.6390   37.0080 O   0  0  0  0  0  0  0  0  0  0  0  0
   38.0510   30.9670   37.6720 P   0  0  1  0  0  0  0  0  0  0  0  0
   38.1240   32.1920   36.4880 O   0  0  0  0  0  0  0  0  0  0  0  0
   37.8860   33.0350   36.9350 H   0  0  0  0  0  0  0  0  0  0  0  0
   39.3840   31.2010   38.6810 O   0  0  0  0  0  0  0  0  0  0  0  0
   40.4440   30.3620   38.4800 C   0  0  0  0  0  2  0  0  0  0  0  0
   41.0660   30.3550   37.1980 N   0  0  0  0  0  4  0  0  0  0  0  0
   40.2520   30.4740   36.4890 H   0  0  0  0  0  0  0  0  0  0  0  0
   41.6730   29.1070   36.8060 C   0  0  0  0  0  2  0  0  0  0  0  0
   41.5420   28.9680   35.6850 H   0  0  0  0  0  0  0  0  0  0  0  0
   41.9530   31.4630   36.9400 C   0  0  0  0  0  2  0  0  0  0  0  0
   42.0410   32.1470   37.8020 H   0  0  0  0  0  0  0  0  0  0  0  0
  1  3  1  0  0  0  0
  1  2  1  0  0  0  0
  1  5  1  0  0  0  0
  4  6  1  0  0  0  0
  5  4  2  0  0  0  0
  6  7  1  0  0  0  0
  7  8  1  0  0  0  0
  7  9  1  0  0  0  0
 10 11  1  0  0  0  0
 11  7  1  0  0  0  0
 11 12  2  0  0  0  0
 12 17  1  0  0  0  0
 13 12  1  0  0  0  0
 14 13  2  0  0  0  0
 15 10  2  0  0  0  0
 15 14  1  0  0  0  0
 16 10  1  0  0  0  0
 18 14  1  0  0  0  0
 19  1  1  0  0  0  0
 21 20  2  6  0  0  0
 21 19  1  0  0  0  0
 21 24  1  0  0  0  0
 22 23  1  0  0  0  0
 22 21  1  0  0  0  0
 25 24  1  0  0  0  0
 26 25  1  0  0  0  0
 27 26  1  0  0  0  0
 28 26  1  0  0  0  0
 29 28  1  0  0  0  0
 30 26  1  0  0  0  0
 30 31  1  0  0  0  0
M  END
>  <minimizedAffinity>
-4.26620865

$$$$

 OpenBabel03252504313D

 31 31  0  0  0  0  0  0  0  0999 V2000
   35.8380   30.1350   40.3060 C   0  0  0  0  0  0  0  0  0  0  0  0
   34.9650   29.5810   39.8950 H   0  0  0  0  0  0  0  0  0  0  0  0
   35.5540   31.1100   40.7270 H   0  0  0  0  0  0  0  0  0  0  0  0
   36.6470   27.9430   41.3120 C   0  0  0  0  0  3  0  0  0  0  0  0
   36.3400   29.2450   41.4280 C   0  0  0  0  0  3  0  0  0  0  0  0
   37.0950   27.3080   42.4570 O   0  0  0  0  0  0  0  0  0  0  0  0
   38.0950   26.3790   42.5790 C   0  0  0  0  0  0  0  0  0  0  0  0
   37.8430   25.7120   43.4590 H   0  0  0  0  0  0  0  0  0  0  0  0
   38.2030   25.7450   41.7010 H   0  0  0  0  0  0  0  0  0  0  0  0
   40.1490   26.1440   43.8260 C   0  0  0  0  0  0  0  0  0  0  0  0
   39.4120   26.9630   42.9430 C   0  0  0  0  0  0  0  0  0  0  0  0
   39.9830   28.1350   42.5600 C   0  0  0  0  0  0  0  0  0  0  0  0
   41.1910   28.4230   43.0400 N   0  0  0  0  0  0  0  0  0  0  0  0
   41.8860   27.6520   43.8720 C   0  0  0  0  0  0  0  0  0  0  0  0
   41.3670   26.4320   44.3130 N   0  0  0  0  0  0  0  0  0  0  0  0
   39.8020   25.1780   44.2080 H   0  0  0  0  0  0  0  0  0  0  0  0
   39.3700   28.7140   41.8850 H   0  0  0  0  0  0  0  0  0  0  0  0
   42.8580   27.9770   44.2040 H   0  0  0  0  0  0  0  0  0  0  0  0
   36.8210   30.1880   39.3540 O   0  0  0  0  0  0  0  0  0  0  0  0
   37.4980   32.3080   37.8980 O   0  0  0  0  0  0  0  0  0  0  0  0
   37.5430   31.7420   39.2710 P   0  0  1  0  0  0  0  0  0  0  0  0
   36.7030   32.7730   40.3370 O   0  0  0  0  0  0  0  0  0  0  0  0
   36.5480   32.2640   41.1630 H   0  0  0  0  0  0  0  0  0  0  0  0
   39.1110   31.6040   39.8800 O   0  0  0  0  0  0  0  0  0  0  0  0
   39.6340   32.7300   40.4520 C   0  0  0  0  0  2  0  0  0  0  0  0
   39.7350   33.9080   39.6570 N   0  0  0  0  0  4  0  0  0  0  0  0
   39.0510   33.7490   38.8290 H   0  0  0  0  0  0  0  0  0  0  0  0
   41.0050   34.1170   39.0070 C   0  0  0  0  0  2  0  0  0  0  0  0
   40.8270   34.5990   37.9930 H   0  0  0  0  0  0  0  0  0  0  0  0
   39.2760   35.1190   40.2930 C   0  0  0  0  0  2  0  0  0  0  0  0
   38.9390   34.9520   41.3310 H   0  0  0  0  0  0  0  0  0  0  0  0
  1  3  1  0  0  0  0
  1  5  1  0  0  0  0
  2  1  1  0  0  0  0
  4  5  2  0  0  0  0
  4  6  1  0  0  0  0
  6  7  1  0  0  0  0
  7 11  1  0  0  0  0
  7  8  1  0  0  0  0
  9  7  1  0  0  0  0
 10 16  1  0  0  0  0
 10 15  1  0  0  0  0
 11 10  2  0  0  0  0
 12 11  1  0  0  0  0
 12 13  2  0  0  0  0
 13 14  1  0  0  0  0
 14 18  1  0  0  0  0
 14 15  2  0  0  0  0
 17 12  1  0  0  0  0
 19  1  1  0  0  0  0
 21 20  2  6  0  0  0
 21 19  1  0  0  0  0
 21 24  1  0  0  0  0
 21 22  1  0  0  0  0
 22 23  1  0  0  0  0
 24 25  1  0  0  0  0
 26 30  1  0  0  0  0
 26 25  1  0  0  0  0
 27 26  1  0  0  0  0
 28 26  1  0  0  0  0
 29 28  1  0  0  0  0
 30 31  1  0  0  0  0
M  END
>  <minimizedAffinity>
-4.24607086

$$$$

 OpenBabel03252504313D

 31 31  0  0  0  0  0  0  0  0999 V2000
   37.8040   29.7130   38.3480 C   0  0  0  0  0  0  0  0  0  0  0  0
   38.5880   29.1560   37.7880 H   0  0  0  0  0  0  0  0  0  0  0  0
   36.8290   29.6890   37.8390 H   0  0  0  0  0  0  0  0  0  0  0  0
   36.5430   28.7090   40.3160 C   0  0  0  0  0  3  0  0  0  0  0  0
   37.6880   28.9600   39.6610 C   0  0  0  0  0  3  0  0  0  0  0  0
   36.6500   27.9990   41.4990 O   0  0  0  0  0  0  0  0  0  0  0  0
   37.5190   28.2030   42.5390 C   0  0  0  0  0  0  0  0  0  0  0  0
   38.2680   28.9880   42.2140 H   0  0  0  0  0  0  0  0  0  0  0  0
   37.0310   28.5620   43.4430 H   0  0  0  0  0  0  0  0  0  0  0  0
   37.9140   25.8430   42.2170 C   0  0  0  0  0  0  0  0  0  0  0  0
   38.3600   27.0200   42.8560 C   0  0  0  0  0  0  0  0  0  0  0  0
   39.4590   26.9180   43.6490 C   0  0  0  0  0  0  0  0  0  0  0  0
   40.0330   25.7220   43.7640 N   0  0  0  0  0  0  0  0  0  0  0  0
   39.6130   24.6130   43.1620 C   0  0  0  0  0  0  0  0  0  0  0  0
   38.4900   24.6350   42.3320 N   0  0  0  0  0  0  0  0  0  0  0  0
   37.0430   25.7910   41.5540 H   0  0  0  0  0  0  0  0  0  0  0  0
   39.7490   27.8520   44.1080 H   0  0  0  0  0  0  0  0  0  0  0  0
   40.1490   23.6920   43.3210 H   0  0  0  0  0  0  0  0  0  0  0  0
   38.2690   30.9690   38.6360 O   0  0  0  0  0  0  0  0  0  0  0  0
   40.4490   29.9570   37.4980 O   0  0  0  0  0  0  0  0  0  0  0  0
   39.8610   31.2080   38.0440 P   0  0  1  0  0  0  0  0  0  0  0  0
   39.7990   32.3880   36.8150 O   0  0  0  0  0  0  0  0  0  0  0  0
   39.2000   33.1000   37.1350 H   0  0  0  0  0  0  0  0  0  0  0  0
   40.7720   31.8750   39.2990 O   0  0  0  0  0  0  0  0  0  0  0  0
   40.1000   32.6990   40.1570 C   0  0  0  0  0  2  0  0  0  0  0  0
   39.5160   33.8890   39.6330 N   0  0  0  0  0  4  0  0  0  0  0  0
   39.4850   33.7380   38.5580 H   0  0  0  0  0  0  0  0  0  0  0  0
   40.3030   35.0880   39.7800 C   0  0  0  0  0  2  0  0  0  0  0  0
   40.1440   35.7490   38.8690 H   0  0  0  0  0  0  0  0  0  0  0  0
   38.1460   34.1210   40.0180 C   0  0  0  0  0  2  0  0  0  0  0  0
   37.7580   33.3430   40.6990 H   0  0  0  0  0  0  0  0  0  0  0  0
  1 19  1  0  0  0  0
  1  5  1  0  0  0  0
  2  1  1  0  0  0  0
  3  1  1  0  0  0  0
  4  6  1  0  0  0  0
  5  4  2  0  0  0  0
  6  7  1  0  0  0  0
  7 11  1  0  0  0  0
  7  9  1  0  0  0  0
  8  7  1  0  0  0  0
 10 15  2  0  0  0  0
 10 11  1  0  0  0  0
 11 12  2  0  0  0  0
 12 13  1  0  0  0  0
 12 17  1  0  0  0  0
 14 18  1  0  0  0  0
 14 13  2  0  0  0  0
 15 14  1  0  0  0  0
 16 10  1  0  0  0  0
 21 20  2  6  0  0  0
 21 19  1  0  0  0  0
 21 24  1  0  0  0  0
 22 23  1  0  0  0  0
 22 21  1  0  0  0  0
 24 25  1  0  0  0  0
 26 28  1  0  0  0  0
 26 30  1  0  0  0  0
 26 25  1  0  0  0  0
 27 26  1  0  0  0  0
 29 28  1  0  0  0  0
 30 31  1  0  0  0  0
M  END
>  <minimizedAffinity>
-4.23835468

$$$$

 OpenBabel03252504313D

 31 31  0  0  0  0  0  0  0  0999 V2000
   38.5730   30.6530   39.6030 C   0  0  0  0  0  0  0  0  0  0  0  0
   39.6850   30.6760   39.5710 H   0  0  0  0  0  0  0  0  0  0  0  0
   38.1340   30.3360   38.6460 H   0  0  0  0  0  0  0  0  0  0  0  0
   37.2360   29.6580   41.5250 C   0  0  0  0  0  3  0  0  0  0  0  0
   38.2590   29.6070   40.6560 C   0  0  0  0  0  3  0  0  0  0  0  0
   37.1180   28.5970   42.4060 O   0  0  0  0  0  0  0  0  0  0  0  0
   37.9140   28.2890   43.4780 C   0  0  0  0  0  0  0  0  0  0  0  0
   38.7520   29.0510   43.5170 H   0  0  0  0  0  0  0  0  0  0  0  0
   37.3870   28.3250   44.4290 H   0  0  0  0  0  0  0  0  0  0  0  0
   37.9600   26.0910   42.4800 C   0  0  0  0  0  0  0  0  0  0  0  0
   38.6230   26.9910   43.3430 C   0  0  0  0  0  0  0  0  0  0  0  0
   39.7790   26.5640   43.9150 C   0  0  0  0  0  0  0  0  0  0  0  0
   40.2010   25.3360   43.6210 N   0  0  0  0  0  0  0  0  0  0  0  0
   39.5760   24.4880   42.8080 C   0  0  0  0  0  0  0  0  0  0  0  0
   38.3820   24.8520   42.1820 N   0  0  0  0  0  0  0  0  0  0  0  0
   37.0220   26.3130   41.9570 H   0  0  0  0  0  0  0  0  0  0  0  0
   40.2370   27.2970   44.5630 H   0  0  0  0  0  0  0  0  0  0  0  0
   40.0020   23.5130   42.6360 H   0  0  0  0  0  0  0  0  0  0  0  0
   38.1160   31.8570   40.0710 O   0  0  0  0  0  0  0  0  0  0  0  0
   38.9780   34.2490   40.8510 O   0  0  0  0  0  0  0  0  0  0  0  0
   39.3960   32.8360   40.6610 P   0  0  1  0  0  0  0  0  0  0  0  0
   39.9110   32.1910   42.1520 O   0  0  0  0  0  0  0  0  0  0  0  0
   39.9490   31.2150   42.0430 H   0  0  0  0  0  0  0  0  0  0  0  0
   40.6940   32.6670   39.5950 O   0  0  0  0  0  0  0  0  0  0  0  0
   40.9390   33.7320   38.7750 C   0  0  0  0  0  2  0  0  0  0  0  0
   41.6090   33.4940   37.5400 N   0  0  0  0  0  4  0  0  0  0  0  0
   40.9700   33.9390   36.7820 H   0  0  0  0  0  0  0  0  0  0  0  0
   41.6980   32.1130   37.1330 C   0  0  0  0  0  2  0  0  0  0  0  0
   41.6140   32.0540   36.0010 H   0  0  0  0  0  0  0  0  0  0  0  0
   42.8810   34.1580   37.3930 C   0  0  0  0  0  2  0  0  0  0  0  0
   43.1640   34.7360   38.2900 H   0  0  0  0  0  0  0  0  0  0  0  0
  1 19  1  0  0  0  0
  1  5  1  0  0  0  0
  2  1  1  0  0  0  0
  3  1  1  0  0  0  0
  4  6  1  0  0  0  0
  5  4  2  0  0  0  0
  6  7  1  0  0  0  0
  7  8  1  0  0  0  0
  7  9  1  0  0  0  0
 10 11  1  0  0  0  0
 11  7  1  0  0  0  0
 11 12  2  0  0  0  0
 12 17  1  0  0  0  0
 13 12  1  0  0  0  0
 14 13  2  0  0  0  0
 15 10  2  0  0  0  0
 15 14  1  0  0  0  0
 16 10  1  0  0  0  0
 18 14  1  0  0  0  0
 19 21  1  0  0  0  0
 21 20  2  1  0  0  0
 21 22  1  0  0  0  0
 23 22  1  0  0  0  0
 24 21  1  0  0  0  0
 25 24  1  0  0  0  0
 26 25  1  0  0  0  0
 27 26  1  0  0  0  0
 28 26  1  0  0  0  0
 29 28  1  0  0  0  0
 30 26  1  0  0  0  0
 30 31  1  0  0  0  0
M  END
>  <minimizedAffinity>
-4.21203041

$$$$

 OpenBabel03252504313D

 31 31  0  0  0  0  0  0  0  0999 V2000
   36.0170   28.4660   40.5560 C   0  0  0  0  0  0  0  0  0  0  0  0
   35.5660   27.7830   39.8030 H   0  0  0  0  0  0  0  0  0  0  0  0
   35.2620   29.0690   41.0800 H   0  0  0  0  0  0  0  0  0  0  0  0
   37.9880   27.2810   41.6440 C   0  0  0  0  0  3  0  0  0  0  0  0
   36.6710   27.5270   41.5540 C   0  0  0  0  0  3  0  0  0  0  0  0
   38.3860   26.3940   42.6300 O   0  0  0  0  0  0  0  0  0  0  0  0
   39.3810   25.4540   42.5760 C   0  0  0  0  0  0  0  0  0  0  0  0
   39.0340   24.5500   43.1670 H   0  0  0  0  0  0  0  0  0  0  0  0
   39.6060   25.1230   41.5650 H   0  0  0  0  0  0  0  0  0  0  0  0
   41.7620   25.1440   42.8240 C   0  0  0  0  0  0  0  0  0  0  0  0
   40.6320   25.8670   43.2630 C   0  0  0  0  0  0  0  0  0  0  0  0
   40.8310   26.8100   44.2210 C   0  0  0  0  0  0  0  0  0  0  0  0
   42.0710   26.9830   44.6730 N   0  0  0  0  0  0  0  0  0  0  0  0
   43.1360   26.3020   44.2600 C   0  0  0  0  0  0  0  0  0  0  0  0
   43.0140   25.3160   43.2790 N   0  0  0  0  0  0  0  0  0  0  0  0
   41.7360   24.3600   42.0590 H   0  0  0  0  0  0  0  0  0  0  0  0
   39.9280   27.3270   44.5130 H   0  0  0  0  0  0  0  0  0  0  0  0
   44.1000   26.5190   44.6920 H   0  0  0  0  0  0  0  0  0  0  0  0
   37.0160   29.1900   39.9590 O   0  0  0  0  0  0  0  0  0  0  0  0
   36.8710   31.7460   39.2390 O   0  0  0  0  0  0  0  0  0  0  0  0
   36.9600   30.8430   40.4150 P   0  0  1  0  0  0  0  0  0  0  0  0
   35.5950   31.0720   41.4100 O   0  0  0  0  0  0  0  0  0  0  0  0
   35.5650   30.3120   42.0320 H   0  0  0  0  0  0  0  0  0  0  0  0
   38.3100   31.1460   41.3820 O   0  0  0  0  0  0  0  0  0  0  0  0
   39.0670   32.2300   41.0330 C   0  0  0  0  0  2  0  0  0  0  0  0
   39.8730   32.1420   39.8620 N   0  0  0  0  0  4  0  0  0  0  0  0
   39.2130   31.7480   39.0940 H   0  0  0  0  0  0  0  0  0  0  0  0
   40.9430   31.1780   39.9100 C   0  0  0  0  0  2  0  0  0  0  0  0
   41.0760   30.7190   38.8780 H   0  0  0  0  0  0  0  0  0  0  0  0
   40.3390   33.4040   39.3420 C   0  0  0  0  0  2  0  0  0  0  0  0
   40.0210   34.2620   39.9600 H   0  0  0  0  0  0  0  0  0  0  0  0
  1  3  1  0  0  0  0
  1  5  1  0  0  0  0
  2  1  1  0  0  0  0
  4  6  1  0  0  0  0
  5  4  2  0  0  0  0
  7  6  1  0  0  0  0
  7  8  1  0  0  0  0
  7 11  1  0  0  0  0
  9  7  1  0  0  0  0
 10 11  2  0  0  0  0
 10 15  1  0  0  0  0
 11 12  1  0  0  0  0
 12 17  1  0  0  0  0
 12 13  2  0  0  0  0
 14 13  1  0  0  0  0
 14 18  1  0  0  0  0
 15 14  2  0  0  0  0
 16 10  1  0  0  0  0
 19 21  1  0  0  0  0
 19  1  1  0  0  0  0
 21 20  2  6  0  0  0
 21 24  1  0  0  0  0
 21 22  1  0  0  0  0
 22 23  1  0  0  0  0
 25 24  1  0  0  0  0
 26 28  1  0  0  0  0
 26 25  1  0  0  0  0
 27 26  1  0  0  0  0
 29 28  1  0  0  0  0
 30 26  1  0  0  0  0
 30 31  1  0  0  0  0
M  END
>  <minimizedAffinity>
-4.12550831

$$$$

 OpenBabel03252504313D

 31 31  0  0  0  0  0  0  0  0999 V2000
   38.0170   32.5850   39.2810 C   0  0  0  0  0  0  0  0  0  0  0  0
   37.8370   32.7540   38.1960 H   0  0  0  0  0  0  0  0  0  0  0  0
   37.8680   33.4970   39.8770 H   0  0  0  0  0  0  0  0  0  0  0  0
   36.8650   30.9660   40.8690 C   0  0  0  0  0  3  0  0  0  0  0  0
   36.9620   31.5660   39.6720 C   0  0  0  0  0  3  0  0  0  0  0  0
   35.8240   30.0680   41.0290 O   0  0  0  0  0  0  0  0  0  0  0  0
   35.8720   28.6990   41.0250 C   0  0  0  0  0  0  0  0  0  0  0  0
   35.0190   28.3210   41.6680 H   0  0  0  0  0  0  0  0  0  0  0  0
   35.7580   28.2670   40.0330 H   0  0  0  0  0  0  0  0  0  0  0  0
   36.9430   28.0240   43.0810 C   0  0  0  0  0  0  0  0  0  0  0  0
   37.0830   28.1420   41.6820 C   0  0  0  0  0  0  0  0  0  0  0  0
   38.2650   27.7470   41.1400 C   0  0  0  0  0  0  0  0  0  0  0  0
   39.1990   27.2770   41.9650 N   0  0  0  0  0  0  0  0  0  0  0  0
   39.0680   27.1660   43.2840 C   0  0  0  0  0  0  0  0  0  0  0  0
   37.8830   27.5520   43.9160 N   0  0  0  0  0  0  0  0  0  0  0  0
   36.0430   28.3060   43.6380 H   0  0  0  0  0  0  0  0  0  0  0  0
   38.3090   27.8620   40.0670 H   0  0  0  0  0  0  0  0  0  0  0  0
   39.8860   26.7730   43.8640 H   0  0  0  0  0  0  0  0  0  0  0  0
   39.2410   31.9900   39.4420 O   0  0  0  0  0  0  0  0  0  0  0  0
   39.7900   34.2840   40.6700 O   0  0  0  0  0  0  0  0  0  0  0  0
   40.2420   32.8770   40.5160 P   0  0  1  0  0  0  0  0  0  0  0  0
   40.2090   32.1020   42.0330 O   0  0  0  0  0  0  0  0  0  0  0  0
   40.2790   31.1370   41.8610 H   0  0  0  0  0  0  0  0  0  0  0  0
   41.8270   32.7500   39.9500 O   0  0  0  0  0  0  0  0  0  0  0  0
   42.6850   33.7410   40.3380 C   0  0  0  0  0  2  0  0  0  0  0  0
   42.7560   34.0710   41.7220 N   0  0  0  0  0  4  0  0  0  0  0  0
   41.7680   33.8460   42.1160 H   0  0  0  0  0  0  0  0  0  0  0  0
   42.9260   35.4700   42.0230 C   0  0  0  0  0  2  0  0  0  0  0  0
   42.3520   35.7170   42.9740 H   0  0  0  0  0  0  0  0  0  0  0  0
   43.6620   33.2620   42.5000 C   0  0  0  0  0  2  0  0  0  0  0  0
   44.1970   32.5150   41.8880 H   0  0  0  0  0  0  0  0  0  0  0  0
  1 19  1  0  0  0  0
  1  5  1  0  0  0  0
  1  3  1  0  0  0  0
  2  1  1  0  0  0  0
  4  6  1  0  0  0  0
  5  4  2  0  0  0  0
  7  6  1  0  0  0  0
  7  8  1  0  0  0  0
  7 11  1  0  0  0  0
  9  7  1  0  0  0  0
 10 16  1  0  0  0  0
 10 15  1  0  0  0  0
 11 10  2  0  0  0  0
 12 11  1  0  0  0  0
 12 13  2  0  0  0  0
 13 14  1  0  0  0  0
 14 18  1  0  0  0  0
 14 15  2  0  0  0  0
 17 12  1  0  0  0  0
 19 21  1  0  0  0  0
 21 20  2  1  0  0  0
 21 22  1  0  0  0  0
 23 22  1  0  0  0  0
 24 25  1  0  0  0  0
 24 21  1  0  0  0  0
 25 26  1  0  0  0  0
 26 28  1  0  0  0  0
 26 27  1  0  0  0  0
 26 30  1  0  0  0  0
 28 29  1  0  0  0  0
 31 30  1  0  0  0  0
M  END
>  <minimizedAffinity>
-4.12064981

$$$$
