
 OpenBabel03242518153D

 30 31  0  0  0  0  0  0  0  0999 V2000
   47.5950   33.9660   43.1180 C   0  0  0  0  0  0  0  0  0  0  0  0
   46.7260   33.3010   43.4190 H   0  0  0  0  0  0  0  0  0  0  0  0
   48.0260   34.2370   44.1270 H   0  0  0  0  0  0  0  0  0  0  0  0
   48.5310   33.1710   42.4210 C   0  0  0  0  0  0  0  0  0  0  0  0
   48.5200   31.9630   41.6840 C   0  0  0  0  0  0  0  0  0  0  0  0
   49.6530   31.4610   41.1470 C   0  0  0  0  0  0  0  0  0  0  0  0
   50.8630   32.2080   41.3560 C   0  0  0  0  0  0  0  0  0  0  0  0
   50.3570   33.6370   42.3310 S   0  0  0  0  0  0  0  0  0  0  0  0
   47.5300   31.5450   41.6310 H   0  0  0  0  0  0  0  0  0  0  0  0
   49.6480   30.5430   40.5870 H   0  0  0  0  0  0  0  0  0  0  0  0
   52.0430   31.9060   40.9330 O   0  0  0  0  0  0  0  0  0  0  0  0
   52.5630   31.2000   39.8530 C   0  0  0  0  0  0  0  0  0  0  0  0
   52.7430   31.9460   38.6460 N   0  0  0  0  0  0  0  0  0  0  0  0
   52.7390   32.9660   38.7560 H   0  0  0  0  0  0  0  0  0  0  0  0
   51.6390   31.6270   37.7500 C   0  0  0  0  0  0  0  0  0  0  0  0
   50.6700   31.6070   38.2950 H   0  0  0  0  0  0  0  0  0  0  0  0
   53.9560   31.5150   37.9790 C   0  0  0  0  0  0  0  0  0  0  0  0
   54.8490   32.0040   38.3970 H   0  0  0  0  0  0  0  0  0  0  0  0
   47.0750   35.1760   42.4600 C   0  0  0  0  0  0  0  0  0  0  0  0
   47.0500   36.0470   43.1760 H   0  0  0  0  0  0  0  0  0  0  0  0
   47.7050   35.5430   41.6040 H   0  0  0  0  0  0  0  0  0  0  0  0
   45.7180   34.9740   41.9800 C   0  0  0  0  0  0  0  0  0  0  0  0
   44.6300   35.5300   42.6190 C   0  0  0  0  0  0  0  0  0  0  0  0
   43.3600   35.2960   42.1110 C   0  0  0  0  0  0  0  0  0  0  0  0
   43.2490   34.5330   41.0100 N   0  0  0  0  0  0  0  0  0  0  0  0
   44.3340   34.0030   40.4060 C   0  0  0  0  0  0  0  0  0  0  0  0
   45.5340   34.2220   40.8840 N   0  0  0  0  0  0  0  0  0  0  0  0
   44.7170   36.1330   43.4900 H   0  0  0  0  0  0  0  0  0  0  0  0
   42.4940   35.7270   42.6020 H   0  0  0  0  0  0  0  0  0  0  0  0
   44.1760   33.3890   39.5100 H   0  0  0  0  0  0  0  0  0  0  0  0
  1  2  1  0  0  0  0
  1  3  1  0  0  0  0
  4  1  1  0  0  0  0
  5  4  2  0  0  0  0
  6  7  2  0  0  0  0
  6  5  1  0  0  0  0
  7  8  1  0  0  0  0
  8  4  1  0  0  0  0
  9  5  1  0  0  0  0
 10  6  1  0  0  0  0
 11  7  1  0  0  0  0
 12 11  1  0  0  0  0
 13 14  1  0  0  0  0
 13 12  1  0  0  0  0
 15 16  1  0  0  0  0
 15 13  1  0  0  0  0
 17 18  1  0  0  0  0
 17 13  1  0  0  0  0
 19  1  1  0  0  0  0
 19 20  1  0  0  0  0
 21 19  1  0  0  0  0
 22 19  1  0  0  0  0
 22 23  1  0  0  0  0
 23 28  1  0  0  0  0
 24 29  1  0  0  0  0
 24 23  2  0  0  0  0
 25 24  1  0  0  0  0
 26 27  1  0  0  0  0
 26 25  2  0  0  0  0
 27 22  2  0  0  0  0
 30 26  1  0  0  0  0
M  END
>  <minimizedAffinity>
-4.06897163

>  <minimizedRMSD>
1.3295778

$$$$
