
 OpenBabel03242519363D

 22 22  0  0  0  0  0  0  0  0999 V2000
   48.0190   34.4160   39.6640 O   0  0  0  0  0  0  0  0  0  0  0  0
   47.7990   34.5110   41.1590 P   0  0  1  0  0  0  0  0  0  0  0  0
   48.5780   35.8400   41.8370 O   0  0  0  0  0  0  0  0  0  0  0  0
   48.6540   36.5990   41.1900 H   0  0  0  0  0  0  0  0  0  0  0  0
   46.1130   34.6750   41.4660 O   0  0  0  0  0  0  0  0  0  0  0  0
   44.6420   36.2000   44.4490 C   0  0  0  0  0  0  0  0  0  0  0  0
   45.0820   36.0430   43.1090 C   0  0  0  0  0  0  0  0  0  0  0  0
   45.6810   34.8230   42.7830 C   0  0  0  0  0  0  0  0  0  0  0  0
   45.8140   33.8590   43.7360 N   0  0  0  0  0  0  0  0  0  0  0  0
   45.3820   34.0500   44.9960 C   0  0  0  0  0  0  0  0  0  0  0  0
   44.7950   35.2170   45.3540 N   0  0  0  0  0  0  0  0  0  0  0  0
   44.1720   37.1250   44.7490 H   0  0  0  0  0  0  0  0  0  0  0  0
   44.9460   36.8510   42.3990 H   0  0  0  0  0  0  0  0  0  0  0  0
   45.5780   33.1740   45.5920 H   0  0  0  0  0  0  0  0  0  0  0  0
   48.3020   33.0740   41.8830 O   0  0  0  0  0  0  0  0  0  0  0  0
   49.0640   32.2970   41.0110 C   0  0  0  0  0  0  0  0  0  0  0  0
   50.4380   32.7080   40.9440 N   0  0  0  0  0  0  0  0  0  0  0  0
   50.5610   33.5800   40.3820 H   0  0  0  0  0  0  0  0  0  0  0  0
   50.9660   33.0130   42.2780 C   0  0  0  0  0  0  0  0  0  0  0  0
   52.0500   33.1690   42.2230 H   0  0  0  0  0  0  0  0  0  0  0  0
   51.2300   31.6110   40.4210 C   0  0  0  0  0  0  0  0  0  0  0  0
   51.8370   32.0130   39.5920 H   0  0  0  0  0  0  0  0  0  0  0  0
  2  1  2  6  0  0  0
  2  5  1  0  0  0  0
  2  3  1  0  0  0  0
  2 15  1  0  0  0  0
  4  3  1  0  0  0  0
  5  8  1  0  0  0  0
  6 12  1  0  0  0  0
  6 11  1  0  0  0  0
  7  6  2  0  0  0  0
  8  7  1  0  0  0  0
  8  9  2  0  0  0  0
  9 10  1  0  0  0  0
 10 11  2  0  0  0  0
 10 14  1  0  0  0  0
 13  7  1  0  0  0  0
 16 15  1  0  0  0  0
 17 16  1  0  0  0  0
 17 19  1  0  0  0  0
 18 17  1  0  0  0  0
 20 19  1  0  0  0  0
 21 17  1  0  0  0  0
 22 21  1  0  0  0  0
M  END
>  <minimizedAffinity>
-4.12070894

>  <minimizedRMSD>
1.67579472

$$$$
