
 OpenBabel03252502553D

 35 36  0  0  0  0  0  0  0  0999 V2000
   45.6130   29.9870   44.8310 Br  0  0  0  0  0  0  0  0  0  0  0  0
   45.6540   30.6500   46.6450 C   0  0  0  0  0  0  0  0  0  0  0  0
   46.3380   31.8240   46.8340 C   0  0  0  0  0  0  0  0  0  0  0  0
   46.3440   32.2690   48.1570 C   0  0  0  0  0  0  0  0  0  0  0  0
   45.7230   31.6020   49.1910 C   0  0  0  0  0  0  0  0  0  0  0  0
   45.0620   30.4380   48.9180 C   0  0  0  0  0  0  0  0  0  0  0  0
   45.0150   29.9420   47.6400 C   0  0  0  0  0  0  0  0  0  0  0  0
   46.8640   33.1960   48.4010 H   0  0  0  0  0  0  0  0  0  0  0  0
   45.7660   32.0060   50.2070 H   0  0  0  0  0  0  0  0  0  0  0  0
   44.5850   29.9440   49.7660 H   0  0  0  0  0  0  0  0  0  0  0  0
   47.0310   32.6200   45.8370 C   0  0  0  0  0  0  0  0  0  0  0  0
   47.3330   31.9390   44.9990 H   0  0  0  0  0  0  0  0  0  0  0  0
   47.9820   33.0860   46.1930 H   0  0  0  0  0  0  0  0  0  0  0  0
   44.5240   35.3370   45.3680 C   0  0  0  0  0  0  0  0  0  0  0  0
   44.7530   35.7170   44.0310 C   0  0  0  0  0  0  0  0  0  0  0  0
   45.7470   35.0450   43.3260 C   0  0  0  0  0  0  0  0  0  0  0  0
   46.4420   34.0710   43.9420 N   0  0  0  0  0  0  0  0  0  0  0  0
   46.2030   33.7150   45.2470 C   0  0  0  0  0  0  0  0  0  0  0  0
   45.2350   34.3750   45.9170 N   0  0  0  0  0  0  0  0  0  0  0  0
   43.7880   35.7670   46.0370 H   0  0  0  0  0  0  0  0  0  0  0  0
   44.1310   36.5090   43.6550 H   0  0  0  0  0  0  0  0  0  0  0  0
   45.9130   35.3420   42.3110 H   0  0  0  0  0  0  0  0  0  0  0  0
   44.3420   28.7590   47.3670 O   0  0  0  0  0  0  0  0  0  0  0  0
   44.2010   26.2110   46.8750 O   0  0  0  0  0  0  0  0  0  0  0  0
   44.9670   27.2130   47.7250 P   0  0  2  0  0  0  0  0  0  0  0  0
   44.6980   26.9240   49.3550 O   0  0  0  0  0  0  0  0  0  0  0  0
   45.4350   27.1590   49.9510 H   0  0  0  0  0  0  0  0  0  0  0  0
   46.5980   27.1010   47.3440 O   0  0  0  0  0  0  0  0  0  0  0  0
   47.1120   25.8350   47.6210 C   0  0  0  0  0  2  0  0  0  0  0  0
   47.5700   25.6990   48.9860 N   0  0  0  0  0  4  0  0  0  0  0  0
   47.1700   26.4360   49.6010 H   0  0  0  0  0  0  0  0  0  0  0  0
   47.1850   24.3680   49.4510 C   0  0  0  0  0  2  0  0  0  0  0  0
   46.2400   24.1050   48.9170 H   0  0  0  0  0  0  0  0  0  0  0  0
   49.0210   25.7600   49.0740 C   0  0  0  0  0  2  0  0  0  0  0  0
   49.4110   26.7790   48.8740 H   0  0  0  0  0  0  0  0  0  0  0  0
  1  2  1  0  0  0  0
  2  3  2  0  0  0  0
  2  7  1  0  0  0  0
  3  4  1  0  0  0  0
  4  8  1  0  0  0  0
  4  5  2  0  0  0  0
  5  9  1  0  0  0  0
  6  5  1  0  0  0  0
  6 10  1  0  0  0  0
  7  6  2  0  0  0  0
 11 13  1  0  0  0  0
 11  3  1  0  0  0  0
 12 11  1  0  0  0  0
 14 19  1  0  0  0  0
 14 20  1  0  0  0  0
 15 14  2  0  0  0  0
 16 17  2  0  0  0  0
 16 15  1  0  0  0  0
 17 18  1  0  0  0  0
 18 11  1  0  0  0  0
 18 19  2  0  0  0  0
 21 15  1  0  0  0  0
 22 16  1  0  0  0  0
 23  7  1  0  0  0  0
 23 25  1  0  0  0  0
 25 24  2  6  0  0  0
 25 26  1  0  0  0  0
 26 27  1  0  0  0  0
 28 29  1  0  0  0  0
 28 25  1  0  0  0  0
 29 30  1  0  0  0  0
 30 34  1  0  0  0  0
 30 32  1  0  0  0  0
 30 31  1  0  0  0  0
 33 32  1  0  0  0  0
 35 34  1  0  0  0  0
M  END
>  <minimizedAffinity>
-5.09283018

>  <minimizedRMSD>
0.501214862

$$$$
