
 OpenBabel03252502553D

 35 36  0  0  0  0  0  0  0  0999 V2000
   45.5970   30.0020   44.7010 Br  0  0  0  0  0  0  0  0  0  0  0  0
   45.6700   30.7050   46.4990 C   0  0  0  0  0  0  0  0  0  0  0  0
   46.3590   31.8810   46.6510 C   0  0  0  0  0  0  0  0  0  0  0  0
   46.3880   32.3550   47.9640 C   0  0  0  0  0  0  0  0  0  0  0  0
   45.7840   31.7120   49.0220 C   0  0  0  0  0  0  0  0  0  0  0  0
   45.1170   30.5440   48.7860 C   0  0  0  0  0  0  0  0  0  0  0  0
   45.0470   30.0190   47.5200 C   0  0  0  0  0  0  0  0  0  0  0  0
   46.9130   33.2860   48.1780 H   0  0  0  0  0  0  0  0  0  0  0  0
   45.8440   32.1370   50.0290 H   0  0  0  0  0  0  0  0  0  0  0  0
   44.6540   30.0680   49.6530 H   0  0  0  0  0  0  0  0  0  0  0  0
   47.0350   32.6550   45.6250 C   0  0  0  0  0  0  0  0  0  0  0  0
   47.2860   31.9630   44.7790 H   0  0  0  0  0  0  0  0  0  0  0  0
   48.0120   33.0950   45.9430 H   0  0  0  0  0  0  0  0  0  0  0  0
   44.5410   35.3940   45.2190 C   0  0  0  0  0  0  0  0  0  0  0  0
   44.7850   35.8160   43.8970 C   0  0  0  0  0  0  0  0  0  0  0  0
   45.7850   35.1640   43.1820 C   0  0  0  0  0  0  0  0  0  0  0  0
   46.4700   34.1680   43.7730 N   0  0  0  0  0  0  0  0  0  0  0  0
   46.2170   33.7710   45.0630 C   0  0  0  0  0  0  0  0  0  0  0  0
   45.2440   34.4130   45.7440 N   0  0  0  0  0  0  0  0  0  0  0  0
   43.8000   35.8040   45.8940 H   0  0  0  0  0  0  0  0  0  0  0  0
   44.1700   36.6220   43.5410 H   0  0  0  0  0  0  0  0  0  0  0  0
   45.9620   35.4930   42.1790 H   0  0  0  0  0  0  0  0  0  0  0  0
   44.3680   28.8320   47.2840 O   0  0  0  0  0  0  0  0  0  0  0  0
   44.2780   26.2880   46.7640 O   0  0  0  0  0  0  0  0  0  0  0  0
   45.0080   27.2920   47.6420 P   0  0  2  0  0  0  0  0  0  0  0  0
   44.7040   26.9820   49.2620 O   0  0  0  0  0  0  0  0  0  0  0  0
   45.4230   27.2220   49.8780 H   0  0  0  0  0  0  0  0  0  0  0  0
   46.6490   27.2070   47.3000 O   0  0  0  0  0  0  0  0  0  0  0  0
   47.1730   25.9450   47.5690 C   0  0  0  0  0  2  0  0  0  0  0  0
   47.6100   25.7970   48.9400 N   0  0  0  0  0  4  0  0  0  0  0  0
   47.2080   26.5340   49.5540 H   0  0  0  0  0  0  0  0  0  0  0  0
   47.2080   24.4670   49.3920 C   0  0  0  0  0  2  0  0  0  0  0  0
   46.2710   24.2140   48.8420 H   0  0  0  0  0  0  0  0  0  0  0  0
   49.0610   25.8460   49.0490 C   0  0  0  0  0  2  0  0  0  0  0  0
   49.4620   26.8630   48.8600 H   0  0  0  0  0  0  0  0  0  0  0  0
  1  2  1  0  0  0  0
  2  3  2  0  0  0  0
  2  7  1  0  0  0  0
  3  4  1  0  0  0  0
  4  8  1  0  0  0  0
  4  5  2  0  0  0  0
  5  9  1  0  0  0  0
  6  5  1  0  0  0  0
  6 10  1  0  0  0  0
  7  6  2  0  0  0  0
 11 13  1  0  0  0  0
 11  3  1  0  0  0  0
 12 11  1  0  0  0  0
 14 19  1  0  0  0  0
 14 20  1  0  0  0  0
 15 14  2  0  0  0  0
 16 17  2  0  0  0  0
 16 15  1  0  0  0  0
 17 18  1  0  0  0  0
 18 11  1  0  0  0  0
 18 19  2  0  0  0  0
 21 15  1  0  0  0  0
 22 16  1  0  0  0  0
 23  7  1  0  0  0  0
 23 25  1  0  0  0  0
 25 24  2  6  0  0  0
 25 26  1  0  0  0  0
 26 27  1  0  0  0  0
 28 29  1  0  0  0  0
 28 25  1  0  0  0  0
 29 30  1  0  0  0  0
 30 34  1  0  0  0  0
 30 32  1  0  0  0  0
 30 31  1  0  0  0  0
 33 32  1  0  0  0  0
 35 34  1  0  0  0  0
M  END
>  <minimizedAffinity>
-5.08997488

>  <minimizedRMSD>
0.51902318

$$$$
