
 OpenBabel03242521573D

 46 49  0  0  0  0  0  0  0  0999 V2000
   36.5530   26.9390   39.7380 C   0  0  0  0  0  0  0  0  0  0  0  0
   36.5770   25.5470   39.7340 C   0  0  0  0  0  0  0  0  0  0  0  0
   36.8570   24.7870   40.8760 C   0  0  0  0  0  0  0  0  0  0  0  0
   37.1250   25.3970   42.0700 C   0  0  0  0  0  0  0  0  0  0  0  0
   37.1160   26.8070   42.0990 C   0  0  0  0  0  0  0  0  0  0  0  0
   37.4420   27.3760   43.2890 C   0  0  0  0  0  0  0  0  0  0  0  0
   37.5160   28.7700   43.3330 C   0  0  0  0  0  0  0  0  0  0  0  0
   37.2550   29.5120   42.1280 C   0  0  0  0  0  0  0  0  0  0  0  0
   36.9380   28.7860   41.0030 C   0  0  0  0  0  0  0  0  0  0  0  0
   36.8320   27.4710   40.9040 C   0  0  0  0  0  0  0  0  0  0  0  0
   36.3620   25.0410   38.7790 H   0  0  0  0  0  0  0  0  0  0  0  0
   36.8690   23.7160   40.8460 H   0  0  0  0  0  0  0  0  0  0  0  0
   37.3370   24.8210   42.9650 H   0  0  0  0  0  0  0  0  0  0  0  0
   37.6340   26.7710   44.1640 H   0  0  0  0  0  0  0  0  0  0  0  0
   37.7750   29.1540   44.3100 H   0  0  0  0  0  0  0  0  0  0  0  0
   37.3830   30.5330   42.4580 H   0  0  0  0  0  0  0  0  0  0  0  0
   38.5660   29.8620   39.7260 C   0  0  0  0  0  0  0  0  0  0  0  0
   37.1740   29.9150   40.1280 C   0  0  0  0  0  0  0  0  0  0  0  0
   36.6040   31.0350   39.6930 C   0  0  0  0  0  0  0  0  0  0  0  0
   37.2240   32.0300   38.9650 C   0  0  0  0  0  0  0  0  0  0  0  0
   38.5370   31.9620   38.5990 C   0  0  0  0  0  0  0  0  0  0  0  0
   39.2080   30.8430   39.0000 C   0  0  0  0  0  0  0  0  0  0  0  0
   35.5560   30.9850   40.0400 H   0  0  0  0  0  0  0  0  0  0  0  0
   36.5730   32.8580   38.7140 H   0  0  0  0  0  0  0  0  0  0  0  0
   38.9660   32.7730   38.0290 H   0  0  0  0  0  0  0  0  0  0  0  0
   39.4850   28.8140   40.0030 O   0  0  0  0  0  0  0  0  0  0  0  0
   39.2280   27.8360   39.8800 H   0  0  0  0  0  0  0  0  0  0  0  0
   40.5390   30.8300   38.6070 O   0  0  0  0  0  0  0  0  0  0  0  0
   41.0370   31.5410   37.5210 C   0  0  0  0  0  2  0  0  0  0  0  0
   41.7590   30.7060   36.6020 N   0  0  0  0  0  4  0  0  0  0  0  0
   41.3150   30.8750   35.6540 H   0  0  0  0  0  0  0  0  0  0  0  0
   43.1510   31.0810   36.6050 C   0  0  0  0  0  2  0  0  0  0  0  0
   43.7090   30.4940   37.3540 H   0  0  0  0  0  0  0  0  0  0  0  0
   41.6770   29.2920   36.9180 C   0  0  0  0  0  2  0  0  0  0  0  0
   41.1580   29.0880   37.8830 H   0  0  0  0  0  0  0  0  0  0  0  0
   34.6310   28.9830   37.2760 C   0  0  0  0  0  0  0  0  0  0  0  0
   35.5900   29.0760   36.2380 C   0  0  0  0  0  0  0  0  0  0  0  0
   36.7770   28.4240   36.4510 C   0  0  0  0  0  0  0  0  0  0  0  0
   36.8820   27.7840   37.6150 N   0  0  0  0  0  0  0  0  0  0  0  0
   36.0090   27.6770   38.6100 C   0  0  0  0  0  0  0  0  0  0  0  0
   34.8840   28.2950   38.3950 N   0  0  0  0  0  0  0  0  0  0  0  0
   33.6760   29.4770   37.1590 H   0  0  0  0  0  0  0  0  0  0  0  0
   35.4080   29.6220   35.3360 H   0  0  0  0  0  0  0  0  0  0  0  0
   37.8090   28.3790   35.4730 N   0  0  0  0  0  0  0  0  0  0  0  0
   37.7730   28.0160   34.4870 H   0  0  0  0  0  0  0  0  0  0  0  0
   38.6530   28.7910   35.9370 H   0  0  0  0  0  0  0  0  0  0  0  0
  1 10  1  0  0  0  0
  2  1  2  0  0  0  0
  2  3  1  0  0  0  0
  3  4  2  0  0  0  0
  4  5  1  0  0  0  0
  4 13  1  0  0  0  0
  5  6  1  0  0  0  0
  6  7  2  0  0  0  0
  6 14  1  0  0  0  0
  7 15  1  0  0  0  0
  8 16  1  0  0  0  0
  8  7  1  0  0  0  0
  9  8  2  0  0  0  0
 10  9  1  0  0  0  0
 10  5  2  0  0  0  0
 11  2  1  0  0  0  0
 12  3  1  0  0  0  0
 17 26  1  0  0  0  0
 17 18  1  0  0  0  0
 18  9  1  0  0  0  0
 19 23  1  0  0  0  0
 19 18  2  0  0  0  0
 20 19  1  0  0  0  0
 21 20  2  0  0  0  0
 21 22  1  0  0  0  0
 22 17  2  0  0  0  0
 24 20  1  0  0  0  0
 25 21  1  0  0  0  0
 27 26  1  0  0  0  0
 28 22  1  0  0  0  0
 29 28  1  0  0  0  0
 30 32  1  0  0  0  0
 30 34  1  0  0  0  0
 30 29  1  0  0  0  0
 31 30  1  0  0  0  0
 32 33  1  0  0  0  0
 34 35  1  0  0  0  0
 36 41  1  0  0  0  0
 37 38  1  0  0  0  0
 37 36  2  0  0  0  0
 38 39  2  0  0  0  0
 39 40  1  0  0  0  0
 40  1  1  0  0  0  0
 41 40  2  0  0  0  0
 42 36  1  0  0  0  0
 43 37  1  0  0  0  0
 44 46  1  0  0  0  0
 44 38  1  0  0  0  0
 45 44  1  0  0  0  0
M  END
>  <minimizedAffinity>
-6.84540892

$$$$

 OpenBabel03242521573D

 46 49  0  0  0  0  0  0  0  0999 V2000
   37.8840   31.5930   40.5300 C   0  0  0  0  0  0  0  0  0  0  0  0
   37.7260   32.8690   39.9960 C   0  0  0  0  0  0  0  0  0  0  0  0
   38.7430   33.8310   40.0050 C   0  0  0  0  0  0  0  0  0  0  0  0
   39.9630   33.5490   40.5540 C   0  0  0  0  0  0  0  0  0  0  0  0
   40.1470   32.2660   41.1100 C   0  0  0  0  0  0  0  0  0  0  0  0
   41.3530   32.0430   41.6950 C   0  0  0  0  0  0  0  0  0  0  0  0
   41.5420   30.8090   42.3220 C   0  0  0  0  0  0  0  0  0  0  0  0
   40.4600   29.8620   42.3190 C   0  0  0  0  0  0  0  0  0  0  0  0
   39.2990   30.2400   41.6830 C   0  0  0  0  0  0  0  0  0  0  0  0
   39.0670   31.3820   41.0550 C   0  0  0  0  0  0  0  0  0  0  0  0
   36.7470   33.1100   39.5500 H   0  0  0  0  0  0  0  0  0  0  0  0
   38.5940   34.8070   39.5880 H   0  0  0  0  0  0  0  0  0  0  0  0
   40.7630   34.2820   40.5630 H   0  0  0  0  0  0  0  0  0  0  0  0
   42.1320   32.7920   41.6740 H   0  0  0  0  0  0  0  0  0  0  0  0
   42.5240   30.6980   42.7610 H   0  0  0  0  0  0  0  0  0  0  0  0
   40.8840   29.0300   42.8600 H   0  0  0  0  0  0  0  0  0  0  0  0
   38.5760   28.0400   41.4120 C   0  0  0  0  0  0  0  0  0  0  0  0
   38.5340   29.1820   42.3060 C   0  0  0  0  0  0  0  0  0  0  0  0
   37.7080   28.9500   43.3220 C   0  0  0  0  0  0  0  0  0  0  0  0
   36.9750   27.7980   43.5240 C   0  0  0  0  0  0  0  0  0  0  0  0
   37.0250   26.7360   42.6680 C   0  0  0  0  0  0  0  0  0  0  0  0
   37.8520   26.8810   41.5910 C   0  0  0  0  0  0  0  0  0  0  0  0
   37.7450   29.8620   43.9450 H   0  0  0  0  0  0  0  0  0  0  0  0
   36.3640   27.8200   44.4170 H   0  0  0  0  0  0  0  0  0  0  0  0
   36.4270   25.8620   42.8790 H   0  0  0  0  0  0  0  0  0  0  0  0
   39.3530   27.9240   40.2290 O   0  0  0  0  0  0  0  0  0  0  0  0
   40.3330   28.2010   40.2060 H   0  0  0  0  0  0  0  0  0  0  0  0
   37.8600   25.7740   40.7520 O   0  0  0  0  0  0  0  0  0  0  0  0
   36.7260   25.2540   40.1400 C   0  0  0  0  0  2  0  0  0  0  0  0
   36.4460   23.9080   40.5560 N   0  0  0  0  0  4  0  0  0  0  0  0
   35.9440   23.9950   41.4860 H   0  0  0  0  0  0  0  0  0  0  0  0
   35.6160   23.2640   39.5690 C   0  0  0  0  0  2  0  0  0  0  0  0
   36.2360   22.7500   38.8150 H   0  0  0  0  0  0  0  0  0  0  0  0
   37.6370   23.0980   40.7340 C   0  0  0  0  0  2  0  0  0  0  0  0
   38.5710   23.6160   40.4160 H   0  0  0  0  0  0  0  0  0  0  0  0
   35.0230   29.2000   40.3930 C   0  0  0  0  0  0  0  0  0  0  0  0
   35.3210   28.5370   39.1780 C   0  0  0  0  0  0  0  0  0  0  0  0
   36.4640   28.9360   38.5360 C   0  0  0  0  0  0  0  0  0  0  0  0
   37.1540   29.9050   39.1350 N   0  0  0  0  0  0  0  0  0  0  0  0
   36.9060   30.5500   40.2700 C   0  0  0  0  0  0  0  0  0  0  0  0
   35.8210   30.1600   40.8740 N   0  0  0  0  0  0  0  0  0  0  0  0
   34.1330   28.9220   40.9430 H   0  0  0  0  0  0  0  0  0  0  0  0
   34.6950   27.7670   38.7770 H   0  0  0  0  0  0  0  0  0  0  0  0
   36.9220   28.3180   37.3390 N   0  0  0  0  0  0  0  0  0  0  0  0
   37.1600   27.3090   37.1620 H   0  0  0  0  0  0  0  0  0  0  0  0
   36.9830   29.0880   36.6310 H   0  0  0  0  0  0  0  0  0  0  0  0
  1 10  1  0  0  0  0
  2  3  1  0  0  0  0
  2  1  2  0  0  0  0
  3  4  2  0  0  0  0
  4 13  1  0  0  0  0
  4  5  1  0  0  0  0
  5  6  1  0  0  0  0
  6  7  2  0  0  0  0
  7 15  1  0  0  0  0
  8  7  1  0  0  0  0
  8 16  1  0  0  0  0
  9 18  1  0  0  0  0
  9  8  2  0  0  0  0
 10  5  2  0  0  0  0
 10  9  1  0  0  0  0
 11  2  1  0  0  0  0
 12  3  1  0  0  0  0
 14  6  1  0  0  0  0
 17 22  2  0  0  0  0
 17 18  1  0  0  0  0
 18 19  2  0  0  0  0
 19 20  1  0  0  0  0
 19 23  1  0  0  0  0
 20 24  1  0  0  0  0
 21 25  1  0  0  0  0
 21 20  2  0  0  0  0
 22 21  1  0  0  0  0
 26 17  1  0  0  0  0
 27 26  1  0  0  0  0
 28 22  1  0  0  0  0
 29 30  1  0  0  0  0
 29 28  1  0  0  0  0
 30 34  1  0  0  0  0
 30 31  1  0  0  0  0
 32 30  1  0  0  0  0
 33 32  1  0  0  0  0
 35 34  1  0  0  0  0
 36 41  1  0  0  0  0
 36 42  1  0  0  0  0
 37 36  2  0  0  0  0
 38 39  2  0  0  0  0
 38 37  1  0  0  0  0
 39 40  1  0  0  0  0
 40  1  1  0  0  0  0
 40 41  2  0  0  0  0
 43 37  1  0  0  0  0
 44 38  1  0  0  0  0
 45 44  1  0  0  0  0
 46 44  1  0  0  0  0
M  END
>  <minimizedAffinity>
-6.3902421

$$$$

 OpenBabel03242521573D

 46 49  0  0  0  0  0  0  0  0999 V2000
   36.6320   27.0060   39.7050 C   0  0  0  0  0  0  0  0  0  0  0  0
   36.6270   25.6140   39.7070 C   0  0  0  0  0  0  0  0  0  0  0  0
   36.8530   24.8520   40.8600 C   0  0  0  0  0  0  0  0  0  0  0  0
   37.0930   25.4620   42.0610 C   0  0  0  0  0  0  0  0  0  0  0  0
   37.1120   26.8710   42.0850 C   0  0  0  0  0  0  0  0  0  0  0  0
   37.4080   27.4380   43.2830 C   0  0  0  0  0  0  0  0  0  0  0  0
   37.5100   28.8310   43.3250 C   0  0  0  0  0  0  0  0  0  0  0  0
   37.3050   29.5740   42.1100 C   0  0  0  0  0  0  0  0  0  0  0  0
   37.0120   28.8500   40.9770 C   0  0  0  0  0  0  0  0  0  0  0  0
   36.8820   27.5360   40.8780 C   0  0  0  0  0  0  0  0  0  0  0  0
   36.4350   25.1090   38.7460 H   0  0  0  0  0  0  0  0  0  0  0  0
   36.8440   23.7810   40.8330 H   0  0  0  0  0  0  0  0  0  0  0  0
   37.2620   24.8850   42.9640 H   0  0  0  0  0  0  0  0  0  0  0  0
   37.5590   26.8330   44.1660 H   0  0  0  0  0  0  0  0  0  0  0  0
   37.7430   29.2130   44.3090 H   0  0  0  0  0  0  0  0  0  0  0  0
   37.4430   30.5920   42.4410 H   0  0  0  0  0  0  0  0  0  0  0  0
   38.7150   29.9150   39.7930 C   0  0  0  0  0  0  0  0  0  0  0  0
   37.3000   29.9700   40.1070 C   0  0  0  0  0  0  0  0  0  0  0  0
   36.7570   31.0840   39.6260 C   0  0  0  0  0  0  0  0  0  0  0  0
   37.4210   32.0730   38.9270 C   0  0  0  0  0  0  0  0  0  0  0  0
   38.7540   32.0040   38.6450 C   0  0  0  0  0  0  0  0  0  0  0  0
   39.4000   30.8900   39.0980 C   0  0  0  0  0  0  0  0  0  0  0  0
   35.6900   31.0360   39.9080 H   0  0  0  0  0  0  0  0  0  0  0  0
   36.7860   32.8970   38.6290 H   0  0  0  0  0  0  0  0  0  0  0  0
   39.2170   32.8100   38.0950 H   0  0  0  0  0  0  0  0  0  0  0  0
   39.6160   28.8710   40.1360 O   0  0  0  0  0  0  0  0  0  0  0  0
   39.3680   27.8920   40.0080 H   0  0  0  0  0  0  0  0  0  0  0  0
   40.7530   30.8750   38.7880 O   0  0  0  0  0  0  0  0  0  0  0  0
   41.2580   30.9900   37.4980 C   0  0  0  0  0  2  0  0  0  0  0  0
   42.1260   29.9010   37.1490 N   0  0  0  0  0  4  0  0  0  0  0  0
   42.7510   29.7530   37.9930 H   0  0  0  0  0  0  0  0  0  0  0  0
   41.3370   28.7290   36.8660 C   0  0  0  0  0  2  0  0  0  0  0  0
   41.0820   28.6810   35.7940 H   0  0  0  0  0  0  0  0  0  0  0  0
   42.9550   30.1720   35.9880 C   0  0  0  0  0  2  0  0  0  0  0  0
   42.7080   31.1370   35.4890 H   0  0  0  0  0  0  0  0  0  0  0  0
   35.9840   28.7490   36.4690 C   0  0  0  0  0  0  0  0  0  0  0  0
   34.6130   29.0630   36.6340 C   0  0  0  0  0  0  0  0  0  0  0  0
   34.0450   28.6850   37.8230 C   0  0  0  0  0  0  0  0  0  0  0  0
   34.8560   28.0630   38.6770 N   0  0  0  0  0  0  0  0  0  0  0  0
   36.1420   27.7500   38.5570 C   0  0  0  0  0  0  0  0  0  0  0  0
   36.6720   28.1190   37.4270 N   0  0  0  0  0  0  0  0  0  0  0  0
   36.4840   29.0280   35.5500 H   0  0  0  0  0  0  0  0  0  0  0  0
   34.0450   29.5670   35.8790 H   0  0  0  0  0  0  0  0  0  0  0  0
   32.6950   28.9870   38.1540 N   0  0  0  0  0  0  0  0  0  0  0  0
   32.2200   29.9230   38.2110 H   0  0  0  0  0  0  0  0  0  0  0  0
   32.2380   28.0630   38.3410 H   0  0  0  0  0  0  0  0  0  0  0  0
  1  2  2  0  0  0  0
  1 10  1  0  0  0  0
  2  3  1  0  0  0  0
  3  4  2  0  0  0  0
  4  5  1  0  0  0  0
  4 13  1  0  0  0  0
  5  6  1  0  0  0  0
  6  7  2  0  0  0  0
  6 14  1  0  0  0  0
  7 15  1  0  0  0  0
  8 16  1  0  0  0  0
  8  7  1  0  0  0  0
  9  8  2  0  0  0  0
 10  9  1  0  0  0  0
 10  5  2  0  0  0  0
 11  2  1  0  0  0  0
 12  3  1  0  0  0  0
 17 18  1  0  0  0  0
 17 26  1  0  0  0  0
 18  9  1  0  0  0  0
 19 23  1  0  0  0  0
 19 18  2  0  0  0  0
 20 19  1  0  0  0  0
 21 20  2  0  0  0  0
 21 22  1  0  0  0  0
 22 17  2  0  0  0  0
 24 20  1  0  0  0  0
 25 21  1  0  0  0  0
 27 26  1  0  0  0  0
 28 22  1  0  0  0  0
 29 28  1  0  0  0  0
 30 29  1  0  0  0  0
 30 31  1  0  0  0  0
 32 30  1  0  0  0  0
 33 32  1  0  0  0  0
 34 30  1  0  0  0  0
 35 34  1  0  0  0  0
 36 37  2  0  0  0  0
 36 41  1  0  0  0  0
 37 38  1  0  0  0  0
 38 44  1  0  0  0  0
 38 39  2  0  0  0  0
 40 39  1  0  0  0  0
 40  1  1  0  0  0  0
 41 40  2  0  0  0  0
 42 36  1  0  0  0  0
 43 37  1  0  0  0  0
 44 45  1  0  0  0  0
 44 46  1  0  0  0  0
M  END
>  <minimizedAffinity>
-6.38959599

$$$$

 OpenBabel03242521573D

 46 49  0  0  0  0  0  0  0  0999 V2000
   37.6010   26.1220   41.3940 C   0  0  0  0  0  0  0  0  0  0  0  0
   37.8390   24.9150   42.0470 C   0  0  0  0  0  0  0  0  0  0  0  0
   37.4200   23.6790   41.5410 C   0  0  0  0  0  0  0  0  0  0  0  0
   36.7440   23.6060   40.3540 C   0  0  0  0  0  0  0  0  0  0  0  0
   36.4830   24.8140   39.6760 C   0  0  0  0  0  0  0  0  0  0  0  0
   35.7620   24.7060   38.5300 C   0  0  0  0  0  0  0  0  0  0  0  0
   35.4200   25.8910   37.8730 C   0  0  0  0  0  0  0  0  0  0  0  0
   35.8410   27.1410   38.4460 C   0  0  0  0  0  0  0  0  0  0  0  0
   36.5670   27.0820   39.6140 C   0  0  0  0  0  0  0  0  0  0  0  0
   36.9380   25.9940   40.2700 C   0  0  0  0  0  0  0  0  0  0  0  0
   38.3830   24.9590   43.0050 H   0  0  0  0  0  0  0  0  0  0  0  0
   37.6150   22.7650   42.0640 H   0  0  0  0  0  0  0  0  0  0  0  0
   36.4190   22.6550   39.9460 H   0  0  0  0  0  0  0  0  0  0  0  0
   35.4650   23.7400   38.1450 H   0  0  0  0  0  0  0  0  0  0  0  0
   34.8520   25.7290   36.9680 H   0  0  0  0  0  0  0  0  0  0  0  0
   35.4450   27.8580   37.7420 H   0  0  0  0  0  0  0  0  0  0  0  0
   37.4500   29.2120   39.2720 C   0  0  0  0  0  0  0  0  0  0  0  0
   36.3590   28.4860   39.8920 C   0  0  0  0  0  0  0  0  0  0  0  0
   35.6100   29.3060   40.6240 C   0  0  0  0  0  0  0  0  0  0  0  0
   35.8180   30.6600   40.7940 C   0  0  0  0  0  0  0  0  0  0  0  0
   36.8540   31.3230   40.2030 C   0  0  0  0  0  0  0  0  0  0  0  0
   37.6800   30.5630   39.4270 C   0  0  0  0  0  0  0  0  0  0  0  0
   34.8110   28.6720   41.0500 H   0  0  0  0  0  0  0  0  0  0  0  0
   35.0870   31.1370   41.4340 H   0  0  0  0  0  0  0  0  0  0  0  0
   36.9660   32.3840   40.3760 H   0  0  0  0  0  0  0  0  0  0  0  0
   38.4450   28.6690   38.4150 O   0  0  0  0  0  0  0  0  0  0  0  0
   38.2040   28.0300   37.6580 H   0  0  0  0  0  0  0  0  0  0  0  0
   38.7190   31.2860   38.8570 O   0  0  0  0  0  0  0  0  0  0  0  0
   39.6670   31.9940   39.5860 C   0  0  0  0  0  2  0  0  0  0  0  0
   39.7020   33.3870   39.2370 N   0  0  0  0  0  4  0  0  0  0  0  0
   39.1590   33.4670   38.3290 H   0  0  0  0  0  0  0  0  0  0  0  0
   39.0880   34.1610   40.2860 C   0  0  0  0  0  2  0  0  0  0  0  0
   39.8420   34.4750   41.0280 H   0  0  0  0  0  0  0  0  0  0  0  0
   41.0450   33.8980   39.0320 C   0  0  0  0  0  2  0  0  0  0  0  0
   41.8390   33.1580   39.2840 H   0  0  0  0  0  0  0  0  0  0  0  0
   38.8180   29.2860   42.9550 C   0  0  0  0  0  0  0  0  0  0  0  0
   40.0710   29.4100   42.3070 C   0  0  0  0  0  0  0  0  0  0  0  0
   40.3760   28.4370   41.3900 C   0  0  0  0  0  0  0  0  0  0  0  0
   39.4530   27.4900   41.2260 N   0  0  0  0  0  0  0  0  0  0  0  0
   38.2720   27.3400   41.8160 C   0  0  0  0  0  0  0  0  0  0  0  0
   37.9900   28.2720   42.6790 N   0  0  0  0  0  0  0  0  0  0  0  0
   38.5250   30.0290   43.6860 H   0  0  0  0  0  0  0  0  0  0  0  0
   40.7470   30.2130   42.5140 H   0  0  0  0  0  0  0  0  0  0  0  0
   41.5700   28.4640   40.6180 N   0  0  0  0  0  0  0  0  0  0  0  0
   41.9190   29.2080   39.9620 H   0  0  0  0  0  0  0  0  0  0  0  0
   42.0620   27.5630   40.8300 H   0  0  0  0  0  0  0  0  0  0  0  0
  1 40  1  0  0  0  0
  1  2  1  0  0  0  0
  2 11  1  0  0  0  0
  3  2  2  0  0  0  0
  3 12  1  0  0  0  0
  4  3  1  0  0  0  0
  5 10  1  0  0  0  0
  5  4  2  0  0  0  0
  6  5  1  0  0  0  0
  7  8  1  0  0  0  0
  7  6  2  0  0  0  0
  8  9  2  0  0  0  0
  9 18  1  0  0  0  0
  9 10  1  0  0  0  0
 10  1  2  0  0  0  0
 13  4  1  0  0  0  0
 14  6  1  0  0  0  0
 15  7  1  0  0  0  0
 16  8  1  0  0  0  0
 17 22  2  0  0  0  0
 17 18  1  0  0  0  0
 18 19  2  0  0  0  0
 19 20  1  0  0  0  0
 19 23  1  0  0  0  0
 20 24  1  0  0  0  0
 21 25  1  0  0  0  0
 21 20  2  0  0  0  0
 22 21  1  0  0  0  0
 26 17  1  0  0  0  0
 27 26  1  0  0  0  0
 28 22  1  0  0  0  0
 28 29  1  0  0  0  0
 30 29  1  0  0  0  0
 30 32  1  0  0  0  0
 31 30  1  0  0  0  0
 32 33  1  0  0  0  0
 34 30  1  0  0  0  0
 34 35  1  0  0  0  0
 36 42  1  0  0  0  0
 37 43  1  0  0  0  0
 37 36  2  0  0  0  0
 38 37  1  0  0  0  0
 39 38  2  0  0  0  0
 39 40  1  0  0  0  0
 40 41  2  0  0  0  0
 41 36  1  0  0  0  0
 44 46  1  0  0  0  0
 44 38  1  0  0  0  0
 45 44  1  0  0  0  0
M  END
>  <minimizedAffinity>
-6.29436255

$$$$

 OpenBabel03242521573D

 46 49  0  0  0  0  0  0  0  0999 V2000
   39.4870   30.0680   41.8260 C   0  0  0  0  0  0  0  0  0  0  0  0
   40.8310   30.0700   42.1910 C   0  0  0  0  0  0  0  0  0  0  0  0
   41.6750   31.1670   41.9820 C   0  0  0  0  0  0  0  0  0  0  0  0
   41.2010   32.3090   41.3970 C   0  0  0  0  0  0  0  0  0  0  0  0
   39.8460   32.3300   41.0100 C   0  0  0  0  0  0  0  0  0  0  0  0
   39.4270   33.4590   40.3820 C   0  0  0  0  0  0  0  0  0  0  0  0
   38.1100   33.4830   39.9170 C   0  0  0  0  0  0  0  0  0  0  0  0
   37.2860   32.3220   40.1220 C   0  0  0  0  0  0  0  0  0  0  0  0
   37.8600   31.2550   40.7760 C   0  0  0  0  0  0  0  0  0  0  0  0
   39.0910   31.1800   41.2560 C   0  0  0  0  0  0  0  0  0  0  0  0
   41.2260   29.1560   42.6640 H   0  0  0  0  0  0  0  0  0  0  0  0
   42.7060   31.1420   42.2720 H   0  0  0  0  0  0  0  0  0  0  0  0
   41.8420   33.1700   41.2350 H   0  0  0  0  0  0  0  0  0  0  0  0
   40.0900   34.3030   40.2490 H   0  0  0  0  0  0  0  0  0  0  0  0
   37.8440   34.4130   39.4340 H   0  0  0  0  0  0  0  0  0  0  0  0
   36.3520   32.6240   39.6720 H   0  0  0  0  0  0  0  0  0  0  0  0
   37.1660   29.8700   39.0340 C   0  0  0  0  0  0  0  0  0  0  0  0
   36.8130   30.3490   40.3560 C   0  0  0  0  0  0  0  0  0  0  0  0
   35.5990   29.9280   40.6960 C   0  0  0  0  0  0  0  0  0  0  0  0
   34.7640   29.1480   39.9210 C   0  0  0  0  0  0  0  0  0  0  0  0
   35.1150   28.7100   38.6770 C   0  0  0  0  0  0  0  0  0  0  0  0
   36.3510   29.0910   38.2400 C   0  0  0  0  0  0  0  0  0  0  0  0
   35.4200   30.3350   41.7080 H   0  0  0  0  0  0  0  0  0  0  0  0
   33.8160   28.9210   40.3930 H   0  0  0  0  0  0  0  0  0  0  0  0
   34.4180   28.1030   38.1180 H   0  0  0  0  0  0  0  0  0  0  0  0
   38.3870   30.1120   38.3470 O   0  0  0  0  0  0  0  0  0  0  0  0
   39.2870   30.0210   38.8150 H   0  0  0  0  0  0  0  0  0  0  0  0
   36.6520   28.6230   36.9690 O   0  0  0  0  0  0  0  0  0  0  0  0
   35.6980   28.3180   36.0050 C   0  0  0  0  0  2  0  0  0  0  0  0
   36.2780   28.0940   34.7100 N   0  0  0  0  0  4  0  0  0  0  0  0
   37.2120   27.6270   34.8930 H   0  0  0  0  0  0  0  0  0  0  0  0
   35.4080   27.2430   33.9360 C   0  0  0  0  0  2  0  0  0  0  0  0
   34.6930   27.8470   33.3530 H   0  0  0  0  0  0  0  0  0  0  0  0
   36.4960   29.3140   33.9540 C   0  0  0  0  0  2  0  0  0  0  0  0
   36.0810   30.2190   34.4540 H   0  0  0  0  0  0  0  0  0  0  0  0
   36.9760   27.8560   43.4790 C   0  0  0  0  0  0  0  0  0  0  0  0
   36.9890   26.7620   42.5810 C   0  0  0  0  0  0  0  0  0  0  0  0
   37.8560   26.8570   41.5240 C   0  0  0  0  0  0  0  0  0  0  0  0
   38.5790   27.9750   41.4700 N   0  0  0  0  0  0  0  0  0  0  0  0
   38.5920   29.0210   42.2900 C   0  0  0  0  0  0  0  0  0  0  0  0
   37.7690   28.9170   43.2930 N   0  0  0  0  0  0  0  0  0  0  0  0
   36.3110   27.8320   44.3330 H   0  0  0  0  0  0  0  0  0  0  0  0
   36.3620   25.9050   42.7120 H   0  0  0  0  0  0  0  0  0  0  0  0
   38.0230   25.8100   40.5760 N   0  0  0  0  0  0  0  0  0  0  0  0
   38.3080   24.8100   40.7360 H   0  0  0  0  0  0  0  0  0  0  0  0
   37.8000   26.2350   39.6450 H   0  0  0  0  0  0  0  0  0  0  0  0
  1  2  1  0  0  0  0
  1 40  1  0  0  0  0
  2 11  1  0  0  0  0
  3  2  2  0  0  0  0
  3 12  1  0  0  0  0
  4  3  1  0  0  0  0
  5 10  1  0  0  0  0
  5  4  2  0  0  0  0
  6  5  1  0  0  0  0
  7  8  1  0  0  0  0
  7  6  2  0  0  0  0
  8  9  2  0  0  0  0
  9 10  1  0  0  0  0
 10  1  2  0  0  0  0
 13  4  1  0  0  0  0
 14  6  1  0  0  0  0
 15  7  1  0  0  0  0
 16  8  1  0  0  0  0
 17 18  1  0  0  0  0
 18 19  2  0  0  0  0
 18  9  1  0  0  0  0
 19 23  1  0  0  0  0
 20 24  1  0  0  0  0
 20 19  1  0  0  0  0
 21 20  2  0  0  0  0
 22 21  1  0  0  0  0
 22 17  2  0  0  0  0
 25 21  1  0  0  0  0
 26 27  1  0  0  0  0
 26 17  1  0  0  0  0
 28 22  1  0  0  0  0
 29 28  1  0  0  0  0
 30 31  1  0  0  0  0
 30 29  1  0  0  0  0
 32 30  1  0  0  0  0
 33 32  1  0  0  0  0
 34 35  1  0  0  0  0
 34 30  1  0  0  0  0
 36 42  1  0  0  0  0
 37 43  1  0  0  0  0
 37 36  2  0  0  0  0
 38 37  1  0  0  0  0
 39 38  2  0  0  0  0
 39 40  1  0  0  0  0
 40 41  2  0  0  0  0
 41 36  1  0  0  0  0
 44 45  1  0  0  0  0
 44 38  1  0  0  0  0
 46 44  1  0  0  0  0
M  END
>  <minimizedAffinity>
-6.21696901

$$$$

 OpenBabel03242521573D

 46 49  0  0  0  0  0  0  0  0999 V2000
   38.6570   29.4130   42.3900 C   0  0  0  0  0  0  0  0  0  0  0  0
   38.4460   28.4820   43.4040 C   0  0  0  0  0  0  0  0  0  0  0  0
   37.3080   27.6690   43.4680 C   0  0  0  0  0  0  0  0  0  0  0  0
   36.3340   27.7600   42.5120 C   0  0  0  0  0  0  0  0  0  0  0  0
   36.5180   28.7010   41.4790 C   0  0  0  0  0  0  0  0  0  0  0  0
   35.5040   28.8000   40.5810 C   0  0  0  0  0  0  0  0  0  0  0  0
   35.6210   29.7760   39.5880 C   0  0  0  0  0  0  0  0  0  0  0  0
   36.7910   30.6130   39.5790 C   0  0  0  0  0  0  0  0  0  0  0  0
   37.7290   30.3860   40.5590 C   0  0  0  0  0  0  0  0  0  0  0  0
   37.6860   29.4670   41.5110 C   0  0  0  0  0  0  0  0  0  0  0  0
   39.2230   28.3980   44.1810 H   0  0  0  0  0  0  0  0  0  0  0  0
   37.1700   26.9610   44.2600 H   0  0  0  0  0  0  0  0  0  0  0  0
   35.4490   27.1320   42.5440 H   0  0  0  0  0  0  0  0  0  0  0  0
   34.6430   28.1490   40.6360 H   0  0  0  0  0  0  0  0  0  0  0  0
   34.7820   29.7950   38.9060 H   0  0  0  0  0  0  0  0  0  0  0  0
   36.6070   31.2500   38.7270 H   0  0  0  0  0  0  0  0  0  0  0  0
   39.4280   31.4190   39.3410 C   0  0  0  0  0  0  0  0  0  0  0  0
   38.3840   31.6540   40.3190 C   0  0  0  0  0  0  0  0  0  0  0  0
   38.4480   32.8990   40.7820 C   0  0  0  0  0  0  0  0  0  0  0  0
   39.3710   33.8560   40.4080 C   0  0  0  0  0  0  0  0  0  0  0  0
   40.3490   33.6130   39.4870 C   0  0  0  0  0  0  0  0  0  0  0  0
   40.3610   32.3570   38.9530 C   0  0  0  0  0  0  0  0  0  0  0  0
   37.6220   32.9860   41.5090 H   0  0  0  0  0  0  0  0  0  0  0  0
   39.2430   34.8060   40.9110 H   0  0  0  0  0  0  0  0  0  0  0  0
   41.0430   34.4010   39.2370 H   0  0  0  0  0  0  0  0  0  0  0  0
   39.6610   30.2110   38.6300 O   0  0  0  0  0  0  0  0  0  0  0  0
   38.8970   29.6900   38.2020 H   0  0  0  0  0  0  0  0  0  0  0  0
   41.3790   32.1630   38.0280 O   0  0  0  0  0  0  0  0  0  0  0  0
   41.9270   33.1760   37.2500 C   0  0  0  0  0  2  0  0  0  0  0  0
   43.3050   32.9370   36.9280 N   0  0  0  0  0  4  0  0  0  0  0  0
   43.4440   33.3330   35.9540 H   0  0  0  0  0  0  0  0  0  0  0  0
   44.1460   33.6030   37.8910 C   0  0  0  0  0  2  0  0  0  0  0  0
   44.3760   32.9320   38.7360 H   0  0  0  0  0  0  0  0  0  0  0  0
   43.6630   31.5300   36.9220 C   0  0  0  0  0  2  0  0  0  0  0  0
   42.8380   30.8670   37.2730 H   0  0  0  0  0  0  0  0  0  0  0  0
   41.7740   31.4650   42.4480 C   0  0  0  0  0  0  0  0  0  0  0  0
   42.6020   30.6700   41.6190 C   0  0  0  0  0  0  0  0  0  0  0  0
   42.0300   29.5380   41.1000 C   0  0  0  0  0  0  0  0  0  0  0  0
   40.7610   29.3240   41.4440 N   0  0  0  0  0  0  0  0  0  0  0  0
   39.9550   30.0430   42.2180 C   0  0  0  0  0  0  0  0  0  0  0  0
   40.5070   31.1180   42.7010 N   0  0  0  0  0  0  0  0  0  0  0  0
   42.1750   32.3720   42.8820 H   0  0  0  0  0  0  0  0  0  0  0  0
   43.6180   30.9300   41.4050 H   0  0  0  0  0  0  0  0  0  0  0  0
   42.7200   28.6760   40.2030 N   0  0  0  0  0  0  0  0  0  0  0  0
   43.1540   28.8990   39.2710 H   0  0  0  0  0  0  0  0  0  0  0  0
   42.7160   27.7340   40.6600 H   0  0  0  0  0  0  0  0  0  0  0  0
  1  2  1  0  0  0  0
  2  3  2  0  0  0  0
  2 11  1  0  0  0  0
  3 12  1  0  0  0  0
  4 13  1  0  0  0  0
  4  3  1  0  0  0  0
  5 10  1  0  0  0  0
  5  4  2  0  0  0  0
  6 14  1  0  0  0  0
  6  5  1  0  0  0  0
  7  6  2  0  0  0  0
  8  7  1  0  0  0  0
  8  9  2  0  0  0  0
  9 10  1  0  0  0  0
 10  1  2  0  0  0  0
 15  7  1  0  0  0  0
 16  8  1  0  0  0  0
 17 18  1  0  0  0  0
 18  9  1  0  0  0  0
 18 19  2  0  0  0  0
 19 23  1  0  0  0  0
 20 19  1  0  0  0  0
 20 24  1  0  0  0  0
 21 20  2  0  0  0  0
 22 17  2  0  0  0  0
 22 21  1  0  0  0  0
 25 21  1  0  0  0  0
 26 17  1  0  0  0  0
 27 26  1  0  0  0  0
 28 22  1  0  0  0  0
 29 28  1  0  0  0  0
 30 29  1  0  0  0  0
 30 32  1  0  0  0  0
 31 30  1  0  0  0  0
 32 33  1  0  0  0  0
 34 30  1  0  0  0  0
 34 35  1  0  0  0  0
 36 41  1  0  0  0  0
 36 42  1  0  0  0  0
 37 36  2  0  0  0  0
 38 39  2  0  0  0  0
 38 37  1  0  0  0  0
 39 40  1  0  0  0  0
 40  1  1  0  0  0  0
 40 41  2  0  0  0  0
 43 37  1  0  0  0  0
 44 46  1  0  0  0  0
 44 38  1  0  0  0  0
 45 44  1  0  0  0  0
M  END
>  <minimizedAffinity>
-6.21673107

$$$$

 OpenBabel03242521573D

 46 49  0  0  0  0  0  0  0  0999 V2000
   36.8050   27.0180   39.7950 C   0  0  0  0  0  0  0  0  0  0  0  0
   36.8610   25.6280   39.7280 C   0  0  0  0  0  0  0  0  0  0  0  0
   37.0380   24.8170   40.8550 C   0  0  0  0  0  0  0  0  0  0  0  0
   37.1660   25.3720   42.0980 C   0  0  0  0  0  0  0  0  0  0  0  0
   37.1220   26.7780   42.1940 C   0  0  0  0  0  0  0  0  0  0  0  0
   37.3090   27.2930   43.4360 C   0  0  0  0  0  0  0  0  0  0  0  0
   37.3460   28.6840   43.5550 C   0  0  0  0  0  0  0  0  0  0  0  0
   37.1950   29.4810   42.3660 C   0  0  0  0  0  0  0  0  0  0  0  0
   37.0140   28.8060   41.1800 C   0  0  0  0  0  0  0  0  0  0  0  0
   36.9480   27.4950   41.0080 C   0  0  0  0  0  0  0  0  0  0  0  0
   36.7590   25.1670   38.7320 H   0  0  0  0  0  0  0  0  0  0  0  0
   37.0790   23.7490   40.7750 H   0  0  0  0  0  0  0  0  0  0  0  0
   37.2980   24.7560   42.9820 H   0  0  0  0  0  0  0  0  0  0  0  0
   37.4230   26.6490   44.2970 H   0  0  0  0  0  0  0  0  0  0  0  0
   37.4920   29.0240   44.5700 H   0  0  0  0  0  0  0  0  0  0  0  0
   37.2640   30.4850   42.7550 H   0  0  0  0  0  0  0  0  0  0  0  0
   38.7550   30.0530   40.2590 C   0  0  0  0  0  0  0  0  0  0  0  0
   37.3130   29.9800   40.3900 C   0  0  0  0  0  0  0  0  0  0  0  0
   36.7420   31.0670   39.8780 C   0  0  0  0  0  0  0  0  0  0  0  0
   37.4010   32.1340   39.3010 C   0  0  0  0  0  0  0  0  0  0  0  0
   38.7610   32.1840   39.1910 C   0  0  0  0  0  0  0  0  0  0  0  0
   39.4370   31.1080   39.6890 C   0  0  0  0  0  0  0  0  0  0  0  0
   35.6560   30.9220   40.0170 H   0  0  0  0  0  0  0  0  0  0  0  0
   36.7410   32.9160   38.9480 H   0  0  0  0  0  0  0  0  0  0  0  0
   39.2190   33.0470   38.7300 H   0  0  0  0  0  0  0  0  0  0  0  0
   39.6910   29.0720   40.6840 O   0  0  0  0  0  0  0  0  0  0  0  0
   39.5460   28.0810   40.4950 H   0  0  0  0  0  0  0  0  0  0  0  0
   40.8140   31.2140   39.5560 O   0  0  0  0  0  0  0  0  0  0  0  0
   41.6360   31.8650   40.4690 C   0  0  0  0  0  2  0  0  0  0  0  0
   42.0610   31.0050   41.5370 N   0  0  0  0  0  4  0  0  0  0  0  0
   41.1910   30.4820   41.8450 H   0  0  0  0  0  0  0  0  0  0  0  0
   43.0730   30.1010   41.0530 C   0  0  0  0  0  2  0  0  0  0  0  0
   44.0790   30.5340   41.1930 H   0  0  0  0  0  0  0  0  0  0  0  0
   42.6100   31.7220   42.6740 C   0  0  0  0  0  2  0  0  0  0  0  0
   42.7130   32.8160   42.4930 H   0  0  0  0  0  0  0  0  0  0  0  0
   36.3150   28.9130   36.6170 C   0  0  0  0  0  0  0  0  0  0  0  0
   34.9180   29.1380   36.6830 C   0  0  0  0  0  0  0  0  0  0  0  0
   34.2800   28.6560   37.7970 C   0  0  0  0  0  0  0  0  0  0  0  0
   35.0560   28.0310   38.6800 N   0  0  0  0  0  0  0  0  0  0  0  0
   36.3640   27.8000   38.6520 C   0  0  0  0  0  0  0  0  0  0  0  0
   36.9610   28.2660   37.5940 N   0  0  0  0  0  0  0  0  0  0  0  0
   36.8690   29.2750   35.7610 H   0  0  0  0  0  0  0  0  0  0  0  0
   34.3830   29.6530   35.9120 H   0  0  0  0  0  0  0  0  0  0  0  0
   32.8920   28.8600   38.0280 N   0  0  0  0  0  0  0  0  0  0  0  0
   32.3560   29.7630   38.0960 H   0  0  0  0  0  0  0  0  0  0  0  0
   32.4790   27.9020   38.1240 H   0  0  0  0  0  0  0  0  0  0  0  0
  1 10  1  0  0  0  0
  2  1  2  0  0  0  0
  2  3  1  0  0  0  0
  3  4  2  0  0  0  0
  4  5  1  0  0  0  0
  4 13  1  0  0  0  0
  5  6  1  0  0  0  0
  6  7  2  0  0  0  0
  6 14  1  0  0  0  0
  7 15  1  0  0  0  0
  8 16  1  0  0  0  0
  8  7  1  0  0  0  0
  9  8  2  0  0  0  0
 10  9  1  0  0  0  0
 10  5  2  0  0  0  0
 11  2  1  0  0  0  0
 12  3  1  0  0  0  0
 17 18  1  0  0  0  0
 17 26  1  0  0  0  0
 18  9  1  0  0  0  0
 19 23  1  0  0  0  0
 19 18  2  0  0  0  0
 20 19  1  0  0  0  0
 21 20  2  0  0  0  0
 21 22  1  0  0  0  0
 22 17  2  0  0  0  0
 24 20  1  0  0  0  0
 25 21  1  0  0  0  0
 27 26  1  0  0  0  0
 28 22  1  0  0  0  0
 28 29  1  0  0  0  0
 29 30  1  0  0  0  0
 30 31  1  0  0  0  0
 30 34  1  0  0  0  0
 32 33  1  0  0  0  0
 32 30  1  0  0  0  0
 35 34  1  0  0  0  0
 36 37  2  0  0  0  0
 36 41  1  0  0  0  0
 37 38  1  0  0  0  0
 38 44  1  0  0  0  0
 38 39  2  0  0  0  0
 40 39  1  0  0  0  0
 40  1  1  0  0  0  0
 41 40  2  0  0  0  0
 42 36  1  0  0  0  0
 43 37  1  0  0  0  0
 44 45  1  0  0  0  0
 44 46  1  0  0  0  0
M  END
>  <minimizedAffinity>
-6.15644836

$$$$

 OpenBabel03242521573D

 46 49  0  0  0  0  0  0  0  0999 V2000
   37.6400   29.3270   37.8600 C   0  0  0  0  0  0  0  0  0  0  0  0
   37.8070   29.1270   36.4930 C   0  0  0  0  0  0  0  0  0  0  0  0
   36.7360   28.9050   35.6180 C   0  0  0  0  0  0  0  0  0  0  0  0
   35.4510   28.8760   36.0860 C   0  0  0  0  0  0  0  0  0  0  0  0
   35.2550   29.0680   37.4690 C   0  0  0  0  0  0  0  0  0  0  0  0
   33.9710   28.9760   37.9030 C   0  0  0  0  0  0  0  0  0  0  0  0
   33.7500   29.0860   39.2780 C   0  0  0  0  0  0  0  0  0  0  0  0
   34.8820   29.2790   40.1440 C   0  0  0  0  0  0  0  0  0  0  0  0
   36.1210   29.3500   39.5490 C   0  0  0  0  0  0  0  0  0  0  0  0
   36.3910   29.2740   38.2550 C   0  0  0  0  0  0  0  0  0  0  0  0
   38.8370   29.1480   36.1010 H   0  0  0  0  0  0  0  0  0  0  0  0
   36.8920   28.7530   34.5700 H   0  0  0  0  0  0  0  0  0  0  0  0
   34.6100   28.7120   35.4200 H   0  0  0  0  0  0  0  0  0  0  0  0
   33.1560   28.8250   37.2090 H   0  0  0  0  0  0  0  0  0  0  0  0
   32.7060   29.0090   39.5510 H   0  0  0  0  0  0  0  0  0  0  0  0
   34.4170   29.3260   41.1180 H   0  0  0  0  0  0  0  0  0  0  0  0
   36.8590   27.7170   41.0400 C   0  0  0  0  0  0  0  0  0  0  0  0
   36.8100   29.1470   40.8040 C   0  0  0  0  0  0  0  0  0  0  0  0
   37.2730   29.8100   41.8590 C   0  0  0  0  0  0  0  0  0  0  0  0
   37.7380   29.2470   43.0310 C   0  0  0  0  0  0  0  0  0  0  0  0
   37.7740   27.8980   43.2330 C   0  0  0  0  0  0  0  0  0  0  0  0
   37.3180   27.1310   42.2000 C   0  0  0  0  0  0  0  0  0  0  0  0
   37.2010   30.8790   41.5890 H   0  0  0  0  0  0  0  0  0  0  0  0
   38.0700   29.9730   43.7630 H   0  0  0  0  0  0  0  0  0  0  0  0
   38.1480   27.5170   44.1720 H   0  0  0  0  0  0  0  0  0  0  0  0
   36.4560   26.6980   40.1340 O   0  0  0  0  0  0  0  0  0  0  0  0
   36.7220   26.7260   39.1510 H   0  0  0  0  0  0  0  0  0  0  0  0
   37.3700   25.7680   42.4630 O   0  0  0  0  0  0  0  0  0  0  0  0
   38.4850   24.9720   42.2240 C   0  0  0  0  0  2  0  0  0  0  0  0
   38.5730   24.5460   40.8560 N   0  0  0  0  0  4  0  0  0  0  0  0
   37.8670   25.1350   40.3280 H   0  0  0  0  0  0  0  0  0  0  0  0
   39.9120   24.7690   40.3700 C   0  0  0  0  0  2  0  0  0  0  0  0
   40.5390   23.8770   40.5380 H   0  0  0  0  0  0  0  0  0  0  0  0
   38.2570   23.1420   40.6650 C   0  0  0  0  0  2  0  0  0  0  0  0
   38.1010   22.5940   41.6230 H   0  0  0  0  0  0  0  0  0  0  0  0
   40.6570   29.8930   39.9840 C   0  0  0  0  0  0  0  0  0  0  0  0
   40.6980   31.3090   39.9730 C   0  0  0  0  0  0  0  0  0  0  0  0
   39.6970   31.9370   39.2790 C   0  0  0  0  0  0  0  0  0  0  0  0
   38.8090   31.1350   38.6950 N   0  0  0  0  0  0  0  0  0  0  0  0
   38.7400   29.8080   38.6810 C   0  0  0  0  0  0  0  0  0  0  0  0
   39.6910   29.2220   39.3470 N   0  0  0  0  0  0  0  0  0  0  0  0
   41.4220   29.3460   40.5200 H   0  0  0  0  0  0  0  0  0  0  0  0
   41.4620   31.8640   40.4760 H   0  0  0  0  0  0  0  0  0  0  0  0
   39.5740   33.3540   39.2320 N   0  0  0  0  0  0  0  0  0  0  0  0
   39.4710   34.0370   40.0240 H   0  0  0  0  0  0  0  0  0  0  0  0
   39.6070   33.6050   38.2150 H   0  0  0  0  0  0  0  0  0  0  0  0
  1 10  1  0  0  0  0
  1 40  1  0  0  0  0
  2  1  2  0  0  0  0
  3  4  2  0  0  0  0
  3  2  1  0  0  0  0
  4  5  1  0  0  0  0
  5  6  2  0  0  0  0
  5 10  1  0  0  0  0
  6  7  1  0  0  0  0
  7 15  1  0  0  0  0
  7  8  2  0  0  0  0
  8 16  1  0  0  0  0
  9  8  1  0  0  0  0
  9 18  1  0  0  0  0
 10  9  2  0  0  0  0
 11  2  1  0  0  0  0
 12  3  1  0  0  0  0
 13  4  1  0  0  0  0
 14  6  1  0  0  0  0
 17 22  1  0  0  0  0
 18 17  2  0  0  0  0
 18 19  1  0  0  0  0
 19 20  2  0  0  0  0
 20 21  1  0  0  0  0
 20 24  1  0  0  0  0
 21 25  1  0  0  0  0
 22 28  1  0  0  0  0
 22 21  2  0  0  0  0
 23 19  1  0  0  0  0
 26 17  1  0  0  0  0
 27 26  1  0  0  0  0
 29 28  1  0  0  0  0
 30 29  1  0  0  0  0
 31 30  1  0  0  0  0
 32 33  1  0  0  0  0
 32 30  1  0  0  0  0
 34 30  1  0  0  0  0
 34 35  1  0  0  0  0
 36 42  1  0  0  0  0
 37 36  1  0  0  0  0
 37 43  1  0  0  0  0
 38 37  2  0  0  0  0
 39 38  1  0  0  0  0
 40 39  2  0  0  0  0
 40 41  1  0  0  0  0
 41 36  2  0  0  0  0
 44 38  1  0  0  0  0
 44 45  1  0  0  0  0
 46 44  1  0  0  0  0
M  END
>  <minimizedAffinity>
-6.14398813

$$$$

 OpenBabel03242521573D

 46 49  0  0  0  0  0  0  0  0999 V2000
   37.1290   29.1830   36.8570 C   0  0  0  0  0  0  0  0  0  0  0  0
   37.3290   29.0770   35.4840 C   0  0  0  0  0  0  0  0  0  0  0  0
   36.2770   28.9600   34.5670 C   0  0  0  0  0  0  0  0  0  0  0  0
   34.9780   28.9450   34.9970 C   0  0  0  0  0  0  0  0  0  0  0  0
   34.7480   29.0410   36.3840 C   0  0  0  0  0  0  0  0  0  0  0  0
   33.4500   28.9660   36.7750 C   0  0  0  0  0  0  0  0  0  0  0  0
   33.1920   28.9830   38.1480 C   0  0  0  0  0  0  0  0  0  0  0  0
   34.3040   29.0700   39.0570 C   0  0  0  0  0  0  0  0  0  0  0  0
   35.5620   29.1380   38.5010 C   0  0  0  0  0  0  0  0  0  0  0  0
   35.8670   29.1480   37.2140 C   0  0  0  0  0  0  0  0  0  0  0  0
   38.3700   29.0880   35.1230 H   0  0  0  0  0  0  0  0  0  0  0  0
   36.4580   28.8790   33.5140 H   0  0  0  0  0  0  0  0  0  0  0  0
   34.1520   28.8610   34.2980 H   0  0  0  0  0  0  0  0  0  0  0  0
   32.6510   28.8970   36.0510 H   0  0  0  0  0  0  0  0  0  0  0  0
   32.1390   28.9250   38.3870 H   0  0  0  0  0  0  0  0  0  0  0  0
   33.8130   29.0620   40.0180 H   0  0  0  0  0  0  0  0  0  0  0  0
   36.3410   27.3750   39.8130 C   0  0  0  0  0  0  0  0  0  0  0  0
   36.2060   28.8180   39.7570 C   0  0  0  0  0  0  0  0  0  0  0  0
   36.5760   29.3680   40.9100 C   0  0  0  0  0  0  0  0  0  0  0  0
   37.0250   28.6880   42.0240 C   0  0  0  0  0  0  0  0  0  0  0  0
   37.1420   27.3280   42.0580 C   0  0  0  0  0  0  0  0  0  0  0  0
   36.7850   26.6740   40.9140 C   0  0  0  0  0  0  0  0  0  0  0  0
   36.4440   30.4560   40.7720 H   0  0  0  0  0  0  0  0  0  0  0  0
   37.2730   29.3330   42.8580 H   0  0  0  0  0  0  0  0  0  0  0  0
   37.4980   26.8540   42.9600 H   0  0  0  0  0  0  0  0  0  0  0  0
   36.0480   26.4590   38.7680 O   0  0  0  0  0  0  0  0  0  0  0  0
   36.3550   26.6280   37.8110 H   0  0  0  0  0  0  0  0  0  0  0  0
   36.9170   25.2950   41.0070 O   0  0  0  0  0  0  0  0  0  0  0  0
   37.0970   24.6090   42.2020 C   0  0  0  0  0  2  0  0  0  0  0  0
   38.2480   23.7500   42.1750 N   0  0  0  0  0  4  0  0  0  0  0  0
   37.9720   22.8860   42.7240 H   0  0  0  0  0  0  0  0  0  0  0  0
   38.5710   23.4230   40.8080 C   0  0  0  0  0  2  0  0  0  0  0  0
   39.2850   24.1540   40.3930 H   0  0  0  0  0  0  0  0  0  0  0  0
   39.4260   24.3410   42.7820 C   0  0  0  0  0  2  0  0  0  0  0  0
   39.2790   25.4060   43.0760 H   0  0  0  0  0  0  0  0  0  0  0  0
   40.1250   29.4880   39.0620 C   0  0  0  0  0  0  0  0  0  0  0  0
   40.1630   30.8950   39.2250 C   0  0  0  0  0  0  0  0  0  0  0  0
   39.1670   31.6020   38.6030 C   0  0  0  0  0  0  0  0  0  0  0  0
   38.2860   30.8760   37.9170 N   0  0  0  0  0  0  0  0  0  0  0  0
   38.2200   29.5610   37.7410 C   0  0  0  0  0  0  0  0  0  0  0  0
   39.1660   28.8990   38.3400 N   0  0  0  0  0  0  0  0  0  0  0  0
   40.8860   28.8800   39.5350 H   0  0  0  0  0  0  0  0  0  0  0  0
   40.9220   31.3850   39.7990 H   0  0  0  0  0  0  0  0  0  0  0  0
   39.0420   33.0130   38.7280 N   0  0  0  0  0  0  0  0  0  0  0  0
   38.9290   33.5950   39.5970 H   0  0  0  0  0  0  0  0  0  0  0  0
   39.0830   33.3870   37.7500 H   0  0  0  0  0  0  0  0  0  0  0  0
  1 10  1  0  0  0  0
  1 40  1  0  0  0  0
  2  1  2  0  0  0  0
  3  4  2  0  0  0  0
  3  2  1  0  0  0  0
  4  5  1  0  0  0  0
  5  6  2  0  0  0  0
  5 10  1  0  0  0  0
  6  7  1  0  0  0  0
  7 15  1  0  0  0  0
  7  8  2  0  0  0  0
  8 16  1  0  0  0  0
  9  8  1  0  0  0  0
  9 18  1  0  0  0  0
 10  9  2  0  0  0  0
 11  2  1  0  0  0  0
 12  3  1  0  0  0  0
 13  4  1  0  0  0  0
 14  6  1  0  0  0  0
 17 22  1  0  0  0  0
 18 17  2  0  0  0  0
 18 19  1  0  0  0  0
 19 20  2  0  0  0  0
 20 21  1  0  0  0  0
 20 24  1  0  0  0  0
 21 25  1  0  0  0  0
 22 28  1  0  0  0  0
 22 21  2  0  0  0  0
 23 19  1  0  0  0  0
 26 17  1  0  0  0  0
 27 26  1  0  0  0  0
 28 29  1  0  0  0  0
 30 29  1  0  0  0  0
 30 31  1  0  0  0  0
 30 34  1  0  0  0  0
 32 30  1  0  0  0  0
 33 32  1  0  0  0  0
 34 35  1  0  0  0  0
 36 37  1  0  0  0  0
 36 42  1  0  0  0  0
 37 43  1  0  0  0  0
 38 44  1  0  0  0  0
 38 37  2  0  0  0  0
 39 38  1  0  0  0  0
 40 39  2  0  0  0  0
 40 41  1  0  0  0  0
 41 36  2  0  0  0  0
 44 45  1  0  0  0  0
 46 44  1  0  0  0  0
M  END
>  <minimizedAffinity>
-6.1264143

$$$$
