
 OpenBabel03242521543D

 46 49  0  0  0  0  0  0  0  0999 V2000
   45.8830   32.3290   46.0480 C   0  0  0  0  0  0  0  0  0  0  0  0
   45.5390   33.0200   47.2060 C   0  0  0  0  0  0  0  0  0  0  0  0
   45.7240   32.4940   48.4910 C   0  0  0  0  0  0  0  0  0  0  0  0
   46.2640   31.2490   48.6620 C   0  0  0  0  0  0  0  0  0  0  0  0
   46.6130   30.5240   47.5040 C   0  0  0  0  0  0  0  0  0  0  0  0
   47.0940   29.2720   47.7140 C   0  0  0  0  0  0  0  0  0  0  0  0
   47.3790   28.4980   46.5860 C   0  0  0  0  0  0  0  0  0  0  0  0
   47.1420   29.0640   45.2850 C   0  0  0  0  0  0  0  0  0  0  0  0
   46.6510   30.3490   45.2410 C   0  0  0  0  0  0  0  0  0  0  0  0
   46.3820   31.1370   46.2700 C   0  0  0  0  0  0  0  0  0  0  0  0
   45.1030   34.0250   47.0840 H   0  0  0  0  0  0  0  0  0  0  0  0
   45.4490   33.0470   49.3660 H   0  0  0  0  0  0  0  0  0  0  0  0
   46.4190   30.8310   49.6510 H   0  0  0  0  0  0  0  0  0  0  0  0
   47.2490   28.8920   48.7140 H   0  0  0  0  0  0  0  0  0  0  0  0
   47.7620   27.5160   46.8260 H   0  0  0  0  0  0  0  0  0  0  0  0
   47.4440   28.2610   44.6290 H   0  0  0  0  0  0  0  0  0  0  0  0
   44.9270   29.6690   43.8260 C   0  0  0  0  0  0  0  0  0  0  0  0
   46.2660   30.2250   43.8520 C   0  0  0  0  0  0  0  0  0  0  0  0
   46.7600   30.3100   42.6210 C   0  0  0  0  0  0  0  0  0  0  0  0
   46.1180   29.9260   41.4610 C   0  0  0  0  0  0  0  0  0  0  0  0
   44.8580   29.4010   41.4590 C   0  0  0  0  0  0  0  0  0  0  0  0
   44.2650   29.2770   42.6820 C   0  0  0  0  0  0  0  0  0  0  0  0
   47.7700   30.7440   42.7390 H   0  0  0  0  0  0  0  0  0  0  0  0
   46.7040   30.0820   40.5640 H   0  0  0  0  0  0  0  0  0  0  0  0
   44.4080   29.1180   40.5190 H   0  0  0  0  0  0  0  0  0  0  0  0
   44.0870   29.4410   44.9490 O   0  0  0  0  0  0  0  0  0  0  0  0
   43.9730   30.1420   45.6800 H   0  0  0  0  0  0  0  0  0  0  0  0
   42.9890   28.7330   42.6220 O   0  0  0  0  0  0  0  0  0  0  0  0
   41.8610   29.4360   42.2160 C   0  0  0  0  0  0  0  0  0  0  0  0
   41.3290   30.2680   43.2580 N   0  0  0  0  0  0  0  0  0  0  0  0
   42.1700   30.7060   43.7330 H   0  0  0  0  0  0  0  0  0  0  0  0
   40.4710   31.2720   42.6800 C   0  0  0  0  0  0  0  0  0  0  0  0
   39.4290   30.9120   42.6320 H   0  0  0  0  0  0  0  0  0  0  0  0
   40.5560   29.5360   44.2450 C   0  0  0  0  0  0  0  0  0  0  0  0
   40.4090   28.4640   43.9790 H   0  0  0  0  0  0  0  0  0  0  0  0
   45.2780   34.0370   42.7850 C   0  0  0  0  0  0  0  0  0  0  0  0
   46.5950   34.4640   42.4870 C   0  0  0  0  0  0  0  0  0  0  0  0
   47.5620   34.1160   43.3940 C   0  0  0  0  0  0  0  0  0  0  0  0
   47.1410   33.4200   44.4480 N   0  0  0  0  0  0  0  0  0  0  0  0
   45.9180   33.0050   44.7610 C   0  0  0  0  0  0  0  0  0  0  0  0
   45.0090   33.3360   43.8910 N   0  0  0  0  0  0  0  0  0  0  0  0
   44.4750   34.2820   42.1010 H   0  0  0  0  0  0  0  0  0  0  0  0
   46.8310   35.0260   41.6070 H   0  0  0  0  0  0  0  0  0  0  0  0
   48.9370   34.4220   43.1970 N   0  0  0  0  0  0  0  0  0  0  0  0
   49.5700   34.1530   42.4010 H   0  0  0  0  0  0  0  0  0  0  0  0
   49.2210   34.9900   44.0310 H   0  0  0  0  0  0  0  0  0  0  0  0
  1 10  2  0  0  0  0
  1  2  1  0  0  0  0
  2  3  2  0  0  0  0
  3  4  1  0  0  0  0
  3 12  1  0  0  0  0
  4 13  1  0  0  0  0
  5  6  1  0  0  0  0
  5  4  2  0  0  0  0
  6 14  1  0  0  0  0
  7 15  1  0  0  0  0
  7  6  2  0  0  0  0
  8  7  1  0  0  0  0
  9  8  2  0  0  0  0
  9 10  1  0  0  0  0
 10  5  1  0  0  0  0
 11  2  1  0  0  0  0
 16  8  1  0  0  0  0
 17 18  1  0  0  0  0
 17 26  1  0  0  0  0
 18  9  1  0  0  0  0
 19 23  1  0  0  0  0
 19 18  2  0  0  0  0
 20 19  1  0  0  0  0
 21 20  2  0  0  0  0
 21 22  1  0  0  0  0
 22 17  2  0  0  0  0
 24 20  1  0  0  0  0
 25 21  1  0  0  0  0
 26 27  1  0  0  0  0
 28 22  1  0  0  0  0
 29 28  1  0  0  0  0
 29 30  1  0  0  0  0
 30 31  1  0  0  0  0
 30 34  1  0  0  0  0
 32 30  1  0  0  0  0
 33 32  1  0  0  0  0
 35 34  1  0  0  0  0
 36 41  1  0  0  0  0
 37 36  2  0  0  0  0
 37 38  1  0  0  0  0
 38 39  2  0  0  0  0
 39 40  1  0  0  0  0
 40  1  1  0  0  0  0
 41 40  2  0  0  0  0
 42 36  1  0  0  0  0
 43 37  1  0  0  0  0
 44 38  1  0  0  0  0
 44 46  1  0  0  0  0
 45 44  1  0  0  0  0
M  END
>  <minimizedAffinity>
-5.11110449

>  <minimizedRMSD>
0.976298273

$$$$
