
 OpenBabel03242521583D

 31 32  0  0  0  0  0  0  0  0999 V2000
   46.9130   34.9050   42.2140 C   0  0  0  0  0  0  0  0  0  0  0  0
   48.1170   35.5490   42.0680 C   0  0  0  0  0  0  0  0  0  0  0  0
   48.9190   35.5130   40.9350 C   0  0  0  0  0  0  0  0  0  0  0  0
   48.4750   34.7720   39.8580 C   0  0  0  0  0  0  0  0  0  0  0  0
   47.2880   34.1420   40.0060 C   0  0  0  0  0  0  0  0  0  0  0  0
   46.5450   34.1990   41.1120 N   0  0  0  0  0  0  0  0  0  0  0  0
   48.4030   36.1190   42.9710 H   0  0  0  0  0  0  0  0  0  0  0  0
   49.8320   36.0990   41.0430 H   0  0  0  0  0  0  0  0  0  0  0  0
   49.2230   34.8460   39.0890 H   0  0  0  0  0  0  0  0  0  0  0  0
   44.4580   35.7470   44.9360 C   0  0  0  0  0  0  0  0  0  0  0  0
   45.1390   35.8690   43.7140 C   0  0  0  0  0  0  0  0  0  0  0  0
   46.1070   34.9470   43.4190 C   0  0  0  0  0  0  0  0  0  0  0  0
   46.3520   33.9540   44.3400 N   0  0  0  0  0  0  0  0  0  0  0  0
   45.6880   33.8550   45.5060 C   0  0  0  0  0  0  0  0  0  0  0  0
   44.7430   34.7600   45.7880 N   0  0  0  0  0  0  0  0  0  0  0  0
   43.7070   36.5290   45.0770 H   0  0  0  0  0  0  0  0  0  0  0  0
   44.9890   36.6180   42.9650 H   0  0  0  0  0  0  0  0  0  0  0  0
   45.9180   33.0560   46.1960 H   0  0  0  0  0  0  0  0  0  0  0  0
   46.8260   33.3980   38.9360 O   0  0  0  0  0  0  0  0  0  0  0  0
   48.1470   34.6520   37.0260 O   0  0  0  0  0  0  0  0  0  0  0  0
   47.6640   33.2930   37.4450 P   0  0  1  0  0  0  0  0  0  0  0  0
   48.9560   32.2360   37.6300 O   0  0  0  0  0  0  0  0  0  0  0  0
   48.6630   31.3150   37.4200 H   0  0  0  0  0  0  0  0  0  0  0  0
   46.5490   32.7070   36.2820 O   0  0  0  0  0  0  0  0  0  0  0  0
   45.2810   33.1130   36.6400 C   0  0  0  0  0  0  0  0  0  0  0  0
   44.2820   32.1650   36.1990 N   0  0  0  0  0  0  0  0  0  0  0  0
   43.4580   32.6610   35.7870 H   0  0  0  0  0  0  0  0  0  0  0  0
   44.8010   31.2080   35.2550 C   0  0  0  0  0  0  0  0  0  0  0  0
   45.6680   31.6340   34.7240 H   0  0  0  0  0  0  0  0  0  0  0  0
   43.7770   31.4170   37.3510 C   0  0  0  0  0  0  0  0  0  0  0  0
   44.3960   30.5060   37.4800 H   0  0  0  0  0  0  0  0  0  0  0  0
  1 12  1  0  0  0  0
  2  1  1  0  0  0  0
  2  7  1  0  0  0  0
  3  8  1  0  0  0  0
  3  2  2  0  0  0  0
  4  5  2  0  0  0  0
  4  3  1  0  0  0  0
  5  6  1  0  0  0  0
  6  1  2  0  0  0  0
  9  4  1  0  0  0  0
 10 16  1  0  0  0  0
 10 15  1  0  0  0  0
 11 10  2  0  0  0  0
 12 11  1  0  0  0  0
 12 13  2  0  0  0  0
 13 14  1  0  0  0  0
 14 15  2  0  0  0  0
 14 18  1  0  0  0  0
 17 11  1  0  0  0  0
 19  5  1  0  0  0  0
 21 20  2  6  0  0  0
 21 22  1  0  0  0  0
 21 19  1  0  0  0  0
 23 22  1  0  0  0  0
 24 25  1  0  0  0  0
 24 21  1  0  0  0  0
 26 25  1  0  0  0  0
 26 30  1  0  0  0  0
 27 26  1  0  0  0  0
 28 26  1  0  0  0  0
 29 28  1  0  0  0  0
 30 31  1  0  0  0  0
M  END
>  <minimizedAffinity>
-5.14868546

>  <minimizedRMSD>
0.941126823

$$$$
