
 OpenBabel03242512553D

 27 27  0  0  0  0  0  0  0  0999 V2000
   35.7490   29.6430   40.7390 C   0  0  0  0  0  0  0  0  0  0  0  0
   34.7960   29.4580   41.3050 H   0  0  0  0  0  0  0  0  0  0  0  0
   35.4690   29.6510   39.6660 H   0  0  0  0  0  0  0  0  0  0  0  0
   36.8540   28.1450   42.3540 C   0  0  0  0  0  3  0  0  0  0  0  0
   36.6350   28.5060   41.1000 C   0  0  0  0  0  3  0  0  0  0  0  0
   37.7430   27.0080   42.5950 C   0  0  0  0  0  0  0  0  0  0  0  0
   38.8550   27.2110   43.4270 C   0  0  0  0  0  0  0  0  0  0  0  0
   39.7290   26.1470   43.6770 C   0  0  0  0  0  0  0  0  0  0  0  0
   39.4480   24.9520   43.0910 N   0  0  0  0  0  0  0  0  0  0  0  0
   38.3590   24.7850   42.2890 C   0  0  0  0  0  0  0  0  0  0  0  0
   37.5330   25.8080   42.0560 N   0  0  0  0  0  0  0  0  0  0  0  0
   39.1020   28.1480   43.9040 H   0  0  0  0  0  0  0  0  0  0  0  0
   40.5770   26.2930   44.3100 H   0  0  0  0  0  0  0  0  0  0  0  0
   38.2180   23.7920   41.8650 H   0  0  0  0  0  0  0  0  0  0  0  0
   36.2260   30.8490   41.1960 O   0  0  0  0  0  0  0  0  0  0  0  0
   36.7050   31.1040   38.6900 O   0  0  0  0  0  0  0  0  0  0  0  0
   37.1390   31.6560   40.0080 P   0  0  1  0  0  0  0  0  0  0  0  0
   36.7620   33.3160   40.0660 O   0  0  0  0  0  0  0  0  0  0  0  0
   37.3240   33.7720   40.7400 H   0  0  0  0  0  0  0  0  0  0  0  0
   38.7680   31.5110   40.2360 O   0  0  0  0  0  0  0  0  0  0  0  0
   39.3360   32.0870   41.3120 C   0  0  0  0  0  2  0  0  0  0  0  0
   40.3910   33.0250   41.1760 N   0  0  0  0  0  4  0  0  0  0  0  0
   40.6220   33.4530   42.1510 H   0  0  0  0  0  0  0  0  0  0  0  0
   41.6190   32.3470   40.8180 C   0  0  0  0  0  2  0  0  0  0  0  0
   42.0350   32.7580   39.8860 H   0  0  0  0  0  0  0  0  0  0  0  0
   40.1630   34.1550   40.3310 C   0  0  0  0  0  2  0  0  0  0  0  0
   40.8280   34.1660   39.4350 H   0  0  0  0  0  0  0  0  0  0  0  0
  1  5  1  0  0  0  0
  1 15  1  0  0  0  0
  1  2  1  0  0  0  0
  3  1  1  0  0  0  0
  4  6  1  0  0  0  0
  5  4  2  0  0  0  0
  6  7  1  0  0  0  0
  7  8  2  0  0  0  0
  7 12  1  0  0  0  0
  8 13  1  0  0  0  0
  9  8  1  0  0  0  0
 10  9  2  0  0  0  0
 11 10  1  0  0  0  0
 11  6  2  0  0  0  0
 14 10  1  0  0  0  0
 17 16  2  6  0  0  0
 17 18  1  0  0  0  0
 17 20  1  0  0  0  0
 17 15  1  0  0  0  0
 18 19  1  0  0  0  0
 20 21  1  0  0  0  0
 22 21  1  0  0  0  0
 22 23  1  0  0  0  0
 24 22  1  0  0  0  0
 25 24  1  0  0  0  0
 26 22  1  0  0  0  0
 27 26  1  0  0  0  0
M  END
>  <minimizedAffinity>
-4.65846729

$$$$

 OpenBabel03242512553D

 27 27  0  0  0  0  0  0  0  0999 V2000
   35.6660   29.7490   40.6190 C   0  0  0  0  0  0  0  0  0  0  0  0
   34.6150   29.5850   40.9790 H   0  0  0  0  0  0  0  0  0  0  0  0
   35.6210   29.6910   39.5130 H   0  0  0  0  0  0  0  0  0  0  0  0
   36.5860   27.4630   40.6550 C   0  0  0  0  0  3  0  0  0  0  0  0
   36.4560   28.6480   41.2290 C   0  0  0  0  0  3  0  0  0  0  0  0
   37.3890   26.4530   41.3420 C   0  0  0  0  0  0  0  0  0  0  0  0
   37.0240   25.1070   41.1840 C   0  0  0  0  0  0  0  0  0  0  0  0
   37.7680   24.1130   41.8290 C   0  0  0  0  0  0  0  0  0  0  0  0
   38.8240   24.5110   42.5890 N   0  0  0  0  0  0  0  0  0  0  0  0
   39.1540   25.8260   42.7230 C   0  0  0  0  0  0  0  0  0  0  0  0
   38.4370   26.7660   42.1030 N   0  0  0  0  0  0  0  0  0  0  0  0
   36.1910   24.7630   40.5880 H   0  0  0  0  0  0  0  0  0  0  0  0
   37.4980   23.0860   41.7130 H   0  0  0  0  0  0  0  0  0  0  0  0
   40.0160   26.0470   43.3520 H   0  0  0  0  0  0  0  0  0  0  0  0
   36.0330   30.9870   41.0940 O   0  0  0  0  0  0  0  0  0  0  0  0
   37.0220   31.1820   38.7360 O   0  0  0  0  0  0  0  0  0  0  0  0
   37.2290   31.7050   40.1200 P   0  0  1  0  0  0  0  0  0  0  0  0
   36.9880   33.3920   40.1160 O   0  0  0  0  0  0  0  0  0  0  0  0
   37.4400   33.8050   40.8930 H   0  0  0  0  0  0  0  0  0  0  0  0
   38.7610   31.4270   40.6670 O   0  0  0  0  0  0  0  0  0  0  0  0
   39.8030   31.6110   39.8330 C   0  0  0  0  0  2  0  0  0  0  0  0
   39.7740   32.6100   38.8280 N   0  0  0  0  0  4  0  0  0  0  0  0
   38.7550   32.9740   38.7070 H   0  0  0  0  0  0  0  0  0  0  0  0
   40.4900   33.7870   39.2730 C   0  0  0  0  0  2  0  0  0  0  0  0
   41.2900   34.0490   38.5650 H   0  0  0  0  0  0  0  0  0  0  0  0
   40.1790   32.2310   37.5100 C   0  0  0  0  0  2  0  0  0  0  0  0
   41.1070   32.7550   37.1750 H   0  0  0  0  0  0  0  0  0  0  0  0
  1  2  1  0  0  0  0
  1 15  1  0  0  0  0
  1  5  1  0  0  0  0
  3  1  1  0  0  0  0
  4  5  2  0  0  0  0
  4  6  1  0  0  0  0
  6 11  1  0  0  0  0
  7  6  2  0  0  0  0
  7  8  1  0  0  0  0
  8  9  2  0  0  0  0
  9 10  1  0  0  0  0
 10 14  1  0  0  0  0
 11 10  2  0  0  0  0
 12  7  1  0  0  0  0
 13  8  1  0  0  0  0
 17 16  2  6  0  0  0
 17 20  1  0  0  0  0
 17 15  1  0  0  0  0
 18 17  1  0  0  0  0
 18 19  1  0  0  0  0
 21 20  1  0  0  0  0
 22 24  1  0  0  0  0
 22 21  1  0  0  0  0
 23 22  1  0  0  0  0
 25 24  1  0  0  0  0
 26 22  1  0  0  0  0
 27 26  1  0  0  0  0
M  END
>  <minimizedAffinity>
-4.31117535

$$$$

 OpenBabel03242512553D

 27 27  0  0  0  0  0  0  0  0999 V2000
   37.7020   29.4360   42.5630 C   0  0  0  0  0  0  0  0  0  0  0  0
   38.1550   29.5860   43.5790 H   0  0  0  0  0  0  0  0  0  0  0  0
   36.6060   29.5230   42.7020 H   0  0  0  0  0  0  0  0  0  0  0  0
   37.2780   27.1680   41.6950 C   0  0  0  0  0  3  0  0  0  0  0  0
   38.1290   28.0730   42.1510 C   0  0  0  0  0  3  0  0  0  0  0  0
   37.8080   25.8590   41.3160 C   0  0  0  0  0  0  0  0  0  0  0  0
   36.9700   24.7440   41.4660 C   0  0  0  0  0  0  0  0  0  0  0  0
   37.4450   23.4750   41.1160 C   0  0  0  0  0  0  0  0  0  0  0  0
   38.7160   23.3890   40.6390 N   0  0  0  0  0  0  0  0  0  0  0  0
   39.5060   24.4900   40.5040 C   0  0  0  0  0  0  0  0  0  0  0  0
   39.0430   25.6960   40.8420 N   0  0  0  0  0  0  0  0  0  0  0  0
   35.9580   24.7830   41.8420 H   0  0  0  0  0  0  0  0  0  0  0  0
   36.8120   22.6210   41.2260 H   0  0  0  0  0  0  0  0  0  0  0  0
   40.5090   24.3200   40.1140 H   0  0  0  0  0  0  0  0  0  0  0  0
   38.2390   30.4200   41.7670 O   0  0  0  0  0  0  0  0  0  0  0  0
   37.1120   30.2070   39.4730 O   0  0  0  0  0  0  0  0  0  0  0  0
   37.0840   31.0640   40.6960 P   0  0  1  0  0  0  0  0  0  0  0  0
   35.5460   30.9480   41.4190 O   0  0  0  0  0  0  0  0  0  0  0  0
   35.3780   31.7330   41.9980 H   0  0  0  0  0  0  0  0  0  0  0  0
   37.3450   32.6560   40.3450 O   0  0  0  0  0  0  0  0  0  0  0  0
   38.3690   32.9940   39.5380 C   0  0  0  0  0  2  0  0  0  0  0  0
   39.5780   32.2540   39.5320 N   0  0  0  0  0  4  0  0  0  0  0  0
   39.3820   31.2380   39.8700 H   0  0  0  0  0  0  0  0  0  0  0  0
   40.0390   32.0630   38.1730 C   0  0  0  0  0  2  0  0  0  0  0  0
   41.0620   32.4490   38.0490 H   0  0  0  0  0  0  0  0  0  0  0  0
   40.6370   32.7150   40.3740 C   0  0  0  0  0  2  0  0  0  0  0  0
   41.5310   33.0550   39.7970 H   0  0  0  0  0  0  0  0  0  0  0  0
  1  3  1  0  0  0  0
  1  2  1  0  0  0  0
  4  5  2  0  0  0  0
  5  1  1  0  0  0  0
  6  7  1  0  0  0  0
  6  4  1  0  0  0  0
  7 12  1  0  0  0  0
  8 13  1  0  0  0  0
  8  7  2  0  0  0  0
  9  8  1  0  0  0  0
 10  9  2  0  0  0  0
 10 11  1  0  0  0  0
 11  6  2  0  0  0  0
 14 10  1  0  0  0  0
 15  1  1  0  0  0  0
 17 16  2  6  0  0  0
 17 18  1  0  0  0  0
 17 15  1  0  0  0  0
 18 19  1  0  0  0  0
 20 17  1  0  0  0  0
 21 20  1  0  0  0  0
 22 21  1  0  0  0  0
 22 23  1  0  0  0  0
 22 26  1  0  0  0  0
 24 22  1  0  0  0  0
 25 24  1  0  0  0  0
 27 26  1  0  0  0  0
M  END
>  <minimizedAffinity>
-4.18498325

$$$$

 OpenBabel03242512553D

 27 27  0  0  0  0  0  0  0  0999 V2000
   35.9090   29.5410   40.9270 C   0  0  0  0  0  0  0  0  0  0  0  0
   34.9380   29.4370   41.4810 H   0  0  0  0  0  0  0  0  0  0  0  0
   35.6440   29.5710   39.8510 H   0  0  0  0  0  0  0  0  0  0  0  0
   37.6070   28.3460   42.2560 C   0  0  0  0  0  3  0  0  0  0  0  0
   36.6930   28.3340   41.2990 C   0  0  0  0  0  3  0  0  0  0  0  0
   38.3180   27.1000   42.5400 C   0  0  0  0  0  0  0  0  0  0  0  0
   39.4340   27.1610   43.3880 C   0  0  0  0  0  0  0  0  0  0  0  0
   40.1400   25.9890   43.6800 C   0  0  0  0  0  0  0  0  0  0  0  0
   39.6980   24.8320   43.1170 N   0  0  0  0  0  0  0  0  0  0  0  0
   38.6100   24.8030   42.2990 C   0  0  0  0  0  0  0  0  0  0  0  0
   37.9440   25.9280   42.0260 N   0  0  0  0  0  0  0  0  0  0  0  0
   39.8080   28.0650   43.8470 H   0  0  0  0  0  0  0  0  0  0  0  0
   40.9910   26.0270   44.3250 H   0  0  0  0  0  0  0  0  0  0  0  0
   38.3320   23.8300   41.8960 H   0  0  0  0  0  0  0  0  0  0  0  0
   36.4800   30.7030   41.3900 O   0  0  0  0  0  0  0  0  0  0  0  0
   36.7880   31.0070   38.8630 O   0  0  0  0  0  0  0  0  0  0  0  0
   37.3160   31.5280   40.1590 P   0  0  1  0  0  0  0  0  0  0  0  0
   36.9580   33.1890   40.2760 O   0  0  0  0  0  0  0  0  0  0  0  0
   37.5680   33.6280   40.9190 H   0  0  0  0  0  0  0  0  0  0  0  0
   38.9550   31.3680   40.2720 O   0  0  0  0  0  0  0  0  0  0  0  0
   39.5490   30.2810   39.7420 C   0  0  0  0  0  2  0  0  0  0  0  0
   40.1130   30.3100   38.4420 N   0  0  0  0  0  4  0  0  0  0  0  0
   41.1430   29.9580   38.4860 H   0  0  0  0  0  0  0  0  0  0  0  0
   39.4690   29.3280   37.5960 C   0  0  0  0  0  2  0  0  0  0  0  0
   39.0530   29.8020   36.6940 H   0  0  0  0  0  0  0  0  0  0  0  0
   40.1950   31.5780   37.7870 C   0  0  0  0  0  2  0  0  0  0  0  0
   39.5590   31.6330   36.8700 H   0  0  0  0  0  0  0  0  0  0  0  0
  1  5  1  0  0  0  0
  1 15  1  0  0  0  0
  1  2  1  0  0  0  0
  3  1  1  0  0  0  0
  4  6  1  0  0  0  0
  5  4  2  0  0  0  0
  6  7  1  0  0  0  0
  7  8  2  0  0  0  0
  7 12  1  0  0  0  0
  8 13  1  0  0  0  0
  9  8  1  0  0  0  0
 10  9  2  0  0  0  0
 11 10  1  0  0  0  0
 11  6  2  0  0  0  0
 14 10  1  0  0  0  0
 17 16  2  6  0  0  0
 17 20  1  0  0  0  0
 17 18  1  0  0  0  0
 17 15  1  0  0  0  0
 18 19  1  0  0  0  0
 21 20  1  0  0  0  0
 22 23  1  0  0  0  0
 22 21  1  0  0  0  0
 24 22  1  0  0  0  0
 25 24  1  0  0  0  0
 26 22  1  0  0  0  0
 27 26  1  0  0  0  0
M  END
>  <minimizedAffinity>
-4.11283779

$$$$

 OpenBabel03242512553D

 27 27  0  0  0  0  0  0  0  0999 V2000
   38.6980   30.5580   41.9560 C   0  0  0  0  0  0  0  0  0  0  0  0
   39.5830   31.0740   42.4180 H   0  0  0  0  0  0  0  0  0  0  0  0
   37.8190   30.8650   42.5580 H   0  0  0  0  0  0  0  0  0  0  0  0
   38.4560   28.3340   42.9900 C   0  0  0  0  0  3  0  0  0  0  0  0
   39.0000   29.1070   42.0650 C   0  0  0  0  0  3  0  0  0  0  0  0
   38.8230   26.9190   43.0040 C   0  0  0  0  0  0  0  0  0  0  0  0
   37.9930   26.0200   42.3170 C   0  0  0  0  0  0  0  0  0  0  0  0
   38.3120   24.6570   42.3110 C   0  0  0  0  0  0  0  0  0  0  0  0
   39.4290   24.2700   42.9830 N   0  0  0  0  0  0  0  0  0  0  0  0
   40.2160   25.1670   43.6410 C   0  0  0  0  0  0  0  0  0  0  0  0
   39.9020   26.4650   43.6400 N   0  0  0  0  0  0  0  0  0  0  0  0
   37.1000   26.2990   41.7760 H   0  0  0  0  0  0  0  0  0  0  0  0
   37.6850   23.9670   41.7890 H   0  0  0  0  0  0  0  0  0  0  0  0
   41.0900   24.7620   44.1500 H   0  0  0  0  0  0  0  0  0  0  0  0
   38.6540   30.9920   40.6520 O   0  0  0  0  0  0  0  0  0  0  0  0
   36.1470   30.9100   41.1870 O   0  0  0  0  0  0  0  0  0  0  0  0
   37.1000   31.5350   40.2210 P   0  0  1  0  0  0  0  0  0  0  0  0
   37.0450   33.2280   40.4050 O   0  0  0  0  0  0  0  0  0  0  0  0
   37.3760   33.6730   39.5860 H   0  0  0  0  0  0  0  0  0  0  0  0
   36.7080   31.1960   38.6540 O   0  0  0  0  0  0  0  0  0  0  0  0
   36.9520   29.9650   38.1650 C   0  0  0  0  0  2  0  0  0  0  0  0
   36.9580   28.8250   39.0070 N   0  0  0  0  0  4  0  0  0  0  0  0
   37.0440   29.1420   40.0460 H   0  0  0  0  0  0  0  0  0  0  0  0
   35.6670   28.1710   38.9720 C   0  0  0  0  0  2  0  0  0  0  0  0
   35.7710   27.1160   38.6740 H   0  0  0  0  0  0  0  0  0  0  0  0
   38.0170   27.8810   38.8320 C   0  0  0  0  0  2  0  0  0  0  0  0
   37.6550   26.8850   38.4770 H   0  0  0  0  0  0  0  0  0  0  0  0
  1  5  1  0  0  0  0
  1  2  1  0  0  0  0
  1  3  1  0  0  0  0
  4  6  1  0  0  0  0
  5  4  2  0  0  0  0
  6 11  1  0  0  0  0
  7  6  2  0  0  0  0
  8  7  1  0  0  0  0
  8  9  2  0  0  0  0
  9 10  1  0  0  0  0
 10 14  1  0  0  0  0
 11 10  2  0  0  0  0
 12  7  1  0  0  0  0
 13  8  1  0  0  0  0
 15  1  1  0  0  0  0
 17 18  1  0  0  0  0
 17 15  1  0  0  0  0
 17 16  2  1  0  0  0
 19 18  1  0  0  0  0
 20 17  1  0  0  0  0
 21 20  1  0  0  0  0
 21 22  1  0  0  0  0
 22 23  1  0  0  0  0
 24 22  1  0  0  0  0
 25 24  1  0  0  0  0
 26 22  1  0  0  0  0
 27 26  1  0  0  0  0
M  END
>  <minimizedAffinity>
-4.05361176

$$$$

 OpenBabel03242512553D

 27 27  0  0  0  0  0  0  0  0999 V2000
   35.7320   30.0950   40.4860 C   0  0  0  0  0  0  0  0  0  0  0  0
   34.6830   30.3550   40.7920 H   0  0  0  0  0  0  0  0  0  0  0  0
   35.8110   30.3610   39.4130 H   0  0  0  0  0  0  0  0  0  0  0  0
   36.7530   27.8810   40.1250 C   0  0  0  0  0  3  0  0  0  0  0  0
   35.8510   28.6340   40.7330 C   0  0  0  0  0  3  0  0  0  0  0  0
   36.7830   26.4540   40.4450 C   0  0  0  0  0  0  0  0  0  0  0  0
   37.1560   26.0820   41.7460 C   0  0  0  0  0  0  0  0  0  0  0  0
   37.1980   24.7250   42.0870 C   0  0  0  0  0  0  0  0  0  0  0  0
   36.8690   23.8240   41.1230 N   0  0  0  0  0  0  0  0  0  0  0  0
   36.5100   24.2160   39.8680 C   0  0  0  0  0  0  0  0  0  0  0  0
   36.4740   25.5130   39.5530 N   0  0  0  0  0  0  0  0  0  0  0  0
   37.4220   26.7760   42.5300 H   0  0  0  0  0  0  0  0  0  0  0  0
   37.4800   24.4340   43.0750 H   0  0  0  0  0  0  0  0  0  0  0  0
   36.2640   23.4210   39.1650 H   0  0  0  0  0  0  0  0  0  0  0  0
   36.5530   30.8360   41.3020 O   0  0  0  0  0  0  0  0  0  0  0  0
   37.8960   31.1120   39.1350 O   0  0  0  0  0  0  0  0  0  0  0  0
   37.5950   31.8390   40.4040 P   0  0  1  0  0  0  0  0  0  0  0  0
   36.7740   33.2840   40.0340 O   0  0  0  0  0  0  0  0  0  0  0  0
   36.8670   33.9320   40.7760 H   0  0  0  0  0  0  0  0  0  0  0  0
   38.9670   32.2470   41.2270 O   0  0  0  0  0  0  0  0  0  0  0  0
   39.6070   31.3070   41.9480 C   0  0  0  0  0  2  0  0  0  0  0  0
   39.4460   29.9270   41.6690 N   0  0  0  0  0  4  0  0  0  0  0  0
   38.5990   29.7890   40.9990 H   0  0  0  0  0  0  0  0  0  0  0  0
   40.5640   29.4420   40.8870 C   0  0  0  0  0  2  0  0  0  0  0  0
   41.0540   28.5940   41.3890 H   0  0  0  0  0  0  0  0  0  0  0  0
   39.1760   29.0580   42.7720 C   0  0  0  0  0  2  0  0  0  0  0  0
   39.9960   28.3220   42.9540 H   0  0  0  0  0  0  0  0  0  0  0  0
  1  5  1  0  0  0  0
  1  2  1  0  0  0  0
  1 15  1  0  0  0  0
  3  1  1  0  0  0  0
  4  6  1  0  0  0  0
  4  5  2  0  0  0  0
  6  7  1  0  0  0  0
  7  8  2  0  0  0  0
  7 12  1  0  0  0  0
  8 13  1  0  0  0  0
  9  8  1  0  0  0  0
 10  9  2  0  0  0  0
 11 10  1  0  0  0  0
 11  6  2  0  0  0  0
 14 10  1  0  0  0  0
 17 16  2  6  0  0  0
 17 20  1  0  0  0  0
 17 15  1  0  0  0  0
 18 17  1  0  0  0  0
 18 19  1  0  0  0  0
 20 21  1  0  0  0  0
 22 21  1  0  0  0  0
 22 26  1  0  0  0  0
 23 22  1  0  0  0  0
 24 25  1  0  0  0  0
 24 22  1  0  0  0  0
 26 27  1  0  0  0  0
M  END
>  <minimizedAffinity>
-4.02182674

$$$$

 OpenBabel03242512553D

 27 27  0  0  0  0  0  0  0  0999 V2000
   36.8760   29.6330   38.0760 C   0  0  0  0  0  0  0  0  0  0  0  0
   36.6100   29.6760   36.9850 H   0  0  0  0  0  0  0  0  0  0  0  0
   37.9730   29.7890   38.1270 H   0  0  0  0  0  0  0  0  0  0  0  0
   37.3290   27.3520   38.8920 C   0  0  0  0  0  3  0  0  0  0  0  0
   36.4600   28.2770   38.5180 C   0  0  0  0  0  3  0  0  0  0  0  0
   36.8080   26.0510   39.3120 C   0  0  0  0  0  0  0  0  0  0  0  0
   37.1030   25.6160   40.6120 C   0  0  0  0  0  0  0  0  0  0  0  0
   36.6230   24.3750   41.0470 C   0  0  0  0  0  0  0  0  0  0  0  0
   35.8830   23.6450   40.1700 N   0  0  0  0  0  0  0  0  0  0  0  0
   35.6120   24.0950   38.9130 C   0  0  0  0  0  0  0  0  0  0  0  0
   36.0760   25.2800   38.5080 N   0  0  0  0  0  0  0  0  0  0  0  0
   37.6880   26.1740   41.3290 H   0  0  0  0  0  0  0  0  0  0  0  0
   36.8430   24.0370   42.0360 H   0  0  0  0  0  0  0  0  0  0  0  0
   35.0120   23.4390   38.2830 H   0  0  0  0  0  0  0  0  0  0  0  0
   36.1470   30.6310   38.6770 O   0  0  0  0  0  0  0  0  0  0  0  0
   38.3780   30.9120   39.9090 O   0  0  0  0  0  0  0  0  0  0  0  0
   36.9280   31.2350   40.0630 P   0  0  1  0  0  0  0  0  0  0  0  0
   36.7380   32.9270   40.1020 O   0  0  0  0  0  0  0  0  0  0  0  0
   35.8820   33.1660   40.5380 H   0  0  0  0  0  0  0  0  0  0  0  0
   36.3050   30.6350   41.4690 O   0  0  0  0  0  0  0  0  0  0  0  0
   36.6920   29.4180   41.8960 C   0  0  0  0  0  2  0  0  0  0  0  0
   37.3800   29.2510   43.1230 N   0  0  0  0  0  4  0  0  0  0  0  0
   36.9640   29.9290   43.8670 H   0  0  0  0  0  0  0  0  0  0  0  0
   37.1000   27.9440   43.6800 C   0  0  0  0  0  2  0  0  0  0  0  0
   38.0330   27.3870   43.8560 H   0  0  0  0  0  0  0  0  0  0  0  0
   38.7830   29.5240   43.1340 C   0  0  0  0  0  2  0  0  0  0  0  0
   39.3990   28.6170   43.3450 H   0  0  0  0  0  0  0  0  0  0  0  0
  1  3  1  0  0  0  0
  1  5  1  0  0  0  0
  1 15  1  0  0  0  0
  2  1  1  0  0  0  0
  4  6  1  0  0  0  0
  5  4  2  0  0  0  0
  6  7  1  0  0  0  0
  7  8  2  0  0  0  0
  7 12  1  0  0  0  0
  8 13  1  0  0  0  0
  9  8  1  0  0  0  0
 10  9  2  0  0  0  0
 11 10  1  0  0  0  0
 11  6  2  0  0  0  0
 14 10  1  0  0  0  0
 15 17  1  0  0  0  0
 17 16  2  6  0  0  0
 17 18  1  0  0  0  0
 17 20  1  0  0  0  0
 18 19  1  0  0  0  0
 20 21  1  0  0  0  0
 21 22  1  0  0  0  0
 22 26  1  0  0  0  0
 22 24  1  0  0  0  0
 22 23  1  0  0  0  0
 24 25  1  0  0  0  0
 26 27  1  0  0  0  0
M  END
>  <minimizedAffinity>
-3.99242973

$$$$

 OpenBabel03242512553D

 27 27  0  0  0  0  0  0  0  0999 V2000
   37.2680   30.3010   37.9250 C   0  0  0  0  0  0  0  0  0  0  0  0
   37.9540   30.6150   37.0930 H   0  0  0  0  0  0  0  0  0  0  0  0
   37.8880   29.6990   38.6190 H   0  0  0  0  0  0  0  0  0  0  0  0
   35.0050   29.3330   37.8010 C   0  0  0  0  0  3  0  0  0  0  0  0
   36.2000   29.5090   37.2610 C   0  0  0  0  0  3  0  0  0  0  0  0
   34.0280   28.5360   37.0600 C   0  0  0  0  0  0  0  0  0  0  0  0
   32.7270   29.0460   36.9350 C   0  0  0  0  0  0  0  0  0  0  0  0
   31.7650   28.3090   36.2340 C   0  0  0  0  0  0  0  0  0  0  0  0
   32.1510   27.1180   35.7020 N   0  0  0  0  0  0  0  0  0  0  0  0
   33.4220   26.6500   35.8390 C   0  0  0  0  0  0  0  0  0  0  0  0
   34.3320   27.3610   36.5100 N   0  0  0  0  0  0  0  0  0  0  0  0
   32.3940   29.9870   37.3480 H   0  0  0  0  0  0  0  0  0  0  0  0
   30.7720   28.6900   36.1340 H   0  0  0  0  0  0  0  0  0  0  0  0
   33.6360   25.6860   35.3780 H   0  0  0  0  0  0  0  0  0  0  0  0
   36.7940   31.4680   38.4770 O   0  0  0  0  0  0  0  0  0  0  0  0
   38.6850   31.1720   40.1840 O   0  0  0  0  0  0  0  0  0  0  0  0
   37.2660   31.6320   40.1040 P   0  0  1  0  0  0  0  0  0  0  0  0
   37.1930   33.2800   40.5280 O   0  0  0  0  0  0  0  0  0  0  0  0
   36.2780   33.5200   40.8190 H   0  0  0  0  0  0  0  0  0  0  0  0
   36.2860   30.8100   41.1470 O   0  0  0  0  0  0  0  0  0  0  0  0
   36.5450   29.5160   41.4140 C   0  0  0  0  0  2  0  0  0  0  0  0
   36.9510   29.0950   42.7050 N   0  0  0  0  0  4  0  0  0  0  0  0
   36.3690   29.6260   43.4580 H   0  0  0  0  0  0  0  0  0  0  0  0
   36.5790   27.7130   42.9200 C   0  0  0  0  0  2  0  0  0  0  0  0
   37.4590   27.1080   43.1840 H   0  0  0  0  0  0  0  0  0  0  0  0
   38.3120   29.3240   43.0760 C   0  0  0  0  0  2  0  0  0  0  0  0
   38.8830   28.3780   43.2340 H   0  0  0  0  0  0  0  0  0  0  0  0
  1 15  1  0  0  0  0
  1  3  1  0  0  0  0
  2  1  1  0  0  0  0
  5  4  2  0  0  0  0
  5  1  1  0  0  0  0
  6  4  1  0  0  0  0
  7  6  1  0  0  0  0
  7 12  1  0  0  0  0
  8  7  2  0  0  0  0
  9 10  2  0  0  0  0
  9  8  1  0  0  0  0
 10 11  1  0  0  0  0
 11  6  2  0  0  0  0
 13  8  1  0  0  0  0
 14 10  1  0  0  0  0
 15 17  1  0  0  0  0
 17 16  2  1  0  0  0
 17 18  1  0  0  0  0
 17 20  1  0  0  0  0
 18 19  1  0  0  0  0
 20 21  1  0  0  0  0
 21 22  1  0  0  0  0
 22 24  1  0  0  0  0
 22 26  1  0  0  0  0
 22 23  1  0  0  0  0
 24 25  1  0  0  0  0
 26 27  1  0  0  0  0
M  END
>  <minimizedAffinity>
-3.98772407

$$$$

 OpenBabel03242512553D

 27 27  0  0  0  0  0  0  0  0999 V2000
   34.7230   29.0690   39.8000 C   0  0  0  0  0  0  0  0  0  0  0  0
   33.8630   28.4430   40.1600 H   0  0  0  0  0  0  0  0  0  0  0  0
   34.4730   30.1150   40.0710 H   0  0  0  0  0  0  0  0  0  0  0  0
   35.9080   28.8070   37.6550 C   0  0  0  0  0  3  0  0  0  0  0  0
   34.7720   28.8440   38.3320 C   0  0  0  0  0  3  0  0  0  0  0  0
   35.8400   28.5760   36.2120 C   0  0  0  0  0  0  0  0  0  0  0  0
   36.4090   29.5400   35.3670 C   0  0  0  0  0  0  0  0  0  0  0  0
   36.3600   29.3540   33.9810 C   0  0  0  0  0  0  0  0  0  0  0  0
   35.7520   28.2280   33.5190 N   0  0  0  0  0  0  0  0  0  0  0  0
   35.2080   27.3090   34.3650 C   0  0  0  0  0  0  0  0  0  0  0  0
   35.2600   27.4970   35.6860 N   0  0  0  0  0  0  0  0  0  0  0  0
   36.8970   30.4430   35.7060 H   0  0  0  0  0  0  0  0  0  0  0  0
   36.7920   30.0830   33.3300 H   0  0  0  0  0  0  0  0  0  0  0  0
   34.7430   26.4400   33.9020 H   0  0  0  0  0  0  0  0  0  0  0  0
   35.8350   28.5810   40.4460 O   0  0  0  0  0  0  0  0  0  0  0  0
   37.8140   30.2040   40.2920 O   0  0  0  0  0  0  0  0  0  0  0  0
   36.7080   29.8190   41.2200 P   0  0  1  0  0  0  0  0  0  0  0  0
   35.6780   31.1570   41.4380 O   0  0  0  0  0  0  0  0  0  0  0  0
   35.1630   31.0610   42.2780 H   0  0  0  0  0  0  0  0  0  0  0  0
   37.2700   29.3800   42.7090 O   0  0  0  0  0  0  0  0  0  0  0  0
   38.5840   29.4990   42.9780 C   0  0  0  0  0  2  0  0  0  0  0  0
   39.4200   28.3590   43.0880 N   0  0  0  0  0  4  0  0  0  0  0  0
   40.1390   28.5130   43.8920 H   0  0  0  0  0  0  0  0  0  0  0  0
   38.6540   27.2200   43.5490 C   0  0  0  0  0  2  0  0  0  0  0  0
   38.7400   26.3800   42.8430 H   0  0  0  0  0  0  0  0  0  0  0  0
   40.2180   28.0150   41.9530 C   0  0  0  0  0  2  0  0  0  0  0  0
   39.9340   27.0320   41.5060 H   0  0  0  0  0  0  0  0  0  0  0  0
  1  3  1  0  0  0  0
  1  2  1  0  0  0  0
  1 15  1  0  0  0  0
  4  5  2  0  0  0  0
  5  1  1  0  0  0  0
  6  4  1  0  0  0  0
  7 12  1  0  0  0  0
  7  6  2  0  0  0  0
  8  7  1  0  0  0  0
  9  8  2  0  0  0  0
  9 10  1  0  0  0  0
 10 11  2  0  0  0  0
 11  6  1  0  0  0  0
 13  8  1  0  0  0  0
 14 10  1  0  0  0  0
 15 17  1  0  0  0  0
 17 16  2  6  0  0  0
 17 18  1  0  0  0  0
 17 20  1  0  0  0  0
 18 19  1  0  0  0  0
 20 21  1  0  0  0  0
 21 22  1  0  0  0  0
 22 24  1  0  0  0  0
 22 23  1  0  0  0  0
 25 24  1  0  0  0  0
 26 22  1  0  0  0  0
 27 26  1  0  0  0  0
M  END
>  <minimizedAffinity>
-3.88183832

$$$$
