
 OpenBabel03242522003D

 31 32  0  0  0  0  0  0  0  0999 V2000
   37.2110   26.6760   41.4520 C   0  0  0  0  0  0  0  0  0  0  0  0
   37.1360   26.6330   42.8220 C   0  0  0  0  0  0  0  0  0  0  0  0
   37.3840   27.6970   43.6790 C   0  0  0  0  0  0  0  0  0  0  0  0
   37.7350   28.9070   43.1130 C   0  0  0  0  0  0  0  0  0  0  0  0
   37.8040   28.9450   41.7630 C   0  0  0  0  0  0  0  0  0  0  0  0
   37.5590   27.9000   40.9730 N   0  0  0  0  0  0  0  0  0  0  0  0
   36.8500   25.6330   43.1980 H   0  0  0  0  0  0  0  0  0  0  0  0
   37.2650   27.4330   44.7300 H   0  0  0  0  0  0  0  0  0  0  0  0
   37.9020   29.5990   43.9180 H   0  0  0  0  0  0  0  0  0  0  0  0
   36.2340   24.3700   38.6460 C   0  0  0  0  0  0  0  0  0  0  0  0
   36.3920   25.5800   39.3410 C   0  0  0  0  0  0  0  0  0  0  0  0
   36.9630   25.5400   40.5850 C   0  0  0  0  0  0  0  0  0  0  0  0
   37.3480   24.3140   41.0780 N   0  0  0  0  0  0  0  0  0  0  0  0
   37.1880   23.1660   40.3950 C   0  0  0  0  0  0  0  0  0  0  0  0
   36.6290   23.2130   39.1790 N   0  0  0  0  0  0  0  0  0  0  0  0
   35.7710   24.5080   37.6650 H   0  0  0  0  0  0  0  0  0  0  0  0
   36.1120   26.5570   39.0070 H   0  0  0  0  0  0  0  0  0  0  0  0
   37.5070   22.2290   40.8250 H   0  0  0  0  0  0  0  0  0  0  0  0
   38.1500   30.1500   41.1790 O   0  0  0  0  0  0  0  0  0  0  0  0
   36.7740   30.9000   39.0570 O   0  0  0  0  0  0  0  0  0  0  0  0
   36.9960   31.2220   40.5060 P   0  0  1  0  0  0  0  0  0  0  0  0
   35.5640   31.0800   41.3710 O   0  0  0  0  0  0  0  0  0  0  0  0
   35.5710   31.7160   42.1290 H   0  0  0  0  0  0  0  0  0  0  0  0
   37.6420   32.8050   40.6390 O   0  0  0  0  0  0  0  0  0  0  0  0
   38.4010   33.0690   39.5180 C   0  0  0  0  0  2  0  0  0  0  0  0
   39.5350   32.1760   39.4300 N   0  0  0  0  0  4  0  0  0  0  0  0
   39.2980   31.2380   39.8310 H   0  0  0  0  0  0  0  0  0  0  0  0
   40.0230   32.0260   38.0840 C   0  0  0  0  0  2  0  0  0  0  0  0
   39.2130   32.2280   37.3640 H   0  0  0  0  0  0  0  0  0  0  0  0
   40.6340   32.7010   40.2420 C   0  0  0  0  0  2  0  0  0  0  0  0
   41.2640   33.3520   39.6020 H   0  0  0  0  0  0  0  0  0  0  0  0
  1  2  1  0  0  0  0
  2  7  1  0  0  0  0
  2  3  2  0  0  0  0
  3  8  1  0  0  0  0
  4  3  1  0  0  0  0
  4  9  1  0  0  0  0
  5  4  2  0  0  0  0
  6  1  2  0  0  0  0
  6  5  1  0  0  0  0
 10 15  2  0  0  0  0
 10 11  1  0  0  0  0
 11 12  2  0  0  0  0
 12 13  1  0  0  0  0
 12  1  1  0  0  0  0
 14 18  1  0  0  0  0
 14 13  2  0  0  0  0
 15 14  1  0  0  0  0
 16 10  1  0  0  0  0
 17 11  1  0  0  0  0
 19  5  1  0  0  0  0
 21 20  2  6  0  0  0
 21 24  1  0  0  0  0
 21 19  1  0  0  0  0
 21 22  1  0  0  0  0
 22 23  1  0  0  0  0
 25 24  1  0  0  0  0
 26 25  1  0  0  0  0
 26 27  1  0  0  0  0
 26 30  1  0  0  0  0
 28 26  1  0  0  0  0
 29 28  1  0  0  0  0
 31 30  1  0  0  0  0
M  END
>  <minimizedAffinity>
-5.08018064

$$$$

 OpenBabel03242522003D

 31 32  0  0  0  0  0  0  0  0999 V2000
   37.9920   25.4380   41.8970 C   0  0  0  0  0  0  0  0  0  0  0  0
   39.0730   25.4830   42.7410 C   0  0  0  0  0  0  0  0  0  0  0  0
   39.4380   26.5670   43.5290 C   0  0  0  0  0  0  0  0  0  0  0  0
   38.6510   27.7000   43.4650 C   0  0  0  0  0  0  0  0  0  0  0  0
   37.5860   27.6490   42.6340 C   0  0  0  0  0  0  0  0  0  0  0  0
   37.2670   26.5890   41.8920 N   0  0  0  0  0  0  0  0  0  0  0  0
   39.6520   24.5410   42.7360 H   0  0  0  0  0  0  0  0  0  0  0  0
   40.3340   26.3790   44.1210 H   0  0  0  0  0  0  0  0  0  0  0  0
   39.0900   28.4310   44.1190 H   0  0  0  0  0  0  0  0  0  0  0  0
   37.9310   22.1900   40.0020 C   0  0  0  0  0  0  0  0  0  0  0  0
   38.4390   23.2050   40.8290 C   0  0  0  0  0  0  0  0  0  0  0  0
   37.6470   24.2950   41.0730 C   0  0  0  0  0  0  0  0  0  0  0  0
   36.4000   24.3280   40.4920 N   0  0  0  0  0  0  0  0  0  0  0  0
   35.9320   23.3440   39.7020 C   0  0  0  0  0  0  0  0  0  0  0  0
   36.7120   22.2810   39.4680 N   0  0  0  0  0  0  0  0  0  0  0  0
   38.6370   21.3650   39.8690 H   0  0  0  0  0  0  0  0  0  0  0  0
   39.3980   23.2310   41.3040 H   0  0  0  0  0  0  0  0  0  0  0  0
   34.9450   23.4170   39.2700 H   0  0  0  0  0  0  0  0  0  0  0  0
   36.7840   28.7740   42.5600 O   0  0  0  0  0  0  0  0  0  0  0  0
   36.7070   29.1280   39.9470 O   0  0  0  0  0  0  0  0  0  0  0  0
   36.8380   29.8700   41.2450 P   0  0  1  0  0  0  0  0  0  0  0  0
   35.5910   30.9810   41.4210 O   0  0  0  0  0  0  0  0  0  0  0  0
   35.9080   31.7530   41.9530 H   0  0  0  0  0  0  0  0  0  0  0  0
   38.3670   30.6450   41.3000 O   0  0  0  0  0  0  0  0  0  0  0  0
   38.6540   31.1450   40.0460 C   0  0  0  0  0  2  0  0  0  0  0  0
   37.6400   32.0790   39.6090 N   0  0  0  0  0  4  0  0  0  0  0  0
   36.7020   31.8090   39.9870 H   0  0  0  0  0  0  0  0  0  0  0  0
   37.9430   33.4390   39.9710 C   0  0  0  0  0  2  0  0  0  0  0  0
   38.5990   33.4580   40.8560 H   0  0  0  0  0  0  0  0  0  0  0  0
   37.5250   32.0250   38.1510 C   0  0  0  0  0  2  0  0  0  0  0  0
   38.2160   32.7750   37.7150 H   0  0  0  0  0  0  0  0  0  0  0  0
  1  2  1  0  0  0  0
  2  3  2  0  0  0  0
  3  8  1  0  0  0  0
  4  3  1  0  0  0  0
  4  9  1  0  0  0  0
  5  4  2  0  0  0  0
  6  1  2  0  0  0  0
  6  5  1  0  0  0  0
  7  2  1  0  0  0  0
 10 11  1  0  0  0  0
 11 12  2  0  0  0  0
 11 17  1  0  0  0  0
 12  1  1  0  0  0  0
 13 12  1  0  0  0  0
 14 13  2  0  0  0  0
 15 14  1  0  0  0  0
 15 10  2  0  0  0  0
 16 10  1  0  0  0  0
 18 14  1  0  0  0  0
 19  5  1  0  0  0  0
 21 20  2  6  0  0  0
 21 24  1  0  0  0  0
 21 22  1  0  0  0  0
 21 19  1  0  0  0  0
 22 23  1  0  0  0  0
 25 24  1  0  0  0  0
 26 28  1  0  0  0  0
 26 27  1  0  0  0  0
 26 25  1  0  0  0  0
 28 29  1  0  0  0  0
 30 26  1  0  0  0  0
 31 30  1  0  0  0  0
M  END
>  <minimizedAffinity>
-5.03790712

$$$$

 OpenBabel03242522003D

 31 32  0  0  0  0  0  0  0  0999 V2000
   37.3920   27.9800   41.3620 C   0  0  0  0  0  0  0  0  0  0  0  0
   36.4420   27.5790   40.4560 C   0  0  0  0  0  0  0  0  0  0  0  0
   35.5900   28.4220   39.7530 C   0  0  0  0  0  0  0  0  0  0  0  0
   35.7030   29.7790   39.9780 C   0  0  0  0  0  0  0  0  0  0  0  0
   36.6420   30.1690   40.8690 C   0  0  0  0  0  0  0  0  0  0  0  0
   37.4420   29.3290   41.5250 N   0  0  0  0  0  0  0  0  0  0  0  0
   36.4140   26.4810   40.3320 H   0  0  0  0  0  0  0  0  0  0  0  0
   34.9150   27.8830   39.0880 H   0  0  0  0  0  0  0  0  0  0  0  0
   34.9630   30.2660   39.3680 H   0  0  0  0  0  0  0  0  0  0  0  0
   39.8940   26.3930   43.6800 C   0  0  0  0  0  0  0  0  0  0  0  0
   39.1410   27.4170   43.0810 C   0  0  0  0  0  0  0  0  0  0  0  0
   38.2550   27.0730   42.0940 C   0  0  0  0  0  0  0  0  0  0  0  0
   38.1580   25.7440   41.7510 N   0  0  0  0  0  0  0  0  0  0  0  0
   38.8890   24.7790   42.3380 C   0  0  0  0  0  0  0  0  0  0  0  0
   39.7530   25.1220   43.3020 N   0  0  0  0  0  0  0  0  0  0  0  0
   40.5690   26.7690   44.4530 H   0  0  0  0  0  0  0  0  0  0  0  0
   39.1770   28.4620   43.3080 H   0  0  0  0  0  0  0  0  0  0  0  0
   38.7760   23.7490   42.0320 H   0  0  0  0  0  0  0  0  0  0  0  0
   36.7710   31.5260   41.1030 O   0  0  0  0  0  0  0  0  0  0  0  0
   38.2440   31.7940   38.9290 O   0  0  0  0  0  0  0  0  0  0  0  0
   37.7230   32.5530   40.1150 P   0  0  1  0  0  0  0  0  0  0  0  0
   36.7760   33.8490   39.6210 O   0  0  0  0  0  0  0  0  0  0  0  0
   36.8450   34.5810   40.2830 H   0  0  0  0  0  0  0  0  0  0  0  0
   39.0450   33.0850   41.0700 O   0  0  0  0  0  0  0  0  0  0  0  0
   40.1490   32.3160   40.7650 C   0  0  0  0  0  2  0  0  0  0  0  0
   40.0100   30.9720   41.2810 N   0  0  0  0  0  4  0  0  0  0  0  0
   39.0100   30.6650   41.2490 H   0  0  0  0  0  0  0  0  0  0  0  0
   40.8380   30.0210   40.5860 C   0  0  0  0  0  2  0  0  0  0  0  0
   41.0470   30.3770   39.5640 H   0  0  0  0  0  0  0  0  0  0  0  0
   40.4000   30.9490   42.6910 C   0  0  0  0  0  2  0  0  0  0  0  0
   41.4840   30.7200   42.7540 H   0  0  0  0  0  0  0  0  0  0  0  0
  1  6  1  0  0  0  0
  1 12  1  0  0  0  0
  2  1  2  0  0  0  0
  3  4  2  0  0  0  0
  3  2  1  0  0  0  0
  4  5  1  0  0  0  0
  5 19  1  0  0  0  0
  5  6  2  0  0  0  0
  7  2  1  0  0  0  0
  8  3  1  0  0  0  0
  9  4  1  0  0  0  0
 10 16  1  0  0  0  0
 11 17  1  0  0  0  0
 11 10  2  0  0  0  0
 12 11  1  0  0  0  0
 13 12  2  0  0  0  0
 13 14  1  0  0  0  0
 14 15  2  0  0  0  0
 15 10  1  0  0  0  0
 18 14  1  0  0  0  0
 21 20  2  6  0  0  0
 21 24  1  0  0  0  0
 21 19  1  0  0  0  0
 22 21  1  0  0  0  0
 22 23  1  0  0  0  0
 25 24  1  0  0  0  0
 25 26  1  0  0  0  0
 26 30  1  0  0  0  0
 27 26  1  0  0  0  0
 28 26  1  0  0  0  0
 29 28  1  0  0  0  0
 30 31  1  0  0  0  0
M  END
>  <minimizedAffinity>
-4.76741982

$$$$

 OpenBabel03242522003D

 31 32  0  0  0  0  0  0  0  0999 V2000
   36.6070   26.8650   39.1640 C   0  0  0  0  0  0  0  0  0  0  0  0
   35.5710   26.7520   38.2710 C   0  0  0  0  0  0  0  0  0  0  0  0
   34.9600   27.8070   37.6040 C   0  0  0  0  0  0  0  0  0  0  0  0
   35.4310   29.0800   37.8540 C   0  0  0  0  0  0  0  0  0  0  0  0
   36.4530   29.1860   38.7330 C   0  0  0  0  0  0  0  0  0  0  0  0
   37.0140   28.1480   39.3540 N   0  0  0  0  0  0  0  0  0  0  0  0
   35.2510   25.7030   38.1250 H   0  0  0  0  0  0  0  0  0  0  0  0
   34.1570   27.4820   36.9420 H   0  0  0  0  0  0  0  0  0  0  0  0
   34.8360   29.7600   37.2710 H   0  0  0  0  0  0  0  0  0  0  0  0
   37.3280   23.6160   40.9170 C   0  0  0  0  0  0  0  0  0  0  0  0
   36.5730   24.5980   40.2560 C   0  0  0  0  0  0  0  0  0  0  0  0
   37.2110   25.7440   39.8580 C   0  0  0  0  0  0  0  0  0  0  0  0
   38.5540   25.8610   40.1320 N   0  0  0  0  0  0  0  0  0  0  0  0
   39.2590   24.9070   40.7680 C   0  0  0  0  0  0  0  0  0  0  0  0
   38.6300   23.7900   41.1530 N   0  0  0  0  0  0  0  0  0  0  0  0
   36.7300   22.7430   41.1920 H   0  0  0  0  0  0  0  0  0  0  0  0
   35.5310   24.5600   40.0190 H   0  0  0  0  0  0  0  0  0  0  0  0
   40.3130   25.0460   40.9590 H   0  0  0  0  0  0  0  0  0  0  0  0
   36.9400   30.4540   38.9920 O   0  0  0  0  0  0  0  0  0  0  0  0
   37.4090   32.5580   40.5140 O   0  0  0  0  0  0  0  0  0  0  0  0
   37.0500   31.1020   40.5740 P   0  0  1  0  0  0  0  0  0  0  0  0
   35.5730   30.8870   41.3450 O   0  0  0  0  0  0  0  0  0  0  0  0
   35.5650   30.0120   41.8070 H   0  0  0  0  0  0  0  0  0  0  0  0
   38.2970   30.2470   41.3820 O   0  0  0  0  0  0  0  0  0  0  0  0
   37.7650   29.6440   42.5040 C   0  0  0  0  0  2  0  0  0  0  0  0
   37.8930   28.2050   42.4360 N   0  0  0  0  0  4  0  0  0  0  0  0
   37.9840   27.8890   41.4420 H   0  0  0  0  0  0  0  0  0  0  0  0
   38.9970   27.7070   43.2130 C   0  0  0  0  0  2  0  0  0  0  0  0
   39.7660   28.4890   43.3220 H   0  0  0  0  0  0  0  0  0  0  0  0
   36.6730   27.5830   42.9530 C   0  0  0  0  0  2  0  0  0  0  0  0
   36.7990   27.4110   44.0410 H   0  0  0  0  0  0  0  0  0  0  0  0
  1  6  1  0  0  0  0
  1 12  1  0  0  0  0
  2  1  2  0  0  0  0
  3  4  2  0  0  0  0
  3  2  1  0  0  0  0
  4  5  1  0  0  0  0
  5 19  1  0  0  0  0
  5  6  2  0  0  0  0
  7  2  1  0  0  0  0
  8  3  1  0  0  0  0
  9  4  1  0  0  0  0
 10 15  1  0  0  0  0
 10 16  1  0  0  0  0
 11 10  2  0  0  0  0
 12 13  2  0  0  0  0
 12 11  1  0  0  0  0
 13 14  1  0  0  0  0
 14 18  1  0  0  0  0
 14 15  2  0  0  0  0
 17 11  1  0  0  0  0
 19 21  1  0  0  0  0
 21 20  2  6  0  0  0
 21 22  1  0  0  0  0
 21 24  1  0  0  0  0
 22 23  1  0  0  0  0
 24 25  1  0  0  0  0
 26 25  1  0  0  0  0
 26 30  1  0  0  0  0
 26 28  1  0  0  0  0
 27 26  1  0  0  0  0
 28 29  1  0  0  0  0
 30 31  1  0  0  0  0
M  END
>  <minimizedAffinity>
-4.72485352

$$$$

 OpenBabel03242522003D

 31 32  0  0  0  0  0  0  0  0999 V2000
   37.7160   28.0190   42.0130 C   0  0  0  0  0  0  0  0  0  0  0  0
   38.1420   29.3050   42.2350 C   0  0  0  0  0  0  0  0  0  0  0  0
   37.5060   30.4550   41.7870 C   0  0  0  0  0  0  0  0  0  0  0  0
   36.3440   30.3020   41.0570 C   0  0  0  0  0  0  0  0  0  0  0  0
   35.9270   29.0340   40.8440 C   0  0  0  0  0  0  0  0  0  0  0  0
   36.5660   27.9530   41.2900 N   0  0  0  0  0  0  0  0  0  0  0  0
   39.0770   29.3430   42.8250 H   0  0  0  0  0  0  0  0  0  0  0  0
   38.0250   31.3680   42.0810 H   0  0  0  0  0  0  0  0  0  0  0  0
   36.0070   31.2860   40.7850 H   0  0  0  0  0  0  0  0  0  0  0  0
   40.0260   25.5630   43.6800 C   0  0  0  0  0  0  0  0  0  0  0  0
   39.4800   26.8110   43.3380 C   0  0  0  0  0  0  0  0  0  0  0  0
   38.4140   26.8360   42.4790 C   0  0  0  0  0  0  0  0  0  0  0  0
   37.9420   25.6340   42.0040 N   0  0  0  0  0  0  0  0  0  0  0  0
   38.4800   24.4480   42.3440 C   0  0  0  0  0  0  0  0  0  0  0  0
   39.5220   24.4310   43.1840 N   0  0  0  0  0  0  0  0  0  0  0  0
   40.8700   25.6500   44.3690 H   0  0  0  0  0  0  0  0  0  0  0  0
   39.8060   27.7720   43.6770 H   0  0  0  0  0  0  0  0  0  0  0  0
   38.0730   23.5320   41.9430 H   0  0  0  0  0  0  0  0  0  0  0  0
   34.7620   28.8620   40.1180 O   0  0  0  0  0  0  0  0  0  0  0  0
   35.4030   27.3360   38.0620 O   0  0  0  0  0  0  0  0  0  0  0  0
   34.7500   28.6400   38.4190 P   0  0  1  0  0  0  0  0  0  0  0  0
   33.1580   28.6710   37.8860 O   0  0  0  0  0  0  0  0  0  0  0  0
   32.8990   29.6010   37.6700 H   0  0  0  0  0  0  0  0  0  0  0  0
   35.6540   29.9280   37.7370 O   0  0  0  0  0  0  0  0  0  0  0  0
   36.5810   29.4020   36.8600 C   0  0  0  0  0  2  0  0  0  0  0  0
   37.8730   30.0300   37.0250 N   0  0  0  0  0  4  0  0  0  0  0  0
   38.4810   29.8470   36.1930 H   0  0  0  0  0  0  0  0  0  0  0  0
   37.7780   31.4470   37.2610 C   0  0  0  0  0  2  0  0  0  0  0  0
   36.8400   31.8390   36.8330 H   0  0  0  0  0  0  0  0  0  0  0  0
   38.5600   29.4370   38.1730 C   0  0  0  0  0  2  0  0  0  0  0  0
   38.3060   30.0250   39.0780 H   0  0  0  0  0  0  0  0  0  0  0  0
  1  2  1  0  0  0  0
  1 12  1  0  0  0  0
  2  7  1  0  0  0  0
  3  8  1  0  0  0  0
  3  2  2  0  0  0  0
  4  3  1  0  0  0  0
  5  4  2  0  0  0  0
  5  6  1  0  0  0  0
  6  1  2  0  0  0  0
  9  4  1  0  0  0  0
 10 16  1  0  0  0  0
 11 17  1  0  0  0  0
 11 10  1  0  0  0  0
 12 11  2  0  0  0  0
 13 14  2  0  0  0  0
 13 12  1  0  0  0  0
 14 15  1  0  0  0  0
 15 10  2  0  0  0  0
 18 14  1  0  0  0  0
 19  5  1  0  0  0  0
 21 20  2  6  0  0  0
 21 19  1  0  0  0  0
 22 21  1  0  0  0  0
 23 22  1  0  0  0  0
 24 21  1  0  0  0  0
 25 26  1  0  0  0  0
 25 24  1  0  0  0  0
 26 28  1  0  0  0  0
 26 30  1  0  0  0  0
 27 26  1  0  0  0  0
 29 28  1  0  0  0  0
 30 31  1  0  0  0  0
M  END
>  <minimizedAffinity>
-4.57719898

$$$$

 OpenBabel03242522003D

 31 32  0  0  0  0  0  0  0  0999 V2000
   36.3110   27.4490   39.1920 C   0  0  0  0  0  0  0  0  0  0  0  0
   35.4410   27.2520   38.1490 C   0  0  0  0  0  0  0  0  0  0  0  0
   35.0710   28.2100   37.2140 C   0  0  0  0  0  0  0  0  0  0  0  0
   35.6240   29.4690   37.3340 C   0  0  0  0  0  0  0  0  0  0  0  0
   36.4830   29.6570   38.3610 C   0  0  0  0  0  0  0  0  0  0  0  0
   36.8130   28.7120   39.2410 N   0  0  0  0  0  0  0  0  0  0  0  0
   35.0420   26.2210   38.1210 H   0  0  0  0  0  0  0  0  0  0  0  0
   34.3660   27.8310   36.4740 H   0  0  0  0  0  0  0  0  0  0  0  0
   35.2150   30.0740   36.5450 H   0  0  0  0  0  0  0  0  0  0  0  0
   36.9660   24.2420   41.0460 C   0  0  0  0  0  0  0  0  0  0  0  0
   36.5750   25.0760   39.9850 C   0  0  0  0  0  0  0  0  0  0  0  0
   36.6630   26.4310   40.1640 C   0  0  0  0  0  0  0  0  0  0  0  0
   37.1290   26.8920   41.3740 N   0  0  0  0  0  0  0  0  0  0  0  0
   37.4980   26.0750   42.3780 C   0  0  0  0  0  0  0  0  0  0  0  0
   37.4100   24.7520   42.1960 N   0  0  0  0  0  0  0  0  0  0  0  0
   36.8590   23.1810   40.8050 H   0  0  0  0  0  0  0  0  0  0  0  0
   36.2070   24.7720   39.0280 H   0  0  0  0  0  0  0  0  0  0  0  0
   37.8580   26.4870   43.3090 H   0  0  0  0  0  0  0  0  0  0  0  0
   37.0490   30.9120   38.4950 O   0  0  0  0  0  0  0  0  0  0  0  0
   37.0760   33.2160   39.7820 O   0  0  0  0  0  0  0  0  0  0  0  0
   37.1490   31.7320   39.9960 P   0  0  1  0  0  0  0  0  0  0  0  0
   35.8880   31.2110   40.9760 O   0  0  0  0  0  0  0  0  0  0  0  0
   36.1770   30.4210   41.4960 H   0  0  0  0  0  0  0  0  0  0  0  0
   38.6680   31.3350   40.6850 O   0  0  0  0  0  0  0  0  0  0  0  0
   39.5840   31.1630   39.6680 C   0  0  0  0  0  2  0  0  0  0  0  0
   39.7520   32.3780   38.9020 N   0  0  0  0  0  4  0  0  0  0  0  0
   38.8290   32.8480   38.7480 H   0  0  0  0  0  0  0  0  0  0  0  0
   40.6750   33.2990   39.5140 C   0  0  0  0  0  2  0  0  0  0  0  0
   40.7150   33.1270   40.6020 H   0  0  0  0  0  0  0  0  0  0  0  0
   40.2720   32.0500   37.5740 C   0  0  0  0  0  2  0  0  0  0  0  0
   41.3800   32.0770   37.6120 H   0  0  0  0  0  0  0  0  0  0  0  0
  1  6  1  0  0  0  0
  1 12  1  0  0  0  0
  2  1  2  0  0  0  0
  3  4  2  0  0  0  0
  3  2  1  0  0  0  0
  4  5  1  0  0  0  0
  5 19  1  0  0  0  0
  5  6  2  0  0  0  0
  7  2  1  0  0  0  0
  8  3  1  0  0  0  0
  9  4  1  0  0  0  0
 10 15  1  0  0  0  0
 11 12  1  0  0  0  0
 11 10  2  0  0  0  0
 12 13  2  0  0  0  0
 13 14  1  0  0  0  0
 14 18  1  0  0  0  0
 15 14  2  0  0  0  0
 16 10  1  0  0  0  0
 17 11  1  0  0  0  0
 19 21  1  0  0  0  0
 21 20  2  6  0  0  0
 21 24  1  0  0  0  0
 21 22  1  0  0  0  0
 22 23  1  0  0  0  0
 25 24  1  0  0  0  0
 26 28  1  0  0  0  0
 26 25  1  0  0  0  0
 27 26  1  0  0  0  0
 28 29  1  0  0  0  0
 30 31  1  0  0  0  0
 30 26  1  0  0  0  0
M  END
>  <minimizedAffinity>
-4.56302786

$$$$

 OpenBabel03242522003D

 31 32  0  0  0  0  0  0  0  0999 V2000
   37.3350   26.7660   41.5820 C   0  0  0  0  0  0  0  0  0  0  0  0
   38.1280   26.7710   42.7020 C   0  0  0  0  0  0  0  0  0  0  0  0
   38.4350   27.8870   43.4690 C   0  0  0  0  0  0  0  0  0  0  0  0
   37.8990   29.0980   43.0810 C   0  0  0  0  0  0  0  0  0  0  0  0
   37.1150   29.0870   41.9790 C   0  0  0  0  0  0  0  0  0  0  0  0
   36.8440   27.9940   41.2670 N   0  0  0  0  0  0  0  0  0  0  0  0
   38.5190   25.7660   42.9470 H   0  0  0  0  0  0  0  0  0  0  0  0
   39.0840   27.6560   44.3140 H   0  0  0  0  0  0  0  0  0  0  0  0
   38.2530   29.8410   43.7730 H   0  0  0  0  0  0  0  0  0  0  0  0
   36.9600   23.2700   40.2450 C   0  0  0  0  0  0  0  0  0  0  0  0
   37.3130   24.2880   41.1460 C   0  0  0  0  0  0  0  0  0  0  0  0
   37.0480   25.5840   40.7910 C   0  0  0  0  0  0  0  0  0  0  0  0
   36.4510   25.8080   39.5720 N   0  0  0  0  0  0  0  0  0  0  0  0
   36.1200   24.8170   38.7230 C   0  0  0  0  0  0  0  0  0  0  0  0
   36.3820   23.5530   39.0770 N   0  0  0  0  0  0  0  0  0  0  0  0
   37.2120   22.2740   40.6200 H   0  0  0  0  0  0  0  0  0  0  0  0
   37.7780   24.1700   42.1020 H   0  0  0  0  0  0  0  0  0  0  0  0
   35.6520   25.0460   37.7770 H   0  0  0  0  0  0  0  0  0  0  0  0
   36.5660   30.2920   41.5780 O   0  0  0  0  0  0  0  0  0  0  0  0
   36.4350   30.7150   38.9770 O   0  0  0  0  0  0  0  0  0  0  0  0
   37.1390   31.1690   40.2220 P   0  0  1  0  0  0  0  0  0  0  0  0
   36.8730   32.8050   40.4910 O   0  0  0  0  0  0  0  0  0  0  0  0
   37.6540   33.1960   40.9540 H   0  0  0  0  0  0  0  0  0  0  0  0
   38.8140   30.8330   40.0770 O   0  0  0  0  0  0  0  0  0  0  0  0
   39.0350   30.1950   38.8750 C   0  0  0  0  0  2  0  0  0  0  0  0
   38.8710   28.7640   39.0020 N   0  0  0  0  0  4  0  0  0  0  0  0
   38.1150   28.5390   39.6910 H   0  0  0  0  0  0  0  0  0  0  0  0
   38.5950   28.1200   37.7440 C   0  0  0  0  0  2  0  0  0  0  0  0
   38.1260   28.8350   37.0490 H   0  0  0  0  0  0  0  0  0  0  0  0
   40.1000   28.1770   39.5380 C   0  0  0  0  0  2  0  0  0  0  0  0
   40.7550   27.8940   38.6880 H   0  0  0  0  0  0  0  0  0  0  0  0
  1  2  1  0  0  0  0
  2  7  1  0  0  0  0
  2  3  2  0  0  0  0
  3  8  1  0  0  0  0
  4  3  1  0  0  0  0
  4  9  1  0  0  0  0
  5  4  2  0  0  0  0
  6  1  2  0  0  0  0
  6  5  1  0  0  0  0
 10 16  1  0  0  0  0
 10 11  1  0  0  0  0
 11 17  1  0  0  0  0
 12 11  2  0  0  0  0
 12  1  1  0  0  0  0
 13 12  1  0  0  0  0
 14 15  1  0  0  0  0
 14 13  2  0  0  0  0
 15 10  2  0  0  0  0
 18 14  1  0  0  0  0
 19  5  1  0  0  0  0
 21 20  2  6  0  0  0
 21 22  1  0  0  0  0
 21 19  1  0  0  0  0
 22 23  1  0  0  0  0
 24 21  1  0  0  0  0
 25 26  1  0  0  0  0
 25 24  1  0  0  0  0
 26 30  1  0  0  0  0
 26 27  1  0  0  0  0
 28 26  1  0  0  0  0
 29 28  1  0  0  0  0
 31 30  1  0  0  0  0
M  END
>  <minimizedAffinity>
-4.561656

$$$$

 OpenBabel03242522003D

 31 32  0  0  0  0  0  0  0  0999 V2000
   37.6640   28.5530   41.6750 C   0  0  0  0  0  0  0  0  0  0  0  0
   36.4980   28.0480   41.1540 C   0  0  0  0  0  0  0  0  0  0  0  0
   35.5140   28.7870   40.5110 C   0  0  0  0  0  0  0  0  0  0  0  0
   35.7180   30.1460   40.3770 C   0  0  0  0  0  0  0  0  0  0  0  0
   36.8690   30.6380   40.8890 C   0  0  0  0  0  0  0  0  0  0  0  0
   37.7910   29.8960   41.5010 N   0  0  0  0  0  0  0  0  0  0  0  0
   36.4090   26.9560   41.3010 H   0  0  0  0  0  0  0  0  0  0  0  0
   34.6740   28.1770   40.1790 H   0  0  0  0  0  0  0  0  0  0  0  0
   34.8570   30.5500   39.8760 H   0  0  0  0  0  0  0  0  0  0  0  0
   40.6740   27.2930   43.5450 C   0  0  0  0  0  0  0  0  0  0  0  0
   39.8240   28.2200   42.9210 C   0  0  0  0  0  0  0  0  0  0  0  0
   38.6640   27.7560   42.3590 C   0  0  0  0  0  0  0  0  0  0  0  0
   38.4040   26.4070   42.4410 N   0  0  0  0  0  0  0  0  0  0  0  0
   39.2330   25.5350   43.0440 C   0  0  0  0  0  0  0  0  0  0  0  0
   40.3640   25.9960   43.5920 N   0  0  0  0  0  0  0  0  0  0  0  0
   41.5700   27.7610   43.9620 H   0  0  0  0  0  0  0  0  0  0  0  0
   39.9770   29.2750   42.8280 H   0  0  0  0  0  0  0  0  0  0  0  0
   38.9820   24.4860   43.0830 H   0  0  0  0  0  0  0  0  0  0  0  0
   37.0910   31.9970   40.7600 O   0  0  0  0  0  0  0  0  0  0  0  0
   38.5650   34.1610   40.4330 O   0  0  0  0  0  0  0  0  0  0  0  0
   38.6530   32.6660   40.5390 P   0  0  1  0  0  0  0  0  0  0  0  0
   39.6170   32.2190   41.8390 O   0  0  0  0  0  0  0  0  0  0  0  0
   40.0620   31.3580   41.6410 H   0  0  0  0  0  0  0  0  0  0  0  0
   39.2680   32.0320   39.0690 O   0  0  0  0  0  0  0  0  0  0  0  0
   40.4550   31.3810   39.3310 C   0  0  0  0  0  2  0  0  0  0  0  0
   40.2340   29.9800   39.6120 N   0  0  0  0  0  4  0  0  0  0  0  0
   39.6740   29.8620   40.4880 H   0  0  0  0  0  0  0  0  0  0  0  0
   39.5930   29.2880   38.5230 C   0  0  0  0  0  2  0  0  0  0  0  0
   39.0070   29.9980   37.9180 H   0  0  0  0  0  0  0  0  0  0  0  0
   41.5190   29.3220   39.8560 C   0  0  0  0  0  2  0  0  0  0  0  0
   41.9050   28.9330   38.8920 H   0  0  0  0  0  0  0  0  0  0  0  0
  1 12  1  0  0  0  0
  2  7  1  0  0  0  0
  2  1  2  0  0  0  0
  3  2  1  0  0  0  0
  4  3  2  0  0  0  0
  4  5  1  0  0  0  0
  5  6  2  0  0  0  0
  6  1  1  0  0  0  0
  8  3  1  0  0  0  0
  9  4  1  0  0  0  0
 10 15  1  0  0  0  0
 10 16  1  0  0  0  0
 11 10  2  0  0  0  0
 12 13  2  0  0  0  0
 12 11  1  0  0  0  0
 13 14  1  0  0  0  0
 14 18  1  0  0  0  0
 14 15  2  0  0  0  0
 17 11  1  0  0  0  0
 19  5  1  0  0  0  0
 21 20  2  6  0  0  0
 21 19  1  0  0  0  0
 21 22  1  0  0  0  0
 23 22  1  0  0  0  0
 24 25  1  0  0  0  0
 24 21  1  0  0  0  0
 25 26  1  0  0  0  0
 26 30  1  0  0  0  0
 26 27  1  0  0  0  0
 28 26  1  0  0  0  0
 29 28  1  0  0  0  0
 31 30  1  0  0  0  0
M  END
>  <minimizedAffinity>
-4.5526433

$$$$

 OpenBabel03242522003D

 31 32  0  0  0  0  0  0  0  0999 V2000
   36.8390   27.4360   40.1190 C   0  0  0  0  0  0  0  0  0  0  0  0
   35.9340   27.5440   39.0920 C   0  0  0  0  0  0  0  0  0  0  0  0
   35.3350   28.7220   38.6630 C   0  0  0  0  0  0  0  0  0  0  0  0
   35.6740   29.8890   39.3190 C   0  0  0  0  0  0  0  0  0  0  0  0
   36.5680   29.7770   40.3270 C   0  0  0  0  0  0  0  0  0  0  0  0
   37.1220   28.6270   40.7110 N   0  0  0  0  0  0  0  0  0  0  0  0
   35.7140   26.5690   38.6190 H   0  0  0  0  0  0  0  0  0  0  0  0
   34.6470   28.5700   37.8310 H   0  0  0  0  0  0  0  0  0  0  0  0
   35.1080   30.6840   38.8690 H   0  0  0  0  0  0  0  0  0  0  0  0
   37.9110   24.3680   42.0110 C   0  0  0  0  0  0  0  0  0  0  0  0
   37.2500   25.5830   41.7700 C   0  0  0  0  0  0  0  0  0  0  0  0
   37.4330   26.1870   40.5540 C   0  0  0  0  0  0  0  0  0  0  0  0
   38.2540   25.5630   39.6420 N   0  0  0  0  0  0  0  0  0  0  0  0
   38.8780   24.3980   39.8940 C   0  0  0  0  0  0  0  0  0  0  0  0
   38.6940   23.8130   41.0850 N   0  0  0  0  0  0  0  0  0  0  0  0
   37.7000   23.9680   43.0070 H   0  0  0  0  0  0  0  0  0  0  0  0
   36.6040   26.1110   42.4400 H   0  0  0  0  0  0  0  0  0  0  0  0
   39.5120   23.9480   39.1450 H   0  0  0  0  0  0  0  0  0  0  0  0
   36.9230   30.9370   40.9930 O   0  0  0  0  0  0  0  0  0  0  0  0
   38.5090   31.6660   39.0150 O   0  0  0  0  0  0  0  0  0  0  0  0
   37.8590   32.1750   40.2680 P   0  0  1  0  0  0  0  0  0  0  0  0
   36.8550   33.4780   39.9290 O   0  0  0  0  0  0  0  0  0  0  0  0
   36.8270   34.0860   40.7080 H   0  0  0  0  0  0  0  0  0  0  0  0
   39.0750   32.6120   41.3970 O   0  0  0  0  0  0  0  0  0  0  0  0
   39.6360   31.4610   41.9100 C   0  0  0  0  0  2  0  0  0  0  0  0
   40.9900   31.6940   42.3620 N   0  0  0  0  0  4  0  0  0  0  0  0
   41.0030   32.3920   43.1420 H   0  0  0  0  0  0  0  0  0  0  0  0
   41.6560   30.4860   42.7730 C   0  0  0  0  0  2  0  0  0  0  0  0
   40.9140   29.7350   43.0910 H   0  0  0  0  0  0  0  0  0  0  0  0
   41.7730   32.2810   41.2740 C   0  0  0  0  0  2  0  0  0  0  0  0
   42.2470   31.4600   40.6980 H   0  0  0  0  0  0  0  0  0  0  0  0
  1 12  1  0  0  0  0
  1  6  1  0  0  0  0
  2  1  2  0  0  0  0
  3  2  1  0  0  0  0
  3  4  2  0  0  0  0
  4  5  1  0  0  0  0
  5  6  2  0  0  0  0
  5 19  1  0  0  0  0
  7  2  1  0  0  0  0
  8  3  1  0  0  0  0
  9  4  1  0  0  0  0
 10 16  1  0  0  0  0
 11 10  1  0  0  0  0
 11 17  1  0  0  0  0
 12 11  2  0  0  0  0
 13 14  2  0  0  0  0
 13 12  1  0  0  0  0
 14 15  1  0  0  0  0
 15 10  2  0  0  0  0
 18 14  1  0  0  0  0
 21 20  2  6  0  0  0
 21 19  1  0  0  0  0
 21 24  1  0  0  0  0
 22 21  1  0  0  0  0
 22 23  1  0  0  0  0
 24 25  1  0  0  0  0
 25 26  1  0  0  0  0
 26 28  1  0  0  0  0
 26 27  1  0  0  0  0
 28 29  1  0  0  0  0
 30 26  1  0  0  0  0
 31 30  1  0  0  0  0
M  END
>  <minimizedAffinity>
-4.5092535

$$$$
