
 OpenBabel03252502553D

 35 36  0  0  0  0  0  0  0  0999 V2000
   45.6010   30.0010   44.7020 Br  0  0  0  0  0  0  0  0  0  0  0  0
   45.6700   30.7050   46.5000 C   0  0  0  0  0  0  0  0  0  0  0  0
   46.3580   31.8820   46.6520 C   0  0  0  0  0  0  0  0  0  0  0  0
   46.3850   32.3570   47.9640 C   0  0  0  0  0  0  0  0  0  0  0  0
   45.7800   31.7140   49.0230 C   0  0  0  0  0  0  0  0  0  0  0  0
   45.1150   30.5450   48.7870 C   0  0  0  0  0  0  0  0  0  0  0  0
   45.0470   30.0190   47.5210 C   0  0  0  0  0  0  0  0  0  0  0  0
   46.9090   33.2890   48.1790 H   0  0  0  0  0  0  0  0  0  0  0  0
   45.8390   32.1400   50.0290 H   0  0  0  0  0  0  0  0  0  0  0  0
   44.6510   30.0700   49.6530 H   0  0  0  0  0  0  0  0  0  0  0  0
   47.0350   32.6560   45.6260 C   0  0  0  0  0  0  0  0  0  0  0  0
   47.2860   31.9630   44.7810 H   0  0  0  0  0  0  0  0  0  0  0  0
   48.0110   33.0950   45.9450 H   0  0  0  0  0  0  0  0  0  0  0  0
   44.5410   35.3940   45.2180 C   0  0  0  0  0  0  0  0  0  0  0  0
   44.7860   35.8160   43.8960 C   0  0  0  0  0  0  0  0  0  0  0  0
   45.7860   35.1630   43.1810 C   0  0  0  0  0  0  0  0  0  0  0  0
   46.4710   34.1670   43.7730 N   0  0  0  0  0  0  0  0  0  0  0  0
   46.2170   33.7710   45.0630 C   0  0  0  0  0  0  0  0  0  0  0  0
   45.2440   34.4130   45.7440 N   0  0  0  0  0  0  0  0  0  0  0  0
   43.8000   35.8050   45.8930 H   0  0  0  0  0  0  0  0  0  0  0  0
   44.1700   36.6210   43.5390 H   0  0  0  0  0  0  0  0  0  0  0  0
   45.9630   35.4920   42.1780 H   0  0  0  0  0  0  0  0  0  0  0  0
   44.3700   28.8320   47.2860 O   0  0  0  0  0  0  0  0  0  0  0  0
   44.2840   26.2880   46.7620 O   0  0  0  0  0  0  0  0  0  0  0  0
   45.0110   27.2920   47.6420 P   0  0  2  0  0  0  0  0  0  0  0  0
   44.7060   26.9800   49.2610 O   0  0  0  0  0  0  0  0  0  0  0  0
   45.4240   27.2200   49.8790 H   0  0  0  0  0  0  0  0  0  0  0  0
   46.6530   27.2110   47.3020 O   0  0  0  0  0  0  0  0  0  0  0  0
   47.1790   25.9490   47.5690 C   0  0  0  0  0  2  0  0  0  0  0  0
   47.6160   25.7990   48.9390 N   0  0  0  0  0  4  0  0  0  0  0  0
   47.2150   26.5360   49.5540 H   0  0  0  0  0  0  0  0  0  0  0  0
   47.2130   24.4700   49.3910 C   0  0  0  0  0  2  0  0  0  0  0  0
   46.2740   24.2170   48.8400 H   0  0  0  0  0  0  0  0  0  0  0  0
   49.0660   25.8470   49.0500 C   0  0  0  0  0  2  0  0  0  0  0  0
   49.4690   26.8640   48.8610 H   0  0  0  0  0  0  0  0  0  0  0  0
  1  2  1  0  0  0  0
  2  3  2  0  0  0  0
  2  7  1  0  0  0  0
  3  4  1  0  0  0  0
  4  8  1  0  0  0  0
  4  5  2  0  0  0  0
  5  9  1  0  0  0  0
  6  5  1  0  0  0  0
  6 10  1  0  0  0  0
  7  6  2  0  0  0  0
 11 13  1  0  0  0  0
 11  3  1  0  0  0  0
 12 11  1  0  0  0  0
 14 19  1  0  0  0  0
 14 20  1  0  0  0  0
 15 14  2  0  0  0  0
 16 17  2  0  0  0  0
 16 15  1  0  0  0  0
 17 18  1  0  0  0  0
 18 11  1  0  0  0  0
 18 19  2  0  0  0  0
 21 15  1  0  0  0  0
 22 16  1  0  0  0  0
 23  7  1  0  0  0  0
 23 25  1  0  0  0  0
 25 24  2  6  0  0  0
 25 26  1  0  0  0  0
 26 27  1  0  0  0  0
 28 29  1  0  0  0  0
 28 25  1  0  0  0  0
 29 30  1  0  0  0  0
 30 34  1  0  0  0  0
 30 32  1  0  0  0  0
 30 31  1  0  0  0  0
 33 32  1  0  0  0  0
 35 34  1  0  0  0  0
M  END
>  <minimizedAffinity>
-5.09287596

>  <minimizedRMSD>
0.700154305

$$$$
