
 OpenBabel03252502553D

 35 36  0  0  0  0  0  0  0  0999 V2000
   45.5570   29.9430   44.7810 Br  0  0  0  0  0  0  0  0  0  0  0  0
   45.6450   30.5940   46.5980 C   0  0  0  0  0  0  0  0  0  0  0  0
   46.3470   31.7580   46.7810 C   0  0  0  0  0  0  0  0  0  0  0  0
   46.3860   32.1940   48.1060 C   0  0  0  0  0  0  0  0  0  0  0  0
   45.7810   31.5280   49.1490 C   0  0  0  0  0  0  0  0  0  0  0  0
   45.1010   30.3730   48.8830 C   0  0  0  0  0  0  0  0  0  0  0  0
   45.0200   29.8860   47.6030 C   0  0  0  0  0  0  0  0  0  0  0  0
   46.9220   33.1130   48.3440 H   0  0  0  0  0  0  0  0  0  0  0  0
   45.8500   31.9230   50.1660 H   0  0  0  0  0  0  0  0  0  0  0  0
   44.6360   29.8790   49.7380 H   0  0  0  0  0  0  0  0  0  0  0  0
   47.0260   32.5530   45.7740 C   0  0  0  0  0  0  0  0  0  0  0  0
   47.2890   31.8770   44.9180 H   0  0  0  0  0  0  0  0  0  0  0  0
   47.9970   32.9940   46.1080 H   0  0  0  0  0  0  0  0  0  0  0  0
   44.5470   35.3100   45.4060 C   0  0  0  0  0  0  0  0  0  0  0  0
   44.7660   35.7240   44.0770 C   0  0  0  0  0  0  0  0  0  0  0  0
   45.7450   35.0600   43.3440 C   0  0  0  0  0  0  0  0  0  0  0  0
   46.4350   34.0610   43.9250 N   0  0  0  0  0  0  0  0  0  0  0  0
   46.2050   33.6720   45.2230 C   0  0  0  0  0  0  0  0  0  0  0  0
   45.2530   34.3260   45.9210 N   0  0  0  0  0  0  0  0  0  0  0  0
   43.8240   35.7300   46.0950 H   0  0  0  0  0  0  0  0  0  0  0  0
   44.1490   36.5330   43.7290 H   0  0  0  0  0  0  0  0  0  0  0  0
   45.9030   35.3820   42.3350 H   0  0  0  0  0  0  0  0  0  0  0  0
   44.3270   28.7130   47.3370 O   0  0  0  0  0  0  0  0  0  0  0  0
   44.0860   26.1500   46.9840 O   0  0  0  0  0  0  0  0  0  0  0  0
   44.8850   27.1650   47.7850 P   0  0  2  0  0  0  0  0  0  0  0  0
   44.5910   26.9780   49.4260 O   0  0  0  0  0  0  0  0  0  0  0  0
   45.3330   27.2150   50.0160 H   0  0  0  0  0  0  0  0  0  0  0  0
   46.5130   26.9650   47.4290 O   0  0  0  0  0  0  0  0  0  0  0  0
   46.8520   25.6230   47.2720 C   0  0  0  0  0  2  0  0  0  0  0  0
   46.5000   24.8160   48.4200 N   0  0  0  0  0  4  0  0  0  0  0  0
   45.6990   25.2210   48.9450 H   0  0  0  0  0  0  0  0  0  0  0  0
   46.1790   23.4750   47.9380 C   0  0  0  0  0  2  0  0  0  0  0  0
   45.7530   23.5980   46.9140 H   0  0  0  0  0  0  0  0  0  0  0  0
   47.6220   24.6650   49.3350 C   0  0  0  0  0  2  0  0  0  0  0  0
   47.8600   25.6090   49.8670 H   0  0  0  0  0  0  0  0  0  0  0  0
  1  2  1  0  0  0  0
  2  3  2  0  0  0  0
  2  7  1  0  0  0  0
  3  4  1  0  0  0  0
  4  8  1  0  0  0  0
  4  5  2  0  0  0  0
  5  9  1  0  0  0  0
  6  5  1  0  0  0  0
  6 10  1  0  0  0  0
  7  6  2  0  0  0  0
 11 13  1  0  0  0  0
 11  3  1  0  0  0  0
 12 11  1  0  0  0  0
 14 19  1  0  0  0  0
 14 20  1  0  0  0  0
 15 14  2  0  0  0  0
 16 17  2  0  0  0  0
 16 15  1  0  0  0  0
 17 18  1  0  0  0  0
 18 11  1  0  0  0  0
 18 19  2  0  0  0  0
 21 15  1  0  0  0  0
 22 16  1  0  0  0  0
 23  7  1  0  0  0  0
 23 25  1  0  0  0  0
 25 24  2  6  0  0  0
 25 26  1  0  0  0  0
 26 27  1  0  0  0  0
 28 25  1  0  0  0  0
 29 28  1  0  0  0  0
 29 30  1  0  0  0  0
 30 31  1  0  0  0  0
 30 34  1  0  0  0  0
 32 30  1  0  0  0  0
 33 32  1  0  0  0  0
 34 35  1  0  0  0  0
M  END
>  <minimizedAffinity>
-4.83320475

>  <minimizedRMSD>
0.390110165

$$$$
