
 OpenBabel03252502233D

 32 33  0  0  1  0  0  0  0  0999 V2000
   46.8760   34.6280   42.2900 N   0  0  0  0  0  0  0  0  0  0  0  0
   48.3330   34.7000   42.3440 C   0  0  0  0  0  0  0  0  0  0  0  0
   48.7310   35.4860   41.0930 C   0  0  0  0  0  0  0  0  0  0  0  0
   48.3660   34.7080   39.8520 C   0  0  0  0  0  0  0  0  0  0  0  0
   47.0770   33.9630   39.9360 C   0  0  0  0  0  0  0  0  0  0  0  0
   46.1830   34.4000   41.0670 C   0  0  1  0  0  0  0  0  0  0  0  0
   48.6940   33.6550   42.3010 H   0  0  0  0  0  0  0  0  0  0  0  0
   48.6980   35.2410   43.2320 H   0  0  0  0  0  0  0  0  0  0  0  0
   48.2380   36.4600   41.1620 H   0  0  0  0  0  0  0  0  0  0  0  0
   49.8300   35.6130   41.1020 H   0  0  0  0  0  0  0  0  0  0  0  0
   48.2720   35.4530   39.0200 H   0  0  0  0  0  0  0  0  0  0  0  0
   49.1810   34.0210   39.5450 H   0  0  0  0  0  0  0  0  0  0  0  0
   47.3070   32.8850   40.1450 H   0  0  0  0  0  0  0  0  0  0  0  0
   46.4750   33.9770   39.0090 H   0  0  0  0  0  0  0  0  0  0  0  0
   45.6120   35.2820   40.7370 H   0  0  0  0  0  0  0  0  0  0  0  0
   44.4810   35.9150   44.8390 C   0  0  0  0  0  0  0  0  0  0  0  0
   45.1980   35.8510   43.6310 C   0  0  0  0  0  0  0  0  0  0  0  0
   46.1010   34.7850   43.4750 C   0  0  0  0  0  0  0  0  0  0  0  0
   46.2140   33.8990   44.4990 N   0  0  0  0  0  0  0  0  0  0  0  0
   45.5040   34.0010   45.6430 C   0  0  0  0  0  0  0  0  0  0  0  0
   44.6310   35.0230   45.8030 N   0  0  0  0  0  0  0  0  0  0  0  0
   43.8200   36.7850   44.8270 H   0  0  0  0  0  0  0  0  0  0  0  0
   45.1280   36.5330   42.8090 H   0  0  0  0  0  0  0  0  0  0  0  0
   45.5980   33.2940   46.4550 H   0  0  0  0  0  0  0  0  0  0  0  0
   45.2480   33.3550   41.2450 O   0  0  0  0  0  0  0  0  0  0  0  0
   43.9820   33.7000   40.7960 C   0  0  0  0  0  0  0  0  0  0  0  0
   43.0310   33.2810   41.8160 N   0  0  0  0  0  0  0  0  0  0  0  0
   43.0420   33.8640   42.6680 H   0  0  0  0  0  0  0  0  0  0  0  0
   43.2600   31.9110   42.2150 C   0  0  0  0  0  0  0  0  0  0  0  0
   42.3980   31.5570   42.8080 H   0  0  0  0  0  0  0  0  0  0  0  0
   41.7000   33.3170   41.2160 C   0  0  0  0  0  0  0  0  0  0  0  0
   41.4760   32.4150   40.6210 H   0  0  0  0  0  0  0  0  0  0  0  0
  1  2  1  0  0  0  0
  1 18  1  0  0  0  0
  2  8  1  0  0  0  0
  3 10  1  0  0  0  0
  3  9  1  0  0  0  0
  3  2  1  0  0  0  0
  4  5  1  0  0  0  0
  4  3  1  0  0  0  0
  5 13  1  0  0  0  0
  5  6  1  0  0  0  0
  6 15  1  6  0  0  0
  6 25  1  0  0  0  0
  6  1  1  0  0  0  0
  7  2  1  0  0  0  0
 11  4  1  0  0  0  0
 12  4  1  0  0  0  0
 14  5  1  0  0  0  0
 16 21  1  0  0  0  0
 17 16  2  0  0  0  0
 18 17  1  0  0  0  0
 18 19  2  0  0  0  0
 19 20  1  0  0  0  0
 20 21  2  0  0  0  0
 20 24  1  0  0  0  0
 22 16  1  0  0  0  0
 23 17  1  0  0  0  0
 26 25  1  0  0  0  0
 26 27  1  0  0  0  0
 27 29  1  0  0  0  0
 27 28  1  0  0  0  0
 29 30  1  0  0  0  0
 31 27  1  0  0  0  0
 32 31  1  0  0  0  0
M  END
>  <minimizedAffinity>
-5.00772715

>  <minimizedRMSD>
0.598937631

$$$$
