
 OpenBabel03252502553D

 35 36  0  0  0  0  0  0  0  0999 V2000
   45.6200   29.9380   44.8340 Br  0  0  0  0  0  0  0  0  0  0  0  0
   45.6580   30.6160   46.6430 C   0  0  0  0  0  0  0  0  0  0  0  0
   46.3370   31.7940   46.8230 C   0  0  0  0  0  0  0  0  0  0  0  0
   46.3410   32.2500   48.1430 C   0  0  0  0  0  0  0  0  0  0  0  0
   45.7250   31.5880   49.1820 C   0  0  0  0  0  0  0  0  0  0  0  0
   45.0700   30.4190   48.9180 C   0  0  0  0  0  0  0  0  0  0  0  0
   45.0240   29.9120   47.6450 C   0  0  0  0  0  0  0  0  0  0  0  0
   46.8570   33.1810   48.3790 H   0  0  0  0  0  0  0  0  0  0  0  0
   45.7660   31.9990   50.1950 H   0  0  0  0  0  0  0  0  0  0  0  0
   44.5950   29.9280   49.7710 H   0  0  0  0  0  0  0  0  0  0  0  0
   47.0250   32.5870   45.8190 C   0  0  0  0  0  0  0  0  0  0  0  0
   47.3080   31.9050   44.9750 H   0  0  0  0  0  0  0  0  0  0  0  0
   47.9850   33.0410   46.1650 H   0  0  0  0  0  0  0  0  0  0  0  0
   44.5310   35.3220   45.3880 C   0  0  0  0  0  0  0  0  0  0  0  0
   44.7580   35.7150   44.0540 C   0  0  0  0  0  0  0  0  0  0  0  0
   45.7470   35.0450   43.3390 C   0  0  0  0  0  0  0  0  0  0  0  0
   46.4380   34.0610   43.9420 N   0  0  0  0  0  0  0  0  0  0  0  0
   46.2010   33.6920   45.2440 C   0  0  0  0  0  0  0  0  0  0  0  0
   45.2390   34.3510   45.9240 N   0  0  0  0  0  0  0  0  0  0  0  0
   43.8000   35.7490   46.0640 H   0  0  0  0  0  0  0  0  0  0  0  0
   44.1390   36.5150   43.6890 H   0  0  0  0  0  0  0  0  0  0  0  0
   45.9100   35.3520   42.3270 H   0  0  0  0  0  0  0  0  0  0  0  0
   44.3570   28.7240   47.3810 O   0  0  0  0  0  0  0  0  0  0  0  0
   44.2310   26.1590   46.9840 O   0  0  0  0  0  0  0  0  0  0  0  0
   44.9390   27.1900   47.8480 P   0  0  2  0  0  0  0  0  0  0  0  0
   44.5440   26.9710   49.4640 O   0  0  0  0  0  0  0  0  0  0  0  0
   45.2370   27.2260   50.1050 H   0  0  0  0  0  0  0  0  0  0  0  0
   46.5930   27.0530   47.5980 O   0  0  0  0  0  0  0  0  0  0  0  0
   46.9020   26.0280   46.7070 C   0  0  0  0  0  2  0  0  0  0  0  0
   47.5040   26.5100   45.4820 N   0  0  0  0  0  4  0  0  0  0  0  0
   47.6780   27.5340   45.5160 H   0  0  0  0  0  0  0  0  0  0  0  0
   48.7540   25.7790   45.2850 C   0  0  0  0  0  2  0  0  0  0  0  0
   49.1440   25.5350   46.3030 H   0  0  0  0  0  0  0  0  0  0  0  0
   46.6730   26.2190   44.3240 C   0  0  0  0  0  2  0  0  0  0  0  0
   45.7510   26.8360   44.3030 H   0  0  0  0  0  0  0  0  0  0  0  0
  1  2  1  0  0  0  0
  2  3  2  0  0  0  0
  2  7  1  0  0  0  0
  3  4  1  0  0  0  0
  4  8  1  0  0  0  0
  4  5  2  0  0  0  0
  5  9  1  0  0  0  0
  6  5  1  0  0  0  0
  6 10  1  0  0  0  0
  7  6  2  0  0  0  0
 11 13  1  0  0  0  0
 11  3  1  0  0  0  0
 12 11  1  0  0  0  0
 14 19  1  0  0  0  0
 14 20  1  0  0  0  0
 15 14  2  0  0  0  0
 16 17  2  0  0  0  0
 16 15  1  0  0  0  0
 17 18  1  0  0  0  0
 18 11  1  0  0  0  0
 18 19  2  0  0  0  0
 21 15  1  0  0  0  0
 22 16  1  0  0  0  0
 23  7  1  0  0  0  0
 23 25  1  0  0  0  0
 25 24  2  6  0  0  0
 25 26  1  0  0  0  0
 26 27  1  0  0  0  0
 28 25  1  0  0  0  0
 29 28  1  0  0  0  0
 30 31  1  0  0  0  0
 30 29  1  0  0  0  0
 32 30  1  0  0  0  0
 32 33  1  0  0  0  0
 34 30  1  0  0  0  0
 35 34  1  0  0  0  0
M  END
>  <minimizedAffinity>
-4.53097916

>  <minimizedRMSD>
0.376168966

$$$$
