
 OpenBabel03252502553D

 35 36  0  0  0  0  0  0  0  0999 V2000
   45.6200   29.9910   44.8310 Br  0  0  0  0  0  0  0  0  0  0  0  0
   45.6550   30.6530   46.6460 C   0  0  0  0  0  0  0  0  0  0  0  0
   46.3380   31.8270   46.8380 C   0  0  0  0  0  0  0  0  0  0  0  0
   46.3400   32.2720   48.1610 C   0  0  0  0  0  0  0  0  0  0  0  0
   45.7180   31.6030   49.1930 C   0  0  0  0  0  0  0  0  0  0  0  0
   45.0590   30.4390   48.9170 C   0  0  0  0  0  0  0  0  0  0  0  0
   45.0150   29.9430   47.6390 C   0  0  0  0  0  0  0  0  0  0  0  0
   46.8590   33.1980   48.4070 H   0  0  0  0  0  0  0  0  0  0  0  0
   45.7580   32.0060   50.2090 H   0  0  0  0  0  0  0  0  0  0  0  0
   44.5800   29.9430   49.7640 H   0  0  0  0  0  0  0  0  0  0  0  0
   47.0320   32.6250   45.8430 C   0  0  0  0  0  0  0  0  0  0  0  0
   47.3390   31.9440   45.0060 H   0  0  0  0  0  0  0  0  0  0  0  0
   47.9800   33.0930   46.2020 H   0  0  0  0  0  0  0  0  0  0  0  0
   44.5220   35.3380   45.3650 C   0  0  0  0  0  0  0  0  0  0  0  0
   44.7520   35.7150   44.0280 C   0  0  0  0  0  0  0  0  0  0  0  0
   45.7480   35.0430   43.3250 C   0  0  0  0  0  0  0  0  0  0  0  0
   46.4430   34.0710   43.9440 N   0  0  0  0  0  0  0  0  0  0  0  0
   46.2040   33.7170   45.2500 C   0  0  0  0  0  0  0  0  0  0  0  0
   45.2350   34.3790   45.9170 N   0  0  0  0  0  0  0  0  0  0  0  0
   43.7860   35.7690   46.0330 H   0  0  0  0  0  0  0  0  0  0  0  0
   44.1300   36.5060   43.6490 H   0  0  0  0  0  0  0  0  0  0  0  0
   45.9140   35.3370   42.3100 H   0  0  0  0  0  0  0  0  0  0  0  0
   44.3440   28.7600   47.3630 O   0  0  0  0  0  0  0  0  0  0  0  0
   44.2050   26.2120   46.8720 O   0  0  0  0  0  0  0  0  0  0  0  0
   44.9690   27.2140   47.7230 P   0  0  2  0  0  0  0  0  0  0  0  0
   44.6980   26.9260   49.3530 O   0  0  0  0  0  0  0  0  0  0  0  0
   45.4350   27.1620   49.9500 H   0  0  0  0  0  0  0  0  0  0  0  0
   46.6010   27.1020   47.3440 O   0  0  0  0  0  0  0  0  0  0  0  0
   47.1140   25.8370   47.6190 C   0  0  0  0  0  0  0  0  0  0  0  0
   47.5700   25.6990   48.9850 N   0  0  0  0  0  0  0  0  0  0  0  0
   47.1710   26.4360   49.6000 H   0  0  0  0  0  0  0  0  0  0  0  0
   47.1810   24.3690   49.4500 C   0  0  0  0  0  0  0  0  0  0  0  0
   46.2370   24.1080   48.9140 H   0  0  0  0  0  0  0  0  0  0  0  0
   49.0210   25.7560   49.0750 C   0  0  0  0  0  0  0  0  0  0  0  0
   49.4140   26.7740   48.8760 H   0  0  0  0  0  0  0  0  0  0  0  0
  1  2  1  0  0  0  0
  2  3  2  0  0  0  0
  2  7  1  0  0  0  0
  3  4  1  0  0  0  0
  4  8  1  0  0  0  0
  4  5  2  0  0  0  0
  5  9  1  0  0  0  0
  6  5  1  0  0  0  0
  6 10  1  0  0  0  0
  7  6  2  0  0  0  0
 11 13  1  0  0  0  0
 11  3  1  0  0  0  0
 12 11  1  0  0  0  0
 14 19  1  0  0  0  0
 14 20  1  0  0  0  0
 15 14  2  0  0  0  0
 16 17  2  0  0  0  0
 16 15  1  0  0  0  0
 17 18  1  0  0  0  0
 18 11  1  0  0  0  0
 18 19  2  0  0  0  0
 21 15  1  0  0  0  0
 22 16  1  0  0  0  0
 23  7  1  0  0  0  0
 23 25  1  0  0  0  0
 25 24  2  6  0  0  0
 25 26  1  0  0  0  0
 26 27  1  0  0  0  0
 28 29  1  0  0  0  0
 28 25  1  0  0  0  0
 29 30  1  0  0  0  0
 30 34  1  0  0  0  0
 30 32  1  0  0  0  0
 30 31  1  0  0  0  0
 33 32  1  0  0  0  0
 35 34  1  0  0  0  0
M  END
>  <minimizedAffinity>
-5.09379435

>  <minimizedRMSD>
0.579365373

$$$$
