
 OpenBabel03242513283D

 28 29  0  0  0  0  0  0  0  0999 V2000
   37.8930   29.9610   41.3380 C   0  0  0  0  0  0  0  0  0  0  0  0
   37.6940   28.6100   41.5290 C   0  0  0  0  0  0  0  0  0  0  0  0
   36.4630   28.1180   41.1890 C   0  0  0  0  0  0  0  0  0  0  0  0
   35.4580   28.9200   40.6800 C   0  0  0  0  0  0  0  0  0  0  0  0
   35.6710   30.2510   40.4980 C   0  0  0  0  0  0  0  0  0  0  0  0
   36.9010   30.7940   40.8270 C   0  0  0  0  0  0  0  0  0  0  0  0
   36.3080   27.0420   41.3420 H   0  0  0  0  0  0  0  0  0  0  0  0
   34.5040   28.4660   40.4310 H   0  0  0  0  0  0  0  0  0  0  0  0
   34.9230   30.9290   40.1030 H   0  0  0  0  0  0  0  0  0  0  0  0
   39.7170   26.2670   43.6800 C   0  0  0  0  0  0  0  0  0  0  0  0
   38.6470   27.0280   43.1810 C   0  0  0  0  0  0  0  0  0  0  0  0
   38.7710   27.8230   42.0610 C   0  0  0  0  0  0  0  0  0  0  0  0
   40.0090   27.8070   41.4870 N   0  0  0  0  0  0  0  0  0  0  0  0
   41.0320   27.0830   41.9590 C   0  0  0  0  0  0  0  0  0  0  0  0
   40.8940   26.3120   43.0540 N   0  0  0  0  0  0  0  0  0  0  0  0
   39.4720   25.6920   44.5650 H   0  0  0  0  0  0  0  0  0  0  0  0
   37.6510   27.0430   43.6400 H   0  0  0  0  0  0  0  0  0  0  0  0
   42.0090   27.0850   41.4870 H   0  0  0  0  0  0  0  0  0  0  0  0
   39.1330   30.5080   41.6700 O   0  0  0  0  0  0  0  0  0  0  0  0
   39.3150   30.9550   42.5430 H   0  0  0  0  0  0  0  0  0  0  0  0
   37.2240   32.1470   40.6800 O   0  0  0  0  0  0  0  0  0  0  0  0
   37.3230   32.7790   39.4350 C   0  0  0  0  0  2  0  0  0  0  0  0
   38.5710   33.5090   39.3810 N   0  0  0  0  0  4  0  0  0  0  0  0
   38.4990   34.2950   38.6780 H   0  0  0  0  0  0  0  0  0  0  0  0
   38.8350   34.1330   40.6630 C   0  0  0  0  0  2  0  0  0  0  0  0
   39.9130   34.1160   40.9200 H   0  0  0  0  0  0  0  0  0  0  0  0
   39.6800   32.6640   38.9890 C   0  0  0  0  0  2  0  0  0  0  0  0
   40.4860   32.6420   39.7650 H   0  0  0  0  0  0  0  0  0  0  0  0
  1  2  1  0  0  0  0
  1 19  1  0  0  0  0
  2 12  1  0  0  0  0
  3  7  1  0  0  0  0
  3  2  2  0  0  0  0
  4  3  1  0  0  0  0
  5  4  2  0  0  0  0
  5  6  1  0  0  0  0
  6  1  2  0  0  0  0
  8  4  1  0  0  0  0
  9  5  1  0  0  0  0
 10 16  1  0  0  0  0
 11 17  1  0  0  0  0
 11 10  1  0  0  0  0
 12 11  2  0  0  0  0
 13 14  2  0  0  0  0
 13 12  1  0  0  0  0
 14 15  1  0  0  0  0
 15 10  2  0  0  0  0
 18 14  1  0  0  0  0
 19 20  1  0  0  0  0
 21  6  1  0  0  0  0
 22 21  1  0  0  0  0
 23 22  1  0  0  0  0
 23 25  1  0  0  0  0
 24 23  1  0  0  0  0
 25 26  1  0  0  0  0
 27 23  1  0  0  0  0
 27 28  1  0  0  0  0
M  END
>  <minimizedAffinity>
-4.60993528

$$$$

 OpenBabel03242513283D

 28 29  0  0  0  0  0  0  0  0999 V2000
   39.0680   31.8560   41.3310 C   0  0  0  0  0  0  0  0  0  0  0  0
   38.1740   30.8090   41.2500 C   0  0  0  0  0  0  0  0  0  0  0  0
   37.1350   30.9580   40.3710 C   0  0  0  0  0  0  0  0  0  0  0  0
   36.9730   32.0930   39.5980 C   0  0  0  0  0  0  0  0  0  0  0  0
   37.8640   33.1170   39.6910 C   0  0  0  0  0  0  0  0  0  0  0  0
   38.9320   33.0110   40.5650 C   0  0  0  0  0  0  0  0  0  0  0  0
   36.4260   30.1230   40.3080 H   0  0  0  0  0  0  0  0  0  0  0  0
   36.1260   32.1480   38.9210 H   0  0  0  0  0  0  0  0  0  0  0  0
   37.7910   34.0300   39.1120 H   0  0  0  0  0  0  0  0  0  0  0  0
   37.6480   27.9730   43.6760 C   0  0  0  0  0  0  0  0  0  0  0  0
   37.4120   29.1050   42.8780 C   0  0  0  0  0  0  0  0  0  0  0  0
   38.3890   29.6530   42.0740 C   0  0  0  0  0  0  0  0  0  0  0  0
   39.5900   29.0090   42.1210 N   0  0  0  0  0  0  0  0  0  0  0  0
   39.8200   27.9300   42.8800 C   0  0  0  0  0  0  0  0  0  0  0  0
   38.8550   27.4070   43.6590 N   0  0  0  0  0  0  0  0  0  0  0  0
   36.7870   27.6560   44.2530 H   0  0  0  0  0  0  0  0  0  0  0  0
   36.4460   29.6250   42.8380 H   0  0  0  0  0  0  0  0  0  0  0  0
   40.7840   27.4330   42.9020 H   0  0  0  0  0  0  0  0  0  0  0  0
   40.1440   31.7490   42.2130 O   0  0  0  0  0  0  0  0  0  0  0  0
   40.1360   32.1370   43.1320 H   0  0  0  0  0  0  0  0  0  0  0  0
   39.9030   34.0030   40.7380 O   0  0  0  0  0  0  0  0  0  0  0  0
   40.9980   34.1600   39.8800 C   0  0  0  0  0  2  0  0  0  0  0  0
   42.1030   33.3760   40.3850 N   0  0  0  0  0  4  0  0  0  0  0  0
   41.7420   32.4860   40.8270 H   0  0  0  0  0  0  0  0  0  0  0  0
   42.9620   32.9670   39.2900 C   0  0  0  0  0  2  0  0  0  0  0  0
   44.0330   32.9790   39.5750 H   0  0  0  0  0  0  0  0  0  0  0  0
   42.8640   34.0900   41.3900 C   0  0  0  0  0  2  0  0  0  0  0  0
   43.9380   34.2070   41.0970 H   0  0  0  0  0  0  0  0  0  0  0  0
  1 19  1  0  0  0  0
  2  1  1  0  0  0  0
  2 12  1  0  0  0  0
  3  2  2  0  0  0  0
  4  5  2  0  0  0  0
  4  3  1  0  0  0  0
  5  6  1  0  0  0  0
  6 21  1  0  0  0  0
  6  1  2  0  0  0  0
  7  3  1  0  0  0  0
  8  4  1  0  0  0  0
  9  5  1  0  0  0  0
 10 16  1  0  0  0  0
 11 10  2  0  0  0  0
 12 13  2  0  0  0  0
 12 11  1  0  0  0  0
 13 14  1  0  0  0  0
 14 18  1  0  0  0  0
 14 15  2  0  0  0  0
 15 10  1  0  0  0  0
 17 11  1  0  0  0  0
 19 20  1  0  0  0  0
 22 23  1  0  0  0  0
 22 21  1  0  0  0  0
 23 24  1  0  0  0  0
 23 27  1  0  0  0  0
 25 26  1  0  0  0  0
 25 23  1  0  0  0  0
 28 27  1  0  0  0  0
M  END
>  <minimizedAffinity>
-4.55078363

$$$$

 OpenBabel03242513283D

 28 29  0  0  0  0  0  0  0  0999 V2000
   37.5170   27.9270   40.9410 C   0  0  0  0  0  0  0  0  0  0  0  0
   37.5160   26.7610   41.6770 C   0  0  0  0  0  0  0  0  0  0  0  0
   37.5710   26.8970   43.0380 C   0  0  0  0  0  0  0  0  0  0  0  0
   37.6250   28.1310   43.6600 C   0  0  0  0  0  0  0  0  0  0  0  0
   37.6240   29.2720   42.9180 C   0  0  0  0  0  0  0  0  0  0  0  0
   37.5690   29.1840   41.5380 C   0  0  0  0  0  0  0  0  0  0  0  0
   37.5700   25.9670   43.6220 H   0  0  0  0  0  0  0  0  0  0  0  0
   37.6660   28.1680   44.7440 H   0  0  0  0  0  0  0  0  0  0  0  0
   37.6640   30.2660   43.3470 H   0  0  0  0  0  0  0  0  0  0  0  0
   38.2690   23.2570   40.5110 C   0  0  0  0  0  0  0  0  0  0  0  0
   38.3480   24.4760   41.2050 C   0  0  0  0  0  0  0  0  0  0  0  0
   37.4590   25.5060   40.9820 C   0  0  0  0  0  0  0  0  0  0  0  0
   36.5080   25.2430   40.0400 N   0  0  0  0  0  0  0  0  0  0  0  0
   36.4290   24.0820   39.3750 C   0  0  0  0  0  0  0  0  0  0  0  0
   37.3060   23.0860   39.6050 N   0  0  0  0  0  0  0  0  0  0  0  0
   39.0340   22.5420   40.7910 H   0  0  0  0  0  0  0  0  0  0  0  0
   39.1110   24.6910   41.9640 H   0  0  0  0  0  0  0  0  0  0  0  0
   35.6650   23.8930   38.6290 H   0  0  0  0  0  0  0  0  0  0  0  0
   37.4620   27.8380   39.5490 O   0  0  0  0  0  0  0  0  0  0  0  0
   38.2720   27.8780   38.9690 H   0  0  0  0  0  0  0  0  0  0  0  0
   37.5640   30.2920   40.6830 O   0  0  0  0  0  0  0  0  0  0  0  0
   36.5550   31.2620   40.6940 C   0  0  0  0  0  2  0  0  0  0  0  0
   36.9000   32.3030   39.7510 N   0  0  0  0  0  4  0  0  0  0  0  0
   36.0860   32.9690   39.6360 H   0  0  0  0  0  0  0  0  0  0  0  0
   38.0010   33.0940   40.2680 C   0  0  0  0  0  2  0  0  0  0  0  0
   38.7020   33.4030   39.4670 H   0  0  0  0  0  0  0  0  0  0  0  0
   37.2250   31.7710   38.4440 C   0  0  0  0  0  2  0  0  0  0  0  0
   38.2600   32.0480   38.1240 H   0  0  0  0  0  0  0  0  0  0  0  0
  1  6  2  0  0  0  0
  1  2  1  0  0  0  0
  2  3  2  0  0  0  0
  3  7  1  0  0  0  0
  3  4  1  0  0  0  0
  4  8  1  0  0  0  0
  5  9  1  0  0  0  0
  5  4  2  0  0  0  0
  6  5  1  0  0  0  0
 10 16  1  0  0  0  0
 10 11  1  0  0  0  0
 11 17  1  0  0  0  0
 12 11  2  0  0  0  0
 12  2  1  0  0  0  0
 13 12  1  0  0  0  0
 14 15  1  0  0  0  0
 14 13  2  0  0  0  0
 15 10  2  0  0  0  0
 18 14  1  0  0  0  0
 19  1  1  0  0  0  0
 20 19  1  0  0  0  0
 21 22  1  0  0  0  0
 21  6  1  0  0  0  0
 23 25  1  0  0  0  0
 23 22  1  0  0  0  0
 24 23  1  0  0  0  0
 26 25  1  0  0  0  0
 27 23  1  0  0  0  0
 28 27  1  0  0  0  0
M  END
>  <minimizedAffinity>
-4.51706219

$$$$

 OpenBabel03242513283D

 28 29  0  0  0  0  0  0  0  0999 V2000
   37.5390   29.9580   41.4890 C   0  0  0  0  0  0  0  0  0  0  0  0
   37.5460   30.8700   40.4550 C   0  0  0  0  0  0  0  0  0  0  0  0
   36.5400   30.7570   39.5320 C   0  0  0  0  0  0  0  0  0  0  0  0
   35.5610   29.7840   39.6160 C   0  0  0  0  0  0  0  0  0  0  0  0
   35.5690   28.8920   40.6440 C   0  0  0  0  0  0  0  0  0  0  0  0
   36.5660   28.9680   41.6010 C   0  0  0  0  0  0  0  0  0  0  0  0
   36.5490   31.4840   38.7100 H   0  0  0  0  0  0  0  0  0  0  0  0
   34.7920   29.7500   38.8510 H   0  0  0  0  0  0  0  0  0  0  0  0
   34.8300   28.1090   40.7640 H   0  0  0  0  0  0  0  0  0  0  0  0
   39.3750   34.1610   40.2840 C   0  0  0  0  0  0  0  0  0  0  0  0
   38.3390   33.2130   40.3200 C   0  0  0  0  0  0  0  0  0  0  0  0
   38.5850   31.8600   40.4150 C   0  0  0  0  0  0  0  0  0  0  0  0
   39.9070   31.5250   40.4670 N   0  0  0  0  0  0  0  0  0  0  0  0
   40.8980   32.4250   40.4310 C   0  0  0  0  0  0  0  0  0  0  0  0
   40.6400   33.7430   40.3400 N   0  0  0  0  0  0  0  0  0  0  0  0
   39.0300   35.1850   40.2090 H   0  0  0  0  0  0  0  0  0  0  0  0
   37.2750   33.4790   40.2790 H   0  0  0  0  0  0  0  0  0  0  0  0
   41.9430   32.1370   40.4740 H   0  0  0  0  0  0  0  0  0  0  0  0
   38.5430   30.0340   42.4540 O   0  0  0  0  0  0  0  0  0  0  0  0
   39.3690   29.4760   42.4250 H   0  0  0  0  0  0  0  0  0  0  0  0
   36.6670   28.1020   42.6950 O   0  0  0  0  0  0  0  0  0  0  0  0
   37.0710   26.7660   42.5790 C   0  0  0  0  0  2  0  0  0  0  0  0
   38.5060   26.7270   42.4040 N   0  0  0  0  0  4  0  0  0  0  0  0
   38.8130   27.5100   41.7630 H   0  0  0  0  0  0  0  0  0  0  0  0
   39.1660   26.9600   43.6740 C   0  0  0  0  0  2  0  0  0  0  0  0
   40.0810   26.3460   43.7860 H   0  0  0  0  0  0  0  0  0  0  0  0
   38.9500   25.4780   41.8210 C   0  0  0  0  0  2  0  0  0  0  0  0
   39.6760   24.9420   42.4820 H   0  0  0  0  0  0  0  0  0  0  0  0
  1  6  1  0  0  0  0
  1 19  1  0  0  0  0
  2  1  2  0  0  0  0
  3  4  2  0  0  0  0
  3  2  1  0  0  0  0
  4  5  1  0  0  0  0
  5  9  1  0  0  0  0
  5  6  2  0  0  0  0
  6 21  1  0  0  0  0
  7  3  1  0  0  0  0
  8  4  1  0  0  0  0
 10 11  2  0  0  0  0
 10 15  1  0  0  0  0
 11 12  1  0  0  0  0
 12  2  1  0  0  0  0
 12 13  2  0  0  0  0
 14 13  1  0  0  0  0
 14 18  1  0  0  0  0
 15 14  2  0  0  0  0
 16 10  1  0  0  0  0
 17 11  1  0  0  0  0
 20 19  1  0  0  0  0
 22 21  1  0  0  0  0
 23 22  1  0  0  0  0
 23 25  1  0  0  0  0
 24 23  1  0  0  0  0
 25 26  1  0  0  0  0
 27 23  1  0  0  0  0
 27 28  1  0  0  0  0
M  END
>  <minimizedAffinity>
-4.47155237

$$$$

 OpenBabel03242513283D

 28 29  0  0  0  0  0  0  0  0999 V2000
   37.2710   27.5560   41.1810 C   0  0  0  0  0  0  0  0  0  0  0  0
   37.5630   28.9020   41.2470 C   0  0  0  0  0  0  0  0  0  0  0  0
   37.7090   29.4360   42.4990 C   0  0  0  0  0  0  0  0  0  0  0  0
   37.5740   28.6810   43.6490 C   0  0  0  0  0  0  0  0  0  0  0  0
   37.2850   27.3530   43.5660 C   0  0  0  0  0  0  0  0  0  0  0  0
   37.1290   26.7690   42.3210 C   0  0  0  0  0  0  0  0  0  0  0  0
   37.9420   30.5080   42.5480 H   0  0  0  0  0  0  0  0  0  0  0  0
   37.7020   29.1670   44.6110 H   0  0  0  0  0  0  0  0  0  0  0  0
   37.1680   26.7100   44.4300 H   0  0  0  0  0  0  0  0  0  0  0  0
   37.0370   31.4160   38.4890 C   0  0  0  0  0  0  0  0  0  0  0  0
   36.8880   30.7100   39.6940 C   0  0  0  0  0  0  0  0  0  0  0  0
   37.6940   29.6410   40.0220 C   0  0  0  0  0  0  0  0  0  0  0  0
   38.6350   29.3300   39.0850 N   0  0  0  0  0  0  0  0  0  0  0  0
   38.7810   29.9990   37.9340 C   0  0  0  0  0  0  0  0  0  0  0  0
   37.9860   31.0430   37.6300 N   0  0  0  0  0  0  0  0  0  0  0  0
   36.3340   32.2320   38.3680 H   0  0  0  0  0  0  0  0  0  0  0  0
   36.1320   30.9580   40.4500 H   0  0  0  0  0  0  0  0  0  0  0  0
   39.5370   29.7360   37.2030 H   0  0  0  0  0  0  0  0  0  0  0  0
   37.1140   26.9670   39.9260 O   0  0  0  0  0  0  0  0  0  0  0  0
   36.2240   26.8290   39.4970 H   0  0  0  0  0  0  0  0  0  0  0  0
   36.8320   25.4160   42.1230 O   0  0  0  0  0  0  0  0  0  0  0  0
   37.8040   24.4090   42.1430 C   0  0  0  0  0  2  0  0  0  0  0  0
   38.1830   24.1000   40.7820 N   0  0  0  0  0  4  0  0  0  0  0  0
   37.6090   24.6780   40.1070 H   0  0  0  0  0  0  0  0  0  0  0  0
   39.5680   24.4710   40.5580 C   0  0  0  0  0  2  0  0  0  0  0  0
   40.0900   23.7500   39.8980 H   0  0  0  0  0  0  0  0  0  0  0  0
   37.9720   22.7040   40.4600 C   0  0  0  0  0  2  0  0  0  0  0  0
   38.9190   22.1990   40.1420 H   0  0  0  0  0  0  0  0  0  0  0  0
  1  2  2  0  0  0  0
  1  6  1  0  0  0  0
  2  3  1  0  0  0  0
  3  7  1  0  0  0  0
  3  4  2  0  0  0  0
  4  8  1  0  0  0  0
  5  4  1  0  0  0  0
  5  9  1  0  0  0  0
  6  5  2  0  0  0  0
 10 11  1  0  0  0  0
 11 12  2  0  0  0  0
 11 17  1  0  0  0  0
 12  2  1  0  0  0  0
 13 12  1  0  0  0  0
 14 13  2  0  0  0  0
 15 14  1  0  0  0  0
 15 10  2  0  0  0  0
 16 10  1  0  0  0  0
 18 14  1  0  0  0  0
 19  1  1  0  0  0  0
 20 19  1  0  0  0  0
 21 22  1  0  0  0  0
 21  6  1  0  0  0  0
 23 22  1  0  0  0  0
 24 23  1  0  0  0  0
 25 23  1  0  0  0  0
 26 25  1  0  0  0  0
 27 23  1  0  0  0  0
 28 27  1  0  0  0  0
M  END
>  <minimizedAffinity>
-4.24362564

$$$$

 OpenBabel03242513283D

 28 29  0  0  0  0  0  0  0  0999 V2000
   38.0160   27.7430   41.1130 C   0  0  0  0  0  0  0  0  0  0  0  0
   37.4350   26.6630   41.7420 C   0  0  0  0  0  0  0  0  0  0  0  0
   37.0100   26.8590   43.0280 C   0  0  0  0  0  0  0  0  0  0  0  0
   37.1500   28.0700   43.6800 C   0  0  0  0  0  0  0  0  0  0  0  0
   37.7270   29.1270   43.0440 C   0  0  0  0  0  0  0  0  0  0  0  0
   38.1700   28.9760   41.7420 C   0  0  0  0  0  0  0  0  0  0  0  0
   36.5480   25.9970   43.5260 H   0  0  0  0  0  0  0  0  0  0  0  0
   36.7920   28.1590   44.7010 H   0  0  0  0  0  0  0  0  0  0  0  0
   37.8630   30.0990   43.5010 H   0  0  0  0  0  0  0  0  0  0  0  0
   37.7910   23.0610   40.6890 C   0  0  0  0  0  0  0  0  0  0  0  0
   37.9270   24.2570   41.4140 C   0  0  0  0  0  0  0  0  0  0  0  0
   37.3140   25.4270   41.0200 C   0  0  0  0  0  0  0  0  0  0  0  0
   36.5740   25.3250   39.8780 N   0  0  0  0  0  0  0  0  0  0  0  0
   36.4430   24.1870   39.1830 C   0  0  0  0  0  0  0  0  0  0  0  0
   37.0480   23.0530   39.5820 N   0  0  0  0  0  0  0  0  0  0  0  0
   38.3290   22.2240   41.1190 H   0  0  0  0  0  0  0  0  0  0  0  0
   38.5200   24.3420   42.3330 H   0  0  0  0  0  0  0  0  0  0  0  0
   35.8500   24.1280   38.2770 H   0  0  0  0  0  0  0  0  0  0  0  0
   38.4640   27.5910   39.8000 O   0  0  0  0  0  0  0  0  0  0  0  0
   39.4120   27.3840   39.5680 H   0  0  0  0  0  0  0  0  0  0  0  0
   38.7760   29.9950   40.9990 O   0  0  0  0  0  0  0  0  0  0  0  0
   38.8260   31.3270   41.4260 C   0  0  0  0  0  2  0  0  0  0  0  0
   39.0350   32.1780   40.2750 N   0  0  0  0  0  4  0  0  0  0  0  0
   38.2390   32.0610   39.5900 H   0  0  0  0  0  0  0  0  0  0  0  0
   39.0210   33.5710   40.6800 C   0  0  0  0  0  2  0  0  0  0  0  0
   39.7590   34.1750   40.1150 H   0  0  0  0  0  0  0  0  0  0  0  0
   40.2660   31.8620   39.5800 C   0  0  0  0  0  2  0  0  0  0  0  0
   40.9580   32.7410   39.5320 H   0  0  0  0  0  0  0  0  0  0  0  0
  1  6  2  0  0  0  0
  1  2  1  0  0  0  0
  2  3  2  0  0  0  0
  3  7  1  0  0  0  0
  3  4  1  0  0  0  0
  4  8  1  0  0  0  0
  5  9  1  0  0  0  0
  5  4  2  0  0  0  0
  6  5  1  0  0  0  0
 10 16  1  0  0  0  0
 10 11  1  0  0  0  0
 11 17  1  0  0  0  0
 12 11  2  0  0  0  0
 12  2  1  0  0  0  0
 13 12  1  0  0  0  0
 14 15  1  0  0  0  0
 14 13  2  0  0  0  0
 15 10  2  0  0  0  0
 18 14  1  0  0  0  0
 19  1  1  0  0  0  0
 20 19  1  0  0  0  0
 21 22  1  0  0  0  0
 21  6  1  0  0  0  0
 23 25  1  0  0  0  0
 23 22  1  0  0  0  0
 24 23  1  0  0  0  0
 26 25  1  0  0  0  0
 27 23  1  0  0  0  0
 28 27  1  0  0  0  0
M  END
>  <minimizedAffinity>
-4.2410984

$$$$

 OpenBabel03242513283D

 28 29  0  0  0  0  0  0  0  0999 V2000
   37.9580   27.0120   41.8830 C   0  0  0  0  0  0  0  0  0  0  0  0
   38.5590   28.2010   42.2380 C   0  0  0  0  0  0  0  0  0  0  0  0
   39.5850   28.1230   43.1400 C   0  0  0  0  0  0  0  0  0  0  0  0
   40.0090   26.9230   43.6790 C   0  0  0  0  0  0  0  0  0  0  0  0
   39.4050   25.7580   43.3190 C   0  0  0  0  0  0  0  0  0  0  0  0
   38.3630   25.7880   42.4080 C   0  0  0  0  0  0  0  0  0  0  0  0
   40.0610   29.0710   43.4200 H   0  0  0  0  0  0  0  0  0  0  0  0
   40.8300   26.9310   44.3910 H   0  0  0  0  0  0  0  0  0  0  0  0
   39.6930   24.7880   43.7060 H   0  0  0  0  0  0  0  0  0  0  0  0
   38.4090   31.5250   40.4680 C   0  0  0  0  0  0  0  0  0  0  0  0
   38.9040   30.3410   41.0390 C   0  0  0  0  0  0  0  0  0  0  0  0
   38.0790   29.4190   41.6480 C   0  0  0  0  0  0  0  0  0  0  0  0
   36.7570   29.7540   41.6500 N   0  0  0  0  0  0  0  0  0  0  0  0
   36.2800   30.8820   41.1080 C   0  0  0  0  0  0  0  0  0  0  0  0
   37.0990   31.7720   40.5160 N   0  0  0  0  0  0  0  0  0  0  0  0
   39.1740   32.1530   40.0250 H   0  0  0  0  0  0  0  0  0  0  0  0
   39.9670   30.0690   41.0380 H   0  0  0  0  0  0  0  0  0  0  0  0
   35.2240   31.1300   41.1210 H   0  0  0  0  0  0  0  0  0  0  0  0
   36.9070   27.0420   40.9650 O   0  0  0  0  0  0  0  0  0  0  0  0
   35.9470   27.0480   41.2360 H   0  0  0  0  0  0  0  0  0  0  0  0
   37.6740   24.6510   41.9700 O   0  0  0  0  0  0  0  0  0  0  0  0
   38.2680   23.6480   41.1950 C   0  0  0  0  0  2  0  0  0  0  0  0
   37.4940   23.4750   39.9850 N   0  0  0  0  0  4  0  0  0  0  0  0
   37.5550   22.4710   39.6580 H   0  0  0  0  0  0  0  0  0  0  0  0
   36.0920   23.7290   40.2540 C   0  0  0  0  0  2  0  0  0  0  0  0
   35.5930   24.2450   39.4090 H   0  0  0  0  0  0  0  0  0  0  0  0
   37.9670   24.3200   38.9090 C   0  0  0  0  0  2  0  0  0  0  0  0
   37.1700   25.0110   38.5370 H   0  0  0  0  0  0  0  0  0  0  0  0
  1  2  2  0  0  0  0
  1  6  1  0  0  0  0
  2  3  1  0  0  0  0
  3  7  1  0  0  0  0
  3  4  2  0  0  0  0
  4  8  1  0  0  0  0
  5  4  1  0  0  0  0
  5  9  1  0  0  0  0
  6  5  2  0  0  0  0
 10 15  2  0  0  0  0
 10 11  1  0  0  0  0
 11 12  2  0  0  0  0
 12 13  1  0  0  0  0
 12  2  1  0  0  0  0
 14 18  1  0  0  0  0
 14 13  2  0  0  0  0
 15 14  1  0  0  0  0
 16 10  1  0  0  0  0
 17 11  1  0  0  0  0
 19 20  1  0  0  0  0
 19  1  1  0  0  0  0
 21  6  1  0  0  0  0
 22 21  1  0  0  0  0
 23 25  1  0  0  0  0
 23 22  1  0  0  0  0
 24 23  1  0  0  0  0
 26 25  1  0  0  0  0
 27 23  1  0  0  0  0
 28 27  1  0  0  0  0
M  END
>  <minimizedAffinity>
-4.23843908

$$$$

 OpenBabel03242513283D

 28 29  0  0  0  0  0  0  0  0999 V2000
   37.9880   28.8020   40.7040 C   0  0  0  0  0  0  0  0  0  0  0  0
   36.8550   28.0160   40.6860 C   0  0  0  0  0  0  0  0  0  0  0  0
   35.6630   28.6650   40.5070 C   0  0  0  0  0  0  0  0  0  0  0  0
   35.5800   30.0370   40.3520 C   0  0  0  0  0  0  0  0  0  0  0  0
   36.7080   30.7970   40.3720 C   0  0  0  0  0  0  0  0  0  0  0  0
   37.9360   30.1850   40.5500 C   0  0  0  0  0  0  0  0  0  0  0  0
   34.7630   28.0370   40.4930 H   0  0  0  0  0  0  0  0  0  0  0  0
   34.6020   30.4880   40.2140 H   0  0  0  0  0  0  0  0  0  0  0  0
   36.7070   31.8740   40.2560 H   0  0  0  0  0  0  0  0  0  0  0  0
   36.7270   24.2960   40.0990 C   0  0  0  0  0  0  0  0  0  0  0  0
   36.5750   25.6800   39.9130 C   0  0  0  0  0  0  0  0  0  0  0  0
   36.9970   26.5970   40.8520 C   0  0  0  0  0  0  0  0  0  0  0  0
   37.5660   26.0510   41.9650 N   0  0  0  0  0  0  0  0  0  0  0  0
   37.7120   24.7320   42.1470 C   0  0  0  0  0  0  0  0  0  0  0  0
   37.2950   23.8490   41.2200 N   0  0  0  0  0  0  0  0  0  0  0  0
   36.3490   23.6980   39.2770 H   0  0  0  0  0  0  0  0  0  0  0  0
   36.1190   26.1220   39.0180 H   0  0  0  0  0  0  0  0  0  0  0  0
   38.1680   24.3180   43.0400 H   0  0  0  0  0  0  0  0  0  0  0  0
   39.2260   28.1850   40.8830 O   0  0  0  0  0  0  0  0  0  0  0  0
   39.6770   28.1170   41.7700 H   0  0  0  0  0  0  0  0  0  0  0  0
   39.1550   30.8720   40.5870 O   0  0  0  0  0  0  0  0  0  0  0  0
   39.5560   31.6590   41.6730 C   0  0  0  0  0  2  0  0  0  0  0  0
   40.0310   32.9320   41.1750 N   0  0  0  0  0  4  0  0  0  0  0  0
   40.5560   33.4440   41.9370 H   0  0  0  0  0  0  0  0  0  0  0  0
   40.9810   32.7200   40.1000 C   0  0  0  0  0  2  0  0  0  0  0  0
   40.8810   33.4810   39.3000 H   0  0  0  0  0  0  0  0  0  0  0  0
   38.9460   33.7850   40.7350 C   0  0  0  0  0  2  0  0  0  0  0  0
   39.0470   34.0700   39.6580 H   0  0  0  0  0  0  0  0  0  0  0  0
  1 19  1  0  0  0  0
  2  1  1  0  0  0  0
  2 12  1  0  0  0  0
  3  2  2  0  0  0  0
  4  5  2  0  0  0  0
  4  3  1  0  0  0  0
  5  6  1  0  0  0  0
  6 21  1  0  0  0  0
  6  1  2  0  0  0  0
  7  3  1  0  0  0  0
  8  4  1  0  0  0  0
  9  5  1  0  0  0  0
 10 15  1  0  0  0  0
 11 10  2  0  0  0  0
 11 12  1  0  0  0  0
 12 13  2  0  0  0  0
 13 14  1  0  0  0  0
 14 18  1  0  0  0  0
 15 14  2  0  0  0  0
 16 10  1  0  0  0  0
 17 11  1  0  0  0  0
 19 20  1  0  0  0  0
 21 22  1  0  0  0  0
 23 22  1  0  0  0  0
 23 24  1  0  0  0  0
 25 23  1  0  0  0  0
 26 25  1  0  0  0  0
 27 23  1  0  0  0  0
 28 27  1  0  0  0  0
M  END
>  <minimizedAffinity>
-4.22321558

$$$$

 OpenBabel03242513283D

 28 29  0  0  0  0  0  0  0  0999 V2000
   37.3600   29.4160   40.2470 C   0  0  0  0  0  0  0  0  0  0  0  0
   37.2250   30.4710   39.3700 C   0  0  0  0  0  0  0  0  0  0  0  0
   36.3500   30.2960   38.3320 C   0  0  0  0  0  0  0  0  0  0  0  0
   35.6310   29.1280   38.1560 C   0  0  0  0  0  0  0  0  0  0  0  0
   35.7760   28.0960   39.0310 C   0  0  0  0  0  0  0  0  0  0  0  0
   36.6490   28.2280   40.0970 C   0  0  0  0  0  0  0  0  0  0  0  0
   36.2450   31.1380   37.6350 H   0  0  0  0  0  0  0  0  0  0  0  0
   34.9540   29.0540   37.3100 H   0  0  0  0  0  0  0  0  0  0  0  0
   35.2410   27.1580   38.9460 H   0  0  0  0  0  0  0  0  0  0  0  0
   38.2040   34.0430   40.0660 C   0  0  0  0  0  0  0  0  0  0  0  0
   37.4280   32.8940   39.8450 C   0  0  0  0  0  0  0  0  0  0  0  0
   37.9950   31.6620   39.5990 C   0  0  0  0  0  0  0  0  0  0  0  0
   39.3590   31.6550   39.5880 N   0  0  0  0  0  0  0  0  0  0  0  0
   40.1040   32.7490   39.7980 C   0  0  0  0  0  0  0  0  0  0  0  0
   39.5340   33.9450   40.0370 N   0  0  0  0  0  0  0  0  0  0  0  0
   37.6210   34.9390   40.2460 H   0  0  0  0  0  0  0  0  0  0  0  0
   36.3300   32.8950   39.8540 H   0  0  0  0  0  0  0  0  0  0  0  0
   41.1880   32.7220   39.7850 H   0  0  0  0  0  0  0  0  0  0  0  0
   38.2400   29.5490   41.3220 O   0  0  0  0  0  0  0  0  0  0  0  0
   39.1760   29.2050   41.3050 H   0  0  0  0  0  0  0  0  0  0  0  0
   36.8730   27.2310   41.0530 O   0  0  0  0  0  0  0  0  0  0  0  0
   37.6930   26.1200   40.8220 C   0  0  0  0  0  2  0  0  0  0  0  0
   37.2530   25.0320   41.6670 N   0  0  0  0  0  4  0  0  0  0  0  0
   36.5900   25.3950   42.4060 H   0  0  0  0  0  0  0  0  0  0  0  0
   36.5020   24.0700   40.8840 C   0  0  0  0  0  2  0  0  0  0  0  0
   36.6990   23.0280   41.2050 H   0  0  0  0  0  0  0  0  0  0  0  0
   38.3580   24.3850   42.3440 C   0  0  0  0  0  2  0  0  0  0  0  0
   38.4230   23.2960   42.0950 H   0  0  0  0  0  0  0  0  0  0  0  0
  1 19  1  0  0  0  0
  2 12  1  0  0  0  0
  2  1  2  0  0  0  0
  3  2  1  0  0  0  0
  4  3  2  0  0  0  0
  4  5  1  0  0  0  0
  5  6  2  0  0  0  0
  6  1  1  0  0  0  0
  6 21  1  0  0  0  0
  7  3  1  0  0  0  0
  8  4  1  0  0  0  0
  9  5  1  0  0  0  0
 10 16  1  0  0  0  0
 11 17  1  0  0  0  0
 11 10  2  0  0  0  0
 12 11  1  0  0  0  0
 13 12  2  0  0  0  0
 13 14  1  0  0  0  0
 14 15  2  0  0  0  0
 15 10  1  0  0  0  0
 18 14  1  0  0  0  0
 20 19  1  0  0  0  0
 22 21  1  0  0  0  0
 22 23  1  0  0  0  0
 23 27  1  0  0  0  0
 23 24  1  0  0  0  0
 25 26  1  0  0  0  0
 25 23  1  0  0  0  0
 28 27  1  0  0  0  0
M  END
>  <minimizedAffinity>
-4.1513505

$$$$
