
 OpenBabel03242521073D

 38 40  0  0  1  0  0  0  0  0999 V2000
   46.0690   32.5170   38.7830 C   0  0  2  0  0  0  0  0  0  0  0  0
   46.9490   31.5150   38.1550 C   0  0  0  0  0  0  0  0  0  0  0  0
   46.3140   32.6580   37.3590 C   0  0  1  0  0  0  0  0  0  0  0  0
   45.0510   32.1140   39.0690 H   0  0  0  0  0  0  0  0  0  0  0  0
   46.5370   30.5230   37.8840 H   0  0  0  0  0  0  0  0  0  0  0  0
   48.0300   31.4830   38.3250 H   0  0  0  0  0  0  0  0  0  0  0  0
   47.1200   33.2500   36.9070 H   0  0  0  0  0  0  0  0  0  0  0  0
   46.5640   34.5680   41.8020 C   0  0  0  0  0  0  0  0  0  0  0  0
   47.7610   35.1460   41.4400 C   0  0  0  0  0  0  0  0  0  0  0  0
   48.4320   34.9090   40.2590 C   0  0  0  0  0  0  0  0  0  0  0  0
   47.8610   34.0200   39.3670 C   0  0  0  0  0  0  0  0  0  0  0  0
   46.6730   33.4620   39.7510 C   0  0  0  0  0  0  0  0  0  0  0  0
   46.0740   33.7250   40.8950 N   0  0  0  0  0  0  0  0  0  0  0  0
   48.2440   35.8540   42.1200 H   0  0  0  0  0  0  0  0  0  0  0  0
   49.3690   35.3840   40.0170 H   0  0  0  0  0  0  0  0  0  0  0  0
   48.3360   33.7960   38.4320 H   0  0  0  0  0  0  0  0  0  0  0  0
   44.5530   36.1130   44.5970 C   0  0  0  0  0  0  0  0  0  0  0  0
   45.1340   35.9790   43.3310 C   0  0  0  0  0  0  0  0  0  0  0  0
   45.8930   34.8540   43.0740 C   0  0  0  0  0  0  0  0  0  0  0  0
   46.0370   33.9430   44.0490 N   0  0  0  0  0  0  0  0  0  0  0  0
   45.4580   34.0980   45.2770 C   0  0  0  0  0  0  0  0  0  0  0  0
   44.7270   35.1830   45.5250 N   0  0  0  0  0  0  0  0  0  0  0  0
   43.9850   37.0340   44.6750 H   0  0  0  0  0  0  0  0  0  0  0  0
   45.0420   36.6850   42.5300 H   0  0  0  0  0  0  0  0  0  0  0  0
   45.5910   33.3460   46.0460 H   0  0  0  0  0  0  0  0  0  0  0  0
   45.3410   32.2770   36.4210 O   0  0  0  0  0  0  0  0  0  0  0  0
   45.7560   30.6170   34.5220 O   0  0  0  0  0  0  0  0  0  0  0  0
   45.9800   32.0950   34.8560 P   0  0  1  0  0  0  0  0  0  0  0  0
   45.0520   33.0000   33.7730 O   0  0  0  0  0  0  0  0  0  0  0  0
   44.8390   33.8550   34.2350 H   0  0  0  0  0  0  0  0  0  0  0  0
   47.6110   32.3750   34.7450 O   0  0  0  0  0  0  0  0  0  0  0  0
   48.0620   32.5570   33.4860 C   0  0  0  0  0  2  0  0  0  0  0  0
   48.8530   31.5560   32.8640 N   0  0  0  0  0  4  0  0  0  0  0  0
   49.6150   32.1040   32.3170 H   0  0  0  0  0  0  0  0  0  0  0  0
   49.6120   30.7140   33.7560 C   0  0  0  0  0  2  0  0  0  0  0  0
   49.4350   29.6330   33.5790 H   0  0  0  0  0  0  0  0  0  0  0  0
   48.2270   30.7520   31.8630 C   0  0  0  0  0  2  0  0  0  0  0  0
   47.8230   29.7940   32.1940 H   0  0  0  0  0  0  0  0  0  0  0  0
  1  4  1  1  0  0  0
  1 12  1  0  0  0  0
  2  6  1  0  0  0  0
  2  1  1  0  0  0  0
  3  7  1  6  0  0  0
  3  2  1  0  0  0  0
  3  1  1  0  0  0  0
  5  2  1  0  0  0  0
  8 19  1  0  0  0  0
  9  8  1  0  0  0  0
  9 14  1  0  0  0  0
 10  9  2  0  0  0  0
 11 12  2  0  0  0  0
 11 10  1  0  0  0  0
 12 13  1  0  0  0  0
 13  8  2  0  0  0  0
 15 10  1  0  0  0  0
 16 11  1  0  0  0  0
 17 23  1  0  0  0  0
 17 22  1  0  0  0  0
 18 17  2  0  0  0  0
 19 18  1  0  0  0  0
 19 20  2  0  0  0  0
 20 21  1  0  0  0  0
 21 22  2  0  0  0  0
 21 25  1  0  0  0  0
 24 18  1  0  0  0  0
 26  3  1  0  0  0  0
 28 27  2  6  0  0  0
 28 26  1  0  0  0  0
 29 30  1  0  0  0  0
 29 28  1  0  0  0  0
 31 28  1  0  0  0  0
 32 31  1  0  0  0  0
 33 32  1  0  0  0  0
 33 35  1  0  0  0  0
 34 33  1  0  0  0  0
 36 35  1  0  0  0  0
 37 38  1  0  0  0  0
 37 33  1  0  0  0  0
M  END
>  <minimizedAffinity>
-5.9365325

>  <minimizedRMSD>
0.83943969

$$$$
