
 OpenBabel03242513263D

 28 29  0  0  0  0  0  0  0  0999 V2000
   46.5260   34.0950   41.0370 C   0  0  0  0  0  0  0  0  0  0  0  0
   46.9650   34.8710   42.0890 C   0  0  0  0  0  0  0  0  0  0  0  0
   48.1380   35.5510   41.9000 C   0  0  0  0  0  0  0  0  0  0  0  0
   48.8580   35.4750   40.7220 C   0  0  0  0  0  0  0  0  0  0  0  0
   48.4110   34.7040   39.6940 C   0  0  0  0  0  0  0  0  0  0  0  0
   47.2290   33.9980   39.8390 C   0  0  0  0  0  0  0  0  0  0  0  0
   48.4840   36.1680   42.7380 H   0  0  0  0  0  0  0  0  0  0  0  0
   49.7810   36.0400   40.6380 H   0  0  0  0  0  0  0  0  0  0  0  0
   48.9310   34.6050   38.7490 H   0  0  0  0  0  0  0  0  0  0  0  0
   44.5100   35.9340   44.7430 C   0  0  0  0  0  0  0  0  0  0  0  0
   45.2680   35.9140   43.5610 C   0  0  0  0  0  0  0  0  0  0  0  0
   46.1780   34.9150   43.2890 C   0  0  0  0  0  0  0  0  0  0  0  0
   46.2780   33.9590   44.2570 N   0  0  0  0  0  0  0  0  0  0  0  0
   45.5580   33.9730   45.3860 C   0  0  0  0  0  0  0  0  0  0  0  0
   44.6730   34.9560   45.6360 N   0  0  0  0  0  0  0  0  0  0  0  0
   43.8360   36.7790   44.8200 H   0  0  0  0  0  0  0  0  0  0  0  0
   45.1890   36.6820   42.7810 H   0  0  0  0  0  0  0  0  0  0  0  0
   45.6530   33.2020   46.1430 H   0  0  0  0  0  0  0  0  0  0  0  0
   45.3350   33.3830   41.1830 O   0  0  0  0  0  0  0  0  0  0  0  0
   45.3030   32.4230   41.4540 H   0  0  0  0  0  0  0  0  0  0  0  0
   46.6810   33.1770   38.8470 O   0  0  0  0  0  0  0  0  0  0  0  0
   47.4130   32.7140   37.7470 C   0  0  0  0  0  2  0  0  0  0  0  0
   46.7470   33.1340   36.5340 N   0  0  0  0  0  4  0  0  0  0  0  0
   47.0970   34.0900   36.2430 H   0  0  0  0  0  0  0  0  0  0  0  0
   47.0790   32.2320   35.4490 C   0  0  0  0  0  2  0  0  0  0  0  0
   46.2180   32.0580   34.7740 H   0  0  0  0  0  0  0  0  0  0  0  0
   45.3120   33.2220   36.7030 C   0  0  0  0  0  2  0  0  0  0  0  0
   44.7660   32.5550   35.9900 H   0  0  0  0  0  0  0  0  0  0  0  0
  1 19  1  0  0  0  0
  1  2  1  0  0  0  0
  2 12  1  0  0  0  0
  3  2  2  0  0  0  0
  3  7  1  0  0  0  0
  4  3  1  0  0  0  0
  5  6  1  0  0  0  0
  5  4  2  0  0  0  0
  6  1  2  0  0  0  0
  8  4  1  0  0  0  0
  9  5  1  0  0  0  0
 10 16  1  0  0  0  0
 10 15  1  0  0  0  0
 11 10  2  0  0  0  0
 12 11  1  0  0  0  0
 12 13  2  0  0  0  0
 13 14  1  0  0  0  0
 14 15  2  0  0  0  0
 14 18  1  0  0  0  0
 17 11  1  0  0  0  0
 19 20  1  0  0  0  0
 21  6  1  0  0  0  0
 22 21  1  0  0  0  0
 23 27  1  0  0  0  0
 23 22  1  0  0  0  0
 24 23  1  0  0  0  0
 25 23  1  0  0  0  0
 26 25  1  0  0  0  0
 28 27  1  0  0  0  0
M  END
>  <minimizedAffinity>
-5.1339612

>  <minimizedRMSD>
0.603942275

$$$$
