
 OpenBabel03242513263D

 28 29  0  0  0  0  0  0  0  0999 V2000
   46.5160   34.0940   41.0420 C   0  0  0  0  0  0  0  0  0  0  0  0
   46.9570   34.8700   42.0930 C   0  0  0  0  0  0  0  0  0  0  0  0
   48.1310   35.5490   41.9010 C   0  0  0  0  0  0  0  0  0  0  0  0
   48.8500   35.4710   40.7230 C   0  0  0  0  0  0  0  0  0  0  0  0
   48.4000   34.6990   39.6960 C   0  0  0  0  0  0  0  0  0  0  0  0
   47.2180   33.9960   39.8430 C   0  0  0  0  0  0  0  0  0  0  0  0
   48.4790   36.1660   42.7390 H   0  0  0  0  0  0  0  0  0  0  0  0
   49.7740   36.0340   40.6370 H   0  0  0  0  0  0  0  0  0  0  0  0
   48.9190   34.5990   38.7500 H   0  0  0  0  0  0  0  0  0  0  0  0
   44.5070   35.9380   44.7500 C   0  0  0  0  0  0  0  0  0  0  0  0
   45.2640   35.9160   43.5660 C   0  0  0  0  0  0  0  0  0  0  0  0
   46.1720   34.9160   43.2940 C   0  0  0  0  0  0  0  0  0  0  0  0
   46.2730   33.9610   44.2630 N   0  0  0  0  0  0  0  0  0  0  0  0
   45.5550   33.9770   45.3930 C   0  0  0  0  0  0  0  0  0  0  0  0
   44.6710   34.9610   45.6430 N   0  0  0  0  0  0  0  0  0  0  0  0
   43.8350   36.7840   44.8260 H   0  0  0  0  0  0  0  0  0  0  0  0
   45.1840   36.6830   42.7850 H   0  0  0  0  0  0  0  0  0  0  0  0
   45.6500   33.2070   46.1510 H   0  0  0  0  0  0  0  0  0  0  0  0
   45.3240   33.3840   41.1900 O   0  0  0  0  0  0  0  0  0  0  0  0
   45.2920   32.4250   41.4620 H   0  0  0  0  0  0  0  0  0  0  0  0
   46.6670   33.1750   38.8530 O   0  0  0  0  0  0  0  0  0  0  0  0
   47.4140   32.6530   37.7900 C   0  0  0  0  0  2  0  0  0  0  0  0
   46.8490   33.1280   36.5470 N   0  0  0  0  0  4  0  0  0  0  0  0
   47.1780   34.1150   36.3550 H   0  0  0  0  0  0  0  0  0  0  0  0
   47.3320   32.3190   35.4430 C   0  0  0  0  0  2  0  0  0  0  0  0
   46.5500   32.1540   34.6740 H   0  0  0  0  0  0  0  0  0  0  0  0
   45.4020   33.1400   36.5740 C   0  0  0  0  0  2  0  0  0  0  0  0
   44.9620   32.5010   35.7670 H   0  0  0  0  0  0  0  0  0  0  0  0
  1 19  1  0  0  0  0
  1  2  1  0  0  0  0
  2 12  1  0  0  0  0
  3  2  2  0  0  0  0
  3  7  1  0  0  0  0
  4  3  1  0  0  0  0
  5  6  1  0  0  0  0
  5  4  2  0  0  0  0
  6  1  2  0  0  0  0
  8  4  1  0  0  0  0
  9  5  1  0  0  0  0
 10 16  1  0  0  0  0
 10 15  1  0  0  0  0
 11 10  2  0  0  0  0
 12 11  1  0  0  0  0
 12 13  2  0  0  0  0
 13 14  1  0  0  0  0
 14 15  2  0  0  0  0
 14 18  1  0  0  0  0
 17 11  1  0  0  0  0
 19 20  1  0  0  0  0
 21  6  1  0  0  0  0
 22 21  1  0  0  0  0
 23 27  1  0  0  0  0
 23 22  1  0  0  0  0
 24 23  1  0  0  0  0
 25 23  1  0  0  0  0
 26 25  1  0  0  0  0
 28 27  1  0  0  0  0
M  END
>  <minimizedAffinity>
-5.12647343

>  <minimizedRMSD>
0.715422392

$$$$
