
 OpenBabel03242513273D

 28 29  0  0  0  0  0  0  0  0999 V2000
   47.0840   33.1810   41.2280 C   0  0  0  0  0  0  0  0  0  0  0  0
   48.2810   33.5790   40.6720 C   0  0  0  0  0  0  0  0  0  0  0  0
   49.1900   34.1510   41.5220 C   0  0  0  0  0  0  0  0  0  0  0  0
   48.9370   34.3290   42.8690 C   0  0  0  0  0  0  0  0  0  0  0  0
   47.7500   33.9310   43.4010 C   0  0  0  0  0  0  0  0  0  0  0  0
   46.8000   33.3470   42.5820 C   0  0  0  0  0  0  0  0  0  0  0  0
   50.1420   34.4660   41.0760 H   0  0  0  0  0  0  0  0  0  0  0  0
   49.7010   34.7900   43.4870 H   0  0  0  0  0  0  0  0  0  0  0  0
   47.4940   34.0440   44.4480 H   0  0  0  0  0  0  0  0  0  0  0  0
   49.4060   32.1300   37.3810 C   0  0  0  0  0  0  0  0  0  0  0  0
   49.2140   32.3110   38.7600 C   0  0  0  0  0  0  0  0  0  0  0  0
   48.4920   33.3700   39.2670 C   0  0  0  0  0  0  0  0  0  0  0  0
   47.9870   34.2170   38.3250 N   0  0  0  0  0  0  0  0  0  0  0  0
   48.1670   34.0490   37.0080 C   0  0  0  0  0  0  0  0  0  0  0  0
   48.8750   33.0080   36.5290 N   0  0  0  0  0  0  0  0  0  0  0  0
   49.9940   31.2540   37.1300 H   0  0  0  0  0  0  0  0  0  0  0  0
   49.6190   31.6310   39.5210 H   0  0  0  0  0  0  0  0  0  0  0  0
   47.7560   34.7340   36.2750 H   0  0  0  0  0  0  0  0  0  0  0  0
   46.1260   32.5920   40.4020 O   0  0  0  0  0  0  0  0  0  0  0  0
   45.3710   33.1010   39.9940 H   0  0  0  0  0  0  0  0  0  0  0  0
   45.5500   32.9030   43.0260 O   0  0  0  0  0  0  0  0  0  0  0  0
   44.3770   33.6550   42.8870 C   0  0  0  0  0  2  0  0  0  0  0  0
   44.7250   35.0580   42.8540 N   0  0  0  0  0  4  0  0  0  0  0  0
   45.7540   35.1690   42.6280 H   0  0  0  0  0  0  0  0  0  0  0  0
   44.0010   35.7230   41.7890 C   0  0  0  0  0  2  0  0  0  0  0  0
   43.6890   36.7470   42.0740 H   0  0  0  0  0  0  0  0  0  0  0  0
   44.4790   35.7120   44.1230 C   0  0  0  0  0  2  0  0  0  0  0  0
   43.7610   36.5620   44.0220 H   0  0  0  0  0  0  0  0  0  0  0  0
  1  6  1  0  0  0  0
  2  1  2  0  0  0  0
  2  3  1  0  0  0  0
  3  4  2  0  0  0  0
  4  5  1  0  0  0  0
  4  8  1  0  0  0  0
  5  9  1  0  0  0  0
  6 21  1  0  0  0  0
  6  5  2  0  0  0  0
  7  3  1  0  0  0  0
 10 11  1  0  0  0  0
 11 12  2  0  0  0  0
 11 17  1  0  0  0  0
 12  2  1  0  0  0  0
 13 12  1  0  0  0  0
 14 13  2  0  0  0  0
 15 14  1  0  0  0  0
 15 10  2  0  0  0  0
 16 10  1  0  0  0  0
 18 14  1  0  0  0  0
 19  1  1  0  0  0  0
 20 19  1  0  0  0  0
 22 21  1  0  0  0  0
 23 22  1  0  0  0  0
 23 27  1  0  0  0  0
 24 23  1  0  0  0  0
 25 26  1  0  0  0  0
 25 23  1  0  0  0  0
 28 27  1  0  0  0  0
M  END
>  <minimizedAffinity>
-3.82955933

>  <minimizedRMSD>
5.91506672

$$$$
