
 OpenBabel03252502183D

 34 35  0  0  1  0  0  0  0  0999 V2000
   47.2600   35.2430   42.1080 C   0  0  0  0  0  0  0  0  0  0  0  0
   46.4480   34.6190   43.0630 C   0  0  0  0  0  0  0  0  0  0  0  0
   46.9490   33.5220   43.7420 C   0  0  0  0  0  0  0  0  0  0  0  0
   48.2080   33.1250   43.4310 N   0  0  0  0  0  0  0  0  0  0  0  0
   48.9740   33.7300   42.5180 C   0  0  0  0  0  0  0  0  0  0  0  0
   48.4980   34.7980   41.8490 N   0  0  0  0  0  0  0  0  0  0  0  0
   46.8840   36.0960   41.5730 H   0  0  0  0  0  0  0  0  0  0  0  0
   49.9660   33.3350   42.3420 H   0  0  0  0  0  0  0  0  0  0  0  0
   46.1330   33.5250   46.0840 C   0  0  2  0  0  0  0  0  0  0  0  0
   46.0580   32.8130   44.6910 C   0  0  2  0  0  0  0  0  0  0  0  0
   46.5190   31.4570   45.0510 C   0  0  0  0  0  0  0  0  0  0  0  0
   46.7610   31.4100   46.4230 O   0  0  0  0  0  0  0  0  0  0  0  0
   45.8090   32.3000   46.9410 C   0  0  0  0  0  0  0  0  0  0  0  0
   47.1280   33.8810   46.3010 H   0  0  0  0  0  0  0  0  0  0  0  0
   45.0020   32.9260   44.4490 H   0  0  0  0  0  0  0  0  0  0  0  0
   45.8350   30.6380   44.7340 H   0  0  0  0  0  0  0  0  0  0  0  0
   47.5150   31.2600   44.5640 H   0  0  0  0  0  0  0  0  0  0  0  0
   45.9320   32.4940   48.0060 H   0  0  0  0  0  0  0  0  0  0  0  0
   44.8180   31.9340   46.6220 H   0  0  0  0  0  0  0  0  0  0  0  0
   45.1110   34.4690   46.2090 O   0  0  0  0  0  0  0  0  0  0  0  0
   44.3180   34.1460   45.7490 H   0  0  0  0  0  0  0  0  0  0  0  0
   45.1770   35.1550   43.2700 O   0  0  0  0  0  0  0  0  0  0  0  0
   43.6070   33.2780   42.3480 O   0  0  0  0  0  0  0  0  0  0  0  0
   43.8440   34.7420   42.3110 P   0  0  1  0  0  0  0  0  0  0  0  0
   42.4400   35.5110   42.8630 O   0  0  0  0  0  0  0  0  0  0  0  0
   42.1750   36.2460   42.2370 H   0  0  0  0  0  0  0  0  0  0  0  0
   44.1450   35.2310   40.7000 O   0  0  0  0  0  0  0  0  0  0  0  0
   44.1050   34.0880   39.9150 C   0  0  0  0  0  2  0  0  0  0  0  0
   43.2500   34.1990   38.7580 N   0  0  0  0  0  4  0  0  0  0  0  0
   43.8660   34.4330   37.9380 H   0  0  0  0  0  0  0  0  0  0  0  0
   42.2550   35.2290   38.8630 C   0  0  0  0  0  2  0  0  0  0  0  0
   42.7040   36.2290   38.6770 H   0  0  0  0  0  0  0  0  0  0  0  0
   42.5890   32.9540   38.4320 C   0  0  0  0  0  2  0  0  0  0  0  0
   41.6190   32.8240   38.9510 H   0  0  0  0  0  0  0  0  0  0  0  0
  1  2  1  0  0  0  0
  2 22  1  0  0  0  0
  2  3  2  0  0  0  0
  3 10  1  0  0  0  0
  4  3  1  0  0  0  0
  5  4  2  0  0  0  0
  6  1  2  0  0  0  0
  6  5  1  0  0  0  0
  7  1  1  0  0  0  0
  8  5  1  0  0  0  0
  9 20  1  0  0  0  0
  9 14  1  1  0  0  0
  9 13  1  0  0  0  0
 10 15  1  6  0  0  0
 10 11  1  0  0  0  0
 10  9  1  0  0  0  0
 11 12  1  0  0  0  0
 12 13  1  0  0  0  0
 13 18  1  0  0  0  0
 16 11  1  0  0  0  0
 17 11  1  0  0  0  0
 19 13  1  0  0  0  0
 21 20  1  0  0  0  0
 24 23  2  1  0  0  0
 24 25  1  0  0  0  0
 24 22  1  0  0  0  0
 26 25  1  0  0  0  0
 27 24  1  0  0  0  0
 28 27  1  0  0  0  0
 29 31  1  0  0  0  0
 29 28  1  0  0  0  0
 30 29  1  0  0  0  0
 32 31  1  0  0  0  0
 33 29  1  0  0  0  0
 33 34  1  0  0  0  0
M  END
>  <minimizedAffinity>
-4.57895088

>  <minimizedRMSD>
5.58084583

$$$$
