
 OpenBabel03242521073D

 38 40  0  0  1  0  0  0  0  0999 V2000
   46.2150   33.0200   38.8080 C   0  0  2  0  0  0  0  0  0  0  0  0
   46.7790   31.6810   38.5520 C   0  0  0  0  0  0  0  0  0  0  0  0
   46.9200   32.8320   37.5530 C   0  0  1  0  0  0  0  0  0  0  0  0
   45.0860   33.0610   38.7380 H   0  0  0  0  0  0  0  0  0  0  0  0
   46.1150   30.8740   38.1850 H   0  0  0  0  0  0  0  0  0  0  0  0
   47.6510   31.2920   39.0850 H   0  0  0  0  0  0  0  0  0  0  0  0
   47.9890   33.0150   37.3890 H   0  0  0  0  0  0  0  0  0  0  0  0
   46.6550   34.7130   42.0500 C   0  0  0  0  0  0  0  0  0  0  0  0
   47.8910   35.2700   41.8020 C   0  0  0  0  0  0  0  0  0  0  0  0
   48.6050   35.1290   40.6310 C   0  0  0  0  0  0  0  0  0  0  0  0
   48.0390   34.3680   39.6250 C   0  0  0  0  0  0  0  0  0  0  0  0
   46.8130   33.8270   39.8970 C   0  0  0  0  0  0  0  0  0  0  0  0
   46.1730   33.9940   41.0370 N   0  0  0  0  0  0  0  0  0  0  0  0
   48.3710   35.8780   42.5750 H   0  0  0  0  0  0  0  0  0  0  0  0
   49.5710   35.5840   40.4810 H   0  0  0  0  0  0  0  0  0  0  0  0
   48.5480   34.2230   38.6930 H   0  0  0  0  0  0  0  0  0  0  0  0
   44.4660   35.9720   44.8530 C   0  0  0  0  0  0  0  0  0  0  0  0
   45.0790   35.9360   43.5960 C   0  0  0  0  0  0  0  0  0  0  0  0
   45.9390   34.8930   43.3170 C   0  0  0  0  0  0  0  0  0  0  0  0
   46.1460   33.9630   44.2630 N   0  0  0  0  0  0  0  0  0  0  0  0
   45.5340   34.0220   45.4820 C   0  0  0  0  0  0  0  0  0  0  0  0
   44.7050   35.0280   45.7520 N   0  0  0  0  0  0  0  0  0  0  0  0
   43.8160   36.8360   44.9500 H   0  0  0  0  0  0  0  0  0  0  0  0
   44.9380   36.6590   42.8180 H   0  0  0  0  0  0  0  0  0  0  0  0
   45.7190   33.2580   46.2280 H   0  0  0  0  0  0  0  0  0  0  0  0
   46.2140   32.6800   36.3480 O   0  0  0  0  0  0  0  0  0  0  0  0
   47.0710   30.6250   35.0930 O   0  0  0  0  0  0  0  0  0  0  0  0
   47.2070   32.1510   35.0730 P   0  0  1  0  0  0  0  0  0  0  0  0
   46.5600   32.6920   33.6100 O   0  0  0  0  0  0  0  0  0  0  0  0
   46.2420   33.6210   33.7720 H   0  0  0  0  0  0  0  0  0  0  0  0
   48.8170   32.4970   35.2690 O   0  0  0  0  0  0  0  0  0  0  0  0
   49.6000   31.4170   35.4650 C   0  0  0  0  0  2  0  0  0  0  0  0
   50.7570   31.5180   36.2830 N   0  0  0  0  0  4  0  0  0  0  0  0
   51.2770   32.4010   35.9200 H   0  0  0  0  0  0  0  0  0  0  0  0
   50.5170   31.8120   37.6750 C   0  0  0  0  0  2  0  0  0  0  0  0
   51.0090   31.0860   38.3560 H   0  0  0  0  0  0  0  0  0  0  0  0
   51.7320   30.4800   36.1740 C   0  0  0  0  0  2  0  0  0  0  0  0
   51.6630   29.6710   36.9030 H   0  0  0  0  0  0  0  0  0  0  0  0
  1  4  1  6  0  0  0
  1 12  1  0  0  0  0
  2  1  1  0  0  0  0
  2  6  1  0  0  0  0
  3  7  1  6  0  0  0
  3  2  1  0  0  0  0
  3  1  1  0  0  0  0
  5  2  1  0  0  0  0
  8 19  1  0  0  0  0
  9  8  1  0  0  0  0
  9 14  1  0  0  0  0
 10  9  2  0  0  0  0
 11 12  2  0  0  0  0
 11 10  1  0  0  0  0
 12 13  1  0  0  0  0
 13  8  2  0  0  0  0
 15 10  1  0  0  0  0
 16 11  1  0  0  0  0
 17 23  1  0  0  0  0
 17 22  1  0  0  0  0
 18 17  2  0  0  0  0
 19 18  1  0  0  0  0
 19 20  2  0  0  0  0
 20 21  1  0  0  0  0
 21 22  2  0  0  0  0
 21 25  1  0  0  0  0
 24 18  1  0  0  0  0
 26  3  1  0  0  0  0
 28 27  2  6  0  0  0
 28 31  1  0  0  0  0
 28 26  1  0  0  0  0
 29 30  1  0  0  0  0
 29 28  1  0  0  0  0
 31 32  1  0  0  0  0
 32 33  1  0  0  0  0
 33 35  1  0  0  0  0
 34 33  1  0  0  0  0
 35 36  1  0  0  0  0
 37 33  1  0  0  0  0
 37 38  1  0  0  0  0
M  END
>  <minimizedAffinity>
-5.64548588

>  <minimizedRMSD>
2.49801707

$$$$
