
 OpenBabel03252502183D

 34 35  0  0  1  0  0  0  0  0999 V2000
   44.9350   34.6340   41.3870 C   0  0  0  0  0  0  0  0  0  0  0  0
   44.5280   33.5030   40.6660 C   0  0  0  0  0  0  0  0  0  0  0  0
   43.1920   33.3810   40.3290 C   0  0  0  0  0  0  0  0  0  0  0  0
   42.3590   34.3760   40.7240 N   0  0  0  0  0  0  0  0  0  0  0  0
   42.7600   35.4500   41.4110 C   0  0  0  0  0  0  0  0  0  0  0  0
   44.0580   35.5820   41.7470 N   0  0  0  0  0  0  0  0  0  0  0  0
   45.9700   34.7420   41.6560 H   0  0  0  0  0  0  0  0  0  0  0  0
   42.0170   36.1890   41.6800 H   0  0  0  0  0  0  0  0  0  0  0  0
   42.0940   32.5340   38.2720 C   0  0  2  0  0  0  0  0  0  0  0  0
   42.7490   32.1440   39.6410 C   0  0  2  0  0  0  0  0  0  0  0  0
   41.6180   31.4590   40.2990 C   0  0  0  0  0  0  0  0  0  0  0  0
   40.5350   31.4290   39.4230 O   0  0  0  0  0  0  0  0  0  0  0  0
   41.1490   31.3370   38.1660 C   0  0  0  0  0  0  0  0  0  0  0  0
   41.5310   33.4520   38.3420 H   0  0  0  0  0  0  0  0  0  0  0  0
   43.5790   31.5200   39.3110 H   0  0  0  0  0  0  0  0  0  0  0  0
   41.8570   30.4410   40.6810 H   0  0  0  0  0  0  0  0  0  0  0  0
   41.2760   32.0700   41.1810 H   0  0  0  0  0  0  0  0  0  0  0  0
   40.4490   31.4320   37.3350 H   0  0  0  0  0  0  0  0  0  0  0  0
   41.7730   30.4270   38.1780 H   0  0  0  0  0  0  0  0  0  0  0  0
   43.0380   32.4790   37.2430 O   0  0  0  0  0  0  0  0  0  0  0  0
   43.6610   31.7540   37.4180 H   0  0  0  0  0  0  0  0  0  0  0  0
   45.5100   32.5720   40.3300 O   0  0  0  0  0  0  0  0  0  0  0  0
   46.2250   31.3030   38.1590 O   0  0  0  0  0  0  0  0  0  0  0  0
   46.3370   32.6090   38.8530 P   0  0  1  0  0  0  0  0  0  0  0  0
   45.6970   33.7990   37.8320 O   0  0  0  0  0  0  0  0  0  0  0  0
   46.3260   34.5740   37.7620 H   0  0  0  0  0  0  0  0  0  0  0  0
   47.9840   32.9590   39.1470 O   0  0  0  0  0  0  0  0  0  0  0  0
   48.0440   34.2610   39.6230 C   0  0  0  0  0  2  0  0  0  0  0  0
   49.0530   34.4710   40.6330 N   0  0  0  0  0  4  0  0  0  0  0  0
   49.9770   34.5510   40.1360 H   0  0  0  0  0  0  0  0  0  0  0  0
   49.1600   33.4020   41.5840 C   0  0  0  0  0  2  0  0  0  0  0  0
   49.7180   32.5440   41.1490 H   0  0  0  0  0  0  0  0  0  0  0  0
   48.8680   35.7110   41.3550 C   0  0  0  0  0  2  0  0  0  0  0  0
   48.2140   35.6080   42.2430 H   0  0  0  0  0  0  0  0  0  0  0  0
  1  7  1  0  0  0  0
  1  6  1  0  0  0  0
  2  1  2  0  0  0  0
  3  2  1  0  0  0  0
  3  4  2  0  0  0  0
  4  5  1  0  0  0  0
  5  8  1  0  0  0  0
  5  6  2  0  0  0  0
  9 14  1  1  0  0  0
  9 10  1  0  0  0  0
 10 15  1  6  0  0  0
 10 11  1  0  0  0  0
 10  3  1  0  0  0  0
 11 16  1  0  0  0  0
 11 17  1  0  0  0  0
 12 11  1  0  0  0  0
 13 19  1  0  0  0  0
 13  9  1  0  0  0  0
 13 12  1  0  0  0  0
 18 13  1  0  0  0  0
 20 21  1  0  0  0  0
 20  9  1  0  0  0  0
 22  2  1  0  0  0  0
 24 23  2  6  0  0  0
 24 27  1  0  0  0  0
 24 22  1  0  0  0  0
 25 24  1  0  0  0  0
 26 25  1  0  0  0  0
 27 28  1  0  0  0  0
 28 29  1  0  0  0  0
 29 33  1  0  0  0  0
 29 31  1  0  0  0  0
 30 29  1  0  0  0  0
 32 31  1  0  0  0  0
 33 34  1  0  0  0  0
M  END
>  <minimizedAffinity>
-3.91673541

>  <minimizedRMSD>
5.77258015

$$$$
