
 OpenBabel03242521073D

 38 40  0  0  1  0  0  0  0  0999 V2000
   46.3250   32.8060   38.7140 C   0  0  2  0  0  0  0  0  0  0  0  0
   47.1840   31.7280   38.1890 C   0  0  0  0  0  0  0  0  0  0  0  0
   46.7480   32.9170   37.3300 C   0  0  1  0  0  0  0  0  0  0  0  0
   45.2490   32.4930   38.8750 H   0  0  0  0  0  0  0  0  0  0  0  0
   46.7230   30.7740   37.8660 H   0  0  0  0  0  0  0  0  0  0  0  0
   48.2300   31.6040   38.4850 H   0  0  0  0  0  0  0  0  0  0  0  0
   47.6490   33.4360   36.9780 H   0  0  0  0  0  0  0  0  0  0  0  0
   46.6990   34.7000   41.8500 C   0  0  0  0  0  0  0  0  0  0  0  0
   47.9080   35.2960   41.5640 C   0  0  0  0  0  0  0  0  0  0  0  0
   48.6240   35.1200   40.3990 C   0  0  0  0  0  0  0  0  0  0  0  0
   48.0890   34.2780   39.4420 C   0  0  0  0  0  0  0  0  0  0  0  0
   46.8890   33.7000   39.7510 C   0  0  0  0  0  0  0  0  0  0  0  0
   46.2470   33.9030   40.8830 N   0  0  0  0  0  0  0  0  0  0  0  0
   48.3630   35.9680   42.2980 H   0  0  0  0  0  0  0  0  0  0  0  0
   49.5680   35.6080   40.2180 H   0  0  0  0  0  0  0  0  0  0  0  0
   48.6010   34.1020   38.5160 H   0  0  0  0  0  0  0  0  0  0  0  0
   44.5320   36.0680   44.6200 C   0  0  0  0  0  0  0  0  0  0  0  0
   45.1530   35.9950   43.3680 C   0  0  0  0  0  0  0  0  0  0  0  0
   45.9800   34.9200   43.1090 C   0  0  0  0  0  0  0  0  0  0  0  0
   46.1480   33.9960   44.0680 N   0  0  0  0  0  0  0  0  0  0  0  0
   45.5290   34.0910   45.2820 C   0  0  0  0  0  0  0  0  0  0  0  0
   44.7320   35.1280   45.5320 N   0  0  0  0  0  0  0  0  0  0  0  0
   43.9120   36.9550   44.7010 H   0  0  0  0  0  0  0  0  0  0  0  0
   45.0430   36.7120   42.5800 H   0  0  0  0  0  0  0  0  0  0  0  0
   45.6830   33.3310   46.0380 H   0  0  0  0  0  0  0  0  0  0  0  0
   45.8640   32.6170   36.2800 O   0  0  0  0  0  0  0  0  0  0  0  0
   46.5570   30.7900   34.6330 O   0  0  0  0  0  0  0  0  0  0  0  0
   46.6700   32.3070   34.8160 P   0  0  1  0  0  0  0  0  0  0  0  0
   45.8140   33.0290   33.5520 O   0  0  0  0  0  0  0  0  0  0  0  0
   45.5120   33.9140   33.8900 H   0  0  0  0  0  0  0  0  0  0  0  0
   48.2870   32.6740   34.8330 O   0  0  0  0  0  0  0  0  0  0  0  0
   48.8080   32.9590   33.6220 C   0  0  0  0  0  2  0  0  0  0  0  0
   49.6020   31.9940   32.9470 N   0  0  0  0  0  4  0  0  0  0  0  0
   50.3800   32.5710   32.4520 H   0  0  0  0  0  0  0  0  0  0  0  0
   50.3370   31.0850   33.7930 C   0  0  0  0  0  2  0  0  0  0  0  0
   50.1530   30.0210   33.5370 H   0  0  0  0  0  0  0  0  0  0  0  0
   48.9880   31.2660   31.8820 C   0  0  0  0  0  2  0  0  0  0  0  0
   48.5690   30.2920   32.1380 H   0  0  0  0  0  0  0  0  0  0  0  0
  1  4  1  1  0  0  0
  1 12  1  0  0  0  0
  2  6  1  0  0  0  0
  2  1  1  0  0  0  0
  3  7  1  6  0  0  0
  3  2  1  0  0  0  0
  3  1  1  0  0  0  0
  5  2  1  0  0  0  0
  8 19  1  0  0  0  0
  9  8  1  0  0  0  0
  9 14  1  0  0  0  0
 10  9  2  0  0  0  0
 11 12  2  0  0  0  0
 11 10  1  0  0  0  0
 12 13  1  0  0  0  0
 13  8  2  0  0  0  0
 15 10  1  0  0  0  0
 16 11  1  0  0  0  0
 17 23  1  0  0  0  0
 17 22  1  0  0  0  0
 18 17  2  0  0  0  0
 19 18  1  0  0  0  0
 19 20  2  0  0  0  0
 20 21  1  0  0  0  0
 21 22  2  0  0  0  0
 21 25  1  0  0  0  0
 24 18  1  0  0  0  0
 26  3  1  0  0  0  0
 28 27  2  6  0  0  0
 28 31  1  0  0  0  0
 28 26  1  0  0  0  0
 29 30  1  0  0  0  0
 29 28  1  0  0  0  0
 32 31  1  0  0  0  0
 33 32  1  0  0  0  0
 33 35  1  0  0  0  0
 34 33  1  0  0  0  0
 36 35  1  0  0  0  0
 37 38  1  0  0  0  0
 37 33  1  0  0  0  0
M  END
>  <minimizedAffinity>
-5.77021885

>  <minimizedRMSD>
1.23181951

$$$$
