
 OpenBabel03242521073D

 38 40  0  0  1  0  0  0  0  0999 V2000
   46.0070   32.5280   38.7900 C   0  0  2  0  0  0  0  0  0  0  0  0
   46.8740   31.5240   38.1470 C   0  0  0  0  0  0  0  0  0  0  0  0
   46.2400   32.6770   37.3650 C   0  0  1  0  0  0  0  0  0  0  0  0
   44.9880   32.1310   39.0830 H   0  0  0  0  0  0  0  0  0  0  0  0
   46.4510   30.5370   37.8730 H   0  0  0  0  0  0  0  0  0  0  0  0
   47.9560   31.4830   38.3060 H   0  0  0  0  0  0  0  0  0  0  0  0
   47.0460   33.2660   36.9090 H   0  0  0  0  0  0  0  0  0  0  0  0
   46.5380   34.5650   41.8130 C   0  0  0  0  0  0  0  0  0  0  0  0
   47.7440   35.1260   41.4500 C   0  0  0  0  0  0  0  0  0  0  0  0
   48.4090   34.8800   40.2670 C   0  0  0  0  0  0  0  0  0  0  0  0
   47.8220   34.0030   39.3740 C   0  0  0  0  0  0  0  0  0  0  0  0
   46.6270   33.4610   39.7590 C   0  0  0  0  0  0  0  0  0  0  0  0
   46.0350   33.7310   40.9050 N   0  0  0  0  0  0  0  0  0  0  0  0
   48.2380   35.8240   42.1310 H   0  0  0  0  0  0  0  0  0  0  0  0
   49.3520   35.3430   40.0240 H   0  0  0  0  0  0  0  0  0  0  0  0
   48.2930   33.7730   38.4380 H   0  0  0  0  0  0  0  0  0  0  0  0
   44.5500   36.1290   44.6120 C   0  0  0  0  0  0  0  0  0  0  0  0
   45.1260   35.9890   43.3450 C   0  0  0  0  0  0  0  0  0  0  0  0
   45.8740   34.8580   43.0870 C   0  0  0  0  0  0  0  0  0  0  0  0
   46.0160   33.9470   44.0630 N   0  0  0  0  0  0  0  0  0  0  0  0
   45.4420   34.1090   45.2920 C   0  0  0  0  0  0  0  0  0  0  0  0
   44.7200   35.1990   45.5410 N   0  0  0  0  0  0  0  0  0  0  0  0
   43.9890   37.0550   44.6910 H   0  0  0  0  0  0  0  0  0  0  0  0
   45.0350   36.6940   42.5430 H   0  0  0  0  0  0  0  0  0  0  0  0
   45.5720   33.3570   46.0620 H   0  0  0  0  0  0  0  0  0  0  0  0
   45.2550   32.3100   36.4330 O   0  0  0  0  0  0  0  0  0  0  0  0
   45.6040   30.5960   34.5700 O   0  0  0  0  0  0  0  0  0  0  0  0
   45.8900   32.0700   34.8740 P   0  0  1  0  0  0  0  0  0  0  0  0
   45.0040   32.9900   33.7700 O   0  0  0  0  0  0  0  0  0  0  0  0
   44.8260   33.8630   34.2140 H   0  0  0  0  0  0  0  0  0  0  0  0
   47.5310   32.2790   34.7630 O   0  0  0  0  0  0  0  0  0  0  0  0
   47.9950   32.4000   33.5020 C   0  0  0  0  0  2  0  0  0  0  0  0
   48.7020   31.3250   32.9000 N   0  0  0  0  0  4  0  0  0  0  0  0
   49.5200   31.7980   32.3630 H   0  0  0  0  0  0  0  0  0  0  0  0
   49.3650   30.4230   33.8100 C   0  0  0  0  0  2  0  0  0  0  0  0
   49.0920   29.3630   33.6350 H   0  0  0  0  0  0  0  0  0  0  0  0
   48.0220   30.5750   31.8920 C   0  0  0  0  0  2  0  0  0  0  0  0
   47.5260   29.6600   32.2200 H   0  0  0  0  0  0  0  0  0  0  0  0
  1  4  1  1  0  0  0
  1 12  1  0  0  0  0
  2  6  1  0  0  0  0
  2  1  1  0  0  0  0
  3  7  1  6  0  0  0
  3  2  1  0  0  0  0
  3  1  1  0  0  0  0
  5  2  1  0  0  0  0
  8 19  1  0  0  0  0
  9  8  1  0  0  0  0
  9 14  1  0  0  0  0
 10  9  2  0  0  0  0
 11 12  2  0  0  0  0
 11 10  1  0  0  0  0
 12 13  1  0  0  0  0
 13  8  2  0  0  0  0
 15 10  1  0  0  0  0
 16 11  1  0  0  0  0
 17 23  1  0  0  0  0
 17 22  1  0  0  0  0
 18 17  2  0  0  0  0
 19 18  1  0  0  0  0
 19 20  2  0  0  0  0
 20 21  1  0  0  0  0
 21 22  2  0  0  0  0
 21 25  1  0  0  0  0
 24 18  1  0  0  0  0
 26  3  1  0  0  0  0
 28 27  2  6  0  0  0
 28 26  1  0  0  0  0
 29 30  1  0  0  0  0
 29 28  1  0  0  0  0
 31 28  1  0  0  0  0
 32 31  1  0  0  0  0
 33 32  1  0  0  0  0
 33 35  1  0  0  0  0
 34 33  1  0  0  0  0
 36 35  1  0  0  0  0
 37 38  1  0  0  0  0
 37 33  1  0  0  0  0
M  END
>  <minimizedAffinity>
-5.95033979

>  <minimizedRMSD>
0.507696629

$$$$
