
 OpenBabel03242521073D

 38 40  0  0  1  0  0  0  0  0999 V2000
   46.0360   32.5310   38.7860 C   0  0  2  0  0  0  0  0  0  0  0  0
   46.9070   31.5190   38.1580 C   0  0  0  0  0  0  0  0  0  0  0  0
   46.2860   32.6700   37.3630 C   0  0  1  0  0  0  0  0  0  0  0  0
   45.0130   32.1390   39.0700 H   0  0  0  0  0  0  0  0  0  0  0  0
   46.4840   30.5320   37.8850 H   0  0  0  0  0  0  0  0  0  0  0  0
   47.9870   31.4750   38.3300 H   0  0  0  0  0  0  0  0  0  0  0  0
   47.0990   33.2530   36.9120 H   0  0  0  0  0  0  0  0  0  0  0  0
   46.5510   34.5690   41.8100 C   0  0  0  0  0  0  0  0  0  0  0  0
   47.7540   35.1370   41.4490 C   0  0  0  0  0  0  0  0  0  0  0  0
   48.4220   34.8970   40.2670 C   0  0  0  0  0  0  0  0  0  0  0  0
   47.8420   34.0160   39.3730 C   0  0  0  0  0  0  0  0  0  0  0  0
   46.6500   33.4670   39.7560 C   0  0  0  0  0  0  0  0  0  0  0  0
   46.0540   33.7320   40.9010 N   0  0  0  0  0  0  0  0  0  0  0  0
   48.2430   35.8390   42.1310 H   0  0  0  0  0  0  0  0  0  0  0  0
   49.3630   35.3650   40.0260 H   0  0  0  0  0  0  0  0  0  0  0  0
   48.3160   33.7900   38.4380 H   0  0  0  0  0  0  0  0  0  0  0  0
   44.5510   36.1220   44.6080 C   0  0  0  0  0  0  0  0  0  0  0  0
   45.1300   35.9860   43.3410 C   0  0  0  0  0  0  0  0  0  0  0  0
   45.8830   34.8580   43.0830 C   0  0  0  0  0  0  0  0  0  0  0  0
   46.0250   33.9460   44.0580 N   0  0  0  0  0  0  0  0  0  0  0  0
   45.4490   34.1030   45.2860 C   0  0  0  0  0  0  0  0  0  0  0  0
   44.7220   35.1910   45.5350 N   0  0  0  0  0  0  0  0  0  0  0  0
   43.9870   37.0450   44.6870 H   0  0  0  0  0  0  0  0  0  0  0  0
   45.0390   36.6920   42.5400 H   0  0  0  0  0  0  0  0  0  0  0  0
   45.5800   33.3510   46.0550 H   0  0  0  0  0  0  0  0  0  0  0  0
   45.3110   32.3010   36.4220 O   0  0  0  0  0  0  0  0  0  0  0  0
   45.7060   30.6150   34.5420 O   0  0  0  0  0  0  0  0  0  0  0  0
   45.9550   32.0920   34.8620 P   0  0  1  0  0  0  0  0  0  0  0  0
   45.0490   33.0020   33.7650 O   0  0  0  0  0  0  0  0  0  0  0  0
   44.8490   33.8660   34.2170 H   0  0  0  0  0  0  0  0  0  0  0  0
   47.5910   32.3420   34.7570 O   0  0  0  0  0  0  0  0  0  0  0  0
   48.0540   32.4840   33.4980 C   0  0  0  0  0  2  0  0  0  0  0  0
   48.8050   31.4390   32.8970 N   0  0  0  0  0  4  0  0  0  0  0  0
   49.6550   31.9370   32.4370 H   0  0  0  0  0  0  0  0  0  0  0  0
   49.4130   30.4990   33.8090 C   0  0  0  0  0  2  0  0  0  0  0  0
   49.1580   29.4470   33.5690 H   0  0  0  0  0  0  0  0  0  0  0  0
   48.1980   30.7320   31.8140 C   0  0  0  0  0  2  0  0  0  0  0  0
   47.6860   29.8030   32.0690 H   0  0  0  0  0  0  0  0  0  0  0  0
  1  4  1  1  0  0  0
  1 12  1  0  0  0  0
  2  6  1  0  0  0  0
  2  1  1  0  0  0  0
  3  7  1  6  0  0  0
  3  2  1  0  0  0  0
  3  1  1  0  0  0  0
  5  2  1  0  0  0  0
  8 19  1  0  0  0  0
  9  8  1  0  0  0  0
  9 14  1  0  0  0  0
 10  9  2  0  0  0  0
 11 12  2  0  0  0  0
 11 10  1  0  0  0  0
 12 13  1  0  0  0  0
 13  8  2  0  0  0  0
 15 10  1  0  0  0  0
 16 11  1  0  0  0  0
 17 23  1  0  0  0  0
 17 22  1  0  0  0  0
 18 17  2  0  0  0  0
 19 18  1  0  0  0  0
 19 20  2  0  0  0  0
 20 21  1  0  0  0  0
 21 22  2  0  0  0  0
 21 25  1  0  0  0  0
 24 18  1  0  0  0  0
 26  3  1  0  0  0  0
 28 27  2  6  0  0  0
 28 26  1  0  0  0  0
 29 30  1  0  0  0  0
 29 28  1  0  0  0  0
 31 28  1  0  0  0  0
 32 31  1  0  0  0  0
 33 32  1  0  0  0  0
 33 35  1  0  0  0  0
 34 33  1  0  0  0  0
 36 35  1  0  0  0  0
 37 38  1  0  0  0  0
 37 33  1  0  0  0  0
M  END
>  <minimizedAffinity>
-5.94397831

>  <minimizedRMSD>
0.739609241

$$$$
