
 OpenBabel03252506463D

 45 49  0  0  1  0  0  0  0  0999 V2000
   49.3780   33.3220   41.4610 N   0  0  1  0  0  0  0  0  0  0  0  0
   50.6740   33.1290   42.0610 C   0  0  0  0  0  0  0  0  0  0  0  0
   51.3170   31.8100   41.7560 C   0  0  0  0  0  0  0  0  0  0  0  0
   50.4880   30.7110   42.3850 C   0  0  0  0  0  0  0  0  0  0  0  0
   49.0260   31.0400   42.3360 C   0  0  0  0  0  0  0  0  0  0  0  0
   48.7740   32.0300   41.2260 C   0  0  2  0  0  0  0  0  0  0  0  0
   50.6010   33.2040   43.1670 H   0  0  0  0  0  0  0  0  0  0  0  0
   51.3030   33.9760   41.7320 H   0  0  0  0  0  0  0  0  0  0  0  0
   52.3270   31.8570   42.2650 H   0  0  0  0  0  0  0  0  0  0  0  0
   51.5570   31.6250   40.7070 H   0  0  0  0  0  0  0  0  0  0  0  0
   50.7360   29.7140   42.0020 H   0  0  0  0  0  0  0  0  0  0  0  0
   50.7640   30.7130   43.4770 H   0  0  0  0  0  0  0  0  0  0  0  0
   48.3760   30.1720   42.1750 H   0  0  0  0  0  0  0  0  0  0  0  0
   48.6670   31.5240   43.2730 H   0  0  0  0  0  0  0  0  0  0  0  0
   47.6760   32.1970   41.2200 H   0  0  0  0  0  0  0  0  0  0  0  0
   49.1020   31.4520   39.9520 N   0  0  0  0  0  0  0  0  0  0  0  0
   50.1180   31.5270   39.7530 H   0  0  0  0  0  0  0  0  0  0  0  0
   48.2330   30.8560   39.0100 C   0  0  0  0  0  0  0  0  0  0  0  0
   47.4580   29.7930   39.2520 N   0  0  0  0  0  0  0  0  0  0  0  0
   46.6250   29.1990   38.4160 C   0  0  0  0  0  3  0  0  0  0  0  0
   46.5230   29.6950   37.1710 N   0  0  0  0  0  0  0  0  0  0  0  0
   47.2490   30.7610   36.8050 C   0  0  0  0  0  0  0  0  0  0  0  0
   47.1260   31.2450   35.5340 C   0  0  0  0  0  3  0  0  0  0  0  0
   47.8430   32.3360   35.0890 C   0  0  0  0  0  0  0  0  0  0  0  0
   47.6950   32.6600   34.0820 H   0  0  0  0  0  0  0  0  0  0  0  0
   48.7000   32.9200   36.0050 C   0  0  0  0  0  0  0  0  0  0  0  0
   49.2560   33.7740   35.6460 H   0  0  0  0  0  0  0  0  0  0  0  0
   48.8050   32.4150   37.2730 C   0  0  0  0  0  3  0  0  0  0  0  0
   48.0960   31.3300   37.7240 C   0  0  0  0  0  0  0  0  0  0  0  0
   47.2280   34.6260   41.9990 C   0  0  1  0  0  0  0  0  0  0  0  0
   48.3610   35.5530   41.7630 C   0  0  0  0  0  0  0  0  0  0  0  0
   48.6220   34.1920   42.2720 C   0  0  2  0  0  0  0  0  0  0  0  0
   46.6760   34.3190   41.0820 H   0  0  0  0  0  0  0  0  0  0  0  0
   48.5290   36.3900   42.4670 H   0  0  0  0  0  0  0  0  0  0  0  0
   48.6680   35.8160   40.7200 H   0  0  0  0  0  0  0  0  0  0  0  0
   48.8490   34.0910   43.3760 H   0  0  0  0  0  0  0  0  0  0  0  0
   45.5210   36.0500   43.1630 C   0  0  0  0  0  0  0  0  0  0  0  0
   46.3160   34.8940   43.1280 C   0  0  0  0  0  0  0  0  0  0  0  0
   46.2020   33.9850   44.2050 C   0  0  0  0  0  0  0  0  0  0  0  0
   45.3380   34.2780   45.2030 N   0  0  0  0  0  0  0  0  0  0  0  0
   44.5840   35.3950   45.2140 C   0  0  0  0  0  0  0  0  0  0  0  0
   44.6680   36.2980   44.1880 N   0  0  0  0  0  0  0  0  0  0  0  0
   45.6100   36.7440   42.3390 H   0  0  0  0  0  0  0  0  0  0  0  0
   46.8010   33.0830   44.2110 H   0  0  0  0  0  0  0  0  0  0  0  0
   43.9360   35.5000   46.0760 H   0  0  0  0  0  0  0  0  0  0  0  0
  1  2  1  1  0  0  0
  1 32  1  0  0  0  0
  2  7  1  0  0  0  0
  3  2  1  0  0  0  0
  3  9  1  0  0  0  0
  3  4  1  0  0  0  0
  4 12  1  0  0  0  0
  5  4  1  0  0  0  0
  5 14  1  0  0  0  0
  6 15  1  6  0  0  0
  6  1  1  0  0  0  0
  6  5  1  0  0  0  0
  8  2  1  0  0  0  0
 10  3  1  0  0  0  0
 11  4  1  0  0  0  0
 13  5  1  0  0  0  0
 16  6  1  0  0  0  0
 17 16  1  0  0  0  0
 18 19  1  0  0  0  0
 18 16  1  0  0  0  0
 20 19  2  0  0  0  0
 21 20  1  0  0  0  0
 22 21  2  0  0  0  0
 22 29  1  0  0  0  0
 23 22  1  0  0  0  0
 24 23  2  0  0  0  0
 24 26  1  0  0  0  0
 25 24  1  0  0  0  0
 26 28  2  0  0  0  0
 27 26  1  0  0  0  0
 28 29  1  0  0  0  0
 29 18  2  0  0  0  0
 30 33  1  6  0  0  0
 30 32  1  0  0  0  0
 30 38  1  0  0  0  0
 31 30  1  0  0  0  0
 31 32  1  0  0  0  0
 31 34  1  0  0  0  0
 32 36  1  1  0  0  0
 35 31  1  0  0  0  0
 37 42  1  0  0  0  0
 38 37  2  0  0  0  0
 38 39  1  0  0  0  0
 39 44  1  0  0  0  0
 39 40  2  0  0  0  0
 40 41  1  0  0  0  0
 41 45  1  0  0  0  0
 42 41  2  0  0  0  0
 43 37  1  0  0  0  0
M  END
>  <minimizedAffinity>
-5.48411655

>  <minimizedRMSD>
1.70389843

$$$$
