
 OpenBabel03252506343D

 36 39  0  0  1  0  0  0  0  0999 V2000
   44.4590   35.6730   44.9750 C   0  0  0  0  0  0  0  0  0  0  0  0
   45.1570   35.6800   43.7550 C   0  0  0  0  0  0  0  0  0  0  0  0
   46.1230   34.7420   43.5400 C   0  0  0  0  0  0  0  0  0  0  0  0
   46.3360   33.8570   44.5440 N   0  0  0  0  0  0  0  0  0  0  0  0
   45.6760   33.8550   45.6910 C   0  0  0  0  0  0  0  0  0  0  0  0
   44.7190   34.7600   45.9470 N   0  0  0  0  0  0  0  0  0  0  0  0
   46.0100   32.8660   46.6470 N   0  0  0  0  0  0  0  0  0  0  0  0
   45.1770   32.5310   47.8120 C   0  0  0  0  0  0  0  0  0  0  0  0
   46.2170   32.2740   48.8790 C   0  0  0  0  0  0  0  0  0  0  0  0
   47.5470   32.2060   48.1790 C   0  0  0  0  0  0  0  0  0  0  0  0
   47.1410   31.9930   46.7450 C   0  0  1  0  0  0  0  0  0  0  0  0
   43.6640   36.3800   45.2550 H   0  0  0  0  0  0  0  0  0  0  0  0
   46.6220   34.7830   42.6080 H   0  0  0  0  0  0  0  0  0  0  0  0
   44.4990   31.6930   47.6250 H   0  0  0  0  0  0  0  0  0  0  0  0
   44.6430   33.4640   48.1170 H   0  0  0  0  0  0  0  0  0  0  0  0
   46.0160   31.2400   49.2630 H   0  0  0  0  0  0  0  0  0  0  0  0
   46.1870   32.9980   49.6960 H   0  0  0  0  0  0  0  0  0  0  0  0
   48.2290   31.4290   48.5600 H   0  0  0  0  0  0  0  0  0  0  0  0
   47.9930   33.2360   48.2300 H   0  0  0  0  0  0  0  0  0  0  0  0
   47.8980   32.3750   46.0280 H   0  0  0  0  0  0  0  0  0  0  0  0
   44.7480   36.7200   42.8450 N   0  0  0  0  0  0  0  0  0  0  0  0
   43.8150   36.7340   42.3520 H   0  0  0  0  0  0  0  0  0  0  0  0
   45.4570   37.4620   42.7170 H   0  0  0  0  0  0  0  0  0  0  0  0
   46.7350   30.2670   46.4900 S   0  0  0  0  0  0  0  0  0  0  0  0
   45.8880   29.9150   44.9860 C   0  0  0  0  0  0  0  0  0  0  0  0
   44.6270   29.4200   44.7980 N   0  0  0  0  0  0  0  0  0  0  0  0
   44.1860   29.2150   43.5480 C   0  0  0  0  0  3  0  0  0  0  0  0
   44.8960   29.4600   42.4320 N   0  0  0  0  0  0  0  0  0  0  0  0
   46.1510   29.9510   42.5720 C   0  0  0  0  0  0  0  0  0  0  0  0
   46.8120   30.1710   41.3850 C   0  0  0  0  0  3  0  0  0  0  0  0
   48.1140   30.6740   41.4860 C   0  0  0  0  0  0  0  0  0  0  0  0
   48.7010   30.8730   40.6040 H   0  0  0  0  0  0  0  0  0  0  0  0
   48.6530   30.9160   42.7220 C   0  0  0  0  0  0  0  0  0  0  0  0
   49.6590   31.3060   42.8230 H   0  0  0  0  0  0  0  0  0  0  0  0
   47.9240   30.6690   43.8660 C   0  0  0  0  0  3  0  0  0  0  0  0
   46.6250   30.1700   43.8470 C   0  0  0  0  0  0  0  0  0  0  0  0
  1 12  1  0  0  0  0
  1  6  1  0  0  0  0
  2  1  2  0  0  0  0
  3  2  1  0  0  0  0
  3  4  2  0  0  0  0
  4  5  1  0  0  0  0
  5  6  2  0  0  0  0
  5  7  1  0  0  0  0
  7 11  1  0  0  0  0
  7  8  1  0  0  0  0
  8 15  1  0  0  0  0
  8  9  1  0  0  0  0
  9 16  1  0  0  0  0
  9 17  1  0  0  0  0
 10 19  1  0  0  0  0
 10 18  1  0  0  0  0
 10  9  1  0  0  0  0
 11 20  1  6  0  0  0
 11 10  1  0  0  0  0
 13  3  1  0  0  0  0
 14  8  1  0  0  0  0
 21  2  1  0  0  0  0
 22 21  1  0  0  0  0
 23 21  1  0  0  0  0
 24 11  1  0  0  0  0
 25 24  1  0  0  0  0
 26 25  1  0  0  0  0
 27 26  2  0  0  0  0
 28 29  2  0  0  0  0
 28 27  1  0  0  0  0
 29 36  1  0  0  0  0
 30 31  2  0  0  0  0
 30 29  1  0  0  0  0
 31 33  1  0  0  0  0
 32 31  1  0  0  0  0
 33 34  1  0  0  0  0
 33 35  2  0  0  0  0
 36 35  1  0  0  0  0
 36 25  2  0  0  0  0
M  END
>  <minimizedAffinity>
-5.31262636

>  <minimizedRMSD>
0.299394071

$$$$
