
 OpenBabel03252502233D

 37 40  0  0  1  0  0  0  0  0999 V2000
   46.8230   34.6000   42.2860 N   0  0  0  0  0  0  0  0  0  0  0  0
   48.2770   34.5280   42.3510 C   0  0  0  0  0  0  0  0  0  0  0  0
   48.7510   35.3340   41.1440 C   0  0  0  0  0  0  0  0  0  0  0  0
   48.3250   34.6650   39.8720 C   0  0  0  0  0  0  0  0  0  0  0  0
   46.9640   34.0700   39.9030 C   0  0  0  0  0  0  0  0  0  0  0  0
   46.1060   34.4860   41.0470 C   0  0  1  0  0  0  0  0  0  0  0  0
   48.5480   33.4830   42.1450 H   0  0  0  0  0  0  0  0  0  0  0  0
   48.6780   34.9370   43.2720 H   0  0  0  0  0  0  0  0  0  0  0  0
   49.8760   35.2460   41.1860 H   0  0  0  0  0  0  0  0  0  0  0  0
   48.4290   36.3710   41.2470 H   0  0  0  0  0  0  0  0  0  0  0  0
   49.0790   33.9040   39.5350 H   0  0  0  0  0  0  0  0  0  0  0  0
   48.3390   35.4430   39.0690 H   0  0  0  0  0  0  0  0  0  0  0  0
   46.3980   34.2080   38.9560 H   0  0  0  0  0  0  0  0  0  0  0  0
   47.0830   32.9550   39.9870 H   0  0  0  0  0  0  0  0  0  0  0  0
   45.6120   35.4590   40.7930 H   0  0  0  0  0  0  0  0  0  0  0  0
   44.4790   36.0060   44.8400 C   0  0  0  0  0  0  0  0  0  0  0  0
   45.1920   35.8980   43.6420 C   0  0  0  0  0  0  0  0  0  0  0  0
   46.0580   34.7890   43.4740 C   0  0  0  0  0  0  0  0  0  0  0  0
   46.1400   33.8930   44.4940 N   0  0  0  0  0  0  0  0  0  0  0  0
   45.4230   34.0440   45.6400 C   0  0  0  0  0  0  0  0  0  0  0  0
   44.5990   35.0980   45.8030 N   0  0  0  0  0  0  0  0  0  0  0  0
   43.8630   36.8950   44.8270 H   0  0  0  0  0  0  0  0  0  0  0  0
   45.1490   36.5900   42.8160 H   0  0  0  0  0  0  0  0  0  0  0  0
   45.5030   33.3200   46.4400 H   0  0  0  0  0  0  0  0  0  0  0  0
   45.1030   33.5140   41.2100 O   0  0  0  0  0  0  0  0  0  0  0  0
   43.7720   33.6900   40.9320 C   0  0  0  0  0  0  0  0  0  0  0  0
   42.8640   34.4420   41.5750 N   0  0  0  0  0  0  0  0  0  0  0  0
   41.5920   34.5170   41.1840 C   0  0  0  0  0  3  0  0  0  0  0  0
   41.1540   33.8230   40.1020 N   0  0  0  0  0  0  0  0  0  0  0  0
   42.0080   33.0530   39.4140 C   0  0  0  0  0  0  0  0  0  0  0  0
   41.5650   32.3490   38.3170 C   0  0  0  0  0  3  0  0  0  0  0  0
   42.4080   31.5480   37.5860 C   0  0  0  0  0  0  0  0  0  0  0  0
   42.1510   30.9570   36.7080 H   0  0  0  0  0  0  0  0  0  0  0  0
   43.7120   31.4600   37.9690 C   0  0  0  0  0  0  0  0  0  0  0  0
   44.4420   30.8540   37.4510 H   0  0  0  0  0  0  0  0  0  0  0  0
   44.1440   32.1680   39.0690 C   0  0  0  0  0  3  0  0  0  0  0  0
   43.3250   32.9840   39.8290 C   0  0  0  0  0  0  0  0  0  0  0  0
  1  2  1  0  0  0  0
  1 18  1  0  0  0  0
  2  8  1  0  0  0  0
  3  9  1  0  0  0  0
  3 10  1  0  0  0  0
  3  2  1  0  0  0  0
  4  5  1  0  0  0  0
  4  3  1  0  0  0  0
  5 14  1  0  0  0  0
  5  6  1  0  0  0  0
  6 15  1  6  0  0  0
  6 25  1  0  0  0  0
  6  1  1  0  0  0  0
  7  2  1  0  0  0  0
 11  4  1  0  0  0  0
 12  4  1  0  0  0  0
 13  5  1  0  0  0  0
 16 21  1  0  0  0  0
 17 16  2  0  0  0  0
 18 17  1  0  0  0  0
 18 19  2  0  0  0  0
 19 20  1  0  0  0  0
 20 21  2  0  0  0  0
 20 24  1  0  0  0  0
 22 16  1  0  0  0  0
 23 17  1  0  0  0  0
 26 25  1  0  0  0  0
 26 27  1  0  0  0  0
 28 27  2  0  0  0  0
 29 28  1  0  0  0  0
 30 37  1  0  0  0  0
 30 29  2  0  0  0  0
 31 30  1  0  0  0  0
 32 34  1  0  0  0  0
 32 31  2  0  0  0  0
 33 32  1  0  0  0  0
 34 36  2  0  0  0  0
 35 34  1  0  0  0  0
 36 37  1  0  0  0  0
 37 26  2  0  0  0  0
M  END
>  <minimizedAffinity>
-5.96511269

>  <minimizedRMSD>
0.754449069

$$$$
