
 OpenBabel03252506383D

 47 51  0  0  1  0  0  0  0  0999 V2000
   46.5540   30.0590   46.4310 S   0  0  0  0  0  0  0  0  0  0  0  0
   45.7090   30.6780   43.2610 O   0  0  0  0  0  0  0  0  0  0  0  0
   45.0310   30.0980   44.1240 C   0  0  0  0  0  0  0  0  0  0  0  0
   45.0530   29.8110   45.5800 C   0  0  1  0  0  0  0  0  0  0  0  0
   44.5140   28.4020   45.6290 C   0  0  0  0  0  0  0  0  0  0  0  0
   43.2410   28.6450   44.8150 C   0  0  0  0  0  0  0  0  0  0  0  0
   43.8080   29.4500   43.7400 N   0  0  0  0  0  0  0  0  0  0  0  0
   44.1500   30.4060   45.8920 H   0  0  0  0  0  0  0  0  0  0  0  0
   44.2030   28.0850   46.6390 H   0  0  0  0  0  0  0  0  0  0  0  0
   45.1820   27.6930   45.1340 H   0  0  0  0  0  0  0  0  0  0  0  0
   42.5680   29.2870   45.4170 H   0  0  0  0  0  0  0  0  0  0  0  0
   42.7880   27.7090   44.4700 H   0  0  0  0  0  0  0  0  0  0  0  0
   43.0940   29.4850   42.4880 C   0  0  0  0  0  0  0  0  0  0  0  0
   42.6300   28.3190   41.9860 N   0  0  0  0  0  0  0  0  0  0  0  0
   41.9440   28.2620   40.8090 C   0  0  0  0  0  3  0  0  0  0  0  0
   41.7040   29.3690   40.1010 N   0  0  0  0  0  0  0  0  0  0  0  0
   42.1530   30.5480   40.5750 C   0  0  0  0  0  0  0  0  0  0  0  0
   41.9250   31.7130   39.8720 C   0  0  0  0  0  3  0  0  0  0  0  0
   42.3760   32.9420   40.3350 C   0  0  0  0  0  0  0  0  0  0  0  0
   42.1880   33.8460   39.7710 H   0  0  0  0  0  0  0  0  0  0  0  0
   43.0720   32.9620   41.5400 C   0  0  0  0  0  0  0  0  0  0  0  0
   43.4080   33.9370   41.8670 H   0  0  0  0  0  0  0  0  0  0  0  0
   43.3310   31.8170   42.2880 C   0  0  0  0  0  3  0  0  0  0  0  0
   42.8510   30.6370   41.7630 C   0  0  0  0  0  0  0  0  0  0  0  0
   44.4990   35.5970   45.1270 C   0  0  0  0  0  0  0  0  0  0  0  0
   45.1290   35.5880   43.8570 C   0  0  0  0  0  0  0  0  0  0  0  0
   46.0230   34.6090   43.5690 C   0  0  0  0  0  0  0  0  0  0  0  0
   46.2610   33.6870   44.5330 N   0  0  0  0  0  0  0  0  0  0  0  0
   45.6690   33.7010   45.7190 C   0  0  0  0  0  0  0  0  0  0  0  0
   44.7860   34.6490   46.0310 N   0  0  0  0  0  0  0  0  0  0  0  0
   46.0040   32.6730   46.6660 N   0  0  0  0  0  0  0  0  0  0  0  0
   45.2940   32.4240   47.8650 C   0  0  0  0  0  0  0  0  0  0  0  0
   46.3880   32.0500   48.8480 C   0  0  0  0  0  0  0  0  0  0  0  0
   47.6460   31.9220   48.0420 C   0  0  0  0  0  0  0  0  0  0  0  0
   47.1050   31.7400   46.6270 C   0  0  1  0  0  0  0  0  0  0  0  0
   43.7860   36.3790   45.3530 H   0  0  0  0  0  0  0  0  0  0  0  0
   46.5000   34.5930   42.6210 H   0  0  0  0  0  0  0  0  0  0  0  0
   44.9330   33.4330   48.2390 H   0  0  0  0  0  0  0  0  0  0  0  0
   44.4960   31.7660   47.9830 H   0  0  0  0  0  0  0  0  0  0  0  0
   46.1710   31.0460   49.3110 H   0  0  0  0  0  0  0  0  0  0  0  0
   46.5060   32.7460   49.6770 H   0  0  0  0  0  0  0  0  0  0  0  0
   48.2170   31.0380   48.3620 H   0  0  0  0  0  0  0  0  0  0  0  0
   48.2730   32.8330   48.0950 H   0  0  0  0  0  0  0  0  0  0  0  0
   47.8860   32.0150   45.9170 H   0  0  0  0  0  0  0  0  0  0  0  0
   44.7680   36.6380   42.9440 N   0  0  0  0  0  0  0  0  0  0  0  0
   45.4900   36.9900   42.2560 H   0  0  0  0  0  0  0  0  0  0  0  0
   43.8050   37.0120   42.9970 H   0  0  0  0  0  0  0  0  0  0  0  0
  1 35  1  0  0  0  0
  2  3  2  0  0  0  0
  3  4  1  0  0  0  0
  4  5  1  0  0  0  0
  4  8  1  1  0  0  0
  4  1  1  0  0  0  0
  5  9  1  0  0  0  0
  6 11  1  0  0  0  0
  6  5  1  0  0  0  0
  7  3  1  0  0  0  0
  7  6  1  0  0  0  0
 10  5  1  0  0  0  0
 12  6  1  0  0  0  0
 13  7  1  0  0  0  0
 14 13  1  0  0  0  0
 15 14  2  0  0  0  0
 16 17  2  0  0  0  0
 16 15  1  0  0  0  0
 17 24  1  0  0  0  0
 18 19  2  0  0  0  0
 18 17  1  0  0  0  0
 19 21  1  0  0  0  0
 20 19  1  0  0  0  0
 21 22  1  0  0  0  0
 21 23  2  0  0  0  0
 24 23  1  0  0  0  0
 24 13  2  0  0  0  0
 25 36  1  0  0  0  0
 25 30  1  0  0  0  0
 26 25  2  0  0  0  0
 27 26  1  0  0  0  0
 27 28  2  0  0  0  0
 28 29  1  0  0  0  0
 29 30  2  0  0  0  0
 29 31  1  0  0  0  0
 31 32  1  0  0  0  0
 32 39  1  0  0  0  0
 32 38  1  0  0  0  0
 32 33  1  0  0  0  0
 33 40  1  0  0  0  0
 33 41  1  0  0  0  0
 34 43  1  0  0  0  0
 34 42  1  0  0  0  0
 34 33  1  0  0  0  0
 35 44  1  6  0  0  0
 35 31  1  0  0  0  0
 35 34  1  0  0  0  0
 37 27  1  0  0  0  0
 45 47  1  0  0  0  0
 45 26  1  0  0  0  0
 46 45  1  0  0  0  0
M  END
>  <minimizedAffinity>
-6.07412338

>  <minimizedRMSD>
0.373963267

$$$$
