
 OpenBabel03252502253D

 37 40  0  0  1  0  0  0  0  0999 V2000
   36.8960   30.6200   39.3130 N   0  0  0  0  0  0  0  0  0  0  0  0
   36.8570   29.8140   38.0990 C   0  0  0  0  0  0  0  0  0  0  0  0
   35.3700   29.6100   37.8250 C   0  0  0  0  0  0  0  0  0  0  0  0
   34.7450   28.7990   38.9210 C   0  0  0  0  0  0  0  0  0  0  0  0
   35.2320   29.1160   40.2890 C   0  0  0  0  0  0  0  0  0  0  0  0
   36.0100   30.3790   40.4180 C   0  0  1  0  0  0  0  0  0  0  0  0
   37.2570   28.8260   38.3670 H   0  0  0  0  0  0  0  0  0  0  0  0
   37.3440   30.2970   37.2570 H   0  0  0  0  0  0  0  0  0  0  0  0
   35.3520   28.9600   36.9020 H   0  0  0  0  0  0  0  0  0  0  0  0
   34.8950   30.5740   37.6410 H   0  0  0  0  0  0  0  0  0  0  0  0
   34.8330   27.6970   38.7190 H   0  0  0  0  0  0  0  0  0  0  0  0
   33.6470   28.9990   38.8950 H   0  0  0  0  0  0  0  0  0  0  0  0
   34.4300   29.1040   41.0580 H   0  0  0  0  0  0  0  0  0  0  0  0
   35.9220   28.2860   40.6050 H   0  0  0  0  0  0  0  0  0  0  0  0
   35.2960   31.2340   40.5350 H   0  0  0  0  0  0  0  0  0  0  0  0
   38.4520   33.9320   40.0890 C   0  0  0  0  0  0  0  0  0  0  0  0
   37.4720   32.9370   40.0040 C   0  0  0  0  0  0  0  0  0  0  0  0
   37.8300   31.6880   39.4390 C   0  0  0  0  0  0  0  0  0  0  0  0
   39.1120   31.5340   39.0130 N   0  0  0  0  0  0  0  0  0  0  0  0
   40.0290   32.5330   39.1190 C   0  0  0  0  0  0  0  0  0  0  0  0
   39.6910   33.7220   39.6560 N   0  0  0  0  0  0  0  0  0  0  0  0
   38.0380   34.8240   40.5390 H   0  0  0  0  0  0  0  0  0  0  0  0
   36.4490   33.0290   40.3320 H   0  0  0  0  0  0  0  0  0  0  0  0
   41.0430   32.3900   38.7740 H   0  0  0  0  0  0  0  0  0  0  0  0
   36.7850   30.2910   41.5880 O   0  0  0  0  0  0  0  0  0  0  0  0
   37.2640   29.1300   42.1380 C   0  0  0  0  0  0  0  0  0  0  0  0
   36.6010   28.0050   42.4550 N   0  0  0  0  0  0  0  0  0  0  0  0
   37.2050   26.9460   42.9900 C   0  0  0  0  0  3  0  0  0  0  0  0
   38.5410   26.9600   43.2410 N   0  0  0  0  0  0  0  0  0  0  0  0
   39.2610   28.0500   42.9490 C   0  0  0  0  0  0  0  0  0  0  0  0
   40.6140   28.0650   43.2040 C   0  0  0  0  0  3  0  0  0  0  0  0
   41.3900   29.1630   42.9200 C   0  0  0  0  0  0  0  0  0  0  0  0
   42.4610   29.2680   43.0850 H   0  0  0  0  0  0  0  0  0  0  0  0
   40.7900   30.2560   42.3730 C   0  0  0  0  0  0  0  0  0  0  0  0
   41.3240   31.1600   42.1190 H   0  0  0  0  0  0  0  0  0  0  0  0
   39.4340   30.2300   42.1230 C   0  0  0  0  0  3  0  0  0  0  0  0
   38.6220   29.1430   42.3960 C   0  0  0  0  0  0  0  0  0  0  0  0
  1 18  1  0  0  0  0
  1  6  1  0  0  0  0
  2  7  1  0  0  0  0
  2  1  1  0  0  0  0
  3  2  1  0  0  0  0
  3  4  1  0  0  0  0
  4  5  1  0  0  0  0
  5  6  1  0  0  0  0
  5 14  1  0  0  0  0
  5 13  1  0  0  0  0
  6 15  1  1  0  0  0
  6 25  1  0  0  0  0
  8  2  1  0  0  0  0
  9  3  1  0  0  0  0
 10  3  1  0  0  0  0
 11  4  1  0  0  0  0
 12  4  1  0  0  0  0
 16 22  1  0  0  0  0
 17 16  1  0  0  0  0
 17 23  1  0  0  0  0
 18 17  2  0  0  0  0
 19 20  2  0  0  0  0
 19 18  1  0  0  0  0
 20 21  1  0  0  0  0
 21 16  2  0  0  0  0
 24 20  1  0  0  0  0
 25 26  1  0  0  0  0
 26 37  2  0  0  0  0
 26 27  1  0  0  0  0
 27 28  2  0  0  0  0
 28 29  1  0  0  0  0
 30 31  1  0  0  0  0
 30 29  2  0  0  0  0
 32 33  1  0  0  0  0
 32 31  2  0  0  0  0
 34 32  1  0  0  0  0
 35 34  1  0  0  0  0
 36 34  2  0  0  0  0
 36 37  1  0  0  0  0
 37 30  1  0  0  0  0
M  END
>  <minimizedAffinity>
-6.15416145

$$$$

 OpenBabel03252502253D

 37 40  0  0  1  0  0  0  0  0999 V2000
   37.0130   27.6680   40.2340 N   0  0  0  0  0  0  0  0  0  0  0  0
   37.8900   26.5030   40.2750 C   0  0  0  0  0  0  0  0  0  0  0  0
   37.1500   25.5030   41.1580 C   0  0  0  0  0  0  0  0  0  0  0  0
   37.0370   26.0280   42.5580 C   0  0  0  0  0  0  0  0  0  0  0  0
   36.7590   27.4840   42.6590 C   0  0  0  0  0  0  0  0  0  0  0  0
   36.3210   28.1440   41.3980 C   0  0  1  0  0  0  0  0  0  0  0  0
   38.7840   26.8060   40.8380 H   0  0  0  0  0  0  0  0  0  0  0  0
   38.0810   26.0860   39.2920 H   0  0  0  0  0  0  0  0  0  0  0  0
   37.8500   24.6180   41.2080 H   0  0  0  0  0  0  0  0  0  0  0  0
   36.2020   25.2330   40.6920 H   0  0  0  0  0  0  0  0  0  0  0  0
   37.9370   25.7560   43.1740 H   0  0  0  0  0  0  0  0  0  0  0  0
   36.1920   25.4850   43.0480 H   0  0  0  0  0  0  0  0  0  0  0  0
   36.0450   27.7430   43.4710 H   0  0  0  0  0  0  0  0  0  0  0  0
   37.7140   27.9920   42.9660 H   0  0  0  0  0  0  0  0  0  0  0  0
   35.2160   27.9990   41.2790 H   0  0  0  0  0  0  0  0  0  0  0  0
   35.4250   29.2910   37.2610 C   0  0  0  0  0  0  0  0  0  0  0  0
   35.5270   28.5830   38.4630 C   0  0  0  0  0  0  0  0  0  0  0  0
   36.8170   28.3780   39.0140 C   0  0  0  0  0  0  0  0  0  0  0  0
   37.8790   28.8870   38.3360 N   0  0  0  0  0  0  0  0  0  0  0  0
   37.7260   29.5700   37.1690 C   0  0  0  0  0  0  0  0  0  0  0  0
   36.5010   29.7660   36.6430 N   0  0  0  0  0  0  0  0  0  0  0  0
   34.3880   29.3700   36.9630 H   0  0  0  0  0  0  0  0  0  0  0  0
   34.7050   28.1680   39.0240 H   0  0  0  0  0  0  0  0  0  0  0  0
   38.5850   29.9660   36.6450 H   0  0  0  0  0  0  0  0  0  0  0  0
   36.5720   29.5230   41.5230 O   0  0  0  0  0  0  0  0  0  0  0  0
   37.8010   30.0900   41.7410 C   0  0  0  0  0  0  0  0  0  0  0  0
   38.8210   29.6400   42.4910 N   0  0  0  0  0  0  0  0  0  0  0  0
   39.9680   30.3060   42.6110 C   0  0  0  0  0  3  0  0  0  0  0  0
   40.1560   31.4880   41.9680 N   0  0  0  0  0  0  0  0  0  0  0  0
   39.1790   31.9940   41.2050 C   0  0  0  0  0  0  0  0  0  0  0  0
   39.3680   33.1920   40.5540 C   0  0  0  0  0  3  0  0  0  0  0  0
   38.3920   33.7460   39.7610 C   0  0  0  0  0  0  0  0  0  0  0  0
   38.4500   34.6830   39.2100 H   0  0  0  0  0  0  0  0  0  0  0  0
   37.2120   33.0790   39.6260 C   0  0  0  0  0  0  0  0  0  0  0  0
   36.3920   33.4410   39.0230 H   0  0  0  0  0  0  0  0  0  0  0  0
   37.0330   31.8800   40.2840 C   0  0  0  0  0  3  0  0  0  0  0  0
   37.9940   31.2930   41.0890 C   0  0  0  0  0  0  0  0  0  0  0  0
  1  2  1  0  0  0  0
  1  6  1  0  0  0  0
  2  7  1  0  0  0  0
  2  3  1  0  0  0  0
  3  9  1  0  0  0  0
  3  4  1  0  0  0  0
  4  5  1  0  0  0  0
  4 12  1  0  0  0  0
  4 11  1  0  0  0  0
  5 14  1  0  0  0  0
  5 13  1  0  0  0  0
  6 15  1  6  0  0  0
  6 25  1  0  0  0  0
  6  5  1  0  0  0  0
  8  2  1  0  0  0  0
 10  3  1  0  0  0  0
 16 17  1  0  0  0  0
 17 18  2  0  0  0  0
 17 23  1  0  0  0  0
 18  1  1  0  0  0  0
 19 18  1  0  0  0  0
 20 19  2  0  0  0  0
 21 20  1  0  0  0  0
 21 16  2  0  0  0  0
 22 16  1  0  0  0  0
 24 20  1  0  0  0  0
 25 26  1  0  0  0  0
 26 27  1  0  0  0  0
 27 28  2  0  0  0  0
 29 28  1  0  0  0  0
 30 29  2  0  0  0  0
 31 30  1  0  0  0  0
 32 31  2  0  0  0  0
 33 32  1  0  0  0  0
 34 32  1  0  0  0  0
 34 36  2  0  0  0  0
 35 34  1  0  0  0  0
 36 37  1  0  0  0  0
 37 30  1  0  0  0  0
 37 26  2  0  0  0  0
M  END
>  <minimizedAffinity>
-5.76944017

$$$$

 OpenBabel03252502253D

 37 40  0  0  1  0  0  0  0  0999 V2000
   36.9930   25.6950   40.8990 N   0  0  0  0  0  0  0  0  0  0  0  0
   36.5770   24.4210   41.4720 C   0  0  0  0  0  0  0  0  0  0  0  0
   37.0230   23.3810   40.4480 C   0  0  0  0  0  0  0  0  0  0  0  0
   36.2740   23.5600   39.1620 C   0  0  0  0  0  0  0  0  0  0  0  0
   36.0470   24.9730   38.7630 C   0  0  0  0  0  0  0  0  0  0  0  0
   36.8500   25.9870   39.5000 C   0  0  1  0  0  0  0  0  0  0  0  0
   35.4780   24.4150   41.4540 H   0  0  0  0  0  0  0  0  0  0  0  0
   37.0250   24.2290   42.4420 H   0  0  0  0  0  0  0  0  0  0  0  0
   36.6690   22.4020   40.8870 H   0  0  0  0  0  0  0  0  0  0  0  0
   38.1090   23.4030   40.3520 H   0  0  0  0  0  0  0  0  0  0  0  0
   35.3030   22.9930   39.1690 H   0  0  0  0  0  0  0  0  0  0  0  0
   36.8750   23.0710   38.3580 H   0  0  0  0  0  0  0  0  0  0  0  0
   36.1560   25.1480   37.6710 H   0  0  0  0  0  0  0  0  0  0  0  0
   34.9680   25.2150   38.9680 H   0  0  0  0  0  0  0  0  0  0  0  0
   37.8570   26.0720   39.0170 H   0  0  0  0  0  0  0  0  0  0  0  0
   37.5310   28.1920   43.6320 C   0  0  0  0  0  0  0  0  0  0  0  0
   36.8980   27.2010   42.8750 C   0  0  0  0  0  0  0  0  0  0  0  0
   37.5640   26.7050   41.7270 C   0  0  0  0  0  0  0  0  0  0  0  0
   38.7850   27.2260   41.4330 N   0  0  0  0  0  0  0  0  0  0  0  0
   39.3580   28.1900   42.2020 C   0  0  0  0  0  0  0  0  0  0  0  0
   38.7270   28.6640   43.2950 N   0  0  0  0  0  0  0  0  0  0  0  0
   36.9090   28.4720   44.4720 H   0  0  0  0  0  0  0  0  0  0  0  0
   35.9320   26.7680   43.0820 H   0  0  0  0  0  0  0  0  0  0  0  0
   40.3300   28.5920   41.9510 H   0  0  0  0  0  0  0  0  0  0  0  0
   36.1980   27.2270   39.3770 O   0  0  0  0  0  0  0  0  0  0  0  0
   36.5110   28.2040   38.4670 C   0  0  0  0  0  0  0  0  0  0  0  0
   36.7140   28.0950   37.1430 N   0  0  0  0  0  0  0  0  0  0  0  0
   37.0160   29.1420   36.3780 C   0  0  0  0  0  3  0  0  0  0  0  0
   37.1330   30.3850   36.9150 N   0  0  0  0  0  0  0  0  0  0  0  0
   36.9440   30.5630   38.2280 C   0  0  0  0  0  0  0  0  0  0  0  0
   37.0630   31.8220   38.7730 C   0  0  0  0  0  3  0  0  0  0  0  0
   36.8770   32.0490   40.1150 C   0  0  0  0  0  0  0  0  0  0  0  0
   36.9500   33.0030   40.6340 H   0  0  0  0  0  0  0  0  0  0  0  0
   36.5680   30.9900   40.9140 C   0  0  0  0  0  0  0  0  0  0  0  0
   36.4050   31.0780   41.9780 H   0  0  0  0  0  0  0  0  0  0  0  0
   36.4520   29.7330   40.3580 C   0  0  0  0  0  3  0  0  0  0  0  0
   36.6320   29.4680   39.0110 C   0  0  0  0  0  0  0  0  0  0  0  0
  1  2  1  0  0  0  0
  1 18  1  0  0  0  0
  2  8  1  0  0  0  0
  3  9  1  0  0  0  0
  3  2  1  0  0  0  0
  4 11  1  0  0  0  0
  4  3  1  0  0  0  0
  5 14  1  0  0  0  0
  5  4  1  0  0  0  0
  5  6  1  0  0  0  0
  6 15  1  6  0  0  0
  6  1  1  0  0  0  0
  7  2  1  0  0  0  0
 10  3  1  0  0  0  0
 12  4  1  0  0  0  0
 13  5  1  0  0  0  0
 16 22  1  0  0  0  0
 17 23  1  0  0  0  0
 17 16  2  0  0  0  0
 18 17  1  0  0  0  0
 19 18  2  0  0  0  0
 19 20  1  0  0  0  0
 20 21  2  0  0  0  0
 21 16  1  0  0  0  0
 24 20  1  0  0  0  0
 25  6  1  0  0  0  0
 26 37  1  0  0  0  0
 26 25  1  0  0  0  0
 27 26  2  0  0  0  0
 28 29  2  0  0  0  0
 28 27  1  0  0  0  0
 29 30  1  0  0  0  0
 30 31  2  0  0  0  0
 30 37  1  0  0  0  0
 31 32  1  0  0  0  0
 32 33  1  0  0  0  0
 32 34  2  0  0  0  0
 34 35  1  0  0  0  0
 36 34  1  0  0  0  0
 37 36  2  0  0  0  0
M  END
>  <minimizedAffinity>
-5.6335535

$$$$

 OpenBabel03252502253D

 37 40  0  0  1  0  0  0  0  0999 V2000
   36.8250   28.2390   40.9490 N   0  0  0  0  0  0  0  0  0  0  0  0
   36.9460   26.9710   41.6590 C   0  0  0  0  0  0  0  0  0  0  0  0
   36.6000   27.3110   43.1060 C   0  0  0  0  0  0  0  0  0  0  0  0
   37.6230   28.2450   43.6800 C   0  0  0  0  0  0  0  0  0  0  0  0
   38.1060   29.2940   42.7450 C   0  0  0  0  0  0  0  0  0  0  0  0
   37.2980   29.4750   41.5070 C   0  0  1  0  0  0  0  0  0  0  0  0
   38.0140   26.7100   41.6530 H   0  0  0  0  0  0  0  0  0  0  0  0
   36.2810   26.2060   41.2700 H   0  0  0  0  0  0  0  0  0  0  0  0
   36.7270   26.3300   43.6510 H   0  0  0  0  0  0  0  0  0  0  0  0
   35.5720   27.6680   43.1630 H   0  0  0  0  0  0  0  0  0  0  0  0
   38.4900   27.6840   44.1220 H   0  0  0  0  0  0  0  0  0  0  0  0
   37.1510   28.7570   44.5520 H   0  0  0  0  0  0  0  0  0  0  0  0
   38.2550   30.2840   43.2290 H   0  0  0  0  0  0  0  0  0  0  0  0
   39.1380   29.0000   42.4080 H   0  0  0  0  0  0  0  0  0  0  0  0
   36.4370   30.1530   41.7330 H   0  0  0  0  0  0  0  0  0  0  0  0
   34.4530   28.9170   38.1370 C   0  0  0  0  0  0  0  0  0  0  0  0
   34.9720   28.9160   39.4360 C   0  0  0  0  0  0  0  0  0  0  0  0
   36.2220   28.2870   39.6590 C   0  0  0  0  0  0  0  0  0  0  0  0
   36.8420   27.7210   38.5890 N   0  0  0  0  0  0  0  0  0  0  0  0
   36.2940   27.7500   37.3440 C   0  0  0  0  0  0  0  0  0  0  0  0
   35.1060   28.3480   37.1300 N   0  0  0  0  0  0  0  0  0  0  0  0
   33.5000   29.4290   38.1180 H   0  0  0  0  0  0  0  0  0  0  0  0
   34.5050   29.3550   40.3040 H   0  0  0  0  0  0  0  0  0  0  0  0
   36.8040   27.2940   36.5070 H   0  0  0  0  0  0  0  0  0  0  0  0
   38.1130   30.1040   40.5480 O   0  0  0  0  0  0  0  0  0  0  0  0
   38.1510   31.4510   40.2980 C   0  0  0  0  0  0  0  0  0  0  0  0
   37.1590   32.2690   39.9070 N   0  0  0  0  0  0  0  0  0  0  0  0
   37.3460   33.5710   39.7000 C   0  0  0  0  0  3  0  0  0  0  0  0
   38.5700   34.1350   39.8800 N   0  0  0  0  0  0  0  0  0  0  0  0
   39.6020   33.3760   40.2700 C   0  0  0  0  0  0  0  0  0  0  0  0
   40.8420   33.9470   40.4520 C   0  0  0  0  0  3  0  0  0  0  0  0
   41.9270   33.2040   40.8500 C   0  0  0  0  0  0  0  0  0  0  0  0
   42.9400   33.5640   41.0200 H   0  0  0  0  0  0  0  0  0  0  0  0
   41.7550   31.8710   41.0670 C   0  0  0  0  0  0  0  0  0  0  0  0
   42.5530   31.2130   41.3810 H   0  0  0  0  0  0  0  0  0  0  0  0
   40.5090   31.3090   40.8800 C   0  0  0  0  0  3  0  0  0  0  0  0
   39.3940   32.0260   40.4800 C   0  0  0  0  0  0  0  0  0  0  0  0
  1  6  1  0  0  0  0
  1  2  1  0  0  0  0
  2  3  1  0  0  0  0
  3 10  1  0  0  0  0
  3  9  1  0  0  0  0
  3  4  1  0  0  0  0
  4 11  1  0  0  0  0
  4 12  1  0  0  0  0
  5 13  1  0  0  0  0
  5  4  1  0  0  0  0
  6 15  1  1  0  0  0
  6  5  1  0  0  0  0
  7  2  1  0  0  0  0
  8  2  1  0  0  0  0
 14  5  1  0  0  0  0
 16 17  1  0  0  0  0
 17 18  2  0  0  0  0
 17 23  1  0  0  0  0
 18  1  1  0  0  0  0
 19 18  1  0  0  0  0
 20 19  2  0  0  0  0
 21 20  1  0  0  0  0
 21 16  2  0  0  0  0
 22 16  1  0  0  0  0
 24 20  1  0  0  0  0
 25  6  1  0  0  0  0
 26 37  1  0  0  0  0
 26 25  1  0  0  0  0
 27 26  2  0  0  0  0
 28 29  2  0  0  0  0
 28 27  1  0  0  0  0
 29 30  1  0  0  0  0
 30 31  2  0  0  0  0
 30 37  1  0  0  0  0
 31 32  1  0  0  0  0
 32 33  1  0  0  0  0
 32 34  2  0  0  0  0
 34 35  1  0  0  0  0
 36 34  1  0  0  0  0
 37 36  2  0  0  0  0
M  END
>  <minimizedAffinity>
-5.56614685

$$$$

 OpenBabel03252502253D

 37 40  0  0  1  0  0  0  0  0999 V2000
   36.7430   29.8360   38.0440 N   0  0  0  0  0  0  0  0  0  0  0  0
   37.3050   29.5020   36.7410 C   0  0  0  0  0  0  0  0  0  0  0  0
   36.1430   29.6840   35.7680 C   0  0  0  0  0  0  0  0  0  0  0  0
   35.0610   28.6880   36.0580 C   0  0  0  0  0  0  0  0  0  0  0  0
   34.8140   28.4350   37.5010 C   0  0  0  0  0  0  0  0  0  0  0  0
   35.4290   29.4120   38.4400 C   0  0  1  0  0  0  0  0  0  0  0  0
   37.5210   28.4240   36.7610 H   0  0  0  0  0  0  0  0  0  0  0  0
   38.1420   30.1370   36.4680 H   0  0  0  0  0  0  0  0  0  0  0  0
   36.5800   29.3940   34.7680 H   0  0  0  0  0  0  0  0  0  0  0  0
   35.8200   30.7250   35.7730 H   0  0  0  0  0  0  0  0  0  0  0  0
   35.2350   27.7200   35.5130 H   0  0  0  0  0  0  0  0  0  0  0  0
   34.1160   29.0880   35.6150 H   0  0  0  0  0  0  0  0  0  0  0  0
   33.7370   28.3180   37.7520 H   0  0  0  0  0  0  0  0  0  0  0  0
   35.2590   27.4330   37.7510 H   0  0  0  0  0  0  0  0  0  0  0  0
   34.7490   30.2970   38.5370 H   0  0  0  0  0  0  0  0  0  0  0  0
   37.8050   32.5040   40.4410 C   0  0  0  0  0  0  0  0  0  0  0  0
   36.9990   31.8110   39.5320 C   0  0  0  0  0  0  0  0  0  0  0  0
   37.4960   30.6060   38.9770 C   0  0  0  0  0  0  0  0  0  0  0  0
   38.7330   30.1960   39.3660 N   0  0  0  0  0  0  0  0  0  0  0  0
   39.4770   30.9070   40.2550 C   0  0  0  0  0  0  0  0  0  0  0  0
   39.0070   32.0540   40.7850 N   0  0  0  0  0  0  0  0  0  0  0  0
   37.2990   33.3980   40.7800 H   0  0  0  0  0  0  0  0  0  0  0  0
   36.0160   32.1090   39.2040 H   0  0  0  0  0  0  0  0  0  0  0  0
   40.4590   30.5640   40.5510 H   0  0  0  0  0  0  0  0  0  0  0  0
   35.5300   28.7960   39.7000 O   0  0  0  0  0  0  0  0  0  0  0  0
   36.2050   27.6320   39.9640 C   0  0  0  0  0  0  0  0  0  0  0  0
   36.3050   26.5220   39.2130 N   0  0  0  0  0  0  0  0  0  0  0  0
   37.0020   25.4560   39.6030 C   0  0  0  0  0  3  0  0  0  0  0  0
   37.6520   25.4490   40.7960 N   0  0  0  0  0  0  0  0  0  0  0  0
   37.5930   26.5230   41.5930 C   0  0  0  0  0  0  0  0  0  0  0  0
   38.2510   26.5160   42.8020 C   0  0  0  0  0  3  0  0  0  0  0  0
   38.2160   27.5970   43.6500 C   0  0  0  0  0  0  0  0  0  0  0  0
   38.7020   27.6840   44.6200 H   0  0  0  0  0  0  0  0  0  0  0  0
   37.5080   28.6960   43.2690 C   0  0  0  0  0  0  0  0  0  0  0  0
   37.4280   29.5880   43.8720 H   0  0  0  0  0  0  0  0  0  0  0  0
   36.8520   28.6920   42.0550 C   0  0  0  0  0  3  0  0  0  0  0  0
   36.8660   27.6220   41.1770 C   0  0  0  0  0  0  0  0  0  0  0  0
  1  6  1  0  0  0  0
  1 18  1  0  0  0  0
  2  7  1  0  0  0  0
  2  1  1  0  0  0  0
  3 10  1  0  0  0  0
  3  4  1  0  0  0  0
  3  2  1  0  0  0  0
  4  5  1  0  0  0  0
  5 14  1  0  0  0  0
  5 13  1  0  0  0  0
  5  6  1  0  0  0  0
  6 15  1  1  0  0  0
  6 25  1  0  0  0  0
  8  2  1  0  0  0  0
  9  3  1  0  0  0  0
 11  4  1  0  0  0  0
 12  4  1  0  0  0  0
 16 22  1  0  0  0  0
 16 21  1  0  0  0  0
 17 16  2  0  0  0  0
 18 19  2  0  0  0  0
 18 17  1  0  0  0  0
 19 20  1  0  0  0  0
 20 24  1  0  0  0  0
 20 21  2  0  0  0  0
 23 17  1  0  0  0  0
 25 26  1  0  0  0  0
 26 37  1  0  0  0  0
 27 28  1  0  0  0  0
 27 26  2  0  0  0  0
 28 29  2  0  0  0  0
 29 30  1  0  0  0  0
 30 31  1  0  0  0  0
 31 32  2  0  0  0  0
 32 33  1  0  0  0  0
 34 32  1  0  0  0  0
 34 35  1  0  0  0  0
 36 34  2  0  0  0  0
 37 30  2  0  0  0  0
 37 36  1  0  0  0  0
M  END
>  <minimizedAffinity>
-5.42827511

$$$$

 OpenBabel03252502253D

 37 40  0  0  1  0  0  0  0  0999 V2000
   39.8010   32.4650   40.2930 N   0  0  0  0  0  0  0  0  0  0  0  0
   39.7930   33.8770   39.9330 C   0  0  0  0  0  0  0  0  0  0  0  0
   41.2020   34.1430   39.4100 C   0  0  0  0  0  0  0  0  0  0  0  0
   42.2070   33.9670   40.5080 C   0  0  0  0  0  0  0  0  0  0  0  0
   41.9370   32.8290   41.4260 C   0  0  0  0  0  0  0  0  0  0  0  0
   40.9180   31.8510   40.9560 C   0  0  1  0  0  0  0  0  0  0  0  0
   39.7050   34.4390   40.8740 H   0  0  0  0  0  0  0  0  0  0  0  0
   39.0480   34.1160   39.1800 H   0  0  0  0  0  0  0  0  0  0  0  0
   41.1940   35.2450   39.1630 H   0  0  0  0  0  0  0  0  0  0  0  0
   41.3830   33.5390   38.5210 H   0  0  0  0  0  0  0  0  0  0  0  0
   42.3510   34.9160   41.0910 H   0  0  0  0  0  0  0  0  0  0  0  0
   43.1970   33.7870   40.0240 H   0  0  0  0  0  0  0  0  0  0  0  0
   42.8540   32.2790   41.7310 H   0  0  0  0  0  0  0  0  0  0  0  0
   41.5450   33.2560   42.3890 H   0  0  0  0  0  0  0  0  0  0  0  0
   41.4130   31.1110   40.2760 H   0  0  0  0  0  0  0  0  0  0  0  0
   36.3300   31.0800   40.1120 C   0  0  0  0  0  0  0  0  0  0  0  0
   37.3740   31.9460   40.4530 C   0  0  0  0  0  0  0  0  0  0  0  0
   38.6790   31.6390   39.9920 C   0  0  0  0  0  0  0  0  0  0  0  0
   38.8340   30.5160   39.2420 N   0  0  0  0  0  0  0  0  0  0  0  0
   37.7840   29.7060   38.9360 C   0  0  0  0  0  0  0  0  0  0  0  0
   36.5430   29.9960   39.3730 N   0  0  0  0  0  0  0  0  0  0  0  0
   35.3990   31.4390   40.5290 H   0  0  0  0  0  0  0  0  0  0  0  0
   37.2840   32.8420   41.0460 H   0  0  0  0  0  0  0  0  0  0  0  0
   37.9290   28.8170   38.3380 H   0  0  0  0  0  0  0  0  0  0  0  0
   40.4330   31.1590   42.0800 O   0  0  0  0  0  0  0  0  0  0  0  0
   40.8170   29.9000   42.4650 C   0  0  0  0  0  0  0  0  0  0  0  0
   42.0480   29.3650   42.5040 N   0  0  0  0  0  0  0  0  0  0  0  0
   42.2720   28.1140   42.9040 C   0  0  0  0  0  3  0  0  0  0  0  0
   41.2440   27.3160   43.2970 N   0  0  0  0  0  0  0  0  0  0  0  0
   39.9920   27.7880   43.2820 C   0  0  0  0  0  0  0  0  0  0  0  0
   38.9500   26.9790   43.6800 C   0  0  0  0  0  3  0  0  0  0  0  0
   37.6500   27.4240   43.6800 C   0  0  0  0  0  0  0  0  0  0  0  0
   36.7660   26.8620   43.9750 H   0  0  0  0  0  0  0  0  0  0  0  0
   37.4020   28.7000   43.2730 C   0  0  0  0  0  0  0  0  0  0  0  0
   36.4120   29.1310   43.2420 H   0  0  0  0  0  0  0  0  0  0  0  0
   38.4530   29.5010   42.8770 C   0  0  0  0  0  3  0  0  0  0  0  0
   39.7740   29.0870   42.8640 C   0  0  0  0  0  0  0  0  0  0  0  0
  1  6  1  0  0  0  0
  2  1  1  0  0  0  0
  2  7  1  0  0  0  0
  3  2  1  0  0  0  0
  3  4  1  0  0  0  0
  4 11  1  0  0  0  0
  4  5  1  0  0  0  0
  5 13  1  0  0  0  0
  5 14  1  0  0  0  0
  6 15  1  6  0  0  0
  6  5  1  0  0  0  0
  6 25  1  0  0  0  0
  8  2  1  0  0  0  0
  9  3  1  0  0  0  0
 10  3  1  0  0  0  0
 12  4  1  0  0  0  0
 16 17  1  0  0  0  0
 16 22  1  0  0  0  0
 17 23  1  0  0  0  0
 18  1  1  0  0  0  0
 18 17  2  0  0  0  0
 19 18  1  0  0  0  0
 20 19  2  0  0  0  0
 20 21  1  0  0  0  0
 21 16  2  0  0  0  0
 24 20  1  0  0  0  0
 25 26  1  0  0  0  0
 26 27  2  0  0  0  0
 26 37  1  0  0  0  0
 27 28  1  0  0  0  0
 28 29  2  0  0  0  0
 30 29  1  0  0  0  0
 30 31  1  0  0  0  0
 31 32  2  0  0  0  0
 32 33  1  0  0  0  0
 34 32  1  0  0  0  0
 35 34  1  0  0  0  0
 36 34  2  0  0  0  0
 37 36  1  0  0  0  0
 37 30  2  0  0  0  0
M  END
>  <minimizedAffinity>
-5.3961668

$$$$

 OpenBabel03252502253D

 37 40  0  0  1  0  0  0  0  0999 V2000
   36.8380   28.8850   40.1240 N   0  0  0  0  0  0  0  0  0  0  0  0
   35.4510   29.3290   40.0600 C   0  0  0  0  0  0  0  0  0  0  0  0
   34.9780   28.8990   38.6740 C   0  0  0  0  0  0  0  0  0  0  0  0
   35.7340   29.6390   37.6130 C   0  0  0  0  0  0  0  0  0  0  0  0
   37.1790   29.8370   37.8970 C   0  0  0  0  0  0  0  0  0  0  0  0
   37.7340   29.0170   39.0090 C   0  0  1  0  0  0  0  0  0  0  0  0
   35.4740   30.4280   40.0470 H   0  0  0  0  0  0  0  0  0  0  0  0
   34.8320   28.8880   40.8350 H   0  0  0  0  0  0  0  0  0  0  0  0
   33.9140   29.2740   38.6240 H   0  0  0  0  0  0  0  0  0  0  0  0
   35.0200   27.8120   38.5930 H   0  0  0  0  0  0  0  0  0  0  0  0
   35.2440   30.6200   37.3670 H   0  0  0  0  0  0  0  0  0  0  0  0
   35.6500   29.0440   36.6710 H   0  0  0  0  0  0  0  0  0  0  0  0
   37.8260   29.7190   37.0010 H   0  0  0  0  0  0  0  0  0  0  0  0
   37.3220   30.9120   38.1950 H   0  0  0  0  0  0  0  0  0  0  0  0
   38.0080   28.0070   38.6110 H   0  0  0  0  0  0  0  0  0  0  0  0
   37.8930   28.3430   43.6710 C   0  0  0  0  0  0  0  0  0  0  0  0
   37.3700   28.9950   42.5500 C   0  0  0  0  0  0  0  0  0  0  0  0
   37.3520   28.2980   41.3160 C   0  0  0  0  0  0  0  0  0  0  0  0
   37.8460   27.0310   41.3000 N   0  0  0  0  0  0  0  0  0  0  0  0
   38.3440   26.4410   42.4200 C   0  0  0  0  0  0  0  0  0  0  0  0
   38.3620   27.1020   43.5950 N   0  0  0  0  0  0  0  0  0  0  0  0
   37.8420   28.9910   44.5360 H   0  0  0  0  0  0  0  0  0  0  0  0
   36.9720   29.9970   42.5300 H   0  0  0  0  0  0  0  0  0  0  0  0
   38.7330   25.4330   42.3870 H   0  0  0  0  0  0  0  0  0  0  0  0
   38.9080   29.6440   39.4630 O   0  0  0  0  0  0  0  0  0  0  0  0
   39.0680   30.9930   39.6470 C   0  0  0  0  0  0  0  0  0  0  0  0
   38.4080   31.8200   40.4750 N   0  0  0  0  0  0  0  0  0  0  0  0
   38.6740   33.1230   40.5470 C   0  0  0  0  0  3  0  0  0  0  0  0
   39.6430   33.6780   39.7710 N   0  0  0  0  0  0  0  0  0  0  0  0
   40.3390   32.9100   38.9240 C   0  0  0  0  0  0  0  0  0  0  0  0
   41.3200   33.4720   38.1380 C   0  0  0  0  0  3  0  0  0  0  0  0
   42.0570   32.7200   37.2560 C   0  0  0  0  0  0  0  0  0  0  0  0
   42.8490   33.0730   36.5970 H   0  0  0  0  0  0  0  0  0  0  0  0
   41.7990   31.3860   37.1690 C   0  0  0  0  0  0  0  0  0  0  0  0
   42.3310   30.7210   36.5030 H   0  0  0  0  0  0  0  0  0  0  0  0
   40.8140   30.8330   37.9600 C   0  0  0  0  0  3  0  0  0  0  0  0
   40.0520   31.5600   38.8590 C   0  0  0  0  0  0  0  0  0  0  0  0
  1 18  1  0  0  0  0
  2  1  1  0  0  0  0
  2  8  1  0  0  0  0
  3  2  1  0  0  0  0
  4  5  1  0  0  0  0
  4  3  1  0  0  0  0
  5 14  1  0  0  0  0
  5  6  1  0  0  0  0
  6 15  1  6  0  0  0
  6 25  1  0  0  0  0
  6  1  1  0  0  0  0
  7  2  1  0  0  0  0
  9  3  1  0  0  0  0
 10  3  1  0  0  0  0
 11  4  1  0  0  0  0
 12  4  1  0  0  0  0
 13  5  1  0  0  0  0
 16 22  1  0  0  0  0
 17 16  2  0  0  0  0
 18 17  1  0  0  0  0
 19 18  2  0  0  0  0
 19 20  1  0  0  0  0
 20 21  2  0  0  0  0
 21 16  1  0  0  0  0
 23 17  1  0  0  0  0
 24 20  1  0  0  0  0
 25 26  1  0  0  0  0
 26 27  1  0  0  0  0
 27 28  2  0  0  0  0
 29 28  1  0  0  0  0
 30 29  2  0  0  0  0
 31 30  1  0  0  0  0
 32 31  2  0  0  0  0
 33 32  1  0  0  0  0
 34 32  1  0  0  0  0
 34 36  2  0  0  0  0
 35 34  1  0  0  0  0
 36 37  1  0  0  0  0
 37 30  1  0  0  0  0
 37 26  2  0  0  0  0
M  END
>  <minimizedAffinity>
-5.34406376

$$$$

 OpenBabel03252502253D

 37 40  0  0  1  0  0  0  0  0999 V2000
   36.5780   28.1430   41.0490 N   0  0  0  0  0  0  0  0  0  0  0  0
   37.0680   26.8880   41.6030 C   0  0  0  0  0  0  0  0  0  0  0  0
   36.8350   27.0200   43.1060 C   0  0  0  0  0  0  0  0  0  0  0  0
   37.6820   28.1210   43.6700 C   0  0  0  0  0  0  0  0  0  0  0  0
   37.7970   29.3260   42.8080 C   0  0  0  0  0  0  0  0  0  0  0  0
   36.8240   29.4080   41.6840 C   0  0  1  0  0  0  0  0  0  0  0  0
   38.1590   26.8890   41.4620 H   0  0  0  0  0  0  0  0  0  0  0  0
   36.5510   26.0210   41.2050 H   0  0  0  0  0  0  0  0  0  0  0  0
   37.2460   26.0570   43.5280 H   0  0  0  0  0  0  0  0  0  0  0  0
   35.7670   27.1170   43.3040 H   0  0  0  0  0  0  0  0  0  0  0  0
   38.7020   27.7470   43.9610 H   0  0  0  0  0  0  0  0  0  0  0  0
   37.2170   28.4350   44.6350 H   0  0  0  0  0  0  0  0  0  0  0  0
   37.7760   30.2800   43.3770 H   0  0  0  0  0  0  0  0  0  0  0  0
   38.8200   29.3120   42.3400 H   0  0  0  0  0  0  0  0  0  0  0  0
   35.8650   29.8420   42.0670 H   0  0  0  0  0  0  0  0  0  0  0  0
   35.4180   27.4530   37.5600 C   0  0  0  0  0  0  0  0  0  0  0  0
   36.2140   27.3880   38.7080 C   0  0  0  0  0  0  0  0  0  0  0  0
   35.8260   28.1500   39.8380 C   0  0  0  0  0  0  0  0  0  0  0  0
   34.6980   28.9020   39.7340 N   0  0  0  0  0  0  0  0  0  0  0  0
   33.9570   28.9300   38.5930 C   0  0  0  0  0  0  0  0  0  0  0  0
   34.3230   28.2060   37.5170 N   0  0  0  0  0  0  0  0  0  0  0  0
   35.8320   26.8230   36.7840 H   0  0  0  0  0  0  0  0  0  0  0  0
   37.1120   26.8030   38.8220 H   0  0  0  0  0  0  0  0  0  0  0  0
   33.0630   29.5350   38.5300 H   0  0  0  0  0  0  0  0  0  0  0  0
   37.3510   30.2860   40.7200 O   0  0  0  0  0  0  0  0  0  0  0  0
   38.6570   30.3210   40.3060 C   0  0  0  0  0  0  0  0  0  0  0  0
   39.4500   29.3080   39.9180 N   0  0  0  0  0  0  0  0  0  0  0  0
   40.7130   29.4940   39.5390 C   0  0  0  0  0  3  0  0  0  0  0  0
   41.2600   30.7390   39.5280 N   0  0  0  0  0  0  0  0  0  0  0  0
   40.5240   31.7920   39.9030 C   0  0  0  0  0  0  0  0  0  0  0  0
   41.0780   33.0530   39.8940 C   0  0  0  0  0  3  0  0  0  0  0  0
   40.3570   34.1600   40.2720 C   0  0  0  0  0  0  0  0  0  0  0  0
   40.7070   35.1910   40.2970 H   0  0  0  0  0  0  0  0  0  0  0  0
   39.0640   33.9900   40.6630 C   0  0  0  0  0  0  0  0  0  0  0  0
   38.4270   34.8050   40.9750 H   0  0  0  0  0  0  0  0  0  0  0  0
   38.5200   32.7220   40.6690 C   0  0  0  0  0  3  0  0  0  0  0  0
   39.2150   31.5850   40.2960 C   0  0  0  0  0  0  0  0  0  0  0  0
  1  2  1  0  0  0  0
  1  6  1  0  0  0  0
  2  3  1  0  0  0  0
  3 10  1  0  0  0  0
  3  9  1  0  0  0  0
  3  4  1  0  0  0  0
  4 11  1  0  0  0  0
  4 12  1  0  0  0  0
  5 13  1  0  0  0  0
  5  4  1  0  0  0  0
  6 15  1  1  0  0  0
  6  5  1  0  0  0  0
  7  2  1  0  0  0  0
  8  2  1  0  0  0  0
 14  5  1  0  0  0  0
 16 17  1  0  0  0  0
 17 23  1  0  0  0  0
 17 18  2  0  0  0  0
 18  1  1  0  0  0  0
 19 18  1  0  0  0  0
 20 19  2  0  0  0  0
 21 16  2  0  0  0  0
 21 20  1  0  0  0  0
 22 16  1  0  0  0  0
 24 20  1  0  0  0  0
 25  6  1  0  0  0  0
 26 25  1  0  0  0  0
 27 26  2  0  0  0  0
 28 27  1  0  0  0  0
 29 28  2  0  0  0  0
 29 30  1  0  0  0  0
 30 37  1  0  0  0  0
 31 30  2  0  0  0  0
 31 32  1  0  0  0  0
 32 33  1  0  0  0  0
 32 34  2  0  0  0  0
 34 36  1  0  0  0  0
 34 35  1  0  0  0  0
 37 26  1  0  0  0  0
 37 36  2  0  0  0  0
M  END
>  <minimizedAffinity>
-5.32463217

$$$$

 OpenBabel03252502253D

 37 40  0  0  1  0  0  0  0  0999 V2000
   37.9490   30.1050   40.6680 N   0  0  0  0  0  0  0  0  0  0  0  0
   38.5820   31.4180   40.6880 C   0  0  0  0  0  0  0  0  0  0  0  0
   37.4740   32.3800   40.2660 C   0  0  0  0  0  0  0  0  0  0  0  0
   37.0560   32.1050   38.8530 C   0  0  0  0  0  0  0  0  0  0  0  0
   36.9950   30.6660   38.4870 C   0  0  0  0  0  0  0  0  0  0  0  0
   37.0400   29.7100   39.6280 C   0  0  1  0  0  0  0  0  0  0  0  0
   39.3170   31.4220   39.8700 H   0  0  0  0  0  0  0  0  0  0  0  0
   38.9740   31.6820   41.6650 H   0  0  0  0  0  0  0  0  0  0  0  0
   37.9830   33.3880   40.2550 H   0  0  0  0  0  0  0  0  0  0  0  0
   36.6660   32.3510   40.9970 H   0  0  0  0  0  0  0  0  0  0  0  0
   37.6910   32.6710   38.1180 H   0  0  0  0  0  0  0  0  0  0  0  0
   36.0330   32.5340   38.7220 H   0  0  0  0  0  0  0  0  0  0  0  0
   36.1320   30.4120   37.8340 H   0  0  0  0  0  0  0  0  0  0  0  0
   37.8930   30.4400   37.8490 H   0  0  0  0  0  0  0  0  0  0  0  0
   36.0060   29.5900   40.0410 H   0  0  0  0  0  0  0  0  0  0  0  0
   37.5910   27.8600   43.6390 C   0  0  0  0  0  0  0  0  0  0  0  0
   37.2420   28.7950   42.6590 C   0  0  0  0  0  0  0  0  0  0  0  0
   38.2190   29.1600   41.7000 C   0  0  0  0  0  0  0  0  0  0  0  0
   39.4420   28.5730   41.7920 N   0  0  0  0  0  0  0  0  0  0  0  0
   39.7320   27.6680   42.7640 C   0  0  0  0  0  0  0  0  0  0  0  0
   38.8050   27.3180   43.6780 N   0  0  0  0  0  0  0  0  0  0  0  0
   36.7520   27.6790   44.2970 H   0  0  0  0  0  0  0  0  0  0  0  0
   36.2820   29.2770   42.5600 H   0  0  0  0  0  0  0  0  0  0  0  0
   40.7110   27.2130   42.8200 H   0  0  0  0  0  0  0  0  0  0  0  0
   37.4620   28.4640   39.1290 O   0  0  0  0  0  0  0  0  0  0  0  0
   36.6530   27.5320   38.5330 C   0  0  0  0  0  0  0  0  0  0  0  0
   35.8990   27.6470   37.4270 N   0  0  0  0  0  0  0  0  0  0  0  0
   35.1560   26.6460   36.9610 C   0  0  0  0  0  3  0  0  0  0  0  0
   35.1290   25.4450   37.5960 N   0  0  0  0  0  0  0  0  0  0  0  0
   35.8570   25.2620   38.7050 C   0  0  0  0  0  0  0  0  0  0  0  0
   35.8300   24.0460   39.3500 C   0  0  0  0  0  3  0  0  0  0  0  0
   36.5620   23.8180   40.4910 C   0  0  0  0  0  0  0  0  0  0  0  0
   36.6050   22.8950   41.0670 H   0  0  0  0  0  0  0  0  0  0  0  0
   37.3280   24.8300   40.9820 C   0  0  0  0  0  0  0  0  0  0  0  0
   37.9340   24.7370   41.8720 H   0  0  0  0  0  0  0  0  0  0  0  0
   37.3470   26.0440   40.3280 C   0  0  0  0  0  3  0  0  0  0  0  0
   36.6230   26.3100   39.1790 C   0  0  0  0  0  0  0  0  0  0  0  0
  1  2  1  0  0  0  0
  1 18  1  0  0  0  0
  2  8  1  0  0  0  0
  3  2  1  0  0  0  0
  3 10  1  0  0  0  0
  4  3  1  0  0  0  0
  5  4  1  0  0  0  0
  5  6  1  0  0  0  0
  6 15  1  1  0  0  0
  6  1  1  0  0  0  0
  7  2  1  0  0  0  0
  9  3  1  0  0  0  0
 11  4  1  0  0  0  0
 12  4  1  0  0  0  0
 13  5  1  0  0  0  0
 14  5  1  0  0  0  0
 16 21  1  0  0  0  0
 16 22  1  0  0  0  0
 17 16  2  0  0  0  0
 18 19  2  0  0  0  0
 18 17  1  0  0  0  0
 19 20  1  0  0  0  0
 20 24  1  0  0  0  0
 20 21  2  0  0  0  0
 23 17  1  0  0  0  0
 25  6  1  0  0  0  0
 26 25  1  0  0  0  0
 26 37  1  0  0  0  0
 27 26  2  0  0  0  0
 28 27  1  0  0  0  0
 28 29  2  0  0  0  0
 29 30  1  0  0  0  0
 30 37  2  0  0  0  0
 30 31  1  0  0  0  0
 31 32  2  0  0  0  0
 32 34  1  0  0  0  0
 32 33  1  0  0  0  0
 34 35  1  0  0  0  0
 36 34  2  0  0  0  0
 37 36  1  0  0  0  0
M  END
>  <minimizedAffinity>
-5.28835154

$$$$
