
 OpenBabel03252506383D

 47 51  0  0  1  0  0  0  0  0999 V2000
   46.4970   30.1950   46.4350 S   0  0  0  0  0  0  0  0  0  0  0  0
   46.3010   30.6610   43.1350 O   0  0  0  0  0  0  0  0  0  0  0  0
   45.4610   30.1220   43.8730 C   0  0  0  0  0  0  0  0  0  0  0  0
   45.1920   29.9050   45.3160 C   0  0  1  0  0  0  0  0  0  0  0  0
   44.6430   28.4990   45.3240 C   0  0  0  0  0  0  0  0  0  0  0  0
   43.5580   28.7020   44.2630 C   0  0  0  0  0  0  0  0  0  0  0  0
   44.3330   29.4550   43.2850 N   0  0  0  0  0  0  0  0  0  0  0  0
   44.2500   30.5130   45.4150 H   0  0  0  0  0  0  0  0  0  0  0  0
   44.1360   28.2310   46.2660 H   0  0  0  0  0  0  0  0  0  0  0  0
   45.3890   27.7680   45.0040 H   0  0  0  0  0  0  0  0  0  0  0  0
   42.7840   29.3710   44.6900 H   0  0  0  0  0  0  0  0  0  0  0  0
   43.1740   27.7500   43.8810 H   0  0  0  0  0  0  0  0  0  0  0  0
   43.8800   29.4300   41.9160 C   0  0  0  0  0  0  0  0  0  0  0  0
   44.3540   28.4570   41.1070 N   0  0  0  0  0  0  0  0  0  0  0  0
   43.9780   28.3610   39.7990 C   0  0  0  0  0  3  0  0  0  0  0  0
   43.1180   29.2320   39.2660 N   0  0  0  0  0  0  0  0  0  0  0  0
   42.6270   30.2140   40.0500 C   0  0  0  0  0  0  0  0  0  0  0  0
   41.7360   31.1330   39.5340 C   0  0  0  0  0  3  0  0  0  0  0  0
   41.2130   32.1550   40.3160 C   0  0  0  0  0  0  0  0  0  0  0  0
   40.5150   32.8670   39.8970 H   0  0  0  0  0  0  0  0  0  0  0  0
   41.6200   32.2230   41.6450 C   0  0  0  0  0  0  0  0  0  0  0  0
   41.1920   33.0310   42.2210 H   0  0  0  0  0  0  0  0  0  0  0  0
   42.5150   31.3220   42.2150 C   0  0  0  0  0  3  0  0  0  0  0  0
   42.9890   30.3380   41.3750 C   0  0  0  0  0  0  0  0  0  0  0  0
   44.4700   35.7170   45.0230 C   0  0  0  0  0  0  0  0  0  0  0  0
   45.1240   35.6920   43.7660 C   0  0  0  0  0  0  0  0  0  0  0  0
   46.0240   34.7100   43.5070 C   0  0  0  0  0  0  0  0  0  0  0  0
   46.2430   33.7990   44.4880 N   0  0  0  0  0  0  0  0  0  0  0  0
   45.6280   33.8280   45.6610 C   0  0  0  0  0  0  0  0  0  0  0  0
   44.7390   34.7800   45.9440 N   0  0  0  0  0  0  0  0  0  0  0  0
   45.9440   32.8110   46.6280 N   0  0  0  0  0  0  0  0  0  0  0  0
   45.2100   32.5770   47.8150 C   0  0  0  0  0  0  0  0  0  0  0  0
   46.2850   32.2150   48.8240 C   0  0  0  0  0  0  0  0  0  0  0  0
   47.5580   32.0780   48.0440 C   0  0  0  0  0  0  0  0  0  0  0  0
   47.0450   31.8780   46.6210 C   0  0  1  0  0  0  0  0  0  0  0  0
   43.7530   36.5020   45.2260 H   0  0  0  0  0  0  0  0  0  0  0  0
   46.5200   34.6820   42.5690 H   0  0  0  0  0  0  0  0  0  0  0  0
   44.8420   33.5900   48.1700 H   0  0  0  0  0  0  0  0  0  0  0  0
   44.4100   31.9210   47.9250 H   0  0  0  0  0  0  0  0  0  0  0  0
   46.0580   31.2170   49.2940 H   0  0  0  0  0  0  0  0  0  0  0  0
   46.3860   32.9210   49.6460 H   0  0  0  0  0  0  0  0  0  0  0  0
   48.1220   31.1970   48.3860 H   0  0  0  0  0  0  0  0  0  0  0  0
   48.1850   32.9890   48.0980 H   0  0  0  0  0  0  0  0  0  0  0  0
   47.8400   32.1450   45.9230 H   0  0  0  0  0  0  0  0  0  0  0  0
   44.7820   36.7310   42.8340 N   0  0  0  0  0  0  0  0  0  0  0  0
   45.5180   37.0740   42.1550 H   0  0  0  0  0  0  0  0  0  0  0  0
   43.8180   37.1050   42.8630 H   0  0  0  0  0  0  0  0  0  0  0  0
  1 35  1  0  0  0  0
  2  3  2  0  0  0  0
  3  4  1  0  0  0  0
  4  5  1  0  0  0  0
  4  8  1  1  0  0  0
  4  1  1  0  0  0  0
  5  9  1  0  0  0  0
  6 11  1  0  0  0  0
  6  5  1  0  0  0  0
  7  3  1  0  0  0  0
  7  6  1  0  0  0  0
 10  5  1  0  0  0  0
 12  6  1  0  0  0  0
 13  7  1  0  0  0  0
 14 13  2  0  0  0  0
 15 14  1  0  0  0  0
 16 15  2  0  0  0  0
 16 17  1  0  0  0  0
 17 24  1  0  0  0  0
 18 17  2  0  0  0  0
 18 19  1  0  0  0  0
 19 21  2  0  0  0  0
 20 19  1  0  0  0  0
 21 23  1  0  0  0  0
 21 22  1  0  0  0  0
 24 13  1  0  0  0  0
 24 23  2  0  0  0  0
 25 36  1  0  0  0  0
 25 30  1  0  0  0  0
 26 25  2  0  0  0  0
 27 26  1  0  0  0  0
 27 28  2  0  0  0  0
 28 29  1  0  0  0  0
 29 30  2  0  0  0  0
 29 31  1  0  0  0  0
 31 32  1  0  0  0  0
 32 39  1  0  0  0  0
 32 38  1  0  0  0  0
 32 33  1  0  0  0  0
 33 40  1  0  0  0  0
 33 41  1  0  0  0  0
 34 43  1  0  0  0  0
 34 42  1  0  0  0  0
 34 33  1  0  0  0  0
 35 44  1  6  0  0  0
 35 31  1  0  0  0  0
 35 34  1  0  0  0  0
 37 27  1  0  0  0  0
 45 47  1  0  0  0  0
 45 26  1  0  0  0  0
 46 45  1  0  0  0  0
M  END
>  <minimizedAffinity>
-5.86731005

>  <minimizedRMSD>
1.13627195

$$$$
