
 OpenBabel03252507463D

 40 43  0  0  0  0  0  0  0  0999 V2000
   48.4570   33.9470   41.4320 C   0  0  0  0  0  0  0  0  0  0  0  0
   49.0190   32.7390   41.0330 C   0  0  0  0  0  0  0  0  0  0  0  0
   50.2990   32.3810   41.4250 C   0  0  0  0  0  0  0  0  0  0  0  0
   50.9710   33.2850   42.2240 N   0  0  0  0  0  0  0  0  0  0  0  0
   50.3910   34.4470   42.5910 C   0  0  0  0  0  0  0  0  0  0  0  0
   49.1650   34.7600   42.1990 N   0  0  0  0  0  0  0  0  0  0  0  0
   50.7630   31.4480   41.1310 H   0  0  0  0  0  0  0  0  0  0  0  0
   50.9930   35.0930   43.2190 H   0  0  0  0  0  0  0  0  0  0  0  0
   47.0910   34.2160   40.9520 C   0  0  0  0  0  0  0  0  0  0  0  0
   47.1520   34.6960   39.9450 H   0  0  0  0  0  0  0  0  0  0  0  0
   46.5120   33.2860   40.7970 H   0  0  0  0  0  0  0  0  0  0  0  0
   46.2870   35.0520   41.9030 C   0  0  0  0  0  0  0  0  0  0  0  0
   46.4890   34.6770   42.9420 H   0  0  0  0  0  0  0  0  0  0  0  0
   46.6310   36.1100   41.8950 H   0  0  0  0  0  0  0  0  0  0  0  0
   44.8130   34.9560   41.6810 C   0  0  0  0  0  0  0  0  0  0  0  0
   43.9250   35.3850   42.7070 C   0  0  0  0  0  0  0  0  0  0  0  0
   42.2660   35.0730   41.9720 S   0  0  0  0  0  0  0  0  0  0  0  0
   43.0720   34.4100   40.3890 C   0  0  0  0  0  0  0  0  0  0  0  0
   44.1870   34.5120   40.6270 N   0  0  0  0  0  0  0  0  0  0  0  0
   44.1860   35.7930   43.6770 H   0  0  0  0  0  0  0  0  0  0  0  0
   42.3340   33.9520   39.3010 O   0  0  0  0  0  0  0  0  0  0  0  0
   40.3760   34.4220   37.5780 O   0  0  0  0  0  0  0  0  0  0  0  0
   41.4660   35.1020   38.4010 P   0  0  0  0  0  0  0  0  0  0  0  0
   40.7600   36.2000   39.4730 O   0  0  0  0  0  0  0  0  0  0  0  0
   39.8920   35.8590   39.7880 H   0  0  0  0  0  0  0  0  0  0  0  0
   42.5440   35.9630   37.3960 O   0  0  0  0  0  0  0  0  0  0  0  0
   42.0840   36.7830   37.1280 H   0  0  0  0  0  0  0  0  0  0  0  0
   48.0980   31.6000   39.9900 S   0  0  0  0  0  0  0  0  0  0  0  0
   48.4150   31.9380   38.2650 C   0  0  0  0  0  0  0  0  0  0  0  0
   47.6610   32.8300   37.5710 N   0  0  0  0  0  0  0  0  0  0  0  0
   47.9270   33.0600   36.2740 C   0  0  0  0  0  3  0  0  0  0  0  0
   48.9360   32.4150   35.6580 N   0  0  0  0  0  0  0  0  0  0  0  0
   49.7040   31.5220   36.3260 C   0  0  0  0  0  0  0  0  0  0  0  0
   50.7130   30.9160   35.6040 C   0  0  0  0  0  3  0  0  0  0  0  0
   51.5220   30.0000   36.2360 C   0  0  0  0  0  0  0  0  0  0  0  0
   52.3010   29.5480   35.6330 H   0  0  0  0  0  0  0  0  0  0  0  0
   51.2900   29.7230   37.5790 C   0  0  0  0  0  0  0  0  0  0  0  0
   51.9460   29.0010   38.0350 H   0  0  0  0  0  0  0  0  0  0  0  0
   50.2680   30.3520   38.2720 C   0  0  0  0  0  3  0  0  0  0  0  0
   49.4450   31.2730   37.6580 C   0  0  0  0  0  0  0  0  0  0  0  0
  1  6  1  0  0  0  0
  2  3  1  0  0  0  0
  2  1  2  0  0  0  0
  3  4  2  0  0  0  0
  4  5  1  0  0  0  0
  5  8  1  0  0  0  0
  6  5  2  0  0  0  0
  7  3  1  0  0  0  0
  9  1  1  0  0  0  0
  9 12  1  0  0  0  0
 10  9  1  0  0  0  0
 11  9  1  0  0  0  0
 12 13  1  0  0  0  0
 14 12  1  0  0  0  0
 15 12  1  0  0  0  0
 15 16  2  0  0  0  0
 16 20  1  0  0  0  0
 17 16  1  0  0  0  0
 18 19  2  0  0  0  0
 18 17  1  0  0  0  0
 19 15  1  0  0  0  0
 21 18  1  0  0  0  0
 22 23  2  0  0  0  0
 23 21  1  0  0  0  0
 23 24  1  0  0  0  0
 24 25  1  0  0  0  0
 26 23  1  0  0  0  0
 27 26  1  0  0  0  0
 28  2  1  0  0  0  0
 29 28  1  0  0  0  0
 30 29  2  0  0  0  0
 31 30  1  0  0  0  0
 32 31  2  0  0  0  0
 32 33  1  0  0  0  0
 33 40  1  0  0  0  0
 34 35  1  0  0  0  0
 34 33  2  0  0  0  0
 35 37  2  0  0  0  0
 36 35  1  0  0  0  0
 37 38  1  0  0  0  0
 37 39  1  0  0  0  0
 40 29  1  0  0  0  0
 40 39  2  0  0  0  0
M  END
>  <minimizedAffinity>
-5.16032171

>  <minimizedRMSD>
0.442258179

$$$$
