
 OpenBabel03242519383D

 30 32  0  0  0  0  0  0  0  0999 V2000
   48.0750   32.9430   40.9720 O   0  0  0  0  0  0  0  0  0  0  0  0
   47.0130   33.8790   41.5220 P   0  0  2  0  0  0  0  0  0  0  0  0
   46.1730   33.0620   42.7870 O   0  0  0  0  0  0  0  0  0  0  0  0
   44.4680   35.7570   44.6080 C   0  0  0  0  0  0  0  0  0  0  0  0
   45.0100   35.0080   43.5400 C   0  0  0  0  0  0  0  0  0  0  0  0
   45.6340   33.8100   43.8350 C   0  0  0  0  0  0  0  0  0  0  0  0
   45.7040   33.3980   45.1400 N   0  0  0  0  0  0  0  0  0  0  0  0
   45.1680   34.1510   46.1390 C   0  0  0  0  0  0  0  0  0  0  0  0
   44.5600   35.3110   45.8870 N   0  0  0  0  0  0  0  0  0  0  0  0
   43.9840   36.6930   44.3510 H   0  0  0  0  0  0  0  0  0  0  0  0
   44.9350   35.3690   42.5120 H   0  0  0  0  0  0  0  0  0  0  0  0
   45.2650   33.7530   47.1550 H   0  0  0  0  0  0  0  0  0  0  0  0
   45.9030   34.3560   40.3690 O   0  0  0  0  0  0  0  0  0  0  0  0
   44.9840   33.4890   39.7940 C   0  0  0  0  0  0  0  0  0  0  0  0
   45.2410   32.3310   39.1580 N   0  0  0  0  0  0  0  0  0  0  0  0
   44.1950   31.6110   38.6570 C   0  0  0  0  0  0  0  0  0  0  0  0
   42.9060   32.0040   38.7670 N   0  0  0  0  0  0  0  0  0  0  0  0
   42.6420   33.1760   39.4100 C   0  0  0  0  0  0  0  0  0  0  0  0
   41.3010   33.5240   39.4900 C   0  0  0  0  0  0  0  0  0  0  0  0
   41.0040   34.7070   40.1370 C   0  0  0  0  0  0  0  0  0  0  0  0
   39.9910   35.0510   40.2430 H   0  0  0  0  0  0  0  0  0  0  0  0
   41.9910   35.4960   40.6720 C   0  0  0  0  0  0  0  0  0  0  0  0
   41.7640   36.4260   41.1810 H   0  0  0  0  0  0  0  0  0  0  0  0
   43.3110   35.0990   40.5630 C   0  0  0  0  0  0  0  0  0  0  0  0
   43.6790   33.9280   39.9290 C   0  0  0  0  0  0  0  0  0  0  0  0
   47.7900   35.2010   42.2000 O   0  0  0  0  0  0  0  0  0  0  0  0
   48.9280   35.5710   41.5130 C   0  0  0  0  0  0  0  0  0  0  0  0
   49.3180   36.8820   41.7440 F   0  0  0  0  0  0  0  0  0  0  0  0
   49.9340   34.6570   41.7680 F   0  0  0  0  0  0  0  0  0  0  0  0
   48.6250   35.4860   40.1620 F   0  0  0  0  0  0  0  0  0  0  0  0
  2  1  2  6  0  0  0
  2 26  1  0  0  0  0
  2  3  1  0  0  0  0
  3  6  1  0  0  0  0
  4  9  1  0  0  0  0
  5  6  1  0  0  0  0
  5  4  2  0  0  0  0
  6  7  2  0  0  0  0
  7  8  1  0  0  0  0
  8 12  1  0  0  0  0
  9  8  2  0  0  0  0
 10  4  1  0  0  0  0
 11  5  1  0  0  0  0
 13  2  1  0  0  0  0
 14 25  1  0  0  0  0
 14 13  1  0  0  0  0
 15 14  2  0  0  0  0
 16 17  2  0  0  0  0
 16 15  1  0  0  0  0
 17 18  1  0  0  0  0
 18 19  2  0  0  0  0
 18 25  1  0  0  0  0
 19 20  1  0  0  0  0
 20 21  1  0  0  0  0
 20 22  2  0  0  0  0
 22 23  1  0  0  0  0
 24 22  1  0  0  0  0
 25 24  2  0  0  0  0
 27 28  1  0  0  0  0
 27 29  1  0  0  0  0
 27 26  1  0  0  0  0
 30 27  1  0  0  0  0
M  END
>  <minimizedAffinity>
-5.85767937

>  <minimizedRMSD>
1.68337762

$$$$
