
 OpenBabel03252504333D

 43 46  0  0  0  0  0  0  0  0999 V2000
   41.5990   35.7480   41.1960 C   0  0  0  0  0  0  0  0  0  0  0  0
   41.5350   35.8430   42.3050 H   0  0  0  0  0  0  0  0  0  0  0  0
   41.2090   36.7010   40.7830 H   0  0  0  0  0  0  0  0  0  0  0  0
   40.9110   33.4040   41.3240 C   0  0  0  0  0  0  0  0  0  0  0  0
   40.5680   34.7030   40.8750 C   0  0  0  0  0  0  0  0  0  0  0  0
   39.3890   34.8300   40.2280 C   0  0  0  0  0  0  0  0  0  0  0  0
   38.6480   33.7490   40.0610 N   0  0  0  0  0  0  0  0  0  0  0  0
   38.9580   32.5450   40.4720 C   0  0  0  0  0  0  0  0  0  0  0  0
   40.1400   32.3250   41.1400 N   0  0  0  0  0  0  0  0  0  0  0  0
   41.8550   33.2420   41.8550 H   0  0  0  0  0  0  0  0  0  0  0  0
   39.1450   35.7990   39.9000 H   0  0  0  0  0  0  0  0  0  0  0  0
   38.2090   31.2720   40.3390 C   0  0  0  0  0  0  0  0  0  0  0  0
   37.4490   30.7390   41.3290 N   0  0  0  0  0  0  0  0  0  0  0  0
   36.7660   29.6130   41.2610 C   0  0  0  0  0  3  0  0  0  0  0  0
   36.7860   28.8760   40.1220 N   0  0  0  0  0  0  0  0  0  0  0  0
   37.5180   29.3120   39.0520 C   0  0  0  0  0  0  0  0  0  0  0  0
   37.5300   28.5560   37.9020 C   0  0  0  0  0  3  0  0  0  0  0  0
   38.2590   28.9700   36.8060 C   0  0  0  0  0  0  0  0  0  0  0  0
   38.1890   28.2960   35.9700 H   0  0  0  0  0  0  0  0  0  0  0  0
   38.9500   30.1530   36.9410 C   0  0  0  0  0  0  0  0  0  0  0  0
   39.5120   30.4410   36.0480 H   0  0  0  0  0  0  0  0  0  0  0  0
   38.9040   30.8720   38.1150 C   0  0  0  0  0  3  0  0  0  0  0  0
   38.1980   30.4930   39.2100 C   0  0  0  0  0  0  0  0  0  0  0  0
   42.8180   35.4630   40.6580 O   0  0  0  0  0  0  0  0  0  0  0  0
   44.0310   35.3170   41.3080 C   0  0  0  0  0  3  0  0  0  0  0  0
   44.0460   35.6560   42.5920 C   0  0  0  0  0  3  0  0  0  0  0  0
   45.2500   35.5800   43.5130 C   0  0  0  0  0  0  0  0  0  0  0  0
   46.0750   35.2680   42.8440 H   0  0  0  0  0  0  0  0  0  0  0  0
   45.4540   36.5360   44.0030 H   0  0  0  0  0  0  0  0  0  0  0  0
   44.9840   34.5950   44.4460 O   0  0  0  0  0  0  0  0  0  0  0  0
   45.6810   32.4880   42.9890 O   0  0  0  0  0  0  0  0  0  0  0  0
   46.0090   33.2720   44.2390 P   0  0  1  0  0  0  0  0  0  0  0  0
   47.6230   33.7780   44.0860 O   0  0  0  0  0  0  0  0  0  0  0  0
   47.6490   34.7670   44.2290 H   0  0  0  0  0  0  0  0  0  0  0  0
   45.9210   32.2690   45.5940 O   0  0  0  0  0  0  0  0  0  0  0  0
   46.1830   32.9500   46.7660 C   0  0  0  0  0  0  0  0  0  0  0  0
   47.0350   32.3060   47.8140 C   0  0  0  0  0  0  0  0  0  0  0  0
   45.5260   32.3690   47.9980 C   0  0  0  0  0  0  0  0  0  0  0  0
   46.3540   34.0210   46.6490 H   0  0  0  0  0  0  0  0  0  0  0  0
   47.6960   32.8900   48.4670 H   0  0  0  0  0  0  0  0  0  0  0  0
   47.3990   31.2720   47.6410 H   0  0  0  0  0  0  0  0  0  0  0  0
   45.2210   33.1440   48.7480 H   0  0  0  0  0  0  0  0  0  0  0  0
   44.9220   31.4650   47.9210 H   0  0  0  0  0  0  0  0  0  0  0  0
  1  2  1  0  0  0  0
  3  1  1  0  0  0  0
  4 10  1  0  0  0  0
  5  1  1  0  0  0  0
  5  4  2  0  0  0  0
  6  5  1  0  0  0  0
  7  6  2  0  0  0  0
  7  8  1  0  0  0  0
  8  9  2  0  0  0  0
  9  4  1  0  0  0  0
 11  6  1  0  0  0  0
 12  8  1  0  0  0  0
 12 13  1  0  0  0  0
 14 13  2  0  0  0  0
 15 14  1  0  0  0  0
 16 23  1  0  0  0  0
 16 15  2  0  0  0  0
 17 16  1  0  0  0  0
 18 20  1  0  0  0  0
 18 17  2  0  0  0  0
 19 18  1  0  0  0  0
 20 22  2  0  0  0  0
 21 20  1  0  0  0  0
 22 23  1  0  0  0  0
 23 12  2  0  0  0  0
 24  1  1  0  0  0  0
 24 25  1  0  0  0  0
 25 26  2  0  0  0  0
 26 27  1  0  0  0  0
 27 29  1  0  0  0  0
 27 30  1  0  0  0  0
 28 27  1  0  0  0  0
 32 31  2  6  0  0  0
 32 30  1  0  0  0  0
 32 35  1  0  0  0  0
 33 34  1  0  0  0  0
 33 32  1  0  0  0  0
 35 36  1  0  0  0  0
 36 37  1  0  0  0  0
 36 38  1  0  0  0  0
 37 38  1  0  0  0  0
 37 40  1  0  0  0  0
 38 42  1  0  0  0  0
 39 36  1  0  0  0  0
 41 37  1  0  0  0  0
 43 38  1  0  0  0  0
M  END
>  <minimizedAffinity>
-5.68515491

>  <minimizedRMSD>
0.90538466

$$$$
