
 OpenBabel03252506383D

 47 51  0  0  1  0  0  0  0  0999 V2000
   46.5860   30.0850   46.5050 S   0  0  0  0  0  0  0  0  0  0  0  0
   45.7840   30.6120   43.3070 O   0  0  0  0  0  0  0  0  0  0  0  0
   45.0930   30.0620   44.1780 C   0  0  0  0  0  0  0  0  0  0  0  0
   45.0950   29.8190   45.6420 C   0  0  1  0  0  0  0  0  0  0  0  0
   44.5480   28.4150   45.7270 C   0  0  0  0  0  0  0  0  0  0  0  0
   43.2860   28.6390   44.8900 C   0  0  0  0  0  0  0  0  0  0  0  0
   43.8710   29.4090   43.7980 N   0  0  0  0  0  0  0  0  0  0  0  0
   44.1910   30.4280   45.9250 H   0  0  0  0  0  0  0  0  0  0  0  0
   44.2230   28.1300   46.7420 H   0  0  0  0  0  0  0  0  0  0  0  0
   45.2180   27.6880   45.2620 H   0  0  0  0  0  0  0  0  0  0  0  0
   42.6090   29.3020   45.4650 H   0  0  0  0  0  0  0  0  0  0  0  0
   42.8320   27.6960   44.5680 H   0  0  0  0  0  0  0  0  0  0  0  0
   43.1720   29.4100   42.5370 C   0  0  0  0  0  0  0  0  0  0  0  0
   43.8980   29.5440   41.4060 N   0  0  0  0  0  0  0  0  0  0  0  0
   43.3170   29.5550   40.1720 C   0  0  0  0  0  0  0  0  0  0  0  0
   41.9950   29.4320   40.0360 N   0  0  0  0  0  0  0  0  0  0  0  0
   41.2420   29.2960   41.1460 C   0  0  0  0  0  0  0  0  0  0  0  0
   39.8720   29.1670   41.0460 C   0  0  0  0  0  0  0  0  0  0  0  0
   39.0710   29.0260   42.1720 C   0  0  0  0  0  0  0  0  0  0  0  0
   37.9980   28.9260   42.0740 H   0  0  0  0  0  0  0  0  0  0  0  0
   39.6980   29.0190   43.4130 C   0  0  0  0  0  0  0  0  0  0  0  0
   39.0410   28.9070   44.2650 H   0  0  0  0  0  0  0  0  0  0  0  0
   41.0750   29.1450   43.5710 C   0  0  0  0  0  0  0  0  0  0  0  0
   41.8010   29.2820   42.4080 C   0  0  0  0  0  0  0  0  0  0  0  0
   44.5060   35.5960   45.1290 C   0  0  0  0  0  0  0  0  0  0  0  0
   45.1560   35.5830   43.8690 C   0  0  0  0  0  0  0  0  0  0  0  0
   46.0640   34.6110   43.6020 C   0  0  0  0  0  0  0  0  0  0  0  0
   46.2940   33.6970   44.5770 N   0  0  0  0  0  0  0  0  0  0  0  0
   45.6830   33.7140   45.7530 C   0  0  0  0  0  0  0  0  0  0  0  0
   44.7860   34.6560   46.0440 N   0  0  0  0  0  0  0  0  0  0  0  0
   46.0100   32.6950   46.7130 N   0  0  0  0  0  0  0  0  0  0  0  0
   45.2830   32.4480   47.9010 C   0  0  0  0  0  0  0  0  0  0  0  0
   46.3640   32.0900   48.9040 C   0  0  0  0  0  0  0  0  0  0  0  0
   47.6350   31.9680   48.1200 C   0  0  0  0  0  0  0  0  0  0  0  0
   47.1200   31.7710   46.6970 C   0  0  1  0  0  0  0  0  0  0  0  0
   43.7830   36.3730   45.3380 H   0  0  0  0  0  0  0  0  0  0  0  0
   46.5570   34.5920   42.6630 H   0  0  0  0  0  0  0  0  0  0  0  0
   44.9070   33.4560   48.2620 H   0  0  0  0  0  0  0  0  0  0  0  0
   44.4890   31.7840   48.0100 H   0  0  0  0  0  0  0  0  0  0  0  0
   46.1470   31.0880   49.3700 H   0  0  0  0  0  0  0  0  0  0  0  0
   46.4620   32.7930   49.7300 H   0  0  0  0  0  0  0  0  0  0  0  0
   48.2090   31.0910   48.4550 H   0  0  0  0  0  0  0  0  0  0  0  0
   48.2540   32.8850   48.1770 H   0  0  0  0  0  0  0  0  0  0  0  0
   47.9100   32.0490   45.9980 H   0  0  0  0  0  0  0  0  0  0  0  0
   44.8020   36.6240   42.9430 N   0  0  0  0  0  0  0  0  0  0  0  0
   45.5330   36.9780   42.2650 H   0  0  0  0  0  0  0  0  0  0  0  0
   43.8350   36.9900   42.9780 H   0  0  0  0  0  0  0  0  0  0  0  0
  1 35  1  0  0  0  0
  2  3  2  0  0  0  0
  3  4  1  0  0  0  0
  4  5  1  0  0  0  0
  4  8  1  1  0  0  0
  4  1  1  0  0  0  0
  5  9  1  0  0  0  0
  6 11  1  0  0  0  0
  6  5  1  0  0  0  0
  7  3  1  0  0  0  0
  7  6  1  0  0  0  0
 10  5  1  0  0  0  0
 12  6  1  0  0  0  0
 13  7  1  0  0  0  0
 14 13  2  0  0  0  0
 15 14  1  0  0  0  0
 16 15  2  0  0  0  0
 16 17  1  0  0  0  0
 17 24  1  0  0  0  0
 18 17  2  0  0  0  0
 18 19  1  0  0  0  0
 19 21  2  0  0  0  0
 20 19  1  0  0  0  0
 21 23  1  0  0  0  0
 21 22  1  0  0  0  0
 24 13  1  0  0  0  0
 24 23  2  0  0  0  0
 25 36  1  0  0  0  0
 25 30  1  0  0  0  0
 26 25  2  0  0  0  0
 27 26  1  0  0  0  0
 27 28  2  0  0  0  0
 28 29  1  0  0  0  0
 29 30  2  0  0  0  0
 29 31  1  0  0  0  0
 31 32  1  0  0  0  0
 32 39  1  0  0  0  0
 32 38  1  0  0  0  0
 32 33  1  0  0  0  0
 33 40  1  0  0  0  0
 33 41  1  0  0  0  0
 34 43  1  0  0  0  0
 34 42  1  0  0  0  0
 34 33  1  0  0  0  0
 35 44  1  6  0  0  0
 35 31  1  0  0  0  0
 35 34  1  0  0  0  0
 37 27  1  0  0  0  0
 45 47  1  0  0  0  0
 45 26  1  0  0  0  0
 46 45  1  0  0  0  0
M  END
>  <minimizedAffinity>
-6.13973284

>  <minimizedRMSD>
0.383201778

$$$$
