
 OpenBabel03252507463D

 40 43  0  0  0  0  0  0  0  0999 V2000
   48.6990   33.9480   41.2920 C   0  0  0  0  0  0  0  0  0  0  0  0
   49.0140   32.7010   40.7650 C   0  0  0  0  0  0  0  0  0  0  0  0
   50.1930   32.0560   41.1040 C   0  0  0  0  0  0  0  0  0  0  0  0
   51.0220   32.7210   41.9870 N   0  0  0  0  0  0  0  0  0  0  0  0
   50.6810   33.9310   42.4780 C   0  0  0  0  0  0  0  0  0  0  0  0
   49.5460   34.5200   42.1320 N   0  0  0  0  0  0  0  0  0  0  0  0
   50.4660   31.0860   40.7110 H   0  0  0  0  0  0  0  0  0  0  0  0
   51.3930   34.3760   43.1640 H   0  0  0  0  0  0  0  0  0  0  0  0
   47.4200   34.5310   40.8570 C   0  0  0  0  0  0  0  0  0  0  0  0
   47.6300   35.4180   40.2100 H   0  0  0  0  0  0  0  0  0  0  0  0
   46.8400   33.8370   40.2200 H   0  0  0  0  0  0  0  0  0  0  0  0
   46.5190   34.8970   41.9990 C   0  0  0  0  0  0  0  0  0  0  0  0
   46.7300   34.1840   42.8410 H   0  0  0  0  0  0  0  0  0  0  0  0
   46.7650   35.9070   42.3950 H   0  0  0  0  0  0  0  0  0  0  0  0
   45.0660   34.7760   41.6760 C   0  0  0  0  0  0  0  0  0  0  0  0
   44.1580   35.7520   42.1750 C   0  0  0  0  0  0  0  0  0  0  0  0
   42.5360   35.1770   41.5210 S   0  0  0  0  0  0  0  0  0  0  0  0
   43.3790   33.7020   40.6780 C   0  0  0  0  0  0  0  0  0  0  0  0
   44.4760   33.8570   40.9650 N   0  0  0  0  0  0  0  0  0  0  0  0
   44.3900   36.6150   42.7890 H   0  0  0  0  0  0  0  0  0  0  0  0
   42.6780   32.7580   39.9310 O   0  0  0  0  0  0  0  0  0  0  0  0
   42.8900   31.6650   37.5270 O   0  0  0  0  0  0  0  0  0  0  0  0
   42.6120   32.9800   38.2490 P   0  0  0  0  0  0  0  0  0  0  0  0
   41.0680   33.5300   37.8400 O   0  0  0  0  0  0  0  0  0  0  0  0
   40.4560   32.7690   37.7180 H   0  0  0  0  0  0  0  0  0  0  0  0
   43.7370   34.1790   37.7930 O   0  0  0  0  0  0  0  0  0  0  0  0
   43.4760   34.4870   36.9030 H   0  0  0  0  0  0  0  0  0  0  0  0
   47.8970   31.8820   39.6190 S   0  0  0  0  0  0  0  0  0  0  0  0
   48.6750   31.6850   38.0230 C   0  0  0  0  0  0  0  0  0  0  0  0
   49.9980   31.3940   37.9140 N   0  0  0  0  0  0  0  0  0  0  0  0
   50.5520   31.2540   36.6980 C   0  0  0  0  0  3  0  0  0  0  0  0
   49.8060   31.3990   35.5860 N   0  0  0  0  0  0  0  0  0  0  0  0
   48.4850   31.6890   35.6650 C   0  0  0  0  0  0  0  0  0  0  0  0
   47.8100   31.8170   34.4670 C   0  0  0  0  0  3  0  0  0  0  0  0
   46.4670   32.1110   34.4920 C   0  0  0  0  0  0  0  0  0  0  0  0
   45.9750   32.2030   33.5300 H   0  0  0  0  0  0  0  0  0  0  0  0
   45.8430   32.2670   35.7250 C   0  0  0  0  0  0  0  0  0  0  0  0
   44.7910   32.4970   35.7000 H   0  0  0  0  0  0  0  0  0  0  0  0
   46.5520   32.1320   36.9070 C   0  0  0  0  0  3  0  0  0  0  0  0
   47.9000   31.8370   36.9060 C   0  0  0  0  0  0  0  0  0  0  0  0
  1  6  1  0  0  0  0
  2  3  1  0  0  0  0
  2  1  2  0  0  0  0
  3  4  2  0  0  0  0
  4  5  1  0  0  0  0
  5  8  1  0  0  0  0
  6  5  2  0  0  0  0
  7  3  1  0  0  0  0
  9  1  1  0  0  0  0
  9 12  1  0  0  0  0
 10  9  1  0  0  0  0
 11  9  1  0  0  0  0
 12 14  1  0  0  0  0
 12 13  1  0  0  0  0
 15 12  1  0  0  0  0
 15 16  2  0  0  0  0
 16 20  1  0  0  0  0
 17 16  1  0  0  0  0
 18 19  2  0  0  0  0
 18 17  1  0  0  0  0
 19 15  1  0  0  0  0
 21 18  1  0  0  0  0
 22 23  2  0  0  0  0
 23 21  1  0  0  0  0
 24 23  1  0  0  0  0
 25 24  1  0  0  0  0
 26 23  1  0  0  0  0
 27 26  1  0  0  0  0
 28  2  1  0  0  0  0
 29 28  1  0  0  0  0
 30 29  1  0  0  0  0
 31 30  2  0  0  0  0
 32 33  2  0  0  0  0
 32 31  1  0  0  0  0
 33 40  1  0  0  0  0
 34 35  2  0  0  0  0
 34 33  1  0  0  0  0
 35 37  1  0  0  0  0
 36 35  1  0  0  0  0
 37 39  2  0  0  0  0
 38 37  1  0  0  0  0
 40 39  1  0  0  0  0
 40 29  2  0  0  0  0
M  END
>  <minimizedAffinity>
-5.15721178

>  <minimizedRMSD>
1.60696113

$$$$
