
 OpenBabel03252505443D

 45 49  0  0  1  0  0  0  0  0999 V2000
   37.1280   30.6110   40.2200 C   0  0  0  0  0  0  0  0  0  0  0  0
   36.0350   29.9250   39.7540 C   0  0  0  0  0  0  0  0  0  0  0  0
   35.4230   28.9100   40.4580 C   0  0  0  0  0  0  0  0  0  0  0  0
   35.9470   28.5940   41.6620 N   0  0  0  0  0  0  0  0  0  0  0  0
   37.0270   29.2610   42.1350 C   0  0  0  0  0  0  0  0  0  0  0  0
   37.6110   30.2500   41.4380 N   0  0  0  0  0  0  0  0  0  0  0  0
   35.6170   30.1860   38.7810 H   0  0  0  0  0  0  0  0  0  0  0  0
   34.5630   28.4020   40.0450 H   0  0  0  0  0  0  0  0  0  0  0  0
   38.3450   32.7700   40.1760 C   0  0  1  0  0  0  0  0  0  0  0  0
   37.0570   33.0380   39.3340 C   0  0  0  0  0  0  0  0  0  0  0  0
   37.7850   31.7000   39.4030 C   0  0  2  0  0  0  0  0  0  0  0  0
   38.0970   32.8700   41.2650 H   0  0  0  0  0  0  0  0  0  0  0  0
   37.2080   33.5800   38.3730 H   0  0  0  0  0  0  0  0  0  0  0  0
   36.0960   33.0750   39.8420 H   0  0  0  0  0  0  0  0  0  0  0  0
   38.1610   31.2910   38.4580 H   0  0  0  0  0  0  0  0  0  0  0  0
   39.5120   33.5750   39.7600 C   0  0  0  0  0  0  0  0  0  0  0  0
   39.6130   34.8840   40.2610 C   0  0  0  0  0  0  0  0  0  0  0  0
   40.7070   35.6600   39.8840 C   0  0  0  0  0  0  0  0  0  0  0  0
   41.6200   35.1110   39.0520 N   0  0  0  0  0  0  0  0  0  0  0  0
   41.4970   33.8470   38.5840 C   0  0  0  0  0  0  0  0  0  0  0  0
   40.4360   33.1310   38.9650 N   0  0  0  0  0  0  0  0  0  0  0  0
   38.8890   35.3200   40.9220 H   0  0  0  0  0  0  0  0  0  0  0  0
   40.8250   36.6730   40.2470 H   0  0  0  0  0  0  0  0  0  0  0  0
   42.6070   33.4310   37.6850 C   0  0  0  0  0  0  0  0  0  0  0  0
   43.1080   34.5050   36.9720 F   0  0  0  0  0  0  0  0  0  0  0  0
   42.1160   32.5250   36.7210 F   0  0  0  0  0  0  0  0  0  0  0  0
   43.5600   32.7510   38.3900 F   0  0  0  0  0  0  0  0  0  0  0  0
   37.6510   28.9300   43.4520 C   0  0  0  0  0  0  0  0  0  0  0  0
   37.1390   29.5650   44.2300 H   0  0  0  0  0  0  0  0  0  0  0  0
   38.7010   29.2040   43.5030 H   0  0  0  0  0  0  0  0  0  0  0  0
   37.4210   27.5020   43.8030 C   0  0  0  0  0  0  0  0  0  0  0  0
   36.4440   27.1600   43.3760 H   0  0  0  0  0  0  0  0  0  0  0  0
   37.2940   27.4380   44.9200 H   0  0  0  0  0  0  0  0  0  0  0  0
   38.4790   26.5670   43.3610 C   0  0  0  0  0  0  0  0  0  0  0  0
   39.7800   26.6970   43.7560 N   0  0  0  0  0  0  0  0  0  0  0  0
   40.7330   25.8430   43.3270 C   0  0  0  0  0  3  0  0  0  0  0  0
   40.5000   24.8090   42.4920 N   0  0  0  0  0  0  0  0  0  0  0  0
   39.2250   24.6460   42.0790 C   0  0  0  0  0  0  0  0  0  0  0  0
   38.9150   23.5910   41.2170 C   0  0  0  0  0  3  0  0  0  0  0  0
   37.6320   23.3700   40.7660 C   0  0  0  0  0  0  0  0  0  0  0  0
   37.3650   22.5630   40.0990 H   0  0  0  0  0  0  0  0  0  0  0  0
   36.6510   24.2290   41.1930 C   0  0  0  0  0  0  0  0  0  0  0  0
   35.6270   24.0530   40.8320 H   0  0  0  0  0  0  0  0  0  0  0  0
   36.9590   25.2710   42.0420 C   0  0  0  0  0  3  0  0  0  0  0  0
   38.2160   25.5150   42.5060 C   0  0  0  0  0  0  0  0  0  0  0  0
  1  6  1  0  0  0  0
  2  1  2  0  0  0  0
  2  3  1  0  0  0  0
  3  4  2  0  0  0  0
  4  5  1  0  0  0  0
  5 28  1  0  0  0  0
  6  5  2  0  0  0  0
  7  2  1  0  0  0  0
  8  3  1  0  0  0  0
  9 12  1  1  0  0  0
 10 11  1  0  0  0  0
 10 14  1  0  0  0  0
 10  9  1  0  0  0  0
 11 15  1  6  0  0  0
 11  9  1  0  0  0  0
 11  1  1  0  0  0  0
 13 10  1  0  0  0  0
 16  9  1  0  0  0  0
 16 17  1  0  0  0  0
 17 22  1  0  0  0  0
 18 23  1  0  0  0  0
 18 17  2  0  0  0  0
 19 18  1  0  0  0  0
 20 21  1  0  0  0  0
 20 19  2  0  0  0  0
 21 16  2  0  0  0  0
 24 27  1  0  0  0  0
 24 20  1  0  0  0  0
 25 24  1  0  0  0  0
 26 24  1  0  0  0  0
 28 30  1  0  0  0  0
 28 31  1  0  0  0  0
 28 29  1  0  0  0  0
 31 33  1  0  0  0  0
 32 31  1  0  0  0  0
 34 35  1  0  0  0  0
 34 31  1  0  0  0  0
 36 35  2  0  0  0  0
 37 36  1  0  0  0  0
 38 37  2  0  0  0  0
 38 45  1  0  0  0  0
 39 38  1  0  0  0  0
 40 42  1  0  0  0  0
 40 39  2  0  0  0  0
 41 40  1  0  0  0  0
 42 44  2  0  0  0  0
 43 42  1  0  0  0  0
 44 45  1  0  0  0  0
 45 34  2  0  0  0  0
M  END
>  <minimizedAffinity>
-7.36208534

$$$$

 OpenBabel03252505443D

 45 49  0  0  1  0  0  0  0  0999 V2000
   39.4950   32.7570   40.3960 C   0  0  0  0  0  0  0  0  0  0  0  0
   38.3990   33.5500   40.1640 C   0  0  0  0  0  0  0  0  0  0  0  0
   38.4590   34.9250   40.1080 C   0  0  0  0  0  0  0  0  0  0  0  0
   39.6700   35.4960   40.2940 N   0  0  0  0  0  0  0  0  0  0  0  0
   40.7610   34.7270   40.5230 C   0  0  0  0  0  0  0  0  0  0  0  0
   40.6850   33.3870   40.5740 N   0  0  0  0  0  0  0  0  0  0  0  0
   37.4250   33.0820   40.0150 H   0  0  0  0  0  0  0  0  0  0  0  0
   37.5640   35.5040   39.9220 H   0  0  0  0  0  0  0  0  0  0  0  0
   40.0790   30.6590   41.5790 C   0  0  1  0  0  0  0  0  0  0  0  0
   40.6270   30.4490   40.1320 C   0  0  0  0  0  0  0  0  0  0  0  0
   39.3780   31.2520   40.4770 C   0  0  2  0  0  0  0  0  0  0  0  0
   40.8200   31.2600   42.1670 H   0  0  0  0  0  0  0  0  0  0  0  0
   40.4090   29.4610   39.6670 H   0  0  0  0  0  0  0  0  0  0  0  0
   41.4850   31.0330   39.8060 H   0  0  0  0  0  0  0  0  0  0  0  0
   38.4360   30.9200   40.0290 H   0  0  0  0  0  0  0  0  0  0  0  0
   39.6670   29.4090   42.2510 C   0  0  0  0  0  0  0  0  0  0  0  0
   40.6700   28.6340   42.8560 C   0  0  0  0  0  0  0  0  0  0  0  0
   40.3030   27.4530   43.4990 C   0  0  0  0  0  0  0  0  0  0  0  0
   38.9950   27.1130   43.5070 N   0  0  0  0  0  0  0  0  0  0  0  0
   38.0500   27.8800   42.9160 C   0  0  0  0  0  0  0  0  0  0  0  0
   38.4360   29.0050   42.3090 N   0  0  0  0  0  0  0  0  0  0  0  0
   41.7080   28.9030   42.8500 H   0  0  0  0  0  0  0  0  0  0  0  0
   41.0420   26.8250   43.9790 H   0  0  0  0  0  0  0  0  0  0  0  0
   36.6720   27.3320   43.0390 C   0  0  0  0  0  0  0  0  0  0  0  0
   35.7810   28.0230   42.2400 F   0  0  0  0  0  0  0  0  0  0  0  0
   36.2150   27.5050   44.3630 F   0  0  0  0  0  0  0  0  0  0  0  0
   36.6750   25.9840   42.8150 F   0  0  0  0  0  0  0  0  0  0  0  0
   42.1140   35.3170   40.7550 C   0  0  0  0  0  0  0  0  0  0  0  0
   42.1060   35.7690   41.7880 H   0  0  0  0  0  0  0  0  0  0  0  0
   42.3370   36.1400   40.0830 H   0  0  0  0  0  0  0  0  0  0  0  0
   43.1640   34.2610   40.7250 C   0  0  0  0  0  0  0  0  0  0  0  0
   43.7540   34.3420   39.7770 H   0  0  0  0  0  0  0  0  0  0  0  0
   42.6450   33.2640   40.6680 H   0  0  0  0  0  0  0  0  0  0  0  0
   44.1040   34.2780   41.8670 C   0  0  0  0  0  0  0  0  0  0  0  0
   45.0210   35.2740   42.0440 N   0  0  0  0  0  0  0  0  0  0  0  0
   45.8810   35.2610   43.0840 C   0  0  0  0  0  3  0  0  0  0  0  0
   45.9170   34.2900   44.0220 N   0  0  0  0  0  0  0  0  0  0  0  0
   45.0250   33.2870   43.8830 C   0  0  0  0  0  0  0  0  0  0  0  0
   45.0060   32.2530   44.8230 C   0  0  0  0  0  3  0  0  0  0  0  0
   44.1160   31.2060   44.7360 C   0  0  0  0  0  0  0  0  0  0  0  0
   44.0800   30.3940   45.4480 H   0  0  0  0  0  0  0  0  0  0  0  0
   43.2340   31.2040   43.6860 C   0  0  0  0  0  0  0  0  0  0  0  0
   42.5240   30.3670   43.6170 H   0  0  0  0  0  0  0  0  0  0  0  0
   43.2550   32.2240   42.7570 C   0  0  0  0  0  3  0  0  0  0  0  0
   44.1220   33.2730   42.8150 C   0  0  0  0  0  0  0  0  0  0  0  0
  1 11  1  0  0  0  0
  1  6  1  0  0  0  0
  2  1  2  0  0  0  0
  3  2  1  0  0  0  0
  3  4  2  0  0  0  0
  4  5  1  0  0  0  0
  5  6  2  0  0  0  0
  5 28  1  0  0  0  0
  7  2  1  0  0  0  0
  8  3  1  0  0  0  0
  9 12  1  1  0  0  0
  9 16  1  0  0  0  0
 10 11  1  0  0  0  0
 10  9  1  0  0  0  0
 11 15  1  6  0  0  0
 11  9  1  0  0  0  0
 13 10  1  0  0  0  0
 14 10  1  0  0  0  0
 16 21  2  0  0  0  0
 16 17  1  0  0  0  0
 17 18  2  0  0  0  0
 18 19  1  0  0  0  0
 18 23  1  0  0  0  0
 20 24  1  0  0  0  0
 20 19  2  0  0  0  0
 21 20  1  0  0  0  0
 22 17  1  0  0  0  0
 24 26  1  0  0  0  0
 25 24  1  0  0  0  0
 27 24  1  0  0  0  0
 28 29  1  0  0  0  0
 30 28  1  0  0  0  0
 31 28  1  0  0  0  0
 31 34  1  0  0  0  0
 32 31  1  0  0  0  0
 33 31  1  0  0  0  0
 34 35  2  0  0  0  0
 34 45  1  0  0  0  0
 35 36  1  0  0  0  0
 36 37  2  0  0  0  0
 38 37  1  0  0  0  0
 38 39  1  0  0  0  0
 40 39  2  0  0  0  0
 40 41  1  0  0  0  0
 42 40  1  0  0  0  0
 43 42  1  0  0  0  0
 44 45  1  0  0  0  0
 44 42  2  0  0  0  0
 45 38  2  0  0  0  0
M  END
>  <minimizedAffinity>
-6.96162987

$$$$

 OpenBabel03252505443D

 45 49  0  0  1  0  0  0  0  0999 V2000
   36.9300   30.5610   38.2200 C   0  0  0  0  0  0  0  0  0  0  0  0
   37.0400   30.5390   36.8520 C   0  0  0  0  0  0  0  0  0  0  0  0
   36.8740   29.3970   36.0990 C   0  0  0  0  0  0  0  0  0  0  0  0
   36.5910   28.2560   36.7650 N   0  0  0  0  0  0  0  0  0  0  0  0
   36.4800   28.2610   38.1140 C   0  0  0  0  0  0  0  0  0  0  0  0
   36.6440   29.3840   38.8340 N   0  0  0  0  0  0  0  0  0  0  0  0
   37.2690   31.4640   36.3210 H   0  0  0  0  0  0  0  0  0  0  0  0
   36.9710   29.4350   35.0220 H   0  0  0  0  0  0  0  0  0  0  0  0
   38.3890   31.8830   39.7250 C   0  0  1  0  0  0  0  0  0  0  0  0
   37.0590   31.7170   40.5280 C   0  0  0  0  0  0  0  0  0  0  0  0
   37.1480   31.8310   39.0100 C   0  0  2  0  0  0  0  0  0  0  0  0
   39.0090   30.9570   39.8500 H   0  0  0  0  0  0  0  0  0  0  0  0
   36.6720   32.6360   41.0230 H   0  0  0  0  0  0  0  0  0  0  0  0
   36.7960   30.7330   40.9090 H   0  0  0  0  0  0  0  0  0  0  0  0
   36.6100   32.6640   38.5430 H   0  0  0  0  0  0  0  0  0  0  0  0
   39.1220   33.1290   40.0310 C   0  0  0  0  0  0  0  0  0  0  0  0
   38.4120   34.3390   39.9480 C   0  0  0  0  0  0  0  0  0  0  0  0
   39.0830   35.5260   40.2350 C   0  0  0  0  0  0  0  0  0  0  0  0
   40.3870   35.4530   40.5810 N   0  0  0  0  0  0  0  0  0  0  0  0
   41.0450   34.2730   40.6530 C   0  0  0  0  0  0  0  0  0  0  0  0
   40.3730   33.1540   40.3710 N   0  0  0  0  0  0  0  0  0  0  0  0
   37.3770   34.3980   39.6750 H   0  0  0  0  0  0  0  0  0  0  0  0
   38.5750   36.4810   40.1850 H   0  0  0  0  0  0  0  0  0  0  0  0
   42.4730   34.4070   41.0530 C   0  0  0  0  0  0  0  0  0  0  0  0
   42.8240   33.4590   41.9950 F   0  0  0  0  0  0  0  0  0  0  0  0
   42.6710   35.6590   41.6730 F   0  0  0  0  0  0  0  0  0  0  0  0
   43.2780   34.4040   39.9480 F   0  0  0  0  0  0  0  0  0  0  0  0
   36.1900   27.0190   38.8930 C   0  0  0  0  0  0  0  0  0  0  0  0
   36.8800   26.2170   38.5050 H   0  0  0  0  0  0  0  0  0  0  0  0
   35.1860   26.6400   38.7250 H   0  0  0  0  0  0  0  0  0  0  0  0
   36.4850   27.2190   40.3380 C   0  0  0  0  0  0  0  0  0  0  0  0
   35.5310   27.3920   40.8980 H   0  0  0  0  0  0  0  0  0  0  0  0
   37.0670   28.1770   40.4400 H   0  0  0  0  0  0  0  0  0  0  0  0
   37.2180   26.1110   40.9890 C   0  0  0  0  0  0  0  0  0  0  0  0
   36.9620   24.7990   40.7060 N   0  0  0  0  0  0  0  0  0  0  0  0
   37.6300   23.8040   41.3230 C   0  0  0  0  0  3  0  0  0  0  0  0
   38.5900   24.0010   42.2530 N   0  0  0  0  0  0  0  0  0  0  0  0
   38.8730   25.2850   42.5610 C   0  0  0  0  0  0  0  0  0  0  0  0
   39.8590   25.5580   43.5120 C   0  0  0  0  0  3  0  0  0  0  0  0
   40.1960   26.8460   43.8630 C   0  0  0  0  0  0  0  0  0  0  0  0
   40.9540   27.0860   44.5950 H   0  0  0  0  0  0  0  0  0  0  0  0
   39.5260   27.8710   43.2440 C   0  0  0  0  0  0  0  0  0  0  0  0
   39.7950   28.9000   43.5250 H   0  0  0  0  0  0  0  0  0  0  0  0
   38.5510   27.5990   42.3060 C   0  0  0  0  0  3  0  0  0  0  0  0
   38.1960   26.3370   41.9370 C   0  0  0  0  0  0  0  0  0  0  0  0
  1  6  1  0  0  0  0
  1 11  1  0  0  0  0
  2  1  2  0  0  0  0
  3  4  2  0  0  0  0
  3  2  1  0  0  0  0
  4  5  1  0  0  0  0
  5  6  2  0  0  0  0
  5 28  1  0  0  0  0
  7  2  1  0  0  0  0
  8  3  1  0  0  0  0
  9 12  1  6  0  0  0
  9 16  1  0  0  0  0
  9 10  1  0  0  0  0
 10 14  1  0  0  0  0
 10 13  1  0  0  0  0
 11 15  1  6  0  0  0
 11  9  1  0  0  0  0
 11 10  1  0  0  0  0
 16 21  1  0  0  0  0
 17 16  2  0  0  0  0
 17 18  1  0  0  0  0
 18 19  2  0  0  0  0
 19 20  1  0  0  0  0
 20 24  1  0  0  0  0
 21 20  2  0  0  0  0
 22 17  1  0  0  0  0
 23 18  1  0  0  0  0
 24 26  1  0  0  0  0
 24 25  1  0  0  0  0
 27 24  1  0  0  0  0
 28 31  1  0  0  0  0
 29 28  1  0  0  0  0
 30 28  1  0  0  0  0
 31 33  1  0  0  0  0
 31 32  1  0  0  0  0
 31 34  1  0  0  0  0
 34 45  1  0  0  0  0
 35 34  2  0  0  0  0
 35 36  1  0  0  0  0
 36 37  2  0  0  0  0
 37 38  1  0  0  0  0
 38 39  1  0  0  0  0
 39 40  2  0  0  0  0
 40 41  1  0  0  0  0
 42 43  1  0  0  0  0
 42 40  1  0  0  0  0
 44 42  2  0  0  0  0
 45 44  1  0  0  0  0
 45 38  2  0  0  0  0
M  END
>  <minimizedAffinity>
-6.94406652

$$$$

 OpenBabel03252505443D

 45 49  0  0  1  0  0  0  0  0999 V2000
   39.4750   33.6350   39.9910 C   0  0  0  0  0  0  0  0  0  0  0  0
   39.8110   34.8880   40.4370 C   0  0  0  0  0  0  0  0  0  0  0  0
   40.8930   35.5950   39.9590 C   0  0  0  0  0  0  0  0  0  0  0  0
   41.6440   35.0010   39.0050 N   0  0  0  0  0  0  0  0  0  0  0  0
   41.3250   33.7640   38.5550 C   0  0  0  0  0  0  0  0  0  0  0  0
   40.2650   33.0890   39.0310 N   0  0  0  0  0  0  0  0  0  0  0  0
   39.2010   35.3620   41.2070 H   0  0  0  0  0  0  0  0  0  0  0  0
   41.1150   36.5810   40.3450 H   0  0  0  0  0  0  0  0  0  0  0  0
   37.9500   31.6860   39.8540 C   0  0  1  0  0  0  0  0  0  0  0  0
   37.0020   32.9220   39.7560 C   0  0  0  0  0  0  0  0  0  0  0  0
   38.2940   32.8830   40.5630 C   0  0  2  0  0  0  0  0  0  0  0  0
   38.3910   31.4800   38.8440 H   0  0  0  0  0  0  0  0  0  0  0  0
   36.0820   32.8810   40.3820 H   0  0  0  0  0  0  0  0  0  0  0  0
   37.0290   33.5330   38.8560 H   0  0  0  0  0  0  0  0  0  0  0  0
   38.2110   33.0700   41.6400 H   0  0  0  0  0  0  0  0  0  0  0  0
   37.3270   30.5000   40.4780 C   0  0  0  0  0  0  0  0  0  0  0  0
   36.2100   29.9380   39.8370 C   0  0  0  0  0  0  0  0  0  0  0  0
   35.6090   28.8170   40.4070 C   0  0  0  0  0  0  0  0  0  0  0  0
   36.1330   28.3260   41.5510 N   0  0  0  0  0  0  0  0  0  0  0  0
   37.2100   28.8880   42.1470 C   0  0  0  0  0  0  0  0  0  0  0  0
   37.7620   29.9610   41.5750 N   0  0  0  0  0  0  0  0  0  0  0  0
   35.7940   30.3270   38.9290 H   0  0  0  0  0  0  0  0  0  0  0  0
   34.7470   28.3510   39.9470 H   0  0  0  0  0  0  0  0  0  0  0  0
   37.6330   28.1970   43.3950 C   0  0  0  0  0  0  0  0  0  0  0  0
   39.0030   28.0230   43.4370 F   0  0  0  0  0  0  0  0  0  0  0  0
   37.0790   26.8990   43.4240 F   0  0  0  0  0  0  0  0  0  0  0  0
   37.1310   28.8440   44.4900 F   0  0  0  0  0  0  0  0  0  0  0  0
   42.1390   33.0610   37.5170 C   0  0  0  0  0  0  0  0  0  0  0  0
   43.1370   32.8260   37.9840 H   0  0  0  0  0  0  0  0  0  0  0  0
   42.3620   33.6890   36.6590 H   0  0  0  0  0  0  0  0  0  0  0  0
   41.5000   31.7740   37.1270 C   0  0  0  0  0  0  0  0  0  0  0  0
   40.7780   31.9490   36.2890 H   0  0  0  0  0  0  0  0  0  0  0  0
   40.8710   31.4260   37.9930 H   0  0  0  0  0  0  0  0  0  0  0  0
   42.4390   30.7040   36.7220 C   0  0  0  0  0  0  0  0  0  0  0  0
   43.7220   30.9670   36.3330 N   0  0  0  0  0  0  0  0  0  0  0  0
   44.5560   29.9770   35.9530 C   0  0  0  0  0  3  0  0  0  0  0  0
   44.2150   28.6710   35.9200 N   0  0  0  0  0  0  0  0  0  0  0  0
   42.9540   28.3710   36.2980 C   0  0  0  0  0  0  0  0  0  0  0  0
   42.5390   27.0370   36.2920 C   0  0  0  0  0  3  0  0  0  0  0  0
   41.2680   26.6680   36.6720 C   0  0  0  0  0  0  0  0  0  0  0  0
   40.9200   25.6450   36.6760 H   0  0  0  0  0  0  0  0  0  0  0  0
   40.4060   27.6610   37.0630 C   0  0  0  0  0  0  0  0  0  0  0  0
   39.3910   27.3660   37.3660 H   0  0  0  0  0  0  0  0  0  0  0  0
   40.8170   28.9780   37.0670 C   0  0  0  0  0  3  0  0  0  0  0  0
   42.0670   29.3750   36.6980 C   0  0  0  0  0  0  0  0  0  0  0  0
  1  2  1  0  0  0  0
  1 11  1  0  0  0  0
  2  7  1  0  0  0  0
  3  8  1  0  0  0  0
  3  2  2  0  0  0  0
  4  3  1  0  0  0  0
  5  4  2  0  0  0  0
  5  6  1  0  0  0  0
  6  1  2  0  0  0  0
  9 12  1  6  0  0  0
  9 16  1  0  0  0  0
  9 11  1  0  0  0  0
 10  9  1  0  0  0  0
 10 13  1  0  0  0  0
 10 11  1  0  0  0  0
 11 15  1  1  0  0  0
 14 10  1  0  0  0  0
 16 21  1  0  0  0  0
 17 18  1  0  0  0  0
 17 16  2  0  0  0  0
 18 19  2  0  0  0  0
 19 20  1  0  0  0  0
 20 24  1  0  0  0  0
 21 20  2  0  0  0  0
 22 17  1  0  0  0  0
 23 18  1  0  0  0  0
 24 26  1  0  0  0  0
 24 25  1  0  0  0  0
 24 27  1  0  0  0  0
 28 29  1  0  0  0  0
 28  5  1  0  0  0  0
 30 28  1  0  0  0  0
 31 28  1  0  0  0  0
 31 33  1  0  0  0  0
 32 31  1  0  0  0  0
 34 31  1  0  0  0  0
 35 34  2  0  0  0  0
 36 35  1  0  0  0  0
 37 36  2  0  0  0  0
 37 38  1  0  0  0  0
 38 45  1  0  0  0  0
 39 38  2  0  0  0  0
 39 40  1  0  0  0  0
 40 41  1  0  0  0  0
 40 42  2  0  0  0  0
 42 44  1  0  0  0  0
 42 43  1  0  0  0  0
 45 34  1  0  0  0  0
 45 44  2  0  0  0  0
M  END
>  <minimizedAffinity>
-6.72394753

$$$$

 OpenBabel03252505443D

 45 49  0  0  1  0  0  0  0  0999 V2000
   35.6490   28.1220   38.6340 C   0  0  0  0  0  0  0  0  0  0  0  0
   34.6850   28.0100   37.6630 C   0  0  0  0  0  0  0  0  0  0  0  0
   34.3500   26.8150   37.0660 C   0  0  0  0  0  0  0  0  0  0  0  0
   35.0190   25.7140   37.4720 N   0  0  0  0  0  0  0  0  0  0  0  0
   35.9730   25.8080   38.4290 C   0  0  0  0  0  0  0  0  0  0  0  0
   36.2880   26.9810   39.0030 N   0  0  0  0  0  0  0  0  0  0  0  0
   34.1490   28.9030   37.3400 H   0  0  0  0  0  0  0  0  0  0  0  0
   33.5810   26.7820   36.3050 H   0  0  0  0  0  0  0  0  0  0  0  0
   36.9220   29.3850   40.3440 C   0  0  1  0  0  0  0  0  0  0  0  0
   35.4310   29.7560   40.6240 C   0  0  0  0  0  0  0  0  0  0  0  0
   36.0060   29.4580   39.2440 C   0  0  2  0  0  0  0  0  0  0  0  0
   37.1510   28.3990   40.8250 H   0  0  0  0  0  0  0  0  0  0  0  0
   35.2220   30.8350   40.7980 H   0  0  0  0  0  0  0  0  0  0  0  0
   34.7690   28.9940   41.0300 H   0  0  0  0  0  0  0  0  0  0  0  0
   35.9260   30.2510   38.4920 H   0  0  0  0  0  0  0  0  0  0  0  0
   37.8810   30.4510   40.7000 C   0  0  0  0  0  0  0  0  0  0  0  0
   38.9660   30.1040   41.5230 C   0  0  0  0  0  0  0  0  0  0  0  0
   39.8840   31.0940   41.8680 C   0  0  0  0  0  0  0  0  0  0  0  0
   39.6850   32.3420   41.3900 N   0  0  0  0  0  0  0  0  0  0  0  0
   38.6310   32.6480   40.5990 C   0  0  0  0  0  0  0  0  0  0  0  0
   37.7690   31.6760   40.2870 N   0  0  0  0  0  0  0  0  0  0  0  0
   39.1250   29.1140   41.9020 H   0  0  0  0  0  0  0  0  0  0  0  0
   40.7350   30.8710   42.4990 H   0  0  0  0  0  0  0  0  0  0  0  0
   38.5930   34.0740   40.1770 C   0  0  0  0  0  0  0  0  0  0  0  0
   39.6690   34.3900   39.3690 F   0  0  0  0  0  0  0  0  0  0  0  0
   38.7080   34.9030   41.3130 F   0  0  0  0  0  0  0  0  0  0  0  0
   37.3820   34.3720   39.6160 F   0  0  0  0  0  0  0  0  0  0  0  0
   36.7520   24.6190   38.8930 C   0  0  0  0  0  0  0  0  0  0  0  0
   37.8280   24.7970   38.6070 H   0  0  0  0  0  0  0  0  0  0  0  0
   36.4670   23.7030   38.3860 H   0  0  0  0  0  0  0  0  0  0  0  0
   36.6870   24.4910   40.3750 C   0  0  0  0  0  0  0  0  0  0  0  0
   36.4970   23.4240   40.6540 H   0  0  0  0  0  0  0  0  0  0  0  0
   35.7800   25.0560   40.7290 H   0  0  0  0  0  0  0  0  0  0  0  0
   37.8880   24.9600   41.1000 C   0  0  0  0  0  0  0  0  0  0  0  0
   39.1380   24.4790   40.8300 N   0  0  0  0  0  0  0  0  0  0  0  0
   40.2190   24.9080   41.5150 C   0  0  0  0  0  3  0  0  0  0  0  0
   40.1710   25.8260   42.5030 N   0  0  0  0  0  0  0  0  0  0  0  0
   38.9530   26.3270   42.8000 C   0  0  0  0  0  0  0  0  0  0  0  0
   38.8350   27.2860   43.8090 C   0  0  0  0  0  3  0  0  0  0  0  0
   37.6210   27.8370   44.1530 C   0  0  0  0  0  0  0  0  0  0  0  0
   37.5010   28.5780   44.9300 H   0  0  0  0  0  0  0  0  0  0  0  0
   36.5120   27.4120   43.4660 C   0  0  0  0  0  0  0  0  0  0  0  0
   35.5420   27.8520   43.7420 H   0  0  0  0  0  0  0  0  0  0  0  0
   36.6300   26.4640   42.4710 C   0  0  0  0  0  3  0  0  0  0  0  0
   37.8150   25.9010   42.1080 C   0  0  0  0  0  0  0  0  0  0  0  0
  1  6  1  0  0  0  0
  1 11  1  0  0  0  0
  2  1  2  0  0  0  0
  3  4  2  0  0  0  0
  3  2  1  0  0  0  0
  4  5  1  0  0  0  0
  5 28  1  0  0  0  0
  5  6  2  0  0  0  0
  7  2  1  0  0  0  0
  8  3  1  0  0  0  0
  9 10  1  0  0  0  0
  9 16  1  0  0  0  0
  9 12  1  1  0  0  0
 10 13  1  0  0  0  0
 10 14  1  0  0  0  0
 11 15  1  6  0  0  0
 11  9  1  0  0  0  0
 11 10  1  0  0  0  0
 16 17  1  0  0  0  0
 17 18  2  0  0  0  0
 17 22  1  0  0  0  0
 18 23  1  0  0  0  0
 19 18  1  0  0  0  0
 20 19  2  0  0  0  0
 21 20  1  0  0  0  0
 21 16  2  0  0  0  0
 24 20  1  0  0  0  0
 24 26  1  0  0  0  0
 25 24  1  0  0  0  0
 27 24  1  0  0  0  0
 28 31  1  0  0  0  0
 29 28  1  0  0  0  0
 30 28  1  0  0  0  0
 31 32  1  0  0  0  0
 31 33  1  0  0  0  0
 31 34  1  0  0  0  0
 34 45  1  0  0  0  0
 35 34  2  0  0  0  0
 35 36  1  0  0  0  0
 36 37  2  0  0  0  0
 37 38  1  0  0  0  0
 38 39  1  0  0  0  0
 39 40  2  0  0  0  0
 40 41  1  0  0  0  0
 42 43  1  0  0  0  0
 42 40  1  0  0  0  0
 44 42  2  0  0  0  0
 45 44  1  0  0  0  0
 45 38  2  0  0  0  0
M  END
>  <minimizedAffinity>
-6.68761396

$$$$

 OpenBabel03252505443D

 45 49  0  0  1  0  0  0  0  0999 V2000
   38.4430   30.7010   39.8100 C   0  0  0  0  0  0  0  0  0  0  0  0
   37.1200   30.9950   39.5980 C   0  0  0  0  0  0  0  0  0  0  0  0
   36.1360   30.7700   40.5360 C   0  0  0  0  0  0  0  0  0  0  0  0
   36.5200   30.2310   41.7140 N   0  0  0  0  0  0  0  0  0  0  0  0
   37.8220   29.9350   41.9390 C   0  0  0  0  0  0  0  0  0  0  0  0
   38.7700   30.1620   41.0140 N   0  0  0  0  0  0  0  0  0  0  0  0
   36.8170   31.4300   38.6450 H   0  0  0  0  0  0  0  0  0  0  0  0
   35.1060   31.0210   40.3180 H   0  0  0  0  0  0  0  0  0  0  0  0
   39.9240   32.2990   38.6290 C   0  0  1  0  0  0  0  0  0  0  0  0
   39.0330   31.6940   37.4980 C   0  0  0  0  0  0  0  0  0  0  0  0
   39.4870   30.9390   38.7420 C   0  0  2  0  0  0  0  0  0  0  0  0
   39.3570   33.1200   39.1420 H   0  0  0  0  0  0  0  0  0  0  0  0
   39.5660   31.3880   36.5710 H   0  0  0  0  0  0  0  0  0  0  0  0
   37.9770   31.9540   37.4670 H   0  0  0  0  0  0  0  0  0  0  0  0
   40.0790   30.0310   38.5830 H   0  0  0  0  0  0  0  0  0  0  0  0
   41.2710   32.7050   38.1790 C   0  0  0  0  0  0  0  0  0  0  0  0
   41.6180   34.0610   38.2990 C   0  0  0  0  0  0  0  0  0  0  0  0
   42.8850   34.4650   37.8830 C   0  0  0  0  0  0  0  0  0  0  0  0
   43.7200   33.5270   37.3840 N   0  0  0  0  0  0  0  0  0  0  0  0
   43.3590   32.2270   37.2790 C   0  0  0  0  0  0  0  0  0  0  0  0
   42.1380   31.8740   37.6870 N   0  0  0  0  0  0  0  0  0  0  0  0
   40.9560   34.8060   38.6960 H   0  0  0  0  0  0  0  0  0  0  0  0
   43.1940   35.5000   37.9590 H   0  0  0  0  0  0  0  0  0  0  0  0
   44.4210   31.3560   36.7070 C   0  0  0  0  0  0  0  0  0  0  0  0
   44.0440   30.8400   35.4810 F   0  0  0  0  0  0  0  0  0  0  0  0
   44.6190   30.2410   37.5490 F   0  0  0  0  0  0  0  0  0  0  0  0
   45.6150   32.0210   36.6760 F   0  0  0  0  0  0  0  0  0  0  0  0
   38.2880   29.3190   43.2180 C   0  0  0  0  0  0  0  0  0  0  0  0
   37.9520   29.9980   44.0530 H   0  0  0  0  0  0  0  0  0  0  0  0
   39.3700   29.2780   43.2980 H   0  0  0  0  0  0  0  0  0  0  0  0
   37.6540   27.9880   43.4260 C   0  0  0  0  0  0  0  0  0  0  0  0
   36.7930   27.8650   42.7210 H   0  0  0  0  0  0  0  0  0  0  0  0
   37.1970   27.9830   44.4550 H   0  0  0  0  0  0  0  0  0  0  0  0
   38.5590   26.8290   43.2700 C   0  0  0  0  0  0  0  0  0  0  0  0
   39.7720   26.7600   43.8940 N   0  0  0  0  0  0  0  0  0  0  0  0
   40.5900   25.7000   43.7240 C   0  0  0  0  0  3  0  0  0  0  0  0
   40.2980   24.6380   42.9440 N   0  0  0  0  0  0  0  0  0  0  0  0
   39.1070   24.6680   42.3090 C   0  0  0  0  0  0  0  0  0  0  0  0
   38.7410   23.5970   41.4900 C   0  0  0  0  0  3  0  0  0  0  0  0
   37.5370   23.5680   40.8220 C   0  0  0  0  0  0  0  0  0  0  0  0
   37.2300   22.7540   40.1820 H   0  0  0  0  0  0  0  0  0  0  0  0
   36.6930   24.6370   40.9840 C   0  0  0  0  0  0  0  0  0  0  0  0
   35.7320   24.6140   40.4490 H   0  0  0  0  0  0  0  0  0  0  0  0
   37.0560   25.6950   41.7920 C   0  0  0  0  0  3  0  0  0  0  0  0
   38.2380   25.7520   42.4660 C   0  0  0  0  0  0  0  0  0  0  0  0
  1  6  1  0  0  0  0
  2  1  2  0  0  0  0
  2  3  1  0  0  0  0
  3  4  2  0  0  0  0
  4  5  1  0  0  0  0
  5 28  1  0  0  0  0
  6  5  2  0  0  0  0
  7  2  1  0  0  0  0
  8  3  1  0  0  0  0
  9 11  1  0  0  0  0
  9 12  1  1  0  0  0
 10  9  1  0  0  0  0
 10 11  1  0  0  0  0
 11 15  1  6  0  0  0
 11  1  1  0  0  0  0
 13 10  1  0  0  0  0
 14 10  1  0  0  0  0
 16 17  1  0  0  0  0
 16  9  1  0  0  0  0
 17 22  1  0  0  0  0
 18 23  1  0  0  0  0
 18 17  2  0  0  0  0
 19 18  1  0  0  0  0
 20 19  2  0  0  0  0
 20 21  1  0  0  0  0
 21 16  2  0  0  0  0
 24 20  1  0  0  0  0
 24 26  1  0  0  0  0
 25 24  1  0  0  0  0
 27 24  1  0  0  0  0
 28 30  1  0  0  0  0
 28 31  1  0  0  0  0
 28 29  1  0  0  0  0
 31 33  1  0  0  0  0
 32 31  1  0  0  0  0
 34 31  1  0  0  0  0
 34 35  1  0  0  0  0
 36 35  2  0  0  0  0
 37 36  1  0  0  0  0
 38 45  1  0  0  0  0
 38 37  2  0  0  0  0
 39 38  1  0  0  0  0
 40 42  1  0  0  0  0
 40 39  2  0  0  0  0
 41 40  1  0  0  0  0
 42 44  2  0  0  0  0
 43 42  1  0  0  0  0
 44 45  1  0  0  0  0
 45 34  2  0  0  0  0
M  END
>  <minimizedAffinity>
-6.66035366

$$$$

 OpenBabel03252505443D

 45 49  0  0  1  0  0  0  0  0999 V2000
   37.5890   29.8870   39.7330 C   0  0  0  0  0  0  0  0  0  0  0  0
   38.0880   31.1590   39.6110 C   0  0  0  0  0  0  0  0  0  0  0  0
   38.6900   31.8380   40.6490 C   0  0  0  0  0  0  0  0  0  0  0  0
   38.7780   31.1970   41.8340 N   0  0  0  0  0  0  0  0  0  0  0  0
   38.2900   29.9410   41.9710 C   0  0  0  0  0  0  0  0  0  0  0  0
   37.7080   29.2920   40.9490 N   0  0  0  0  0  0  0  0  0  0  0  0
   38.0130   31.6710   38.6510 H   0  0  0  0  0  0  0  0  0  0  0  0
   39.0670   32.8410   40.4990 H   0  0  0  0  0  0  0  0  0  0  0  0
   36.4770   30.0630   37.5260 C   0  0  1  0  0  0  0  0  0  0  0  0
   35.4060   29.3890   38.4420 C   0  0  0  0  0  0  0  0  0  0  0  0
   36.9120   29.1890   38.5760 C   0  0  2  0  0  0  0  0  0  0  0  0
   36.4510   31.1720   37.6870 H   0  0  0  0  0  0  0  0  0  0  0  0
   34.8760   28.5130   38.0070 H   0  0  0  0  0  0  0  0  0  0  0  0
   34.9400   29.9810   39.2270 H   0  0  0  0  0  0  0  0  0  0  0  0
   37.2860   28.1640   38.4800 H   0  0  0  0  0  0  0  0  0  0  0  0
   36.3810   29.6710   36.1040 C   0  0  0  0  0  0  0  0  0  0  0  0
   36.1610   28.3140   35.8160 C   0  0  0  0  0  0  0  0  0  0  0  0
   36.0640   27.9230   34.4820 C   0  0  0  0  0  0  0  0  0  0  0  0
   36.1850   28.8740   33.5300 N   0  0  0  0  0  0  0  0  0  0  0  0
   36.3970   30.1750   33.8370 C   0  0  0  0  0  0  0  0  0  0  0  0
   36.4850   30.5150   35.1240 N   0  0  0  0  0  0  0  0  0  0  0  0
   36.0630   27.5590   36.5710 H   0  0  0  0  0  0  0  0  0  0  0  0
   35.8940   26.8880   34.2140 H   0  0  0  0  0  0  0  0  0  0  0  0
   36.5000   31.0610   32.6460 C   0  0  0  0  0  0  0  0  0  0  0  0
   37.6080   31.8840   32.7230 F   0  0  0  0  0  0  0  0  0  0  0  0
   35.3830   31.9230   32.6040 F   0  0  0  0  0  0  0  0  0  0  0  0
   36.4480   30.3220   31.4970 F   0  0  0  0  0  0  0  0  0  0  0  0
   38.3480   29.2020   43.2690 C   0  0  0  0  0  0  0  0  0  0  0  0
   37.8340   29.8460   44.0390 H   0  0  0  0  0  0  0  0  0  0  0  0
   39.3620   29.0700   43.6350 H   0  0  0  0  0  0  0  0  0  0  0  0
   37.6050   27.9150   43.1790 C   0  0  0  0  0  0  0  0  0  0  0  0
   36.8950   27.9480   42.3140 H   0  0  0  0  0  0  0  0  0  0  0  0
   36.9550   27.8290   44.0930 H   0  0  0  0  0  0  0  0  0  0  0  0
   38.4520   26.7090   43.0460 C   0  0  0  0  0  0  0  0  0  0  0  0
   39.5900   26.5310   43.7800 N   0  0  0  0  0  0  0  0  0  0  0  0
   40.3560   25.4310   43.6310 C   0  0  0  0  0  3  0  0  0  0  0  0
   40.0820   24.4290   42.7680 N   0  0  0  0  0  0  0  0  0  0  0  0
   38.9640   24.5680   42.0230 C   0  0  0  0  0  0  0  0  0  0  0  0
   38.6200   23.5650   41.1140 C   0  0  0  0  0  3  0  0  0  0  0  0
   37.4900   23.6480   40.3310 C   0  0  0  0  0  0  0  0  0  0  0  0
   37.2010   22.8880   39.6190 H   0  0  0  0  0  0  0  0  0  0  0  0
   36.6990   24.7600   40.4700 C   0  0  0  0  0  0  0  0  0  0  0  0
   35.7960   24.8250   39.8440 H   0  0  0  0  0  0  0  0  0  0  0  0
   37.0410   25.7500   41.3670 C   0  0  0  0  0  3  0  0  0  0  0  0
   38.1500   25.6970   42.1560 C   0  0  0  0  0  0  0  0  0  0  0  0
  1  6  1  0  0  0  0
  2  1  2  0  0  0  0
  2  3  1  0  0  0  0
  3  4  2  0  0  0  0
  4  5  1  0  0  0  0
  5 28  1  0  0  0  0
  6  5  2  0  0  0  0
  7  2  1  0  0  0  0
  8  3  1  0  0  0  0
  9 12  1  1  0  0  0
  9 10  1  0  0  0  0
  9 11  1  0  0  0  0
 10 11  1  0  0  0  0
 10 14  1  0  0  0  0
 11 15  1  6  0  0  0
 11  1  1  0  0  0  0
 13 10  1  0  0  0  0
 16  9  1  0  0  0  0
 17 16  1  0  0  0  0
 17 22  1  0  0  0  0
 18 17  2  0  0  0  0
 19 20  2  0  0  0  0
 19 18  1  0  0  0  0
 20 21  1  0  0  0  0
 21 16  2  0  0  0  0
 23 18  1  0  0  0  0
 24 25  1  0  0  0  0
 24 20  1  0  0  0  0
 26 24  1  0  0  0  0
 27 24  1  0  0  0  0
 28 30  1  0  0  0  0
 28 29  1  0  0  0  0
 31 28  1  0  0  0  0
 31 33  1  0  0  0  0
 32 31  1  0  0  0  0
 34 31  1  0  0  0  0
 34 35  1  0  0  0  0
 36 35  2  0  0  0  0
 37 36  1  0  0  0  0
 38 45  1  0  0  0  0
 38 37  2  0  0  0  0
 39 38  1  0  0  0  0
 40 42  1  0  0  0  0
 40 39  2  0  0  0  0
 41 40  1  0  0  0  0
 42 44  2  0  0  0  0
 43 42  1  0  0  0  0
 44 45  1  0  0  0  0
 45 34  2  0  0  0  0
M  END
>  <minimizedAffinity>
-6.50413513

$$$$

 OpenBabel03252505443D

 45 49  0  0  1  0  0  0  0  0999 V2000
   35.4930   26.7290   38.1200 C   0  0  0  0  0  0  0  0  0  0  0  0
   34.6610   26.1240   37.2120 C   0  0  0  0  0  0  0  0  0  0  0  0
   34.4870   24.7590   37.1380 C   0  0  0  0  0  0  0  0  0  0  0  0
   35.1840   24.0020   38.0130 N   0  0  0  0  0  0  0  0  0  0  0  0
   36.0090   24.5830   38.9150 C   0  0  0  0  0  0  0  0  0  0  0  0
   36.1660   25.9170   38.9760 N   0  0  0  0  0  0  0  0  0  0  0  0
   34.1020   26.7420   36.5080 H   0  0  0  0  0  0  0  0  0  0  0  0
   33.8180   24.3330   36.4020 H   0  0  0  0  0  0  0  0  0  0  0  0
   36.6020   28.6980   39.1360 C   0  0  1  0  0  0  0  0  0  0  0  0
   35.0780   28.9680   39.3410 C   0  0  0  0  0  0  0  0  0  0  0  0
   35.6750   28.2290   38.1490 C   0  0  2  0  0  0  0  0  0  0  0  0
   36.9640   28.0100   39.9440 H   0  0  0  0  0  0  0  0  0  0  0  0
   34.7290   29.9980   39.1000 H   0  0  0  0  0  0  0  0  0  0  0  0
   34.5260   28.3510   40.0470 H   0  0  0  0  0  0  0  0  0  0  0  0
   35.4840   28.6530   37.1570 H   0  0  0  0  0  0  0  0  0  0  0  0
   37.4150   29.9240   38.9980 C   0  0  0  0  0  0  0  0  0  0  0  0
   37.5620   30.4660   37.7100 C   0  0  0  0  0  0  0  0  0  0  0  0
   38.3220   31.6250   37.5570 C   0  0  0  0  0  0  0  0  0  0  0  0
   38.8800   32.1700   38.6600 N   0  0  0  0  0  0  0  0  0  0  0  0
   38.7210   31.6260   39.8890 C   0  0  0  0  0  0  0  0  0  0  0  0
   37.9870   30.5160   40.0000 N   0  0  0  0  0  0  0  0  0  0  0  0
   37.1190   30.0340   36.8340 H   0  0  0  0  0  0  0  0  0  0  0  0
   38.4620   32.0770   36.5830 H   0  0  0  0  0  0  0  0  0  0  0  0
   39.4120   32.3790   40.9710 C   0  0  0  0  0  0  0  0  0  0  0  0
   39.4420   31.6570   42.1490 F   0  0  0  0  0  0  0  0  0  0  0  0
   38.6910   33.5570   41.2580 F   0  0  0  0  0  0  0  0  0  0  0  0
   40.6470   32.7880   40.5500 F   0  0  0  0  0  0  0  0  0  0  0  0
   36.8140   23.7830   39.8880 C   0  0  0  0  0  0  0  0  0  0  0  0
   37.9000   23.9530   39.6370 H   0  0  0  0  0  0  0  0  0  0  0  0
   36.6580   22.7130   39.7860 H   0  0  0  0  0  0  0  0  0  0  0  0
   36.5860   24.2580   41.2810 C   0  0  0  0  0  0  0  0  0  0  0  0
   36.1440   23.4320   41.8940 H   0  0  0  0  0  0  0  0  0  0  0  0
   35.7940   25.0570   41.2450 H   0  0  0  0  0  0  0  0  0  0  0  0
   37.7880   24.7690   41.9750 C   0  0  0  0  0  0  0  0  0  0  0  0
   38.8820   23.9870   42.2120 N   0  0  0  0  0  0  0  0  0  0  0  0
   39.9620   24.4680   42.8620 C   0  0  0  0  0  3  0  0  0  0  0  0
   40.0630   25.7310   43.3280 N   0  0  0  0  0  0  0  0  0  0  0  0
   39.0000   26.5370   43.1140 C   0  0  0  0  0  0  0  0  0  0  0  0
   39.0420   27.8580   43.5660 C   0  0  0  0  0  3  0  0  0  0  0  0
   37.9920   28.7280   43.3720 C   0  0  0  0  0  0  0  0  0  0  0  0
   37.9970   29.7540   43.7130 H   0  0  0  0  0  0  0  0  0  0  0  0
   36.8870   28.2550   42.7120 C   0  0  0  0  0  0  0  0  0  0  0  0
   36.0490   28.9510   42.5580 H   0  0  0  0  0  0  0  0  0  0  0  0
   36.8470   26.9500   42.2670 C   0  0  0  0  0  3  0  0  0  0  0  0
   37.8680   26.0660   42.4430 C   0  0  0  0  0  0  0  0  0  0  0  0
  1 11  1  0  0  0  0
  1  6  1  0  0  0  0
  2  1  2  0  0  0  0
  3  2  1  0  0  0  0
  3  4  2  0  0  0  0
  4  5  1  0  0  0  0
  5  6  2  0  0  0  0
  5 28  1  0  0  0  0
  7  2  1  0  0  0  0
  8  3  1  0  0  0  0
  9 10  1  0  0  0  0
  9 12  1  1  0  0  0
 10 14  1  0  0  0  0
 11 15  1  6  0  0  0
 11  9  1  0  0  0  0
 11 10  1  0  0  0  0
 13 10  1  0  0  0  0
 16  9  1  0  0  0  0
 16 21  1  0  0  0  0
 17 16  2  0  0  0  0
 18 17  1  0  0  0  0
 18 19  2  0  0  0  0
 19 20  1  0  0  0  0
 20 21  2  0  0  0  0
 20 24  1  0  0  0  0
 22 17  1  0  0  0  0
 23 18  1  0  0  0  0
 24 26  1  0  0  0  0
 24 25  1  0  0  0  0
 27 24  1  0  0  0  0
 28 31  1  0  0  0  0
 29 28  1  0  0  0  0
 30 28  1  0  0  0  0
 31 32  1  0  0  0  0
 31 34  1  0  0  0  0
 33 31  1  0  0  0  0
 34 35  2  0  0  0  0
 34 45  1  0  0  0  0
 35 36  1  0  0  0  0
 36 37  2  0  0  0  0
 38 37  1  0  0  0  0
 38 39  1  0  0  0  0
 40 39  2  0  0  0  0
 40 41  1  0  0  0  0
 42 40  1  0  0  0  0
 43 42  1  0  0  0  0
 44 45  1  0  0  0  0
 44 42  2  0  0  0  0
 45 38  2  0  0  0  0
M  END
>  <minimizedAffinity>
-6.49362803

$$$$

 OpenBabel03252505443D

 45 49  0  0  1  0  0  0  0  0999 V2000
   37.6530   29.0920   39.1400 C   0  0  0  0  0  0  0  0  0  0  0  0
   37.4430   28.0220   38.3080 C   0  0  0  0  0  0  0  0  0  0  0  0
   36.9320   26.8170   38.7400 C   0  0  0  0  0  0  0  0  0  0  0  0
   36.6320   26.7120   40.0530 N   0  0  0  0  0  0  0  0  0  0  0  0
   36.8350   27.7590   40.8870 C   0  0  0  0  0  0  0  0  0  0  0  0
   37.3330   28.9280   40.4500 N   0  0  0  0  0  0  0  0  0  0  0  0
   37.6870   28.1140   37.2480 H   0  0  0  0  0  0  0  0  0  0  0  0
   36.7850   26.0040   38.0420 H   0  0  0  0  0  0  0  0  0  0  0  0
   37.8620   31.5500   39.3750 C   0  0  1  0  0  0  0  0  0  0  0  0
   37.2830   31.3510   37.9390 C   0  0  0  0  0  0  0  0  0  0  0  0
   38.2430   30.3870   38.6280 C   0  0  2  0  0  0  0  0  0  0  0  0
   37.0250   31.4970   40.1180 H   0  0  0  0  0  0  0  0  0  0  0  0
   37.7580   31.9550   37.1330 H   0  0  0  0  0  0  0  0  0  0  0  0
   36.2600   30.9960   37.8300 H   0  0  0  0  0  0  0  0  0  0  0  0
   39.1990   30.1970   38.1280 H   0  0  0  0  0  0  0  0  0  0  0  0
   38.7030   32.7570   39.5190 C   0  0  0  0  0  0  0  0  0  0  0  0
   38.1180   33.8920   40.1070 C   0  0  0  0  0  0  0  0  0  0  0  0
   38.8940   35.0400   40.2560 C   0  0  0  0  0  0  0  0  0  0  0  0
   40.1750   35.0030   39.8260 N   0  0  0  0  0  0  0  0  0  0  0  0
   40.7110   33.8950   39.2630 C   0  0  0  0  0  0  0  0  0  0  0  0
   39.9410   32.8130   39.1360 N   0  0  0  0  0  0  0  0  0  0  0  0
   37.1020   33.9220   40.4490 H   0  0  0  0  0  0  0  0  0  0  0  0
   38.4850   35.9360   40.7040 H   0  0  0  0  0  0  0  0  0  0  0  0
   42.1350   34.0590   38.8600 C   0  0  0  0  0  0  0  0  0  0  0  0
   42.8980   34.5620   39.8970 F   0  0  0  0  0  0  0  0  0  0  0  0
   42.2220   35.0090   37.8210 F   0  0  0  0  0  0  0  0  0  0  0  0
   42.6190   32.8900   38.3430 F   0  0  0  0  0  0  0  0  0  0  0  0
   36.5370   27.6800   42.3500 C   0  0  0  0  0  0  0  0  0  0  0  0
   36.7630   26.6250   42.6760 H   0  0  0  0  0  0  0  0  0  0  0  0
   35.4860   27.8330   42.5760 H   0  0  0  0  0  0  0  0  0  0  0  0
   37.4220   28.5970   43.1200 C   0  0  0  0  0  0  0  0  0  0  0  0
   36.9940   28.7650   44.1420 H   0  0  0  0  0  0  0  0  0  0  0  0
   37.3930   29.6040   42.6180 H   0  0  0  0  0  0  0  0  0  0  0  0
   38.8230   28.1440   43.2660 C   0  0  0  0  0  0  0  0  0  0  0  0
   39.1440   26.8960   43.7180 N   0  0  0  0  0  0  0  0  0  0  0  0
   40.4280   26.5090   43.8580 C   0  0  0  0  0  3  0  0  0  0  0  0
   41.4900   27.2940   43.5740 N   0  0  0  0  0  0  0  0  0  0  0  0
   41.2140   28.5370   43.1240 C   0  0  0  0  0  0  0  0  0  0  0  0
   42.2670   29.3980   42.8070 C   0  0  0  0  0  3  0  0  0  0  0  0
   42.0480   30.6750   42.3390 C   0  0  0  0  0  0  0  0  0  0  0  0
   42.8430   31.3620   42.0870 H   0  0  0  0  0  0  0  0  0  0  0  0
   40.7480   31.0840   42.1890 C   0  0  0  0  0  0  0  0  0  0  0  0
   40.5740   32.1040   41.8150 H   0  0  0  0  0  0  0  0  0  0  0  0
   39.7090   30.2330   42.5040 C   0  0  0  0  0  3  0  0  0  0  0  0
   39.8920   28.9660   42.9680 C   0  0  0  0  0  0  0  0  0  0  0  0
  1  6  1  0  0  0  0
  2  3  1  0  0  0  0
  2  1  2  0  0  0  0
  3  4  2  0  0  0  0
  4  5  1  0  0  0  0
  5 28  1  0  0  0  0
  6  5  2  0  0  0  0
  7  2  1  0  0  0  0
  8  3  1  0  0  0  0
  9 16  1  0  0  0  0
  9 12  1  1  0  0  0
 10 11  1  0  0  0  0
 10  9  1  0  0  0  0
 11 15  1  6  0  0  0
 11  1  1  0  0  0  0
 11  9  1  0  0  0  0
 13 10  1  0  0  0  0
 14 10  1  0  0  0  0
 16 17  1  0  0  0  0
 17 18  2  0  0  0  0
 17 22  1  0  0  0  0
 18 23  1  0  0  0  0
 19 18  1  0  0  0  0
 20 19  2  0  0  0  0
 21 20  1  0  0  0  0
 21 16  2  0  0  0  0
 24 20  1  0  0  0  0
 24 25  1  0  0  0  0
 26 24  1  0  0  0  0
 27 24  1  0  0  0  0
 28 30  1  0  0  0  0
 28 29  1  0  0  0  0
 28 31  1  0  0  0  0
 31 34  1  0  0  0  0
 31 32  1  0  0  0  0
 33 31  1  0  0  0  0
 34 35  1  0  0  0  0
 35 36  2  0  0  0  0
 37 36  1  0  0  0  0
 38 37  2  0  0  0  0
 39 38  1  0  0  0  0
 40 39  2  0  0  0  0
 41 40  1  0  0  0  0
 42 40  1  0  0  0  0
 42 44  2  0  0  0  0
 43 42  1  0  0  0  0
 44 45  1  0  0  0  0
 45 38  1  0  0  0  0
 45 34  2  0  0  0  0
M  END
>  <minimizedAffinity>
-6.48483372

$$$$
