
 OpenBabel03252507223D

 50 54  0  0  1  0  0  0  0  0999 V2000
   46.1220   32.9880   42.4700 C   0  0  0  0  0  0  0  0  0  0  0  0
   47.3540   32.7180   42.4700 O   0  0  0  0  0  0  0  0  0  0  0  0
   45.2090   32.4760   41.5150 N   0  0  0  0  0  0  0  0  0  0  0  0
   43.8620   31.9040   41.6930 C   0  0  0  0  0  0  0  0  0  0  0  0
   42.8920   32.5880   40.7460 C   0  0  0  0  0  0  0  0  0  0  0  0
   43.2650   32.2890   39.3280 C   0  0  0  0  0  0  0  0  0  0  0  0
   44.6660   31.7110   39.2760 C   0  0  0  0  0  0  0  0  0  0  0  0
   45.6270   32.4920   40.1400 C   0  0  2  0  0  0  0  0  0  0  0  0
   43.5380   32.2310   42.7180 H   0  0  0  0  0  0  0  0  0  0  0  0
   43.8550   30.8140   41.5870 H   0  0  0  0  0  0  0  0  0  0  0  0
   41.8840   32.2360   41.0270 H   0  0  0  0  0  0  0  0  0  0  0  0
   42.9770   33.6770   40.9090 H   0  0  0  0  0  0  0  0  0  0  0  0
   42.5820   31.4620   38.9810 H   0  0  0  0  0  0  0  0  0  0  0  0
   43.1120   33.1150   38.6210 H   0  0  0  0  0  0  0  0  0  0  0  0
   45.0040   31.6620   38.2400 H   0  0  0  0  0  0  0  0  0  0  0  0
   44.6010   30.6770   39.6720 H   0  0  0  0  0  0  0  0  0  0  0  0
   45.5430   33.5540   39.7990 H   0  0  0  0  0  0  0  0  0  0  0  0
   45.1740   35.1530   43.1170 C   0  0  0  0  0  0  0  0  0  0  0  0
   45.6190   33.8680   43.4980 C   0  0  0  0  0  0  0  0  0  0  0  0
   45.5640   33.4930   44.8260 C   0  0  0  0  0  0  0  0  0  0  0  0
   45.0800   34.3750   45.7220 N   0  0  0  0  0  0  0  0  0  0  0  0
   44.6460   35.6180   45.3690 C   0  0  0  0  0  0  0  0  0  0  0  0
   44.7040   35.9810   44.0650 N   0  0  0  0  0  0  0  0  0  0  0  0
   45.2170   35.4480   42.0750 H   0  0  0  0  0  0  0  0  0  0  0  0
   44.2690   36.2770   46.1440 H   0  0  0  0  0  0  0  0  0  0  0  0
   46.0300   32.1630   45.1920 C   0  0  0  0  0  0  0  0  0  0  0  0
   45.3120   31.0650   44.8400 C   0  0  0  0  0  0  0  0  0  0  0  0
   45.7880   29.8170   45.2060 C   0  0  0  0  0  0  0  0  0  0  0  0
   46.9680   29.6430   45.9170 C   0  0  0  0  0  0  0  0  0  0  0  0
   47.6580   30.7940   46.2490 C   0  0  0  0  0  0  0  0  0  0  0  0
   47.1790   31.9910   45.8850 N   0  0  0  0  0  0  0  0  0  0  0  0
   44.3860   31.0920   44.2910 H   0  0  0  0  0  0  0  0  0  0  0  0
   45.2320   28.9270   44.9350 H   0  0  0  0  0  0  0  0  0  0  0  0
   47.3640   28.6840   46.2150 H   0  0  0  0  0  0  0  0  0  0  0  0
   48.5920   30.8070   46.8020 H   0  0  0  0  0  0  0  0  0  0  0  0
   47.0000   31.9600   39.9090 C   0  0  0  0  0  0  0  0  0  0  0  0
   46.9190   30.8910   39.6480 H   0  0  0  0  0  0  0  0  0  0  0  0
   47.7220   32.0570   40.7210 H   0  0  0  0  0  0  0  0  0  0  0  0
   47.6030   32.6040   38.6600 C   0  0  0  0  0  0  0  0  0  0  0  0
   47.8560   33.9460   38.6300 N   0  0  0  0  0  0  0  0  0  0  0  0
   48.4160   34.5390   37.5610 C   0  0  0  0  0  3  0  0  0  0  0  0
   48.7580   33.8190   36.4540 N   0  0  0  0  0  0  0  0  0  0  0  0
   48.5200   32.4860   36.4530 C   0  0  0  0  0  0  0  0  0  0  0  0
   48.8700   31.7870   35.3160 C   0  0  0  0  0  3  0  0  0  0  0  0
   48.6270   30.4290   35.2920 C   0  0  0  0  0  0  0  0  0  0  0  0
   48.8950   29.8560   34.4080 H   0  0  0  0  0  0  0  0  0  0  0  0
   48.0530   29.8060   36.3800 C   0  0  0  0  0  0  0  0  0  0  0  0
   47.8760   28.7320   36.3220 H   0  0  0  0  0  0  0  0  0  0  0  0
   47.6940   30.5060   37.5380 C   0  0  0  0  0  3  0  0  0  0  0  0
   47.9480   31.8600   37.5340 C   0  0  0  0  0  0  0  0  0  0  0  0
  1 19  1  0  0  0  0
  2  1  2  0  0  0  0
  3  4  1  0  0  0  0
  3  1  1  0  0  0  0
  4  9  1  0  0  0  0
  5 12  1  0  0  0  0
  5 11  1  0  0  0  0
  5  4  1  0  0  0  0
  6  5  1  0  0  0  0
  7  6  1  0  0  0  0
  7 16  1  0  0  0  0
  7  8  1  0  0  0  0
  8 17  1  6  0  0  0
  8  3  1  0  0  0  0
 10  4  1  0  0  0  0
 13  6  1  0  0  0  0
 14  6  1  0  0  0  0
 15  7  1  0  0  0  0
 18 19  2  0  0  0  0
 18 23  1  0  0  0  0
 19 20  1  0  0  0  0
 20 26  1  0  0  0  0
 20 21  2  0  0  0  0
 22 21  1  0  0  0  0
 22 25  1  0  0  0  0
 23 22  2  0  0  0  0
 24 18  1  0  0  0  0
 26 31  1  0  0  0  0
 27 26  2  0  0  0  0
 27 28  1  0  0  0  0
 28 29  2  0  0  0  0
 29 34  1  0  0  0  0
 29 30  1  0  0  0  0
 30 35  1  0  0  0  0
 31 30  2  0  0  0  0
 32 27  1  0  0  0  0
 33 28  1  0  0  0  0
 36  8  1  0  0  0  0
 36 38  1  0  0  0  0
 37 36  1  0  0  0  0
 39 36  1  0  0  0  0
 40 39  1  0  0  0  0
 41 40  2  0  0  0  0
 42 41  1  0  0  0  0
 43 42  2  0  0  0  0
 43 50  1  0  0  0  0
 44 43  1  0  0  0  0
 45 44  2  0  0  0  0
 45 47  1  0  0  0  0
 46 45  1  0  0  0  0
 47 49  2  0  0  0  0
 48 47  1  0  0  0  0
 50 49  1  0  0  0  0
 50 39  2  0  0  0  0
M  END
>  <minimizedAffinity>
-4.90405464

>  <minimizedRMSD>
2.95197725

$$$$
