
 OpenBabel03242520173D

 34 37  0  0  0  0  0  0  0  0999 V2000
   41.1250   36.0100   39.5880 C   0  0  0  0  0  0  0  0  0  0  0  0
   41.3300   37.0900   39.5210 H   0  0  0  0  0  0  0  0  0  0  0  0
   40.8140   35.6660   38.5820 H   0  0  0  0  0  0  0  0  0  0  0  0
   44.0840   34.6770   41.5120 C   0  0  0  0  0  0  0  0  0  0  0  0
   42.9510   35.4430   41.1900 C   0  0  0  0  0  0  0  0  0  0  0  0
   42.3300   35.2300   39.9630 C   0  0  0  0  0  0  0  0  0  0  0  0
   42.8640   34.2800   39.1370 N   0  0  0  0  0  0  0  0  0  0  0  0
   43.9630   33.5660   39.4980 C   0  0  0  0  0  0  0  0  0  0  0  0
   44.5680   33.7580   40.6680 N   0  0  0  0  0  0  0  0  0  0  0  0
   42.6200   36.1550   41.9000 H   0  0  0  0  0  0  0  0  0  0  0  0
   44.3550   32.8290   38.8240 H   0  0  0  0  0  0  0  0  0  0  0  0
   44.7530   34.8950   42.8200 C   0  0  0  0  0  0  0  0  0  0  0  0
   46.2220   35.4150   42.6640 C   0  0  0  0  0  0  0  0  0  0  0  0
   45.1230   36.1790   43.3220 C   0  0  0  0  0  0  0  0  0  0  0  0
   44.7690   33.9380   43.4150 H   0  0  0  0  0  0  0  0  0  0  0  0
   46.5120   35.7920   41.6650 H   0  0  0  0  0  0  0  0  0  0  0  0
   47.0040   34.9430   43.2480 H   0  0  0  0  0  0  0  0  0  0  0  0
   44.6980   37.0980   42.9060 H   0  0  0  0  0  0  0  0  0  0  0  0
   45.2700   36.2690   44.4380 H   0  0  0  0  0  0  0  0  0  0  0  0
   39.9640   35.7470   40.5320 C   0  0  0  0  0  0  0  0  0  0  0  0
   39.0780   36.1970   40.0340 H   0  0  0  0  0  0  0  0  0  0  0  0
   40.0700   36.2880   41.4900 H   0  0  0  0  0  0  0  0  0  0  0  0
   39.7140   34.3000   40.7060 C   0  0  0  0  0  0  0  0  0  0  0  0
   39.9530   33.5800   41.8310 N   0  0  0  0  0  0  0  0  0  0  0  0
   39.6820   32.2540   41.8720 C   0  0  0  0  0  0  0  0  0  0  0  0
   39.1650   31.5730   40.8160 N   0  0  0  0  0  0  0  0  0  0  0  0
   38.9160   32.2420   39.6900 C   0  0  0  0  0  0  0  0  0  0  0  0
   38.3910   31.5520   38.6190 C   0  0  0  0  0  0  0  0  0  0  0  0
   38.1240   32.2380   37.4330 C   0  0  0  0  0  0  0  0  0  0  0  0
   37.7140   31.7180   36.5840 H   0  0  0  0  0  0  0  0  0  0  0  0
   38.3760   33.6000   37.3180 C   0  0  0  0  0  0  0  0  0  0  0  0
   38.1720   34.1320   36.4100 H   0  0  0  0  0  0  0  0  0  0  0  0
   38.9030   34.2200   38.4430 C   0  0  0  0  0  0  0  0  0  0  0  0
   39.1870   33.5940   39.6380 C   0  0  0  0  0  0  0  0  0  0  0  0
  1  6  1  0  0  0  0
  1 20  1  0  0  0  0
  2  1  1  0  0  0  0
  3  1  1  0  0  0  0
  4 12  1  0  0  0  0
  5  4  1  0  0  0  0
  5 10  1  0  0  0  0
  6  5  2  0  0  0  0
  7  8  2  0  0  0  0
  7  6  1  0  0  0  0
  8  9  1  0  0  0  0
  9  4  2  0  0  0  0
 11  8  1  0  0  0  0
 12 14  1  0  0  0  0
 12 15  1  0  0  0  0
 13 12  1  0  0  0  0
 13 17  1  0  0  0  0
 13 14  1  0  0  0  0
 14 19  1  0  0  0  0
 16 13  1  0  0  0  0
 18 14  1  0  0  0  0
 20 23  1  0  0  0  0
 20 22  1  0  0  0  0
 21 20  1  0  0  0  0
 23 24  1  0  0  0  0
 24 25  2  0  0  0  0
 26 25  1  0  0  0  0
 27 26  2  0  0  0  0
 28 27  1  0  0  0  0
 29 28  2  0  0  0  0
 30 29  1  0  0  0  0
 31 29  1  0  0  0  0
 31 33  2  0  0  0  0
 32 31  1  0  0  0  0
 33 34  1  0  0  0  0
 34 27  1  0  0  0  0
 34 23  2  0  0  0  0
M  END
>  <minimizedAffinity>
-5.98210335

>  <minimizedRMSD>
1.96936834

$$$$
