
 OpenBabel03252508003D

 32 35  0  0  1  0  0  0  0  0999 V2000
   46.7030   34.5210   43.2790 C   0  0  0  0  0  0  0  0  0  0  0  0
   45.6310   35.4690   43.4340 C   0  0  0  0  0  0  0  0  0  0  0  0
   44.8100   35.2980   44.5460 C   0  0  0  0  0  0  0  0  0  0  0  0
   45.0620   34.2740   45.3960 N   0  0  0  0  0  0  0  0  0  0  0  0
   46.1020   33.4020   45.1900 C   0  0  0  0  0  0  0  0  0  0  0  0
   46.9280   33.5000   44.1560 N   0  0  0  0  0  0  0  0  0  0  0  0
   45.5160   36.2380   42.7130 H   0  0  0  0  0  0  0  0  0  0  0  0
   44.0010   35.9890   44.6900 H   0  0  0  0  0  0  0  0  0  0  0  0
   46.3180   32.3020   46.1750 C   0  0  1  0  0  0  0  0  0  0  0  0
   47.0750   32.6060   47.4460 C   0  0  0  0  0  0  0  0  0  0  0  0
   45.5780   32.4600   47.4430 C   0  0  1  0  0  0  0  0  0  0  0  0
   46.4380   31.2850   45.7530 H   0  0  0  0  0  0  0  0  0  0  0  0
   47.6990   31.7750   47.8320 H   0  0  0  0  0  0  0  0  0  0  0  0
   47.5460   33.6190   47.4340 H   0  0  0  0  0  0  0  0  0  0  0  0
   45.2210   31.5600   48.0010 H   0  0  0  0  0  0  0  0  0  0  0  0
   44.8940   33.7270   47.7260 N   0  0  0  0  0  0  0  0  0  0  0  0
   45.5340   34.4190   48.1880 H   0  0  0  0  0  0  0  0  0  0  0  0
   44.1460   33.5290   48.4400 H   0  0  0  0  0  0  0  0  0  0  0  0
   47.5250   34.6900   42.1090 C   0  0  2  0  0  3  0  0  0  0  0  0
   48.1570   35.8060   41.8950 O   0  0  0  0  0  1  0  0  0  0  0  0
   47.8950   33.8750   40.9550 C   0  0  0  0  0  0  0  0  0  0  0  0
   47.0770   33.8720   39.8910 N   0  0  0  0  0  0  0  0  0  0  0  0
   47.3340   33.1400   38.7620 C   0  0  0  0  0  3  0  0  0  0  0  0
   48.4250   32.3850   38.6640 N   0  0  0  0  0  0  0  0  0  0  0  0
   49.3260   32.3130   39.6840 C   0  0  0  0  0  0  0  0  0  0  0  0
   50.4680   31.5480   39.6210 C   0  0  0  0  0  3  0  0  0  0  0  0
   51.3640   31.4980   40.6670 C   0  0  0  0  0  0  0  0  0  0  0  0
   52.2130   30.8690   40.5010 H   0  0  0  0  0  0  0  0  0  0  0  0
   51.0530   32.2640   41.7930 C   0  0  0  0  0  0  0  0  0  0  0  0
   51.7710   32.2050   42.5920 H   0  0  0  0  0  0  0  0  0  0  0  0
   49.9030   33.0040   41.7990 C   0  0  0  0  0  3  0  0  0  0  0  0
   48.9950   33.0740   40.7780 C   0  0  0  0  0  0  0  0  0  0  0  0
  1  2  2  0  0  0  0
  1  6  1  0  0  0  0
  2  3  1  0  0  0  0
  3  8  1  0  0  0  0
  3  4  2  0  0  0  0
  5  4  1  0  0  0  0
  5  9  1  0  0  0  0
  6  5  2  0  0  0  0
  7  2  1  0  0  0  0
  9 12  1  6  0  0  0
  9 11  1  0  0  0  0
  9 10  1  0  0  0  0
 10 13  1  0  0  0  0
 11 10  1  0  0  0  0
 11 16  1  0  0  0  0
 11 15  1  1  0  0  0
 14 10  1  0  0  0  0
 16 17  1  0  0  0  0
 16 18  1  0  0  0  0
 19 20  1  6  0  0  0
 19  1  1  0  0  0  0
 21 19  1  0  0  0  0
 22 21  2  0  0  0  0
 23 22  1  0  0  0  0
 24 23  2  0  0  0  0
 24 25  1  0  0  0  0
 25 32  1  0  0  0  0
 26 25  2  0  0  0  0
 26 27  1  0  0  0  0
 27 29  2  0  0  0  0
 28 27  1  0  0  0  0
 29 31  1  0  0  0  0
 29 30  1  0  0  0  0
 32 21  1  0  0  0  0
 32 31  2  0  0  0  0
M  END
>  <minimizedAffinity>
-6.14421368

>  <minimizedRMSD>
2.58250475

$$$$
