
 OpenBabel03252506463D

 45 49  0  0  1  0  0  0  0  0999 V2000
   49.5680   33.5190   41.4080 N   0  0  1  0  0  0  0  0  0  0  0  0
   50.7070   33.0620   42.1620 C   0  0  0  0  0  0  0  0  0  0  0  0
   51.2630   31.7420   41.7210 C   0  0  0  0  0  0  0  0  0  0  0  0
   50.2290   30.6680   41.9880 C   0  0  0  0  0  0  0  0  0  0  0  0
   48.8400   31.1870   41.7670 C   0  0  0  0  0  0  0  0  0  0  0  0
   48.8930   32.3750   40.8380 C   0  0  2  0  0  0  0  0  0  0  0  0
   50.4420   32.9560   43.2360 H   0  0  0  0  0  0  0  0  0  0  0  0
   51.4650   33.8630   42.1060 H   0  0  0  0  0  0  0  0  0  0  0  0
   52.1630   31.5710   42.3870 H   0  0  0  0  0  0  0  0  0  0  0  0
   51.6710   31.7080   40.7090 H   0  0  0  0  0  0  0  0  0  0  0  0
   50.4440   29.7270   41.4690 H   0  0  0  0  0  0  0  0  0  0  0  0
   50.3010   30.4490   43.0900 H   0  0  0  0  0  0  0  0  0  0  0  0
   48.1490   30.4510   41.3410 H   0  0  0  0  0  0  0  0  0  0  0  0
   48.3650   31.5480   42.7080 H   0  0  0  0  0  0  0  0  0  0  0  0
   47.8360   32.6810   40.6870 H   0  0  0  0  0  0  0  0  0  0  0  0
   49.3900   31.9840   39.5480 N   0  0  0  0  0  0  0  0  0  0  0  0
   50.4180   32.1100   39.4850 H   0  0  0  0  0  0  0  0  0  0  0  0
   48.6610   31.5030   38.4370 C   0  0  0  0  0  0  0  0  0  0  0  0
   49.1390   30.6460   37.5250 N   0  0  0  0  0  0  0  0  0  0  0  0
   48.5070   30.1580   36.4740 C   0  0  0  0  0  3  0  0  0  0  0  0
   47.2360   30.5460   36.2660 N   0  0  0  0  0  0  0  0  0  0  0  0
   46.6440   31.4030   37.1110 C   0  0  0  0  0  0  0  0  0  0  0  0
   45.3530   31.7820   36.8780 C   0  0  0  0  0  3  0  0  0  0  0  0
   44.6830   32.6600   37.7040 C   0  0  0  0  0  0  0  0  0  0  0  0
   43.6740   32.9120   37.4610 H   0  0  0  0  0  0  0  0  0  0  0  0
   45.3920   33.1410   38.7910 C   0  0  0  0  0  0  0  0  0  0  0  0
   44.8570   33.8290   39.4310 H   0  0  0  0  0  0  0  0  0  0  0  0
   46.6860   32.7460   39.0020 C   0  0  0  0  0  3  0  0  0  0  0  0
   47.3600   31.8720   38.1850 C   0  0  0  0  0  0  0  0  0  0  0  0
   47.3620   34.7230   41.9520 C   0  0  1  0  0  0  0  0  0  0  0  0
   48.4640   35.6990   41.7740 C   0  0  0  0  0  0  0  0  0  0  0  0
   48.7650   34.3300   42.2360 C   0  0  2  0  0  0  0  0  0  0  0  0
   46.8380   34.4320   41.0140 H   0  0  0  0  0  0  0  0  0  0  0  0
   48.5880   36.5140   42.5120 H   0  0  0  0  0  0  0  0  0  0  0  0
   48.7800   36.0130   40.7480 H   0  0  0  0  0  0  0  0  0  0  0  0
   48.9750   34.1950   43.3400 H   0  0  0  0  0  0  0  0  0  0  0  0
   45.5700   36.0300   43.1270 C   0  0  0  0  0  0  0  0  0  0  0  0
   46.4190   34.9150   43.0730 C   0  0  0  0  0  0  0  0  0  0  0  0
   46.3310   33.9690   44.1200 C   0  0  0  0  0  0  0  0  0  0  0  0
   45.4380   34.1920   45.1110 N   0  0  0  0  0  0  0  0  0  0  0  0
   44.6320   35.2710   45.1420 C   0  0  0  0  0  0  0  0  0  0  0  0
   44.6900   36.2070   44.1440 N   0  0  0  0  0  0  0  0  0  0  0  0
   45.6400   36.7520   42.3250 H   0  0  0  0  0  0  0  0  0  0  0  0
   46.9710   33.0970   44.1100 H   0  0  0  0  0  0  0  0  0  0  0  0
   43.9650   35.3200   45.9950 H   0  0  0  0  0  0  0  0  0  0  0  0
  1  2  1  1  0  0  0
  1 32  1  0  0  0  0
  2  7  1  0  0  0  0
  3  4  1  0  0  0  0
  3  2  1  0  0  0  0
  3  9  1  0  0  0  0
  4 12  1  0  0  0  0
  5  4  1  0  0  0  0
  5 14  1  0  0  0  0
  6 15  1  6  0  0  0
  6  1  1  0  0  0  0
  6  5  1  0  0  0  0
  8  2  1  0  0  0  0
 10  3  1  0  0  0  0
 11  4  1  0  0  0  0
 13  5  1  0  0  0  0
 16  6  1  0  0  0  0
 17 16  1  0  0  0  0
 18 16  1  0  0  0  0
 19 18  2  0  0  0  0
 20 19  1  0  0  0  0
 21 20  2  0  0  0  0
 21 22  1  0  0  0  0
 22 29  1  0  0  0  0
 23 22  2  0  0  0  0
 23 24  1  0  0  0  0
 24 26  2  0  0  0  0
 25 24  1  0  0  0  0
 26 28  1  0  0  0  0
 26 27  1  0  0  0  0
 29 18  1  0  0  0  0
 29 28  2  0  0  0  0
 30 33  1  6  0  0  0
 30 32  1  0  0  0  0
 30 38  1  0  0  0  0
 31 30  1  0  0  0  0
 31 32  1  0  0  0  0
 31 34  1  0  0  0  0
 32 36  1  1  0  0  0
 35 31  1  0  0  0  0
 37 42  1  0  0  0  0
 38 37  2  0  0  0  0
 38 39  1  0  0  0  0
 39 40  2  0  0  0  0
 40 41  1  0  0  0  0
 41 45  1  0  0  0  0
 42 41  2  0  0  0  0
 43 37  1  0  0  0  0
 44 39  1  0  0  0  0
M  END
>  <minimizedAffinity>
-5.54209852

>  <minimizedRMSD>
2.48681068

$$$$
