
 OpenBabel03252506163D

 42 45  0  0  0  0  0  0  0  0999 V2000
   40.6800   31.1060   41.3070 F   0  0  0  0  0  0  0  0  0  0  0  0
   39.5810   31.6650   40.8120 C   0  0  0  0  0  0  0  0  0  0  0  0
   39.7250   32.7480   39.9710 C   0  0  0  0  0  0  0  0  0  0  0  0
   38.6270   33.4170   39.3890 C   0  0  0  0  0  0  0  0  0  0  0  0
   37.3340   32.9570   39.6820 C   0  0  0  0  0  0  0  0  0  0  0  0
   37.2490   31.8740   40.5280 C   0  0  0  0  0  0  0  0  0  0  0  0
   38.2920   31.2280   41.0890 C   0  0  0  0  0  0  0  0  0  0  0  0
   38.8170   34.2670   38.7330 H   0  0  0  0  0  0  0  0  0  0  0  0
   36.5270   33.5000   39.2150 H   0  0  0  0  0  0  0  0  0  0  0  0
   36.1910   31.6270   40.6570 H   0  0  0  0  0  0  0  0  0  0  0  0
   42.5050   34.0690   37.9840 C   0  0  0  0  0  0  0  0  0  0  0  0
   43.5200   34.2230   38.9620 C   0  0  0  0  0  0  0  0  0  0  0  0
   43.2310   33.8650   40.3130 C   0  0  0  0  0  0  0  0  0  0  0  0
   41.9740   33.3910   40.5740 N   0  0  0  0  0  0  0  0  0  0  0  0
   41.0580   33.2640   39.6300 C   0  0  0  0  0  0  0  0  0  0  0  0
   41.3170   33.5980   38.3480 N   0  0  0  0  0  0  0  0  0  0  0  0
   44.5030   34.5920   38.7730 H   0  0  0  0  0  0  0  0  0  0  0  0
   43.9780   33.9700   41.0820 H   0  0  0  0  0  0  0  0  0  0  0  0
   42.8280   34.4330   36.6660 N   0  0  0  0  0  0  0  0  0  0  0  0
   43.1330   33.5200   36.2290 H   0  0  0  0  0  0  0  0  0  0  0  0
   42.7880   35.3770   36.1980 H   0  0  0  0  0  0  0  0  0  0  0  0
   38.0820   30.1630   41.9150 O   0  0  0  0  0  0  0  0  0  0  0  0
   39.5800   27.9830   41.9950 O   0  0  0  0  0  0  0  0  0  0  0  0
   38.2390   28.5410   41.5380 P   0  0  2  0  0  0  0  0  0  0  0  0
   38.0900   28.3190   39.8590 O   0  0  0  0  0  0  0  0  0  0  0  0
   37.4340   27.2380   39.2890 C   0  0  0  0  0  0  0  0  0  0  0  0
   37.8750   25.9500   39.3500 N   0  0  0  0  0  0  0  0  0  0  0  0
   37.1660   24.9520   38.7620 C   0  0  0  0  0  3  0  0  0  0  0  0
   36.0180   25.2050   38.1070 N   0  0  0  0  0  0  0  0  0  0  0  0
   35.5370   26.4580   38.0170 C   0  0  0  0  0  0  0  0  0  0  0  0
   34.3480   26.7580   37.3440 C   0  0  0  0  0  3  0  0  0  0  0  0
   33.8680   28.0650   37.2630 C   0  0  0  0  0  0  0  0  0  0  0  0
   32.9470   28.2790   36.7410 H   0  0  0  0  0  0  0  0  0  0  0  0
   34.5710   29.1100   37.8550 C   0  0  0  0  0  0  0  0  0  0  0  0
   34.2580   30.1360   37.8300 H   0  0  0  0  0  0  0  0  0  0  0  0
   35.7340   28.7440   38.5010 C   0  0  0  0  0  3  0  0  0  0  0  0
   36.2560   27.4730   38.6140 C   0  0  0  0  0  0  0  0  0  0  0  0
   37.0170   27.5830   42.2170 O   0  0  0  0  0  0  0  0  0  0  0  0
   37.0780   27.6400   43.6250 C   0  0  0  0  0  0  0  0  0  0  0  0
   38.1450   26.8140   43.9670 F   0  0  0  0  0  0  0  0  0  0  0  0
   37.3930   28.9120   44.0460 F   0  0  0  0  0  0  0  0  0  0  0  0
   35.9180   27.2670   44.2420 F   0  0  0  0  0  0  0  0  0  0  0  0
  2  7  1  0  0  0  0
  2  1  1  0  0  0  0
  3  2  2  0  0  0  0
  4  5  2  0  0  0  0
  4  3  1  0  0  0  0
  5  6  1  0  0  0  0
  6 10  1  0  0  0  0
  6  7  2  0  0  0  0
  7 22  1  0  0  0  0
  8  4  1  0  0  0  0
  9  5  1  0  0  0  0
 11 16  2  0  0  0  0
 11 12  1  0  0  0  0
 12 13  2  0  0  0  0
 13 14  1  0  0  0  0
 13 18  1  0  0  0  0
 15  3  1  0  0  0  0
 15 14  2  0  0  0  0
 16 15  1  0  0  0  0
 17 12  1  0  0  0  0
 19 11  1  0  0  0  0
 20 19  1  0  0  0  0
 21 19  1  0  0  0  0
 24 22  1  0  0  0  0
 24 23  2  1  0  0  0
 24 38  1  0  0  0  0
 25 24  1  0  0  0  0
 26 27  1  0  0  0  0
 26 25  1  0  0  0  0
 28 27  2  0  0  0  0
 29 28  1  0  0  0  0
 30 29  2  0  0  0  0
 30 37  1  0  0  0  0
 31 30  1  0  0  0  0
 32 31  2  0  0  0  0
 32 34  1  0  0  0  0
 33 32  1  0  0  0  0
 34 36  2  0  0  0  0
 35 34  1  0  0  0  0
 36 37  1  0  0  0  0
 37 26  2  0  0  0  0
 38 39  1  0  0  0  0
 39 40  1  0  0  0  0
 39 41  1  0  0  0  0
 39 42  1  0  0  0  0
M  END
>  <minimizedAffinity>
-7.00648451

$$$$

 OpenBabel03252506163D

 42 45  0  0  0  0  0  0  0  0999 V2000
   41.4070   31.3950   39.7910 F   0  0  0  0  0  0  0  0  0  0  0  0
   40.6180   32.4440   39.9930 C   0  0  0  0  0  0  0  0  0  0  0  0
   41.1880   33.6990   39.9840 C   0  0  0  0  0  0  0  0  0  0  0  0
   40.4440   34.8810   40.1860 C   0  0  0  0  0  0  0  0  0  0  0  0
   39.0630   34.7700   40.4070 C   0  0  0  0  0  0  0  0  0  0  0  0
   38.5460   33.4930   40.4070 C   0  0  0  0  0  0  0  0  0  0  0  0
   39.2490   32.3580   40.2150 C   0  0  0  0  0  0  0  0  0  0  0  0
   40.9640   35.8400   40.1650 H   0  0  0  0  0  0  0  0  0  0  0  0
   38.5360   35.6990   40.5570 H   0  0  0  0  0  0  0  0  0  0  0  0
   37.4690   33.5640   40.5820 H   0  0  0  0  0  0  0  0  0  0  0  0
   44.3950   33.9130   38.2240 C   0  0  0  0  0  0  0  0  0  0  0  0
   45.2970   34.1780   39.2860 C   0  0  0  0  0  0  0  0  0  0  0  0
   44.7840   34.2810   40.6130 C   0  0  0  0  0  0  0  0  0  0  0  0
   43.4340   34.1140   40.7710 N   0  0  0  0  0  0  0  0  0  0  0  0
   42.6290   33.8690   39.7510 C   0  0  0  0  0  0  0  0  0  0  0  0
   43.1010   33.7680   38.4910 N   0  0  0  0  0  0  0  0  0  0  0  0
   46.3500   34.3100   39.1770 H   0  0  0  0  0  0  0  0  0  0  0  0
   45.4400   34.4810   41.4440 H   0  0  0  0  0  0  0  0  0  0  0  0
   44.9390   33.8200   36.9330 N   0  0  0  0  0  0  0  0  0  0  0  0
   45.1000   32.7820   36.8100 H   0  0  0  0  0  0  0  0  0  0  0  0
   45.1480   34.5800   36.2320 H   0  0  0  0  0  0  0  0  0  0  0  0
   38.6240   31.1460   40.2370 O   0  0  0  0  0  0  0  0  0  0  0  0
   39.2550   30.6050   42.7500 O   0  0  0  0  0  0  0  0  0  0  0  0
   38.5730   30.0550   41.5040 P   0  0  2  0  0  0  0  0  0  0  0  0
   39.3340   28.6040   41.0510 O   0  0  0  0  0  0  0  0  0  0  0  0
   39.4860   27.5230   41.9090 C   0  0  0  0  0  0  0  0  0  0  0  0
   40.3790   27.4760   42.9370 N   0  0  0  0  0  0  0  0  0  0  0  0
   40.4580   26.3740   43.7270 C   0  0  0  0  0  3  0  0  0  0  0  0
   39.6640   25.3080   43.5190 N   0  0  0  0  0  0  0  0  0  0  0  0
   38.7650   25.3020   42.5190 C   0  0  0  0  0  0  0  0  0  0  0  0
   37.9240   24.2120   42.2730 C   0  0  0  0  0  3  0  0  0  0  0  0
   36.9980   24.2290   41.2290 C   0  0  0  0  0  0  0  0  0  0  0  0
   36.3560   23.3790   41.0530 H   0  0  0  0  0  0  0  0  0  0  0  0
   36.8920   25.3430   40.4000 C   0  0  0  0  0  0  0  0  0  0  0  0
   36.2030   25.4200   39.5820 H   0  0  0  0  0  0  0  0  0  0  0  0
   37.7510   26.3800   40.6990 C   0  0  0  0  0  3  0  0  0  0  0  0
   38.6830   26.4210   41.7140 C   0  0  0  0  0  0  0  0  0  0  0  0
   36.9940   29.6080   41.9280 O   0  0  0  0  0  0  0  0  0  0  0  0
   36.1490   29.6750   40.8000 C   0  0  0  0  0  0  0  0  0  0  0  0
   35.0630   28.8650   41.1230 F   0  0  0  0  0  0  0  0  0  0  0  0
   35.6700   30.9530   40.6270 F   0  0  0  0  0  0  0  0  0  0  0  0
   36.7520   29.2890   39.6360 F   0  0  0  0  0  0  0  0  0  0  0  0
  1  2  1  0  0  0  0
  2  7  1  0  0  0  0
  3  2  2  0  0  0  0
  3  4  1  0  0  0  0
  4  5  2  0  0  0  0
  5  6  1  0  0  0  0
  5  9  1  0  0  0  0
  6 10  1  0  0  0  0
  7 22  1  0  0  0  0
  7  6  2  0  0  0  0
  8  4  1  0  0  0  0
 11 16  2  0  0  0  0
 11 12  1  0  0  0  0
 12 13  2  0  0  0  0
 13 14  1  0  0  0  0
 13 18  1  0  0  0  0
 15  3  1  0  0  0  0
 15 14  2  0  0  0  0
 16 15  1  0  0  0  0
 17 12  1  0  0  0  0
 19 11  1  0  0  0  0
 20 19  1  0  0  0  0
 21 19  1  0  0  0  0
 22 24  1  0  0  0  0
 24 38  1  0  0  0  0
 24 23  2  1  0  0  0
 25 24  1  0  0  0  0
 25 26  1  0  0  0  0
 26 27  1  0  0  0  0
 27 28  2  0  0  0  0
 29 28  1  0  0  0  0
 30 29  2  0  0  0  0
 31 30  1  0  0  0  0
 32 31  2  0  0  0  0
 33 32  1  0  0  0  0
 34 36  2  0  0  0  0
 34 32  1  0  0  0  0
 35 34  1  0  0  0  0
 36 37  1  0  0  0  0
 37 26  2  0  0  0  0
 37 30  1  0  0  0  0
 39 40  1  0  0  0  0
 39 38  1  0  0  0  0
 41 39  1  0  0  0  0
 42 39  1  0  0  0  0
M  END
>  <minimizedAffinity>
-6.93963385

$$$$

 OpenBabel03252506163D

 42 45  0  0  0  0  0  0  0  0999 V2000
   38.4540   31.6920   39.2840 F   0  0  0  0  0  0  0  0  0  0  0  0
   39.3030   30.7040   39.5460 C   0  0  0  0  0  0  0  0  0  0  0  0
   40.6480   31.0000   39.6060 C   0  0  0  0  0  0  0  0  0  0  0  0
   41.6360   30.0300   39.8770 C   0  0  0  0  0  0  0  0  0  0  0  0
   41.2270   28.7050   40.0950 C   0  0  0  0  0  0  0  0  0  0  0  0
   39.8720   28.4640   40.0220 C   0  0  0  0  0  0  0  0  0  0  0  0
   38.9210   29.3860   39.7630 C   0  0  0  0  0  0  0  0  0  0  0  0
   42.6810   30.3380   39.9090 H   0  0  0  0  0  0  0  0  0  0  0  0
   42.0160   27.9980   40.2980 H   0  0  0  0  0  0  0  0  0  0  0  0
   39.7060   27.4020   40.2180 H   0  0  0  0  0  0  0  0  0  0  0  0
   42.0710   33.9340   37.9340 C   0  0  0  0  0  0  0  0  0  0  0  0
   42.0200   34.9110   38.9590 C   0  0  0  0  0  0  0  0  0  0  0  0
   41.4900   34.5440   40.2320 C   0  0  0  0  0  0  0  0  0  0  0  0
   41.0600   33.2530   40.3760 N   0  0  0  0  0  0  0  0  0  0  0  0
   41.1260   32.3730   39.3910 C   0  0  0  0  0  0  0  0  0  0  0  0
   41.6250   32.7070   38.1820 N   0  0  0  0  0  0  0  0  0  0  0  0
   42.3520   35.9210   38.8610 H   0  0  0  0  0  0  0  0  0  0  0  0
   41.4360   35.2610   41.0350 H   0  0  0  0  0  0  0  0  0  0  0  0
   42.5980   34.3340   36.6950 N   0  0  0  0  0  0  0  0  0  0  0  0
   43.6150   34.0530   36.7610 H   0  0  0  0  0  0  0  0  0  0  0  0
   42.1230   34.8040   35.8790 H   0  0  0  0  0  0  0  0  0  0  0  0
   37.6060   29.0260   39.7160 O   0  0  0  0  0  0  0  0  0  0  0  0
   36.7580   30.5300   41.7220 O   0  0  0  0  0  0  0  0  0  0  0  0
   36.4380   29.3020   40.8810 P   0  0  2  0  0  0  0  0  0  0  0  0
   36.3070   27.9490   41.9020 O   0  0  0  0  0  0  0  0  0  0  0  0
   37.4040   27.2690   42.4100 C   0  0  0  0  0  0  0  0  0  0  0  0
   38.2280   27.7520   43.3810 N   0  0  0  0  0  0  0  0  0  0  0  0
   39.2810   27.0140   43.8180 C   0  0  0  0  0  3  0  0  0  0  0  0
   39.5380   25.7950   43.3080 N   0  0  0  0  0  0  0  0  0  0  0  0
   38.7570   25.2710   42.3480 C   0  0  0  0  0  0  0  0  0  0  0  0
   38.9940   24.0080   41.7940 C   0  0  0  0  0  3  0  0  0  0  0  0
   38.1690   23.4840   40.7980 C   0  0  0  0  0  0  0  0  0  0  0  0
   38.3670   22.5070   40.3830 H   0  0  0  0  0  0  0  0  0  0  0  0
   37.0820   24.2150   40.3290 C   0  0  0  0  0  0  0  0  0  0  0  0
   36.4100   23.8710   39.5670 H   0  0  0  0  0  0  0  0  0  0  0  0
   36.9070   25.4500   40.9170 C   0  0  0  0  0  3  0  0  0  0  0  0
   37.6860   26.0190   41.9020 C   0  0  0  0  0  0  0  0  0  0  0  0
   34.8880   29.5090   40.2260 O   0  0  0  0  0  0  0  0  0  0  0  0
   34.8090   28.8970   38.9560 C   0  0  0  0  0  0  0  0  0  0  0  0
   33.4510   28.8870   38.6520 F   0  0  0  0  0  0  0  0  0  0  0  0
   35.4370   29.6690   38.0060 F   0  0  0  0  0  0  0  0  0  0  0  0
   35.3570   27.6460   38.9130 F   0  0  0  0  0  0  0  0  0  0  0  0
  1  2  1  0  0  0  0
  2  3  2  0  0  0  0
  2  7  1  0  0  0  0
  3  4  1  0  0  0  0
  4  8  1  0  0  0  0
  4  5  2  0  0  0  0
  5  9  1  0  0  0  0
  6  5  1  0  0  0  0
  6 10  1  0  0  0  0
  7  6  2  0  0  0  0
 11 16  2  0  0  0  0
 11 12  1  0  0  0  0
 12 13  2  0  0  0  0
 13 14  1  0  0  0  0
 13 18  1  0  0  0  0
 15  3  1  0  0  0  0
 15 14  2  0  0  0  0
 16 15  1  0  0  0  0
 17 12  1  0  0  0  0
 19 20  1  0  0  0  0
 19 11  1  0  0  0  0
 21 19  1  0  0  0  0
 22  7  1  0  0  0  0
 22 24  1  0  0  0  0
 24 23  2  1  0  0  0
 24 25  1  0  0  0  0
 25 26  1  0  0  0  0
 26 27  1  0  0  0  0
 27 28  2  0  0  0  0
 29 28  1  0  0  0  0
 30 29  2  0  0  0  0
 31 30  1  0  0  0  0
 32 31  2  0  0  0  0
 33 32  1  0  0  0  0
 34 32  1  0  0  0  0
 34 36  2  0  0  0  0
 35 34  1  0  0  0  0
 36 37  1  0  0  0  0
 37 30  1  0  0  0  0
 37 26  2  0  0  0  0
 38 24  1  0  0  0  0
 39 38  1  0  0  0  0
 40 39  1  0  0  0  0
 41 39  1  0  0  0  0
 42 39  1  0  0  0  0
M  END
>  <minimizedAffinity>
-6.84602642

$$$$

 OpenBabel03252506163D

 42 45  0  0  0  0  0  0  0  0999 V2000
   40.1800   30.2860   39.1420 F   0  0  0  0  0  0  0  0  0  0  0  0
   39.2050   31.1480   39.4100 C   0  0  0  0  0  0  0  0  0  0  0  0
   39.5260   32.4860   39.5020 C   0  0  0  0  0  0  0  0  0  0  0  0
   38.5700   33.4860   39.7810 C   0  0  0  0  0  0  0  0  0  0  0  0
   37.2350   33.0980   39.9730 C   0  0  0  0  0  0  0  0  0  0  0  0
   36.9710   31.7500   39.8710 C   0  0  0  0  0  0  0  0  0  0  0  0
   37.8780   30.7870   39.6060 C   0  0  0  0  0  0  0  0  0  0  0  0
   38.8970   34.5240   39.8380 H   0  0  0  0  0  0  0  0  0  0  0  0
   36.5410   33.8960   40.1840 H   0  0  0  0  0  0  0  0  0  0  0  0
   35.9000   31.6010   40.0360 H   0  0  0  0  0  0  0  0  0  0  0  0
   42.4890   33.9030   37.8780 C   0  0  0  0  0  0  0  0  0  0  0  0
   43.4630   33.8010   38.9020 C   0  0  0  0  0  0  0  0  0  0  0  0
   43.0850   33.2370   40.1570 C   0  0  0  0  0  0  0  0  0  0  0  0
   41.7850   32.8280   40.2870 N   0  0  0  0  0  0  0  0  0  0  0  0
   40.9080   32.9430   39.3030 C   0  0  0  0  0  0  0  0  0  0  0  0
   41.2530   33.4740   38.1120 N   0  0  0  0  0  0  0  0  0  0  0  0
   44.4800   34.1160   38.8140 H   0  0  0  0  0  0  0  0  0  0  0  0
   43.8000   33.1440   40.9570 H   0  0  0  0  0  0  0  0  0  0  0  0
   42.9000   34.4650   36.6580 N   0  0  0  0  0  0  0  0  0  0  0  0
   43.1570   33.6210   36.0750 H   0  0  0  0  0  0  0  0  0  0  0  0
   42.9520   35.4770   36.3640 H   0  0  0  0  0  0  0  0  0  0  0  0
   37.4950   29.4790   39.5300 O   0  0  0  0  0  0  0  0  0  0  0  0
   35.1540   29.1600   40.7210 O   0  0  0  0  0  0  0  0  0  0  0  0
   36.5770   28.6260   40.6370 P   0  0  2  0  0  0  0  0  0  0  0  0
   37.2940   28.7140   42.1760 O   0  0  0  0  0  0  0  0  0  0  0  0
   38.3820   27.9410   42.5550 C   0  0  0  0  0  0  0  0  0  0  0  0
   38.3340   26.5960   42.7690 N   0  0  0  0  0  0  0  0  0  0  0  0
   39.4520   25.9190   43.1380 C   0  0  0  0  0  3  0  0  0  0  0  0
   40.6290   26.5520   43.3010 N   0  0  0  0  0  0  0  0  0  0  0  0
   40.7320   27.8780   43.1030 C   0  0  0  0  0  0  0  0  0  0  0  0
   41.9380   28.5680   43.2630 C   0  0  0  0  0  3  0  0  0  0  0  0
   42.0210   29.9450   43.0510 C   0  0  0  0  0  0  0  0  0  0  0  0
   42.9610   30.4620   43.1790 H   0  0  0  0  0  0  0  0  0  0  0  0
   40.8940   30.6680   42.6720 C   0  0  0  0  0  0  0  0  0  0  0  0
   40.8900   31.7250   42.4930 H   0  0  0  0  0  0  0  0  0  0  0  0
   39.7400   29.9260   42.5320 C   0  0  0  0  0  3  0  0  0  0  0  0
   39.5970   28.5680   42.7270 C   0  0  0  0  0  0  0  0  0  0  0  0
   36.4930   26.9700   40.2870 O   0  0  0  0  0  0  0  0  0  0  0  0
   36.9230   26.7270   38.9650 C   0  0  0  0  0  0  0  0  0  0  0  0
   36.5390   25.4150   38.7020 F   0  0  0  0  0  0  0  0  0  0  0  0
   36.2510   27.5370   38.0790 F   0  0  0  0  0  0  0  0  0  0  0  0
   38.2630   26.9190   38.7790 F   0  0  0  0  0  0  0  0  0  0  0  0
  1  2  1  0  0  0  0
  2  3  2  0  0  0  0
  2  7  1  0  0  0  0
  3  4  1  0  0  0  0
  4  8  1  0  0  0  0
  4  5  2  0  0  0  0
  5  9  1  0  0  0  0
  6  5  1  0  0  0  0
  6 10  1  0  0  0  0
  7  6  2  0  0  0  0
 11 16  2  0  0  0  0
 11 12  1  0  0  0  0
 12 13  2  0  0  0  0
 13 14  1  0  0  0  0
 13 18  1  0  0  0  0
 15  3  1  0  0  0  0
 15 14  2  0  0  0  0
 16 15  1  0  0  0  0
 17 12  1  0  0  0  0
 19 11  1  0  0  0  0
 20 19  1  0  0  0  0
 21 19  1  0  0  0  0
 22  7  1  0  0  0  0
 22 24  1  0  0  0  0
 24 23  2  1  0  0  0
 24 25  1  0  0  0  0
 25 26  1  0  0  0  0
 26 37  2  0  0  0  0
 26 27  1  0  0  0  0
 27 28  2  0  0  0  0
 28 29  1  0  0  0  0
 30 31  1  0  0  0  0
 30 29  2  0  0  0  0
 32 33  1  0  0  0  0
 32 31  2  0  0  0  0
 34 32  1  0  0  0  0
 35 34  1  0  0  0  0
 36 34  2  0  0  0  0
 36 37  1  0  0  0  0
 37 30  1  0  0  0  0
 38 24  1  0  0  0  0
 39 38  1  0  0  0  0
 40 39  1  0  0  0  0
 41 39  1  0  0  0  0
 42 39  1  0  0  0  0
M  END
>  <minimizedAffinity>
-6.58837414

$$$$

 OpenBabel03252506163D

 42 45  0  0  0  0  0  0  0  0999 V2000
   39.2190   27.4670   40.0500 F   0  0  0  0  0  0  0  0  0  0  0  0
   38.1680   28.2020   39.7020 C   0  0  0  0  0  0  0  0  0  0  0  0
   36.9560   27.5660   39.5360 C   0  0  0  0  0  0  0  0  0  0  0  0
   35.7760   28.2490   39.1700 C   0  0  0  0  0  0  0  0  0  0  0  0
   35.8450   29.6360   38.9640 C   0  0  0  0  0  0  0  0  0  0  0  0
   37.0800   30.2190   39.1430 C   0  0  0  0  0  0  0  0  0  0  0  0
   38.2120   29.5740   39.4930 C   0  0  0  0  0  0  0  0  0  0  0  0
   34.8530   27.6800   39.0570 H   0  0  0  0  0  0  0  0  0  0  0  0
   34.9190   30.1140   38.6850 H   0  0  0  0  0  0  0  0  0  0  0  0
   36.9780   31.2910   38.9570 H   0  0  0  0  0  0  0  0  0  0  0  0
   37.3450   24.2560   41.0580 C   0  0  0  0  0  0  0  0  0  0  0  0
   36.6200   23.4320   40.1610 C   0  0  0  0  0  0  0  0  0  0  0  0
   35.9970   24.0330   39.0270 C   0  0  0  0  0  0  0  0  0  0  0  0
   36.1450   25.3860   38.8820 N   0  0  0  0  0  0  0  0  0  0  0  0
   36.8310   26.1170   39.7450 C   0  0  0  0  0  0  0  0  0  0  0  0
   37.4260   25.5610   40.8220 N   0  0  0  0  0  0  0  0  0  0  0  0
   36.4960   22.3770   40.2620 H   0  0  0  0  0  0  0  0  0  0  0  0
   35.4380   23.4380   38.3250 H   0  0  0  0  0  0  0  0  0  0  0  0
   37.9430   23.6270   42.1630 N   0  0  0  0  0  0  0  0  0  0  0  0
   38.9280   23.4360   41.8310 H   0  0  0  0  0  0  0  0  0  0  0  0
   37.5350   23.3880   43.1060 H   0  0  0  0  0  0  0  0  0  0  0  0
   39.3820   30.2620   39.6390 O   0  0  0  0  0  0  0  0  0  0  0  0
   40.9900   32.2100   40.4270 O   0  0  0  0  0  0  0  0  0  0  0  0
   39.7380   31.4230   40.7890 P   0  0  2  0  0  0  0  0  0  0  0  0
   39.9650   30.6870   42.3050 O   0  0  0  0  0  0  0  0  0  0  0  0
   39.2240   29.5980   42.7410 C   0  0  0  0  0  0  0  0  0  0  0  0
   37.8690   29.5940   42.8800 N   0  0  0  0  0  0  0  0  0  0  0  0
   37.2260   28.4800   43.3150 C   0  0  0  0  0  3  0  0  0  0  0  0
   37.9040   27.3570   43.6180 N   0  0  0  0  0  0  0  0  0  0  0  0
   39.2430   27.3060   43.4990 C   0  0  0  0  0  0  0  0  0  0  0  0
   39.9800   26.1580   43.8050 C   0  0  0  0  0  3  0  0  0  0  0  0
   41.3690   26.1280   43.6730 C   0  0  0  0  0  0  0  0  0  0  0  0
   41.9220   25.2320   43.9140 H   0  0  0  0  0  0  0  0  0  0  0  0
   42.0570   27.2540   43.2300 C   0  0  0  0  0  0  0  0  0  0  0  0
   43.1210   27.2970   43.1070 H   0  0  0  0  0  0  0  0  0  0  0  0
   41.2700   28.3500   42.9470 C   0  0  0  0  0  3  0  0  0  0  0  0
   39.8980   28.4380   43.0570 C   0  0  0  0  0  0  0  0  0  0  0  0
   38.4760   32.5290   41.0230 O   0  0  0  0  0  0  0  0  0  0  0  0
   38.4330   33.4540   39.9580 C   0  0  0  0  0  0  0  0  0  0  0  0
   37.0920   33.8130   39.8540 F   0  0  0  0  0  0  0  0  0  0  0  0
   39.1400   34.5910   40.2740 F   0  0  0  0  0  0  0  0  0  0  0  0
   38.9280   32.9630   38.7830 F   0  0  0  0  0  0  0  0  0  0  0  0
  2  1  1  0  0  0  0
  3  2  1  0  0  0  0
  3 15  1  0  0  0  0
  4  3  2  0  0  0  0
  5  6  2  0  0  0  0
  5  4  1  0  0  0  0
  6  7  1  0  0  0  0
  7 22  1  0  0  0  0
  7  2  2  0  0  0  0
  8  4  1  0  0  0  0
  9  5  1  0  0  0  0
 10  6  1  0  0  0  0
 11 19  1  0  0  0  0
 12 17  1  0  0  0  0
 12 11  2  0  0  0  0
 13 12  1  0  0  0  0
 14 13  2  0  0  0  0
 14 15  1  0  0  0  0
 15 16  2  0  0  0  0
 16 11  1  0  0  0  0
 18 13  1  0  0  0  0
 19 21  1  0  0  0  0
 20 19  1  0  0  0  0
 22 24  1  0  0  0  0
 24 23  2  6  0  0  0
 24 38  1  0  0  0  0
 24 25  1  0  0  0  0
 25 26  1  0  0  0  0
 26 27  2  0  0  0  0
 26 37  1  0  0  0  0
 27 28  1  0  0  0  0
 28 29  2  0  0  0  0
 30 29  1  0  0  0  0
 30 31  1  0  0  0  0
 32 31  2  0  0  0  0
 32 33  1  0  0  0  0
 34 32  1  0  0  0  0
 35 34  1  0  0  0  0
 36 37  1  0  0  0  0
 36 34  2  0  0  0  0
 37 30  2  0  0  0  0
 39 41  1  0  0  0  0
 39 38  1  0  0  0  0
 40 39  1  0  0  0  0
 42 39  1  0  0  0  0
M  END
>  <minimizedAffinity>
-6.58035707

$$$$

 OpenBabel03252506163D

 42 45  0  0  0  0  0  0  0  0999 V2000
   38.7940   30.2610   37.3800 F   0  0  0  0  0  0  0  0  0  0  0  0
   38.4210   31.0710   38.3640 C   0  0  0  0  0  0  0  0  0  0  0  0
   39.3490   31.9630   38.8600 C   0  0  0  0  0  0  0  0  0  0  0  0
   39.0600   32.8690   39.9020 C   0  0  0  0  0  0  0  0  0  0  0  0
   37.7710   32.8590   40.4570 C   0  0  0  0  0  0  0  0  0  0  0  0
   36.8850   31.9480   39.9250 C   0  0  0  0  0  0  0  0  0  0  0  0
   37.1520   31.0780   38.9290 C   0  0  0  0  0  0  0  0  0  0  0  0
   39.8440   33.5450   40.2430 H   0  0  0  0  0  0  0  0  0  0  0  0
   37.5970   33.5680   41.2510 H   0  0  0  0  0  0  0  0  0  0  0  0
   35.9310   32.0600   40.4470 H   0  0  0  0  0  0  0  0  0  0  0  0
   42.3650   33.2720   37.2440 C   0  0  0  0  0  0  0  0  0  0  0  0
   43.2290   32.1480   37.2770 C   0  0  0  0  0  0  0  0  0  0  0  0
   42.7560   30.9360   37.8620 C   0  0  0  0  0  0  0  0  0  0  0  0
   41.4810   30.9430   38.3600 N   0  0  0  0  0  0  0  0  0  0  0  0
   40.7100   32.0160   38.3080 C   0  0  0  0  0  0  0  0  0  0  0  0
   41.1440   33.1690   37.7570 N   0  0  0  0  0  0  0  0  0  0  0  0
   44.2250   32.1290   36.8930 H   0  0  0  0  0  0  0  0  0  0  0  0
   43.3850   30.0620   37.9050 H   0  0  0  0  0  0  0  0  0  0  0  0
   42.8680   34.4470   36.6610 N   0  0  0  0  0  0  0  0  0  0  0  0
   42.5280   34.3870   35.6610 H   0  0  0  0  0  0  0  0  0  0  0  0
   43.4470   35.2190   37.0880 H   0  0  0  0  0  0  0  0  0  0  0  0
   36.1890   30.2200   38.4850 O   0  0  0  0  0  0  0  0  0  0  0  0
   35.0980   28.7430   40.3910 O   0  0  0  0  0  0  0  0  0  0  0  0
   35.8480   28.6890   39.0670 P   0  0  2  0  0  0  0  0  0  0  0  0
   37.2910   27.8160   39.2830 O   0  0  0  0  0  0  0  0  0  0  0  0
   37.6120   27.1540   40.4590 C   0  0  0  0  0  0  0  0  0  0  0  0
   37.0100   26.0080   40.8860 N   0  0  0  0  0  0  0  0  0  0  0  0
   37.3890   25.4280   42.0540 C   0  0  0  0  0  3  0  0  0  0  0  0
   38.3620   25.9630   42.8150 N   0  0  0  0  0  0  0  0  0  0  0  0
   38.9890   27.0910   42.4400 C   0  0  0  0  0  0  0  0  0  0  0  0
   40.0040   27.6750   43.2050 C   0  0  0  0  0  3  0  0  0  0  0  0
   40.6410   28.8470   42.7960 C   0  0  0  0  0  0  0  0  0  0  0  0
   41.4220   29.2850   43.4000 H   0  0  0  0  0  0  0  0  0  0  0  0
   40.2740   29.4670   41.6050 C   0  0  0  0  0  0  0  0  0  0  0  0
   40.7230   30.3680   41.2340 H   0  0  0  0  0  0  0  0  0  0  0  0
   39.2690   28.8390   40.9010 C   0  0  0  0  0  3  0  0  0  0  0  0
   38.6050   27.6830   41.2540 C   0  0  0  0  0  0  0  0  0  0  0  0
   34.9320   27.7610   37.9860 O   0  0  0  0  0  0  0  0  0  0  0  0
   33.8260   28.5030   37.5200 C   0  0  0  0  0  0  0  0  0  0  0  0
   34.3510   29.3470   36.5460 F   0  0  0  0  0  0  0  0  0  0  0  0
   32.9140   27.6790   36.9010 F   0  0  0  0  0  0  0  0  0  0  0  0
   33.1730   29.1930   38.5020 F   0  0  0  0  0  0  0  0  0  0  0  0
  1  2  1  0  0  0  0
  2  3  2  0  0  0  0
  2  7  1  0  0  0  0
  3  4  1  0  0  0  0
  4  8  1  0  0  0  0
  4  5  2  0  0  0  0
  5  9  1  0  0  0  0
  6 10  1  0  0  0  0
  6  5  1  0  0  0  0
  7  6  2  0  0  0  0
 11 12  2  0  0  0  0
 11 16  1  0  0  0  0
 12 13  1  0  0  0  0
 13 18  1  0  0  0  0
 13 14  2  0  0  0  0
 15 14  1  0  0  0  0
 15  3  1  0  0  0  0
 16 15  2  0  0  0  0
 17 12  1  0  0  0  0
 19 21  1  0  0  0  0
 19 11  1  0  0  0  0
 20 19  1  0  0  0  0
 22  7  1  0  0  0  0
 22 24  1  0  0  0  0
 24 25  1  0  0  0  0
 24 23  2  1  0  0  0
 25 26  1  0  0  0  0
 26 27  2  0  0  0  0
 26 37  1  0  0  0  0
 27 28  1  0  0  0  0
 28 29  2  0  0  0  0
 30 29  1  0  0  0  0
 30 31  1  0  0  0  0
 32 31  2  0  0  0  0
 32 33  1  0  0  0  0
 34 32  1  0  0  0  0
 35 34  1  0  0  0  0
 36 37  1  0  0  0  0
 36 34  2  0  0  0  0
 37 30  2  0  0  0  0
 38 24  1  0  0  0  0
 39 38  1  0  0  0  0
 39 42  1  0  0  0  0
 40 39  1  0  0  0  0
 41 39  1  0  0  0  0
M  END
>  <minimizedAffinity>
-6.52849913

$$$$

 OpenBabel03252506163D

 42 45  0  0  0  0  0  0  0  0999 V2000
   40.0190   29.4100   41.4300 F   0  0  0  0  0  0  0  0  0  0  0  0
   39.1470   28.8300   42.2490 C   0  0  0  0  0  0  0  0  0  0  0  0
   39.6250   27.9320   43.1790 C   0  0  0  0  0  0  0  0  0  0  0  0
   38.7880   27.2610   44.0960 C   0  0  0  0  0  0  0  0  0  0  0  0
   37.4100   27.5220   44.0560 C   0  0  0  0  0  0  0  0  0  0  0  0
   36.9870   28.4260   43.1070 C   0  0  0  0  0  0  0  0  0  0  0  0
   37.7790   29.0720   42.2260 C   0  0  0  0  0  0  0  0  0  0  0  0
   39.2370   26.5640   44.8040 H   0  0  0  0  0  0  0  0  0  0  0  0
   36.8100   26.9860   44.7750 H   0  0  0  0  0  0  0  0  0  0  0  0
   35.9030   28.5310   43.1990 H   0  0  0  0  0  0  0  0  0  0  0  0
   42.7370   26.0100   43.3810 C   0  0  0  0  0  0  0  0  0  0  0  0
   43.7150   27.0350   43.4230 C   0  0  0  0  0  0  0  0  0  0  0  0
   43.2860   28.3950   43.3820 C   0  0  0  0  0  0  0  0  0  0  0  0
   41.9380   28.6190   43.3020 N   0  0  0  0  0  0  0  0  0  0  0  0
   41.0600   27.6300   43.2650 C   0  0  0  0  0  0  0  0  0  0  0  0
   41.4520   26.3390   43.3030 N   0  0  0  0  0  0  0  0  0  0  0  0
   44.7690   26.8760   43.4850 H   0  0  0  0  0  0  0  0  0  0  0  0
   44.0010   29.2000   43.4120 H   0  0  0  0  0  0  0  0  0  0  0  0
   43.2000   24.6840   43.4230 N   0  0  0  0  0  0  0  0  0  0  0  0
   43.1460   24.4400   44.4500 H   0  0  0  0  0  0  0  0  0  0  0  0
   43.5280   24.0590   42.6390 H   0  0  0  0  0  0  0  0  0  0  0  0
   37.2430   29.9490   41.3280 O   0  0  0  0  0  0  0  0  0  0  0  0
   34.9690   29.2520   40.1680 O   0  0  0  0  0  0  0  0  0  0  0  0
   36.4330   29.5810   39.9120 P   0  0  2  0  0  0  0  0  0  0  0  0
   37.1730   28.2550   39.1480 O   0  0  0  0  0  0  0  0  0  0  0  0
   36.4830   27.1130   38.7660 C   0  0  0  0  0  0  0  0  0  0  0  0
   35.6090   27.0560   37.7220 N   0  0  0  0  0  0  0  0  0  0  0  0
   34.9760   25.8930   37.4190 C   0  0  0  0  0  3  0  0  0  0  0  0
   35.1940   24.7740   38.1350 N   0  0  0  0  0  0  0  0  0  0  0  0
   36.0470   24.7750   39.1750 C   0  0  0  0  0  0  0  0  0  0  0  0
   36.2970   23.6320   39.9410 C   0  0  0  0  0  3  0  0  0  0  0  0
   37.1870   23.6570   41.0150 C   0  0  0  0  0  0  0  0  0  0  0  0
   37.3690   22.7640   41.5960 H   0  0  0  0  0  0  0  0  0  0  0  0
   37.8500   24.8330   41.3520 C   0  0  0  0  0  0  0  0  0  0  0  0
   38.5450   24.9200   42.1640 H   0  0  0  0  0  0  0  0  0  0  0  0
   37.5570   25.9210   40.5560 C   0  0  0  0  0  3  0  0  0  0  0  0
   36.6900   25.9560   39.4840 C   0  0  0  0  0  0  0  0  0  0  0  0
   36.4940   30.8330   38.7720 O   0  0  0  0  0  0  0  0  0  0  0  0
   37.2660   31.9070   39.2670 C   0  0  0  0  0  0  0  0  0  0  0  0
   37.0710   32.9350   38.3500 F   0  0  0  0  0  0  0  0  0  0  0  0
   36.7750   32.3380   40.4780 F   0  0  0  0  0  0  0  0  0  0  0  0
   38.5880   31.6050   39.4310 F   0  0  0  0  0  0  0  0  0  0  0  0
  1  2  1  0  0  0  0
  2  3  1  0  0  0  0
  3 15  1  0  0  0  0
  3  4  2  0  0  0  0
  4  8  1  0  0  0  0
  5  4  1  0  0  0  0
  5  9  1  0  0  0  0
  6 10  1  0  0  0  0
  6  5  2  0  0  0  0
  7  2  2  0  0  0  0
  7  6  1  0  0  0  0
 11 12  1  0  0  0  0
 11 19  1  0  0  0  0
 12 17  1  0  0  0  0
 13 18  1  0  0  0  0
 13 12  2  0  0  0  0
 14 13  1  0  0  0  0
 15 14  2  0  0  0  0
 15 16  1  0  0  0  0
 16 11  2  0  0  0  0
 19 20  1  0  0  0  0
 21 19  1  0  0  0  0
 22  7  1  0  0  0  0
 24 23  2  1  0  0  0
 24 22  1  0  0  0  0
 25 24  1  0  0  0  0
 26 25  1  0  0  0  0
 26 37  1  0  0  0  0
 27 26  2  0  0  0  0
 28 27  1  0  0  0  0
 28 29  2  0  0  0  0
 29 30  1  0  0  0  0
 30 37  2  0  0  0  0
 30 31  1  0  0  0  0
 31 32  2  0  0  0  0
 32 34  1  0  0  0  0
 32 33  1  0  0  0  0
 34 35  1  0  0  0  0
 36 34  2  0  0  0  0
 37 36  1  0  0  0  0
 38 39  1  0  0  0  0
 38 24  1  0  0  0  0
 39 42  1  0  0  0  0
 39 41  1  0  0  0  0
 40 39  1  0  0  0  0
M  END
>  <minimizedAffinity>
-6.51145267

$$$$

 OpenBabel03252506163D

 42 45  0  0  0  0  0  0  0  0999 V2000
   38.8060   29.8080   39.8790 F   0  0  0  0  0  0  0  0  0  0  0  0
   39.6910   29.6260   40.8530 C   0  0  0  0  0  0  0  0  0  0  0  0
   40.3050   30.7370   41.3910 C   0  0  0  0  0  0  0  0  0  0  0  0
   41.2580   30.6590   42.4290 C   0  0  0  0  0  0  0  0  0  0  0  0
   41.5940   29.3920   42.9320 C   0  0  0  0  0  0  0  0  0  0  0  0
   40.9520   28.3180   42.3580 C   0  0  0  0  0  0  0  0  0  0  0  0
   40.0400   28.3830   41.3660 C   0  0  0  0  0  0  0  0  0  0  0  0
   41.7020   31.5810   42.8050 H   0  0  0  0  0  0  0  0  0  0  0  0
   42.3270   29.3820   43.7230 H   0  0  0  0  0  0  0  0  0  0  0  0
   41.3070   27.4090   42.8510 H   0  0  0  0  0  0  0  0  0  0  0  0
   38.3580   33.5730   40.1300 C   0  0  0  0  0  0  0  0  0  0  0  0
   39.3510   34.5750   39.9940 C   0  0  0  0  0  0  0  0  0  0  0  0
   40.6980   34.2590   40.3420 C   0  0  0  0  0  0  0  0  0  0  0  0
   40.9410   32.9890   40.7910 N   0  0  0  0  0  0  0  0  0  0  0  0
   39.9820   32.0850   40.9030 C   0  0  0  0  0  0  0  0  0  0  0  0
   38.7040   32.3710   40.5770 N   0  0  0  0  0  0  0  0  0  0  0  0
   39.1760   35.5690   39.6450 H   0  0  0  0  0  0  0  0  0  0  0  0
   41.4790   34.9960   40.2510 H   0  0  0  0  0  0  0  0  0  0  0  0
   37.0440   33.9240   39.7780 N   0  0  0  0  0  0  0  0  0  0  0  0
   36.9670   33.6050   38.7740 H   0  0  0  0  0  0  0  0  0  0  0  0
   36.2940   34.3930   40.3530 H   0  0  0  0  0  0  0  0  0  0  0  0
   39.4700   27.2440   40.8750 O   0  0  0  0  0  0  0  0  0  0  0  0
   38.9380   24.7850   41.6930 O   0  0  0  0  0  0  0  0  0  0  0  0
   38.4170   26.2150   41.6690 P   0  0  2  0  0  0  0  0  0  0  0  0
   36.8980   26.2390   40.9060 O   0  0  0  0  0  0  0  0  0  0  0  0
   36.7170   25.9600   39.5590 C   0  0  0  0  0  0  0  0  0  0  0  0
   37.0720   24.7880   38.9610 N   0  0  0  0  0  0  0  0  0  0  0  0
   36.8570   24.6020   37.6330 C   0  0  0  0  0  3  0  0  0  0  0  0
   36.2920   25.5620   36.8770 N   0  0  0  0  0  0  0  0  0  0  0  0
   35.9220   26.7370   37.4170 C   0  0  0  0  0  0  0  0  0  0  0  0
   35.3340   27.7560   36.6620 C   0  0  0  0  0  3  0  0  0  0  0  0
   34.9580   28.9680   37.2430 C   0  0  0  0  0  0  0  0  0  0  0  0
   34.5040   29.7440   36.6460 H   0  0  0  0  0  0  0  0  0  0  0  0
   35.1660   29.1900   38.6020 C   0  0  0  0  0  0  0  0  0  0  0  0
   34.9000   30.0960   39.1100 H   0  0  0  0  0  0  0  0  0  0  0  0
   35.7500   28.1440   39.2850 C   0  0  0  0  0  3  0  0  0  0  0  0
   36.1400   26.9280   38.7660 C   0  0  0  0  0  0  0  0  0  0  0  0
   38.1130   26.6860   43.2680 O   0  0  0  0  0  0  0  0  0  0  0  0
   37.1500   27.7180   43.2980 C   0  0  0  0  0  0  0  0  0  0  0  0
   35.9850   27.1040   43.7480 F   0  0  0  0  0  0  0  0  0  0  0  0
   37.4940   28.6760   44.2250 F   0  0  0  0  0  0  0  0  0  0  0  0
   36.9730   28.3410   42.0950 F   0  0  0  0  0  0  0  0  0  0  0  0
  1  2  1  0  0  0  0
  2  7  2  0  0  0  0
  2  3  1  0  0  0  0
  3  4  2  0  0  0  0
  4  8  1  0  0  0  0
  4  5  1  0  0  0  0
  5  9  1  0  0  0  0
  6 10  1  0  0  0  0
  6  5  2  0  0  0  0
  7  6  1  0  0  0  0
 11 16  1  0  0  0  0
 12 11  2  0  0  0  0
 12 13  1  0  0  0  0
 13 14  2  0  0  0  0
 14 15  1  0  0  0  0
 15  3  1  0  0  0  0
 16 15  2  0  0  0  0
 17 12  1  0  0  0  0
 18 13  1  0  0  0  0
 19 11  1  0  0  0  0
 19 21  1  0  0  0  0
 20 19  1  0  0  0  0
 22  7  1  0  0  0  0
 22 24  1  0  0  0  0
 24 23  2  6  0  0  0
 24 38  1  0  0  0  0
 25 24  1  0  0  0  0
 26 25  1  0  0  0  0
 27 26  1  0  0  0  0
 28 27  2  0  0  0  0
 29 30  2  0  0  0  0
 29 28  1  0  0  0  0
 30 37  1  0  0  0  0
 31 32  2  0  0  0  0
 31 30  1  0  0  0  0
 32 34  1  0  0  0  0
 33 32  1  0  0  0  0
 34 35  1  0  0  0  0
 34 36  2  0  0  0  0
 37 36  1  0  0  0  0
 37 26  2  0  0  0  0
 38 39  1  0  0  0  0
 39 40  1  0  0  0  0
 39 41  1  0  0  0  0
 42 39  1  0  0  0  0
M  END
>  <minimizedAffinity>
-6.4400177

$$$$

 OpenBabel03252506163D

 42 45  0  0  0  0  0  0  0  0999 V2000
   38.8830   27.9430   38.9710 F   0  0  0  0  0  0  0  0  0  0  0  0
   37.8300   28.6370   39.3910 C   0  0  0  0  0  0  0  0  0  0  0  0
   36.7630   27.9440   39.9220 C   0  0  0  0  0  0  0  0  0  0  0  0
   35.5970   28.5790   40.3990 C   0  0  0  0  0  0  0  0  0  0  0  0
   35.5240   29.9790   40.3280 C   0  0  0  0  0  0  0  0  0  0  0  0
   36.6180   30.6210   39.7890 C   0  0  0  0  0  0  0  0  0  0  0  0
   37.7360   30.0220   39.3300 C   0  0  0  0  0  0  0  0  0  0  0  0
   34.7930   27.9660   40.8060 H   0  0  0  0  0  0  0  0  0  0  0  0
   34.6150   30.4210   40.7050 H   0  0  0  0  0  0  0  0  0  0  0  0
   36.4210   31.6960   39.8060 H   0  0  0  0  0  0  0  0  0  0  0  0
   37.4910   24.5910   41.2080 C   0  0  0  0  0  0  0  0  0  0  0  0
   36.8690   23.7630   40.2400 C   0  0  0  0  0  0  0  0  0  0  0  0
   36.1990   24.3760   39.1400 C   0  0  0  0  0  0  0  0  0  0  0  0
   36.2010   25.7440   39.0960 N   0  0  0  0  0  0  0  0  0  0  0  0
   36.7940   26.4780   40.0230 C   0  0  0  0  0  0  0  0  0  0  0  0
   37.4320   25.9110   41.0680 N   0  0  0  0  0  0  0  0  0  0  0  0
   36.8590   22.6950   40.2620 H   0  0  0  0  0  0  0  0  0  0  0  0
   35.7150   23.7780   38.3860 H   0  0  0  0  0  0  0  0  0  0  0  0
   38.1400   23.9490   42.2760 N   0  0  0  0  0  0  0  0  0  0  0  0
   39.1440   23.8900   41.9500 H   0  0  0  0  0  0  0  0  0  0  0  0
   37.7490   23.5990   43.1910 H   0  0  0  0  0  0  0  0  0  0  0  0
   38.7570   30.7660   38.8150 O   0  0  0  0  0  0  0  0  0  0  0  0
   41.3820   30.9870   39.0590 O   0  0  0  0  0  0  0  0  0  0  0  0
   40.0480   31.4280   39.6460 P   0  0  2  0  0  0  0  0  0  0  0  0
   39.9830   30.9680   41.2810 O   0  0  0  0  0  0  0  0  0  0  0  0
   40.5100   29.7770   41.7590 C   0  0  0  0  0  0  0  0  0  0  0  0
   41.7730   29.3350   41.5000 N   0  0  0  0  0  0  0  0  0  0  0  0
   42.2060   28.1540   42.0110 C   0  0  0  0  0  3  0  0  0  0  0  0
   41.4060   27.3920   42.7810 N   0  0  0  0  0  0  0  0  0  0  0  0
   40.1510   27.7810   43.0680 C   0  0  0  0  0  0  0  0  0  0  0  0
   39.2920   27.0160   43.8640 C   0  0  0  0  0  3  0  0  0  0  0  0
   37.9940   27.4400   44.1490 C   0  0  0  0  0  0  0  0  0  0  0  0
   37.3440   26.8370   44.7660 H   0  0  0  0  0  0  0  0  0  0  0  0
   37.5200   28.6460   43.6400 C   0  0  0  0  0  0  0  0  0  0  0  0
   36.5350   29.0290   43.8200 H   0  0  0  0  0  0  0  0  0  0  0  0
   38.4180   29.3490   42.8640 C   0  0  0  0  0  3  0  0  0  0  0  0
   39.7090   28.9810   42.5500 C   0  0  0  0  0  0  0  0  0  0  0  0
   40.0220   33.1220   39.6650 O   0  0  0  0  0  0  0  0  0  0  0  0
   38.8000   33.5850   40.1980 C   0  0  0  0  0  0  0  0  0  0  0  0
   39.0450   34.9100   40.5490 F   0  0  0  0  0  0  0  0  0  0  0  0
   37.8200   33.5920   39.2320 F   0  0  0  0  0  0  0  0  0  0  0  0
   38.3450   32.8480   41.2540 F   0  0  0  0  0  0  0  0  0  0  0  0
  1  2  1  0  0  0  0
  2  3  1  0  0  0  0
  3 15  1  0  0  0  0
  3  4  2  0  0  0  0
  4  8  1  0  0  0  0
  5  4  1  0  0  0  0
  5  9  1  0  0  0  0
  6 10  1  0  0  0  0
  6  5  2  0  0  0  0
  7  2  2  0  0  0  0
  7  6  1  0  0  0  0
 11 19  1  0  0  0  0
 12 17  1  0  0  0  0
 12 11  2  0  0  0  0
 13 12  1  0  0  0  0
 14 13  2  0  0  0  0
 14 15  1  0  0  0  0
 15 16  2  0  0  0  0
 16 11  1  0  0  0  0
 18 13  1  0  0  0  0
 19 21  1  0  0  0  0
 20 19  1  0  0  0  0
 22  7  1  0  0  0  0
 22 24  1  0  0  0  0
 24 23  2  6  0  0  0
 24 38  1  0  0  0  0
 24 25  1  0  0  0  0
 25 26  1  0  0  0  0
 26 37  1  0  0  0  0
 27 26  2  0  0  0  0
 27 28  1  0  0  0  0
 28 29  2  0  0  0  0
 29 30  1  0  0  0  0
 30 31  1  0  0  0  0
 31 32  2  0  0  0  0
 32 33  1  0  0  0  0
 34 35  1  0  0  0  0
 34 32  1  0  0  0  0
 36 34  2  0  0  0  0
 37 36  1  0  0  0  0
 37 30  2  0  0  0  0
 38 39  1  0  0  0  0
 39 40  1  0  0  0  0
 39 42  1  0  0  0  0
 41 39  1  0  0  0  0
M  END
>  <minimizedAffinity>
-6.41999626

$$$$
