
 OpenBabel03252506463D

 45 49  0  0  1  0  0  0  0  0999 V2000
   49.4390   33.3760   41.3670 N   0  0  1  0  0  0  0  0  0  0  0  0
   50.6970   33.0930   42.0100 C   0  0  0  0  0  0  0  0  0  0  0  0
   51.3040   31.7720   41.6470 C   0  0  0  0  0  0  0  0  0  0  0  0
   50.4060   30.6680   42.1650 C   0  0  0  0  0  0  0  0  0  0  0  0
   48.9610   31.0590   42.0720 C   0  0  0  0  0  0  0  0  0  0  0  0
   48.7990   32.1270   41.0210 C   0  0  2  0  0  0  0  0  0  0  0  0
   50.5760   33.0990   43.1140 H   0  0  0  0  0  0  0  0  0  0  0  0
   51.3720   33.9330   41.7660 H   0  0  0  0  0  0  0  0  0  0  0  0
   52.2910   31.7450   42.2030 H   0  0  0  0  0  0  0  0  0  0  0  0
   51.5870   31.6460   40.6000 H   0  0  0  0  0  0  0  0  0  0  0  0
   50.6350   29.6890   41.7280 H   0  0  0  0  0  0  0  0  0  0  0  0
   50.6310   30.5890   43.2650 H   0  0  0  0  0  0  0  0  0  0  0  0
   48.2880   30.2300   41.8250 H   0  0  0  0  0  0  0  0  0  0  0  0
   48.5770   31.4950   43.0230 H   0  0  0  0  0  0  0  0  0  0  0  0
   47.7090   32.3380   40.9770 H   0  0  0  0  0  0  0  0  0  0  0  0
   49.1650   31.6210   39.7270 N   0  0  0  0  0  0  0  0  0  0  0  0
   49.9100   30.9020   39.7990 H   0  0  0  0  0  0  0  0  0  0  0  0
   48.6570   31.9950   38.4620 C   0  0  0  0  0  0  0  0  0  0  0  0
   47.5410   32.7070   38.2690 N   0  0  0  0  0  0  0  0  0  0  0  0
   47.0220   33.0920   37.1160 C   0  0  0  0  0  3  0  0  0  0  0  0
   47.6660   32.7420   35.9900 N   0  0  0  0  0  0  0  0  0  0  0  0
   48.7990   32.0270   36.0500 C   0  0  0  0  0  0  0  0  0  0  0  0
   49.4330   31.6850   34.8900 C   0  0  0  0  0  3  0  0  0  0  0  0
   50.6000   30.9510   34.8780 C   0  0  0  0  0  0  0  0  0  0  0  0
   51.0420   30.7200   33.9340 H   0  0  0  0  0  0  0  0  0  0  0  0
   51.0990   30.5750   36.1140 C   0  0  0  0  0  0  0  0  0  0  0  0
   52.0150   29.9990   36.0920 H   0  0  0  0  0  0  0  0  0  0  0  0
   50.4430   30.9300   37.2620 C   0  0  0  0  0  3  0  0  0  0  0  0
   49.2830   31.6600   37.2830 C   0  0  0  0  0  0  0  0  0  0  0  0
   47.2880   34.6670   41.9300 C   0  0  1  0  0  0  0  0  0  0  0  0
   48.4240   35.5980   41.7320 C   0  0  0  0  0  0  0  0  0  0  0  0
   48.6790   34.2220   42.1990 C   0  0  2  0  0  0  0  0  0  0  0  0
   46.7420   34.3900   41.0010 H   0  0  0  0  0  0  0  0  0  0  0  0
   48.5880   36.4130   42.4630 H   0  0  0  0  0  0  0  0  0  0  0  0
   48.7390   35.8940   40.7000 H   0  0  0  0  0  0  0  0  0  0  0  0
   48.8970   34.0860   43.3020 H   0  0  0  0  0  0  0  0  0  0  0  0
   45.5530   36.0420   43.1120 C   0  0  0  0  0  0  0  0  0  0  0  0
   46.3670   34.9010   43.0610 C   0  0  0  0  0  0  0  0  0  0  0  0
   46.2660   33.9730   44.1220 C   0  0  0  0  0  0  0  0  0  0  0  0
   45.3940   34.2350   45.1220 N   0  0  0  0  0  0  0  0  0  0  0  0
   44.6210   35.3380   45.1490 C   0  0  0  0  0  0  0  0  0  0  0  0
   44.6930   36.2590   44.1380 N   0  0  0  0  0  0  0  0  0  0  0  0
   45.6320   36.7510   42.2990 H   0  0  0  0  0  0  0  0  0  0  0  0
   46.8800   33.0820   44.1160 H   0  0  0  0  0  0  0  0  0  0  0  0
   43.9690   35.4180   46.0110 H   0  0  0  0  0  0  0  0  0  0  0  0
  1  2  1  1  0  0  0
  1 32  1  0  0  0  0
  2  7  1  0  0  0  0
  3  2  1  0  0  0  0
  3  4  1  0  0  0  0
  3  9  1  0  0  0  0
  4 12  1  0  0  0  0
  5  4  1  0  0  0  0
  5 14  1  0  0  0  0
  6 15  1  6  0  0  0
  6  1  1  0  0  0  0
  6  5  1  0  0  0  0
  8  2  1  0  0  0  0
 10  3  1  0  0  0  0
 11  4  1  0  0  0  0
 13  5  1  0  0  0  0
 16 17  1  0  0  0  0
 16  6  1  0  0  0  0
 18 16  1  0  0  0  0
 19 18  1  0  0  0  0
 20 19  2  0  0  0  0
 21 22  2  0  0  0  0
 21 20  1  0  0  0  0
 22 29  1  0  0  0  0
 23 22  1  0  0  0  0
 24 23  2  0  0  0  0
 24 26  1  0  0  0  0
 25 24  1  0  0  0  0
 26 28  2  0  0  0  0
 27 26  1  0  0  0  0
 28 29  1  0  0  0  0
 29 18  2  0  0  0  0
 30 33  1  6  0  0  0
 30 32  1  0  0  0  0
 30 38  1  0  0  0  0
 31 30  1  0  0  0  0
 31 32  1  0  0  0  0
 31 34  1  0  0  0  0
 32 36  1  1  0  0  0
 35 31  1  0  0  0  0
 37 42  1  0  0  0  0
 38 37  2  0  0  0  0
 38 39  1  0  0  0  0
 39 40  2  0  0  0  0
 40 41  1  0  0  0  0
 41 45  1  0  0  0  0
 42 41  2  0  0  0  0
 43 37  1  0  0  0  0
 44 39  1  0  0  0  0
M  END
>  <minimizedAffinity>
-5.86522388

>  <minimizedRMSD>
2.46077323

$$$$
