
 OpenBabel03242517483D

 46 50  0  0  0  0  0  0  0  0999 V2000
   38.5460   31.7810   41.1620 C   0  0  0  0  0  0  0  0  0  0  0  0
   39.8980   31.7220   40.8150 C   0  0  0  0  0  0  0  0  0  0  0  0
   40.3670   30.5470   40.2790 C   0  0  0  0  0  0  0  0  0  0  0  0
   39.5060   29.5110   40.1130 N   0  0  0  0  0  0  0  0  0  0  0  0
   38.1960   29.6030   40.4610 C   0  0  0  0  0  0  0  0  0  0  0  0
   37.6950   30.7160   40.9830 N   0  0  0  0  0  0  0  0  0  0  0  0
   38.1150   32.6910   41.5940 H   0  0  0  0  0  0  0  0  0  0  0  0
   41.4130   30.4720   39.9990 H   0  0  0  0  0  0  0  0  0  0  0  0
   37.3420   28.4180   40.2420 C   0  0  0  0  0  0  0  0  0  0  0  0
   37.3680   27.8250   41.1890 H   0  0  0  0  0  0  0  0  0  0  0  0
   37.6840   27.7780   39.4310 H   0  0  0  0  0  0  0  0  0  0  0  0
   35.8810   28.8350   40.0300 C   0  0  0  0  0  0  0  0  0  0  0  0
   35.3160   28.6950   40.9750 H   0  0  0  0  0  0  0  0  0  0  0  0
   35.8060   29.8750   39.7020 H   0  0  0  0  0  0  0  0  0  0  0  0
   35.3250   27.8800   39.0340 C   0  0  0  0  0  0  0  0  0  0  0  0
   36.0480   27.0090   38.3090 N   0  0  0  0  0  0  0  0  0  0  0  0
   35.4980   26.1650   37.4190 C   0  0  0  0  0  0  0  0  0  0  0  0
   34.1730   26.1430   37.2010 N   0  0  0  0  0  0  0  0  0  0  0  0
   33.3760   26.9900   37.8920 C   0  0  0  0  0  0  0  0  0  0  0  0
   32.0240   26.9310   37.6340 C   0  0  0  0  0  0  0  0  0  0  0  0
   31.1800   27.7740   38.3150 C   0  0  0  0  0  0  0  0  0  0  0  0
   30.1060   27.7870   38.1660 H   0  0  0  0  0  0  0  0  0  0  0  0
   31.7240   28.6400   39.2240 C   0  0  0  0  0  0  0  0  0  0  0  0
   31.0620   29.3050   39.7620 H   0  0  0  0  0  0  0  0  0  0  0  0
   33.0810   28.7110   39.4930 C   0  0  0  0  0  0  0  0  0  0  0  0
   33.9450   27.8590   38.8080 C   0  0  0  0  0  0  0  0  0  0  0  0
   40.9660   33.1070   41.0570 S   0  0  0  0  0  0  0  0  0  0  0  0
   40.9570   34.1540   39.6300 C   0  0  0  0  0  0  0  0  0  0  0  0
   39.8860   34.2340   38.7500 C   0  0  0  0  0  0  0  0  0  0  0  0
   39.9580   35.0810   37.6540 C   0  0  0  0  0  0  0  0  0  0  0  0
   41.0640   35.8440   37.4150 C   0  0  0  0  0  0  0  0  0  0  0  0
   42.1240   35.7590   38.2960 C   0  0  0  0  0  0  0  0  0  0  0  0
   42.0840   34.9240   39.3970 C   0  0  0  0  0  0  0  0  0  0  0  0
   39.0230   33.6270   38.9500 H   0  0  0  0  0  0  0  0  0  0  0  0
   39.0640   35.0670   37.0280 H   0  0  0  0  0  0  0  0  0  0  0  0
   41.0140   36.4580   36.5480 H   0  0  0  0  0  0  0  0  0  0  0  0
   42.9820   36.3820   38.0700 H   0  0  0  0  0  0  0  0  0  0  0  0
   43.2100   34.8480   40.3140 C   0  0  0  0  0  0  0  0  0  0  0  0
   44.2720   34.0100   40.1670 C   0  0  0  0  0  0  0  0  0  0  0  0
   45.3430   33.9530   41.0600 C   0  0  0  0  0  0  0  0  0  0  0  0
   45.3250   34.7690   42.1250 N   0  0  0  0  0  0  0  0  0  0  0  0
   44.2740   35.6040   42.2790 C   0  0  0  0  0  0  0  0  0  0  0  0
   43.2440   35.6470   41.4050 N   0  0  0  0  0  0  0  0  0  0  0  0
   44.2980   33.3430   39.3050 H   0  0  0  0  0  0  0  0  0  0  0  0
   46.1610   33.2700   40.8930 H   0  0  0  0  0  0  0  0  0  0  0  0
   44.1270   36.3230   43.1000 H   0  0  0  0  0  0  0  0  0  0  0  0
  1  7  1  0  0  0  0
  2 27  1  0  0  0  0
  2  1  2  0  0  0  0
  3  2  1  0  0  0  0
  4  3  2  0  0  0  0
  4  5  1  0  0  0  0
  5  6  2  0  0  0  0
  6  1  1  0  0  0  0
  8  3  1  0  0  0  0
  9  5  1  0  0  0  0
  9 10  1  0  0  0  0
 11  9  1  0  0  0  0
 12  9  1  0  0  0  0
 12 13  1  0  0  0  0
 14 12  1  0  0  0  0
 15 12  1  0  0  0  0
 16 15  2  0  0  0  0
 17 16  1  0  0  0  0
 18 17  2  0  0  0  0
 18 19  1  0  0  0  0
 19 26  1  0  0  0  0
 20 19  2  0  0  0  0
 20 21  1  0  0  0  0
 21 23  2  0  0  0  0
 22 21  1  0  0  0  0
 23 25  1  0  0  0  0
 23 24  1  0  0  0  0
 26 15  1  0  0  0  0
 26 25  2  0  0  0  0
 28 27  1  0  0  0  0
 29 34  1  0  0  0  0
 29 28  2  0  0  0  0
 30 29  1  0  0  0  0
 31 30  2  0  0  0  0
 31 32  1  0  0  0  0
 32 33  2  0  0  0  0
 33 28  1  0  0  0  0
 33 38  1  0  0  0  0
 35 30  1  0  0  0  0
 36 31  1  0  0  0  0
 37 32  1  0  0  0  0
 38 43  1  0  0  0  0
 39 38  2  0  0  0  0
 39 40  1  0  0  0  0
 40 41  2  0  0  0  0
 41 42  1  0  0  0  0
 42 46  1  0  0  0  0
 43 42  2  0  0  0  0
 44 39  1  0  0  0  0
 45 40  1  0  0  0  0
M  END
>  <minimizedAffinity>
-5.90304327

>  <minimizedRMSD>
2.38392186

$$$$
