
 OpenBabel03252504333D

 43 46  0  0  0  0  0  0  0  0999 V2000
   41.4840   35.7070   41.0780 C   0  0  0  0  0  0  0  0  0  0  0  0
   41.4300   35.9680   42.1600 H   0  0  0  0  0  0  0  0  0  0  0  0
   40.9660   36.5270   40.5380 H   0  0  0  0  0  0  0  0  0  0  0  0
   40.9480   33.4420   41.8310 C   0  0  0  0  0  0  0  0  0  0  0  0
   40.5910   34.5040   40.9630 C   0  0  0  0  0  0  0  0  0  0  0  0
   39.5230   34.3000   40.1610 C   0  0  0  0  0  0  0  0  0  0  0  0
   38.8940   33.1420   40.2400 N   0  0  0  0  0  0  0  0  0  0  0  0
   39.2180   32.1550   41.0380 C   0  0  0  0  0  0  0  0  0  0  0  0
   40.2910   32.2770   41.8890 N   0  0  0  0  0  0  0  0  0  0  0  0
   41.8050   33.5520   42.5030 H   0  0  0  0  0  0  0  0  0  0  0  0
   39.2680   35.0960   39.5220 H   0  0  0  0  0  0  0  0  0  0  0  0
   38.5880   30.8230   41.2070 C   0  0  0  0  0  0  0  0  0  0  0  0
   37.2540   30.6360   41.3750 N   0  0  0  0  0  0  0  0  0  0  0  0
   36.6470   29.4760   41.5310 C   0  0  0  0  0  3  0  0  0  0  0  0
   37.3710   28.3280   41.5300 N   0  0  0  0  0  0  0  0  0  0  0  0
   38.7270   28.3880   41.3680 C   0  0  0  0  0  0  0  0  0  0  0  0
   39.4510   27.2160   41.3700 C   0  0  0  0  0  3  0  0  0  0  0  0
   40.8200   27.2450   41.2070 C   0  0  0  0  0  0  0  0  0  0  0  0
   41.2700   26.2680   41.2260 H   0  0  0  0  0  0  0  0  0  0  0  0
   41.3940   28.4870   41.0500 C   0  0  0  0  0  0  0  0  0  0  0  0
   42.4800   28.4600   40.9260 H   0  0  0  0  0  0  0  0  0  0  0  0
   40.6240   29.6290   41.0570 C   0  0  0  0  0  3  0  0  0  0  0  0
   39.2760   29.6360   41.2130 C   0  0  0  0  0  0  0  0  0  0  0  0
   42.7190   35.4950   40.5420 O   0  0  0  0  0  0  0  0  0  0  0  0
   43.9360   35.4050   41.1960 C   0  0  0  0  0  3  0  0  0  0  0  0
   43.9190   35.6870   42.4940 C   0  0  0  0  0  3  0  0  0  0  0  0
   45.1200   35.6550   43.4210 C   0  0  0  0  0  0  0  0  0  0  0  0
   45.9600   35.3780   42.7560 H   0  0  0  0  0  0  0  0  0  0  0  0
   45.2840   36.6160   43.9160 H   0  0  0  0  0  0  0  0  0  0  0  0
   44.8870   34.6570   44.3490 O   0  0  0  0  0  0  0  0  0  0  0  0
   45.6550   32.5910   42.8690 O   0  0  0  0  0  0  0  0  0  0  0  0
   45.9510   33.3670   44.1310 P   0  0  1  0  0  0  0  0  0  0  0  0
   47.5510   33.9220   43.9960 O   0  0  0  0  0  0  0  0  0  0  0  0
   47.5470   34.9090   44.1530 H   0  0  0  0  0  0  0  0  0  0  0  0
   45.8850   32.3430   45.4720 O   0  0  0  0  0  0  0  0  0  0  0  0
   46.1760   33.0040   46.6480 C   0  0  0  0  0  0  0  0  0  0  0  0
   46.9530   32.2970   47.7140 C   0  0  0  0  0  0  0  0  0  0  0  0
   45.4510   32.4800   47.8670 C   0  0  0  0  0  0  0  0  0  0  0  0
   46.4340   34.0570   46.5350 H   0  0  0  0  0  0  0  0  0  0  0  0
   47.6450   32.8280   48.3810 H   0  0  0  0  0  0  0  0  0  0  0  0
   47.2370   31.2360   47.5500 H   0  0  0  0  0  0  0  0  0  0  0  0
   45.1930   33.2780   48.6100 H   0  0  0  0  0  0  0  0  0  0  0  0
   44.7780   31.6260   47.7790 H   0  0  0  0  0  0  0  0  0  0  0  0
  1  2  1  0  0  0  0
  3  1  1  0  0  0  0
  4  9  1  0  0  0  0
  4 10  1  0  0  0  0
  5  1  1  0  0  0  0
  5  4  2  0  0  0  0
  6  7  2  0  0  0  0
  6  5  1  0  0  0  0
  7  8  1  0  0  0  0
  8 12  1  0  0  0  0
  8  9  2  0  0  0  0
 11  6  1  0  0  0  0
 12 23  2  0  0  0  0
 12 13  1  0  0  0  0
 13 14  2  0  0  0  0
 15 14  1  0  0  0  0
 16 17  1  0  0  0  0
 16 15  2  0  0  0  0
 18 19  1  0  0  0  0
 18 17  2  0  0  0  0
 20 22  2  0  0  0  0
 20 18  1  0  0  0  0
 21 20  1  0  0  0  0
 22 23  1  0  0  0  0
 23 16  1  0  0  0  0
 24  1  1  0  0  0  0
 24 25  1  0  0  0  0
 25 26  2  0  0  0  0
 26 27  1  0  0  0  0
 27 29  1  0  0  0  0
 27 30  1  0  0  0  0
 28 27  1  0  0  0  0
 32 31  2  6  0  0  0
 32 30  1  0  0  0  0
 32 35  1  0  0  0  0
 33 32  1  0  0  0  0
 33 34  1  0  0  0  0
 35 36  1  0  0  0  0
 36 37  1  0  0  0  0
 36 38  1  0  0  0  0
 37 38  1  0  0  0  0
 37 40  1  0  0  0  0
 38 42  1  0  0  0  0
 39 36  1  0  0  0  0
 41 37  1  0  0  0  0
 43 38  1  0  0  0  0
M  END
>  <minimizedAffinity>
-4.89325428

>  <minimizedRMSD>
1.42053449

$$$$
