
 OpenBabel03252502243D

 37 40  0  0  1  0  0  0  0  0999 V2000
   46.6520   34.4930   42.2400 N   0  0  0  0  0  0  0  0  0  0  0  0
   48.0930   34.2760   42.2800 C   0  0  0  0  0  0  0  0  0  0  0  0
   48.6230   35.0250   41.0600 C   0  0  0  0  0  0  0  0  0  0  0  0
   48.1100   34.3960   39.8000 C   0  0  0  0  0  0  0  0  0  0  0  0
   46.6970   33.9400   39.8590 C   0  0  0  0  0  0  0  0  0  0  0  0
   45.9050   34.4450   41.0140 C   0  0  1  0  0  0  0  0  0  0  0  0
   48.2540   33.2080   42.0760 H   0  0  0  0  0  0  0  0  0  0  0  0
   48.5500   34.6480   43.1920 H   0  0  0  0  0  0  0  0  0  0  0  0
   49.7340   34.8250   41.0830 H   0  0  0  0  0  0  0  0  0  0  0  0
   48.4090   36.0890   41.1610 H   0  0  0  0  0  0  0  0  0  0  0  0
   48.7780   33.5610   39.4540 H   0  0  0  0  0  0  0  0  0  0  0  0
   48.1860   35.1640   38.9920 H   0  0  0  0  0  0  0  0  0  0  0  0
   46.1310   34.1290   38.9210 H   0  0  0  0  0  0  0  0  0  0  0  0
   46.7050   32.8190   39.9480 H   0  0  0  0  0  0  0  0  0  0  0  0
   45.5070   35.4620   40.7630 H   0  0  0  0  0  0  0  0  0  0  0  0
   44.4640   36.1140   44.8050 C   0  0  0  0  0  0  0  0  0  0  0  0
   45.1380   35.9270   43.5940 C   0  0  0  0  0  0  0  0  0  0  0  0
   45.9310   34.7630   43.4400 C   0  0  0  0  0  0  0  0  0  0  0  0
   45.9870   33.8960   44.4860 N   0  0  0  0  0  0  0  0  0  0  0  0
   45.3120   34.1240   45.6440 C   0  0  0  0  0  0  0  0  0  0  0  0
   44.5560   35.2290   45.7930 N   0  0  0  0  0  0  0  0  0  0  0  0
   43.9010   37.0370   44.7790 H   0  0  0  0  0  0  0  0  0  0  0  0
   45.1130   36.5950   42.7480 H   0  0  0  0  0  0  0  0  0  0  0  0
   45.3700   33.4210   46.4640 H   0  0  0  0  0  0  0  0  0  0  0  0
   44.8130   33.5790   41.2010 O   0  0  0  0  0  0  0  0  0  0  0  0
   43.8610   33.2850   40.2590 C   0  0  0  0  0  0  0  0  0  0  0  0
   43.9140   32.4010   39.2480 N   0  0  0  0  0  0  0  0  0  0  0  0
   42.9000   32.2220   38.4030 C   0  0  0  0  0  3  0  0  0  0  0  0
   41.7530   32.9390   38.5280 N   0  0  0  0  0  0  0  0  0  0  0  0
   41.6360   33.8390   39.5140 C   0  0  0  0  0  0  0  0  0  0  0  0
   40.4740   34.5650   39.6430 C   0  0  0  0  0  3  0  0  0  0  0  0
   40.3130   35.4980   40.6390 C   0  0  0  0  0  0  0  0  0  0  0  0
   39.4360   36.1180   40.8190 H   0  0  0  0  0  0  0  0  0  0  0  0
   41.3370   35.6950   41.5140 C   0  0  0  0  0  0  0  0  0  0  0  0
   41.2950   36.4070   42.3250 H   0  0  0  0  0  0  0  0  0  0  0  0
   42.4970   34.9610   41.3760 C   0  0  0  0  0  3  0  0  0  0  0  0
   42.6940   34.0150   40.3850 C   0  0  0  0  0  0  0  0  0  0  0  0
  1  2  1  0  0  0  0
  1 18  1  0  0  0  0
  2  8  1  0  0  0  0
  3  9  1  0  0  0  0
  3 10  1  0  0  0  0
  3  2  1  0  0  0  0
  4  5  1  0  0  0  0
  4  3  1  0  0  0  0
  5 14  1  0  0  0  0
  5  6  1  0  0  0  0
  6 15  1  6  0  0  0
  6 25  1  0  0  0  0
  6  1  1  0  0  0  0
  7  2  1  0  0  0  0
 11  4  1  0  0  0  0
 12  4  1  0  0  0  0
 13  5  1  0  0  0  0
 16 21  1  0  0  0  0
 17 16  2  0  0  0  0
 18 17  1  0  0  0  0
 18 19  2  0  0  0  0
 19 20  1  0  0  0  0
 20 21  2  0  0  0  0
 20 24  1  0  0  0  0
 22 16  1  0  0  0  0
 23 17  1  0  0  0  0
 26 37  1  0  0  0  0
 26 25  1  0  0  0  0
 27 26  2  0  0  0  0
 28 29  2  0  0  0  0
 28 27  1  0  0  0  0
 29 30  1  0  0  0  0
 30 31  2  0  0  0  0
 30 37  1  0  0  0  0
 31 32  1  0  0  0  0
 32 33  1  0  0  0  0
 32 34  2  0  0  0  0
 34 35  1  0  0  0  0
 36 34  1  0  0  0  0
 37 36  2  0  0  0  0
M  END
>  <minimizedAffinity>
-6.48084974

>  <minimizedRMSD>
1.40132296

$$$$
