
 OpenBabel03252507463D

 40 43  0  0  0  0  0  0  0  0999 V2000
   48.4640   34.1410   40.5690 C   0  0  0  0  0  0  0  0  0  0  0  0
   49.3510   33.2760   41.2020 C   0  0  0  0  0  0  0  0  0  0  0  0
   50.1540   33.7090   42.2450 C   0  0  0  0  0  0  0  0  0  0  0  0
   50.0200   35.0350   42.6110 N   0  0  0  0  0  0  0  0  0  0  0  0
   49.1480   35.8440   41.9730 C   0  0  0  0  0  0  0  0  0  0  0  0
   48.3950   35.3970   40.9790 N   0  0  0  0  0  0  0  0  0  0  0  0
   50.8530   33.0600   42.7570 H   0  0  0  0  0  0  0  0  0  0  0  0
   49.1110   36.8670   42.3290 H   0  0  0  0  0  0  0  0  0  0  0  0
   47.6660   33.5650   39.4760 C   0  0  0  0  0  0  0  0  0  0  0  0
   47.8550   34.1530   38.5440 H   0  0  0  0  0  0  0  0  0  0  0  0
   47.9730   32.5300   39.2350 H   0  0  0  0  0  0  0  0  0  0  0  0
   46.2000   33.5010   39.7870 C   0  0  0  0  0  0  0  0  0  0  0  0
   46.0830   32.9700   40.7690 H   0  0  0  0  0  0  0  0  0  0  0  0
   45.7790   34.5180   39.9460 H   0  0  0  0  0  0  0  0  0  0  0  0
   45.4080   32.7350   38.7780 C   0  0  0  0  0  0  0  0  0  0  0  0
   44.0140   32.5420   38.9870 C   0  0  0  0  0  0  0  0  0  0  0  0
   43.5070   31.5680   37.5090 S   0  0  0  0  0  0  0  0  0  0  0  0
   45.2890   31.5930   36.8600 C   0  0  0  0  0  0  0  0  0  0  0  0
   45.8320   32.1880   37.6730 N   0  0  0  0  0  0  0  0  0  0  0  0
   43.4180   32.8930   39.8220 H   0  0  0  0  0  0  0  0  0  0  0  0
   45.6660   30.9840   35.6660 O   0  0  0  0  0  0  0  0  0  0  0  0
   46.9340   31.1310   33.3440 O   0  0  0  0  0  0  0  0  0  0  0  0
   46.3010   31.9780   34.4440 P   0  0  0  0  0  0  0  0  0  0  0  0
   45.0430   32.8980   33.7920 O   0  0  0  0  0  0  0  0  0  0  0  0
   44.5850   32.3940   33.0810 H   0  0  0  0  0  0  0  0  0  0  0  0
   47.4420   33.0500   35.1240 O   0  0  0  0  0  0  0  0  0  0  0  0
   47.5610   33.7780   34.4830 H   0  0  0  0  0  0  0  0  0  0  0  0
   49.4830   31.5600   40.6830 S   0  0  0  0  0  0  0  0  0  0  0  0
   50.8770   31.3460   39.5860 C   0  0  0  0  0  0  0  0  0  0  0  0
   52.1520   31.5140   40.0240 N   0  0  0  0  0  0  0  0  0  0  0  0
   53.1780   31.3460   39.1720 C   0  0  0  0  0  3  0  0  0  0  0  0
   52.9510   31.0130   37.8870 N   0  0  0  0  0  0  0  0  0  0  0  0
   51.6900   30.8400   37.4230 C   0  0  0  0  0  0  0  0  0  0  0  0
   51.5660   30.5000   36.0900 C   0  0  0  0  0  3  0  0  0  0  0  0
   50.3060   30.3130   35.5700 C   0  0  0  0  0  0  0  0  0  0  0  0
   50.2530   30.0470   34.5200 H   0  0  0  0  0  0  0  0  0  0  0  0
   49.2090   30.4740   36.4090 C   0  0  0  0  0  0  0  0  0  0  0  0
   48.2420   30.3180   35.9610 H   0  0  0  0  0  0  0  0  0  0  0  0
   49.3710   30.8160   37.7410 C   0  0  0  0  0  3  0  0  0  0  0  0
   50.6250   31.0090   38.2830 C   0  0  0  0  0  0  0  0  0  0  0  0
  1  6  2  0  0  0  0
  1  2  1  0  0  0  0
  2  3  2  0  0  0  0
  3  4  1  0  0  0  0
  3  7  1  0  0  0  0
  5  8  1  0  0  0  0
  5  4  2  0  0  0  0
  6  5  1  0  0  0  0
  9 12  1  0  0  0  0
  9  1  1  0  0  0  0
 10  9  1  0  0  0  0
 11  9  1  0  0  0  0
 12 14  1  0  0  0  0
 12 13  1  0  0  0  0
 15 16  2  0  0  0  0
 15 12  1  0  0  0  0
 16 20  1  0  0  0  0
 17 16  1  0  0  0  0
 18 17  1  0  0  0  0
 18 19  2  0  0  0  0
 19 15  1  0  0  0  0
 21 18  1  0  0  0  0
 22 23  2  0  0  0  0
 23 26  1  0  0  0  0
 23 21  1  0  0  0  0
 24 23  1  0  0  0  0
 25 24  1  0  0  0  0
 27 26  1  0  0  0  0
 28  2  1  0  0  0  0
 29 30  1  0  0  0  0
 29 28  1  0  0  0  0
 31 30  2  0  0  0  0
 32 31  1  0  0  0  0
 33 32  2  0  0  0  0
 33 40  1  0  0  0  0
 34 33  1  0  0  0  0
 35 34  2  0  0  0  0
 35 37  1  0  0  0  0
 36 35  1  0  0  0  0
 37 39  2  0  0  0  0
 38 37  1  0  0  0  0
 39 40  1  0  0  0  0
 40 29  2  0  0  0  0
M  END
>  <minimizedAffinity>
-5.35921431

>  <minimizedRMSD>
4.69691658

$$$$
