
 OpenBabel03242514583D

 28 30  0  0  0  0  0  0  0  0999 V2000
   37.7100   27.8920   43.6780 C   0  0  0  0  0  0  0  0  0  0  0  0
   37.7420   27.9660   44.7860 H   0  0  0  0  0  0  0  0  0  0  0  0
   36.6740   27.5580   43.4670 H   0  0  0  0  0  0  0  0  0  0  0  0
   38.7210   26.8640   43.3100 C   0  0  0  0  0  0  0  0  0  0  0  0
   40.0060   27.0140   43.6780 N   0  0  0  0  0  0  0  0  0  0  0  0
   40.9140   26.0930   43.3190 C   0  0  0  0  0  3  0  0  0  0  0  0
   40.5930   24.9870   42.5830 N   0  0  0  0  0  0  0  0  0  0  0  0
   39.3110   24.8330   42.2150 C   0  0  0  0  0  0  0  0  0  0  0  0
   38.9050   23.7570   41.4890 C   0  0  0  0  0  3  0  0  0  0  0  0
   37.6450   23.4630   41.0510 C   0  0  0  0  0  0  0  0  0  0  0  0
   37.3980   22.5850   40.4760 H   0  0  0  0  0  0  0  0  0  0  0  0
   36.6910   24.4180   41.4220 C   0  0  0  0  0  0  0  0  0  0  0  0
   35.6540   24.2390   41.1000 H   0  0  0  0  0  0  0  0  0  0  0  0
   37.0320   25.5450   42.1650 C   0  0  0  0  0  3  0  0  0  0  0  0
   38.3450   25.7450   42.5580 C   0  0  0  0  0  0  0  0  0  0  0  0
   38.0310   29.2420   43.1540 C   0  0  0  0  0  0  0  0  0  0  0  0
   39.1100   29.4460   43.2290 H   0  0  0  0  0  0  0  0  0  0  0  0
   37.5640   30.0120   43.8420 H   0  0  0  0  0  0  0  0  0  0  0  0
   37.4650   29.5810   41.4950 S   0  0  0  0  0  0  0  0  0  0  0  0
   37.8900   31.2230   40.9030 C   0  0  0  0  0  0  0  0  0  0  0  0
   36.9740   31.8050   40.0260 C   0  0  0  0  0  0  0  0  0  0  0  0
   37.2630   33.0810   39.5400 C   0  0  0  0  0  0  0  0  0  0  0  0
   38.4220   33.6850   39.9520 N   0  0  0  0  0  0  0  0  0  0  0  0
   39.2870   33.0980   40.7990 C   0  0  0  0  0  0  0  0  0  0  0  0
   39.0330   31.8640   41.2840 N   0  0  0  0  0  0  0  0  0  0  0  0
   36.0680   31.2850   39.7300 H   0  0  0  0  0  0  0  0  0  0  0  0
   36.5970   33.5920   38.8570 H   0  0  0  0  0  0  0  0  0  0  0  0
   40.1870   33.6420   41.0790 H   0  0  0  0  0  0  0  0  0  0  0  0
  1  2  1  0  0  0  0
  3  1  1  0  0  0  0
  4  1  1  0  0  0  0
  4  5  1  0  0  0  0
  6  5  2  0  0  0  0
  7  6  1  0  0  0  0
  8 15  1  0  0  0  0
  8  7  2  0  0  0  0
  9  8  1  0  0  0  0
 10 12  1  0  0  0  0
 10  9  2  0  0  0  0
 11 10  1  0  0  0  0
 12 14  2  0  0  0  0
 13 12  1  0  0  0  0
 14 15  1  0  0  0  0
 15  4  2  0  0  0  0
 16 17  1  0  0  0  0
 16  1  1  0  0  0  0
 16 18  1  0  0  0  0
 19 16  1  0  0  0  0
 20 25  1  0  0  0  0
 20 19  1  0  0  0  0
 21 20  2  0  0  0  0
 22 23  2  0  0  0  0
 22 21  1  0  0  0  0
 23 24  1  0  0  0  0
 24 28  1  0  0  0  0
 24 25  2  0  0  0  0
 26 21  1  0  0  0  0
 27 22  1  0  0  0  0
M  END
>  <minimizedAffinity>
-5.29493189

$$$$

 OpenBabel03242514583D

 28 30  0  0  0  0  0  0  0  0999 V2000
   35.8330   28.2750   40.4910 C   0  0  0  0  0  0  0  0  0  0  0  0
   34.8730   27.8290   40.8290 H   0  0  0  0  0  0  0  0  0  0  0  0
   36.0360   27.7630   39.5290 H   0  0  0  0  0  0  0  0  0  0  0  0
   36.8330   27.9300   41.5370 C   0  0  0  0  0  0  0  0  0  0  0  0
   37.2510   28.8640   42.4100 N   0  0  0  0  0  0  0  0  0  0  0  0
   38.1730   28.5480   43.3330 C   0  0  0  0  0  3  0  0  0  0  0  0
   38.7190   27.2990   43.4340 N   0  0  0  0  0  0  0  0  0  0  0  0
   38.3040   26.3640   42.5650 C   0  0  0  0  0  0  0  0  0  0  0  0
   38.7900   25.0950   42.6010 C   0  0  0  0  0  3  0  0  0  0  0  0
   38.4600   24.0430   41.7940 C   0  0  0  0  0  0  0  0  0  0  0  0
   38.8910   23.0590   41.8840 H   0  0  0  0  0  0  0  0  0  0  0  0
   37.4990   24.3630   40.8290 C   0  0  0  0  0  0  0  0  0  0  0  0
   37.1880   23.5570   40.1470 H   0  0  0  0  0  0  0  0  0  0  0  0
   36.9550   25.6420   40.7320 C   0  0  0  0  0  3  0  0  0  0  0  0
   37.3630   26.6370   41.6030 C   0  0  0  0  0  0  0  0  0  0  0  0
   35.5990   29.7350   40.3630 C   0  0  0  0  0  0  0  0  0  0  0  0
   35.7130   30.2370   41.3360 H   0  0  0  0  0  0  0  0  0  0  0  0
   34.5090   29.9000   40.1010 H   0  0  0  0  0  0  0  0  0  0  0  0
   36.5870   30.5700   39.1330 S   0  0  0  0  0  0  0  0  0  0  0  0
   37.6760   31.8290   39.8070 C   0  0  0  0  0  0  0  0  0  0  0  0
   37.3390   33.1480   39.4980 C   0  0  0  0  0  0  0  0  0  0  0  0
   38.1570   34.1610   40.0020 C   0  0  0  0  0  0  0  0  0  0  0  0
   39.2360   33.8030   40.7660 N   0  0  0  0  0  0  0  0  0  0  0  0
   39.5370   32.5220   41.0470 C   0  0  0  0  0  0  0  0  0  0  0  0
   38.7630   31.5220   40.5740 N   0  0  0  0  0  0  0  0  0  0  0  0
   36.4710   33.3800   38.8880 H   0  0  0  0  0  0  0  0  0  0  0  0
   37.9550   35.2040   39.8020 H   0  0  0  0  0  0  0  0  0  0  0  0
   40.4110   32.3180   41.6620 H   0  0  0  0  0  0  0  0  0  0  0  0
  1  2  1  0  0  0  0
  1  4  1  0  0  0  0
  3  1  1  0  0  0  0
  4 15  2  0  0  0  0
  4  5  1  0  0  0  0
  5  6  2  0  0  0  0
  6  7  1  0  0  0  0
  8  9  1  0  0  0  0
  8  7  2  0  0  0  0
 10 11  1  0  0  0  0
 10  9  2  0  0  0  0
 12 10  1  0  0  0  0
 13 12  1  0  0  0  0
 14 12  2  0  0  0  0
 14 15  1  0  0  0  0
 15  8  1  0  0  0  0
 16  1  1  0  0  0  0
 16 17  1  0  0  0  0
 18 16  1  0  0  0  0
 19 20  1  0  0  0  0
 19 16  1  0  0  0  0
 20 25  1  0  0  0  0
 21 20  2  0  0  0  0
 21 22  1  0  0  0  0
 22 23  2  0  0  0  0
 23 24  1  0  0  0  0
 24 28  1  0  0  0  0
 25 24  2  0  0  0  0
 26 21  1  0  0  0  0
 27 22  1  0  0  0  0
M  END
>  <minimizedAffinity>
-5.03660345

$$$$

 OpenBabel03242514583D

 28 30  0  0  0  0  0  0  0  0999 V2000
   36.4750   29.9800   38.0920 C   0  0  0  0  0  0  0  0  0  0  0  0
   36.6630   29.6580   37.0450 H   0  0  0  0  0  0  0  0  0  0  0  0
   35.8390   30.8810   37.9800 H   0  0  0  0  0  0  0  0  0  0  0  0
   37.8110   30.2990   38.6650 C   0  0  0  0  0  0  0  0  0  0  0  0
   38.7660   29.3540   38.7250 N   0  0  0  0  0  0  0  0  0  0  0  0
   39.9590   29.6450   39.2670 C   0  0  0  0  0  3  0  0  0  0  0  0
   40.2590   30.8790   39.7730 N   0  0  0  0  0  0  0  0  0  0  0  0
   39.3070   31.8260   39.7150 C   0  0  0  0  0  0  0  0  0  0  0  0
   39.5260   33.0810   40.1870 C   0  0  0  0  0  3  0  0  0  0  0  0
   38.6640   34.1420   40.1900 C   0  0  0  0  0  0  0  0  0  0  0  0
   38.9100   35.1140   40.5850 H   0  0  0  0  0  0  0  0  0  0  0  0
   37.4180   33.8470   39.6250 C   0  0  0  0  0  0  0  0  0  0  0  0
   36.6780   34.6610   39.5950 H   0  0  0  0  0  0  0  0  0  0  0  0
   37.1220   32.5830   39.1200 C   0  0  0  0  0  3  0  0  0  0  0  0
   38.0730   31.5780   39.1690 C   0  0  0  0  0  0  0  0  0  0  0  0
   35.8030   28.8440   38.7690 C   0  0  0  0  0  0  0  0  0  0  0  0
   36.4030   27.9250   38.6820 H   0  0  0  0  0  0  0  0  0  0  0  0
   34.8540   28.6000   38.2000 H   0  0  0  0  0  0  0  0  0  0  0  0
   35.3580   29.1170   40.4770 S   0  0  0  0  0  0  0  0  0  0  0  0
   36.6670   28.7200   41.6410 C   0  0  0  0  0  0  0  0  0  0  0  0
   36.8250   27.3640   41.9350 C   0  0  0  0  0  0  0  0  0  0  0  0
   37.8310   27.0090   42.8350 C   0  0  0  0  0  0  0  0  0  0  0  0
   38.6010   28.0060   43.3730 N   0  0  0  0  0  0  0  0  0  0  0  0
   38.4260   29.3050   43.0710 C   0  0  0  0  0  0  0  0  0  0  0  0
   37.4610   29.6780   42.2040 N   0  0  0  0  0  0  0  0  0  0  0  0
   36.1870   26.6120   41.4810 H   0  0  0  0  0  0  0  0  0  0  0  0
   38.0080   25.9780   43.1080 H   0  0  0  0  0  0  0  0  0  0  0  0
   39.0790   30.0380   43.5400 H   0  0  0  0  0  0  0  0  0  0  0  0
  1  4  1  0  0  0  0
  1 16  1  0  0  0  0
  2  1  1  0  0  0  0
  3  1  1  0  0  0  0
  4  5  2  0  0  0  0
  4 15  1  0  0  0  0
  5  6  1  0  0  0  0
  6  7  2  0  0  0  0
  8  7  1  0  0  0  0
  8  9  1  0  0  0  0
  9 10  2  0  0  0  0
 10 11  1  0  0  0  0
 12 10  1  0  0  0  0
 13 12  1  0  0  0  0
 14 15  1  0  0  0  0
 14 12  2  0  0  0  0
 15  8  2  0  0  0  0
 16 19  1  0  0  0  0
 17 16  1  0  0  0  0
 18 16  1  0  0  0  0
 19 20  1  0  0  0  0
 20 21  2  0  0  0  0
 20 25  1  0  0  0  0
 21 22  1  0  0  0  0
 22 27  1  0  0  0  0
 22 23  2  0  0  0  0
 24 23  1  0  0  0  0
 24 28  1  0  0  0  0
 25 24  2  0  0  0  0
 26 21  1  0  0  0  0
M  END
>  <minimizedAffinity>
-4.84949589

$$$$

 OpenBabel03242514583D

 28 30  0  0  0  0  0  0  0  0999 V2000
   35.4990   29.0930   39.4440 C   0  0  0  0  0  0  0  0  0  0  0  0
   35.8640   29.8870   40.1290 H   0  0  0  0  0  0  0  0  0  0  0  0
   34.4040   29.0830   39.6130 H   0  0  0  0  0  0  0  0  0  0  0  0
   36.1520   27.8350   39.8970 C   0  0  0  0  0  0  0  0  0  0  0  0
   36.0980   26.7290   39.1330 N   0  0  0  0  0  0  0  0  0  0  0  0
   36.6680   25.5930   39.5640 C   0  0  0  0  0  3  0  0  0  0  0  0
   37.3150   25.4990   40.7640 N   0  0  0  0  0  0  0  0  0  0  0  0
   37.3710   26.6010   41.5300 C   0  0  0  0  0  0  0  0  0  0  0  0
   38.0020   26.5970   42.7330 C   0  0  0  0  0  3  0  0  0  0  0  0
   38.1470   27.6340   43.6120 C   0  0  0  0  0  0  0  0  0  0  0  0
   38.6650   27.5530   44.5550 H   0  0  0  0  0  0  0  0  0  0  0  0
   37.5570   28.8230   43.1710 C   0  0  0  0  0  0  0  0  0  0  0  0
   37.6390   29.6980   43.8340 H   0  0  0  0  0  0  0  0  0  0  0  0
   36.8940   28.9030   41.9490 C   0  0  0  0  0  3  0  0  0  0  0  0
   36.8050   27.7870   41.1340 C   0  0  0  0  0  0  0  0  0  0  0  0
   35.8980   29.4990   38.0740 C   0  0  0  0  0  0  0  0  0  0  0  0
   35.2010   30.2490   37.6690 H   0  0  0  0  0  0  0  0  0  0  0  0
   35.7660   28.6090   37.3860 H   0  0  0  0  0  0  0  0  0  0  0  0
   37.5780   30.0780   37.8990 S   0  0  0  0  0  0  0  0  0  0  0  0
   38.0290   31.3640   39.0690 C   0  0  0  0  0  0  0  0  0  0  0  0
   37.3230   32.5620   38.9530 C   0  0  0  0  0  0  0  0  0  0  0  0
   37.6410   33.5900   39.8420 C   0  0  0  0  0  0  0  0  0  0  0  0
   38.6210   33.3630   40.7720 N   0  0  0  0  0  0  0  0  0  0  0  0
   39.2860   32.1970   40.8600 C   0  0  0  0  0  0  0  0  0  0  0  0
   38.9990   31.1860   40.0130 N   0  0  0  0  0  0  0  0  0  0  0  0
   36.5540   32.6920   38.1980 H   0  0  0  0  0  0  0  0  0  0  0  0
   37.1330   34.5450   39.8080 H   0  0  0  0  0  0  0  0  0  0  0  0
   40.0510   32.0940   41.6260 H   0  0  0  0  0  0  0  0  0  0  0  0
  1  3  1  0  0  0  0
  1  4  1  0  0  0  0
  1  2  1  0  0  0  0
  4 15  1  0  0  0  0
  5  6  1  0  0  0  0
  5  4  2  0  0  0  0
  6  7  2  0  0  0  0
  7  8  1  0  0  0  0
  8  9  1  0  0  0  0
  9 10  2  0  0  0  0
 10 11  1  0  0  0  0
 12 10  1  0  0  0  0
 12 13  1  0  0  0  0
 14 12  2  0  0  0  0
 15  8  2  0  0  0  0
 15 14  1  0  0  0  0
 16  1  1  0  0  0  0
 17 16  1  0  0  0  0
 18 16  1  0  0  0  0
 19 16  1  0  0  0  0
 19 20  1  0  0  0  0
 20 25  1  0  0  0  0
 21 20  2  0  0  0  0
 21 22  1  0  0  0  0
 22 23  2  0  0  0  0
 23 24  1  0  0  0  0
 24 28  1  0  0  0  0
 25 24  2  0  0  0  0
 26 21  1  0  0  0  0
 27 22  1  0  0  0  0
M  END
>  <minimizedAffinity>
-4.84122753

$$$$

 OpenBabel03242514583D

 28 30  0  0  0  0  0  0  0  0999 V2000
   40.4830   28.2080   42.8230 C   0  0  0  0  0  0  0  0  0  0  0  0
   41.0570   27.2970   42.5490 H   0  0  0  0  0  0  0  0  0  0  0  0
   40.9130   28.5050   43.8010 H   0  0  0  0  0  0  0  0  0  0  0  0
   39.0640   27.7750   42.9380 C   0  0  0  0  0  0  0  0  0  0  0  0
   38.1550   28.5790   43.5190 N   0  0  0  0  0  0  0  0  0  0  0  0
   36.8830   28.1680   43.6400 C   0  0  0  0  0  3  0  0  0  0  0  0
   36.4550   26.9490   43.1940 N   0  0  0  0  0  0  0  0  0  0  0  0
   37.3590   26.1440   42.6130 C   0  0  0  0  0  0  0  0  0  0  0  0
   37.0160   24.9190   42.1350 C   0  0  0  0  0  3  0  0  0  0  0  0
   37.8180   24.0000   41.5180 C   0  0  0  0  0  0  0  0  0  0  0  0
   37.4710   23.0430   41.1640 H   0  0  0  0  0  0  0  0  0  0  0  0
   39.1460   24.4210   41.3870 C   0  0  0  0  0  0  0  0  0  0  0  0
   39.8440   23.7260   40.8960 H   0  0  0  0  0  0  0  0  0  0  0  0
   39.5710   25.6630   41.8520 C   0  0  0  0  0  3  0  0  0  0  0  0
   38.6720   26.5180   42.4640 C   0  0  0  0  0  0  0  0  0  0  0  0
   40.7090   29.1930   41.7370 C   0  0  0  0  0  0  0  0  0  0  0  0
   40.0670   28.9740   40.8700 H   0  0  0  0  0  0  0  0  0  0  0  0
   41.7590   29.0480   41.3370 H   0  0  0  0  0  0  0  0  0  0  0  0
   40.5360   30.9080   42.2010 S   0  0  0  0  0  0  0  0  0  0  0  0
   39.2750   31.7880   41.2730 C   0  0  0  0  0  0  0  0  0  0  0  0
   38.1310   31.0520   40.9590 C   0  0  0  0  0  0  0  0  0  0  0  0
   37.1240   31.6960   40.2380 C   0  0  0  0  0  0  0  0  0  0  0  0
   37.3150   33.0060   39.8850 N   0  0  0  0  0  0  0  0  0  0  0  0
   38.4290   33.6900   40.2020 C   0  0  0  0  0  0  0  0  0  0  0  0
   39.4200   33.0920   40.8980 N   0  0  0  0  0  0  0  0  0  0  0  0
   38.0270   30.0150   41.2630 H   0  0  0  0  0  0  0  0  0  0  0  0
   36.2110   31.1860   39.9610 H   0  0  0  0  0  0  0  0  0  0  0  0
   38.5070   34.7280   39.8850 H   0  0  0  0  0  0  0  0  0  0  0  0
  1  4  1  0  0  0  0
  1  3  1  0  0  0  0
  2  1  1  0  0  0  0
  4  5  1  0  0  0  0
  5  6  2  0  0  0  0
  7  6  1  0  0  0  0
  8  7  2  0  0  0  0
  9  8  1  0  0  0  0
 10  9  2  0  0  0  0
 11 10  1  0  0  0  0
 12 10  1  0  0  0  0
 12 14  2  0  0  0  0
 13 12  1  0  0  0  0
 14 15  1  0  0  0  0
 15  8  1  0  0  0  0
 15  4  2  0  0  0  0
 16 19  1  0  0  0  0
 16  1  1  0  0  0  0
 17 16  1  0  0  0  0
 18 16  1  0  0  0  0
 20 19  1  0  0  0  0
 21 26  1  0  0  0  0
 21 20  1  0  0  0  0
 22 21  2  0  0  0  0
 23 24  2  0  0  0  0
 23 22  1  0  0  0  0
 24 25  1  0  0  0  0
 25 20  2  0  0  0  0
 27 22  1  0  0  0  0
 28 24  1  0  0  0  0
M  END
>  <minimizedAffinity>
-4.81535721

$$$$

 OpenBabel03242514583D

 28 30  0  0  0  0  0  0  0  0999 V2000
   36.4150   29.3930   41.1720 C   0  0  0  0  0  0  0  0  0  0  0  0
   36.0600   28.3570   41.3540 H   0  0  0  0  0  0  0  0  0  0  0  0
   35.5220   30.0170   41.3770 H   0  0  0  0  0  0  0  0  0  0  0  0
   36.8200   29.4390   39.7410 C   0  0  0  0  0  0  0  0  0  0  0  0
   38.0990   29.6870   39.4060 N   0  0  0  0  0  0  0  0  0  0  0  0
   38.4480   29.7510   38.1110 C   0  0  0  0  0  3  0  0  0  0  0  0
   37.5510   29.5730   37.0940 N   0  0  0  0  0  0  0  0  0  0  0  0
   36.2740   29.3240   37.4250 C   0  0  0  0  0  0  0  0  0  0  0  0
   35.3210   29.1270   36.4770 C   0  0  0  0  0  3  0  0  0  0  0  0
   33.9930   28.8600   36.6590 C   0  0  0  0  0  0  0  0  0  0  0  0
   33.2930   28.7140   35.8520 H   0  0  0  0  0  0  0  0  0  0  0  0
   33.6200   28.7900   38.0070 C   0  0  0  0  0  0  0  0  0  0  0  0
   32.5630   28.5760   38.2220 H   0  0  0  0  0  0  0  0  0  0  0  0
   34.5420   28.9810   39.0330 C   0  0  0  0  0  3  0  0  0  0  0  0
   35.8670   29.2480   38.7340 C   0  0  0  0  0  0  0  0  0  0  0  0
   37.5430   29.6240   42.1070 C   0  0  0  0  0  0  0  0  0  0  0  0
   37.5670   30.6730   42.4420 H   0  0  0  0  0  0  0  0  0  0  0  0
   38.5130   29.5030   41.5340 H   0  0  0  0  0  0  0  0  0  0  0  0
   37.6080   28.5370   43.5220 S   0  0  0  0  0  0  0  0  0  0  0  0
   38.2360   26.8960   43.1490 C   0  0  0  0  0  0  0  0  0  0  0  0
   39.4940   26.5960   43.6750 C   0  0  0  0  0  0  0  0  0  0  0  0
   40.0210   25.3310   43.4110 C   0  0  0  0  0  0  0  0  0  0  0  0
   39.2770   24.4630   42.6560 N   0  0  0  0  0  0  0  0  0  0  0  0
   38.0670   24.7800   42.1620 C   0  0  0  0  0  0  0  0  0  0  0  0
   37.5320   25.9960   42.4020 N   0  0  0  0  0  0  0  0  0  0  0  0
   40.0440   27.3200   44.2680 H   0  0  0  0  0  0  0  0  0  0  0  0
   40.9900   25.0320   43.7870 H   0  0  0  0  0  0  0  0  0  0  0  0
   37.5370   24.0350   41.5720 H   0  0  0  0  0  0  0  0  0  0  0  0
  1  2  1  0  0  0  0
  1  3  1  0  0  0  0
  1 16  1  0  0  0  0
  4  1  1  0  0  0  0
  5  4  1  0  0  0  0
  6  5  2  0  0  0  0
  7  8  2  0  0  0  0
  7  6  1  0  0  0  0
  8 15  1  0  0  0  0
  9 10  2  0  0  0  0
  9  8  1  0  0  0  0
 10 12  1  0  0  0  0
 11 10  1  0  0  0  0
 12 13  1  0  0  0  0
 12 14  2  0  0  0  0
 15 14  1  0  0  0  0
 15  4  2  0  0  0  0
 16 17  1  0  0  0  0
 16 19  1  0  0  0  0
 18 16  1  0  0  0  0
 20 19  1  0  0  0  0
 20 21  1  0  0  0  0
 21 26  1  0  0  0  0
 22 21  2  0  0  0  0
 22 27  1  0  0  0  0
 23 22  1  0  0  0  0
 24 25  1  0  0  0  0
 24 23  2  0  0  0  0
 25 20  2  0  0  0  0
 28 24  1  0  0  0  0
M  END
>  <minimizedAffinity>
-4.71495581

$$$$

 OpenBabel03242514583D

 28 30  0  0  0  0  0  0  0  0999 V2000
   37.6690   28.2590   43.5270 C   0  0  0  0  0  0  0  0  0  0  0  0
   36.7850   27.7420   43.0960 H   0  0  0  0  0  0  0  0  0  0  0  0
   37.2930   28.6670   44.4860 H   0  0  0  0  0  0  0  0  0  0  0  0
   38.0270   29.3300   42.5580 C   0  0  0  0  0  0  0  0  0  0  0  0
   39.0750   30.1380   42.7970 N   0  0  0  0  0  0  0  0  0  0  0  0
   39.3720   31.1180   41.9280 C   0  0  0  0  0  3  0  0  0  0  0  0
   38.6500   31.3400   40.7900 N   0  0  0  0  0  0  0  0  0  0  0  0
   37.6020   30.5350   40.5480 C   0  0  0  0  0  0  0  0  0  0  0  0
   36.8360   30.6820   39.4350 C   0  0  0  0  0  3  0  0  0  0  0  0
   35.7530   29.9410   39.0530 C   0  0  0  0  0  0  0  0  0  0  0  0
   35.1920   30.1190   38.1500 H   0  0  0  0  0  0  0  0  0  0  0  0
   35.4370   28.9160   39.9530 C   0  0  0  0  0  0  0  0  0  0  0  0
   34.5740   28.2810   39.7020 H   0  0  0  0  0  0  0  0  0  0  0  0
   36.1770   28.7050   41.1130 C   0  0  0  0  0  3  0  0  0  0  0  0
   37.2580   29.5190   41.4040 C   0  0  0  0  0  0  0  0  0  0  0  0
   38.7280   27.2300   43.6800 C   0  0  0  0  0  0  0  0  0  0  0  0
   38.3660   26.3820   44.2820 H   0  0  0  0  0  0  0  0  0  0  0  0
   39.5630   27.6690   44.3070 H   0  0  0  0  0  0  0  0  0  0  0  0
   39.4460   26.6300   42.1600 S   0  0  0  0  0  0  0  0  0  0  0  0
   38.5930   25.2100   41.4640 C   0  0  0  0  0  0  0  0  0  0  0  0
   37.2230   25.1430   41.7190 C   0  0  0  0  0  0  0  0  0  0  0  0
   36.5190   24.0570   41.1980 C   0  0  0  0  0  0  0  0  0  0  0  0
   37.2110   23.1260   40.4680 N   0  0  0  0  0  0  0  0  0  0  0  0
   38.5330   23.2160   40.2390 C   0  0  0  0  0  0  0  0  0  0  0  0
   39.2390   24.2560   40.7310 N   0  0  0  0  0  0  0  0  0  0  0  0
   36.7200   25.9080   42.3040 H   0  0  0  0  0  0  0  0  0  0  0  0
   35.4550   23.9420   41.3570 H   0  0  0  0  0  0  0  0  0  0  0  0
   39.0110   22.4360   39.6500 H   0  0  0  0  0  0  0  0  0  0  0  0
  1 16  1  0  0  0  0
  1  3  1  0  0  0  0
  2  1  1  0  0  0  0
  4  5  1  0  0  0  0
  4  1  1  0  0  0  0
  6  5  2  0  0  0  0
  7  6  1  0  0  0  0
  8  7  2  0  0  0  0
  8 15  1  0  0  0  0
  9  8  1  0  0  0  0
 10  9  2  0  0  0  0
 10 12  1  0  0  0  0
 11 10  1  0  0  0  0
 12 14  2  0  0  0  0
 13 12  1  0  0  0  0
 14 15  1  0  0  0  0
 15  4  2  0  0  0  0
 16 17  1  0  0  0  0
 16 18  1  0  0  0  0
 19 16  1  0  0  0  0
 20 21  1  0  0  0  0
 20 19  1  0  0  0  0
 21 26  1  0  0  0  0
 22 27  1  0  0  0  0
 22 21  2  0  0  0  0
 23 22  1  0  0  0  0
 24 23  2  0  0  0  0
 24 25  1  0  0  0  0
 25 20  2  0  0  0  0
 28 24  1  0  0  0  0
M  END
>  <minimizedAffinity>
-4.71262789

$$$$

 OpenBabel03242514583D

 28 30  0  0  0  0  0  0  0  0999 V2000
   35.6810   27.7240   39.1520 C   0  0  0  0  0  0  0  0  0  0  0  0
   34.6360   27.5670   38.8090 H   0  0  0  0  0  0  0  0  0  0  0  0
   35.5640   28.0530   40.2040 H   0  0  0  0  0  0  0  0  0  0  0  0
   36.2380   28.7950   38.2830 C   0  0  0  0  0  0  0  0  0  0  0  0
   36.4330   28.5710   36.9710 N   0  0  0  0  0  0  0  0  0  0  0  0
   36.9600   29.5360   36.2010 C   0  0  0  0  0  3  0  0  0  0  0  0
   37.3170   30.7610   36.6930 N   0  0  0  0  0  0  0  0  0  0  0  0
   37.1230   30.9890   38.0020 C   0  0  0  0  0  0  0  0  0  0  0  0
   37.4410   32.1820   38.5700 C   0  0  0  0  0  3  0  0  0  0  0  0
   37.2960   32.5590   39.8750 C   0  0  0  0  0  0  0  0  0  0  0  0
   37.5740   33.5300   40.2530 H   0  0  0  0  0  0  0  0  0  0  0  0
   36.7460   31.5590   40.6850 C   0  0  0  0  0  0  0  0  0  0  0  0
   36.6010   31.8020   41.7480 H   0  0  0  0  0  0  0  0  0  0  0  0
   36.3940   30.3130   40.1730 C   0  0  0  0  0  3  0  0  0  0  0  0
   36.5860   30.0350   38.8310 C   0  0  0  0  0  0  0  0  0  0  0  0
   36.3760   26.4230   38.9980 C   0  0  0  0  0  0  0  0  0  0  0  0
   37.0300   26.4310   38.1120 H   0  0  0  0  0  0  0  0  0  0  0  0
   35.6030   25.6320   38.7530 H   0  0  0  0  0  0  0  0  0  0  0  0
   37.2950   25.8650   40.4230 S   0  0  0  0  0  0  0  0  0  0  0  0
   37.7740   27.1860   41.5420 C   0  0  0  0  0  0  0  0  0  0  0  0
   36.9450   27.3700   42.6500 C   0  0  0  0  0  0  0  0  0  0  0  0
   37.2790   28.3850   43.5470 C   0  0  0  0  0  0  0  0  0  0  0  0
   38.3960   29.1370   43.2900 N   0  0  0  0  0  0  0  0  0  0  0  0
   39.1760   28.9360   42.2130 C   0  0  0  0  0  0  0  0  0  0  0  0
   38.8770   27.9610   41.3280 N   0  0  0  0  0  0  0  0  0  0  0  0
   36.0710   26.7460   42.8090 H   0  0  0  0  0  0  0  0  0  0  0  0
   36.6810   28.5830   44.4260 H   0  0  0  0  0  0  0  0  0  0  0  0
   40.0460   29.5750   42.0780 H   0  0  0  0  0  0  0  0  0  0  0  0
  1  3  1  0  0  0  0
  2  1  1  0  0  0  0
  4 15  1  0  0  0  0
  4  1  1  0  0  0  0
  5  4  2  0  0  0  0
  6  7  2  0  0  0  0
  6  5  1  0  0  0  0
  7  8  1  0  0  0  0
  8  9  2  0  0  0  0
  8 15  1  0  0  0  0
  9 10  1  0  0  0  0
 10 11  1  0  0  0  0
 10 12  2  0  0  0  0
 12 13  1  0  0  0  0
 14 12  1  0  0  0  0
 15 14  2  0  0  0  0
 16  1  1  0  0  0  0
 16 19  1  0  0  0  0
 17 16  1  0  0  0  0
 18 16  1  0  0  0  0
 19 20  1  0  0  0  0
 20 21  1  0  0  0  0
 21 26  1  0  0  0  0
 21 22  2  0  0  0  0
 22 27  1  0  0  0  0
 23 22  1  0  0  0  0
 24 23  2  0  0  0  0
 25 20  2  0  0  0  0
 25 24  1  0  0  0  0
 28 24  1  0  0  0  0
M  END
>  <minimizedAffinity>
-4.60748577

$$$$

 OpenBabel03242514583D

 28 30  0  0  0  0  0  0  0  0999 V2000
   34.8460   29.2390   39.8980 C   0  0  0  0  0  0  0  0  0  0  0  0
   34.0290   29.9770   40.0490 H   0  0  0  0  0  0  0  0  0  0  0  0
   34.4940   28.3420   40.4450 H   0  0  0  0  0  0  0  0  0  0  0  0
   36.0570   29.8410   40.5180 C   0  0  0  0  0  0  0  0  0  0  0  0
   36.5210   31.0280   40.0890 N   0  0  0  0  0  0  0  0  0  0  0  0
   37.6300   31.5490   40.6380 C   0  0  0  0  0  3  0  0  0  0  0  0
   38.3260   30.9210   41.6340 N   0  0  0  0  0  0  0  0  0  0  0  0
   37.8650   29.7360   42.0650 C   0  0  0  0  0  0  0  0  0  0  0  0
   38.4920   29.0500   43.0570 C   0  0  0  0  0  3  0  0  0  0  0  0
   38.1410   27.8470   43.6010 C   0  0  0  0  0  0  0  0  0  0  0  0
   38.6920   27.3610   44.3910 H   0  0  0  0  0  0  0  0  0  0  0  0
   36.9860   27.2970   43.0350 C   0  0  0  0  0  0  0  0  0  0  0  0
   36.6480   26.3270   43.4310 H   0  0  0  0  0  0  0  0  0  0  0  0
   36.2890   27.9420   42.0160 C   0  0  0  0  0  3  0  0  0  0  0  0
   36.7360   29.1620   41.5370 C   0  0  0  0  0  0  0  0  0  0  0  0
   34.9740   29.0440   38.4330 C   0  0  0  0  0  0  0  0  0  0  0  0
   35.7300   29.7250   38.0110 H   0  0  0  0  0  0  0  0  0  0  0  0
   34.0090   29.3780   37.9430 H   0  0  0  0  0  0  0  0  0  0  0  0
   35.3040   27.3720   37.9020 S   0  0  0  0  0  0  0  0  0  0  0  0
   36.6720   26.5920   38.7650 C   0  0  0  0  0  0  0  0  0  0  0  0
   36.3900   25.3590   39.3560 C   0  0  0  0  0  0  0  0  0  0  0  0
   37.4250   24.7160   40.0380 C   0  0  0  0  0  0  0  0  0  0  0  0
   38.6500   25.3280   40.0850 N   0  0  0  0  0  0  0  0  0  0  0  0
   38.8920   26.5180   39.5060 C   0  0  0  0  0  0  0  0  0  0  0  0
   37.9100   27.1630   38.8400 N   0  0  0  0  0  0  0  0  0  0  0  0
   35.4020   24.9150   39.2900 H   0  0  0  0  0  0  0  0  0  0  0  0
   37.2770   23.7590   40.5200 H   0  0  0  0  0  0  0  0  0  0  0  0
   39.8920   26.9400   39.5870 H   0  0  0  0  0  0  0  0  0  0  0  0
  1  2  1  0  0  0  0
  1  3  1  0  0  0  0
  1  4  1  0  0  0  0
  4 15  1  0  0  0  0
  5  4  2  0  0  0  0
  5  6  1  0  0  0  0
  6  7  2  0  0  0  0
  7  8  1  0  0  0  0
  8  9  1  0  0  0  0
  9 10  2  0  0  0  0
 10 11  1  0  0  0  0
 12 13  1  0  0  0  0
 12 10  1  0  0  0  0
 14 12  2  0  0  0  0
 15 14  1  0  0  0  0
 15  8  2  0  0  0  0
 16  1  1  0  0  0  0
 17 16  1  0  0  0  0
 18 16  1  0  0  0  0
 19 16  1  0  0  0  0
 19 20  1  0  0  0  0
 20 25  2  0  0  0  0
 20 21  1  0  0  0  0
 21 22  2  0  0  0  0
 22 23  1  0  0  0  0
 22 27  1  0  0  0  0
 24 28  1  0  0  0  0
 24 23  2  0  0  0  0
 25 24  1  0  0  0  0
 26 21  1  0  0  0  0
M  END
>  <minimizedAffinity>
-4.5994916

$$$$
