
 OpenBabel03252506463D

 45 49  0  0  1  0  0  0  0  0999 V2000
   49.8070   33.6240   41.4860 N   0  0  1  0  0  0  0  0  0  0  0  0
   50.7770   33.0170   42.3610 C   0  0  0  0  0  0  0  0  0  0  0  0
   51.3200   31.7050   41.8820 C   0  0  0  0  0  0  0  0  0  0  0  0
   50.1950   30.6910   41.8700 C   0  0  0  0  0  0  0  0  0  0  0  0
   48.8950   31.3300   41.4840 C   0  0  0  0  0  0  0  0  0  0  0  0
   49.1710   32.5900   40.7030 C   0  0  2  0  0  0  0  0  0  0  0  0
   50.3310   32.8340   43.3630 H   0  0  0  0  0  0  0  0  0  0  0  0
   51.5790   33.7610   42.5090 H   0  0  0  0  0  0  0  0  0  0  0  0
   52.0850   31.4070   42.6620 H   0  0  0  0  0  0  0  0  0  0  0  0
   51.8880   31.7330   40.9500 H   0  0  0  0  0  0  0  0  0  0  0  0
   50.4390   29.7880   41.2980 H   0  0  0  0  0  0  0  0  0  0  0  0
   50.0700   30.3670   42.9410 H   0  0  0  0  0  0  0  0  0  0  0  0
   48.2420   30.6890   40.8810 H   0  0  0  0  0  0  0  0  0  0  0  0
   48.2920   31.6370   42.3690 H   0  0  0  0  0  0  0  0  0  0  0  0
   48.1730   32.9860   40.4160 H   0  0  0  0  0  0  0  0  0  0  0  0
   49.8500   32.2830   39.4750 N   0  0  0  0  0  0  0  0  0  0  0  0
   50.7930   32.7160   39.4460 H   0  0  0  0  0  0  0  0  0  0  0  0
   49.3830   31.5220   38.3790 C   0  0  0  0  0  0  0  0  0  0  0  0
   49.9580   30.4010   37.9280 N   0  0  0  0  0  0  0  0  0  0  0  0
   49.5660   29.6480   36.9170 C   0  0  0  0  0  3  0  0  0  0  0  0
   48.4640   30.0220   36.2430 N   0  0  0  0  0  0  0  0  0  0  0  0
   47.7970   31.1300   36.5990 C   0  0  0  0  0  0  0  0  0  0  0  0
   46.6810   31.4890   35.8980 C   0  0  0  0  0  3  0  0  0  0  0  0
   45.9470   32.6150   36.2090 C   0  0  0  0  0  0  0  0  0  0  0  0
   45.0860   32.8340   35.6170 H   0  0  0  0  0  0  0  0  0  0  0  0
   46.4030   33.3680   37.2770 C   0  0  0  0  0  0  0  0  0  0  0  0
   45.8200   34.2480   37.5110 H   0  0  0  0  0  0  0  0  0  0  0  0
   47.5240   32.9860   37.9630 C   0  0  0  0  0  3  0  0  0  0  0  0
   48.2610   31.8680   37.6610 C   0  0  0  0  0  0  0  0  0  0  0  0
   47.5000   34.6690   41.9320 C   0  0  1  0  0  0  0  0  0  0  0  0
   48.5190   35.7210   41.7050 C   0  0  0  0  0  0  0  0  0  0  0  0
   48.9270   34.4130   42.2540 C   0  0  2  0  0  0  0  0  0  0  0  0
   47.0170   34.2780   41.0090 H   0  0  0  0  0  0  0  0  0  0  0  0
   48.5630   36.5870   42.3920 H   0  0  0  0  0  0  0  0  0  0  0  0
   48.8240   35.9970   40.6650 H   0  0  0  0  0  0  0  0  0  0  0  0
   49.1310   34.3640   43.3670 H   0  0  0  0  0  0  0  0  0  0  0  0
   45.6400   35.9340   43.0450 C   0  0  0  0  0  0  0  0  0  0  0  0
   46.5270   34.8480   43.0290 C   0  0  0  0  0  0  0  0  0  0  0  0
   46.4500   33.9200   44.0930 C   0  0  0  0  0  0  0  0  0  0  0  0
   45.5290   34.1290   45.0610 N   0  0  0  0  0  0  0  0  0  0  0  0
   44.6850   35.1800   45.0540 C   0  0  0  0  0  0  0  0  0  0  0  0
   44.7320   36.0990   44.0390 N   0  0  0  0  0  0  0  0  0  0  0  0
   45.7010   36.6420   42.2300 H   0  0  0  0  0  0  0  0  0  0  0  0
   47.1200   33.0700   44.1140 H   0  0  0  0  0  0  0  0  0  0  0  0
   44.0000   35.2220   45.8920 H   0  0  0  0  0  0  0  0  0  0  0  0
  1 32  1  0  0  0  0
  1  2  1  1  0  0  0
  2  8  1  0  0  0  0
  2  7  1  0  0  0  0
  3  2  1  0  0  0  0
  3  9  1  0  0  0  0
  4  3  1  0  0  0  0
  4 12  1  0  0  0  0
  5  4  1  0  0  0  0
  5 14  1  0  0  0  0
  6 15  1  6  0  0  0
  6  5  1  0  0  0  0
  6  1  1  0  0  0  0
 10  3  1  0  0  0  0
 11  4  1  0  0  0  0
 13  5  1  0  0  0  0
 16  6  1  0  0  0  0
 17 16  1  0  0  0  0
 18 16  1  0  0  0  0
 19 18  1  0  0  0  0
 20 19  2  0  0  0  0
 21 22  2  0  0  0  0
 21 20  1  0  0  0  0
 22 29  1  0  0  0  0
 23 24  2  0  0  0  0
 23 22  1  0  0  0  0
 24 26  1  0  0  0  0
 25 24  1  0  0  0  0
 26 27  1  0  0  0  0
 26 28  2  0  0  0  0
 29 28  1  0  0  0  0
 29 18  2  0  0  0  0
 30 33  1  6  0  0  0
 30 32  1  0  0  0  0
 30 38  1  0  0  0  0
 31 30  1  0  0  0  0
 31 32  1  0  0  0  0
 31 34  1  0  0  0  0
 32 36  1  1  0  0  0
 35 31  1  0  0  0  0
 37 42  1  0  0  0  0
 38 37  2  0  0  0  0
 38 39  1  0  0  0  0
 39 44  1  0  0  0  0
 39 40  2  0  0  0  0
 41 40  1  0  0  0  0
 41 45  1  0  0  0  0
 42 41  2  0  0  0  0
 43 37  1  0  0  0  0
M  END
>  <minimizedAffinity>
-5.75265932

>  <minimizedRMSD>
2.35868859

$$$$
