
 OpenBabel03252504333D

 43 46  0  0  0  0  0  0  0  0999 V2000
   46.3010   34.9900   42.1790 C   0  0  0  0  0  0  0  0  0  0  0  0
   46.5000   34.3650   43.0790 H   0  0  0  0  0  0  0  0  0  0  0  0
   46.3830   36.0450   42.5130 H   0  0  0  0  0  0  0  0  0  0  0  0
   44.5260   33.4010   41.6220 C   0  0  0  0  0  0  0  0  0  0  0  0
   44.8430   34.7530   41.9040 C   0  0  0  0  0  0  0  0  0  0  0  0
   43.8180   35.6330   41.8860 C   0  0  0  0  0  0  0  0  0  0  0  0
   42.6080   35.1800   41.6100 N   0  0  0  0  0  0  0  0  0  0  0  0
   42.3080   33.9320   41.3480 C   0  0  0  0  0  0  0  0  0  0  0  0
   43.2900   32.9690   41.3450 N   0  0  0  0  0  0  0  0  0  0  0  0
   45.3170   32.6440   41.6230 H   0  0  0  0  0  0  0  0  0  0  0  0
   44.0660   36.6330   42.0970 H   0  0  0  0  0  0  0  0  0  0  0  0
   40.9970   33.3170   41.0270 C   0  0  0  0  0  0  0  0  0  0  0  0
   40.3730   32.4150   41.8260 N   0  0  0  0  0  0  0  0  0  0  0  0
   39.2110   31.8390   41.5860 C   0  0  0  0  0  3  0  0  0  0  0  0
   38.5290   32.1390   40.4520 N   0  0  0  0  0  0  0  0  0  0  0  0
   39.0570   33.0360   39.5670 C   0  0  0  0  0  0  0  0  0  0  0  0
   38.3560   33.3320   38.4190 C   0  0  0  0  0  3  0  0  0  0  0  0
   38.8630   34.2340   37.5070 C   0  0  0  0  0  0  0  0  0  0  0  0
   38.2230   34.3790   36.6550 H   0  0  0  0  0  0  0  0  0  0  0  0
   40.0810   34.7990   37.8150 C   0  0  0  0  0  0  0  0  0  0  0  0
   40.4410   35.5070   37.0640 H   0  0  0  0  0  0  0  0  0  0  0  0
   40.7420   34.4690   38.9780 C   0  0  0  0  0  3  0  0  0  0  0  0
   40.2710   33.5860   39.8950 C   0  0  0  0  0  0  0  0  0  0  0  0
   47.0810   34.7800   41.0800 O   0  0  0  0  0  0  0  0  0  0  0  0
   48.2510   34.0480   40.9860 C   0  0  0  0  0  3  0  0  0  0  0  0
   48.2450   33.0550   40.1040 C   0  0  0  0  0  3  0  0  0  0  0  0
   49.4050   32.1180   39.8180 C   0  0  0  0  0  0  0  0  0  0  0  0
   50.2430   32.8010   39.5820 H   0  0  0  0  0  0  0  0  0  0  0  0
   49.6280   31.4680   40.6680 H   0  0  0  0  0  0  0  0  0  0  0  0
   49.0580   31.3730   38.7060 O   0  0  0  0  0  0  0  0  0  0  0  0
   48.9510   33.1380   36.7260 O   0  0  0  0  0  0  0  0  0  0  0  0
   49.7620   32.0060   37.3100 P   0  0  1  0  0  0  0  0  0  0  0  0
   51.3030   32.6360   37.6450 O   0  0  0  0  0  0  0  0  0  0  0  0
   51.5180   32.4310   38.6000 H   0  0  0  0  0  0  0  0  0  0  0  0
   49.9560   30.7790   36.1670 O   0  0  0  0  0  0  0  0  0  0  0  0
   51.2840   30.4580   35.9660 C   0  0  0  0  0  0  0  0  0  0  0  0
   51.6310   29.1920   35.2480 C   0  0  0  0  0  0  0  0  0  0  0  0
   51.7760   29.2680   36.7600 C   0  0  0  0  0  0  0  0  0  0  0  0
   51.9310   31.3000   35.7210 H   0  0  0  0  0  0  0  0  0  0  0  0
   52.5220   29.1090   34.6120 H   0  0  0  0  0  0  0  0  0  0  0  0
   50.8090   28.5160   34.9340 H   0  0  0  0  0  0  0  0  0  0  0  0
   52.8460   29.3590   37.0810 H   0  0  0  0  0  0  0  0  0  0  0  0
   51.0910   28.7220   37.4090 H   0  0  0  0  0  0  0  0  0  0  0  0
  1  3  1  0  0  0  0
  1  2  1  0  0  0  0
  4 10  1  0  0  0  0
  4  5  1  0  0  0  0
  5  1  1  0  0  0  0
  6  5  2  0  0  0  0
  6 11  1  0  0  0  0
  7  6  1  0  0  0  0
  8  7  2  0  0  0  0
  9  8  1  0  0  0  0
  9  4  2  0  0  0  0
 12  8  1  0  0  0  0
 12 13  1  0  0  0  0
 14 13  2  0  0  0  0
 15 14  1  0  0  0  0
 16 23  1  0  0  0  0
 16 15  2  0  0  0  0
 17 16  1  0  0  0  0
 18 20  1  0  0  0  0
 18 17  2  0  0  0  0
 19 18  1  0  0  0  0
 20 22  2  0  0  0  0
 21 20  1  0  0  0  0
 22 23  1  0  0  0  0
 23 12  2  0  0  0  0
 24  1  1  0  0  0  0
 25 24  1  0  0  0  0
 26 25  2  0  0  0  0
 27 26  1  0  0  0  0
 27 29  1  0  0  0  0
 28 27  1  0  0  0  0
 30 27  1  0  0  0  0
 32 31  2  6  0  0  0
 32 33  1  0  0  0  0
 32 30  1  0  0  0  0
 33 34  1  0  0  0  0
 35 32  1  0  0  0  0
 36 35  1  0  0  0  0
 36 38  1  0  0  0  0
 37 36  1  0  0  0  0
 37 38  1  0  0  0  0
 38 42  1  0  0  0  0
 38 43  1  0  0  0  0
 39 36  1  0  0  0  0
 40 37  1  0  0  0  0
 41 37  1  0  0  0  0
M  END
>  <minimizedAffinity>
-5.38911438

>  <minimizedRMSD>
6.88606215

$$$$
