
 OpenBabel03242511173D

 22 24  0  0  0  0  0  0  0  0999 V2000
   46.5510   33.8370   40.5650 C   0  0  0  0  0  0  0  0  0  0  0  0
   45.3910   33.2540   40.9830 N   0  0  0  0  0  0  0  0  0  0  0  0
   44.6160   32.5410   40.1330 C   0  0  0  0  0  0  0  0  0  0  0  0
   45.0430   32.4370   38.8710 N   0  0  0  0  0  0  0  0  0  0  0  0
   46.1620   32.9780   38.3870 C   0  0  0  0  0  0  0  0  0  0  0  0
   46.5740   32.8520   37.0760 C   0  0  0  0  0  0  0  0  0  0  0  0
   47.7570   33.4550   36.6760 C   0  0  0  0  0  0  0  0  0  0  0  0
   48.0560   33.3380   35.6400 H   0  0  0  0  0  0  0  0  0  0  0  0
   48.5150   34.1720   37.5790 C   0  0  0  0  0  0  0  0  0  0  0  0
   49.4390   34.6310   37.2300 H   0  0  0  0  0  0  0  0  0  0  0  0
   48.1420   34.3280   38.9140 C   0  0  0  0  0  0  0  0  0  0  0  0
   46.9540   33.7040   39.2460 C   0  0  0  0  0  0  0  0  0  0  0  0
   47.4270   34.7320   41.8400 S   0  0  0  0  0  0  0  0  0  0  0  0
   44.5630   35.9640   44.4300 C   0  0  0  0  0  0  0  0  0  0  0  0
   45.4020   35.9100   43.2980 C   0  0  0  0  0  0  0  0  0  0  0  0
   46.3350   34.8630   43.2430 C   0  0  0  0  0  0  0  0  0  0  0  0
   46.3770   33.9780   44.2620 N   0  0  0  0  0  0  0  0  0  0  0  0
   45.5610   34.0550   45.3360 C   0  0  0  0  0  0  0  0  0  0  0  0
   44.6630   35.0490   45.4040 N   0  0  0  0  0  0  0  0  0  0  0  0
   43.8660   36.7770   44.4340 H   0  0  0  0  0  0  0  0  0  0  0  0
   45.3160   36.6440   42.5240 H   0  0  0  0  0  0  0  0  0  0  0  0
   45.5800   33.3560   46.1610 H   0  0  0  0  0  0  0  0  0  0  0  0
  1  2  1  0  0  0  0
  1 13  1  0  0  0  0
  3  2  2  0  0  0  0
  4  3  1  0  0  0  0
  5  4  2  0  0  0  0
  5 12  1  0  0  0  0
  6  5  1  0  0  0  0
  7  6  2  0  0  0  0
  7  9  1  0  0  0  0
  8  7  1  0  0  0  0
  9 11  2  0  0  0  0
 10  9  1  0  0  0  0
 11 12  1  0  0  0  0
 12  1  2  0  0  0  0
 13 16  1  0  0  0  0
 14 20  1  0  0  0  0
 14 19  1  0  0  0  0
 15 14  2  0  0  0  0
 16 15  1  0  0  0  0
 16 17  2  0  0  0  0
 17 18  1  0  0  0  0
 18 19  2  0  0  0  0
 18 22  1  0  0  0  0
 21 15  1  0  0  0  0
M  END
>  <minimizedAffinity>
-4.69767189

>  <minimizedRMSD>
0.654209256

$$$$
