
 OpenBabel03252501323D

 27 29  0  0  0  0  0  0  0  0999 V2000
   44.6780   29.1680   42.7960 C   0  0  0  0  0  0  0  0  0  0  0  0
   45.1000   30.3410   42.4340 O   0  0  0  0  0  0  0  0  0  0  0  0
   43.8110   28.5810   41.8580 N   0  0  0  0  0  0  0  0  0  0  0  0
   43.6360   27.7090   42.3190 H   0  0  0  0  0  0  0  0  0  0  0  0
   45.4340   29.2520   44.0080 C   0  0  0  0  0  0  0  0  0  0  0  0
   46.4890   30.0200   43.6830 N   0  0  0  0  0  0  0  0  0  0  0  0
   47.4450   30.3220   44.6100 C   0  0  0  0  0  3  0  0  0  0  0  0
   47.2690   29.8170   45.8290 N   0  0  0  0  0  0  0  0  0  0  0  0
   46.2380   29.0510   46.1960 C   0  0  0  0  0  0  0  0  0  0  0  0
   46.0440   28.5190   47.4650 C   0  0  0  0  0  3  0  0  0  0  0  0
   44.9240   27.7260   47.7360 C   0  0  0  0  0  0  0  0  0  0  0  0
   44.8200   27.3350   48.7470 H   0  0  0  0  0  0  0  0  0  0  0  0
   44.0040   27.4800   46.7100 C   0  0  0  0  0  0  0  0  0  0  0  0
   43.1890   26.8570   47.0500 H   0  0  0  0  0  0  0  0  0  0  0  0
   44.1750   27.9960   45.4450 C   0  0  0  0  0  3  0  0  0  0  0  0
   45.2940   28.7590   45.2590 C   0  0  0  0  0  0  0  0  0  0  0  0
   43.6240   29.4870   40.7670 C   0  0  0  0  0  0  0  0  0  0  0  0
   42.5270   30.3400   40.5850 C   0  0  0  0  0  0  0  0  0  0  0  0
   42.5360   31.1350   39.4550 C   0  0  0  0  0  0  0  0  0  0  0  0
   43.5780   31.0390   38.6190 N   0  0  0  0  0  0  0  0  0  0  0  0
   44.6290   30.2140   38.8030 C   0  0  0  0  0  0  0  0  0  0  0  0
   44.6600   29.4250   39.8890 N   0  0  0  0  0  0  0  0  0  0  0  0
   41.6830   31.7860   39.3290 H   0  0  0  0  0  0  0  0  0  0  0  0
   45.4520   30.1600   38.1130 H   0  0  0  0  0  0  0  0  0  0  0  0
   41.5310   30.2910   41.5850 N   0  0  0  0  0  0  0  0  0  0  0  0
   40.9170   29.5020   41.9010 H   0  0  0  0  0  0  0  0  0  0  0  0
   41.4990   31.2410   41.9950 H   0  0  0  0  0  0  0  0  0  0  0  0
  1  5  1  0  0  0  0
  2  1  2  0  0  0  0
  3  4  1  0  0  0  0
  3  1  1  0  0  0  0
  5 16  1  0  0  0  0
  6  5  2  0  0  0  0
  6  7  1  0  0  0  0
  7  8  2  0  0  0  0
  8  9  1  0  0  0  0
  9 10  1  0  0  0  0
 10 11  2  0  0  0  0
 11 12  1  0  0  0  0
 13 14  1  0  0  0  0
 13 11  1  0  0  0  0
 15 13  2  0  0  0  0
 16 15  1  0  0  0  0
 16  9  2  0  0  0  0
 17  3  1  0  0  0  0
 18 17  1  0  0  0  0
 18 25  1  0  0  0  0
 19 18  2  0  0  0  0
 20 21  2  0  0  0  0
 20 19  1  0  0  0  0
 21 22  1  0  0  0  0
 22 17  2  0  0  0  0
 23 19  1  0  0  0  0
 24 21  1  0  0  0  0
 25 26  1  0  0  0  0
 25 27  1  0  0  0  0
M  END
>  <minimizedAffinity>
-1.96431768

>  <minimizedRMSD>
8.08532143

$$$$
