
 OpenBabel03252508053D

 45 49  0  0  1  0  0  0  0  0999 V2000
   37.4010   29.3610   40.9140 C   0  0  0  0  0  0  0  0  0  0  0  0
   37.9310   29.6010   39.6810 C   0  0  0  0  0  0  0  0  0  0  0  0
   37.0450   29.7950   38.6000 C   0  0  0  0  0  0  0  0  0  0  0  0
   35.6740   29.7520   38.7420 C   0  0  0  0  0  0  0  0  0  0  0  0
   35.1520   29.5100   39.9820 C   0  0  0  0  0  0  0  0  0  0  0  0
   36.0050   29.3220   41.0270 C   0  0  0  0  0  0  0  0  0  0  0  0
   37.3660   29.9830   37.5900 H   0  0  0  0  0  0  0  0  0  0  0  0
   35.0020   29.9000   37.9200 H   0  0  0  0  0  0  0  0  0  0  0  0
   34.1080   29.4620   40.1660 H   0  0  0  0  0  0  0  0  0  0  0  0
   35.5830   29.1260   42.0260 H   0  0  0  0  0  0  0  0  0  0  0  0
   38.3610   29.1550   42.2880 S   0  0  0  0  0  0  0  0  0  0  0  0
   37.3330   28.8980   43.3860 O   0  0  0  0  0  0  0  0  0  0  0  0
   39.0470   30.4700   42.5860 O   0  0  0  0  0  0  0  0  0  0  0  0
   39.2680   27.8830   42.8290 C   0  0  0  0  0  0  0  0  0  0  0  0
   40.5050   27.9040   43.3740 N   0  0  0  0  0  0  0  0  0  0  0  0
   41.3390   26.9480   43.6800 C   0  0  0  0  0  3  0  0  0  0  0  0
   40.9010   25.7290   43.4070 N   0  0  0  0  0  0  0  0  0  0  0  0
   39.7010   25.5090   42.8660 C   0  0  0  0  0  0  0  0  0  0  0  0
   39.4370   24.1550   42.6500 C   0  0  0  0  0  3  0  0  0  0  0  0
   38.2150   23.8460   42.0870 C   0  0  0  0  0  0  0  0  0  0  0  0
   37.9550   22.8170   41.8950 H   0  0  0  0  0  0  0  0  0  0  0  0
   37.3340   24.8580   41.7730 C   0  0  0  0  0  0  0  0  0  0  0  0
   36.3860   24.5850   41.3350 H   0  0  0  0  0  0  0  0  0  0  0  0
   37.6940   26.1590   42.0270 C   0  0  0  0  0  3  0  0  0  0  0  0
   38.8830   26.5710   42.5790 C   0  0  0  0  0  0  0  0  0  0  0  0
   39.3570   29.6500   39.4270 C   0  0  0  0  0  0  0  0  0  0  0  0
   40.0910   28.6130   39.2670 O   0  0  0  0  0  0  0  0  0  0  0  0
   39.8770   30.9840   39.3690 C   0  0  0  0  0  0  0  0  0  0  0  0
   38.9080   32.0200   39.5220 C   0  0  0  0  0  0  0  0  0  0  0  0
   39.3880   33.3280   39.4760 C   0  0  0  0  0  0  0  0  0  0  0  0
   40.7210   33.5270   39.2920 N   0  0  0  0  0  0  0  0  0  0  0  0
   41.5860   32.4970   39.1520 C   0  0  0  0  0  0  0  0  0  0  0  0
   41.1650   31.2780   39.1910 N   0  0  0  0  0  0  0  0  0  0  0  0
   37.8590   31.9660   39.6680 H   0  0  0  0  0  0  0  0  0  0  0  0
   38.7680   34.2110   39.5780 H   0  0  0  0  0  0  0  0  0  0  0  0
   43.0280   32.8060   38.9660 C   0  0  1  0  0  0  0  0  0  0  0  0
   43.7470   32.2290   37.7640 C   0  0  0  0  0  0  0  0  0  0  0  0
   43.3490   33.6670   37.8190 C   0  0  1  0  0  0  0  0  0  0  0  0
   43.6100   32.9210   39.8820 H   0  0  0  0  0  0  0  0  0  0  0  0
   44.8330   32.0340   37.9070 H   0  0  0  0  0  0  0  0  0  0  0  0
   43.1730   31.4880   37.1840 H   0  0  0  0  0  0  0  0  0  0  0  0
   44.1360   34.4350   37.9250 H   0  0  0  0  0  0  0  0  0  0  0  0
   42.3130   33.9750   36.8380 N   0  0  0  0  0  0  0  0  0  0  0  0
   42.5520   34.8840   36.3390 H   0  0  0  0  0  0  0  0  0  0  0  0
   42.1790   33.2540   36.1210 H   0  0  0  0  0  0  0  0  0  0  0  0
  1  6  1  0  0  0  0
  1 11  1  0  0  0  0
  2  1  2  0  0  0  0
  3  4  2  0  0  0  0
  3  2  1  0  0  0  0
  4  5  1  0  0  0  0
  5  9  1  0  0  0  0
  5  6  2  0  0  0  0
  6 10  1  0  0  0  0
  7  3  1  0  0  0  0
  8  4  1  0  0  0  0
 11 13  2  0  0  0  0
 11 14  1  0  0  0  0
 11 12  2  0  0  0  0
 14 15  1  0  0  0  0
 15 16  2  0  0  0  0
 17 16  1  0  0  0  0
 18 17  2  0  0  0  0
 19 18  1  0  0  0  0
 20 19  2  0  0  0  0
 21 20  1  0  0  0  0
 22 24  2  0  0  0  0
 22 20  1  0  0  0  0
 23 22  1  0  0  0  0
 24 25  1  0  0  0  0
 25 14  2  0  0  0  0
 25 18  1  0  0  0  0
 26  2  1  0  0  0  0
 27 26  2  0  0  0  0
 28 26  1  0  0  0  0
 28 29  1  0  0  0  0
 29 34  1  0  0  0  0
 30 29  2  0  0  0  0
 30 35  1  0  0  0  0
 31 30  1  0  0  0  0
 32 33  1  0  0  0  0
 32 31  2  0  0  0  0
 33 28  2  0  0  0  0
 36 32  1  0  0  0  0
 36 39  1  1  0  0  0
 37 38  1  0  0  0  0
 37 40  1  0  0  0  0
 37 36  1  0  0  0  0
 38 42  1  1  0  0  0
 38 36  1  0  0  0  0
 41 37  1  0  0  0  0
 43 38  1  0  0  0  0
 44 43  1  0  0  0  0
 45 43  1  0  0  0  0
M  END
>  <minimizedAffinity>
-6.97840595

$$$$

 OpenBabel03252508053D

 45 49  0  0  1  0  0  0  0  0999 V2000
   36.7910   28.8650   38.5580 C   0  0  0  0  0  0  0  0  0  0  0  0
   35.9330   29.0050   39.6080 C   0  0  0  0  0  0  0  0  0  0  0  0
   34.5520   28.8370   39.3700 C   0  0  0  0  0  0  0  0  0  0  0  0
   34.0410   28.5370   38.1250 C   0  0  0  0  0  0  0  0  0  0  0  0
   34.9090   28.3980   37.0780 C   0  0  0  0  0  0  0  0  0  0  0  0
   36.2410   28.5610   37.3050 C   0  0  0  0  0  0  0  0  0  0  0  0
   33.7980   28.9340   40.1310 H   0  0  0  0  0  0  0  0  0  0  0  0
   32.9920   28.4080   37.9460 H   0  0  0  0  0  0  0  0  0  0  0  0
   34.5870   28.1690   36.0930 H   0  0  0  0  0  0  0  0  0  0  0  0
   36.9400   28.4490   36.4600 H   0  0  0  0  0  0  0  0  0  0  0  0
   38.4650   29.0020   38.7310 S   0  0  0  0  0  0  0  0  0  0  0  0
   38.9190   29.4080   37.3320 O   0  0  0  0  0  0  0  0  0  0  0  0
   39.0230   27.6280   39.0240 O   0  0  0  0  0  0  0  0  0  0  0  0
   39.4200   30.1790   39.3910 C   0  0  0  0  0  0  0  0  0  0  0  0
   40.6180   30.0440   40.0020 N   0  0  0  0  0  0  0  0  0  0  0  0
   41.3530   30.8860   40.6750 C   0  0  0  0  0  3  0  0  0  0  0  0
   40.8350   32.1000   40.7870 N   0  0  0  0  0  0  0  0  0  0  0  0
   39.6580   32.4230   40.2460 C   0  0  0  0  0  0  0  0  0  0  0  0
   39.2890   33.7480   40.4870 C   0  0  0  0  0  3  0  0  0  0  0  0
   38.0800   34.1580   39.9650 C   0  0  0  0  0  0  0  0  0  0  0  0
   37.7410   35.1700   40.1190 H   0  0  0  0  0  0  0  0  0  0  0  0
   37.3110   33.2670   39.2470 C   0  0  0  0  0  0  0  0  0  0  0  0
   36.3700   33.6160   38.8500 H   0  0  0  0  0  0  0  0  0  0  0  0
   37.7670   31.9830   39.0700 C   0  0  0  0  0  3  0  0  0  0  0  0
   38.9510   31.4770   39.5500 C   0  0  0  0  0  0  0  0  0  0  0  0
   36.3710   29.3350   40.9500 C   0  0  0  0  0  0  0  0  0  0  0  0
   36.1900   30.4760   41.5020 O   0  0  0  0  0  0  0  0  0  0  0  0
   37.0330   28.2500   41.6130 C   0  0  0  0  0  0  0  0  0  0  0  0
   38.0760   28.6320   42.5090 C   0  0  0  0  0  0  0  0  0  0  0  0
   38.7320   27.5960   43.1720 C   0  0  0  0  0  0  0  0  0  0  0  0
   38.3420   26.3160   42.9280 N   0  0  0  0  0  0  0  0  0  0  0  0
   37.3440   26.0240   42.0630 C   0  0  0  0  0  0  0  0  0  0  0  0
   36.7230   26.9660   41.4370 N   0  0  0  0  0  0  0  0  0  0  0  0
   38.4490   29.5920   42.7630 H   0  0  0  0  0  0  0  0  0  0  0  0
   39.5400   27.7380   43.8790 H   0  0  0  0  0  0  0  0  0  0  0  0
   36.9780   24.5980   41.8640 C   0  0  1  0  0  0  0  0  0  0  0  0
   36.3890   24.1750   40.5330 C   0  0  0  0  0  0  0  0  0  0  0  0
   37.8020   23.8600   40.8970 C   0  0  1  0  0  0  0  0  0  0  0  0
   36.6210   24.0720   42.7510 H   0  0  0  0  0  0  0  0  0  0  0  0
   35.6860   23.3130   40.5760 H   0  0  0  0  0  0  0  0  0  0  0  0
   36.1340   25.0010   39.8490 H   0  0  0  0  0  0  0  0  0  0  0  0
   38.0760   22.8110   41.1110 H   0  0  0  0  0  0  0  0  0  0  0  0
   38.7480   24.5860   40.0550 N   0  0  0  0  0  0  0  0  0  0  0  0
   39.5210   23.9280   39.7350 H   0  0  0  0  0  0  0  0  0  0  0  0
   38.3340   25.0070   39.2160 H   0  0  0  0  0  0  0  0  0  0  0  0
  1 11  1  0  0  0  0
  1  2  1  0  0  0  0
  2 26  1  0  0  0  0
  3  2  2  0  0  0  0
  3  7  1  0  0  0  0
  4  3  1  0  0  0  0
  5  6  1  0  0  0  0
  5  4  2  0  0  0  0
  6  1  2  0  0  0  0
  8  4  1  0  0  0  0
  9  5  1  0  0  0  0
 10  6  1  0  0  0  0
 11 13  2  0  0  0  0
 11 14  1  0  0  0  0
 12 11  2  0  0  0  0
 14 25  2  0  0  0  0
 14 15  1  0  0  0  0
 15 16  2  0  0  0  0
 16 17  1  0  0  0  0
 18 19  1  0  0  0  0
 18 17  2  0  0  0  0
 20 21  1  0  0  0  0
 20 19  2  0  0  0  0
 22 20  1  0  0  0  0
 23 22  1  0  0  0  0
 24 22  2  0  0  0  0
 24 25  1  0  0  0  0
 25 18  1  0  0  0  0
 26 27  2  0  0  0  0
 26 28  1  0  0  0  0
 28 29  1  0  0  0  0
 29 34  1  0  0  0  0
 29 30  2  0  0  0  0
 30 35  1  0  0  0  0
 31 30  1  0  0  0  0
 32 31  2  0  0  0  0
 33 28  2  0  0  0  0
 33 32  1  0  0  0  0
 36 32  1  0  0  0  0
 36 39  1  1  0  0  0
 37 40  1  0  0  0  0
 37 38  1  0  0  0  0
 37 36  1  0  0  0  0
 38 42  1  1  0  0  0
 38 36  1  0  0  0  0
 41 37  1  0  0  0  0
 43 38  1  0  0  0  0
 44 43  1  0  0  0  0
 45 43  1  0  0  0  0
M  END
>  <minimizedAffinity>
-6.66708231

$$$$

 OpenBabel03252508053D

 45 49  0  0  1  0  0  0  0  0999 V2000
   36.8430   29.0030   40.5450 C   0  0  0  0  0  0  0  0  0  0  0  0
   37.3510   28.8930   39.2850 C   0  0  0  0  0  0  0  0  0  0  0  0
   36.4600   28.9840   38.1950 C   0  0  0  0  0  0  0  0  0  0  0  0
   35.1040   29.1810   38.3550 C   0  0  0  0  0  0  0  0  0  0  0  0
   34.6040   29.2910   39.6210 C   0  0  0  0  0  0  0  0  0  0  0  0
   35.4620   29.2020   40.6750 C   0  0  0  0  0  0  0  0  0  0  0  0
   36.7630   28.9020   37.1660 H   0  0  0  0  0  0  0  0  0  0  0  0
   34.4290   29.2520   37.5250 H   0  0  0  0  0  0  0  0  0  0  0  0
   33.5730   29.4430   39.8200 H   0  0  0  0  0  0  0  0  0  0  0  0
   35.0570   29.2900   41.6960 H   0  0  0  0  0  0  0  0  0  0  0  0
   37.8170   28.9520   41.9230 S   0  0  0  0  0  0  0  0  0  0  0  0
   36.8030   28.7970   43.0520 O   0  0  0  0  0  0  0  0  0  0  0  0
   38.4890   30.2970   42.0770 O   0  0  0  0  0  0  0  0  0  0  0  0
   38.7450   27.7520   42.5830 C   0  0  0  0  0  0  0  0  0  0  0  0
   39.9050   27.8670   43.2670 N   0  0  0  0  0  0  0  0  0  0  0  0
   40.7650   26.9770   43.6800 C   0  0  0  0  0  3  0  0  0  0  0  0
   40.4510   25.7270   43.3750 N   0  0  0  0  0  0  0  0  0  0  0  0
   39.3410   25.4170   42.7030 C   0  0  0  0  0  0  0  0  0  0  0  0
   39.2020   24.0460   42.4770 C   0  0  0  0  0  3  0  0  0  0  0  0
   38.0800   23.6450   41.7810 C   0  0  0  0  0  0  0  0  0  0  0  0
   37.9190   22.5980   41.5750 H   0  0  0  0  0  0  0  0  0  0  0  0
   37.1710   24.5880   41.3540 C   0  0  0  0  0  0  0  0  0  0  0  0
   36.3020   24.2440   40.8130 H   0  0  0  0  0  0  0  0  0  0  0  0
   37.4040   25.9130   41.6290 C   0  0  0  0  0  3  0  0  0  0  0  0
   38.4880   26.4150   42.3090 C   0  0  0  0  0  0  0  0  0  0  0  0
   38.7570   28.6680   39.0150 C   0  0  0  0  0  0  0  0  0  0  0  0
   39.3270   27.5240   39.0890 O   0  0  0  0  0  0  0  0  0  0  0  0
   39.4620   29.8620   38.6500 C   0  0  0  0  0  0  0  0  0  0  0  0
   40.5250   29.6780   37.7170 C   0  0  0  0  0  0  0  0  0  0  0  0
   41.2230   30.8240   37.3400 C   0  0  0  0  0  0  0  0  0  0  0  0
   40.8510   32.0180   37.8740 N   0  0  0  0  0  0  0  0  0  0  0  0
   39.8320   32.1220   38.7570 C   0  0  0  0  0  0  0  0  0  0  0  0
   39.1720   31.0750   39.1220 N   0  0  0  0  0  0  0  0  0  0  0  0
   40.8870   28.7970   37.2490 H   0  0  0  0  0  0  0  0  0  0  0  0
   42.0510   30.8350   36.6410 H   0  0  0  0  0  0  0  0  0  0  0  0
   39.4870   33.4680   39.2830 C   0  0  1  0  0  0  0  0  0  0  0  0
   38.4350   33.5800   40.3680 C   0  0  0  0  0  0  0  0  0  0  0  0
   39.8890   33.7280   40.6720 C   0  0  1  0  0  0  0  0  0  0  0  0
   39.5440   34.2870   38.5630 H   0  0  0  0  0  0  0  0  0  0  0  0
   37.8520   34.5280   40.3700 H   0  0  0  0  0  0  0  0  0  0  0  0
   37.8860   32.6490   40.5870 H   0  0  0  0  0  0  0  0  0  0  0  0
   40.2780   34.7270   40.9440 H   0  0  0  0  0  0  0  0  0  0  0  0
   40.3790   32.6290   41.4980 N   0  0  0  0  0  0  0  0  0  0  0  0
   40.9900   33.0130   42.2800 H   0  0  0  0  0  0  0  0  0  0  0  0
   39.6430   32.0620   41.9310 H   0  0  0  0  0  0  0  0  0  0  0  0
  1  6  1  0  0  0  0
  1 11  1  0  0  0  0
  2  1  2  0  0  0  0
  3  4  2  0  0  0  0
  3  2  1  0  0  0  0
  4  5  1  0  0  0  0
  5  9  1  0  0  0  0
  5  6  2  0  0  0  0
  6 10  1  0  0  0  0
  7  3  1  0  0  0  0
  8  4  1  0  0  0  0
 11 13  2  0  0  0  0
 11 14  1  0  0  0  0
 11 12  2  0  0  0  0
 14 15  1  0  0  0  0
 15 16  2  0  0  0  0
 17 16  1  0  0  0  0
 18 17  2  0  0  0  0
 19 18  1  0  0  0  0
 20 19  2  0  0  0  0
 21 20  1  0  0  0  0
 22 24  2  0  0  0  0
 22 20  1  0  0  0  0
 23 22  1  0  0  0  0
 24 25  1  0  0  0  0
 25 14  2  0  0  0  0
 25 18  1  0  0  0  0
 26 27  2  0  0  0  0
 26  2  1  0  0  0  0
 28 26  1  0  0  0  0
 28 33  1  0  0  0  0
 29 28  2  0  0  0  0
 30 29  1  0  0  0  0
 30 31  2  0  0  0  0
 31 32  1  0  0  0  0
 32 33  2  0  0  0  0
 32 36  1  0  0  0  0
 34 29  1  0  0  0  0
 35 30  1  0  0  0  0
 36 39  1  6  0  0  0
 36 37  1  0  0  0  0
 36 38  1  0  0  0  0
 37 40  1  0  0  0  0
 37 41  1  0  0  0  0
 37 38  1  0  0  0  0
 38 42  1  1  0  0  0
 38 43  1  0  0  0  0
 43 45  1  0  0  0  0
 43 44  1  0  0  0  0
M  END
>  <minimizedAffinity>
-6.43918705

$$$$

 OpenBabel03252508053D

 45 49  0  0  1  0  0  0  0  0999 V2000
   36.4610   29.7570   38.2920 C   0  0  0  0  0  0  0  0  0  0  0  0
   35.7420   29.6120   39.4410 C   0  0  0  0  0  0  0  0  0  0  0  0
   34.4340   29.0900   39.3500 C   0  0  0  0  0  0  0  0  0  0  0  0
   33.8600   28.7230   38.1510 C   0  0  0  0  0  0  0  0  0  0  0  0
   34.5880   28.8720   37.0040 C   0  0  0  0  0  0  0  0  0  0  0  0
   35.8500   29.3760   37.0900 C   0  0  0  0  0  0  0  0  0  0  0  0
   33.7870   28.9450   40.1980 H   0  0  0  0  0  0  0  0  0  0  0  0
   32.8670   28.3260   38.0830 H   0  0  0  0  0  0  0  0  0  0  0  0
   34.2110   28.6120   36.0470 H   0  0  0  0  0  0  0  0  0  0  0  0
   36.4360   29.4970   36.1640 H   0  0  0  0  0  0  0  0  0  0  0  0
   38.0490   30.3310   38.2830 S   0  0  0  0  0  0  0  0  0  0  0  0
   37.9290   31.6500   37.5270 O   0  0  0  0  0  0  0  0  0  0  0  0
   38.8870   29.3870   37.4510 O   0  0  0  0  0  0  0  0  0  0  0  0
   38.9690   31.0700   39.4410 C   0  0  0  0  0  0  0  0  0  0  0  0
   39.1090   32.3920   39.6860 N   0  0  0  0  0  0  0  0  0  0  0  0
   39.9190   33.0530   40.4660 C   0  0  0  0  0  3  0  0  0  0  0  0
   40.7670   32.2960   41.1460 N   0  0  0  0  0  0  0  0  0  0  0  0
   40.7780   30.9660   41.0350 C   0  0  0  0  0  0  0  0  0  0  0  0
   41.7530   30.3580   41.8280 C   0  0  0  0  0  3  0  0  0  0  0  0
   41.8320   28.9820   41.7640 C   0  0  0  0  0  0  0  0  0  0  0  0
   42.5670   28.4560   42.3540 H   0  0  0  0  0  0  0  0  0  0  0  0
   40.9680   28.2880   40.9450 C   0  0  0  0  0  0  0  0  0  0  0  0
   41.0530   27.2110   40.9170 H   0  0  0  0  0  0  0  0  0  0  0  0
   40.0450   28.9850   40.2050 C   0  0  0  0  0  3  0  0  0  0  0  0
   39.8880   30.3500   40.1940 C   0  0  0  0  0  0  0  0  0  0  0  0
   36.2510   29.9840   40.7470 C   0  0  0  0  0  0  0  0  0  0  0  0
   36.2350   31.1780   41.2080 O   0  0  0  0  0  0  0  0  0  0  0  0
   36.7810   28.8750   41.4850 C   0  0  0  0  0  0  0  0  0  0  0  0
   37.4650   29.2200   42.6890 C   0  0  0  0  0  0  0  0  0  0  0  0
   37.9850   28.1590   43.4300 C   0  0  0  0  0  0  0  0  0  0  0  0
   37.8090   26.8930   42.9670 N   0  0  0  0  0  0  0  0  0  0  0  0
   37.1490   26.6360   41.8140 C   0  0  0  0  0  0  0  0  0  0  0  0
   36.6600   27.6010   41.1110 N   0  0  0  0  0  0  0  0  0  0  0  0
   37.6530   30.1670   43.1280 H   0  0  0  0  0  0  0  0  0  0  0  0
   38.5260   28.2720   44.3620 H   0  0  0  0  0  0  0  0  0  0  0  0
   36.9940   25.2210   41.3890 C   0  0  1  0  0  0  0  0  0  0  0  0
   37.5450   24.8000   40.0420 C   0  0  0  0  0  0  0  0  0  0  0  0
   38.2380   24.4420   41.3140 C   0  0  1  0  0  0  0  0  0  0  0  0
   36.0860   24.7210   41.7300 H   0  0  0  0  0  0  0  0  0  0  0  0
   37.0030   23.9640   39.5460 H   0  0  0  0  0  0  0  0  0  0  0  0
   37.8970   25.6250   39.4000 H   0  0  0  0  0  0  0  0  0  0  0  0
   38.2340   23.3870   41.6450 H   0  0  0  0  0  0  0  0  0  0  0  0
   39.5230   25.1220   41.4360 N   0  0  0  0  0  0  0  0  0  0  0  0
   40.2620   24.4340   41.7700 H   0  0  0  0  0  0  0  0  0  0  0  0
   39.8640   25.5460   40.5670 H   0  0  0  0  0  0  0  0  0  0  0  0
  1  2  1  0  0  0  0
  2 26  1  0  0  0  0
  3  2  2  0  0  0  0
  3  7  1  0  0  0  0
  4  3  1  0  0  0  0
  5  6  1  0  0  0  0
  5  4  2  0  0  0  0
  6  1  2  0  0  0  0
  8  4  1  0  0  0  0
  9  5  1  0  0  0  0
 10  6  1  0  0  0  0
 11  1  1  0  0  0  0
 11 14  1  0  0  0  0
 12 11  2  0  0  0  0
 13 11  2  0  0  0  0
 14 15  2  0  0  0  0
 14 25  1  0  0  0  0
 15 16  1  0  0  0  0
 16 17  2  0  0  0  0
 18 17  1  0  0  0  0
 18 19  1  0  0  0  0
 20 19  2  0  0  0  0
 20 21  1  0  0  0  0
 22 20  1  0  0  0  0
 23 22  1  0  0  0  0
 24 22  2  0  0  0  0
 25 24  1  0  0  0  0
 25 18  2  0  0  0  0
 26 27  2  0  0  0  0
 26 28  1  0  0  0  0
 28 29  1  0  0  0  0
 29 34  1  0  0  0  0
 29 30  2  0  0  0  0
 30 35  1  0  0  0  0
 31 30  1  0  0  0  0
 32 31  2  0  0  0  0
 33 28  2  0  0  0  0
 33 32  1  0  0  0  0
 36 39  1  1  0  0  0
 36 32  1  0  0  0  0
 37 38  1  0  0  0  0
 37 36  1  0  0  0  0
 38 36  1  0  0  0  0
 38 43  1  0  0  0  0
 38 42  1  1  0  0  0
 40 37  1  0  0  0  0
 41 37  1  0  0  0  0
 43 44  1  0  0  0  0
 45 43  1  0  0  0  0
M  END
>  <minimizedAffinity>
-6.3711915

$$$$

 OpenBabel03252508053D

 45 49  0  0  1  0  0  0  0  0999 V2000
   36.8560   28.9310   38.6080 C   0  0  0  0  0  0  0  0  0  0  0  0
   36.5910   29.2460   39.9080 C   0  0  0  0  0  0  0  0  0  0  0  0
   35.2410   29.3250   40.3130 C   0  0  0  0  0  0  0  0  0  0  0  0
   34.1890   29.0970   39.4510 C   0  0  0  0  0  0  0  0  0  0  0  0
   34.4650   28.7830   38.1510 C   0  0  0  0  0  0  0  0  0  0  0  0
   35.7670   28.7060   37.7570 C   0  0  0  0  0  0  0  0  0  0  0  0
   34.9310   29.5730   41.3130 H   0  0  0  0  0  0  0  0  0  0  0  0
   33.1650   29.1570   39.7610 H   0  0  0  0  0  0  0  0  0  0  0  0
   33.7070   28.5950   37.4320 H   0  0  0  0  0  0  0  0  0  0  0  0
   35.9880   28.4530   36.7070 H   0  0  0  0  0  0  0  0  0  0  0  0
   38.4300   28.7670   38.0200 S   0  0  0  0  0  0  0  0  0  0  0  0
   38.2220   28.6780   36.5110 O   0  0  0  0  0  0  0  0  0  0  0  0
   38.9770   27.4400   38.4960 O   0  0  0  0  0  0  0  0  0  0  0  0
   39.6510   29.8590   37.7940 C   0  0  0  0  0  0  0  0  0  0  0  0
   39.6050   31.2060   37.9050 N   0  0  0  0  0  0  0  0  0  0  0  0
   40.4680   32.1350   37.5980 C   0  0  0  0  0  3  0  0  0  0  0  0
   41.6010   31.6840   37.0820 N   0  0  0  0  0  0  0  0  0  0  0  0
   41.8290   30.3820   36.8970 C   0  0  0  0  0  0  0  0  0  0  0  0
   43.0790   30.1200   36.3320 C   0  0  0  0  0  3  0  0  0  0  0  0
   43.3890   28.7950   36.1050 C   0  0  0  0  0  0  0  0  0  0  0  0
   44.3390   28.5310   35.6690 H   0  0  0  0  0  0  0  0  0  0  0  0
   42.4770   27.8160   36.4370 C   0  0  0  0  0  0  0  0  0  0  0  0
   42.7480   26.7880   36.2490 H   0  0  0  0  0  0  0  0  0  0  0  0
   41.2740   28.1840   36.9880 C   0  0  0  0  0  3  0  0  0  0  0  0
   40.8690   29.4700   37.2510 C   0  0  0  0  0  0  0  0  0  0  0  0
   37.6270   29.5180   40.8850 C   0  0  0  0  0  0  0  0  0  0  0  0
   38.1600   30.6690   41.0600 O   0  0  0  0  0  0  0  0  0  0  0  0
   38.0020   28.3650   41.6490 C   0  0  0  0  0  0  0  0  0  0  0  0
   39.1010   28.5590   42.5380 C   0  0  0  0  0  0  0  0  0  0  0  0
   39.4830   27.4540   43.2980 C   0  0  0  0  0  0  0  0  0  0  0  0
   38.7960   26.2900   43.1480 N   0  0  0  0  0  0  0  0  0  0  0  0
   37.7620   26.1750   42.2840 C   0  0  0  0  0  0  0  0  0  0  0  0
   37.3910   27.1840   41.5690 N   0  0  0  0  0  0  0  0  0  0  0  0
   39.6950   29.4180   42.7240 H   0  0  0  0  0  0  0  0  0  0  0  0
   40.2980   27.4560   44.0130 H   0  0  0  0  0  0  0  0  0  0  0  0
   37.0620   24.8680   42.1900 C   0  0  1  0  0  0  0  0  0  0  0  0
   36.6440   24.3610   40.8250 C   0  0  0  0  0  0  0  0  0  0  0  0
   37.8190   23.7880   41.5450 C   0  0  1  0  0  0  0  0  0  0  0  0
   36.4120   24.6180   43.0310 H   0  0  0  0  0  0  0  0  0  0  0  0
   35.7360   23.7180   40.8140 H   0  0  0  0  0  0  0  0  0  0  0  0
   36.7610   25.0830   40.0000 H   0  0  0  0  0  0  0  0  0  0  0  0
   37.7470   22.7620   41.9500 H   0  0  0  0  0  0  0  0  0  0  0  0
   39.0700   24.0950   40.8590 N   0  0  0  0  0  0  0  0  0  0  0  0
   39.6780   23.2230   40.8150 H   0  0  0  0  0  0  0  0  0  0  0  0
   38.9560   24.4410   39.9000 H   0  0  0  0  0  0  0  0  0  0  0  0
  1  2  1  0  0  0  0
  2  3  2  0  0  0  0
  2 26  1  0  0  0  0
  3  7  1  0  0  0  0
  4  8  1  0  0  0  0
  4  3  1  0  0  0  0
  5  4  2  0  0  0  0
  6  5  1  0  0  0  0
  6  1  2  0  0  0  0
  9  5  1  0  0  0  0
 10  6  1  0  0  0  0
 11 13  2  0  0  0  0
 11  1  1  0  0  0  0
 12 11  2  0  0  0  0
 14 15  1  0  0  0  0
 14 11  1  0  0  0  0
 16 15  2  0  0  0  0
 17 16  1  0  0  0  0
 18 17  2  0  0  0  0
 18 25  1  0  0  0  0
 19 18  1  0  0  0  0
 20 19  2  0  0  0  0
 20 22  1  0  0  0  0
 21 20  1  0  0  0  0
 22 24  2  0  0  0  0
 23 22  1  0  0  0  0
 24 25  1  0  0  0  0
 25 14  2  0  0  0  0
 26 27  2  0  0  0  0
 26 28  1  0  0  0  0
 28 29  1  0  0  0  0
 29 34  1  0  0  0  0
 29 30  2  0  0  0  0
 30 35  1  0  0  0  0
 31 30  1  0  0  0  0
 32 31  2  0  0  0  0
 33 28  2  0  0  0  0
 33 32  1  0  0  0  0
 36 32  1  0  0  0  0
 36 39  1  1  0  0  0
 37 38  1  0  0  0  0
 37 36  1  0  0  0  0
 38 42  1  1  0  0  0
 38 36  1  0  0  0  0
 40 37  1  0  0  0  0
 41 37  1  0  0  0  0
 43 38  1  0  0  0  0
 44 43  1  0  0  0  0
 45 43  1  0  0  0  0
M  END
>  <minimizedAffinity>
-6.33292723

$$$$

 OpenBabel03252508053D

 45 49  0  0  1  0  0  0  0  0999 V2000
   36.5620   28.6080   40.5110 C   0  0  0  0  0  0  0  0  0  0  0  0
   37.1680   28.4810   39.2960 C   0  0  0  0  0  0  0  0  0  0  0  0
   36.3850   28.6650   38.1370 C   0  0  0  0  0  0  0  0  0  0  0  0
   35.0400   28.9680   38.1860 C   0  0  0  0  0  0  0  0  0  0  0  0
   34.4420   29.0940   39.4080 C   0  0  0  0  0  0  0  0  0  0  0  0
   35.1960   28.9160   40.5280 C   0  0  0  0  0  0  0  0  0  0  0  0
   36.7690   28.5780   37.1360 H   0  0  0  0  0  0  0  0  0  0  0  0
   34.4470   29.1090   37.3040 H   0  0  0  0  0  0  0  0  0  0  0  0
   33.4130   29.3250   39.5220 H   0  0  0  0  0  0  0  0  0  0  0  0
   34.7110   29.0170   41.5130 H   0  0  0  0  0  0  0  0  0  0  0  0
   37.4060   28.4520   41.9650 S   0  0  0  0  0  0  0  0  0  0  0  0
   36.4350   27.6640   42.8390 O   0  0  0  0  0  0  0  0  0  0  0  0
   37.5690   29.8290   42.5680 O   0  0  0  0  0  0  0  0  0  0  0  0
   38.6420   27.4560   42.4300 C   0  0  0  0  0  0  0  0  0  0  0  0
   38.5860   26.1490   42.7710 N   0  0  0  0  0  0  0  0  0  0  0  0
   39.4730   25.3450   43.2890 C   0  0  0  0  0  3  0  0  0  0  0  0
   40.6480   25.9050   43.5300 N   0  0  0  0  0  0  0  0  0  0  0  0
   40.8930   27.1880   43.2570 C   0  0  0  0  0  0  0  0  0  0  0  0
   42.1890   27.5820   43.5950 C   0  0  0  0  0  3  0  0  0  0  0  0
   42.5190   28.8990   43.3480 C   0  0  0  0  0  0  0  0  0  0  0  0
   43.5060   29.2630   43.5890 H   0  0  0  0  0  0  0  0  0  0  0  0
   41.5810   29.7430   42.7930 C   0  0  0  0  0  0  0  0  0  0  0  0
   41.8680   30.7680   42.6100 H   0  0  0  0  0  0  0  0  0  0  0  0
   40.3320   29.2530   42.4990 C   0  0  0  0  0  3  0  0  0  0  0  0
   39.9050   27.9640   42.7090 C   0  0  0  0  0  0  0  0  0  0  0  0
   38.5710   28.1490   39.1410 C   0  0  0  0  0  0  0  0  0  0  0  0
   39.0180   26.9520   39.0620 O   0  0  0  0  0  0  0  0  0  0  0  0
   39.4220   29.3010   39.0820 C   0  0  0  0  0  0  0  0  0  0  0  0
   40.8080   29.0210   38.8860 C   0  0  0  0  0  0  0  0  0  0  0  0
   41.6570   30.1240   38.8190 C   0  0  0  0  0  0  0  0  0  0  0  0
   41.1220   31.3680   38.9400 N   0  0  0  0  0  0  0  0  0  0  0  0
   39.7960   31.5620   39.1250 C   0  0  0  0  0  0  0  0  0  0  0  0
   38.9900   30.5570   39.1920 N   0  0  0  0  0  0  0  0  0  0  0  0
   41.3160   28.0960   38.7830 H   0  0  0  0  0  0  0  0  0  0  0  0
   42.7300   30.0620   38.6730 H   0  0  0  0  0  0  0  0  0  0  0  0
   39.2950   32.9570   39.2370 C   0  0  1  0  0  0  0  0  0  0  0  0
   38.0120   33.2110   40.0010 C   0  0  0  0  0  0  0  0  0  0  0  0
   39.3460   33.5420   40.5840 C   0  0  1  0  0  0  0  0  0  0  0  0
   39.4980   33.6030   38.3810 H   0  0  0  0  0  0  0  0  0  0  0  0
   37.4170   34.0850   39.6540 H   0  0  0  0  0  0  0  0  0  0  0  0
   37.4550   32.3070   40.2980 H   0  0  0  0  0  0  0  0  0  0  0  0
   39.6280   34.6040   40.7000 H   0  0  0  0  0  0  0  0  0  0  0  0
   39.6580   32.6910   41.7280 N   0  0  0  0  0  0  0  0  0  0  0  0
   40.0530   33.2840   42.5180 H   0  0  0  0  0  0  0  0  0  0  0  0
   38.8570   32.1710   42.1020 H   0  0  0  0  0  0  0  0  0  0  0  0
  1  6  1  0  0  0  0
  1 11  1  0  0  0  0
  2  1  2  0  0  0  0
  3  4  2  0  0  0  0
  3  2  1  0  0  0  0
  4  5  1  0  0  0  0
  5  9  1  0  0  0  0
  5  6  2  0  0  0  0
  6 10  1  0  0  0  0
  7  3  1  0  0  0  0
  8  4  1  0  0  0  0
 11 14  1  0  0  0  0
 11 13  2  0  0  0  0
 11 12  2  0  0  0  0
 14 25  2  0  0  0  0
 14 15  1  0  0  0  0
 15 16  2  0  0  0  0
 16 17  1  0  0  0  0
 18 17  2  0  0  0  0
 18 19  1  0  0  0  0
 20 21  1  0  0  0  0
 20 19  2  0  0  0  0
 22 20  1  0  0  0  0
 23 22  1  0  0  0  0
 24 25  1  0  0  0  0
 24 22  2  0  0  0  0
 25 18  1  0  0  0  0
 26  2  1  0  0  0  0
 27 26  2  0  0  0  0
 28 26  1  0  0  0  0
 28 33  1  0  0  0  0
 29 28  2  0  0  0  0
 30 29  1  0  0  0  0
 30 31  2  0  0  0  0
 31 32  1  0  0  0  0
 32 33  2  0  0  0  0
 32 36  1  0  0  0  0
 34 29  1  0  0  0  0
 35 30  1  0  0  0  0
 36 39  1  6  0  0  0
 36 37  1  0  0  0  0
 36 38  1  0  0  0  0
 37 41  1  0  0  0  0
 37 38  1  0  0  0  0
 38 42  1  1  0  0  0
 38 43  1  0  0  0  0
 40 37  1  0  0  0  0
 43 45  1  0  0  0  0
 43 44  1  0  0  0  0
M  END
>  <minimizedAffinity>
-6.30958462

$$$$

 OpenBabel03252508053D

 45 49  0  0  1  0  0  0  0  0999 V2000
   36.4910   27.2520   39.7420 C   0  0  0  0  0  0  0  0  0  0  0  0
   36.0910   28.3000   40.5170 C   0  0  0  0  0  0  0  0  0  0  0  0
   35.0420   29.1170   40.0440 C   0  0  0  0  0  0  0  0  0  0  0  0
   34.4100   28.8970   38.8380 C   0  0  0  0  0  0  0  0  0  0  0  0
   34.8180   27.8440   38.0690 C   0  0  0  0  0  0  0  0  0  0  0  0
   35.8310   27.0550   38.5220 C   0  0  0  0  0  0  0  0  0  0  0  0
   34.6620   29.9710   40.5780 H   0  0  0  0  0  0  0  0  0  0  0  0
   33.6130   29.5180   38.4810 H   0  0  0  0  0  0  0  0  0  0  0  0
   34.3790   27.6150   37.1310 H   0  0  0  0  0  0  0  0  0  0  0  0
   36.1590   26.2060   37.9000 H   0  0  0  0  0  0  0  0  0  0  0  0
   37.7060   26.1820   40.2230 S   0  0  0  0  0  0  0  0  0  0  0  0
   38.1060   25.5110   38.9130 O   0  0  0  0  0  0  0  0  0  0  0  0
   37.0850   25.1330   41.1170 O   0  0  0  0  0  0  0  0  0  0  0  0
   39.2990   26.4100   40.6010 C   0  0  0  0  0  0  0  0  0  0  0  0
   40.0170   25.8380   41.5940 N   0  0  0  0  0  0  0  0  0  0  0  0
   41.2170   26.0740   42.0500 C   0  0  0  0  0  3  0  0  0  0  0  0
   41.8560   27.0550   41.4320 N   0  0  0  0  0  0  0  0  0  0  0  0
   41.3070   27.7370   40.4240 C   0  0  0  0  0  0  0  0  0  0  0  0
   42.1420   28.7350   39.9190 C   0  0  0  0  0  3  0  0  0  0  0  0
   41.6430   29.4890   38.8770 C   0  0  0  0  0  0  0  0  0  0  0  0
   42.2420   30.2760   38.4450 H   0  0  0  0  0  0  0  0  0  0  0  0
   40.3790   29.2310   38.3940 C   0  0  0  0  0  0  0  0  0  0  0  0
   40.0160   29.8370   37.5770 H   0  0  0  0  0  0  0  0  0  0  0  0
   39.6390   28.2250   38.9650 C   0  0  0  0  0  3  0  0  0  0  0  0
   40.0410   27.4210   40.0040 C   0  0  0  0  0  0  0  0  0  0  0  0
   36.7030   28.6230   41.7910 C   0  0  0  0  0  0  0  0  0  0  0  0
   36.3760   28.0760   42.9010 O   0  0  0  0  0  0  0  0  0  0  0  0
   37.7240   29.6240   41.6910 C   0  0  0  0  0  0  0  0  0  0  0  0
   38.7560   29.5370   42.6720 C   0  0  0  0  0  0  0  0  0  0  0  0
   39.7660   30.4950   42.5940 C   0  0  0  0  0  0  0  0  0  0  0  0
   39.7030   31.4290   41.6070 N   0  0  0  0  0  0  0  0  0  0  0  0
   38.6930   31.4550   40.7080 C   0  0  0  0  0  0  0  0  0  0  0  0
   37.7470   30.5790   40.7610 N   0  0  0  0  0  0  0  0  0  0  0  0
   38.8910   28.8540   43.4720 H   0  0  0  0  0  0  0  0  0  0  0  0
   40.6110   30.5510   43.2700 H   0  0  0  0  0  0  0  0  0  0  0  0
   38.7090   32.5050   39.6570 C   0  0  1  0  0  0  0  0  0  0  0  0
   37.5380   33.4620   39.5650 C   0  0  0  0  0  0  0  0  0  0  0  0
   38.8470   33.8850   40.1420 C   0  0  1  0  0  0  0  0  0  0  0  0
   39.1990   32.2310   38.7210 H   0  0  0  0  0  0  0  0  0  0  0  0
   37.3220   33.8520   38.5450 H   0  0  0  0  0  0  0  0  0  0  0  0
   36.6740   33.2100   40.2020 H   0  0  0  0  0  0  0  0  0  0  0  0
   39.4750   34.5960   39.5750 H   0  0  0  0  0  0  0  0  0  0  0  0
   38.7400   34.1610   41.5710 N   0  0  0  0  0  0  0  0  0  0  0  0
   39.2490   35.0660   41.8010 H   0  0  0  0  0  0  0  0  0  0  0  0
   37.7780   34.2510   41.9160 H   0  0  0  0  0  0  0  0  0  0  0  0
  1 11  1  0  0  0  0
  1  2  1  0  0  0  0
  2 26  1  0  0  0  0
  3  2  2  0  0  0  0
  3  7  1  0  0  0  0
  4  3  1  0  0  0  0
  5  6  1  0  0  0  0
  5  4  2  0  0  0  0
  6  1  2  0  0  0  0
  8  4  1  0  0  0  0
  9  5  1  0  0  0  0
 10  6  1  0  0  0  0
 11 14  1  0  0  0  0
 11 13  2  0  0  0  0
 12 11  2  0  0  0  0
 14 15  1  0  0  0  0
 15 16  2  0  0  0  0
 17 16  1  0  0  0  0
 18 17  2  0  0  0  0
 19 18  1  0  0  0  0
 20 19  2  0  0  0  0
 21 20  1  0  0  0  0
 22 20  1  0  0  0  0
 22 24  2  0  0  0  0
 23 22  1  0  0  0  0
 24 25  1  0  0  0  0
 25 18  1  0  0  0  0
 25 14  2  0  0  0  0
 26 27  2  0  0  0  0
 28 26  1  0  0  0  0
 28 29  1  0  0  0  0
 29 34  1  0  0  0  0
 30 29  2  0  0  0  0
 30 35  1  0  0  0  0
 31 30  1  0  0  0  0
 32 33  1  0  0  0  0
 32 31  2  0  0  0  0
 33 28  2  0  0  0  0
 36 39  1  6  0  0  0
 36 38  1  0  0  0  0
 36 32  1  0  0  0  0
 37 36  1  0  0  0  0
 37 38  1  0  0  0  0
 37 41  1  0  0  0  0
 38 42  1  6  0  0  0
 38 43  1  0  0  0  0
 40 37  1  0  0  0  0
 43 44  1  0  0  0  0
 43 45  1  0  0  0  0
M  END
>  <minimizedAffinity>
-6.17575598

$$$$

 OpenBabel03252508053D

 45 49  0  0  1  0  0  0  0  0999 V2000
   37.8770   27.5570   40.9840 C   0  0  0  0  0  0  0  0  0  0  0  0
   38.9490   28.1430   41.5900 C   0  0  0  0  0  0  0  0  0  0  0  0
   38.8300   28.5090   42.9480 C   0  0  0  0  0  0  0  0  0  0  0  0
   37.6800   28.2990   43.6790 C   0  0  0  0  0  0  0  0  0  0  0  0
   36.6110   27.7110   43.0630 C   0  0  0  0  0  0  0  0  0  0  0  0
   36.7230   27.3580   41.7530 C   0  0  0  0  0  0  0  0  0  0  0  0
   39.6160   28.9830   43.5100 H   0  0  0  0  0  0  0  0  0  0  0  0
   37.5930   28.5770   44.7110 H   0  0  0  0  0  0  0  0  0  0  0  0
   35.6960   27.5190   43.5630 H   0  0  0  0  0  0  0  0  0  0  0  0
   35.8600   26.8840   41.2570 H   0  0  0  0  0  0  0  0  0  0  0  0
   37.9160   27.0390   39.3770 S   0  0  0  0  0  0  0  0  0  0  0  0
   38.7460   25.7610   39.4530 O   0  0  0  0  0  0  0  0  0  0  0  0
   38.6930   28.0560   38.5720 O   0  0  0  0  0  0  0  0  0  0  0  0
   36.8010   26.2670   38.4320 C   0  0  0  0  0  0  0  0  0  0  0  0
   36.9040   25.0650   37.8220 N   0  0  0  0  0  0  0  0  0  0  0  0
   36.1450   24.4630   36.9480 C   0  0  0  0  0  3  0  0  0  0  0  0
   35.0740   25.1520   36.5840 N   0  0  0  0  0  0  0  0  0  0  0  0
   34.8040   26.3610   37.0800 C   0  0  0  0  0  0  0  0  0  0  0  0
   33.6350   26.9190   36.5590 C   0  0  0  0  0  3  0  0  0  0  0  0
   33.2900   28.1730   37.0190 C   0  0  0  0  0  0  0  0  0  0  0  0
   32.3980   28.6550   36.6520 H   0  0  0  0  0  0  0  0  0  0  0  0
   34.0900   28.8010   37.9490 C   0  0  0  0  0  0  0  0  0  0  0  0
   33.7940   29.7810   38.2920 H   0  0  0  0  0  0  0  0  0  0  0  0
   35.2210   28.1630   38.3960 C   0  0  0  0  0  3  0  0  0  0  0  0
   35.6540   26.9200   38.0000 C   0  0  0  0  0  0  0  0  0  0  0  0
   40.1940   28.4210   40.9020 C   0  0  0  0  0  0  0  0  0  0  0  0
   41.0310   27.5210   40.5440 O   0  0  0  0  0  0  0  0  0  0  0  0
   40.4040   29.8170   40.6530 C   0  0  0  0  0  0  0  0  0  0  0  0
   41.6960   30.3090   41.0080 C   0  0  0  0  0  0  0  0  0  0  0  0
   41.9280   31.6620   40.7710 C   0  0  0  0  0  0  0  0  0  0  0  0
   40.9310   32.4100   40.2270 N   0  0  0  0  0  0  0  0  0  0  0  0
   39.7270   31.8790   39.9140 C   0  0  0  0  0  0  0  0  0  0  0  0
   39.4880   30.6290   40.1260 N   0  0  0  0  0  0  0  0  0  0  0  0
   42.5300   29.8110   41.4340 H   0  0  0  0  0  0  0  0  0  0  0  0
   42.8600   32.1710   40.9900 H   0  0  0  0  0  0  0  0  0  0  0  0
   38.6980   32.7670   39.3140 C   0  0  1  0  0  0  0  0  0  0  0  0
   37.3480   32.8810   39.9920 C   0  0  0  0  0  0  0  0  0  0  0  0
   38.3650   33.9680   40.0920 C   0  0  1  0  0  0  0  0  0  0  0  0
   38.7120   32.8400   38.2250 H   0  0  0  0  0  0  0  0  0  0  0  0
   36.4910   33.0940   39.3140 H   0  0  0  0  0  0  0  0  0  0  0  0
   37.1740   32.1680   40.8150 H   0  0  0  0  0  0  0  0  0  0  0  0
   38.1810   34.9200   39.5610 H   0  0  0  0  0  0  0  0  0  0  0  0
   38.8700   34.1080   41.4540 N   0  0  0  0  0  0  0  0  0  0  0  0
   38.9070   35.1370   41.7190 H   0  0  0  0  0  0  0  0  0  0  0  0
   38.3120   33.6240   42.1660 H   0  0  0  0  0  0  0  0  0  0  0  0
  1  2  2  0  0  0  0
  1  6  1  0  0  0  0
  2  3  1  0  0  0  0
  3  7  1  0  0  0  0
  3  4  2  0  0  0  0
  4  8  1  0  0  0  0
  5  9  1  0  0  0  0
  5  4  1  0  0  0  0
  6  5  2  0  0  0  0
 10  6  1  0  0  0  0
 11 12  2  0  0  0  0
 11  1  1  0  0  0  0
 13 11  2  0  0  0  0
 14 11  1  0  0  0  0
 15 14  2  0  0  0  0
 16 15  1  0  0  0  0
 17 16  2  0  0  0  0
 17 18  1  0  0  0  0
 18 25  1  0  0  0  0
 19 20  1  0  0  0  0
 19 18  2  0  0  0  0
 20 22  2  0  0  0  0
 21 20  1  0  0  0  0
 22 23  1  0  0  0  0
 22 24  1  0  0  0  0
 25 24  2  0  0  0  0
 25 14  1  0  0  0  0
 26  2  1  0  0  0  0
 27 26  2  0  0  0  0
 28 26  1  0  0  0  0
 28 29  1  0  0  0  0
 29 34  1  0  0  0  0
 30 35  1  0  0  0  0
 30 29  2  0  0  0  0
 31 30  1  0  0  0  0
 32 33  1  0  0  0  0
 32 31  2  0  0  0  0
 33 28  2  0  0  0  0
 36 39  1  6  0  0  0
 36 32  1  0  0  0  0
 36 37  1  0  0  0  0
 36 38  1  0  0  0  0
 37 38  1  0  0  0  0
 37 41  1  0  0  0  0
 38 42  1  6  0  0  0
 38 43  1  0  0  0  0
 40 37  1  0  0  0  0
 43 44  1  0  0  0  0
 43 45  1  0  0  0  0
M  END
>  <minimizedAffinity>
-6.10897112

$$$$

 OpenBabel03252508053D

 45 49  0  0  1  0  0  0  0  0999 V2000
   36.6300   27.5210   37.2400 C   0  0  0  0  0  0  0  0  0  0  0  0
   36.0270   28.7200   37.4820 C   0  0  0  0  0  0  0  0  0  0  0  0
   35.4780   29.4240   36.3900 C   0  0  0  0  0  0  0  0  0  0  0  0
   35.5270   28.9490   35.0960 C   0  0  0  0  0  0  0  0  0  0  0  0
   36.1330   27.7470   34.8630 C   0  0  0  0  0  0  0  0  0  0  0  0
   36.6640   27.0660   35.9160 C   0  0  0  0  0  0  0  0  0  0  0  0
   34.9900   30.3790   36.4780 H   0  0  0  0  0  0  0  0  0  0  0  0
   35.1080   29.4850   34.2670 H   0  0  0  0  0  0  0  0  0  0  0  0
   36.2080   27.3210   33.8940 H   0  0  0  0  0  0  0  0  0  0  0  0
   37.1540   26.0970   35.7260 H   0  0  0  0  0  0  0  0  0  0  0  0
   37.2850   26.5710   38.4730 S   0  0  0  0  0  0  0  0  0  0  0  0
   38.1910   25.6070   37.7140 O   0  0  0  0  0  0  0  0  0  0  0  0
   36.1640   25.7700   39.0970 O   0  0  0  0  0  0  0  0  0  0  0  0
   38.4890   26.8520   39.5700 C   0  0  0  0  0  0  0  0  0  0  0  0
   39.8240   26.7140   39.4060 N   0  0  0  0  0  0  0  0  0  0  0  0
   40.8160   26.7650   40.2520 C   0  0  0  0  0  3  0  0  0  0  0  0
   40.4570   26.9910   41.5070 N   0  0  0  0  0  0  0  0  0  0  0  0
   39.1810   27.1550   41.8620 C   0  0  0  0  0  0  0  0  0  0  0  0
   39.0180   27.3720   43.2310 C   0  0  0  0  0  3  0  0  0  0  0  0
   37.7240   27.5460   43.6800 C   0  0  0  0  0  0  0  0  0  0  0  0
   37.5350   27.7160   44.7280 H   0  0  0  0  0  0  0  0  0  0  0  0
   36.6800   27.4990   42.7810 C   0  0  0  0  0  0  0  0  0  0  0  0
   35.6790   27.6400   43.1610 H   0  0  0  0  0  0  0  0  0  0  0  0
   36.9520   27.2780   41.4530 C   0  0  0  0  0  3  0  0  0  0  0  0
   38.1990   27.0900   40.9080 C   0  0  0  0  0  0  0  0  0  0  0  0
   35.9400   29.3110   38.8040 C   0  0  0  0  0  0  0  0  0  0  0  0
   35.0240   29.0320   39.6530 O   0  0  0  0  0  0  0  0  0  0  0  0
   36.9910   30.2480   39.0760 C   0  0  0  0  0  0  0  0  0  0  0  0
   36.5740   31.4600   39.7030 C   0  0  0  0  0  0  0  0  0  0  0  0
   37.5770   32.3860   39.9840 C   0  0  0  0  0  0  0  0  0  0  0  0
   38.8600   32.0800   39.6510 N   0  0  0  0  0  0  0  0  0  0  0  0
   39.1850   30.9100   39.0560 C   0  0  0  0  0  0  0  0  0  0  0  0
   38.2740   30.0370   38.7840 N   0  0  0  0  0  0  0  0  0  0  0  0
   35.6100   31.7870   39.9980 H   0  0  0  0  0  0  0  0  0  0  0  0
   37.4080   33.3460   40.4580 H   0  0  0  0  0  0  0  0  0  0  0  0
   40.6130   30.6530   38.7350 C   0  0  1  0  0  0  0  0  0  0  0  0
   40.9650   30.0880   37.3740 C   0  0  0  0  0  0  0  0  0  0  0  0
   41.1990   31.5240   37.7070 C   0  0  1  0  0  0  0  0  0  0  0  0
   41.2390   30.3460   39.5750 H   0  0  0  0  0  0  0  0  0  0  0  0
   41.8800   29.4540   37.3440 H   0  0  0  0  0  0  0  0  0  0  0  0
   40.1060   29.7640   36.7640 H   0  0  0  0  0  0  0  0  0  0  0  0
   42.2380   31.8810   37.8300 H   0  0  0  0  0  0  0  0  0  0  0  0
   40.3320   32.4040   36.9290 N   0  0  0  0  0  0  0  0  0  0  0  0
   40.8970   33.2230   36.5530 H   0  0  0  0  0  0  0  0  0  0  0  0
   39.8740   31.9510   36.1300 H   0  0  0  0  0  0  0  0  0  0  0  0
  1  2  1  0  0  0  0
  1 11  1  0  0  0  0
  2 26  1  0  0  0  0
  3  7  1  0  0  0  0
  3  2  2  0  0  0  0
  4  3  1  0  0  0  0
  5  4  2  0  0  0  0
  5  6  1  0  0  0  0
  6  1  2  0  0  0  0
  8  4  1  0  0  0  0
  9  5  1  0  0  0  0
 10  6  1  0  0  0  0
 11 13  2  0  0  0  0
 11 14  1  0  0  0  0
 12 11  2  0  0  0  0
 14 25  1  0  0  0  0
 15 14  2  0  0  0  0
 15 16  1  0  0  0  0
 16 17  2  0  0  0  0
 17 18  1  0  0  0  0
 18 19  1  0  0  0  0
 19 20  2  0  0  0  0
 20 21  1  0  0  0  0
 22 23  1  0  0  0  0
 22 20  1  0  0  0  0
 24 22  2  0  0  0  0
 25 24  1  0  0  0  0
 25 18  2  0  0  0  0
 26 28  1  0  0  0  0
 26 27  2  0  0  0  0
 28 29  1  0  0  0  0
 29 30  2  0  0  0  0
 29 34  1  0  0  0  0
 30 35  1  0  0  0  0
 31 30  1  0  0  0  0
 32 31  2  0  0  0  0
 33 32  1  0  0  0  0
 33 28  2  0  0  0  0
 36 32  1  0  0  0  0
 36 39  1  1  0  0  0
 37 38  1  0  0  0  0
 37 36  1  0  0  0  0
 38 42  1  1  0  0  0
 38 36  1  0  0  0  0
 40 37  1  0  0  0  0
 41 37  1  0  0  0  0
 43 38  1  0  0  0  0
 44 43  1  0  0  0  0
 45 43  1  0  0  0  0
M  END
>  <minimizedAffinity>
-5.99363232

$$$$
