
 OpenBabel03242517483D

 46 50  0  0  0  0  0  0  0  0999 V2000
   38.5400   31.7730   41.1560 C   0  0  0  0  0  0  0  0  0  0  0  0
   39.8940   31.7210   40.8140 C   0  0  0  0  0  0  0  0  0  0  0  0
   40.3720   30.5480   40.2790 C   0  0  0  0  0  0  0  0  0  0  0  0
   39.5170   29.5070   40.1110 N   0  0  0  0  0  0  0  0  0  0  0  0
   38.2050   29.5920   40.4540 C   0  0  0  0  0  0  0  0  0  0  0  0
   37.6960   30.7030   40.9740 N   0  0  0  0  0  0  0  0  0  0  0  0
   38.1030   32.6800   41.5860 H   0  0  0  0  0  0  0  0  0  0  0  0
   41.4190   30.4800   40.0040 H   0  0  0  0  0  0  0  0  0  0  0  0
   37.3590   28.4030   40.2320 C   0  0  0  0  0  0  0  0  0  0  0  0
   37.4210   27.7870   41.1640 H   0  0  0  0  0  0  0  0  0  0  0  0
   37.6840   27.7860   39.3970 H   0  0  0  0  0  0  0  0  0  0  0  0
   35.8870   28.8060   40.0750 C   0  0  0  0  0  0  0  0  0  0  0  0
   35.3340   28.5530   41.0030 H   0  0  0  0  0  0  0  0  0  0  0  0
   35.7870   29.8730   39.8600 H   0  0  0  0  0  0  0  0  0  0  0  0
   35.3440   27.9510   38.9850 C   0  0  0  0  0  0  0  0  0  0  0  0
   36.0810   27.1710   38.1740 N   0  0  0  0  0  0  0  0  0  0  0  0
   35.5420   26.4150   37.2020 C   0  0  0  0  0  3  0  0  0  0  0  0
   34.2170   26.3940   36.9830 N   0  0  0  0  0  0  0  0  0  0  0  0
   33.4070   27.1520   37.7600 C   0  0  0  0  0  0  0  0  0  0  0  0
   32.0560   27.0970   37.4970 C   0  0  0  0  0  3  0  0  0  0  0  0
   31.2000   27.8520   38.2630 C   0  0  0  0  0  0  0  0  0  0  0  0
   30.1250   27.8620   38.1170 H   0  0  0  0  0  0  0  0  0  0  0  0
   31.7330   28.6280   39.2570 C   0  0  0  0  0  0  0  0  0  0  0  0
   31.0610   29.2230   39.8610 H   0  0  0  0  0  0  0  0  0  0  0  0
   33.0890   28.6920   39.5310 C   0  0  0  0  0  3  0  0  0  0  0  0
   33.9650   27.9310   38.7610 C   0  0  0  0  0  0  0  0  0  0  0  0
   40.9540   33.1120   41.0590 S   0  0  0  0  0  0  0  0  0  0  0  0
   40.9460   34.1560   39.6300 C   0  0  0  0  0  0  0  0  0  0  0  0
   39.8750   34.2380   38.7510 C   0  0  0  0  0  0  0  0  0  0  0  0
   39.9480   35.0830   37.6540 C   0  0  0  0  0  0  0  0  0  0  0  0
   41.0560   35.8430   37.4130 C   0  0  0  0  0  0  0  0  0  0  0  0
   42.1170   35.7560   38.2930 C   0  0  0  0  0  0  0  0  0  0  0  0
   42.0750   34.9240   39.3950 C   0  0  0  0  0  0  0  0  0  0  0  0
   39.0100   33.6340   38.9530 H   0  0  0  0  0  0  0  0  0  0  0  0
   39.0530   35.0710   37.0280 H   0  0  0  0  0  0  0  0  0  0  0  0
   41.0070   36.4550   36.5450 H   0  0  0  0  0  0  0  0  0  0  0  0
   42.9760   36.3760   38.0650 H   0  0  0  0  0  0  0  0  0  0  0  0
   43.2020   34.8450   40.3110 C   0  0  0  0  0  0  0  0  0  0  0  0
   44.2620   34.0050   40.1640 C   0  0  0  0  0  0  0  0  0  0  0  0
   45.3340   33.9460   41.0560 C   0  0  0  0  0  0  0  0  0  0  0  0
   45.3180   34.7630   42.1200 N   0  0  0  0  0  0  0  0  0  0  0  0
   44.2690   35.6010   42.2750 C   0  0  0  0  0  0  0  0  0  0  0  0
   43.2380   35.6450   41.4010 N   0  0  0  0  0  0  0  0  0  0  0  0
   44.2860   33.3370   39.3020 H   0  0  0  0  0  0  0  0  0  0  0  0
   46.1490   33.2610   40.8890 H   0  0  0  0  0  0  0  0  0  0  0  0
   44.1240   36.3210   43.0950 H   0  0  0  0  0  0  0  0  0  0  0  0
  1  7  1  0  0  0  0
  2 27  1  0  0  0  0
  2  1  2  0  0  0  0
  3  2  1  0  0  0  0
  4  3  2  0  0  0  0
  4  5  1  0  0  0  0
  5  6  2  0  0  0  0
  6  1  1  0  0  0  0
  8  3  1  0  0  0  0
  9  5  1  0  0  0  0
  9 10  1  0  0  0  0
 11  9  1  0  0  0  0
 12  9  1  0  0  0  0
 12 13  1  0  0  0  0
 14 12  1  0  0  0  0
 15 12  1  0  0  0  0
 16 15  2  0  0  0  0
 17 16  1  0  0  0  0
 18 17  2  0  0  0  0
 18 19  1  0  0  0  0
 19 26  1  0  0  0  0
 20 19  2  0  0  0  0
 20 21  1  0  0  0  0
 21 23  2  0  0  0  0
 22 21  1  0  0  0  0
 23 25  1  0  0  0  0
 23 24  1  0  0  0  0
 26 15  1  0  0  0  0
 26 25  2  0  0  0  0
 28 27  1  0  0  0  0
 29 34  1  0  0  0  0
 29 28  2  0  0  0  0
 30 29  1  0  0  0  0
 31 30  2  0  0  0  0
 31 32  1  0  0  0  0
 32 33  2  0  0  0  0
 33 28  1  0  0  0  0
 33 38  1  0  0  0  0
 35 30  1  0  0  0  0
 36 31  1  0  0  0  0
 37 32  1  0  0  0  0
 38 43  1  0  0  0  0
 39 38  2  0  0  0  0
 39 40  1  0  0  0  0
 40 41  2  0  0  0  0
 41 42  1  0  0  0  0
 42 46  1  0  0  0  0
 43 42  2  0  0  0  0
 44 39  1  0  0  0  0
 45 40  1  0  0  0  0
M  END
>  <minimizedAffinity>
-5.90078402

>  <minimizedRMSD>
2.28381491

$$$$
