
 OpenBabel03252506123D

 39 42  0  0  0  0  0  0  0  0999 V2000
   45.0930   33.4290   41.1160 F   0  0  0  0  0  0  0  0  0  0  0  0
   46.2950   33.9960   40.9660 C   0  0  0  0  0  0  0  0  0  0  0  0
   46.8000   34.7700   41.9900 C   0  0  0  0  0  0  0  0  0  0  0  0
   48.0470   35.3980   41.9160 C   0  0  0  0  0  0  0  0  0  0  0  0
   48.8230   35.2420   40.7670 C   0  0  0  0  0  0  0  0  0  0  0  0
   48.2720   34.4540   39.7670 C   0  0  0  0  0  0  0  0  0  0  0  0
   47.0610   33.8370   39.8230 C   0  0  0  0  0  0  0  0  0  0  0  0
   48.3820   35.9980   42.7690 H   0  0  0  0  0  0  0  0  0  0  0  0
   49.7580   35.7440   40.7750 H   0  0  0  0  0  0  0  0  0  0  0  0
   48.9810   34.4150   38.9450 H   0  0  0  0  0  0  0  0  0  0  0  0
   45.4570   34.2190   45.3580 C   0  0  0  0  0  0  0  0  0  0  0  0
   44.5940   35.3280   45.5100 C   0  0  0  0  0  0  0  0  0  0  0  0
   44.4780   36.2640   44.4480 C   0  0  0  0  0  0  0  0  0  0  0  0
   45.2250   36.0200   43.3300 N   0  0  0  0  0  0  0  0  0  0  0  0
   46.0310   34.9630   43.2200 C   0  0  0  0  0  0  0  0  0  0  0  0
   46.1420   34.0760   44.2240 N   0  0  0  0  0  0  0  0  0  0  0  0
   44.0280   35.4700   46.4160 H   0  0  0  0  0  0  0  0  0  0  0  0
   43.8250   37.1220   44.5370 H   0  0  0  0  0  0  0  0  0  0  0  0
   45.5550   33.3050   46.4270 N   0  0  0  0  0  0  0  0  0  0  0  0
   45.0260   32.4480   46.1460 H   0  0  0  0  0  0  0  0  0  0  0  0
   46.0230   33.3460   47.3540 H   0  0  0  0  0  0  0  0  0  0  0  0
   46.6260   33.0870   38.7720 O   0  0  0  0  0  0  0  0  0  0  0  0
   47.7620   34.5920   36.9160 O   0  0  0  0  0  0  0  0  0  0  0  0
   46.9270   33.3630   37.1360 P   0  0  2  0  0  0  0  0  0  0  0  0
   45.4200   33.5160   36.3380 O   0  0  0  0  0  0  0  0  0  0  0  0
   45.5580   33.8000   35.3830 H   0  0  0  0  0  0  0  0  0  0  0  0
   47.6800   32.0510   36.3840 O   0  0  0  0  0  0  0  0  0  0  0  0
   47.2210   31.3430   35.3090 C   0  0  0  0  0  0  0  0  0  0  0  0
   46.2020   30.4730   35.2240 N   0  0  0  0  0  0  0  0  0  0  0  0
   45.8720   29.8520   34.0830 C   0  0  0  0  0  3  0  0  0  0  0  0
   46.5730   30.0810   32.9380 N   0  0  0  0  0  0  0  0  0  0  0  0
   47.6060   30.9410   32.9540 C   0  0  0  0  0  0  0  0  0  0  0  0
   48.2740   31.1280   31.7590 C   0  0  0  0  0  3  0  0  0  0  0  0
   49.3410   32.0030   31.7340 C   0  0  0  0  0  0  0  0  0  0  0  0
   49.9420   32.2350   30.8650 H   0  0  0  0  0  0  0  0  0  0  0  0
   49.7070   32.6610   32.8950 C   0  0  0  0  0  0  0  0  0  0  0  0
   50.5430   33.3640   32.9290 H   0  0  0  0  0  0  0  0  0  0  0  0
   49.0070   32.4380   34.0580 C   0  0  0  0  0  3  0  0  0  0  0  0
   47.9210   31.5610   34.1280 C   0  0  0  0  0  0  0  0  0  0  0  0
  2  1  1  0  0  0  0
  2  3  1  0  0  0  0
  3 15  1  0  0  0  0
  4  3  2  0  0  0  0
  4  8  1  0  0  0  0
  5  9  1  0  0  0  0
  5  4  1  0  0  0  0
  6  7  1  0  0  0  0
  6  5  2  0  0  0  0
  7  2  2  0  0  0  0
 10  6  1  0  0  0  0
 11 12  1  0  0  0  0
 11 19  1  0  0  0  0
 12 17  1  0  0  0  0
 13 18  1  0  0  0  0
 13 12  2  0  0  0  0
 14 13  1  0  0  0  0
 15 14  2  0  0  0  0
 15 16  1  0  0  0  0
 16 11  2  0  0  0  0
 19 21  1  0  0  0  0
 20 19  1  0  0  0  0
 22  7  1  0  0  0  0
 24 23  2  6  0  0  0
 24 22  1  0  0  0  0
 25 24  1  0  0  0  0
 26 25  1  0  0  0  0
 27 24  1  0  0  0  0
 28 27  1  0  0  0  0
 29 28  1  0  0  0  0
 30 29  2  0  0  0  0
 31 32  2  0  0  0  0
 31 30  1  0  0  0  0
 32 39  1  0  0  0  0
 33 32  1  0  0  0  0
 34 33  2  0  0  0  0
 34 36  1  0  0  0  0
 35 34  1  0  0  0  0
 36 37  1  0  0  0  0
 36 38  2  0  0  0  0
 38 39  1  0  0  0  0
 39 28  2  0  0  0  0
M  END
>  <minimizedAffinity>
-7.33725214

>  <minimizedRMSD>
1.10303521

$$$$
