
 OpenBabel03252504343D

 43 46  0  0  0  0  0  0  0  0999 V2000
   37.2780   32.7020   39.5370 C   0  0  0  0  0  0  0  0  0  0  0  0
   36.2470   32.9040   39.1650 H   0  0  0  0  0  0  0  0  0  0  0  0
   37.9190   32.6210   38.6350 H   0  0  0  0  0  0  0  0  0  0  0  0
   38.2320   30.4560   39.7010 C   0  0  0  0  0  0  0  0  0  0  0  0
   37.1790   31.3130   40.1030 C   0  0  0  0  0  0  0  0  0  0  0  0
   36.2420   30.7830   40.9190 C   0  0  0  0  0  0  0  0  0  0  0  0
   36.3710   29.5200   41.2810 N   0  0  0  0  0  0  0  0  0  0  0  0
   37.3410   28.7200   40.9140 C   0  0  0  0  0  0  0  0  0  0  0  0
   38.3370   29.1770   40.0830 N   0  0  0  0  0  0  0  0  0  0  0  0
   39.0190   30.8320   39.0390 H   0  0  0  0  0  0  0  0  0  0  0  0
   35.4660   31.4300   41.2110 H   0  0  0  0  0  0  0  0  0  0  0  0
   37.5820   27.2970   41.2560 C   0  0  0  0  0  0  0  0  0  0  0  0
   36.8540   26.2680   40.7520 N   0  0  0  0  0  0  0  0  0  0  0  0
   37.0280   24.9900   41.0240 C   0  0  0  0  0  3  0  0  0  0  0  0
   38.0100   24.6070   41.8780 N   0  0  0  0  0  0  0  0  0  0  0  0
   38.8120   25.5550   42.4500 C   0  0  0  0  0  0  0  0  0  0  0  0
   39.8060   25.1550   43.3140 C   0  0  0  0  0  3  0  0  0  0  0  0
   40.6310   26.0870   43.9070 C   0  0  0  0  0  0  0  0  0  0  0  0
   41.3650   25.6510   44.5590 H   0  0  0  0  0  0  0  0  0  0  0  0
   40.3970   27.4060   43.5810 C   0  0  0  0  0  0  0  0  0  0  0  0
   41.0750   28.1080   44.0740 H   0  0  0  0  0  0  0  0  0  0  0  0
   39.3890   27.7540   42.7100 C   0  0  0  0  0  3  0  0  0  0  0  0
   38.5610   26.8610   42.1110 C   0  0  0  0  0  0  0  0  0  0  0  0
   37.8150   33.5900   40.4210 O   0  0  0  0  0  0  0  0  0  0  0  0
   38.8660   34.4680   40.2240 C   0  0  0  0  0  3  0  0  0  0  0  0
   40.0840   33.9550   40.3610 C   0  0  0  0  0  3  0  0  0  0  0  0
   41.3880   34.7140   40.1910 C   0  0  0  0  0  0  0  0  0  0  0  0
   41.2620   35.6020   40.8390 H   0  0  0  0  0  0  0  0  0  0  0  0
   42.2540   34.1120   40.4760 H   0  0  0  0  0  0  0  0  0  0  0  0
   41.4660   35.0910   38.8630 O   0  0  0  0  0  0  0  0  0  0  0  0
   41.0840   32.8870   37.4330 O   0  0  0  0  0  0  0  0  0  0  0  0
   42.1310   33.8610   37.9220 P   0  0  1  0  0  0  0  0  0  0  0  0
   42.8820   34.5000   36.5390 O   0  0  0  0  0  0  0  0  0  0  0  0
   42.8450   35.4970   36.6020 H   0  0  0  0  0  0  0  0  0  0  0  0
   43.3150   33.0460   38.8070 O   0  0  0  0  0  0  0  0  0  0  0  0
   44.3440   32.5910   38.0070 C   0  0  0  0  0  0  0  0  0  0  0  0
   44.2450   31.2330   37.3870 C   0  0  0  0  0  0  0  0  0  0  0  0
   45.1450   31.4490   38.5930 C   0  0  0  0  0  0  0  0  0  0  0  0
   44.7950   33.3440   37.3610 H   0  0  0  0  0  0  0  0  0  0  0  0
   44.6820   31.0080   36.4050 H   0  0  0  0  0  0  0  0  0  0  0  0
   43.3620   30.6040   37.6230 H   0  0  0  0  0  0  0  0  0  0  0  0
   46.2310   31.4770   38.3150 H   0  0  0  0  0  0  0  0  0  0  0  0
   44.8760   31.0330   39.5640 H   0  0  0  0  0  0  0  0  0  0  0  0
  1  5  1  0  0  0  0
  1 24  1  0  0  0  0
  2  1  1  0  0  0  0
  3  1  1  0  0  0  0
  4  9  2  0  0  0  0
  4  5  1  0  0  0  0
  5  6  2  0  0  0  0
  6 11  1  0  0  0  0
  6  7  1  0  0  0  0
  8 12  1  0  0  0  0
  8  7  2  0  0  0  0
  9  8  1  0  0  0  0
 10  4  1  0  0  0  0
 12 23  1  0  0  0  0
 13 14  1  0  0  0  0
 13 12  2  0  0  0  0
 14 15  2  0  0  0  0
 15 16  1  0  0  0  0
 16 17  1  0  0  0  0
 17 18  2  0  0  0  0
 18 19  1  0  0  0  0
 20 18  1  0  0  0  0
 20 21  1  0  0  0  0
 22 20  2  0  0  0  0
 23 16  2  0  0  0  0
 23 22  1  0  0  0  0
 25 26  2  0  0  0  0
 25 24  1  0  0  0  0
 27 26  1  0  0  0  0
 27 29  1  0  0  0  0
 27 28  1  0  0  0  0
 30 27  1  0  0  0  0
 32 31  2  6  0  0  0
 32 35  1  0  0  0  0
 32 30  1  0  0  0  0
 33 34  1  0  0  0  0
 33 32  1  0  0  0  0
 36 38  1  0  0  0  0
 36 35  1  0  0  0  0
 37 41  1  0  0  0  0
 37 36  1  0  0  0  0
 37 38  1  0  0  0  0
 38 43  1  0  0  0  0
 39 36  1  0  0  0  0
 40 37  1  0  0  0  0
 42 38  1  0  0  0  0
M  END
>  <minimizedAffinity>
-6.13326263

$$$$

 OpenBabel03252504343D

 43 46  0  0  0  0  0  0  0  0999 V2000
   37.3950   32.7080   39.5140 C   0  0  0  0  0  0  0  0  0  0  0  0
   36.4000   32.6160   39.0210 H   0  0  0  0  0  0  0  0  0  0  0  0
   38.1480   32.6190   38.7030 H   0  0  0  0  0  0  0  0  0  0  0  0
   38.7330   30.7630   40.1540 C   0  0  0  0  0  0  0  0  0  0  0  0
   37.5040   31.4470   40.3230 C   0  0  0  0  0  0  0  0  0  0  0  0
   36.6090   30.8880   41.1670 C   0  0  0  0  0  0  0  0  0  0  0  0
   36.9360   29.7580   41.7670 N   0  0  0  0  0  0  0  0  0  0  0  0
   38.0700   29.1190   41.6150 C   0  0  0  0  0  0  0  0  0  0  0  0
   39.0380   29.6180   40.7760 N   0  0  0  0  0  0  0  0  0  0  0  0
   39.4960   31.1700   39.4820 H   0  0  0  0  0  0  0  0  0  0  0  0
   35.7010   31.4060   41.2840 H   0  0  0  0  0  0  0  0  0  0  0  0
   38.5390   27.8550   42.2330 C   0  0  0  0  0  0  0  0  0  0  0  0
   39.4430   27.8010   43.2430 N   0  0  0  0  0  0  0  0  0  0  0  0
   39.8920   26.7050   43.8240 C   0  0  0  0  0  3  0  0  0  0  0  0
   39.4430   25.4910   43.4170 N   0  0  0  0  0  0  0  0  0  0  0  0
   38.5280   25.4170   42.4050 C   0  0  0  0  0  0  0  0  0  0  0  0
   38.0800   24.1790   42.0010 C   0  0  0  0  0  3  0  0  0  0  0  0
   37.1560   24.0710   40.9830 C   0  0  0  0  0  0  0  0  0  0  0  0
   36.8870   23.0560   40.7600 H   0  0  0  0  0  0  0  0  0  0  0  0
   36.7280   25.2530   40.4170 C   0  0  0  0  0  0  0  0  0  0  0  0
   35.9970   25.1180   39.6160 H   0  0  0  0  0  0  0  0  0  0  0  0
   37.2080   26.4660   40.8580 C   0  0  0  0  0  3  0  0  0  0  0  0
   38.1160   26.6050   41.8570 C   0  0  0  0  0  0  0  0  0  0  0  0
   37.6300   33.8280   40.2550 O   0  0  0  0  0  0  0  0  0  0  0  0
   38.6620   34.7410   40.1290 C   0  0  0  0  0  3  0  0  0  0  0  0
   39.8900   34.2490   40.2500 C   0  0  0  0  0  3  0  0  0  0  0  0
   41.1770   35.0480   40.1470 C   0  0  0  0  0  0  0  0  0  0  0  0
   40.9450   35.9910   40.6770 H   0  0  0  0  0  0  0  0  0  0  0  0
   42.0250   34.5210   40.5910 H   0  0  0  0  0  0  0  0  0  0  0  0
   41.3960   35.2890   38.8040 O   0  0  0  0  0  0  0  0  0  0  0  0
   41.1820   32.9910   37.4920 O   0  0  0  0  0  0  0  0  0  0  0  0
   42.1660   33.9810   38.0700 P   0  0  1  0  0  0  0  0  0  0  0  0
   43.1430   34.5020   36.7820 O   0  0  0  0  0  0  0  0  0  0  0  0
   43.1250   35.5010   36.7680 H   0  0  0  0  0  0  0  0  0  0  0  0
   43.1730   33.2150   39.1890 O   0  0  0  0  0  0  0  0  0  0  0  0
   42.8790   31.8730   39.3220 C   0  0  0  0  0  0  0  0  0  0  0  0
   42.4060   31.3530   40.6430 C   0  0  0  0  0  0  0  0  0  0  0  0
   43.8370   31.0980   40.1980 C   0  0  0  0  0  0  0  0  0  0  0  0
   42.3830   31.4200   38.4630 H   0  0  0  0  0  0  0  0  0  0  0  0
   41.6950   30.5200   40.7210 H   0  0  0  0  0  0  0  0  0  0  0  0
   42.3460   32.0560   41.5000 H   0  0  0  0  0  0  0  0  0  0  0  0
   43.9960   30.0410   39.8600 H   0  0  0  0  0  0  0  0  0  0  0  0
   44.6670   31.6090   40.6870 H   0  0  0  0  0  0  0  0  0  0  0  0
  1 24  1  0  0  0  0
  1  5  1  0  0  0  0
  2  1  1  0  0  0  0
  3  1  1  0  0  0  0
  4  5  2  0  0  0  0
  4  9  1  0  0  0  0
  5  6  1  0  0  0  0
  6 11  1  0  0  0  0
  6  7  2  0  0  0  0
  8  7  1  0  0  0  0
  8 12  1  0  0  0  0
  9  8  2  0  0  0  0
 10  4  1  0  0  0  0
 12 13  1  0  0  0  0
 13 14  2  0  0  0  0
 15 14  1  0  0  0  0
 16 15  2  0  0  0  0
 17 16  1  0  0  0  0
 18 17  2  0  0  0  0
 19 18  1  0  0  0  0
 20 22  2  0  0  0  0
 20 18  1  0  0  0  0
 21 20  1  0  0  0  0
 22 23  1  0  0  0  0
 23 12  2  0  0  0  0
 23 16  1  0  0  0  0
 25 26  2  0  0  0  0
 25 24  1  0  0  0  0
 27 26  1  0  0  0  0
 27 29  1  0  0  0  0
 27 28  1  0  0  0  0
 30 27  1  0  0  0  0
 32 31  2  6  0  0  0
 32 30  1  0  0  0  0
 32 35  1  0  0  0  0
 33 32  1  0  0  0  0
 34 33  1  0  0  0  0
 35 36  1  0  0  0  0
 36 38  1  0  0  0  0
 36 37  1  0  0  0  0
 37 40  1  0  0  0  0
 37 41  1  0  0  0  0
 38 37  1  0  0  0  0
 38 43  1  0  0  0  0
 39 36  1  0  0  0  0
 42 38  1  0  0  0  0
M  END
>  <minimizedAffinity>
-6.03377533

$$$$

 OpenBabel03252504343D

 43 46  0  0  0  0  0  0  0  0999 V2000
   37.4170   32.6140   39.1860 C   0  0  0  0  0  0  0  0  0  0  0  0
   36.5070   32.4090   38.5760 H   0  0  0  0  0  0  0  0  0  0  0  0
   38.2750   32.5650   38.4830 H   0  0  0  0  0  0  0  0  0  0  0  0
   38.7240   30.6630   39.8720 C   0  0  0  0  0  0  0  0  0  0  0  0
   37.5290   31.4000   40.0640 C   0  0  0  0  0  0  0  0  0  0  0  0
   36.6640   30.9250   40.9870 C   0  0  0  0  0  0  0  0  0  0  0  0
   36.9870   29.8220   41.6380 N   0  0  0  0  0  0  0  0  0  0  0  0
   38.0890   29.1350   41.4660 C   0  0  0  0  0  0  0  0  0  0  0  0
   39.0250   29.5470   40.5460 N   0  0  0  0  0  0  0  0  0  0  0  0
   39.4610   31.0020   39.1370 H   0  0  0  0  0  0  0  0  0  0  0  0
   35.7820   31.4820   41.1210 H   0  0  0  0  0  0  0  0  0  0  0  0
   38.5500   27.8930   42.1340 C   0  0  0  0  0  0  0  0  0  0  0  0
   39.4640   27.8740   43.1370 N   0  0  0  0  0  0  0  0  0  0  0  0
   39.9060   26.8000   43.7620 C   0  0  0  0  0  3  0  0  0  0  0  0
   39.4400   25.5740   43.4130 N   0  0  0  0  0  0  0  0  0  0  0  0
   38.5140   25.4650   42.4140 C   0  0  0  0  0  0  0  0  0  0  0  0
   38.0480   24.2170   42.0690 C   0  0  0  0  0  3  0  0  0  0  0  0
   37.1140   24.0750   41.0650 C   0  0  0  0  0  0  0  0  0  0  0  0
   36.8310   23.0530   40.8900 H   0  0  0  0  0  0  0  0  0  0  0  0
   36.6930   25.2350   40.4520 C   0  0  0  0  0  0  0  0  0  0  0  0
   35.9530   25.0740   39.6640 H   0  0  0  0  0  0  0  0  0  0  0  0
   37.1900   26.4610   40.8340 C   0  0  0  0  0  3  0  0  0  0  0  0
   38.1090   26.6340   41.8180 C   0  0  0  0  0  0  0  0  0  0  0  0
   37.4520   33.7780   39.8940 O   0  0  0  0  0  0  0  0  0  0  0  0
   38.4970   34.3000   40.6370 C   0  0  0  0  0  3  0  0  0  0  0  0
   39.4920   34.8370   39.9410 C   0  0  0  0  0  3  0  0  0  0  0  0
   40.7390   35.4730   40.5290 C   0  0  0  0  0  0  0  0  0  0  0  0
   40.6560   36.5370   40.2360 H   0  0  0  0  0  0  0  0  0  0  0  0
   40.7950   35.3450   41.6130 H   0  0  0  0  0  0  0  0  0  0  0  0
   41.8240   34.8840   39.9070 O   0  0  0  0  0  0  0  0  0  0  0  0
   43.3350   35.0520   42.0830 O   0  0  0  0  0  0  0  0  0  0  0  0
   42.8160   34.1050   41.0270 P   0  0  1  0  0  0  0  0  0  0  0  0
   41.9600   32.8880   41.8450 O   0  0  0  0  0  0  0  0  0  0  0  0
   41.0490   32.8260   41.4370 H   0  0  0  0  0  0  0  0  0  0  0  0
   44.1040   33.3640   40.2250 O   0  0  0  0  0  0  0  0  0  0  0  0
   44.3610   33.9470   39.0000 C   0  0  0  0  0  0  0  0  0  0  0  0
   44.3780   33.0930   37.7720 C   0  0  0  0  0  0  0  0  0  0  0  0
   45.6880   33.5650   38.3830 C   0  0  0  0  0  0  0  0  0  0  0  0
   43.9140   34.9300   38.8530 H   0  0  0  0  0  0  0  0  0  0  0  0
   44.0570   33.4740   36.7930 H   0  0  0  0  0  0  0  0  0  0  0  0
   44.2280   31.9990   37.8820 H   0  0  0  0  0  0  0  0  0  0  0  0
   46.1590   34.3940   37.7930 H   0  0  0  0  0  0  0  0  0  0  0  0
   46.3460   32.8600   38.8920 H   0  0  0  0  0  0  0  0  0  0  0  0
  1 24  1  0  0  0  0
  1  5  1  0  0  0  0
  2  1  1  0  0  0  0
  3  1  1  0  0  0  0
  4  5  2  0  0  0  0
  4  9  1  0  0  0  0
  5  6  1  0  0  0  0
  6 11  1  0  0  0  0
  6  7  2  0  0  0  0
  8  7  1  0  0  0  0
  8 12  1  0  0  0  0
  9  8  2  0  0  0  0
 10  4  1  0  0  0  0
 12 13  1  0  0  0  0
 13 14  2  0  0  0  0
 15 14  1  0  0  0  0
 16 15  2  0  0  0  0
 17 16  1  0  0  0  0
 18 17  2  0  0  0  0
 19 18  1  0  0  0  0
 20 22  2  0  0  0  0
 20 18  1  0  0  0  0
 21 20  1  0  0  0  0
 22 23  1  0  0  0  0
 23 12  2  0  0  0  0
 23 16  1  0  0  0  0
 24 25  1  0  0  0  0
 26 27  1  0  0  0  0
 26 25  2  0  0  0  0
 27 29  1  0  0  0  0
 28 27  1  0  0  0  0
 30 27  1  0  0  0  0
 30 32  1  0  0  0  0
 32 33  1  0  0  0  0
 32 31  2  1  0  0  0
 34 33  1  0  0  0  0
 35 32  1  0  0  0  0
 36 35  1  0  0  0  0
 37 41  1  0  0  0  0
 37 38  1  0  0  0  0
 37 36  1  0  0  0  0
 38 43  1  0  0  0  0
 38 36  1  0  0  0  0
 39 36  1  0  0  0  0
 40 37  1  0  0  0  0
 42 38  1  0  0  0  0
M  END
>  <minimizedAffinity>
-5.82686853

$$$$

 OpenBabel03252504343D

 43 46  0  0  0  0  0  0  0  0999 V2000
   37.1200   32.4960   39.1230 C   0  0  0  0  0  0  0  0  0  0  0  0
   36.1310   32.5260   38.6110 H   0  0  0  0  0  0  0  0  0  0  0  0
   37.8800   32.4170   38.3170 H   0  0  0  0  0  0  0  0  0  0  0  0
   37.8620   30.1650   39.1520 C   0  0  0  0  0  0  0  0  0  0  0  0
   37.1140   31.1660   39.8210 C   0  0  0  0  0  0  0  0  0  0  0  0
   36.5030   30.8010   40.9700 C   0  0  0  0  0  0  0  0  0  0  0  0
   36.6430   29.5550   41.3840 N   0  0  0  0  0  0  0  0  0  0  0  0
   37.3320   28.6250   40.7720 C   0  0  0  0  0  0  0  0  0  0  0  0
   37.9860   28.9090   39.5960 N   0  0  0  0  0  0  0  0  0  0  0  0
   38.3770   30.4040   38.2160 H   0  0  0  0  0  0  0  0  0  0  0  0
   35.9520   31.5530   41.4570 H   0  0  0  0  0  0  0  0  0  0  0  0
   37.5540   27.2060   41.1430 C   0  0  0  0  0  0  0  0  0  0  0  0
   36.8390   26.1730   40.6280 N   0  0  0  0  0  0  0  0  0  0  0  0
   36.9970   24.8970   40.9250 C   0  0  0  0  0  3  0  0  0  0  0  0
   37.9460   24.5230   41.8190 N   0  0  0  0  0  0  0  0  0  0  0  0
   38.7320   25.4760   42.4050 C   0  0  0  0  0  0  0  0  0  0  0  0
   39.6920   25.0840   43.3110 C   0  0  0  0  0  3  0  0  0  0  0  0
   40.4990   26.0220   43.9190 C   0  0  0  0  0  0  0  0  0  0  0  0
   41.2070   25.5920   44.6040 H   0  0  0  0  0  0  0  0  0  0  0  0
   40.2830   27.3370   43.5670 C   0  0  0  0  0  0  0  0  0  0  0  0
   40.9470   28.0430   44.0730 H   0  0  0  0  0  0  0  0  0  0  0  0
   39.3090   27.6760   42.6550 C   0  0  0  0  0  3  0  0  0  0  0  0
   38.4990   26.7780   42.0390 C   0  0  0  0  0  0  0  0  0  0  0  0
   37.4270   33.5260   39.9620 O   0  0  0  0  0  0  0  0  0  0  0  0
   38.6430   33.8170   40.5550 C   0  0  0  0  0  3  0  0  0  0  0  0
   39.2340   34.9350   40.1480 C   0  0  0  0  0  3  0  0  0  0  0  0
   40.5640   35.4660   40.6520 C   0  0  0  0  0  0  0  0  0  0  0  0
   40.4810   36.5610   40.5130 H   0  0  0  0  0  0  0  0  0  0  0  0
   40.7480   35.1930   41.6940 H   0  0  0  0  0  0  0  0  0  0  0  0
   41.5440   34.9470   39.8270 O   0  0  0  0  0  0  0  0  0  0  0  0
   43.9850   33.9400   40.1040 O   0  0  0  0  0  0  0  0  0  0  0  0
   42.5910   33.9410   40.6860 P   0  0  1  0  0  0  0  0  0  0  0  0
   42.7370   34.4600   42.2960 O   0  0  0  0  0  0  0  0  0  0  0  0
   42.1040   35.2220   42.4320 H   0  0  0  0  0  0  0  0  0  0  0  0
   41.9710   32.3710   40.7160 O   0  0  0  0  0  0  0  0  0  0  0  0
   41.8120   31.8970   42.0030 C   0  0  0  0  0  0  0  0  0  0  0  0
   41.8640   30.4230   42.2530 C   0  0  0  0  0  0  0  0  0  0  0  0
   40.5240   31.1420   42.2460 C   0  0  0  0  0  0  0  0  0  0  0  0
   42.2880   32.4970   42.7790 H   0  0  0  0  0  0  0  0  0  0  0  0
   42.2610   30.0040   43.1880 H   0  0  0  0  0  0  0  0  0  0  0  0
   41.9850   29.7400   41.3870 H   0  0  0  0  0  0  0  0  0  0  0  0
   40.1120   31.2850   43.2780 H   0  0  0  0  0  0  0  0  0  0  0  0
   39.8180   30.9860   41.4290 H   0  0  0  0  0  0  0  0  0  0  0  0
  1  5  1  0  0  0  0
  1 24  1  0  0  0  0
  2  1  1  0  0  0  0
  3  1  1  0  0  0  0
  4  9  2  0  0  0  0
  4  5  1  0  0  0  0
  5  6  2  0  0  0  0
  6  7  1  0  0  0  0
  6 11  1  0  0  0  0
  8 12  1  0  0  0  0
  8  7  2  0  0  0  0
  9  8  1  0  0  0  0
 10  4  1  0  0  0  0
 12 23  1  0  0  0  0
 13 14  1  0  0  0  0
 13 12  2  0  0  0  0
 14 15  2  0  0  0  0
 15 16  1  0  0  0  0
 16 17  1  0  0  0  0
 17 18  2  0  0  0  0
 18 19  1  0  0  0  0
 20 18  1  0  0  0  0
 20 21  1  0  0  0  0
 22 20  2  0  0  0  0
 23 16  2  0  0  0  0
 23 22  1  0  0  0  0
 24 25  1  0  0  0  0
 26 25  2  0  0  0  0
 26 27  1  0  0  0  0
 27 29  1  0  0  0  0
 28 27  1  0  0  0  0
 30 27  1  0  0  0  0
 30 32  1  0  0  0  0
 32 31  2  6  0  0  0
 32 35  1  0  0  0  0
 32 33  1  0  0  0  0
 33 34  1  0  0  0  0
 35 36  1  0  0  0  0
 36 38  1  0  0  0  0
 36 37  1  0  0  0  0
 36 39  1  0  0  0  0
 37 40  1  0  0  0  0
 38 37  1  0  0  0  0
 38 42  1  0  0  0  0
 41 37  1  0  0  0  0
 43 38  1  0  0  0  0
M  END
>  <minimizedAffinity>
-5.78548717

$$$$

 OpenBabel03252504343D

 43 46  0  0  0  0  0  0  0  0999 V2000
   37.3830   32.5720   39.1590 C   0  0  0  0  0  0  0  0  0  0  0  0
   36.4070   32.4300   38.6400 H   0  0  0  0  0  0  0  0  0  0  0  0
   38.1650   32.4510   38.3810 H   0  0  0  0  0  0  0  0  0  0  0  0
   38.5930   30.5300   39.7490 C   0  0  0  0  0  0  0  0  0  0  0  0
   37.4870   31.3630   40.0450 C   0  0  0  0  0  0  0  0  0  0  0  0
   36.6840   30.9700   41.0590 C   0  0  0  0  0  0  0  0  0  0  0  0
   36.9830   29.8510   41.6950 N   0  0  0  0  0  0  0  0  0  0  0  0
   38.0030   29.0750   41.4270 C   0  0  0  0  0  0  0  0  0  0  0  0
   38.8720   29.4000   40.4110 N   0  0  0  0  0  0  0  0  0  0  0  0
   39.2770   30.8000   38.9380 H   0  0  0  0  0  0  0  0  0  0  0  0
   35.8660   31.5970   41.2690 H   0  0  0  0  0  0  0  0  0  0  0  0
   38.4300   27.8080   42.0690 C   0  0  0  0  0  0  0  0  0  0  0  0
   39.3100   27.7460   43.1010 N   0  0  0  0  0  0  0  0  0  0  0  0
   39.7200   26.6480   43.7040 C   0  0  0  0  0  3  0  0  0  0  0  0
   39.2530   25.4390   43.3010 N   0  0  0  0  0  0  0  0  0  0  0  0
   38.3590   25.3730   42.2690 C   0  0  0  0  0  0  0  0  0  0  0  0
   37.8930   24.1410   41.8690 C   0  0  0  0  0  3  0  0  0  0  0  0
   36.9910   24.0420   40.8310 C   0  0  0  0  0  0  0  0  0  0  0  0
   36.7030   23.0300   40.6140 H   0  0  0  0  0  0  0  0  0  0  0  0
   36.6020   25.2260   40.2420 C   0  0  0  0  0  0  0  0  0  0  0  0
   35.8870   25.0980   39.4260 H   0  0  0  0  0  0  0  0  0  0  0  0
   37.0990   26.4330   40.6800 C   0  0  0  0  0  3  0  0  0  0  0  0
   37.9870   26.5640   41.6980 C   0  0  0  0  0  0  0  0  0  0  0  0
   37.5700   33.7380   39.8410 O   0  0  0  0  0  0  0  0  0  0  0  0
   38.6470   34.1100   40.6260 C   0  0  0  0  0  3  0  0  0  0  0  0
   39.6790   34.6430   39.9810 C   0  0  0  0  0  3  0  0  0  0  0  0
   40.9670   35.1300   40.6220 C   0  0  0  0  0  0  0  0  0  0  0  0
   40.9470   36.2240   40.4560 H   0  0  0  0  0  0  0  0  0  0  0  0
   41.0210   34.8720   41.6830 H   0  0  0  0  0  0  0  0  0  0  0  0
   42.0090   34.5530   39.9210 O   0  0  0  0  0  0  0  0  0  0  0  0
   44.4150   33.5760   40.4760 O   0  0  0  0  0  0  0  0  0  0  0  0
   42.9760   33.6140   40.9350 P   0  0  1  0  0  0  0  0  0  0  0  0
   42.9870   34.2470   42.5110 O   0  0  0  0  0  0  0  0  0  0  0  0
   42.3470   35.0150   42.5390 H   0  0  0  0  0  0  0  0  0  0  0  0
   42.3510   32.0480   41.0250 O   0  0  0  0  0  0  0  0  0  0  0  0
   42.1730   31.6310   42.3280 C   0  0  0  0  0  0  0  0  0  0  0  0
   41.8080   30.2050   42.5980 C   0  0  0  0  0  0  0  0  0  0  0  0
   40.7460   31.2900   42.6960 C   0  0  0  0  0  0  0  0  0  0  0  0
   42.8730   32.0550   43.0490 H   0  0  0  0  0  0  0  0  0  0  0  0
   42.1440   29.6780   43.5010 H   0  0  0  0  0  0  0  0  0  0  0  0
   41.6430   29.5260   41.7360 H   0  0  0  0  0  0  0  0  0  0  0  0
   40.4890   31.5390   43.7590 H   0  0  0  0  0  0  0  0  0  0  0  0
   39.9570   31.3590   41.9480 H   0  0  0  0  0  0  0  0  0  0  0  0
  1 24  1  0  0  0  0
  1  5  1  0  0  0  0
  2  1  1  0  0  0  0
  3  1  1  0  0  0  0
  4  5  2  0  0  0  0
  4  9  1  0  0  0  0
  5  6  1  0  0  0  0
  6 11  1  0  0  0  0
  6  7  2  0  0  0  0
  8  7  1  0  0  0  0
  8 12  1  0  0  0  0
  9  8  2  0  0  0  0
 10  4  1  0  0  0  0
 12 13  1  0  0  0  0
 13 14  2  0  0  0  0
 15 14  1  0  0  0  0
 16 15  2  0  0  0  0
 17 16  1  0  0  0  0
 18 17  2  0  0  0  0
 19 18  1  0  0  0  0
 20 22  2  0  0  0  0
 20 18  1  0  0  0  0
 21 20  1  0  0  0  0
 22 23  1  0  0  0  0
 23 12  2  0  0  0  0
 23 16  1  0  0  0  0
 24 25  1  0  0  0  0
 26 27  1  0  0  0  0
 26 25  2  0  0  0  0
 27 29  1  0  0  0  0
 28 27  1  0  0  0  0
 30 27  1  0  0  0  0
 30 32  1  0  0  0  0
 32 31  2  6  0  0  0
 32 35  1  0  0  0  0
 32 33  1  0  0  0  0
 33 34  1  0  0  0  0
 35 36  1  0  0  0  0
 36 37  1  0  0  0  0
 36 38  1  0  0  0  0
 36 39  1  0  0  0  0
 37 38  1  0  0  0  0
 37 40  1  0  0  0  0
 38 42  1  0  0  0  0
 41 37  1  0  0  0  0
 43 38  1  0  0  0  0
M  END
>  <minimizedAffinity>
-5.74131012

$$$$

 OpenBabel03252504343D

 43 46  0  0  0  0  0  0  0  0999 V2000
   37.3170   32.4530   38.9730 C   0  0  0  0  0  0  0  0  0  0  0  0
   36.4590   32.3800   38.2660 H   0  0  0  0  0  0  0  0  0  0  0  0
   38.2340   32.4000   38.3500 H   0  0  0  0  0  0  0  0  0  0  0  0
   38.1380   30.1650   39.2430 C   0  0  0  0  0  0  0  0  0  0  0  0
   37.2550   31.1590   39.7340 C   0  0  0  0  0  0  0  0  0  0  0  0
   36.4880   30.8210   40.7930 C   0  0  0  0  0  0  0  0  0  0  0  0
   36.6120   29.6040   41.2920 N   0  0  0  0  0  0  0  0  0  0  0  0
   37.4250   28.6800   40.8440 C   0  0  0  0  0  0  0  0  0  0  0  0
   38.2420   28.9380   39.7690 N   0  0  0  0  0  0  0  0  0  0  0  0
   38.7830   30.3830   38.3860 H   0  0  0  0  0  0  0  0  0  0  0  0
   35.8380   31.5680   41.1480 H   0  0  0  0  0  0  0  0  0  0  0  0
   37.6430   27.2920   41.3220 C   0  0  0  0  0  0  0  0  0  0  0  0
   36.8620   26.2420   40.9650 N   0  0  0  0  0  0  0  0  0  0  0  0
   37.0130   24.9930   41.3610 C   0  0  0  0  0  3  0  0  0  0  0  0
   38.0270   24.6680   42.2030 N   0  0  0  0  0  0  0  0  0  0  0  0
   38.8830   25.6430   42.6320 C   0  0  0  0  0  0  0  0  0  0  0  0
   39.9080   25.3020   43.4860 C   0  0  0  0  0  3  0  0  0  0  0  0
   40.7880   26.2630   43.9370 C   0  0  0  0  0  0  0  0  0  0  0  0
   41.5410   25.8730   44.5960 H   0  0  0  0  0  0  0  0  0  0  0  0
   40.5740   27.5480   43.4860 C   0  0  0  0  0  0  0  0  0  0  0  0
   41.2960   28.2750   43.8690 H   0  0  0  0  0  0  0  0  0  0  0  0
   39.5340   27.8370   42.6330 C   0  0  0  0  0  3  0  0  0  0  0  0
   38.6520   26.9150   42.1710 C   0  0  0  0  0  0  0  0  0  0  0  0
   37.3650   33.5410   39.7940 O   0  0  0  0  0  0  0  0  0  0  0  0
   38.4380   34.0150   40.5280 C   0  0  0  0  0  3  0  0  0  0  0  0
   39.5780   34.1630   39.8610 C   0  0  0  0  0  3  0  0  0  0  0  0
   40.8850   34.6690   40.4450 C   0  0  0  0  0  0  0  0  0  0  0  0
   40.7150   35.7550   40.5700 H   0  0  0  0  0  0  0  0  0  0  0  0
   41.1310   34.1760   41.3900 H   0  0  0  0  0  0  0  0  0  0  0  0
   41.8660   34.4380   39.4990 O   0  0  0  0  0  0  0  0  0  0  0  0
   43.4520   32.4990   40.3780 O   0  0  0  0  0  0  0  0  0  0  0  0
   43.3210   33.9970   40.2290 P   0  0  1  0  0  0  0  0  0  0  0  0
   44.6430   34.5090   39.2950 O   0  0  0  0  0  0  0  0  0  0  0  0
   44.2880   35.0450   38.5290 H   0  0  0  0  0  0  0  0  0  0  0  0
   43.4480   34.7450   41.7370 O   0  0  0  0  0  0  0  0  0  0  0  0
   44.7560   35.0470   42.0610 C   0  0  0  0  0  0  0  0  0  0  0  0
   45.5090   34.1440   42.9870 C   0  0  0  0  0  0  0  0  0  0  0  0
   44.9710   35.4720   43.4970 C   0  0  0  0  0  0  0  0  0  0  0  0
   45.3550   35.4450   41.2420 H   0  0  0  0  0  0  0  0  0  0  0  0
   46.5920   33.9860   42.8930 H   0  0  0  0  0  0  0  0  0  0  0  0
   44.9800   33.2740   43.4280 H   0  0  0  0  0  0  0  0  0  0  0  0
   45.7780   36.2410   43.6170 H   0  0  0  0  0  0  0  0  0  0  0  0
   44.1320   35.4980   44.1920 H   0  0  0  0  0  0  0  0  0  0  0  0
  1  5  1  0  0  0  0
  1 24  1  0  0  0  0
  2  1  1  0  0  0  0
  3  1  1  0  0  0  0
  4  5  2  0  0  0  0
  4  9  1  0  0  0  0
  5  6  1  0  0  0  0
  6 11  1  0  0  0  0
  6  7  2  0  0  0  0
  8  7  1  0  0  0  0
  8 12  1  0  0  0  0
  9  8  2  0  0  0  0
 10  4  1  0  0  0  0
 12 23  1  0  0  0  0
 13 12  2  0  0  0  0
 13 14  1  0  0  0  0
 14 15  2  0  0  0  0
 15 16  1  0  0  0  0
 16 17  1  0  0  0  0
 17 18  2  0  0  0  0
 18 19  1  0  0  0  0
 20 21  1  0  0  0  0
 20 18  1  0  0  0  0
 22 20  2  0  0  0  0
 23 16  2  0  0  0  0
 23 22  1  0  0  0  0
 24 25  1  0  0  0  0
 26 27  1  0  0  0  0
 26 25  2  0  0  0  0
 27 28  1  0  0  0  0
 27 29  1  0  0  0  0
 30 32  1  0  0  0  0
 30 27  1  0  0  0  0
 32 31  2  1  0  0  0
 32 35  1  0  0  0  0
 33 32  1  0  0  0  0
 34 33  1  0  0  0  0
 35 36  1  0  0  0  0
 36 37  1  0  0  0  0
 36 38  1  0  0  0  0
 37 41  1  0  0  0  0
 37 38  1  0  0  0  0
 38 42  1  0  0  0  0
 38 43  1  0  0  0  0
 39 36  1  0  0  0  0
 40 37  1  0  0  0  0
M  END
>  <minimizedAffinity>
-5.65606546

$$$$

 OpenBabel03252504343D

 43 46  0  0  0  0  0  0  0  0999 V2000
   35.5350   28.9320   37.9860 C   0  0  0  0  0  0  0  0  0  0  0  0
   35.2610   29.4160   37.0210 H   0  0  0  0  0  0  0  0  0  0  0  0
   34.5850   28.8040   38.5460 H   0  0  0  0  0  0  0  0  0  0  0  0
   37.1590   30.7570   37.8710 C   0  0  0  0  0  0  0  0  0  0  0  0
   36.3030   30.0010   38.7090 C   0  0  0  0  0  0  0  0  0  0  0  0
   36.2920   30.3300   40.0200 C   0  0  0  0  0  0  0  0  0  0  0  0
   37.0700   31.3180   40.4230 N   0  0  0  0  0  0  0  0  0  0  0  0
   37.8640   32.0210   39.6550 C   0  0  0  0  0  0  0  0  0  0  0  0
   37.9380   31.7540   38.3070 N   0  0  0  0  0  0  0  0  0  0  0  0
   37.2090   30.5340   36.8000 H   0  0  0  0  0  0  0  0  0  0  0  0
   35.6520   29.7620   40.6310 H   0  0  0  0  0  0  0  0  0  0  0  0
   38.7730   33.1420   39.9970 C   0  0  0  0  0  0  0  0  0  0  0  0
   38.3860   34.4420   40.0280 N   0  0  0  0  0  0  0  0  0  0  0  0
   39.1540   35.4730   40.3260 C   0  0  0  0  0  3  0  0  0  0  0  0
   40.4590   35.2760   40.6390 N   0  0  0  0  0  0  0  0  0  0  0  0
   40.9660   34.0070   40.6430 C   0  0  0  0  0  0  0  0  0  0  0  0
   42.2920   33.8200   40.9630 C   0  0  0  0  0  3  0  0  0  0  0  0
   42.8330   32.5510   40.9750 C   0  0  0  0  0  0  0  0  0  0  0  0
   43.8750   32.5370   41.2390 H   0  0  0  0  0  0  0  0  0  0  0  0
   41.9790   31.5180   40.6540 C   0  0  0  0  0  0  0  0  0  0  0  0
   42.4520   30.5330   40.6780 H   0  0  0  0  0  0  0  0  0  0  0  0
   40.6600   31.7590   40.3420 C   0  0  0  0  0  3  0  0  0  0  0  0
   40.0980   32.9940   40.3210 C   0  0  0  0  0  0  0  0  0  0  0  0
   36.2120   27.7490   37.9280 O   0  0  0  0  0  0  0  0  0  0  0  0
   36.1680   26.6910   38.8190 C   0  0  0  0  0  3  0  0  0  0  0  0
   37.1890   25.8440   38.7640 C   0  0  0  0  0  3  0  0  0  0  0  0
   37.3670   24.6150   39.6370 C   0  0  0  0  0  0  0  0  0  0  0  0
   36.4750   24.6250   40.2920 H   0  0  0  0  0  0  0  0  0  0  0  0
   37.4370   23.6970   39.0470 H   0  0  0  0  0  0  0  0  0  0  0  0
   38.5160   24.8100   40.3810 O   0  0  0  0  0  0  0  0  0  0  0  0
   36.7030   24.6990   42.3170 O   0  0  0  0  0  0  0  0  0  0  0  0
   38.1550   24.9910   42.0180 P   0  0  1  0  0  0  0  0  0  0  0  0
   39.0700   23.9130   42.9590 O   0  0  0  0  0  0  0  0  0  0  0  0
   39.7040   23.4370   42.3500 H   0  0  0  0  0  0  0  0  0  0  0  0
   38.5490   26.5560   42.5170 O   0  0  0  0  0  0  0  0  0  0  0  0
   37.4430   27.3800   42.5700 C   0  0  0  0  0  0  0  0  0  0  0  0
   37.6020   28.7890   43.0490 C   0  0  0  0  0  0  0  0  0  0  0  0
   36.9900   27.7420   43.9670 C   0  0  0  0  0  0  0  0  0  0  0  0
   36.7420   27.2670   41.7440 H   0  0  0  0  0  0  0  0  0  0  0  0
   36.9850   29.6090   42.6590 H   0  0  0  0  0  0  0  0  0  0  0  0
   38.6020   29.1240   43.3940 H   0  0  0  0  0  0  0  0  0  0  0  0
   35.8790   27.8550   44.0600 H   0  0  0  0  0  0  0  0  0  0  0  0
   37.5420   27.3770   44.8340 H   0  0  0  0  0  0  0  0  0  0  0  0
  1  3  1  0  0  0  0
  1  5  1  0  0  0  0
  2  1  1  0  0  0  0
  4  9  2  0  0  0  0
  4  5  1  0  0  0  0
  5  6  2  0  0  0  0
  6  7  1  0  0  0  0
  6 11  1  0  0  0  0
  8 12  1  0  0  0  0
  8  7  2  0  0  0  0
  9  8  1  0  0  0  0
 10  4  1  0  0  0  0
 12 13  2  0  0  0  0
 12 23  1  0  0  0  0
 13 14  1  0  0  0  0
 14 15  2  0  0  0  0
 15 16  1  0  0  0  0
 16 17  1  0  0  0  0
 17 18  2  0  0  0  0
 18 19  1  0  0  0  0
 20 21  1  0  0  0  0
 20 18  1  0  0  0  0
 22 20  2  0  0  0  0
 23 22  1  0  0  0  0
 23 16  2  0  0  0  0
 24  1  1  0  0  0  0
 24 25  1  0  0  0  0
 26 25  2  0  0  0  0
 26 27  1  0  0  0  0
 27 28  1  0  0  0  0
 27 30  1  0  0  0  0
 29 27  1  0  0  0  0
 30 32  1  0  0  0  0
 32 31  2  1  0  0  0
 32 35  1  0  0  0  0
 32 33  1  0  0  0  0
 34 33  1  0  0  0  0
 35 36  1  0  0  0  0
 36 37  1  0  0  0  0
 36 38  1  0  0  0  0
 37 41  1  0  0  0  0
 37 38  1  0  0  0  0
 38 42  1  0  0  0  0
 38 43  1  0  0  0  0
 39 36  1  0  0  0  0
 40 37  1  0  0  0  0
M  END
>  <minimizedAffinity>
-5.51371431

$$$$

 OpenBabel03252504343D

 43 46  0  0  0  0  0  0  0  0999 V2000
   37.3810   32.0760   38.4090 C   0  0  0  0  0  0  0  0  0  0  0  0
   37.5720   31.6850   37.3830 H   0  0  0  0  0  0  0  0  0  0  0  0
   37.0000   33.1100   38.2780 H   0  0  0  0  0  0  0  0  0  0  0  0
   38.8370   33.1380   40.0630 C   0  0  0  0  0  0  0  0  0  0  0  0
   38.7580   32.2100   38.9950 C   0  0  0  0  0  0  0  0  0  0  0  0
   39.9040   31.5840   38.6480 C   0  0  0  0  0  0  0  0  0  0  0  0
   41.0040   31.8770   39.3180 N   0  0  0  0  0  0  0  0  0  0  0  0
   41.0860   32.7340   40.3050 C   0  0  0  0  0  0  0  0  0  0  0  0
   39.9670   33.4150   40.7240 N   0  0  0  0  0  0  0  0  0  0  0  0
   37.9400   33.6740   40.3870 H   0  0  0  0  0  0  0  0  0  0  0  0
   39.8320   30.8980   37.8540 H   0  0  0  0  0  0  0  0  0  0  0  0
   42.2580   33.1370   41.1200 C   0  0  0  0  0  0  0  0  0  0  0  0
   42.9370   34.2990   40.9390 N   0  0  0  0  0  0  0  0  0  0  0  0
   43.9820   34.7020   41.6340 C   0  0  0  0  0  3  0  0  0  0  0  0
   44.4680   33.9270   42.6370 N   0  0  0  0  0  0  0  0  0  0  0  0
   43.8660   32.7320   42.9150 C   0  0  0  0  0  0  0  0  0  0  0  0
   44.3680   31.9550   43.9350 C   0  0  0  0  0  3  0  0  0  0  0  0
   43.7820   30.7440   44.2400 C   0  0  0  0  0  0  0  0  0  0  0  0
   44.2640   30.2330   45.0530 H   0  0  0  0  0  0  0  0  0  0  0  0
   42.6950   30.3800   43.4760 C   0  0  0  0  0  0  0  0  0  0  0  0
   42.2640   29.4150   43.7540 H   0  0  0  0  0  0  0  0  0  0  0  0
   42.2320   31.1940   42.4660 C   0  0  0  0  0  3  0  0  0  0  0  0
   42.7850   32.3900   42.1420 C   0  0  0  0  0  0  0  0  0  0  0  0
   36.5390   31.3610   39.2090 O   0  0  0  0  0  0  0  0  0  0  0  0
   36.6480   30.0400   39.6060 C   0  0  0  0  0  3  0  0  0  0  0  0
   36.1900   29.7590   40.8210 C   0  0  0  0  0  3  0  0  0  0  0  0
   36.1950   28.3880   41.4740 C   0  0  0  0  0  0  0  0  0  0  0  0
   35.7150   28.5610   42.4550 H   0  0  0  0  0  0  0  0  0  0  0  0
   35.6610   27.6460   40.8760 H   0  0  0  0  0  0  0  0  0  0  0  0
   37.5190   28.0260   41.6400 O   0  0  0  0  0  0  0  0  0  0  0  0
   38.9820   29.7650   43.0140 O   0  0  0  0  0  0  0  0  0  0  0  0
   38.1050   28.5400   43.1360 P   0  0  1  0  0  0  0  0  0  0  0  0
   36.8260   28.9610   44.1710 O   0  0  0  0  0  0  0  0  0  0  0  0
   35.9690   28.7420   43.7050 H   0  0  0  0  0  0  0  0  0  0  0  0
   38.9580   27.2840   43.8740 O   0  0  0  0  0  0  0  0  0  0  0  0
   39.6310   26.5020   42.9570 C   0  0  0  0  0  0  0  0  0  0  0  0
   39.6700   25.0180   43.1480 C   0  0  0  0  0  0  0  0  0  0  0  0
   40.8950   25.8560   43.4810 C   0  0  0  0  0  0  0  0  0  0  0  0
   39.5270   26.8140   41.9180 H   0  0  0  0  0  0  0  0  0  0  0  0
   39.6920   24.3220   42.3000 H   0  0  0  0  0  0  0  0  0  0  0  0
   39.1930   24.5860   44.0520 H   0  0  0  0  0  0  0  0  0  0  0  0
   41.7000   25.7600   42.7070 H   0  0  0  0  0  0  0  0  0  0  0  0
   41.1960   26.0060   44.5180 H   0  0  0  0  0  0  0  0  0  0  0  0
  1  5  1  0  0  0  0
  1 24  1  0  0  0  0
  2  1  1  0  0  0  0
  3  1  1  0  0  0  0
  4 10  1  0  0  0  0
  4  9  1  0  0  0  0
  5  4  2  0  0  0  0
  6  5  1  0  0  0  0
  6  7  2  0  0  0  0
  7  8  1  0  0  0  0
  8  9  2  0  0  0  0
  8 12  1  0  0  0  0
 11  6  1  0  0  0  0
 12 23  1  0  0  0  0
 13 12  2  0  0  0  0
 13 14  1  0  0  0  0
 14 15  2  0  0  0  0
 15 16  1  0  0  0  0
 16 17  1  0  0  0  0
 17 18  2  0  0  0  0
 18 19  1  0  0  0  0
 20 21  1  0  0  0  0
 20 18  1  0  0  0  0
 22 20  2  0  0  0  0
 23 22  1  0  0  0  0
 23 16  2  0  0  0  0
 24 25  1  0  0  0  0
 25 26  2  0  0  0  0
 26 27  1  0  0  0  0
 27 30  1  0  0  0  0
 27 28  1  0  0  0  0
 29 27  1  0  0  0  0
 30 32  1  0  0  0  0
 32 31  2  6  0  0  0
 32 35  1  0  0  0  0
 32 33  1  0  0  0  0
 34 33  1  0  0  0  0
 36 37  1  0  0  0  0
 36 38  1  0  0  0  0
 36 35  1  0  0  0  0
 37 38  1  0  0  0  0
 37 41  1  0  0  0  0
 38 43  1  0  0  0  0
 39 36  1  0  0  0  0
 40 37  1  0  0  0  0
 42 38  1  0  0  0  0
M  END
>  <minimizedAffinity>
-5.48459721

$$$$

 OpenBabel03252504343D

 43 46  0  0  0  0  0  0  0  0999 V2000
   35.5260   29.1400   37.8090 C   0  0  0  0  0  0  0  0  0  0  0  0
   35.1460   29.3960   36.7930 H   0  0  0  0  0  0  0  0  0  0  0  0
   34.6840   29.3240   38.5080 H   0  0  0  0  0  0  0  0  0  0  0  0
   36.4610   30.7520   39.3930 C   0  0  0  0  0  0  0  0  0  0  0  0
   36.5390   30.2140   38.0850 C   0  0  0  0  0  0  0  0  0  0  0  0
   37.4890   30.7280   37.2730 C   0  0  0  0  0  0  0  0  0  0  0  0
   38.2680   31.6830   37.7480 N   0  0  0  0  0  0  0  0  0  0  0  0
   38.2010   32.1860   38.9550 C   0  0  0  0  0  0  0  0  0  0  0  0
   37.2640   31.7210   39.8480 N   0  0  0  0  0  0  0  0  0  0  0  0
   35.7100   30.3740   40.0940 H   0  0  0  0  0  0  0  0  0  0  0  0
   37.5370   30.3200   36.3050 H   0  0  0  0  0  0  0  0  0  0  0  0
   39.0170   33.2510   39.5890 C   0  0  0  0  0  0  0  0  0  0  0  0
   38.5460   34.4920   39.8710 N   0  0  0  0  0  0  0  0  0  0  0  0
   39.2280   35.4720   40.4310 C   0  0  0  0  0  3  0  0  0  0  0  0
   40.5250   35.2790   40.7810 N   0  0  0  0  0  0  0  0  0  0  0  0
   41.1120   34.0670   40.5470 C   0  0  0  0  0  0  0  0  0  0  0  0
   42.4280   33.8830   40.9060 C   0  0  0  0  0  3  0  0  0  0  0  0
   43.0490   32.6720   40.6830 C   0  0  0  0  0  0  0  0  0  0  0  0
   44.0730   32.6540   41.0060 H   0  0  0  0  0  0  0  0  0  0  0  0
   42.2810   31.6910   40.0940 C   0  0  0  0  0  0  0  0  0  0  0  0
   42.8140   30.7490   39.9380 H   0  0  0  0  0  0  0  0  0  0  0  0
   40.9680   31.9250   39.7530 C   0  0  0  0  0  3  0  0  0  0  0  0
   40.3290   33.1050   39.9600 C   0  0  0  0  0  0  0  0  0  0  0  0
   36.0290   27.8860   37.9950 O   0  0  0  0  0  0  0  0  0  0  0  0
   36.0950   27.1530   39.1680 C   0  0  0  0  0  3  0  0  0  0  0  0
   37.2980   27.0560   39.7230 C   0  0  0  0  0  3  0  0  0  0  0  0
   37.6210   26.3110   41.0070 C   0  0  0  0  0  0  0  0  0  0  0  0
   37.3830   25.2570   40.7680 H   0  0  0  0  0  0  0  0  0  0  0  0
   38.6630   26.4430   41.3070 H   0  0  0  0  0  0  0  0  0  0  0  0
   36.7640   26.7920   41.9790 O   0  0  0  0  0  0  0  0  0  0  0  0
   37.2220   29.3520   42.5160 O   0  0  0  0  0  0  0  0  0  0  0  0
   37.5310   27.9380   42.9510 P   0  0  1  0  0  0  0  0  0  0  0  0
   37.0160   27.8020   44.5630 O   0  0  0  0  0  0  0  0  0  0  0  0
   36.4120   27.0080   44.6260 H   0  0  0  0  0  0  0  0  0  0  0  0
   39.1990   27.6740   42.9300 O   0  0  0  0  0  0  0  0  0  0  0  0
   39.6150   26.8830   43.9820 C   0  0  0  0  0  0  0  0  0  0  0  0
   41.0640   26.5280   44.1030 C   0  0  0  0  0  0  0  0  0  0  0  0
   40.0720   25.4960   43.5900 C   0  0  0  0  0  0  0  0  0  0  0  0
   39.1250   27.0860   44.9340 H   0  0  0  0  0  0  0  0  0  0  0  0
   41.5500   26.3900   45.0780 H   0  0  0  0  0  0  0  0  0  0  0  0
   41.7640   26.8740   43.3150 H   0  0  0  0  0  0  0  0  0  0  0  0
   39.8340   24.7150   44.3580 H   0  0  0  0  0  0  0  0  0  0  0  0
   40.0790   25.1980   42.5410 H   0  0  0  0  0  0  0  0  0  0  0  0
  1 24  1  0  0  0  0
  1  5  1  0  0  0  0
  1  3  1  0  0  0  0
  2  1  1  0  0  0  0
  4  9  1  0  0  0  0
  4 10  1  0  0  0  0
  5  4  2  0  0  0  0
  6  7  2  0  0  0  0
  6  5  1  0  0  0  0
  7  8  1  0  0  0  0
  8 12  1  0  0  0  0
  8  9  2  0  0  0  0
 11  6  1  0  0  0  0
 12 13  2  0  0  0  0
 12 23  1  0  0  0  0
 13 14  1  0  0  0  0
 14 15  2  0  0  0  0
 16 15  1  0  0  0  0
 16 17  1  0  0  0  0
 18 17  2  0  0  0  0
 18 19  1  0  0  0  0
 20 18  1  0  0  0  0
 21 20  1  0  0  0  0
 22 23  1  0  0  0  0
 22 20  2  0  0  0  0
 23 16  2  0  0  0  0
 24 25  1  0  0  0  0
 25 26  2  0  0  0  0
 26 27  1  0  0  0  0
 27 29  1  0  0  0  0
 27 30  1  0  0  0  0
 28 27  1  0  0  0  0
 30 32  1  0  0  0  0
 32 31  2  6  0  0  0
 32 33  1  0  0  0  0
 33 34  1  0  0  0  0
 35 32  1  0  0  0  0
 35 36  1  0  0  0  0
 36 37  1  0  0  0  0
 36 39  1  0  0  0  0
 37 40  1  0  0  0  0
 38 36  1  0  0  0  0
 38 37  1  0  0  0  0
 38 42  1  0  0  0  0
 41 37  1  0  0  0  0
 43 38  1  0  0  0  0
M  END
>  <minimizedAffinity>
-5.38556337

$$$$
