
 OpenBabel03252502243D

 37 40  0  0  1  0  0  0  0  0999 V2000
   46.7390   34.2850   42.4260 N   0  0  0  0  0  0  0  0  0  0  0  0
   48.1420   34.6650   42.3110 C   0  0  0  0  0  0  0  0  0  0  0  0
   48.2550   35.2790   40.9190 C   0  0  0  0  0  0  0  0  0  0  0  0
   47.9840   34.2440   39.8690 C   0  0  0  0  0  0  0  0  0  0  0  0
   46.8890   33.2940   40.1960 C   0  0  0  0  0  0  0  0  0  0  0  0
   46.0180   33.6850   41.3390 C   0  0  1  0  0  0  0  0  0  0  0  0
   48.7170   33.7290   42.2800 H   0  0  0  0  0  0  0  0  0  0  0  0
   48.4500   35.3730   43.0740 H   0  0  0  0  0  0  0  0  0  0  0  0
   49.3500   35.5420   40.8280 H   0  0  0  0  0  0  0  0  0  0  0  0
   47.6270   36.1680   40.8580 H   0  0  0  0  0  0  0  0  0  0  0  0
   48.9180   33.6850   39.5910 H   0  0  0  0  0  0  0  0  0  0  0  0
   47.6980   34.7860   38.9350 H   0  0  0  0  0  0  0  0  0  0  0  0
   46.2490   33.0390   39.3230 H   0  0  0  0  0  0  0  0  0  0  0  0
   47.3620   32.3140   40.4790 H   0  0  0  0  0  0  0  0  0  0  0  0
   45.2250   34.3830   40.9670 H   0  0  0  0  0  0  0  0  0  0  0  0
   44.4700   35.7160   45.0330 C   0  0  0  0  0  0  0  0  0  0  0  0
   45.1220   35.5760   43.8040 C   0  0  0  0  0  0  0  0  0  0  0  0
   46.0320   34.5020   43.6450 C   0  0  0  0  0  0  0  0  0  0  0  0
   46.2150   33.6690   44.7040 N   0  0  0  0  0  0  0  0  0  0  0  0
   45.5560   33.8490   45.8800 C   0  0  0  0  0  0  0  0  0  0  0  0
   44.6890   34.8690   46.0340 N   0  0  0  0  0  0  0  0  0  0  0  0
   43.8100   36.5730   45.0090 H   0  0  0  0  0  0  0  0  0  0  0  0
   44.9980   36.2190   42.9460 H   0  0  0  0  0  0  0  0  0  0  0  0
   45.7160   33.1750   46.7100 H   0  0  0  0  0  0  0  0  0  0  0  0
   45.3890   32.5220   41.8190 O   0  0  0  0  0  0  0  0  0  0  0  0
   44.0370   32.2990   41.8400 C   0  0  0  0  0  0  0  0  0  0  0  0
   43.3530   31.2800   42.3850 N   0  0  0  0  0  0  0  0  0  0  0  0
   42.0250   31.1970   42.3240 C   0  0  0  0  0  3  0  0  0  0  0  0
   41.2950   32.1570   41.6980 N   0  0  0  0  0  0  0  0  0  0  0  0
   41.9150   33.2010   41.1330 C   0  0  0  0  0  0  0  0  0  0  0  0
   41.1760   34.1750   40.5000 C   0  0  0  0  0  3  0  0  0  0  0  0
   41.7710   35.2620   39.9080 C   0  0  0  0  0  0  0  0  0  0  0  0
   41.2740   36.0780   39.3870 H   0  0  0  0  0  0  0  0  0  0  0  0
   43.1280   35.3640   39.9590 C   0  0  0  0  0  0  0  0  0  0  0  0
   43.6770   36.1860   39.5210 H   0  0  0  0  0  0  0  0  0  0  0  0
   43.8580   34.3830   40.5960 C   0  0  0  0  0  3  0  0  0  0  0  0
   43.2930   33.2760   41.2030 C   0  0  0  0  0  0  0  0  0  0  0  0
  1 18  1  0  0  0  0
  2  1  1  0  0  0  0
  2  8  1  0  0  0  0
  3  2  1  0  0  0  0
  4  5  1  0  0  0  0
  4  3  1  0  0  0  0
  5 14  1  0  0  0  0
  5  6  1  0  0  0  0
  6 15  1  6  0  0  0
  6 25  1  0  0  0  0
  6  1  1  0  0  0  0
  7  2  1  0  0  0  0
  9  3  1  0  0  0  0
 10  3  1  0  0  0  0
 11  4  1  0  0  0  0
 12  4  1  0  0  0  0
 13  5  1  0  0  0  0
 16 21  1  0  0  0  0
 17 16  2  0  0  0  0
 18 17  1  0  0  0  0
 18 19  2  0  0  0  0
 19 20  1  0  0  0  0
 20 21  2  0  0  0  0
 20 24  1  0  0  0  0
 22 16  1  0  0  0  0
 23 17  1  0  0  0  0
 25 26  1  0  0  0  0
 26 27  1  0  0  0  0
 28 27  2  0  0  0  0
 29 28  1  0  0  0  0
 30 37  1  0  0  0  0
 30 29  2  0  0  0  0
 31 30  1  0  0  0  0
 32 34  1  0  0  0  0
 32 31  2  0  0  0  0
 33 32  1  0  0  0  0
 34 36  2  0  0  0  0
 35 34  1  0  0  0  0
 36 37  1  0  0  0  0
 37 26  2  0  0  0  0
M  END
>  <minimizedAffinity>
-5.90942717

>  <minimizedRMSD>
1.05553925

$$$$
