
 OpenBabel03252506123D

 39 42  0  0  0  0  0  0  0  0999 V2000
   45.0860   33.4130   41.2240 F   0  0  0  0  0  0  0  0  0  0  0  0
   46.2800   33.9970   41.0770 C   0  0  0  0  0  0  0  0  0  0  0  0
   46.7800   34.7640   42.1080 C   0  0  0  0  0  0  0  0  0  0  0  0
   48.0190   35.4070   42.0370 C   0  0  0  0  0  0  0  0  0  0  0  0
   48.7930   35.2750   40.8830 C   0  0  0  0  0  0  0  0  0  0  0  0
   48.2470   34.4930   39.8760 C   0  0  0  0  0  0  0  0  0  0  0  0
   47.0440   33.8610   39.9290 C   0  0  0  0  0  0  0  0  0  0  0  0
   48.3500   36.0020   42.8960 H   0  0  0  0  0  0  0  0  0  0  0  0
   49.7210   35.7880   40.8940 H   0  0  0  0  0  0  0  0  0  0  0  0
   48.9530   34.4730   39.0510 H   0  0  0  0  0  0  0  0  0  0  0  0
   45.4540   34.1540   45.4730 C   0  0  0  0  0  0  0  0  0  0  0  0
   44.5810   35.2510   45.6430 C   0  0  0  0  0  0  0  0  0  0  0  0
   44.4520   36.2020   44.5940 C   0  0  0  0  0  0  0  0  0  0  0  0
   45.1980   35.9800   43.4710 N   0  0  0  0  0  0  0  0  0  0  0  0
   46.0130   34.9320   43.3430 C   0  0  0  0  0  0  0  0  0  0  0  0
   46.1360   34.0330   44.3340 N   0  0  0  0  0  0  0  0  0  0  0  0
   44.0170   35.3750   46.5520 H   0  0  0  0  0  0  0  0  0  0  0  0
   43.7910   37.0520   44.6980 H   0  0  0  0  0  0  0  0  0  0  0  0
   45.5650   33.2260   46.5280 N   0  0  0  0  0  0  0  0  0  0  0  0
   45.0420   32.3670   46.2380 H   0  0  0  0  0  0  0  0  0  0  0  0
   46.0360   33.2580   47.4540 H   0  0  0  0  0  0  0  0  0  0  0  0
   46.6140   33.1190   38.8700 O   0  0  0  0  0  0  0  0  0  0  0  0
   47.8610   34.5520   37.0280 O   0  0  0  0  0  0  0  0  0  0  0  0
   46.8740   33.4390   37.2350 P   0  0  2  0  0  0  0  0  0  0  0  0
   45.3670   33.8400   36.5270 O   0  0  0  0  0  0  0  0  0  0  0  0
   45.4980   34.1530   35.5810 H   0  0  0  0  0  0  0  0  0  0  0  0
   47.4000   32.0780   36.3830 O   0  0  0  0  0  0  0  0  0  0  0  0
   47.8480   32.0370   35.0920 C   0  0  0  0  0  0  0  0  0  0  0  0
   48.7510   32.8150   34.4700 N   0  0  0  0  0  0  0  0  0  0  0  0
   49.0860   32.6470   33.1850 C   0  0  0  0  0  3  0  0  0  0  0  0
   48.5170   31.6610   32.4390 N   0  0  0  0  0  0  0  0  0  0  0  0
   47.6070   30.8480   33.0000 C   0  0  0  0  0  0  0  0  0  0  0  0
   47.0670   29.8670   32.1890 C   0  0  0  0  0  3  0  0  0  0  0  0
   46.1290   29.0120   32.7280 C   0  0  0  0  0  0  0  0  0  0  0  0
   45.6340   28.2080   32.1990 H   0  0  0  0  0  0  0  0  0  0  0  0
   45.7580   29.1570   34.0520 C   0  0  0  0  0  0  0  0  0  0  0  0
   45.0200   28.5070   34.5280 H   0  0  0  0  0  0  0  0  0  0  0  0
   46.3270   30.1510   34.8170 C   0  0  0  0  0  3  0  0  0  0  0  0
   47.2800   31.0380   34.3110 C   0  0  0  0  0  0  0  0  0  0  0  0
  2  1  1  0  0  0  0
  2  3  1  0  0  0  0
  3 15  1  0  0  0  0
  4  3  2  0  0  0  0
  4  8  1  0  0  0  0
  5  9  1  0  0  0  0
  5  4  1  0  0  0  0
  6  7  1  0  0  0  0
  6  5  2  0  0  0  0
  7  2  2  0  0  0  0
 10  6  1  0  0  0  0
 11 12  1  0  0  0  0
 11 19  1  0  0  0  0
 12 17  1  0  0  0  0
 13 18  1  0  0  0  0
 13 12  2  0  0  0  0
 14 13  1  0  0  0  0
 15 14  2  0  0  0  0
 15 16  1  0  0  0  0
 16 11  2  0  0  0  0
 19 21  1  0  0  0  0
 20 19  1  0  0  0  0
 22  7  1  0  0  0  0
 24 23  2  6  0  0  0
 24 22  1  0  0  0  0
 25 24  1  0  0  0  0
 26 25  1  0  0  0  0
 27 24  1  0  0  0  0
 28 27  1  0  0  0  0
 29 28  1  0  0  0  0
 30 29  2  0  0  0  0
 31 32  2  0  0  0  0
 31 30  1  0  0  0  0
 32 39  1  0  0  0  0
 33 34  2  0  0  0  0
 33 32  1  0  0  0  0
 34 36  1  0  0  0  0
 35 34  1  0  0  0  0
 36 37  1  0  0  0  0
 36 38  2  0  0  0  0
 39 38  1  0  0  0  0
 39 28  2  0  0  0  0
M  END
>  <minimizedAffinity>
-7.38105679

>  <minimizedRMSD>
1.17684257

$$$$
