
 OpenBabel03242512283D

 25 27  0  0  1  0  0  0  0  0999 V2000
   37.0890   27.5260   42.8090 C   0  0  1  0  0  3  0  0  0  0  0  0
   36.1200   27.5810   43.6790 O   0  0  0  0  0  1  0  0  0  0  0  0
   36.8670   28.6410   41.9130 C   0  0  0  0  0  0  0  0  0  0  0  0
   35.7870   28.6370   41.1230 N   0  0  0  0  0  0  0  0  0  0  0  0
   35.5060   29.6510   40.2470 C   0  0  0  0  0  3  0  0  0  0  0  0
   36.3080   30.7220   40.1290 N   0  0  0  0  0  0  0  0  0  0  0  0
   37.4320   30.8140   40.8890 C   0  0  0  0  0  0  0  0  0  0  0  0
   38.2880   31.8810   40.7780 C   0  0  0  0  0  3  0  0  0  0  0  0
   39.4370   31.9590   41.5290 C   0  0  0  0  0  0  0  0  0  0  0  0
   40.0600   32.8140   41.3980 H   0  0  0  0  0  0  0  0  0  0  0  0
   39.6930   30.9060   42.4060 C   0  0  0  0  0  0  0  0  0  0  0  0
   40.6000   30.9860   42.9840 H   0  0  0  0  0  0  0  0  0  0  0  0
   38.8050   29.8630   42.4790 C   0  0  0  0  0  3  0  0  0  0  0  0
   37.6480   29.7580   41.7440 C   0  0  0  0  0  0  0  0  0  0  0  0
   38.6080   24.3090   42.1820 C   0  0  0  0  0  0  0  0  0  0  0  0
   39.8390   24.3640   42.8850 C   0  0  0  0  0  0  0  0  0  0  0  0
   40.1580   25.5280   43.5950 C   0  0  0  0  0  0  0  0  0  0  0  0
   39.2780   26.5310   43.5700 N   0  0  0  0  0  0  0  0  0  0  0  0
   38.1030   26.4750   42.8960 C   0  0  0  0  0  0  0  0  0  0  0  0
   37.7740   25.3750   42.2090 N   0  0  0  0  0  0  0  0  0  0  0  0
   38.2970   23.1240   41.4750 N   0  0  0  0  0  0  0  0  0  0  0  0
   40.5310   23.5590   42.8970 H   0  0  0  0  0  0  0  0  0  0  0  0
   41.0740   25.6490   44.1550 H   0  0  0  0  0  0  0  0  0  0  0  0
   38.0880   23.0060   40.4600 H   0  0  0  0  0  0  0  0  0  0  0  0
   38.2100   22.1410   41.8110 H   0  0  0  0  0  0  0  0  0  0  0  0
  1 19  1  0  0  0  0
  1  2  1  1  0  0  0
  3  1  1  0  0  0  0
  4  3  2  0  0  0  0
  5  4  1  0  0  0  0
  6  5  2  0  0  0  0
  6  7  1  0  0  0  0
  7 14  1  0  0  0  0
  8  7  2  0  0  0  0
  8  9  1  0  0  0  0
  9 11  2  0  0  0  0
 10  9  1  0  0  0  0
 11 13  1  0  0  0  0
 11 12  1  0  0  0  0
 14  3  1  0  0  0  0
 14 13  2  0  0  0  0
 15 20  2  0  0  0  0
 15 16  1  0  0  0  0
 16 22  1  0  0  0  0
 16 17  2  0  0  0  0
 17 23  1  0  0  0  0
 18 17  1  0  0  0  0
 19 18  2  0  0  0  0
 20 19  1  0  0  0  0
 21 25  1  0  0  0  0
 21 15  1  0  0  0  0
 24 21  1  0  0  0  0
M  END
>  <minimizedAffinity>
-5.74853468

$$$$

 OpenBabel03242512283D

 25 27  0  0  1  0  0  0  0  0999 V2000
   36.1400   29.1950   40.5410 C   0  0  1  0  0  3  0  0  0  0  0  0
   34.8650   28.9370   40.6310 O   0  0  0  0  0  1  0  0  0  0  0  0
   36.7760   28.3350   41.5160 C   0  0  0  0  0  0  0  0  0  0  0  0
   37.1880   28.8580   42.6770 N   0  0  0  0  0  0  0  0  0  0  0  0
   37.8000   28.1140   43.6500 C   0  0  0  0  0  3  0  0  0  0  0  0
   38.0250   26.7980   43.4930 N   0  0  0  0  0  0  0  0  0  0  0  0
   37.6440   26.1780   42.3460 C   0  0  0  0  0  0  0  0  0  0  0  0
   37.8790   24.8410   42.1400 C   0  0  0  0  0  3  0  0  0  0  0  0
   37.5160   24.2220   40.9670 C   0  0  0  0  0  0  0  0  0  0  0  0
   37.7250   23.1810   40.8690 H   0  0  0  0  0  0  0  0  0  0  0  0
   36.9000   25.0120   39.9970 C   0  0  0  0  0  0  0  0  0  0  0  0
   36.6250   24.5070   39.0860 H   0  0  0  0  0  0  0  0  0  0  0  0
   36.6870   26.3430   40.2530 C   0  0  0  0  0  3  0  0  0  0  0  0
   37.0360   26.9890   41.4160 C   0  0  0  0  0  0  0  0  0  0  0  0
   37.1080   32.4550   39.3240 C   0  0  0  0  0  0  0  0  0  0  0  0
   37.5240   32.2160   37.9890 C   0  0  0  0  0  0  0  0  0  0  0  0
   37.4690   30.9100   37.4890 C   0  0  0  0  0  0  0  0  0  0  0  0
   37.0250   29.9510   38.3050 N   0  0  0  0  0  0  0  0  0  0  0  0
   36.6290   30.1820   39.5810 C   0  0  0  0  0  0  0  0  0  0  0  0
   36.6720   31.4220   40.0830 N   0  0  0  0  0  0  0  0  0  0  0  0
   37.1620   33.7810   39.8120 N   0  0  0  0  0  0  0  0  0  0  0  0
   37.8760   32.9870   37.3500 H   0  0  0  0  0  0  0  0  0  0  0  0
   37.7680   30.6460   36.4850 H   0  0  0  0  0  0  0  0  0  0  0  0
   37.6790   34.1510   40.6390 H   0  0  0  0  0  0  0  0  0  0  0  0
   36.7060   34.6490   39.4590 H   0  0  0  0  0  0  0  0  0  0  0  0
  1  2  1  6  0  0  0
  1  3  1  0  0  0  0
  3  4  1  0  0  0  0
  4  5  2  0  0  0  0
  6  5  1  0  0  0  0
  7  6  2  0  0  0  0
  8  7  1  0  0  0  0
  9  8  2  0  0  0  0
 10  9  1  0  0  0  0
 11 13  2  0  0  0  0
 11  9  1  0  0  0  0
 12 11  1  0  0  0  0
 13 14  1  0  0  0  0
 14  3  2  0  0  0  0
 14  7  1  0  0  0  0
 15 21  1  0  0  0  0
 15 20  1  0  0  0  0
 16 15  2  0  0  0  0
 17 16  1  0  0  0  0
 17 18  2  0  0  0  0
 18 19  1  0  0  0  0
 19 20  2  0  0  0  0
 19  1  1  0  0  0  0
 21 24  1  0  0  0  0
 22 16  1  0  0  0  0
 23 17  1  0  0  0  0
 25 21  1  0  0  0  0
M  END
>  <minimizedAffinity>
-5.68643618

$$$$

 OpenBabel03242512283D

 25 27  0  0  1  0  0  0  0  0999 V2000
   37.4620   30.6930   41.0130 C   0  0  1  0  0  3  0  0  0  0  0  0
   36.2300   31.1180   41.0470 O   0  0  0  0  0  1  0  0  0  0  0  0
   37.4370   29.3870   41.6370 C   0  0  0  0  0  0  0  0  0  0  0  0
   37.6610   29.2890   42.9520 N   0  0  0  0  0  0  0  0  0  0  0  0
   37.6570   28.0920   43.6170 C   0  0  0  0  0  3  0  0  0  0  0  0
   37.4240   26.9320   42.9790 N   0  0  0  0  0  0  0  0  0  0  0  0
   37.1890   26.9310   41.6400 C   0  0  0  0  0  0  0  0  0  0  0  0
   36.9720   25.7650   40.9500 C   0  0  0  0  0  3  0  0  0  0  0  0
   36.7600   25.7650   39.5910 C   0  0  0  0  0  0  0  0  0  0  0  0
   36.5970   24.8260   39.1140 H   0  0  0  0  0  0  0  0  0  0  0  0
   36.7770   27.0010   38.9470 C   0  0  0  0  0  0  0  0  0  0  0  0
   36.6100   26.9780   37.8830 H   0  0  0  0  0  0  0  0  0  0  0  0
   36.9970   28.1380   39.6830 C   0  0  0  0  0  3  0  0  0  0  0  0
   37.2090   28.1700   41.0420 C   0  0  0  0  0  0  0  0  0  0  0  0
   39.4140   32.1940   38.3700 C   0  0  0  0  0  0  0  0  0  0  0  0
   40.3720   32.9860   39.0540 C   0  0  0  0  0  0  0  0  0  0  0  0
   40.3540   33.0060   40.4540 C   0  0  0  0  0  0  0  0  0  0  0  0
   39.4270   32.2720   41.0740 N   0  0  0  0  0  0  0  0  0  0  0  0
   38.5120   31.5170   40.4160 C   0  0  0  0  0  0  0  0  0  0  0  0
   38.5080   31.4800   39.0790 N   0  0  0  0  0  0  0  0  0  0  0  0
   39.4490   32.1780   36.9570 N   0  0  0  0  0  0  0  0  0  0  0  0
   41.1050   33.5660   38.5490 H   0  0  0  0  0  0  0  0  0  0  0  0
   41.0490   33.5820   41.0480 H   0  0  0  0  0  0  0  0  0  0  0  0
   38.6960   32.4370   36.2820 H   0  0  0  0  0  0  0  0  0  0  0  0
   40.2160   31.9090   36.3030 H   0  0  0  0  0  0  0  0  0  0  0  0
  1  2  1  6  0  0  0
  1  3  1  0  0  0  0
  3  4  1  0  0  0  0
  4  5  2  0  0  0  0
  6  5  1  0  0  0  0
  7  6  2  0  0  0  0
  8  7  1  0  0  0  0
  9  8  2  0  0  0  0
 10  9  1  0  0  0  0
 11  9  1  0  0  0  0
 11 13  2  0  0  0  0
 12 11  1  0  0  0  0
 13 14  1  0  0  0  0
 14  3  2  0  0  0  0
 14  7  1  0  0  0  0
 15 16  2  0  0  0  0
 15 20  1  0  0  0  0
 16 17  1  0  0  0  0
 17 23  1  0  0  0  0
 17 18  2  0  0  0  0
 19  1  1  0  0  0  0
 19 18  1  0  0  0  0
 20 19  2  0  0  0  0
 21 15  1  0  0  0  0
 22 16  1  0  0  0  0
 24 21  1  0  0  0  0
 25 21  1  0  0  0  0
M  END
>  <minimizedAffinity>
-5.50081348

$$$$

 OpenBabel03242512283D

 25 27  0  0  1  0  0  0  0  0999 V2000
   38.0020   29.1280   41.9680 C   0  0  1  0  0  3  0  0  0  0  0  0
   37.2900   29.4300   43.0170 O   0  0  0  0  0  1  0  0  0  0  0  0
   38.8450   28.0260   42.3790 C   0  0  0  0  0  0  0  0  0  0  0  0
   40.0330   28.2860   42.9350 N   0  0  0  0  0  0  0  0  0  0  0  0
   40.8900   27.3020   43.3490 C   0  0  0  0  0  3  0  0  0  0  0  0
   40.5830   26.0000   43.2190 N   0  0  0  0  0  0  0  0  0  0  0  0
   39.3980   25.6360   42.6610 C   0  0  0  0  0  0  0  0  0  0  0  0
   39.0610   24.3170   42.4890 C   0  0  0  0  0  3  0  0  0  0  0  0
   37.8720   23.9520   41.9010 C   0  0  0  0  0  0  0  0  0  0  0  0
   37.6680   22.9120   41.7970 H   0  0  0  0  0  0  0  0  0  0  0  0
   37.0280   24.9820   41.4870 C   0  0  0  0  0  0  0  0  0  0  0  0
   36.1020   24.6740   41.0280 H   0  0  0  0  0  0  0  0  0  0  0  0
   37.4120   26.2840   41.6840 C   0  0  0  0  0  3  0  0  0  0  0  0
   38.5910   26.6800   42.2700 C   0  0  0  0  0  0  0  0  0  0  0  0
   37.3000   31.9740   39.8570 C   0  0  0  0  0  0  0  0  0  0  0  0
   37.4640   31.4760   38.5390 C   0  0  0  0  0  0  0  0  0  0  0  0
   37.8190   30.1330   38.3650 C   0  0  0  0  0  0  0  0  0  0  0  0
   37.9870   29.3880   39.4600 N   0  0  0  0  0  0  0  0  0  0  0  0
   37.8310   29.8680   40.7190 C   0  0  0  0  0  0  0  0  0  0  0  0
   37.4910   31.1480   40.9130 N   0  0  0  0  0  0  0  0  0  0  0  0
   36.9340   33.3300   40.0170 N   0  0  0  0  0  0  0  0  0  0  0  0
   37.3270   32.0790   37.6760 H   0  0  0  0  0  0  0  0  0  0  0  0
   37.9620   29.6780   37.3950 H   0  0  0  0  0  0  0  0  0  0  0  0
   37.4350   34.0850   40.5350 H   0  0  0  0  0  0  0  0  0  0  0  0
   36.1050   33.8520   39.6600 H   0  0  0  0  0  0  0  0  0  0  0  0
  1  3  1  0  0  0  0
  1  2  1  6  0  0  0
  3  4  1  0  0  0  0
  4  5  2  0  0  0  0
  6  5  1  0  0  0  0
  7  6  2  0  0  0  0
  8  7  1  0  0  0  0
  9  8  2  0  0  0  0
 10  9  1  0  0  0  0
 11 13  2  0  0  0  0
 11  9  1  0  0  0  0
 12 11  1  0  0  0  0
 13 14  1  0  0  0  0
 14  3  2  0  0  0  0
 14  7  1  0  0  0  0
 15 21  1  0  0  0  0
 15 20  1  0  0  0  0
 16 15  2  0  0  0  0
 17 16  1  0  0  0  0
 17 18  2  0  0  0  0
 18 19  1  0  0  0  0
 19 20  2  0  0  0  0
 19  1  1  0  0  0  0
 21 24  1  0  0  0  0
 22 16  1  0  0  0  0
 23 17  1  0  0  0  0
 25 21  1  0  0  0  0
M  END
>  <minimizedAffinity>
-5.48554468

$$$$

 OpenBabel03242512283D

 25 27  0  0  1  0  0  0  0  0999 V2000
   37.8420   31.0570   40.9450 C   0  0  1  0  0  3  0  0  0  0  0  0
   36.5960   31.4410   40.9560 O   0  0  0  0  0  1  0  0  0  0  0  0
   37.8530   29.7690   41.6070 C   0  0  0  0  0  0  0  0  0  0  0  0
   36.7090   29.0850   41.7210 N   0  0  0  0  0  0  0  0  0  0  0  0
   36.6340   27.8630   42.3330 C   0  0  0  0  0  3  0  0  0  0  0  0
   37.7200   27.2730   42.8620 N   0  0  0  0  0  0  0  0  0  0  0  0
   38.9270   27.8930   42.7980 C   0  0  0  0  0  0  0  0  0  0  0  0
   40.0520   27.3320   43.3490 C   0  0  0  0  0  3  0  0  0  0  0  0
   41.2680   27.9740   43.3050 C   0  0  0  0  0  0  0  0  0  0  0  0
   42.1040   27.4860   43.7510 H   0  0  0  0  0  0  0  0  0  0  0  0
   41.3040   29.2190   42.6790 C   0  0  0  0  0  0  0  0  0  0  0  0
   42.2660   29.7060   42.6570 H   0  0  0  0  0  0  0  0  0  0  0  0
   40.1520   29.7350   42.1440 C   0  0  0  0  0  3  0  0  0  0  0  0
   38.9230   29.1160   42.1690 C   0  0  0  0  0  0  0  0  0  0  0  0
   39.9020   32.3980   38.2990 C   0  0  0  0  0  0  0  0  0  0  0  0
   40.7200   33.3580   38.9480 C   0  0  0  0  0  0  0  0  0  0  0  0
   40.5670   33.5500   40.3270 C   0  0  0  0  0  0  0  0  0  0  0  0
   39.6510   32.8130   40.9590 N   0  0  0  0  0  0  0  0  0  0  0  0
   38.8700   31.8970   40.3340 C   0  0  0  0  0  0  0  0  0  0  0  0
   38.9960   31.6940   39.0170 N   0  0  0  0  0  0  0  0  0  0  0  0
   40.0720   32.2090   36.9080 N   0  0  0  0  0  0  0  0  0  0  0  0
   41.4450   33.9380   38.4340 H   0  0  0  0  0  0  0  0  0  0  0  0
   41.1510   34.2600   40.8950 H   0  0  0  0  0  0  0  0  0  0  0  0
   39.3670   32.3090   36.1440 H   0  0  0  0  0  0  0  0  0  0  0  0
   40.9180   31.9370   36.3620 H   0  0  0  0  0  0  0  0  0  0  0  0
  1  2  1  6  0  0  0
  1  3  1  0  0  0  0
  3  4  2  0  0  0  0
  3 14  1  0  0  0  0
  4  5  1  0  0  0  0
  5  6  2  0  0  0  0
  7  6  1  0  0  0  0
  7  8  1  0  0  0  0
  9  8  2  0  0  0  0
  9 10  1  0  0  0  0
 11  9  1  0  0  0  0
 12 11  1  0  0  0  0
 13 14  1  0  0  0  0
 13 11  2  0  0  0  0
 14  7  2  0  0  0  0
 15 16  2  0  0  0  0
 15 20  1  0  0  0  0
 16 17  1  0  0  0  0
 17 23  1  0  0  0  0
 17 18  2  0  0  0  0
 19  1  1  0  0  0  0
 19 18  1  0  0  0  0
 20 19  2  0  0  0  0
 21 15  1  0  0  0  0
 22 16  1  0  0  0  0
 24 21  1  0  0  0  0
 25 21  1  0  0  0  0
M  END
>  <minimizedAffinity>
-5.45864487

$$$$

 OpenBabel03242512283D

 25 27  0  0  1  0  0  0  0  0999 V2000
   37.3340   27.7910   42.6120 C   0  0  1  0  0  3  0  0  0  0  0  0
   36.2620   27.5360   43.3090 O   0  0  0  0  0  1  0  0  0  0  0  0
   36.9080   28.7040   41.5720 C   0  0  0  0  0  0  0  0  0  0  0  0
   36.8620   30.0150   41.8350 N   0  0  0  0  0  0  0  0  0  0  0  0
   36.4690   30.9430   40.9090 C   0  0  0  0  0  3  0  0  0  0  0  0
   36.1010   30.5860   39.6670 N   0  0  0  0  0  0  0  0  0  0  0  0
   36.1110   29.2750   39.3070 C   0  0  0  0  0  0  0  0  0  0  0  0
   35.7180   28.8710   38.0560 C   0  0  0  0  0  3  0  0  0  0  0  0
   35.7060   27.5420   37.7030 C   0  0  0  0  0  0  0  0  0  0  0  0
   35.3910   27.2930   36.7160 H   0  0  0  0  0  0  0  0  0  0  0  0
   36.1070   26.6250   38.6740 C   0  0  0  0  0  0  0  0  0  0  0  0
   36.0890   25.5890   38.3770 H   0  0  0  0  0  0  0  0  0  0  0  0
   36.4910   27.0810   39.9090 C   0  0  0  0  0  3  0  0  0  0  0  0
   36.5180   28.4030   40.2900 C   0  0  0  0  0  0  0  0  0  0  0  0
   39.7070   25.1300   43.1940 C   0  0  0  0  0  0  0  0  0  0  0  0
   40.8930   25.8030   43.5830 C   0  0  0  0  0  0  0  0  0  0  0  0
   40.8820   27.2020   43.6530 C   0  0  0  0  0  0  0  0  0  0  0  0
   39.7460   27.8310   43.3450 N   0  0  0  0  0  0  0  0  0  0  0  0
   38.6140   27.1830   42.9720 C   0  0  0  0  0  0  0  0  0  0  0  0
   38.5970   25.8470   42.8970 N   0  0  0  0  0  0  0  0  0  0  0  0
   39.7310   23.7180   43.1350 N   0  0  0  0  0  0  0  0  0  0  0  0
   41.7910   25.2920   43.8260 H   0  0  0  0  0  0  0  0  0  0  0  0
   41.7430   27.7880   43.9410 H   0  0  0  0  0  0  0  0  0  0  0  0
   39.5270   23.0950   42.3230 H   0  0  0  0  0  0  0  0  0  0  0  0
   39.9500   23.0150   43.8730 H   0  0  0  0  0  0  0  0  0  0  0  0
  1 19  1  0  0  0  0
  1  2  1  1  0  0  0
  3  4  1  0  0  0  0
  3  1  1  0  0  0  0
  5  4  2  0  0  0  0
  6  5  1  0  0  0  0
  7  6  2  0  0  0  0
  7 14  1  0  0  0  0
  8  7  1  0  0  0  0
  9  8  2  0  0  0  0
  9 11  1  0  0  0  0
 10  9  1  0  0  0  0
 11 13  2  0  0  0  0
 12 11  1  0  0  0  0
 13 14  1  0  0  0  0
 14  3  2  0  0  0  0
 15 16  1  0  0  0  0
 16 17  2  0  0  0  0
 16 22  1  0  0  0  0
 17 23  1  0  0  0  0
 18 17  1  0  0  0  0
 19 18  2  0  0  0  0
 20 19  1  0  0  0  0
 20 15  2  0  0  0  0
 21 15  1  0  0  0  0
 21 25  1  0  0  0  0
 24 21  1  0  0  0  0
M  END
>  <minimizedAffinity>
-5.40305758

$$$$

 OpenBabel03242512283D

 25 27  0  0  1  0  0  0  0  0999 V2000
   35.9680   29.2560   40.0370 C   0  0  1  0  0  3  0  0  0  0  0  0
   34.6730   29.1480   40.1410 O   0  0  0  0  0  1  0  0  0  0  0  0
   36.4870   27.9290   40.2910 C   0  0  0  0  0  0  0  0  0  0  0  0
   36.1940   26.9410   39.4390 N   0  0  0  0  0  0  0  0  0  0  0  0
   36.6430   25.6580   39.6090 C   0  0  0  0  0  3  0  0  0  0  0  0
   37.4130   25.3140   40.6550 N   0  0  0  0  0  0  0  0  0  0  0  0
   37.7610   26.2510   41.5770 C   0  0  0  0  0  0  0  0  0  0  0  0
   38.5250   25.9310   42.6710 C   0  0  0  0  0  3  0  0  0  0  0  0
   38.8540   26.8750   43.6150 C   0  0  0  0  0  0  0  0  0  0  0  0
   39.4510   26.5640   44.4420 H   0  0  0  0  0  0  0  0  0  0  0  0
   38.3740   28.1680   43.4120 C   0  0  0  0  0  0  0  0  0  0  0  0
   38.6420   28.8920   44.1650 H   0  0  0  0  0  0  0  0  0  0  0  0
   37.6150   28.4350   42.3020 C   0  0  0  0  0  3  0  0  0  0  0  0
   37.2730   27.5150   41.3390 C   0  0  0  0  0  0  0  0  0  0  0  0
   37.4970   31.7850   37.9590 C   0  0  0  0  0  0  0  0  0  0  0  0
   37.7320   32.8670   38.8460 C   0  0  0  0  0  0  0  0  0  0  0  0
   37.3630   32.7280   40.1900 C   0  0  0  0  0  0  0  0  0  0  0  0
   36.8040   31.5760   40.5650 N   0  0  0  0  0  0  0  0  0  0  0  0
   36.5790   30.5440   39.7140 C   0  0  0  0  0  0  0  0  0  0  0  0
   36.9230   30.6500   38.4240 N   0  0  0  0  0  0  0  0  0  0  0  0
   37.8810   31.9360   36.6070 N   0  0  0  0  0  0  0  0  0  0  0  0
   38.1780   33.7790   38.5360 H   0  0  0  0  0  0  0  0  0  0  0  0
   37.5090   33.5040   40.9280 H   0  0  0  0  0  0  0  0  0  0  0  0
   37.2920   31.8650   35.7490 H   0  0  0  0  0  0  0  0  0  0  0  0
   38.8140   32.1450   36.1900 H   0  0  0  0  0  0  0  0  0  0  0  0
  1  2  1  6  0  0  0
  1  3  1  0  0  0  0
  3 14  1  0  0  0  0
  4  5  1  0  0  0  0
  4  3  2  0  0  0  0
  5  6  2  0  0  0  0
  6  7  1  0  0  0  0
  7  8  1  0  0  0  0
  8  9  2  0  0  0  0
  9 10  1  0  0  0  0
 11  9  1  0  0  0  0
 11 12  1  0  0  0  0
 13 11  2  0  0  0  0
 14  7  2  0  0  0  0
 14 13  1  0  0  0  0
 15 20  2  0  0  0  0
 15 16  1  0  0  0  0
 16 17  2  0  0  0  0
 17 18  1  0  0  0  0
 17 23  1  0  0  0  0
 19  1  1  0  0  0  0
 19 18  2  0  0  0  0
 20 19  1  0  0  0  0
 21 15  1  0  0  0  0
 22 16  1  0  0  0  0
 24 21  1  0  0  0  0
 25 21  1  0  0  0  0
M  END
>  <minimizedAffinity>
-5.37950563

$$$$

 OpenBabel03242512283D

 25 27  0  0  1  0  0  0  0  0999 V2000
   37.8630   31.2500   40.2490 C   0  0  1  0  0  3  0  0  0  0  0  0
   36.8030   31.9780   40.4640 O   0  0  0  0  0  1  0  0  0  0  0  0
   37.3930   29.8800   40.2430 C   0  0  0  0  0  0  0  0  0  0  0  0
   36.9330   29.3550   39.1020 N   0  0  0  0  0  0  0  0  0  0  0  0
   36.4690   28.0700   39.0120 C   0  0  0  0  0  3  0  0  0  0  0  0
   36.4500   27.2520   40.0780 N   0  0  0  0  0  0  0  0  0  0  0  0
   36.8950   27.6980   41.2820 C   0  0  0  0  0  0  0  0  0  0  0  0
   36.8670   26.8990   42.3980 C   0  0  0  0  0  3  0  0  0  0  0  0
   37.2950   27.3610   43.6200 C   0  0  0  0  0  0  0  0  0  0  0  0
   37.2490   26.6920   44.4490 H   0  0  0  0  0  0  0  0  0  0  0  0
   37.7550   28.6760   43.6750 C   0  0  0  0  0  0  0  0  0  0  0  0
   38.0840   29.0190   44.6430 H   0  0  0  0  0  0  0  0  0  0  0  0
   37.7620   29.4320   42.5300 C   0  0  0  0  0  3  0  0  0  0  0  0
   37.3450   28.9980   41.2940 C   0  0  0  0  0  0  0  0  0  0  0  0
   40.6450   32.6840   38.4470 C   0  0  0  0  0  0  0  0  0  0  0  0
   41.5590   33.0630   39.4630 C   0  0  0  0  0  0  0  0  0  0  0  0
   41.2180   32.8190   40.8000 C   0  0  0  0  0  0  0  0  0  0  0  0
   40.0410   32.2390   41.0450 N   0  0  0  0  0  0  0  0  0  0  0  0
   39.1700   31.8790   40.0700 C   0  0  0  0  0  0  0  0  0  0  0  0
   39.4710   32.1010   38.7850 N   0  0  0  0  0  0  0  0  0  0  0  0
   41.0050   32.9290   37.1010 N   0  0  0  0  0  0  0  0  0  0  0  0
   42.4920   33.5230   39.2560 H   0  0  0  0  0  0  0  0  0  0  0  0
   41.8580   33.0770   41.6310 H   0  0  0  0  0  0  0  0  0  0  0  0
   40.5010   33.4940   36.3830 H   0  0  0  0  0  0  0  0  0  0  0  0
   41.8310   32.6050   36.5540 H   0  0  0  0  0  0  0  0  0  0  0  0
  1  2  1  6  0  0  0
  3  1  1  0  0  0  0
  3 14  1  0  0  0  0
  4  3  2  0  0  0  0
  5  4  1  0  0  0  0
  5  6  2  0  0  0  0
  6  7  1  0  0  0  0
  7 14  2  0  0  0  0
  7  8  1  0  0  0  0
  8  9  2  0  0  0  0
  9 11  1  0  0  0  0
  9 10  1  0  0  0  0
 11 12  1  0  0  0  0
 13 11  2  0  0  0  0
 14 13  1  0  0  0  0
 15 20  2  0  0  0  0
 15 16  1  0  0  0  0
 16 17  2  0  0  0  0
 17 18  1  0  0  0  0
 17 23  1  0  0  0  0
 19  1  1  0  0  0  0
 19 18  2  0  0  0  0
 20 19  1  0  0  0  0
 21 15  1  0  0  0  0
 22 16  1  0  0  0  0
 24 21  1  0  0  0  0
 25 21  1  0  0  0  0
M  END
>  <minimizedAffinity>
-5.3171649

$$$$

 OpenBabel03242512283D

 25 27  0  0  1  0  0  0  0  0999 V2000
   37.9360   28.3440   42.6050 C   0  0  1  0  0  3  0  0  0  0  0  0
   37.2700   28.6620   43.6800 O   0  0  0  0  0  1  0  0  0  0  0  0
   38.5640   29.5710   42.1640 C   0  0  0  0  0  0  0  0  0  0  0  0
   39.6850   29.9830   42.7670 N   0  0  0  0  0  0  0  0  0  0  0  0
   40.3390   31.1320   42.4120 C   0  0  0  0  0  3  0  0  0  0  0  0
   39.8850   31.9240   41.4250 N   0  0  0  0  0  0  0  0  0  0  0  0
   38.7500   31.5900   40.7560 C   0  0  0  0  0  0  0  0  0  0  0  0
   38.2440   32.3860   39.7590 C   0  0  0  0  0  3  0  0  0  0  0  0
   37.0810   32.0590   39.1020 C   0  0  0  0  0  0  0  0  0  0  0  0
   36.7400   32.7180   38.3370 H   0  0  0  0  0  0  0  0  0  0  0  0
   36.4400   30.8840   39.4940 C   0  0  0  0  0  0  0  0  0  0  0  0
   35.5310   30.6470   38.9670 H   0  0  0  0  0  0  0  0  0  0  0  0
   36.9890   30.1240   40.4950 C   0  0  0  0  0  3  0  0  0  0  0  0
   38.1500   30.4230   41.1690 C   0  0  0  0  0  0  0  0  0  0  0  0
   38.8440   24.8500   42.4780 C   0  0  0  0  0  0  0  0  0  0  0  0
   38.0890   24.3350   41.3940 C   0  0  0  0  0  0  0  0  0  0  0  0
   37.2510   25.2030   40.6840 C   0  0  0  0  0  0  0  0  0  0  0  0
   37.2070   26.4800   41.0720 N   0  0  0  0  0  0  0  0  0  0  0  0
   37.9300   26.9680   42.1100 C   0  0  0  0  0  0  0  0  0  0  0  0
   38.7390   26.1600   42.8050 N   0  0  0  0  0  0  0  0  0  0  0  0
   39.6920   23.9630   43.1810 N   0  0  0  0  0  0  0  0  0  0  0  0
   38.1320   23.3170   41.0950 H   0  0  0  0  0  0  0  0  0  0  0  0
   36.6440   24.8890   39.8460 H   0  0  0  0  0  0  0  0  0  0  0  0
   39.6890   23.7240   44.1970 H   0  0  0  0  0  0  0  0  0  0  0  0
   40.4820   23.3730   42.8420 H   0  0  0  0  0  0  0  0  0  0  0  0
  1  2  1  1  0  0  0
  3  1  1  0  0  0  0
  3  4  1  0  0  0  0
  5  4  2  0  0  0  0
  6  5  1  0  0  0  0
  7 14  1  0  0  0  0
  7  6  2  0  0  0  0
  8  7  1  0  0  0  0
  9 11  1  0  0  0  0
  9  8  2  0  0  0  0
 10  9  1  0  0  0  0
 11 13  2  0  0  0  0
 12 11  1  0  0  0  0
 13 14  1  0  0  0  0
 14  3  2  0  0  0  0
 15 20  1  0  0  0  0
 15 21  1  0  0  0  0
 16 15  2  0  0  0  0
 17 18  2  0  0  0  0
 17 16  1  0  0  0  0
 18 19  1  0  0  0  0
 19  1  1  0  0  0  0
 19 20  2  0  0  0  0
 21 24  1  0  0  0  0
 22 16  1  0  0  0  0
 23 17  1  0  0  0  0
 25 21  1  0  0  0  0
M  END
>  <minimizedAffinity>
-5.12369728

$$$$
