
 OpenBabel03242514573D

 28 30  0  0  0  0  0  0  0  0999 V2000
   41.9360   35.4610   41.6760 C   0  0  0  0  0  0  0  0  0  0  0  0
   41.6970   35.6890   42.7360 H   0  0  0  0  0  0  0  0  0  0  0  0
   41.9720   36.4590   41.1940 H   0  0  0  0  0  0  0  0  0  0  0  0
   40.8080   34.6320   41.1730 C   0  0  0  0  0  0  0  0  0  0  0  0
   40.1760   33.7760   41.9970 N   0  0  0  0  0  0  0  0  0  0  0  0
   39.1760   33.0140   41.5260 C   0  0  0  0  0  3  0  0  0  0  0  0
   38.7570   33.0640   40.2260 N   0  0  0  0  0  0  0  0  0  0  0  0
   39.3840   33.9170   39.4010 C   0  0  0  0  0  0  0  0  0  0  0  0
   39.0270   34.0360   38.0960 C   0  0  0  0  0  3  0  0  0  0  0  0
   39.5630   34.8590   37.1460 C   0  0  0  0  0  0  0  0  0  0  0  0
   39.2230   34.8960   36.1230 H   0  0  0  0  0  0  0  0  0  0  0  0
   40.6060   35.6570   37.6280 C   0  0  0  0  0  0  0  0  0  0  0  0
   41.0810   36.3440   36.9100 H   0  0  0  0  0  0  0  0  0  0  0  0
   41.0280   35.5920   38.9540 C   0  0  0  0  0  3  0  0  0  0  0  0
   40.4130   34.7180   39.8330 C   0  0  0  0  0  0  0  0  0  0  0  0
   43.2340   34.7430   41.6800 C   0  0  0  0  0  0  0  0  0  0  0  0
   43.6380   34.6560   40.6590 H   0  0  0  0  0  0  0  0  0  0  0  0
   43.0460   33.6690   41.9870 H   0  0  0  0  0  0  0  0  0  0  0  0
   44.4820   35.4100   42.7680 S   0  0  0  0  0  0  0  0  0  0  0  0
   45.0870   34.2370   43.9860 C   0  0  0  0  0  0  0  0  0  0  0  0
   45.4650   32.9880   43.4880 C   0  0  0  0  0  0  0  0  0  0  0  0
   45.9410   32.0440   44.3990 C   0  0  0  0  0  0  0  0  0  0  0  0
   46.0110   32.3970   45.7210 N   0  0  0  0  0  0  0  0  0  0  0  0
   45.6390   33.6090   46.1730 C   0  0  0  0  0  0  0  0  0  0  0  0
   45.1740   34.5410   45.3140 N   0  0  0  0  0  0  0  0  0  0  0  0
   45.3900   32.7580   42.4300 H   0  0  0  0  0  0  0  0  0  0  0  0
   46.2510   31.0580   44.0820 H   0  0  0  0  0  0  0  0  0  0  0  0
   45.7250   33.8130   47.2380 H   0  0  0  0  0  0  0  0  0  0  0  0
  1 16  1  0  0  0  0
  1  2  1  0  0  0  0
  3  1  1  0  0  0  0
  4  1  1  0  0  0  0
  4  5  1  0  0  0  0
  6  5  2  0  0  0  0
  7  6  1  0  0  0  0
  8 15  1  0  0  0  0
  8  7  2  0  0  0  0
  9  8  1  0  0  0  0
 10 12  1  0  0  0  0
 10  9  2  0  0  0  0
 11 10  1  0  0  0  0
 12 14  2  0  0  0  0
 13 12  1  0  0  0  0
 14 15  1  0  0  0  0
 15  4  2  0  0  0  0
 16 18  1  0  0  0  0
 16 19  1  0  0  0  0
 17 16  1  0  0  0  0
 19 20  1  0  0  0  0
 20 25  1  0  0  0  0
 21 20  2  0  0  0  0
 21 22  1  0  0  0  0
 22 23  2  0  0  0  0
 23 24  1  0  0  0  0
 24 28  1  0  0  0  0
 25 24  2  0  0  0  0
 26 21  1  0  0  0  0
 27 22  1  0  0  0  0
M  END
>  <minimizedAffinity>
-4.92293835

>  <minimizedRMSD>
2.29327488

$$$$
