
 OpenBabel03252507463D

 40 43  0  0  0  0  0  0  0  0999 V2000
   48.4480   33.9510   41.5010 C   0  0  0  0  0  0  0  0  0  0  0  0
   49.0030   32.7070   41.2150 C   0  0  0  0  0  0  0  0  0  0  0  0
   50.2840   32.3820   41.6280 C   0  0  0  0  0  0  0  0  0  0  0  0
   50.9670   33.3550   42.3330 N   0  0  0  0  0  0  0  0  0  0  0  0
   50.3940   34.5500   42.5920 C   0  0  0  0  0  0  0  0  0  0  0  0
   49.1660   34.8290   42.1820 N   0  0  0  0  0  0  0  0  0  0  0  0
   50.7430   31.4230   41.4210 H   0  0  0  0  0  0  0  0  0  0  0  0
   51.0050   35.2500   43.1510 H   0  0  0  0  0  0  0  0  0  0  0  0
   47.0800   34.1790   41.0090 C   0  0  0  0  0  0  0  0  0  0  0  0
   47.1360   34.6090   39.9790 H   0  0  0  0  0  0  0  0  0  0  0  0
   46.5120   33.2350   40.9010 H   0  0  0  0  0  0  0  0  0  0  0  0
   46.2660   35.0520   41.9170 C   0  0  0  0  0  0  0  0  0  0  0  0
   46.4550   34.7180   42.9720 H   0  0  0  0  0  0  0  0  0  0  0  0
   46.6120   36.1090   41.8720 H   0  0  0  0  0  0  0  0  0  0  0  0
   44.7950   34.9500   41.6810 C   0  0  0  0  0  0  0  0  0  0  0  0
   43.8950   35.3610   42.7040 C   0  0  0  0  0  0  0  0  0  0  0  0
   42.2440   35.0470   41.9510 S   0  0  0  0  0  0  0  0  0  0  0  0
   43.0690   34.4090   40.3670 C   0  0  0  0  0  0  0  0  0  0  0  0
   44.1810   34.5150   40.6170 N   0  0  0  0  0  0  0  0  0  0  0  0
   44.1450   35.7580   43.6820 H   0  0  0  0  0  0  0  0  0  0  0  0
   42.3430   33.9590   39.2670 O   0  0  0  0  0  0  0  0  0  0  0  0
   40.3670   34.4340   37.5670 O   0  0  0  0  0  0  0  0  0  0  0  0
   41.4630   35.1120   38.3830 P   0  0  0  0  0  0  0  0  0  0  0  0
   40.7640   36.2020   39.4690 O   0  0  0  0  0  0  0  0  0  0  0  0
   39.9000   35.8560   39.7900 H   0  0  0  0  0  0  0  0  0  0  0  0
   42.5280   35.9830   37.3730 O   0  0  0  0  0  0  0  0  0  0  0  0
   42.0640   36.8030   37.1140 H   0  0  0  0  0  0  0  0  0  0  0  0
   48.0690   31.4790   40.2930 S   0  0  0  0  0  0  0  0  0  0  0  0
   48.4530   31.5810   38.5510 C   0  0  0  0  0  0  0  0  0  0  0  0
   49.7160   31.3740   38.0950 N   0  0  0  0  0  0  0  0  0  0  0  0
   49.9720   31.4580   36.7780 C   0  0  0  0  0  3  0  0  0  0  0  0
   48.9850   31.7470   35.9080 N   0  0  0  0  0  0  0  0  0  0  0  0
   47.7170   31.9580   36.3350 C   0  0  0  0  0  0  0  0  0  0  0  0
   46.7790   32.2470   35.3630 C   0  0  0  0  0  3  0  0  0  0  0  0
   45.4770   32.4690   35.7440 C   0  0  0  0  0  0  0  0  0  0  0  0
   44.7730   32.6930   34.9510 H   0  0  0  0  0  0  0  0  0  0  0  0
   45.1580   32.3940   37.0960 C   0  0  0  0  0  0  0  0  0  0  0  0
   44.1260   32.5750   37.3520 H   0  0  0  0  0  0  0  0  0  0  0  0
   46.1240   32.1010   38.0450 C   0  0  0  0  0  3  0  0  0  0  0  0
   47.4360   31.8750   37.6830 C   0  0  0  0  0  0  0  0  0  0  0  0
  1  6  1  0  0  0  0
  2  1  2  0  0  0  0
  2  3  1  0  0  0  0
  3  4  2  0  0  0  0
  4  5  1  0  0  0  0
  5  8  1  0  0  0  0
  6  5  2  0  0  0  0
  7  3  1  0  0  0  0
  9  1  1  0  0  0  0
  9 12  1  0  0  0  0
 10  9  1  0  0  0  0
 11  9  1  0  0  0  0
 12 13  1  0  0  0  0
 14 12  1  0  0  0  0
 15 12  1  0  0  0  0
 15 16  2  0  0  0  0
 16 20  1  0  0  0  0
 17 16  1  0  0  0  0
 18 19  2  0  0  0  0
 18 17  1  0  0  0  0
 19 15  1  0  0  0  0
 21 18  1  0  0  0  0
 22 23  2  0  0  0  0
 23 21  1  0  0  0  0
 23 24  1  0  0  0  0
 24 25  1  0  0  0  0
 26 23  1  0  0  0  0
 27 26  1  0  0  0  0
 28  2  1  0  0  0  0
 29 28  1  0  0  0  0
 30 29  1  0  0  0  0
 31 30  2  0  0  0  0
 32 33  2  0  0  0  0
 32 31  1  0  0  0  0
 33 40  1  0  0  0  0
 34 35  2  0  0  0  0
 34 33  1  0  0  0  0
 35 37  1  0  0  0  0
 36 35  1  0  0  0  0
 37 38  1  0  0  0  0
 37 39  2  0  0  0  0
 40 39  1  0  0  0  0
 40 29  2  0  0  0  0
M  END
>  <minimizedAffinity>
-5.20765114

>  <minimizedRMSD>
0.620883942

$$$$
