
 OpenBabel03252508033D

 45 49  0  0  1  0  0  0  0  0999 V2000
   42.0090   33.3000   41.1060 C   0  0  0  0  0  0  0  0  0  0  0  0
   42.7750   34.4090   41.3160 C   0  0  0  0  0  0  0  0  0  0  0  0
   42.1430   35.6700   41.3000 C   0  0  0  0  0  0  0  0  0  0  0  0
   40.7900   35.8230   41.0820 C   0  0  0  0  0  0  0  0  0  0  0  0
   40.0300   34.7070   40.8730 C   0  0  0  0  0  0  0  0  0  0  0  0
   40.6380   33.4880   40.8880 C   0  0  0  0  0  0  0  0  0  0  0  0
   42.6620   36.6010   41.4470 H   0  0  0  0  0  0  0  0  0  0  0  0
   40.3110   36.7820   41.0710 H   0  0  0  0  0  0  0  0  0  0  0  0
   38.9840   34.7490   40.6990 H   0  0  0  0  0  0  0  0  0  0  0  0
   40.0240   32.5890   40.7180 H   0  0  0  0  0  0  0  0  0  0  0  0
   42.6470   31.7370   41.1450 S   0  0  0  0  0  0  0  0  0  0  0  0
   41.5430   30.9030   40.5040 O   0  0  0  0  0  0  0  0  0  0  0  0
   42.7750   31.3150   42.5910 O   0  0  0  0  0  0  0  0  0  0  0  0
   43.7770   30.9760   40.2080 C   0  0  0  0  0  0  0  0  0  0  0  0
   44.2230   31.3230   38.9790 N   0  0  0  0  0  0  0  0  0  0  0  0
   44.9850   30.7040   38.1220 C   0  0  0  0  0  3  0  0  0  0  0  0
   45.4020   29.5110   38.5180 N   0  0  0  0  0  0  0  0  0  0  0  0
   45.0640   28.9990   39.7030 C   0  0  0  0  0  0  0  0  0  0  0  0
   45.6000   27.7290   39.9230 C   0  0  0  0  0  3  0  0  0  0  0  0
   45.2920   27.1270   41.1250 C   0  0  0  0  0  0  0  0  0  0  0  0
   45.6760   26.1450   41.3510 H   0  0  0  0  0  0  0  0  0  0  0  0
   44.4920   27.7890   42.0330 C   0  0  0  0  0  0  0  0  0  0  0  0
   44.2710   27.2940   42.9660 H   0  0  0  0  0  0  0  0  0  0  0  0
   44.0160   29.0380   41.7160 C   0  0  0  0  0  3  0  0  0  0  0  0
   44.2610   29.7190   40.5480 C   0  0  0  0  0  0  0  0  0  0  0  0
   44.2070   34.3520   41.5370 C   0  0  0  0  0  0  0  0  0  0  0  0
   45.0710   34.2370   40.6000 O   0  0  0  0  0  0  0  0  0  0  0  0
   44.5710   34.4400   42.9210 C   0  0  0  0  0  0  0  0  0  0  0  0
   44.3030   35.6980   43.5390 C   0  0  0  0  0  0  0  0  0  0  0  0
   44.6420   35.8090   44.8860 C   0  0  0  0  0  0  0  0  0  0  0  0
   45.1920   34.7330   45.5110 N   0  0  0  0  0  0  0  0  0  0  0  0
   45.4190   33.5680   44.8640 C   0  0  0  0  0  0  0  0  0  0  0  0
   45.1150   33.4420   43.6160 N   0  0  0  0  0  0  0  0  0  0  0  0
   43.8830   36.5870   43.1400 H   0  0  0  0  0  0  0  0  0  0  0  0
   44.4960   36.7020   45.4820 H   0  0  0  0  0  0  0  0  0  0  0  0
   46.0150   32.4410   45.6260 C   0  0  1  0  0  0  0  0  0  0  0  0
   46.9700   32.7520   46.7610 C   0  0  0  0  0  0  0  0  0  0  0  0
   45.5680   32.3120   47.0200 C   0  0  1  0  0  0  0  0  0  0  0  0
   46.2050   31.5300   45.0550 H   0  0  0  0  0  0  0  0  0  0  0  0
   47.7500   31.9810   46.9500 H   0  0  0  0  0  0  0  0  0  0  0  0
   47.2730   33.8080   46.8420 H   0  0  0  0  0  0  0  0  0  0  0  0
   45.3940   31.3040   47.4400 H   0  0  0  0  0  0  0  0  0  0  0  0
   44.7730   33.3780   47.6230 N   0  0  0  0  0  0  0  0  0  0  0  0
   44.2020   32.9850   48.4300 H   0  0  0  0  0  0  0  0  0  0  0  0
   45.3230   34.1640   47.9860 H   0  0  0  0  0  0  0  0  0  0  0  0
  1 11  1  0  0  0  0
  1  2  1  0  0  0  0
  2 26  1  0  0  0  0
  3  2  2  0  0  0  0
  3  7  1  0  0  0  0
  4  3  1  0  0  0  0
  5  6  1  0  0  0  0
  5  4  2  0  0  0  0
  6  1  2  0  0  0  0
  8  4  1  0  0  0  0
  9  5  1  0  0  0  0
 10  6  1  0  0  0  0
 11 13  2  0  0  0  0
 12 11  2  0  0  0  0
 14 25  1  0  0  0  0
 14 11  1  0  0  0  0
 15 14  2  0  0  0  0
 16 17  2  0  0  0  0
 16 15  1  0  0  0  0
 17 18  1  0  0  0  0
 18 19  2  0  0  0  0
 18 25  1  0  0  0  0
 19 20  1  0  0  0  0
 20 21  1  0  0  0  0
 20 22  2  0  0  0  0
 22 23  1  0  0  0  0
 24 22  1  0  0  0  0
 25 24  2  0  0  0  0
 26 28  1  0  0  0  0
 27 26  2  0  0  0  0
 28 29  2  0  0  0  0
 28 33  1  0  0  0  0
 29 30  1  0  0  0  0
 30 35  1  0  0  0  0
 30 31  2  0  0  0  0
 32 31  1  0  0  0  0
 32 36  1  0  0  0  0
 33 32  2  0  0  0  0
 34 29  1  0  0  0  0
 36 39  1  6  0  0  0
 36 37  1  0  0  0  0
 36 38  1  0  0  0  0
 37 41  1  0  0  0  0
 37 40  1  0  0  0  0
 37 38  1  0  0  0  0
 38 42  1  1  0  0  0
 38 43  1  0  0  0  0
 43 45  1  0  0  0  0
 43 44  1  0  0  0  0
M  END
>  <minimizedAffinity>
-5.74619865

>  <minimizedRMSD>
1.38289487

$$$$
