
 OpenBabel03252506213D

 38 41  0  0  0  0  0  0  0  0999 V2000
   45.4990   35.2910   42.5140 C   0  0  0  0  0  0  0  0  0  0  0  0
   44.6420   34.8540   41.4880 C   0  0  0  0  0  0  0  0  0  0  0  0
   45.1020   33.8170   40.6640 C   0  0  0  0  0  0  0  0  0  0  0  0
   46.3350   33.2920   40.8900 N   0  0  0  0  0  0  0  0  0  0  0  0
   47.1230   33.7500   41.8940 C   0  0  0  0  0  0  0  0  0  0  0  0
   46.7010   34.7390   42.6900 N   0  0  0  0  0  0  0  0  0  0  0  0
   43.6790   35.2570   41.3050 H   0  0  0  0  0  0  0  0  0  0  0  0
   44.4980   33.4280   39.8540 H   0  0  0  0  0  0  0  0  0  0  0  0
   49.4660   35.6660   41.9170 Cl  0  0  0  0  0  0  0  0  0  0  0  0
   49.5570   33.9450   42.0870 C   0  0  0  0  0  0  0  0  0  0  0  0
   48.4510   33.1210   42.0670 C   0  0  0  0  0  0  0  0  0  0  0  0
   48.4890   31.7550   42.1970 C   0  0  0  0  0  0  0  0  0  0  0  0
   49.7330   31.2060   42.3580 C   0  0  0  0  0  0  0  0  0  0  0  0
   50.9050   31.9100   42.3940 C   0  0  0  0  0  0  0  0  0  0  0  0
   50.7690   33.2940   42.2530 C   0  0  0  0  0  0  0  0  0  0  0  0
   47.5980   31.1460   42.1760 H   0  0  0  0  0  0  0  0  0  0  0  0
   49.8500   30.1180   42.4690 H   0  0  0  0  0  0  0  0  0  0  0  0
   51.8610   31.4430   42.5210 H   0  0  0  0  0  0  0  0  0  0  0  0
   51.6670   33.8920   42.2770 H   0  0  0  0  0  0  0  0  0  0  0  0
   45.0340   36.3770   43.3880 C   0  0  0  0  0  3  0  0  0  0  0  0
   45.6520   37.5230   43.3500 C   0  0  0  0  0  3  0  0  0  0  0  0
   45.2130   38.6460   44.2120 C   0  0  0  0  0  0  0  0  0  0  0  0
   44.2670   38.4350   44.7460 H   0  0  0  0  0  0  0  0  0  0  0  0
   46.0320   38.7910   44.9760 H   0  0  0  0  0  0  0  0  0  0  0  0
   45.1790   39.8580   43.4210 N   0  0  0  0  0  0  0  0  0  0  0  0
   45.3210   39.7810   42.3990 H   0  0  0  0  0  0  0  0  0  0  0  0
   44.9520   41.0740   44.1220 C   0  0  0  0  0  0  0  0  0  0  0  0
   44.8980   42.2570   43.4940 N   0  0  0  0  0  0  0  0  0  0  0  0
   44.6880   43.4380   44.0710 C   0  0  0  0  0  3  0  0  0  0  0  0
   44.5110   43.4680   45.3900 N   0  0  0  0  0  0  0  0  0  0  0  0
   44.5450   42.3310   46.1350 C   0  0  0  0  0  0  0  0  0  0  0  0
   44.3540   42.4390   47.4970 C   0  0  0  0  0  3  0  0  0  0  0  0
   44.4020   41.2460   48.1860 C   0  0  0  0  0  0  0  0  0  0  0  0
   44.2560   41.2940   49.2650 H   0  0  0  0  0  0  0  0  0  0  0  0
   44.6170   40.0130   47.6200 C   0  0  0  0  0  0  0  0  0  0  0  0
   44.6450   39.0990   48.2090 H   0  0  0  0  0  0  0  0  0  0  0  0
   44.7980   39.9950   46.2450 C   0  0  0  0  0  3  0  0  0  0  0  0
   44.7660   41.1360   45.4850 C   0  0  0  0  0  0  0  0  0  0  0  0
  1  6  1  0  0  0  0
  1 20  1  0  0  0  0
  2  1  2  0  0  0  0
  3  4  2  0  0  0  0
  3  2  1  0  0  0  0
  4  5  1  0  0  0  0
  5 11  1  0  0  0  0
  5  6  2  0  0  0  0
  7  2  1  0  0  0  0
  8  3  1  0  0  0  0
  9 10  1  0  0  0  0
 10 15  1  0  0  0  0
 11 10  2  0  0  0  0
 11 12  1  0  0  0  0
 12 13  2  0  0  0  0
 13 14  1  0  0  0  0
 13 17  1  0  0  0  0
 14 18  1  0  0  0  0
 15 19  1  0  0  0  0
 15 14  2  0  0  0  0
 16 12  1  0  0  0  0
 21 20  2  0  0  0  0
 21 22  1  0  0  0  0
 22 23  1  0  0  0  0
 22 24  1  0  0  0  0
 25 27  1  0  0  0  0
 25 22  1  0  0  0  0
 26 25  1  0  0  0  0
 27 38  1  0  0  0  0
 28 29  1  0  0  0  0
 28 27  2  0  0  0  0
 29 30  2  0  0  0  0
 30 31  1  0  0  0  0
 31 32  1  0  0  0  0
 32 33  2  0  0  0  0
 33 34  1  0  0  0  0
 35 33  1  0  0  0  0
 35 36  1  0  0  0  0
 37 35  2  0  0  0  0
 38 31  2  0  0  0  0
 38 37  1  0  0  0  0
M  END
>  <minimizedAffinity>
0.398676366

>  <minimizedRMSD>
1.09330797

$$$$
