
 OpenBabel03252506133D

 39 42  0  0  0  0  0  0  0  0999 V2000
   45.2970   33.3320   41.1410 F   0  0  0  0  0  0  0  0  0  0  0  0
   46.4510   33.9940   41.0080 C   0  0  0  0  0  0  0  0  0  0  0  0
   46.8910   34.7830   42.0500 C   0  0  0  0  0  0  0  0  0  0  0  0
   48.0860   35.5060   41.9950 C   0  0  0  0  0  0  0  0  0  0  0  0
   48.8760   35.4360   40.8460 C   0  0  0  0  0  0  0  0  0  0  0  0
   48.3900   34.6280   39.8280 C   0  0  0  0  0  0  0  0  0  0  0  0
   47.2310   33.9190   39.8660 C   0  0  0  0  0  0  0  0  0  0  0  0
   48.3710   36.1130   42.8620 H   0  0  0  0  0  0  0  0  0  0  0  0
   49.7690   36.0080   40.8700 H   0  0  0  0  0  0  0  0  0  0  0  0
   49.1030   34.6620   39.0090 H   0  0  0  0  0  0  0  0  0  0  0  0
   45.4930   33.9920   45.3480 C   0  0  0  0  0  0  0  0  0  0  0  0
   44.6380   35.0940   45.5710 C   0  0  0  0  0  0  0  0  0  0  0  0
   44.5470   36.1100   44.5810 C   0  0  0  0  0  0  0  0  0  0  0  0
   45.3090   35.9440   43.4590 N   0  0  0  0  0  0  0  0  0  0  0  0
   46.1060   34.8900   43.2800 C   0  0  0  0  0  0  0  0  0  0  0  0
   46.1940   33.9280   44.2160 N   0  0  0  0  0  0  0  0  0  0  0  0
   44.0600   35.1730   46.4770 H   0  0  0  0  0  0  0  0  0  0  0  0
   43.9010   36.9650   44.7270 H   0  0  0  0  0  0  0  0  0  0  0  0
   45.5670   32.9980   46.3450 N   0  0  0  0  0  0  0  0  0  0  0  0
   45.0340   32.1700   45.9920 H   0  0  0  0  0  0  0  0  0  0  0  0
   46.0210   32.9630   47.2790 H   0  0  0  0  0  0  0  0  0  0  0  0
   46.8580   33.1600   38.7970 O   0  0  0  0  0  0  0  0  0  0  0  0
   48.0620   34.6760   36.9930 O   0  0  0  0  0  0  0  0  0  0  0  0
   47.2400   33.4330   37.1780 P   0  0  2  0  0  0  0  0  0  0  0  0
   45.7730   33.5530   36.3010 O   0  0  0  0  0  0  0  0  0  0  0  0
   45.9560   33.8350   35.3530 H   0  0  0  0  0  0  0  0  0  0  0  0
   48.0540   32.1300   36.4740 O   0  0  0  0  0  0  0  0  0  0  0  0
   48.1690   31.8530   35.1400 C   0  0  0  0  0  0  0  0  0  0  0  0
   48.1830   32.6890   34.0870 N   0  0  0  0  0  0  0  0  0  0  0  0
   48.3040   32.2590   32.8260 C   0  0  0  0  0  3  0  0  0  0  0  0
   48.4210   30.9310   32.5500 N   0  0  0  0  0  0  0  0  0  0  0  0
   48.4140   30.0420   33.5560 C   0  0  0  0  0  0  0  0  0  0  0  0
   48.5370   28.7100   33.2090 C   0  0  0  0  0  3  0  0  0  0  0  0
   48.5350   27.7660   34.2150 C   0  0  0  0  0  0  0  0  0  0  0  0
   48.6230   26.6980   34.0730 H   0  0  0  0  0  0  0  0  0  0  0  0
   48.4110   28.1760   35.5300 C   0  0  0  0  0  0  0  0  0  0  0  0
   48.4040   27.4690   36.3640 H   0  0  0  0  0  0  0  0  0  0  0  0
   48.2930   29.5160   35.8220 C   0  0  0  0  0  3  0  0  0  0  0  0
   48.2900   30.5040   34.8340 C   0  0  0  0  0  0  0  0  0  0  0  0
  2  1  1  0  0  0  0
  2  3  1  0  0  0  0
  3 15  1  0  0  0  0
  4  3  2  0  0  0  0
  4  8  1  0  0  0  0
  5  9  1  0  0  0  0
  5  4  1  0  0  0  0
  6  7  1  0  0  0  0
  6  5  2  0  0  0  0
  7  2  2  0  0  0  0
 10  6  1  0  0  0  0
 11 12  1  0  0  0  0
 11 19  1  0  0  0  0
 12 17  1  0  0  0  0
 13 18  1  0  0  0  0
 13 12  2  0  0  0  0
 14 13  1  0  0  0  0
 15 14  2  0  0  0  0
 15 16  1  0  0  0  0
 16 11  2  0  0  0  0
 19 21  1  0  0  0  0
 20 19  1  0  0  0  0
 22  7  1  0  0  0  0
 24 23  2  6  0  0  0
 24 22  1  0  0  0  0
 25 24  1  0  0  0  0
 26 25  1  0  0  0  0
 27 24  1  0  0  0  0
 28 27  1  0  0  0  0
 29 28  2  0  0  0  0
 30 29  1  0  0  0  0
 31 30  2  0  0  0  0
 31 32  1  0  0  0  0
 32 39  1  0  0  0  0
 33 32  2  0  0  0  0
 33 34  1  0  0  0  0
 34 36  2  0  0  0  0
 35 34  1  0  0  0  0
 36 38  1  0  0  0  0
 36 37  1  0  0  0  0
 39 28  1  0  0  0  0
 39 38  2  0  0  0  0
M  END
>  <minimizedAffinity>
-6.66623735

>  <minimizedRMSD>
1.00453353

$$$$
