
 OpenBabel03252506463D

 45 49  0  0  1  0  0  0  0  0999 V2000
   49.1910   33.2060   41.2990 N   0  0  1  0  0  0  0  0  0  0  0  0
   50.5440   33.0430   41.7660 C   0  0  0  0  0  0  0  0  0  0  0  0
   51.1720   31.7260   41.4230 C   0  0  0  0  0  0  0  0  0  0  0  0
   50.4290   30.6300   42.1580 C   0  0  0  0  0  0  0  0  0  0  0  0
   48.9650   30.9390   42.2530 C   0  0  0  0  0  0  0  0  0  0  0  0
   48.5860   31.9010   41.1550 C   0  0  2  0  0  0  0  0  0  0  0  0
   50.5850   33.1410   42.8720 H   0  0  0  0  0  0  0  0  0  0  0  0
   51.1230   33.8900   41.3570 H   0  0  0  0  0  0  0  0  0  0  0  0
   52.2290   31.7970   41.8250 H   0  0  0  0  0  0  0  0  0  0  0  0
   51.3060   31.5210   40.3600 H   0  0  0  0  0  0  0  0  0  0  0  0
   50.6510   29.6280   41.7720 H   0  0  0  0  0  0  0  0  0  0  0  0
   50.8160   30.6590   43.2150 H   0  0  0  0  0  0  0  0  0  0  0  0
   48.3150   30.0600   42.1770 H   0  0  0  0  0  0  0  0  0  0  0  0
   48.6970   31.4390   43.2120 H   0  0  0  0  0  0  0  0  0  0  0  0
   47.4900   32.0540   41.2590 H   0  0  0  0  0  0  0  0  0  0  0  0
   48.7890   31.3000   39.8660 N   0  0  0  0  0  0  0  0  0  0  0  0
   49.3230   30.4130   39.9420 H   0  0  0  0  0  0  0  0  0  0  0  0
   48.3780   31.7780   38.6010 C   0  0  0  0  0  0  0  0  0  0  0  0
   47.2970   32.5360   38.3860 N   0  0  0  0  0  0  0  0  0  0  0  0
   46.8680   33.0150   37.2310 C   0  0  0  0  0  3  0  0  0  0  0  0
   47.5790   32.7260   36.1280 N   0  0  0  0  0  0  0  0  0  0  0  0
   48.6850   31.9720   36.2120 C   0  0  0  0  0  0  0  0  0  0  0  0
   49.3880   31.6930   35.0750 C   0  0  0  0  0  3  0  0  0  0  0  0
   50.5330   30.9250   35.0880 C   0  0  0  0  0  0  0  0  0  0  0  0
   51.0320   30.7470   34.1600 H   0  0  0  0  0  0  0  0  0  0  0  0
   50.9370   30.4480   36.3220 C   0  0  0  0  0  0  0  0  0  0  0  0
   51.8370   29.8480   36.3210 H   0  0  0  0  0  0  0  0  0  0  0  0
   50.2140   30.7440   37.4480 C   0  0  0  0  0  3  0  0  0  0  0  0
   49.0740   31.5060   37.4440 C   0  0  0  0  0  0  0  0  0  0  0  0
   47.1500   34.6340   41.9350 C   0  0  1  0  0  0  0  0  0  0  0  0
   48.3460   35.4860   41.7350 C   0  0  0  0  0  0  0  0  0  0  0  0
   48.5090   34.0840   42.1660 C   0  0  2  0  0  0  0  0  0  0  0  0
   46.5680   34.4210   41.0100 H   0  0  0  0  0  0  0  0  0  0  0  0
   48.5830   36.2680   42.4810 H   0  0  0  0  0  0  0  0  0  0  0  0
   48.6630   35.7830   40.7040 H   0  0  0  0  0  0  0  0  0  0  0  0
   48.7380   33.9050   43.2600 H   0  0  0  0  0  0  0  0  0  0  0  0
   45.4930   36.0740   43.1520 C   0  0  0  0  0  0  0  0  0  0  0  0
   46.2700   34.9070   43.0890 C   0  0  0  0  0  0  0  0  0  0  0  0
   46.1700   33.9910   44.1610 C   0  0  0  0  0  0  0  0  0  0  0  0
   45.3350   34.2890   45.1830 N   0  0  0  0  0  0  0  0  0  0  0  0
   44.5980   35.4160   45.2220 C   0  0  0  0  0  0  0  0  0  0  0  0
   44.6700   36.3260   44.2000 N   0  0  0  0  0  0  0  0  0  0  0  0
   45.5710   36.7720   42.3310 H   0  0  0  0  0  0  0  0  0  0  0  0
   46.7550   33.0810   44.1460 H   0  0  0  0  0  0  0  0  0  0  0  0
   43.9740   35.5240   46.1010 H   0  0  0  0  0  0  0  0  0  0  0  0
  1  2  1  1  0  0  0
  1 32  1  0  0  0  0
  2  7  1  0  0  0  0
  3  2  1  0  0  0  0
  3  9  1  0  0  0  0
  3  4  1  0  0  0  0
  4  5  1  0  0  0  0
  4 12  1  0  0  0  0
  5 14  1  0  0  0  0
  6 15  1  1  0  0  0
  6  1  1  0  0  0  0
  6  5  1  0  0  0  0
  8  2  1  0  0  0  0
 10  3  1  0  0  0  0
 11  4  1  0  0  0  0
 13  5  1  0  0  0  0
 16 17  1  0  0  0  0
 16  6  1  0  0  0  0
 18 16  1  0  0  0  0
 19 18  1  0  0  0  0
 20 19  2  0  0  0  0
 21 22  2  0  0  0  0
 21 20  1  0  0  0  0
 22 29  1  0  0  0  0
 23 24  2  0  0  0  0
 23 22  1  0  0  0  0
 24 26  1  0  0  0  0
 25 24  1  0  0  0  0
 26 28  2  0  0  0  0
 27 26  1  0  0  0  0
 29 28  1  0  0  0  0
 29 18  2  0  0  0  0
 30 33  1  6  0  0  0
 30 32  1  0  0  0  0
 30 38  1  0  0  0  0
 31 30  1  0  0  0  0
 31 32  1  0  0  0  0
 31 34  1  0  0  0  0
 32 36  1  1  0  0  0
 35 31  1  0  0  0  0
 37 42  1  0  0  0  0
 38 37  2  0  0  0  0
 38 39  1  0  0  0  0
 39 40  2  0  0  0  0
 40 41  1  0  0  0  0
 41 45  1  0  0  0  0
 42 41  2  0  0  0  0
 43 37  1  0  0  0  0
 44 39  1  0  0  0  0
M  END
>  <minimizedAffinity>
-5.65615988

>  <minimizedRMSD>
2.46432281

$$$$
