
 OpenBabel03252506213D

 38 41  0  0  0  0  0  0  0  0999 V2000
   45.1790   36.9800   43.5250 C   0  0  0  0  0  0  0  0  0  0  0  0
   44.1580   36.8690   42.5640 C   0  0  0  0  0  0  0  0  0  0  0  0
   44.2610   35.8260   41.6340 C   0  0  0  0  0  0  0  0  0  0  0  0
   45.3260   34.9850   41.7010 N   0  0  0  0  0  0  0  0  0  0  0  0
   46.2850   35.1360   42.6480 C   0  0  0  0  0  0  0  0  0  0  0  0
   46.2030   36.1250   43.5440 N   0  0  0  0  0  0  0  0  0  0  0  0
   43.3230   37.5200   42.5050 H   0  0  0  0  0  0  0  0  0  0  0  0
   43.5130   35.6770   40.8640 H   0  0  0  0  0  0  0  0  0  0  0  0
   48.8820   36.1910   41.5070 Cl  0  0  0  0  0  0  0  0  0  0  0  0
   48.6200   34.6010   42.1390 C   0  0  0  0  0  0  0  0  0  0  0  0
   47.4100   34.1740   42.6460 C   0  0  0  0  0  0  0  0  0  0  0  0
   47.1690   32.9220   43.1530 C   0  0  0  0  0  0  0  0  0  0  0  0
   48.2330   32.0580   43.1370 C   0  0  0  0  0  0  0  0  0  0  0  0
   49.4810   32.3560   42.6640 C   0  0  0  0  0  0  0  0  0  0  0  0
   49.6320   33.6540   42.1670 C   0  0  0  0  0  0  0  0  0  0  0  0
   46.2060   32.6290   43.5400 H   0  0  0  0  0  0  0  0  0  0  0  0
   48.1230   31.0350   43.5250 H   0  0  0  0  0  0  0  0  0  0  0  0
   50.2880   31.6520   42.6690 H   0  0  0  0  0  0  0  0  0  0  0  0
   50.6010   33.9340   41.7830 H   0  0  0  0  0  0  0  0  0  0  0  0
   45.0870   38.0670   44.5090 C   0  0  0  0  0  3  0  0  0  0  0  0
   45.2170   39.2970   44.1020 C   0  0  0  0  0  3  0  0  0  0  0  0
   45.1280   40.4240   45.0600 C   0  0  0  0  0  0  0  0  0  0  0  0
   44.2870   40.3180   45.7720 H   0  0  0  0  0  0  0  0  0  0  0  0
   46.0950   40.4150   45.6430 H   0  0  0  0  0  0  0  0  0  0  0  0
   45.1130   41.6680   44.3200 N   0  0  0  0  0  0  0  0  0  0  0  0
   45.7650   41.7730   43.5250 H   0  0  0  0  0  0  0  0  0  0  0  0
   44.1910   42.6600   44.7540 C   0  0  0  0  0  0  0  0  0  0  0  0
   42.8680   42.4370   44.7780 N   0  0  0  0  0  0  0  0  0  0  0  0
   41.9390   43.3060   45.1700 C   0  0  0  0  0  3  0  0  0  0  0  0
   42.3370   44.5080   45.5780 N   0  0  0  0  0  0  0  0  0  0  0  0
   43.6530   44.8500   45.5990 C   0  0  0  0  0  0  0  0  0  0  0  0
   43.9930   46.1150   46.0340 C   0  0  0  0  0  3  0  0  0  0  0  0
   45.3430   46.3890   46.0250 C   0  0  0  0  0  0  0  0  0  0  0  0
   45.6460   47.3790   46.3630 H   0  0  0  0  0  0  0  0  0  0  0  0
   46.3260   45.5150   45.6270 C   0  0  0  0  0  0  0  0  0  0  0  0
   47.3800   45.7810   45.6400 H   0  0  0  0  0  0  0  0  0  0  0  0
   45.8980   44.2650   45.2050 C   0  0  0  0  0  3  0  0  0  0  0  0
   44.5730   43.9120   45.1820 C   0  0  0  0  0  0  0  0  0  0  0  0
  1  6  1  0  0  0  0
  1 20  1  0  0  0  0
  2  1  2  0  0  0  0
  3  4  2  0  0  0  0
  3  2  1  0  0  0  0
  4  5  1  0  0  0  0
  5  6  2  0  0  0  0
  7  2  1  0  0  0  0
  8  3  1  0  0  0  0
  9 10  1  0  0  0  0
 10 15  2  0  0  0  0
 10 11  1  0  0  0  0
 11  5  1  0  0  0  0
 11 12  2  0  0  0  0
 12 16  1  0  0  0  0
 13 12  1  0  0  0  0
 13 17  1  0  0  0  0
 14 18  1  0  0  0  0
 14 13  2  0  0  0  0
 15 14  1  0  0  0  0
 19 15  1  0  0  0  0
 21 20  2  0  0  0  0
 21 22  1  0  0  0  0
 22 24  1  0  0  0  0
 22 23  1  0  0  0  0
 25 27  1  0  0  0  0
 25 22  1  0  0  0  0
 26 25  1  0  0  0  0
 27 28  2  0  0  0  0
 27 38  1  0  0  0  0
 28 29  1  0  0  0  0
 29 30  2  0  0  0  0
 30 31  1  0  0  0  0
 31 32  1  0  0  0  0
 33 32  2  0  0  0  0
 33 34  1  0  0  0  0
 35 36  1  0  0  0  0
 35 33  1  0  0  0  0
 37 35  2  0  0  0  0
 38 37  1  0  0  0  0
 38 31  2  0  0  0  0
M  END
>  <minimizedAffinity>
1.15539956

>  <minimizedRMSD>
1.3976599

$$$$
