
 OpenBabel03252506463D

 45 49  0  0  1  0  0  0  0  0999 V2000
   49.7060   33.7020   41.4650 N   0  0  1  0  0  0  0  0  0  0  0  0
   50.7460   33.1100   42.2680 C   0  0  0  0  0  0  0  0  0  0  0  0
   51.2870   31.8160   41.7390 C   0  0  0  0  0  0  0  0  0  0  0  0
   50.1890   30.7750   41.7900 C   0  0  0  0  0  0  0  0  0  0  0  0
   48.8510   31.3850   41.4970 C   0  0  0  0  0  0  0  0  0  0  0  0
   49.0450   32.6590   40.7130 C   0  0  2  0  0  0  0  0  0  0  0  0
   50.3710   32.9060   43.2940 H   0  0  0  0  0  0  0  0  0  0  0  0
   51.5380   33.8730   42.3710 H   0  0  0  0  0  0  0  0  0  0  0  0
   52.1100   31.5300   42.4640 H   0  0  0  0  0  0  0  0  0  0  0  0
   51.7920   31.8680   40.7730 H   0  0  0  0  0  0  0  0  0  0  0  0
   50.4160   29.8840   41.1930 H   0  0  0  0  0  0  0  0  0  0  0  0
   50.1420   30.4380   42.8630 H   0  0  0  0  0  0  0  0  0  0  0  0
   48.1760   30.7340   40.9300 H   0  0  0  0  0  0  0  0  0  0  0  0
   48.3010   31.6690   42.4230 H   0  0  0  0  0  0  0  0  0  0  0  0
   48.0210   33.0340   40.4970 H   0  0  0  0  0  0  0  0  0  0  0  0
   49.6500   32.3810   39.4400 N   0  0  0  0  0  0  0  0  0  0  0  0
   50.6490   32.1210   39.5450 H   0  0  0  0  0  0  0  0  0  0  0  0
   49.0610   32.4440   38.1570 C   0  0  0  0  0  0  0  0  0  0  0  0
   47.9070   33.0590   37.8760 N   0  0  0  0  0  0  0  0  0  0  0  0
   47.3140   33.1550   36.7000 C   0  0  0  0  0  0  0  0  0  0  0  0
   47.9130   32.5800   35.6430 N   0  0  0  0  0  0  0  0  0  0  0  0
   49.0760   31.9320   35.7950 C   0  0  0  0  0  0  0  0  0  0  0  0
   49.6650   31.3550   34.7050 C   0  0  0  0  0  0  0  0  0  0  0  0
   50.8610   30.6740   34.7890 C   0  0  0  0  0  0  0  0  0  0  0  0
   51.2630   30.2480   33.8950 H   0  0  0  0  0  0  0  0  0  0  0  0
   51.4390   30.6030   36.0440 C   0  0  0  0  0  0  0  0  0  0  0  0
   52.3760   30.0670   36.0970 H   0  0  0  0  0  0  0  0  0  0  0  0
   50.8290   31.1900   37.1200 C   0  0  0  0  0  0  0  0  0  0  0  0
   49.6400   31.8690   37.0470 C   0  0  0  0  0  0  0  0  0  0  0  0
   47.4500   34.8140   41.9950 C   0  0  1  0  0  0  0  0  0  0  0  0
   48.5200   35.8310   41.8670 C   0  0  0  0  0  0  0  0  0  0  0  0
   48.8600   34.4610   42.2980 C   0  0  2  0  0  0  0  0  0  0  0  0
   46.9550   34.5320   41.0390 H   0  0  0  0  0  0  0  0  0  0  0  0
   48.6010   36.6290   42.6290 H   0  0  0  0  0  0  0  0  0  0  0  0
   48.8460   36.1840   40.8560 H   0  0  0  0  0  0  0  0  0  0  0  0
   49.0520   34.3020   43.4020 H   0  0  0  0  0  0  0  0  0  0  0  0
   45.5730   36.0130   43.1530 C   0  0  0  0  0  0  0  0  0  0  0  0
   46.4790   34.9430   43.1000 C   0  0  0  0  0  0  0  0  0  0  0  0
   46.4200   33.9800   44.1340 C   0  0  0  0  0  0  0  0  0  0  0  0
   45.4990   34.1430   45.1110 N   0  0  0  0  0  0  0  0  0  0  0  0
   44.6390   35.1800   45.1400 C   0  0  0  0  0  0  0  0  0  0  0  0
   44.6670   36.1310   44.1560 N   0  0  0  0  0  0  0  0  0  0  0  0
   45.6200   36.7480   42.3620 H   0  0  0  0  0  0  0  0  0  0  0  0
   47.1040   33.1410   44.1250 H   0  0  0  0  0  0  0  0  0  0  0  0
   43.9560   35.1830   45.9820 H   0  0  0  0  0  0  0  0  0  0  0  0
  1  2  1  1  0  0  0
  1 32  1  0  0  0  0
  2  8  1  0  0  0  0
  2  7  1  0  0  0  0
  3  4  1  0  0  0  0
  3  2  1  0  0  0  0
  3  9  1  0  0  0  0
  4 12  1  0  0  0  0
  5  4  1  0  0  0  0
  5 14  1  0  0  0  0
  6 15  1  6  0  0  0
  6  1  1  0  0  0  0
  6  5  1  0  0  0  0
 10  3  1  0  0  0  0
 11  4  1  0  0  0  0
 13  5  1  0  0  0  0
 16 17  1  0  0  0  0
 16  6  1  0  0  0  0
 18 16  1  0  0  0  0
 19 18  1  0  0  0  0
 20 19  2  0  0  0  0
 21 22  2  0  0  0  0
 21 20  1  0  0  0  0
 22 29  1  0  0  0  0
 23 24  2  0  0  0  0
 23 22  1  0  0  0  0
 24 26  1  0  0  0  0
 25 24  1  0  0  0  0
 26 27  1  0  0  0  0
 26 28  2  0  0  0  0
 29 28  1  0  0  0  0
 29 18  2  0  0  0  0
 30 33  1  6  0  0  0
 30 32  1  0  0  0  0
 30 38  1  0  0  0  0
 31 30  1  0  0  0  0
 31 32  1  0  0  0  0
 31 34  1  0  0  0  0
 32 36  1  1  0  0  0
 35 31  1  0  0  0  0
 37 42  1  0  0  0  0
 38 37  2  0  0  0  0
 38 39  1  0  0  0  0
 39 40  2  0  0  0  0
 40 41  1  0  0  0  0
 41 45  1  0  0  0  0
 42 41  2  0  0  0  0
 43 37  1  0  0  0  0
 44 39  1  0  0  0  0
M  END
>  <minimizedAffinity>
-6.13073874

>  <minimizedRMSD>
2.60174322

$$$$
