
 OpenBabel03252506123D

 39 42  0  0  0  0  0  0  0  0999 V2000
   45.0940   33.4270   41.1180 F   0  0  0  0  0  0  0  0  0  0  0  0
   46.2950   33.9960   40.9670 C   0  0  0  0  0  0  0  0  0  0  0  0
   46.7990   34.7710   41.9910 C   0  0  0  0  0  0  0  0  0  0  0  0
   48.0450   35.4000   41.9160 C   0  0  0  0  0  0  0  0  0  0  0  0
   48.8210   35.2450   40.7660 C   0  0  0  0  0  0  0  0  0  0  0  0
   48.2700   34.4550   39.7670 C   0  0  0  0  0  0  0  0  0  0  0  0
   47.0610   33.8370   39.8240 C   0  0  0  0  0  0  0  0  0  0  0  0
   48.3800   36.0010   42.7680 H   0  0  0  0  0  0  0  0  0  0  0  0
   49.7550   35.7480   40.7740 H   0  0  0  0  0  0  0  0  0  0  0  0
   48.9790   34.4180   38.9450 H   0  0  0  0  0  0  0  0  0  0  0  0
   45.4570   34.2180   45.3590 C   0  0  0  0  0  0  0  0  0  0  0  0
   44.5940   35.3260   45.5110 C   0  0  0  0  0  0  0  0  0  0  0  0
   44.4780   36.2640   44.4500 C   0  0  0  0  0  0  0  0  0  0  0  0
   45.2250   36.0200   43.3320 N   0  0  0  0  0  0  0  0  0  0  0  0
   46.0300   34.9630   43.2210 C   0  0  0  0  0  0  0  0  0  0  0  0
   46.1420   34.0750   44.2250 N   0  0  0  0  0  0  0  0  0  0  0  0
   44.0280   35.4680   46.4180 H   0  0  0  0  0  0  0  0  0  0  0  0
   43.8250   37.1210   44.5400 H   0  0  0  0  0  0  0  0  0  0  0  0
   45.5550   33.3030   46.4270 N   0  0  0  0  0  0  0  0  0  0  0  0
   45.0260   32.4460   46.1460 H   0  0  0  0  0  0  0  0  0  0  0  0
   46.0240   33.3430   47.3540 H   0  0  0  0  0  0  0  0  0  0  0  0
   46.6260   33.0860   38.7730 O   0  0  0  0  0  0  0  0  0  0  0  0
   47.7620   34.5900   36.9160 O   0  0  0  0  0  0  0  0  0  0  0  0
   46.9270   33.3620   37.1370 P   0  0  2  0  0  0  0  0  0  0  0  0
   45.4190   33.5150   36.3400 O   0  0  0  0  0  0  0  0  0  0  0  0
   45.5570   33.7980   35.3840 H   0  0  0  0  0  0  0  0  0  0  0  0
   47.6790   32.0490   36.3860 O   0  0  0  0  0  0  0  0  0  0  0  0
   47.2200   31.3410   35.3100 C   0  0  0  0  0  0  0  0  0  0  0  0
   46.2000   30.4720   35.2240 N   0  0  0  0  0  0  0  0  0  0  0  0
   45.8720   29.8530   34.0830 C   0  0  0  0  0  3  0  0  0  0  0  0
   46.5720   30.0820   32.9380 N   0  0  0  0  0  0  0  0  0  0  0  0
   47.6040   30.9400   32.9550 C   0  0  0  0  0  0  0  0  0  0  0  0
   48.2740   31.1290   31.7610 C   0  0  0  0  0  3  0  0  0  0  0  0
   49.3410   32.0030   31.7360 C   0  0  0  0  0  0  0  0  0  0  0  0
   49.9430   32.2360   30.8680 H   0  0  0  0  0  0  0  0  0  0  0  0
   49.7070   32.6600   32.8970 C   0  0  0  0  0  0  0  0  0  0  0  0
   50.5440   33.3620   32.9320 H   0  0  0  0  0  0  0  0  0  0  0  0
   49.0060   32.4360   34.0600 C   0  0  0  0  0  3  0  0  0  0  0  0
   47.9210   31.5600   34.1290 C   0  0  0  0  0  0  0  0  0  0  0  0
  2  1  1  0  0  0  0
  2  3  1  0  0  0  0
  3 15  1  0  0  0  0
  4  3  2  0  0  0  0
  4  8  1  0  0  0  0
  5  9  1  0  0  0  0
  5  4  1  0  0  0  0
  6  7  1  0  0  0  0
  6  5  2  0  0  0  0
  7  2  2  0  0  0  0
 10  6  1  0  0  0  0
 11 12  1  0  0  0  0
 11 19  1  0  0  0  0
 12 17  1  0  0  0  0
 13 18  1  0  0  0  0
 13 12  2  0  0  0  0
 14 13  1  0  0  0  0
 15 14  2  0  0  0  0
 15 16  1  0  0  0  0
 16 11  2  0  0  0  0
 19 21  1  0  0  0  0
 20 19  1  0  0  0  0
 22  7  1  0  0  0  0
 24 23  2  6  0  0  0
 24 22  1  0  0  0  0
 25 24  1  0  0  0  0
 26 25  1  0  0  0  0
 27 24  1  0  0  0  0
 28 27  1  0  0  0  0
 29 28  1  0  0  0  0
 30 29  2  0  0  0  0
 31 32  2  0  0  0  0
 31 30  1  0  0  0  0
 32 39  1  0  0  0  0
 33 32  1  0  0  0  0
 34 33  2  0  0  0  0
 34 36  1  0  0  0  0
 35 34  1  0  0  0  0
 36 37  1  0  0  0  0
 36 38  2  0  0  0  0
 38 39  1  0  0  0  0
 39 28  2  0  0  0  0
M  END
>  <minimizedAffinity>
-7.3386364

>  <minimizedRMSD>
1.14527702

$$$$
