
 OpenBabel03252501573D

 34 37  0  0  0  0  0  0  0  0999 V2000
   45.0250   34.8780   44.5080 C   0  0  0  0  0  0  0  0  0  0  0  0
   46.0960   34.5890   43.6540 C   0  0  0  0  0  0  0  0  0  0  0  0
   47.0560   33.6960   44.1380 C   0  0  0  0  0  0  0  0  0  0  0  0
   46.9100   33.1660   45.3780 N   0  0  0  0  0  0  0  0  0  0  0  0
   45.8510   33.4840   46.1590 C   0  0  0  0  0  0  0  0  0  0  0  0
   44.8950   34.3400   45.7420 N   0  0  0  0  0  0  0  0  0  0  0  0
   44.2190   35.5520   44.2490 H   0  0  0  0  0  0  0  0  0  0  0  0
   45.9020   32.9650   47.1150 H   0  0  0  0  0  0  0  0  0  0  0  0
   48.1880   33.3810   43.2790 C   0  0  0  0  0  0  0  0  0  0  0  0
   49.1990   34.2250   42.8490 C   0  0  0  0  0  0  0  0  0  0  0  0
   50.1940   33.7250   42.0220 C   0  0  0  0  0  0  0  0  0  0  0  0
   50.1760   32.4100   41.6360 C   0  0  0  0  0  0  0  0  0  0  0  0
   49.1720   31.5610   42.0590 C   0  0  0  0  0  0  0  0  0  0  0  0
   48.1850   32.0660   42.8820 C   0  0  0  0  0  0  0  0  0  0  0  0
   49.1060   35.2360   43.2180 H   0  0  0  0  0  0  0  0  0  0  0  0
   50.9590   34.4280   41.7160 H   0  0  0  0  0  0  0  0  0  0  0  0
   50.9930   32.1330   40.9960 H   0  0  0  0  0  0  0  0  0  0  0  0
   49.2290   30.5430   41.7100 H   0  0  0  0  0  0  0  0  0  0  0  0
   47.4490   31.3000   43.1530 H   0  0  0  0  0  0  0  0  0  0  0  0
   46.1430   35.2230   42.3430 C   0  0  0  0  0  0  0  0  0  0  0  0
   47.2360   35.4580   42.1630 H   0  0  0  0  0  0  0  0  0  0  0  0
   45.5760   36.1710   42.3840 H   0  0  0  0  0  0  0  0  0  0  0  0
   45.7040   34.4270   41.1990 C   0  0  0  0  0  0  0  0  0  0  0  0
   46.4000   33.5620   40.4350 N   0  0  0  0  0  0  0  0  0  0  0  0
   45.8160   32.8970   39.4110 C   0  0  0  0  0  0  0  0  0  0  0  0
   44.5110   33.0520   39.0850 N   0  0  0  0  0  0  0  0  0  0  0  0
   43.7790   33.9250   39.8430 C   0  0  0  0  0  0  0  0  0  0  0  0
   42.4490   34.0110   39.4270 C   0  0  0  0  0  0  0  0  0  0  0  0
   41.7090   34.9040   40.2060 C   0  0  0  0  0  0  0  0  0  0  0  0
   40.6560   35.0160   39.9300 H   0  0  0  0  0  0  0  0  0  0  0  0
   42.1920   35.6330   41.2680 C   0  0  0  0  0  0  0  0  0  0  0  0
   41.5500   36.3040   41.8190 H   0  0  0  0  0  0  0  0  0  0  0  0
   43.5050   35.4410   41.5500 C   0  0  0  0  0  0  0  0  0  0  0  0
   44.3730   34.6020   40.8860 C   0  0  0  0  0  0  0  0  0  0  0  0
  1  6  1  0  0  0  0
  2  3  1  0  0  0  0
  2  1  2  0  0  0  0
  3  4  2  0  0  0  0
  4  5  1  0  0  0  0
  5  8  1  0  0  0  0
  6  5  2  0  0  0  0
  7  1  1  0  0  0  0
  9  3  1  0  0  0  0
 10 15  1  0  0  0  0
 10  9  2  0  0  0  0
 11 10  1  0  0  0  0
 12 11  2  0  0  0  0
 12 13  1  0  0  0  0
 13 14  2  0  0  0  0
 14 19  1  0  0  0  0
 14  9  1  0  0  0  0
 16 11  1  0  0  0  0
 17 12  1  0  0  0  0
 18 13  1  0  0  0  0
 20 22  1  0  0  0  0
 20  2  1  0  0  0  0
 21 20  1  0  0  0  0
 23 20  1  0  0  0  0
 24 23  2  0  0  0  0
 25 24  1  0  0  0  0
 26 25  2  0  0  0  0
 26 27  1  0  0  0  0
 27 34  1  0  0  0  0
 28 27  2  0  0  0  0
 28 29  1  0  0  0  0
 29 31  2  0  0  0  0
 30 29  1  0  0  0  0
 31 33  1  0  0  0  0
 31 32  1  0  0  0  0
 34 23  1  0  0  0  0
 34 33  2  0  0  0  0
M  END
>  <minimizedAffinity>
-5.91853237

>  <minimizedRMSD>
2.56588197

$$$$
