
 OpenBabel03252506123D

 39 42  0  0  0  0  0  0  0  0999 V2000
   45.2680   33.4190   41.1170 F   0  0  0  0  0  0  0  0  0  0  0  0
   46.4450   34.0410   40.9930 C   0  0  0  0  0  0  0  0  0  0  0  0
   46.8910   34.8370   42.0280 C   0  0  0  0  0  0  0  0  0  0  0  0
   48.1100   35.5200   41.9810 C   0  0  0  0  0  0  0  0  0  0  0  0
   48.9170   35.4020   40.8490 C   0  0  0  0  0  0  0  0  0  0  0  0
   48.4240   34.5910   39.8380 C   0  0  0  0  0  0  0  0  0  0  0  0
   47.2430   33.9190   39.8670 C   0  0  0  0  0  0  0  0  0  0  0  0
   48.3980   36.1350   42.8420 H   0  0  0  0  0  0  0  0  0  0  0  0
   49.8270   35.9460   40.8780 H   0  0  0  0  0  0  0  0  0  0  0  0
   49.1520   34.5860   39.0310 H   0  0  0  0  0  0  0  0  0  0  0  0
   45.4850   34.2060   45.3560 C   0  0  0  0  0  0  0  0  0  0  0  0
   44.5870   35.2870   45.4990 C   0  0  0  0  0  0  0  0  0  0  0  0
   44.4680   36.2330   44.4460 C   0  0  0  0  0  0  0  0  0  0  0  0
   45.2490   36.0240   43.3440 N   0  0  0  0  0  0  0  0  0  0  0  0
   46.0880   34.9920   43.2410 C   0  0  0  0  0  0  0  0  0  0  0  0
   46.2010   34.0960   44.2380 N   0  0  0  0  0  0  0  0  0  0  0  0
   43.9950   35.4020   46.3930 H   0  0  0  0  0  0  0  0  0  0  0  0
   43.7890   37.0700   44.5290 H   0  0  0  0  0  0  0  0  0  0  0  0
   45.5840   33.2820   46.4160 N   0  0  0  0  0  0  0  0  0  0  0  0
   45.0870   32.4130   46.1130 H   0  0  0  0  0  0  0  0  0  0  0  0
   46.0280   33.3250   47.3550 H   0  0  0  0  0  0  0  0  0  0  0  0
   46.8650   33.1510   38.8060 O   0  0  0  0  0  0  0  0  0  0  0  0
   48.0130   34.6840   36.9800 O   0  0  0  0  0  0  0  0  0  0  0  0
   47.2130   33.4290   37.1800 P   0  0  2  0  0  0  0  0  0  0  0  0
   45.7290   33.5260   36.3300 O   0  0  0  0  0  0  0  0  0  0  0  0
   45.8900   33.8090   35.3780 H   0  0  0  0  0  0  0  0  0  0  0  0
   48.0340   32.1380   36.4630 O   0  0  0  0  0  0  0  0  0  0  0  0
   48.4020   32.0220   35.1510 C   0  0  0  0  0  0  0  0  0  0  0  0
   47.7560   32.4110   34.0390 N   0  0  0  0  0  0  0  0  0  0  0  0
   48.2540   32.2250   32.8110 C   0  0  0  0  0  3  0  0  0  0  0  0
   49.4610   31.6210   32.6310 N   0  0  0  0  0  0  0  0  0  0  0  0
   50.1600   31.2080   33.7030 C   0  0  0  0  0  0  0  0  0  0  0  0
   51.3770   30.6040   33.4530 C   0  0  0  0  0  3  0  0  0  0  0  0
   52.1260   30.1660   34.5260 C   0  0  0  0  0  0  0  0  0  0  0  0
   53.0890   29.6800   34.4620 H   0  0  0  0  0  0  0  0  0  0  0  0
   51.6410   30.3430   35.8090 C   0  0  0  0  0  0  0  0  0  0  0  0
   52.1930   30.0150   36.6930 H   0  0  0  0  0  0  0  0  0  0  0  0
   50.4210   30.9510   36.0030 C   0  0  0  0  0  3  0  0  0  0  0  0
   49.6320   31.4090   34.9450 C   0  0  0  0  0  0  0  0  0  0  0  0
  2  1  1  0  0  0  0
  2  3  1  0  0  0  0
  3 15  1  0  0  0  0
  4  3  2  0  0  0  0
  4  8  1  0  0  0  0
  5  9  1  0  0  0  0
  5  4  1  0  0  0  0
  6  7  1  0  0  0  0
  6  5  2  0  0  0  0
  7  2  2  0  0  0  0
 10  6  1  0  0  0  0
 11 12  1  0  0  0  0
 11 19  1  0  0  0  0
 12 17  1  0  0  0  0
 13 18  1  0  0  0  0
 13 12  2  0  0  0  0
 14 13  1  0  0  0  0
 15 14  2  0  0  0  0
 15 16  1  0  0  0  0
 16 11  2  0  0  0  0
 19 21  1  0  0  0  0
 20 19  1  0  0  0  0
 22  7  1  0  0  0  0
 24 23  2  6  0  0  0
 24 22  1  0  0  0  0
 25 24  1  0  0  0  0
 26 25  1  0  0  0  0
 27 24  1  0  0  0  0
 28 27  1  0  0  0  0
 29 28  2  0  0  0  0
 30 29  1  0  0  0  0
 31 30  2  0  0  0  0
 31 32  1  0  0  0  0
 32 39  1  0  0  0  0
 33 32  2  0  0  0  0
 33 34  1  0  0  0  0
 34 36  2  0  0  0  0
 35 34  1  0  0  0  0
 36 38  1  0  0  0  0
 36 37  1  0  0  0  0
 39 28  1  0  0  0  0
 39 38  2  0  0  0  0
M  END
>  <minimizedAffinity>
-7.06441689

>  <minimizedRMSD>
0.781162262

$$$$
