
 OpenBabel03242523303D

 25 27  0  0  0  0  0  0  0  0999 V2000
   46.6780   31.5400   45.2520 S   0  0  0  0  0  0  0  0  0  0  0  0
   45.8710   30.1780   46.0760 C   0  0  0  0  0  0  0  0  0  0  0  0
   46.1070   29.7750   47.3480 N   0  0  0  0  0  0  0  0  0  0  0  0
   45.4320   28.7250   47.8570 C   0  0  0  0  0  3  0  0  0  0  0  0
   44.5080   28.0460   47.1240 N   0  0  0  0  0  0  0  0  0  0  0  0
   44.2310   28.4080   45.8400 C   0  0  0  0  0  0  0  0  0  0  0  0
   43.2870   27.6880   45.1360 C   0  0  0  0  0  3  0  0  0  0  0  0
   43.0290   28.0840   43.8200 C   0  0  0  0  0  0  0  0  0  0  0  0
   42.3150   27.6010   43.1730 H   0  0  0  0  0  0  0  0  0  0  0  0
   43.7030   29.1520   43.2760 C   0  0  0  0  0  0  0  0  0  0  0  0
   43.5330   29.4980   42.2490 H   0  0  0  0  0  0  0  0  0  0  0  0
   44.6370   29.8320   44.0320 C   0  0  0  0  0  3  0  0  0  0  0  0
   44.9340   29.4840   45.3420 C   0  0  0  0  0  0  0  0  0  0  0  0
   46.3280   33.0760   46.1690 C   0  0  0  0  0  0  0  0  0  0  0  0
   47.2370   33.4260   46.7110 H   0  0  0  0  0  0  0  0  0  0  0  0
   45.5490   32.9160   46.9350 H   0  0  0  0  0  0  0  0  0  0  0  0
   44.4730   35.8440   44.5060 C   0  0  0  0  0  0  0  0  0  0  0  0
   45.0980   35.8600   43.2510 C   0  0  0  0  0  0  0  0  0  0  0  0
   46.1300   34.9370   43.0000 C   0  0  0  0  0  0  0  0  0  0  0  0
   46.4840   34.0600   43.9860 N   0  0  0  0  0  0  0  0  0  0  0  0
   45.8440   34.0800   45.1980 C   0  0  0  0  0  0  0  0  0  0  0  0
   44.8680   34.9560   45.4310 N   0  0  0  0  0  0  0  0  0  0  0  0
   43.6880   36.5640   44.6630 H   0  0  0  0  0  0  0  0  0  0  0  0
   44.8640   36.5240   42.4360 H   0  0  0  0  0  0  0  0  0  0  0  0
   46.6600   34.8790   42.0740 H   0  0  0  0  0  0  0  0  0  0  0  0
  1  2  1  0  0  0  0
  1 14  1  0  0  0  0
  2  3  1  0  0  0  0
  3  4  2  0  0  0  0
  5  4  1  0  0  0  0
  6  5  2  0  0  0  0
  7  6  1  0  0  0  0
  8  7  2  0  0  0  0
  9  8  1  0  0  0  0
 10  8  1  0  0  0  0
 10 12  2  0  0  0  0
 11 10  1  0  0  0  0
 12 13  1  0  0  0  0
 13  6  1  0  0  0  0
 13  2  2  0  0  0  0
 14 15  1  0  0  0  0
 14 16  1  0  0  0  0
 17 23  1  0  0  0  0
 17 22  1  0  0  0  0
 18 17  2  0  0  0  0
 19 18  1  0  0  0  0
 19 20  2  0  0  0  0
 20 21  1  0  0  0  0
 21 22  2  0  0  0  0
 21 14  1  0  0  0  0
 24 18  1  0  0  0  0
 25 19  1  0  0  0  0
M  END
>  <minimizedAffinity>
-4.02287626

>  <minimizedRMSD>
2.74013257

$$$$
