
 OpenBabel03252507463D

 40 43  0  0  0  0  0  0  0  0999 V2000
   48.4580   33.9390   41.4030 C   0  0  0  0  0  0  0  0  0  0  0  0
   48.9970   32.7240   40.9910 C   0  0  0  0  0  0  0  0  0  0  0  0
   50.2720   32.3400   41.3750 C   0  0  0  0  0  0  0  0  0  0  0  0
   50.9630   33.2250   42.1800 N   0  0  0  0  0  0  0  0  0  0  0  0
   50.4050   34.3940   42.5590 C   0  0  0  0  0  0  0  0  0  0  0  0
   49.1840   34.7320   42.1740 N   0  0  0  0  0  0  0  0  0  0  0  0
   50.7190   31.4010   41.0710 H   0  0  0  0  0  0  0  0  0  0  0  0
   51.0220   35.0240   43.1900 H   0  0  0  0  0  0  0  0  0  0  0  0
   47.0960   34.2360   40.9310 C   0  0  0  0  0  0  0  0  0  0  0  0
   47.1630   34.7590   39.9450 H   0  0  0  0  0  0  0  0  0  0  0  0
   46.5120   33.3170   40.7340 H   0  0  0  0  0  0  0  0  0  0  0  0
   46.2930   35.0360   41.9140 C   0  0  0  0  0  0  0  0  0  0  0  0
   46.4950   34.6200   42.9370 H   0  0  0  0  0  0  0  0  0  0  0  0
   46.6390   36.0930   41.9470 H   0  0  0  0  0  0  0  0  0  0  0  0
   44.8190   34.9520   41.6890 C   0  0  0  0  0  0  0  0  0  0  0  0
   43.9320   35.4000   42.7070 C   0  0  0  0  0  0  0  0  0  0  0  0
   42.2720   35.0960   41.9710 S   0  0  0  0  0  0  0  0  0  0  0  0
   43.0770   34.4090   40.3970 C   0  0  0  0  0  0  0  0  0  0  0  0
   44.1930   34.5030   40.6380 N   0  0  0  0  0  0  0  0  0  0  0  0
   44.1950   35.8150   43.6740 H   0  0  0  0  0  0  0  0  0  0  0  0
   42.3380   33.9460   39.3110 O   0  0  0  0  0  0  0  0  0  0  0  0
   40.3830   34.4080   37.5830 O   0  0  0  0  0  0  0  0  0  0  0  0
   41.4690   35.0920   38.4080 P   0  0  0  0  0  0  0  0  0  0  0  0
   40.7560   36.1900   39.4770 O   0  0  0  0  0  0  0  0  0  0  0  0
   39.8880   35.8460   39.7900 H   0  0  0  0  0  0  0  0  0  0  0  0
   42.5470   35.9560   37.4060 O   0  0  0  0  0  0  0  0  0  0  0  0
   42.0850   36.7740   37.1350 H   0  0  0  0  0  0  0  0  0  0  0  0
   48.0520   31.6110   39.9430 S   0  0  0  0  0  0  0  0  0  0  0  0
   48.3690   31.9580   38.2200 C   0  0  0  0  0  0  0  0  0  0  0  0
   47.6540   32.8950   37.5450 N   0  0  0  0  0  0  0  0  0  0  0  0
   47.9180   33.1320   36.2490 C   0  0  0  0  0  3  0  0  0  0  0  0
   48.8880   32.4460   35.6140 N   0  0  0  0  0  0  0  0  0  0  0  0
   49.6180   31.5060   36.2610 C   0  0  0  0  0  0  0  0  0  0  0  0
   50.5880   30.8610   35.5200 C   0  0  0  0  0  3  0  0  0  0  0  0
   51.3560   29.8970   36.1310 C   0  0  0  0  0  0  0  0  0  0  0  0
   52.1060   29.4150   35.5140 H   0  0  0  0  0  0  0  0  0  0  0  0
   51.1230   29.6130   37.4730 C   0  0  0  0  0  0  0  0  0  0  0  0
   51.7460   28.8520   37.9130 H   0  0  0  0  0  0  0  0  0  0  0  0
   50.1410   30.2800   38.1860 C   0  0  0  0  0  3  0  0  0  0  0  0
   49.3590   31.2510   37.5930 C   0  0  0  0  0  0  0  0  0  0  0  0
  1  6  1  0  0  0  0
  2  3  1  0  0  0  0
  2  1  2  0  0  0  0
  3  4  2  0  0  0  0
  4  5  1  0  0  0  0
  5  8  1  0  0  0  0
  6  5  2  0  0  0  0
  7  3  1  0  0  0  0
  9  1  1  0  0  0  0
  9 12  1  0  0  0  0
 10  9  1  0  0  0  0
 11  9  1  0  0  0  0
 12 14  1  0  0  0  0
 12 13  1  0  0  0  0
 15 12  1  0  0  0  0
 15 16  2  0  0  0  0
 16 20  1  0  0  0  0
 17 16  1  0  0  0  0
 18 19  2  0  0  0  0
 18 17  1  0  0  0  0
 19 15  1  0  0  0  0
 21 18  1  0  0  0  0
 22 23  2  0  0  0  0
 23 21  1  0  0  0  0
 23 24  1  0  0  0  0
 24 25  1  0  0  0  0
 26 23  1  0  0  0  0
 27 26  1  0  0  0  0
 28  2  1  0  0  0  0
 29 28  1  0  0  0  0
 30 29  2  0  0  0  0
 31 30  1  0  0  0  0
 32 31  2  0  0  0  0
 32 33  1  0  0  0  0
 33 40  1  0  0  0  0
 34 35  1  0  0  0  0
 34 33  2  0  0  0  0
 35 37  2  0  0  0  0
 36 35  1  0  0  0  0
 37 38  1  0  0  0  0
 37 39  1  0  0  0  0
 40 39  2  0  0  0  0
 40 29  1  0  0  0  0
M  END
>  <minimizedAffinity>
-5.15500212

>  <minimizedRMSD>
0.735169232

$$$$
