
 OpenBabel03242511173D

 22 24  0  0  0  0  0  0  0  0999 V2000
   45.4270   33.9100   40.9360 C   0  0  0  0  0  0  0  0  0  0  0  0
   46.1050   32.7870   40.5630 N   0  0  0  0  0  0  0  0  0  0  0  0
   45.5340   31.8510   39.7720 C   0  0  0  0  0  3  0  0  0  0  0  0
   44.2780   32.0810   39.3740 N   0  0  0  0  0  0  0  0  0  0  0  0
   43.5510   33.1520   39.6950 C   0  0  0  0  0  0  0  0  0  0  0  0
   42.2550   33.3610   39.2680 C   0  0  0  0  0  3  0  0  0  0  0  0
   41.5880   34.5110   39.6600 C   0  0  0  0  0  0  0  0  0  0  0  0
   40.5710   34.6470   39.3090 H   0  0  0  0  0  0  0  0  0  0  0  0
   42.2120   35.4380   40.4690 C   0  0  0  0  0  0  0  0  0  0  0  0
   41.6580   36.3300   40.7570 H   0  0  0  0  0  0  0  0  0  0  0  0
   43.5190   35.2740   40.9270 C   0  0  0  0  0  3  0  0  0  0  0  0
   44.1260   34.1080   40.5000 C   0  0  0  0  0  0  0  0  0  0  0  0
   46.3590   35.0200   41.9820 S   0  0  0  0  0  0  0  0  0  0  0  0
   44.5820   35.2300   45.6180 C   0  0  0  0  0  0  0  0  0  0  0  0
   44.9300   35.5330   44.2860 C   0  0  0  0  0  0  0  0  0  0  0  0
   45.8710   34.6970   43.6660 C   0  0  0  0  0  0  0  0  0  0  0  0
   46.3830   33.6630   44.3680 N   0  0  0  0  0  0  0  0  0  0  0  0
   46.0300   33.3970   45.6450 C   0  0  0  0  0  0  0  0  0  0  0  0
   45.1320   34.1860   46.2530 N   0  0  0  0  0  0  0  0  0  0  0  0
   43.8610   35.8910   46.0550 H   0  0  0  0  0  0  0  0  0  0  0  0
   44.4860   36.3690   43.7850 H   0  0  0  0  0  0  0  0  0  0  0  0
   46.4290   32.5740   46.2230 H   0  0  0  0  0  0  0  0  0  0  0  0
  1 13  1  0  0  0  0
  2  1  1  0  0  0  0
  3  2  2  0  0  0  0
  4  5  2  0  0  0  0
  4  3  1  0  0  0  0
  5 12  1  0  0  0  0
  6  7  2  0  0  0  0
  6  5  1  0  0  0  0
  7  9  1  0  0  0  0
  8  7  1  0  0  0  0
  9 10  1  0  0  0  0
  9 11  2  0  0  0  0
 12 11  1  0  0  0  0
 12  1  2  0  0  0  0
 13 16  1  0  0  0  0
 14 20  1  0  0  0  0
 14 19  1  0  0  0  0
 15 14  2  0  0  0  0
 16 15  1  0  0  0  0
 16 17  2  0  0  0  0
 17 18  1  0  0  0  0
 18 22  1  0  0  0  0
 18 19  2  0  0  0  0
 21 15  1  0  0  0  0
M  END
>  <minimizedAffinity>
-4.25256824

>  <minimizedRMSD>
0.857920289

$$$$
