
 OpenBabel03252507463D

 40 43  0  0  0  0  0  0  0  0999 V2000
   48.1280   34.0490   41.3760 C   0  0  0  0  0  0  0  0  0  0  0  0
   48.8850   32.9150   41.1010 C   0  0  0  0  0  0  0  0  0  0  0  0
   50.1680   32.7710   41.6040 C   0  0  0  0  0  0  0  0  0  0  0  0
   50.6410   33.8090   42.3830 N   0  0  0  0  0  0  0  0  0  0  0  0
   49.8760   34.8930   42.6280 C   0  0  0  0  0  0  0  0  0  0  0  0
   48.6520   35.0000   42.1320 N   0  0  0  0  0  0  0  0  0  0  0  0
   50.7820   31.9000   41.4080 H   0  0  0  0  0  0  0  0  0  0  0  0
   50.3300   35.6560   43.2500 H   0  0  0  0  0  0  0  0  0  0  0  0
   46.7800   34.0860   40.7870 C   0  0  0  0  0  0  0  0  0  0  0  0
   46.8550   34.4750   39.7410 H   0  0  0  0  0  0  0  0  0  0  0  0
   46.3380   33.0760   40.6910 H   0  0  0  0  0  0  0  0  0  0  0  0
   45.8050   34.8910   41.5950 C   0  0  0  0  0  0  0  0  0  0  0  0
   45.9700   34.6390   42.6770 H   0  0  0  0  0  0  0  0  0  0  0  0
   46.0150   35.9800   41.5060 H   0  0  0  0  0  0  0  0  0  0  0  0
   44.3770   34.5840   41.2860 C   0  0  0  0  0  0  0  0  0  0  0  0
   43.3650   35.5000   41.6870 C   0  0  0  0  0  0  0  0  0  0  0  0
   41.8200   34.6920   41.0940 S   0  0  0  0  0  0  0  0  0  0  0  0
   42.8240   33.2420   40.3990 C   0  0  0  0  0  0  0  0  0  0  0  0
   43.8960   33.5410   40.6690 N   0  0  0  0  0  0  0  0  0  0  0  0
   43.4960   36.4380   42.2140 H   0  0  0  0  0  0  0  0  0  0  0  0
   42.2360   32.1590   39.7490 O   0  0  0  0  0  0  0  0  0  0  0  0
   40.9430   31.2520   37.6220 O   0  0  0  0  0  0  0  0  0  0  0  0
   41.9380   32.3120   38.0840 P   0  0  0  0  0  0  0  0  0  0  0  0
   41.3000   33.8490   37.7910 O   0  0  0  0  0  0  0  0  0  0  0  0
   40.3240   33.8430   37.9190 H   0  0  0  0  0  0  0  0  0  0  0  0
   43.4110   32.1810   37.2320 O   0  0  0  0  0  0  0  0  0  0  0  0
   43.2570   32.5580   36.3430 H   0  0  0  0  0  0  0  0  0  0  0  0
   48.2180   31.5940   40.0800 S   0  0  0  0  0  0  0  0  0  0  0  0
   49.1800   31.4160   38.5850 C   0  0  0  0  0  0  0  0  0  0  0  0
   50.4760   31.0080   38.6240 N   0  0  0  0  0  0  0  0  0  0  0  0
   51.1710   30.8850   37.4810 C   0  0  0  0  0  3  0  0  0  0  0  0
   50.5940   31.1640   36.2960 N   0  0  0  0  0  0  0  0  0  0  0  0
   49.3040   31.5730   36.2280 C   0  0  0  0  0  0  0  0  0  0  0  0
   48.8080   31.8330   34.9660 C   0  0  0  0  0  3  0  0  0  0  0  0
   47.5020   32.2510   34.8420 C   0  0  0  0  0  0  0  0  0  0  0  0
   47.1510   32.4440   33.8340 H   0  0  0  0  0  0  0  0  0  0  0  0
   46.7380   32.3940   35.9950 C   0  0  0  0  0  0  0  0  0  0  0  0
   45.7220   32.7250   35.8520 H   0  0  0  0  0  0  0  0  0  0  0  0
   47.2690   32.1250   37.2450 C   0  0  0  0  0  3  0  0  0  0  0  0
   48.5750   31.7040   37.3920 C   0  0  0  0  0  0  0  0  0  0  0  0
  1  6  1  0  0  0  0
  2  1  2  0  0  0  0
  2  3  1  0  0  0  0
  3  4  2  0  0  0  0
  4  5  1  0  0  0  0
  5  8  1  0  0  0  0
  6  5  2  0  0  0  0
  7  3  1  0  0  0  0
  9  1  1  0  0  0  0
  9 12  1  0  0  0  0
 10  9  1  0  0  0  0
 11  9  1  0  0  0  0
 12 13  1  0  0  0  0
 14 12  1  0  0  0  0
 15 12  1  0  0  0  0
 15 16  2  0  0  0  0
 16 20  1  0  0  0  0
 17 16  1  0  0  0  0
 18 19  2  0  0  0  0
 18 17  1  0  0  0  0
 19 15  1  0  0  0  0
 21 18  1  0  0  0  0
 22 23  2  0  0  0  0
 23 21  1  0  0  0  0
 24 25  1  0  0  0  0
 24 23  1  0  0  0  0
 26 23  1  0  0  0  0
 27 26  1  0  0  0  0
 28  2  1  0  0  0  0
 29 30  1  0  0  0  0
 29 28  1  0  0  0  0
 31 30  2  0  0  0  0
 32 31  1  0  0  0  0
 33 32  2  0  0  0  0
 33 40  1  0  0  0  0
 34 33  1  0  0  0  0
 35 34  2  0  0  0  0
 35 37  1  0  0  0  0
 36 35  1  0  0  0  0
 37 39  2  0  0  0  0
 38 37  1  0  0  0  0
 39 40  1  0  0  0  0
 40 29  2  0  0  0  0
M  END
>  <minimizedAffinity>
-4.95349979

>  <minimizedRMSD>
2.04114461

$$$$
