
 OpenBabel03252506213D

 38 41  0  0  0  0  0  0  0  0999 V2000
   45.2230   37.1060   43.4990 C   0  0  0  0  0  0  0  0  0  0  0  0
   44.1700   36.9210   42.5850 C   0  0  0  0  0  0  0  0  0  0  0  0
   44.2530   35.8190   41.7230 C   0  0  0  0  0  0  0  0  0  0  0  0
   45.3290   34.9940   41.8080 N   0  0  0  0  0  0  0  0  0  0  0  0
   46.3180   35.2160   42.7090 C   0  0  0  0  0  0  0  0  0  0  0  0
   46.2560   36.2630   43.5390 N   0  0  0  0  0  0  0  0  0  0  0  0
   43.3270   37.5590   42.5110 H   0  0  0  0  0  0  0  0  0  0  0  0
   43.4800   35.6120   40.9920 H   0  0  0  0  0  0  0  0  0  0  0  0
   48.9010   36.2640   41.5310 Cl  0  0  0  0  0  0  0  0  0  0  0  0
   48.6580   34.6910   42.2100 C   0  0  0  0  0  0  0  0  0  0  0  0
   47.4530   34.2670   42.7320 C   0  0  0  0  0  0  0  0  0  0  0  0
   47.2260   33.0270   43.2750 C   0  0  0  0  0  0  0  0  0  0  0  0
   48.2990   32.1740   43.2810 C   0  0  0  0  0  0  0  0  0  0  0  0
   49.5420   32.4710   42.7960 C   0  0  0  0  0  0  0  0  0  0  0  0
   49.6790   33.7550   42.2620 C   0  0  0  0  0  0  0  0  0  0  0  0
   46.2670   32.7350   43.6730 H   0  0  0  0  0  0  0  0  0  0  0  0
   48.2000   31.1620   43.6980 H   0  0  0  0  0  0  0  0  0  0  0  0
   50.3570   31.7760   42.8190 H   0  0  0  0  0  0  0  0  0  0  0  0
   50.6440   34.0350   41.8670 H   0  0  0  0  0  0  0  0  0  0  0  0
   45.1530   38.2560   44.4110 C   0  0  0  0  0  3  0  0  0  0  0  0
   45.1110   39.4560   43.9070 C   0  0  0  0  0  3  0  0  0  0  0  0
   45.0360   40.6440   44.7910 C   0  0  0  0  0  0  0  0  0  0  0  0
   44.4480   40.4600   45.7100 H   0  0  0  0  0  0  0  0  0  0  0  0
   46.1010   40.8790   45.0860 H   0  0  0  0  0  0  0  0  0  0  0  0
   44.5720   41.7750   44.0160 N   0  0  0  0  0  0  0  0  0  0  0  0
   44.3600   41.6300   43.0140 H   0  0  0  0  0  0  0  0  0  0  0  0
   44.4430   43.0130   44.7040 C   0  0  0  0  0  0  0  0  0  0  0  0
   45.4890   43.6080   45.2960 N   0  0  0  0  0  0  0  0  0  0  0  0
   45.4570   44.7630   45.9570 C   0  0  0  0  0  3  0  0  0  0  0  0
   44.2930   45.4000   46.0490 N   0  0  0  0  0  0  0  0  0  0  0  0
   43.1610   44.8930   45.4890 C   0  0  0  0  0  0  0  0  0  0  0  0
   41.9880   45.6080   45.6270 C   0  0  0  0  0  3  0  0  0  0  0  0
   40.8860   45.0330   45.0340 C   0  0  0  0  0  0  0  0  0  0  0  0
   39.9420   45.5710   45.1220 H   0  0  0  0  0  0  0  0  0  0  0  0
   40.8860   43.8440   44.3460 C   0  0  0  0  0  0  0  0  0  0  0  0
   39.9870   43.4320   43.8960 H   0  0  0  0  0  0  0  0  0  0  0  0
   42.1060   43.1900   44.2550 C   0  0  0  0  0  3  0  0  0  0  0  0
   43.2520   43.6940   44.8170 C   0  0  0  0  0  0  0  0  0  0  0  0
  1  6  1  0  0  0  0
  1 20  1  0  0  0  0
  2  1  2  0  0  0  0
  3  4  2  0  0  0  0
  3  2  1  0  0  0  0
  4  5  1  0  0  0  0
  5 11  1  0  0  0  0
  5  6  2  0  0  0  0
  7  2  1  0  0  0  0
  8  3  1  0  0  0  0
  9 10  1  0  0  0  0
 10 15  2  0  0  0  0
 10 11  1  0  0  0  0
 11 12  2  0  0  0  0
 12 13  1  0  0  0  0
 12 16  1  0  0  0  0
 13 17  1  0  0  0  0
 14 18  1  0  0  0  0
 14 13  2  0  0  0  0
 15 14  1  0  0  0  0
 19 15  1  0  0  0  0
 21 20  2  0  0  0  0
 21 22  1  0  0  0  0
 22 24  1  0  0  0  0
 22 23  1  0  0  0  0
 25 27  1  0  0  0  0
 25 22  1  0  0  0  0
 26 25  1  0  0  0  0
 27 38  2  0  0  0  0
 27 28  1  0  0  0  0
 28 29  2  0  0  0  0
 29 30  1  0  0  0  0
 31 32  1  0  0  0  0
 31 30  2  0  0  0  0
 33 34  1  0  0  0  0
 33 32  2  0  0  0  0
 35 33  1  0  0  0  0
 36 35  1  0  0  0  0
 37 35  2  0  0  0  0
 37 38  1  0  0  0  0
 38 31  1  0  0  0  0
M  END
>  <minimizedAffinity>
1.64925468

>  <minimizedRMSD>
1.32165599

$$$$
