
 OpenBabel03252508003D

 32 35  0  0  1  0  0  0  0  0999 V2000
   46.3590   34.7620   43.2260 C   0  0  0  0  0  0  0  0  0  0  0  0
   45.3800   35.7860   43.4800 C   0  0  0  0  0  0  0  0  0  0  0  0
   44.6420   35.6600   44.6550 C   0  0  0  0  0  0  0  0  0  0  0  0
   44.8820   34.6040   45.4690 N   0  0  0  0  0  0  0  0  0  0  0  0
   45.8310   33.6590   45.1690 C   0  0  0  0  0  0  0  0  0  0  0  0
   46.5740   33.7110   44.0710 N   0  0  0  0  0  0  0  0  0  0  0  0
   45.2670   36.5740   42.7800 H   0  0  0  0  0  0  0  0  0  0  0  0
   43.9040   36.4080   44.8740 H   0  0  0  0  0  0  0  0  0  0  0  0
   46.0390   32.5280   46.1200 C   0  0  1  0  0  0  0  0  0  0  0  0
   46.8330   32.7800   47.3800 C   0  0  0  0  0  0  0  0  0  0  0  0
   45.3340   32.6730   47.4090 C   0  0  1  0  0  0  0  0  0  0  0  0
   46.1230   31.5200   45.6690 H   0  0  0  0  0  0  0  0  0  0  0  0
   47.4450   31.9220   47.7300 H   0  0  0  0  0  0  0  0  0  0  0  0
   47.3310   33.7800   47.3820 H   0  0  0  0  0  0  0  0  0  0  0  0
   44.9660   31.7680   47.9520 H   0  0  0  0  0  0  0  0  0  0  0  0
   44.6910   33.9500   47.7400 N   0  0  0  0  0  0  0  0  0  0  0  0
   45.3600   34.6120   48.2040 H   0  0  0  0  0  0  0  0  0  0  0  0
   43.9550   33.7520   48.4660 H   0  0  0  0  0  0  0  0  0  0  0  0
   47.0920   34.8870   41.9940 C   0  0  2  0  0  3  0  0  0  0  0  0
   48.1080   35.6930   41.9040 O   0  0  0  0  0  1  0  0  0  0  0  0
   47.0150   34.3040   40.6580 C   0  0  0  0  0  0  0  0  0  0  0  0
   48.1180   34.3170   39.8950 N   0  0  0  0  0  0  0  0  0  0  0  0
   48.1470   33.7940   38.6290 C   0  0  0  0  0  3  0  0  0  0  0  0
   47.0660   33.2410   38.0850 N   0  0  0  0  0  0  0  0  0  0  0  0
   45.8900   33.1720   38.7710 C   0  0  0  0  0  0  0  0  0  0  0  0
   44.7520   32.6050   38.2480 C   0  0  0  0  0  3  0  0  0  0  0  0
   43.5770   32.5450   38.9670 C   0  0  0  0  0  0  0  0  0  0  0  0
   42.7610   32.0810   38.4550 H   0  0  0  0  0  0  0  0  0  0  0  0
   43.6030   33.0900   40.2520 C   0  0  0  0  0  0  0  0  0  0  0  0
   42.6720   33.0290   40.7900 H   0  0  0  0  0  0  0  0  0  0  0  0
   44.7640   33.6420   40.7200 C   0  0  0  0  0  3  0  0  0  0  0  0
   45.9450   33.7170   40.0300 C   0  0  0  0  0  0  0  0  0  0  0  0
  1  2  2  0  0  0  0
  1  6  1  0  0  0  0
  2  3  1  0  0  0  0
  3  8  1  0  0  0  0
  3  4  2  0  0  0  0
  5  4  1  0  0  0  0
  5  9  1  0  0  0  0
  6  5  2  0  0  0  0
  7  2  1  0  0  0  0
  9 12  1  6  0  0  0
  9 10  1  0  0  0  0
  9 11  1  0  0  0  0
 10 14  1  0  0  0  0
 10 11  1  0  0  0  0
 10 13  1  0  0  0  0
 11 16  1  0  0  0  0
 11 15  1  1  0  0  0
 16 17  1  0  0  0  0
 16 18  1  0  0  0  0
 19 20  1  6  0  0  0
 19  1  1  0  0  0  0
 21 19  1  0  0  0  0
 22 21  2  0  0  0  0
 23 22  1  0  0  0  0
 24 23  2  0  0  0  0
 24 25  1  0  0  0  0
 25 32  1  0  0  0  0
 26 25  2  0  0  0  0
 26 27  1  0  0  0  0
 27 29  2  0  0  0  0
 28 27  1  0  0  0  0
 29 31  1  0  0  0  0
 29 30  1  0  0  0  0
 32 21  1  0  0  0  0
 32 31  2  0  0  0  0
M  END
>  <minimizedAffinity>
-6.19723463

>  <minimizedRMSD>
0.573740959

$$$$
