
 OpenBabel03242517493D

 46 50  0  0  0  0  0  0  0  0999 V2000
   39.1730   29.6270   41.5350 C   0  0  0  0  0  0  0  0  0  0  0  0
   37.8190   29.6910   41.8740 C   0  0  0  0  0  0  0  0  0  0  0  0
   37.3690   28.8500   42.8630 C   0  0  0  0  0  0  0  0  0  0  0  0
   38.2500   28.0060   43.4590 N   0  0  0  0  0  0  0  0  0  0  0  0
   39.5620   27.9700   43.1040 C   0  0  0  0  0  0  0  0  0  0  0  0
   40.0440   28.7620   42.1550 N   0  0  0  0  0  0  0  0  0  0  0  0
   39.5890   30.2720   40.7540 H   0  0  0  0  0  0  0  0  0  0  0  0
   36.3220   28.8780   43.1470 H   0  0  0  0  0  0  0  0  0  0  0  0
   40.4380   27.0150   43.8120 C   0  0  0  0  0  0  0  0  0  0  0  0
   40.3820   27.2740   44.8990 H   0  0  0  0  0  0  0  0  0  0  0  0
   41.4800   27.0670   43.5040 H   0  0  0  0  0  0  0  0  0  0  0  0
   39.8990   25.5840   43.6800 C   0  0  0  0  0  0  0  0  0  0  0  0
   40.5500   24.8900   44.2500 H   0  0  0  0  0  0  0  0  0  0  0  0
   38.8690   25.5110   44.0400 H   0  0  0  0  0  0  0  0  0  0  0  0
   40.0250   25.2330   42.2400 C   0  0  0  0  0  0  0  0  0  0  0  0
   41.1600   25.3030   41.5220 N   0  0  0  0  0  0  0  0  0  0  0  0
   41.2240   24.9740   40.2210 C   0  0  0  0  0  3  0  0  0  0  0  0
   40.1400   24.5470   39.5530 N   0  0  0  0  0  0  0  0  0  0  0  0
   38.9580   24.4480   40.2050 C   0  0  0  0  0  0  0  0  0  0  0  0
   37.8750   24.0060   39.4780 C   0  0  0  0  0  3  0  0  0  0  0  0
   36.6570   23.8920   40.1040 C   0  0  0  0  0  0  0  0  0  0  0  0
   35.7590   23.5520   39.5990 H   0  0  0  0  0  0  0  0  0  0  0  0
   36.5750   24.2240   41.4290 C   0  0  0  0  0  0  0  0  0  0  0  0
   35.6180   24.1350   41.9240 H   0  0  0  0  0  0  0  0  0  0  0  0
   37.6560   24.6700   42.1710 C   0  0  0  0  0  3  0  0  0  0  0  0
   38.8950   24.7880   41.5460 C   0  0  0  0  0  0  0  0  0  0  0  0
   36.7250   30.8120   41.0590 S   0  0  0  0  0  0  0  0  0  0  0  0
   36.7800   30.5700   39.3070 C   0  0  0  0  0  0  0  0  0  0  0  0
   36.0890   29.5590   38.6550 C   0  0  0  0  0  0  0  0  0  0  0  0
   36.1850   29.4380   37.2760 C   0  0  0  0  0  0  0  0  0  0  0  0
   36.9490   30.2950   36.5380 C   0  0  0  0  0  0  0  0  0  0  0  0
   37.6330   31.2980   37.1950 C   0  0  0  0  0  0  0  0  0  0  0  0
   37.5580   31.4460   38.5670 C   0  0  0  0  0  0  0  0  0  0  0  0
   35.4930   28.8910   39.2480 H   0  0  0  0  0  0  0  0  0  0  0  0
   35.6040   28.6100   36.8650 H   0  0  0  0  0  0  0  0  0  0  0  0
   36.9530   30.1120   35.4900 H   0  0  0  0  0  0  0  0  0  0  0  0
   38.2270   31.9570   36.5710 H   0  0  0  0  0  0  0  0  0  0  0  0
   38.2850   32.5090   39.2420 C   0  0  0  0  0  0  0  0  0  0  0  0
   37.7320   33.6800   39.6580 C   0  0  0  0  0  0  0  0  0  0  0  0
   38.4490   34.6890   40.3050 C   0  0  0  0  0  0  0  0  0  0  0  0
   39.7580   34.4930   40.5280 N   0  0  0  0  0  0  0  0  0  0  0  0
   40.3150   33.3320   40.1170 C   0  0  0  0  0  0  0  0  0  0  0  0
   39.6070   32.3660   39.4920 N   0  0  0  0  0  0  0  0  0  0  0  0
   36.6690   33.8510   39.4830 H   0  0  0  0  0  0  0  0  0  0  0  0
   37.9590   35.5980   40.6140 H   0  0  0  0  0  0  0  0  0  0  0  0
   41.3700   33.0380   40.2330 H   0  0  0  0  0  0  0  0  0  0  0  0
  1  2  2  0  0  0  0
  1  6  1  0  0  0  0
  2  3  1  0  0  0  0
  3  8  1  0  0  0  0
  3  4  2  0  0  0  0
  5  4  1  0  0  0  0
  5  9  1  0  0  0  0
  6  5  2  0  0  0  0
  7  1  1  0  0  0  0
  9 10  1  0  0  0  0
 11  9  1  0  0  0  0
 12  9  1  0  0  0  0
 12 14  1  0  0  0  0
 12 13  1  0  0  0  0
 15 12  1  0  0  0  0
 16 15  2  0  0  0  0
 17 16  1  0  0  0  0
 18 19  1  0  0  0  0
 18 17  2  0  0  0  0
 19 26  1  0  0  0  0
 20 21  1  0  0  0  0
 20 19  2  0  0  0  0
 21 23  2  0  0  0  0
 22 21  1  0  0  0  0
 23 24  1  0  0  0  0
 23 25  1  0  0  0  0
 26 25  2  0  0  0  0
 26 15  1  0  0  0  0
 27  2  1  0  0  0  0
 28 27  1  0  0  0  0
 29 34  1  0  0  0  0
 29 28  1  0  0  0  0
 30 29  2  0  0  0  0
 31 32  2  0  0  0  0
 31 30  1  0  0  0  0
 32 33  1  0  0  0  0
 33 38  1  0  0  0  0
 33 28  2  0  0  0  0
 35 30  1  0  0  0  0
 36 31  1  0  0  0  0
 37 32  1  0  0  0  0
 38 43  2  0  0  0  0
 38 39  1  0  0  0  0
 39 40  2  0  0  0  0
 40 41  1  0  0  0  0
 40 45  1  0  0  0  0
 42 46  1  0  0  0  0
 42 41  2  0  0  0  0
 43 42  1  0  0  0  0
 44 39  1  0  0  0  0
M  END
>  <minimizedAffinity>
-6.95676374

$$$$

 OpenBabel03242517493D

 46 50  0  0  0  0  0  0  0  0999 V2000
   39.2200   30.8650   41.4520 C   0  0  0  0  0  0  0  0  0  0  0  0
   38.2580   31.0900   40.4630 C   0  0  0  0  0  0  0  0  0  0  0  0
   37.0410   30.4690   40.6060 C   0  0  0  0  0  0  0  0  0  0  0  0
   36.8310   29.6750   41.6870 N   0  0  0  0  0  0  0  0  0  0  0  0
   37.7900   29.4780   42.6300 C   0  0  0  0  0  0  0  0  0  0  0  0
   38.9810   30.0560   42.5370 N   0  0  0  0  0  0  0  0  0  0  0  0
   40.2080   31.3330   41.3910 H   0  0  0  0  0  0  0  0  0  0  0  0
   36.2740   30.6260   39.8540 H   0  0  0  0  0  0  0  0  0  0  0  0
   37.4620   28.5940   43.7670 C   0  0  0  0  0  0  0  0  0  0  0  0
   36.6730   29.1170   44.3620 H   0  0  0  0  0  0  0  0  0  0  0  0
   38.3070   28.3960   44.4230 H   0  0  0  0  0  0  0  0  0  0  0  0
   36.8350   27.2850   43.2720 C   0  0  0  0  0  0  0  0  0  0  0  0
   36.2120   26.8460   44.0780 H   0  0  0  0  0  0  0  0  0  0  0  0
   36.2280   27.4460   42.3770 H   0  0  0  0  0  0  0  0  0  0  0  0
   37.9710   26.3540   43.0310 C   0  0  0  0  0  0  0  0  0  0  0  0
   39.1870   26.4540   43.5960 N   0  0  0  0  0  0  0  0  0  0  0  0
   40.1820   25.5870   43.3460 C   0  0  0  0  0  3  0  0  0  0  0  0
   40.0150   24.5530   42.5060 N   0  0  0  0  0  0  0  0  0  0  0  0
   38.8190   24.3820   41.8960 C   0  0  0  0  0  0  0  0  0  0  0  0
   38.6960   23.3090   41.0430 C   0  0  0  0  0  3  0  0  0  0  0  0
   37.4970   23.1010   40.4050 C   0  0  0  0  0  0  0  0  0  0  0  0
   37.3240   22.2790   39.7190 H   0  0  0  0  0  0  0  0  0  0  0  0
   36.4730   23.9750   40.6480 C   0  0  0  0  0  0  0  0  0  0  0  0
   35.5280   23.8150   40.1480 H   0  0  0  0  0  0  0  0  0  0  0  0
   36.5830   25.0600   41.5040 C   0  0  0  0  0  3  0  0  0  0  0  0
   37.7940   25.2780   42.1560 C   0  0  0  0  0  0  0  0  0  0  0  0
   38.5940   32.1350   39.0800 S   0  0  0  0  0  0  0  0  0  0  0  0
   39.4520   33.5940   39.6000 C   0  0  0  0  0  0  0  0  0  0  0  0
   38.8270   34.6640   40.2250 C   0  0  0  0  0  0  0  0  0  0  0  0
   39.5720   35.7710   40.6020 C   0  0  0  0  0  0  0  0  0  0  0  0
   40.9150   35.8380   40.3720 C   0  0  0  0  0  0  0  0  0  0  0  0
   41.5290   34.7690   39.7500 C   0  0  0  0  0  0  0  0  0  0  0  0
   40.8150   33.6510   39.3610 C   0  0  0  0  0  0  0  0  0  0  0  0
   37.7690   34.5980   40.3990 H   0  0  0  0  0  0  0  0  0  0  0  0
   38.9830   36.5550   41.0850 H   0  0  0  0  0  0  0  0  0  0  0  0
   41.3890   36.7310   40.7000 H   0  0  0  0  0  0  0  0  0  0  0  0
   42.5970   34.8620   39.5860 H   0  0  0  0  0  0  0  0  0  0  0  0
   41.4780   32.5350   38.7080 C   0  0  0  0  0  0  0  0  0  0  0  0
   41.5990   32.3880   37.3610 C   0  0  0  0  0  0  0  0  0  0  0  0
   42.2410   31.3060   36.7530 C   0  0  0  0  0  0  0  0  0  0  0  0
   42.7680   30.3580   37.5430 N   0  0  0  0  0  0  0  0  0  0  0  0
   42.6520   30.4960   38.8820 C   0  0  0  0  0  0  0  0  0  0  0  0
   42.0270   31.5490   39.4540 N   0  0  0  0  0  0  0  0  0  0  0  0
   41.1750   33.1530   36.7090 H   0  0  0  0  0  0  0  0  0  0  0  0
   42.3080   31.2410   35.6790 H   0  0  0  0  0  0  0  0  0  0  0  0
   43.0340   29.7990   39.6450 H   0  0  0  0  0  0  0  0  0  0  0  0
  1  6  1  0  0  0  0
  2  3  1  0  0  0  0
  2  1  2  0  0  0  0
  3  4  2  0  0  0  0
  4  5  1  0  0  0  0
  5  9  1  0  0  0  0
  6  5  2  0  0  0  0
  7  1  1  0  0  0  0
  8  3  1  0  0  0  0
  9 10  1  0  0  0  0
  9 11  1  0  0  0  0
 12  9  1  0  0  0  0
 12 13  1  0  0  0  0
 14 12  1  0  0  0  0
 15 12  1  0  0  0  0
 15 16  1  0  0  0  0
 17 16  2  0  0  0  0
 18 17  1  0  0  0  0
 19 26  1  0  0  0  0
 19 18  2  0  0  0  0
 20 19  1  0  0  0  0
 21 23  1  0  0  0  0
 21 20  2  0  0  0  0
 22 21  1  0  0  0  0
 23 25  2  0  0  0  0
 24 23  1  0  0  0  0
 25 26  1  0  0  0  0
 26 15  2  0  0  0  0
 27 28  1  0  0  0  0
 27  2  1  0  0  0  0
 28 29  1  0  0  0  0
 29 34  1  0  0  0  0
 29 30  2  0  0  0  0
 30 35  1  0  0  0  0
 31 30  1  0  0  0  0
 31 36  1  0  0  0  0
 32 31  2  0  0  0  0
 33 28  2  0  0  0  0
 33 32  1  0  0  0  0
 37 32  1  0  0  0  0
 38 33  1  0  0  0  0
 38 43  1  0  0  0  0
 39 38  2  0  0  0  0
 40 39  1  0  0  0  0
 40 41  2  0  0  0  0
 41 42  1  0  0  0  0
 42 43  2  0  0  0  0
 42 46  1  0  0  0  0
 44 39  1  0  0  0  0
 45 40  1  0  0  0  0
M  END
>  <minimizedAffinity>
-6.92860174

$$$$

 OpenBabel03242517493D

 46 50  0  0  0  0  0  0  0  0999 V2000
   40.8530   29.3790   40.8710 C   0  0  0  0  0  0  0  0  0  0  0  0
   40.7720   30.7080   41.2950 C   0  0  0  0  0  0  0  0  0  0  0  0
   39.9980   30.9770   42.3990 C   0  0  0  0  0  0  0  0  0  0  0  0
   39.3560   29.9540   43.0170 N   0  0  0  0  0  0  0  0  0  0  0  0
   39.4580   28.6720   42.5770 C   0  0  0  0  0  0  0  0  0  0  0  0
   40.1920   28.3600   41.5160 N   0  0  0  0  0  0  0  0  0  0  0  0
   41.4540   29.1030   39.9970 H   0  0  0  0  0  0  0  0  0  0  0  0
   39.9170   32.0010   42.7520 H   0  0  0  0  0  0  0  0  0  0  0  0
   38.7180   27.6310   43.3190 C   0  0  0  0  0  0  0  0  0  0  0  0
   38.9800   27.7610   44.3990 H   0  0  0  0  0  0  0  0  0  0  0  0
   38.9800   26.6170   43.0260 H   0  0  0  0  0  0  0  0  0  0  0  0
   37.2050   27.8590   43.2110 C   0  0  0  0  0  0  0  0  0  0  0  0
   36.6730   27.1060   43.8270 H   0  0  0  0  0  0  0  0  0  0  0  0
   36.9290   28.8670   43.5320 H   0  0  0  0  0  0  0  0  0  0  0  0
   36.8550   27.5990   41.7880 C   0  0  0  0  0  0  0  0  0  0  0  0
   36.4810   28.5350   40.8990 N   0  0  0  0  0  0  0  0  0  0  0  0
   36.1740   28.2500   39.6230 C   0  0  0  0  0  3  0  0  0  0  0  0
   36.2250   26.9920   39.1540 N   0  0  0  0  0  0  0  0  0  0  0  0
   36.5940   25.9910   39.9880 C   0  0  0  0  0  0  0  0  0  0  0  0
   36.6310   24.7190   39.4620 C   0  0  0  0  0  3  0  0  0  0  0  0
   37.0010   23.6750   40.2760 C   0  0  0  0  0  0  0  0  0  0  0  0
   37.0530   22.6460   39.9360 H   0  0  0  0  0  0  0  0  0  0  0  0
   37.3160   23.9480   41.5790 C   0  0  0  0  0  0  0  0  0  0  0  0
   37.6070   23.1290   42.2220 H   0  0  0  0  0  0  0  0  0  0  0  0
   37.2820   25.2230   42.1200 C   0  0  0  0  0  3  0  0  0  0  0  0
   36.9090   26.2880   41.3030 C   0  0  0  0  0  0  0  0  0  0  0  0
   41.6320   31.9940   40.4460 S   0  0  0  0  0  0  0  0  0  0  0  0
   40.6450   33.4610   40.3800 C   0  0  0  0  0  0  0  0  0  0  0  0
   39.2850   33.4530   40.1040 C   0  0  0  0  0  0  0  0  0  0  0  0
   38.5820   34.6490   40.0720 C   0  0  0  0  0  0  0  0  0  0  0  0
   39.1980   35.8440   40.3050 C   0  0  0  0  0  0  0  0  0  0  0  0
   40.5520   35.8420   40.5780 C   0  0  0  0  0  0  0  0  0  0  0  0
   41.2810   34.6690   40.6180 C   0  0  0  0  0  0  0  0  0  0  0  0
   38.8130   32.5060   39.9220 H   0  0  0  0  0  0  0  0  0  0  0  0
   37.5200   34.5290   39.8470 H   0  0  0  0  0  0  0  0  0  0  0  0
   38.5670   36.6980   40.2560 H   0  0  0  0  0  0  0  0  0  0  0  0
   41.0020   36.8120   40.7580 H   0  0  0  0  0  0  0  0  0  0  0  0
   42.7050   34.6870   40.9070 C   0  0  0  0  0  0  0  0  0  0  0  0
   43.2460   35.0330   42.1070 C   0  0  0  0  0  0  0  0  0  0  0  0
   44.6190   35.0440   42.3640 C   0  0  0  0  0  0  0  0  0  0  0  0
   45.4520   34.6940   41.3720 N   0  0  0  0  0  0  0  0  0  0  0  0
   44.9230   34.3490   40.1770 C   0  0  0  0  0  0  0  0  0  0  0  0
   43.5920   34.3450   39.9440 N   0  0  0  0  0  0  0  0  0  0  0  0
   42.5790   35.3180   42.9210 H   0  0  0  0  0  0  0  0  0  0  0  0
   44.9930   35.3250   43.3350 H   0  0  0  0  0  0  0  0  0  0  0  0
   45.4830   34.0430   39.2790 H   0  0  0  0  0  0  0  0  0  0  0  0
  1  2  2  0  0  0  0
  1  6  1  0  0  0  0
  2  3  1  0  0  0  0
  3  8  1  0  0  0  0
  3  4  2  0  0  0  0
  5  4  1  0  0  0  0
  5  9  1  0  0  0  0
  6  5  2  0  0  0  0
  7  1  1  0  0  0  0
  9 10  1  0  0  0  0
 11  9  1  0  0  0  0
 12  9  1  0  0  0  0
 12 14  1  0  0  0  0
 12 13  1  0  0  0  0
 15 12  1  0  0  0  0
 16 15  2  0  0  0  0
 17 16  1  0  0  0  0
 18 17  2  0  0  0  0
 18 19  1  0  0  0  0
 19 26  1  0  0  0  0
 20 19  2  0  0  0  0
 20 21  1  0  0  0  0
 21 23  2  0  0  0  0
 22 21  1  0  0  0  0
 23 25  1  0  0  0  0
 23 24  1  0  0  0  0
 26 15  1  0  0  0  0
 26 25  2  0  0  0  0
 27  2  1  0  0  0  0
 28 27  1  0  0  0  0
 28 33  1  0  0  0  0
 29 28  2  0  0  0  0
 30 29  1  0  0  0  0
 30 31  2  0  0  0  0
 31 32  1  0  0  0  0
 32 33  2  0  0  0  0
 32 37  1  0  0  0  0
 33 38  1  0  0  0  0
 34 29  1  0  0  0  0
 35 30  1  0  0  0  0
 36 31  1  0  0  0  0
 38 39  1  0  0  0  0
 39 40  2  0  0  0  0
 39 44  1  0  0  0  0
 40 45  1  0  0  0  0
 41 40  1  0  0  0  0
 42 41  2  0  0  0  0
 43 42  1  0  0  0  0
 43 38  2  0  0  0  0
 46 42  1  0  0  0  0
M  END
>  <minimizedAffinity>
-6.76940012

$$$$

 OpenBabel03242517493D

 46 50  0  0  0  0  0  0  0  0999 V2000
   36.2040   28.7150   41.3740 C   0  0  0  0  0  0  0  0  0  0  0  0
   37.2070   28.5660   42.3350 C   0  0  0  0  0  0  0  0  0  0  0  0
   38.1130   29.5910   42.4760 C   0  0  0  0  0  0  0  0  0  0  0  0
   37.9920   30.6870   41.6840 N   0  0  0  0  0  0  0  0  0  0  0  0
   37.0030   30.7990   40.7590 C   0  0  0  0  0  0  0  0  0  0  0  0
   36.1050   29.8370   40.5850 N   0  0  0  0  0  0  0  0  0  0  0  0
   35.4550   27.9320   41.2170 H   0  0  0  0  0  0  0  0  0  0  0  0
   38.9030   29.5020   43.2150 H   0  0  0  0  0  0  0  0  0  0  0  0
   36.9600   32.0310   39.9460 C   0  0  0  0  0  0  0  0  0  0  0  0
   37.1430   32.8830   40.6470 H   0  0  0  0  0  0  0  0  0  0  0  0
   36.0050   32.1960   39.4530 H   0  0  0  0  0  0  0  0  0  0  0  0
   38.1100   32.0510   38.9310 C   0  0  0  0  0  0  0  0  0  0  0  0
   38.6930   31.1100   39.0130 H   0  0  0  0  0  0  0  0  0  0  0  0
   37.7390   32.1710   37.9100 H   0  0  0  0  0  0  0  0  0  0  0  0
   39.0030   33.1660   39.3470 C   0  0  0  0  0  0  0  0  0  0  0  0
   38.7050   34.0910   40.2770 N   0  0  0  0  0  0  0  0  0  0  0  0
   39.5460   35.0800   40.6190 C   0  0  0  0  0  3  0  0  0  0  0  0
   40.7540   35.2040   40.0440 N   0  0  0  0  0  0  0  0  0  0  0  0
   41.1290   34.3110   39.0980 C   0  0  0  0  0  0  0  0  0  0  0  0
   42.3760   34.4790   38.5370 C   0  0  0  0  0  3  0  0  0  0  0  0
   42.7940   33.5930   37.5730 C   0  0  0  0  0  0  0  0  0  0  0  0
   43.7600   33.6600   37.0840 H   0  0  0  0  0  0  0  0  0  0  0  0
   41.9490   32.5790   37.2120 C   0  0  0  0  0  0  0  0  0  0  0  0
   42.2750   31.8820   36.4540 H   0  0  0  0  0  0  0  0  0  0  0  0
   40.6920   32.4000   37.7680 C   0  0  0  0  0  3  0  0  0  0  0  0
   40.2600   33.2920   38.7470 C   0  0  0  0  0  0  0  0  0  0  0  0
   37.3090   27.1130   43.3340 S   0  0  0  0  0  0  0  0  0  0  0  0
   37.6180   25.6900   42.3290 C   0  0  0  0  0  0  0  0  0  0  0  0
   36.6090   24.8970   41.8000 C   0  0  0  0  0  0  0  0  0  0  0  0
   36.9360   23.7970   41.0200 C   0  0  0  0  0  0  0  0  0  0  0  0
   38.2350   23.4720   40.7560 C   0  0  0  0  0  0  0  0  0  0  0  0
   39.2320   24.2670   41.2850 C   0  0  0  0  0  0  0  0  0  0  0  0
   38.9400   25.3690   42.0670 C   0  0  0  0  0  0  0  0  0  0  0  0
   35.5920   25.1640   42.0160 H   0  0  0  0  0  0  0  0  0  0  0  0
   36.0680   23.2430   40.6550 H   0  0  0  0  0  0  0  0  0  0  0  0
   38.3730   22.6110   40.1480 H   0  0  0  0  0  0  0  0  0  0  0  0
   40.2490   23.9740   41.0510 H   0  0  0  0  0  0  0  0  0  0  0  0
   40.0030   26.1950   42.6150 C   0  0  0  0  0  0  0  0  0  0  0  0
   40.5090   26.0710   43.8720 C   0  0  0  0  0  0  0  0  0  0  0  0
   41.5310   26.8750   44.3790 C   0  0  0  0  0  0  0  0  0  0  0  0
   42.0430   27.8260   43.5830 N   0  0  0  0  0  0  0  0  0  0  0  0
   41.5460   27.9570   42.3330 C   0  0  0  0  0  0  0  0  0  0  0  0
   40.5560   27.1690   41.8570 N   0  0  0  0  0  0  0  0  0  0  0  0
   40.1010   25.3010   44.5280 H   0  0  0  0  0  0  0  0  0  0  0  0
   41.8950   26.7310   45.3840 H   0  0  0  0  0  0  0  0  0  0  0  0
   41.8690   28.6890   41.5760 H   0  0  0  0  0  0  0  0  0  0  0  0
  1  2  1  0  0  0  0
  2  3  2  0  0  0  0
  2 27  1  0  0  0  0
  3  8  1  0  0  0  0
  4  3  1  0  0  0  0
  5  4  2  0  0  0  0
  6  5  1  0  0  0  0
  6  1  2  0  0  0  0
  7  1  1  0  0  0  0
  9 10  1  0  0  0  0
  9  5  1  0  0  0  0
 11  9  1  0  0  0  0
 12 13  1  0  0  0  0
 12 15  1  0  0  0  0
 12  9  1  0  0  0  0
 14 12  1  0  0  0  0
 15 16  1  0  0  0  0
 16 17  2  0  0  0  0
 18 17  1  0  0  0  0
 19 18  2  0  0  0  0
 20 19  1  0  0  0  0
 21 20  2  0  0  0  0
 22 21  1  0  0  0  0
 23 21  1  0  0  0  0
 23 25  2  0  0  0  0
 24 23  1  0  0  0  0
 25 26  1  0  0  0  0
 26 19  1  0  0  0  0
 26 15  2  0  0  0  0
 28 27  1  0  0  0  0
 29 34  1  0  0  0  0
 29 28  2  0  0  0  0
 30 29  1  0  0  0  0
 31 30  2  0  0  0  0
 31 32  1  0  0  0  0
 32 33  2  0  0  0  0
 33 28  1  0  0  0  0
 33 38  1  0  0  0  0
 35 30  1  0  0  0  0
 36 31  1  0  0  0  0
 37 32  1  0  0  0  0
 38 39  1  0  0  0  0
 39 40  2  0  0  0  0
 39 44  1  0  0  0  0
 40 45  1  0  0  0  0
 41 40  1  0  0  0  0
 42 41  2  0  0  0  0
 43 42  1  0  0  0  0
 43 38  2  0  0  0  0
 46 42  1  0  0  0  0
M  END
>  <minimizedAffinity>
-6.65747929

$$$$

 OpenBabel03242517493D

 46 50  0  0  0  0  0  0  0  0999 V2000
   39.5480   30.7470   42.3600 C   0  0  0  0  0  0  0  0  0  0  0  0
   40.8670   30.5080   41.9650 C   0  0  0  0  0  0  0  0  0  0  0  0
   41.3640   29.2390   42.1390 C   0  0  0  0  0  0  0  0  0  0  0  0
   40.5610   28.2870   42.6790 N   0  0  0  0  0  0  0  0  0  0  0  0
   39.2820   28.5540   43.0520 C   0  0  0  0  0  0  0  0  0  0  0  0
   38.7560   29.7640   42.9050 N   0  0  0  0  0  0  0  0  0  0  0  0
   39.0980   31.7390   42.2460 H   0  0  0  0  0  0  0  0  0  0  0  0
   42.3850   29.0240   41.8400 H   0  0  0  0  0  0  0  0  0  0  0  0
   38.4910   27.4500   43.6320 C   0  0  0  0  0  0  0  0  0  0  0  0
   38.4560   27.6260   44.7360 H   0  0  0  0  0  0  0  0  0  0  0  0
   38.9230   26.4660   43.4590 H   0  0  0  0  0  0  0  0  0  0  0  0
   37.0400   27.5050   43.1380 C   0  0  0  0  0  0  0  0  0  0  0  0
   36.4080   26.8520   43.7740 H   0  0  0  0  0  0  0  0  0  0  0  0
   36.6520   28.5270   43.1510 H   0  0  0  0  0  0  0  0  0  0  0  0
   37.0520   26.9180   41.7710 C   0  0  0  0  0  0  0  0  0  0  0  0
   37.6470   25.7610   41.4300 N   0  0  0  0  0  0  0  0  0  0  0  0
   37.6300   25.2720   40.1790 C   0  0  0  0  0  3  0  0  0  0  0  0
   37.0070   25.9200   39.1810 N   0  0  0  0  0  0  0  0  0  0  0  0
   36.3830   27.0930   39.4430 C   0  0  0  0  0  0  0  0  0  0  0  0
   35.7580   27.7200   38.3890 C   0  0  0  0  0  3  0  0  0  0  0  0
   35.1130   28.9130   38.6140 C   0  0  0  0  0  0  0  0  0  0  0  0
   34.6000   29.4660   37.8350 H   0  0  0  0  0  0  0  0  0  0  0  0
   35.1210   29.4260   39.8820 C   0  0  0  0  0  0  0  0  0  0  0  0
   34.6150   30.3630   40.0620 H   0  0  0  0  0  0  0  0  0  0  0  0
   35.7460   28.8040   40.9520 C   0  0  0  0  0  3  0  0  0  0  0  0
   36.4020   27.5950   40.7340 C   0  0  0  0  0  0  0  0  0  0  0  0
   41.8600   31.7910   41.2680 S   0  0  0  0  0  0  0  0  0  0  0  0
   42.0520   31.5480   39.5260 C   0  0  0  0  0  0  0  0  0  0  0  0
   42.8460   30.5500   38.9780 C   0  0  0  0  0  0  0  0  0  0  0  0
   42.9420   30.4260   37.5990 C   0  0  0  0  0  0  0  0  0  0  0  0
   42.2730   31.2680   36.7600 C   0  0  0  0  0  0  0  0  0  0  0  0
   41.4850   32.2580   37.3140 C   0  0  0  0  0  0  0  0  0  0  0  0
   41.3680   32.4080   38.6820 C   0  0  0  0  0  0  0  0  0  0  0  0
   43.3680   29.8950   39.6500 H   0  0  0  0  0  0  0  0  0  0  0  0
   43.5920   29.6100   37.2750 H   0  0  0  0  0  0  0  0  0  0  0  0
   42.4170   31.0860   35.7230 H   0  0  0  0  0  0  0  0  0  0  0  0
   40.9700   32.9050   36.6120 H   0  0  0  0  0  0  0  0  0  0  0  0
   40.5340   33.4570   39.2470 C   0  0  0  0  0  0  0  0  0  0  0  0
   40.9350   34.7410   39.4470 C   0  0  0  0  0  0  0  0  0  0  0  0
   40.1170   35.7330   39.9910 C   0  0  0  0  0  0  0  0  0  0  0  0
   38.8640   35.4010   40.3390 N   0  0  0  0  0  0  0  0  0  0  0  0
   38.4580   34.1270   40.1450 C   0  0  0  0  0  0  0  0  0  0  0  0
   39.2620   33.1780   39.6160 N   0  0  0  0  0  0  0  0  0  0  0  0
   41.9510   35.0230   39.1680 H   0  0  0  0  0  0  0  0  0  0  0  0
   40.4870   36.7370   40.1260 H   0  0  0  0  0  0  0  0  0  0  0  0
   37.4630   33.7160   40.3820 H   0  0  0  0  0  0  0  0  0  0  0  0
  1  6  1  0  0  0  0
  2  3  1  0  0  0  0
  2  1  2  0  0  0  0
  3  4  2  0  0  0  0
  4  5  1  0  0  0  0
  5  9  1  0  0  0  0
  6  5  2  0  0  0  0
  7  1  1  0  0  0  0
  8  3  1  0  0  0  0
  9 10  1  0  0  0  0
 11  9  1  0  0  0  0
 12 14  1  0  0  0  0
 12  9  1  0  0  0  0
 12 13  1  0  0  0  0
 15 12  1  0  0  0  0
 16 15  1  0  0  0  0
 17 16  2  0  0  0  0
 18 19  2  0  0  0  0
 18 17  1  0  0  0  0
 19 26  1  0  0  0  0
 20 21  2  0  0  0  0
 20 19  1  0  0  0  0
 21 23  1  0  0  0  0
 22 21  1  0  0  0  0
 23 24  1  0  0  0  0
 23 25  2  0  0  0  0
 26 25  1  0  0  0  0
 26 15  2  0  0  0  0
 27  2  1  0  0  0  0
 28 27  1  0  0  0  0
 29 28  1  0  0  0  0
 29 34  1  0  0  0  0
 30 29  2  0  0  0  0
 31 32  2  0  0  0  0
 31 30  1  0  0  0  0
 32 33  1  0  0  0  0
 33 38  1  0  0  0  0
 33 28  2  0  0  0  0
 35 30  1  0  0  0  0
 36 31  1  0  0  0  0
 37 32  1  0  0  0  0
 38 39  2  0  0  0  0
 38 43  1  0  0  0  0
 39 40  1  0  0  0  0
 40 45  1  0  0  0  0
 40 41  2  0  0  0  0
 42 41  1  0  0  0  0
 42 46  1  0  0  0  0
 43 42  2  0  0  0  0
 44 39  1  0  0  0  0
M  END
>  <minimizedAffinity>
-6.62859201

$$$$

 OpenBabel03242517493D

 46 50  0  0  0  0  0  0  0  0999 V2000
   39.6540   30.9650   42.4410 C   0  0  0  0  0  0  0  0  0  0  0  0
   40.9340   30.6950   41.9480 C   0  0  0  0  0  0  0  0  0  0  0  0
   41.3620   29.3890   41.9700 C   0  0  0  0  0  0  0  0  0  0  0  0
   40.5330   28.4340   42.4640 N   0  0  0  0  0  0  0  0  0  0  0  0
   39.2940   28.7330   42.9350 C   0  0  0  0  0  0  0  0  0  0  0  0
   38.8350   29.9780   42.9360 N   0  0  0  0  0  0  0  0  0  0  0  0
   39.2590   31.9870   42.4490 H   0  0  0  0  0  0  0  0  0  0  0  0
   42.3510   29.1500   41.5930 H   0  0  0  0  0  0  0  0  0  0  0  0
   38.4700   27.6220   43.4520 C   0  0  0  0  0  0  0  0  0  0  0  0
   38.5840   27.6290   44.5650 H   0  0  0  0  0  0  0  0  0  0  0  0
   38.7770   26.6440   43.0860 H   0  0  0  0  0  0  0  0  0  0  0  0
   36.9840   27.8710   43.1670 C   0  0  0  0  0  0  0  0  0  0  0  0
   36.3710   27.1510   43.7480 H   0  0  0  0  0  0  0  0  0  0  0  0
   36.6950   28.8950   43.4190 H   0  0  0  0  0  0  0  0  0  0  0  0
   36.7870   27.5610   41.7250 C   0  0  0  0  0  0  0  0  0  0  0  0
   36.5220   28.4670   40.7680 N   0  0  0  0  0  0  0  0  0  0  0  0
   36.3530   28.1380   39.4770 C   0  0  0  0  0  3  0  0  0  0  0  0
   36.4420   26.8630   39.0620 N   0  0  0  0  0  0  0  0  0  0  0  0
   36.7060   25.8910   39.9650 C   0  0  0  0  0  0  0  0  0  0  0  0
   36.7880   24.6000   39.4920 C   0  0  0  0  0  3  0  0  0  0  0  0
   37.0550   23.5840   40.3780 C   0  0  0  0  0  0  0  0  0  0  0  0
   37.1340   22.5440   40.0820 H   0  0  0  0  0  0  0  0  0  0  0  0
   37.2300   23.9030   41.6970 C   0  0  0  0  0  0  0  0  0  0  0  0
   37.4410   23.1050   42.3960 H   0  0  0  0  0  0  0  0  0  0  0  0
   37.1510   25.1970   42.1860 C   0  0  0  0  0  3  0  0  0  0  0  0
   36.8800   26.2330   41.2960 C   0  0  0  0  0  0  0  0  0  0  0  0
   41.9630   31.9840   41.3190 S   0  0  0  0  0  0  0  0  0  0  0  0
   42.2290   31.7740   39.5830 C   0  0  0  0  0  0  0  0  0  0  0  0
   43.1000   30.8330   39.0520 C   0  0  0  0  0  0  0  0  0  0  0  0
   43.2500   30.7310   37.6770 C   0  0  0  0  0  0  0  0  0  0  0  0
   42.5580   31.5400   36.8240 C   0  0  0  0  0  0  0  0  0  0  0  0
   41.6930   32.4740   37.3590 C   0  0  0  0  0  0  0  0  0  0  0  0
   41.5210   32.6000   38.7250 C   0  0  0  0  0  0  0  0  0  0  0  0
   43.6390   30.2030   39.7360 H   0  0  0  0  0  0  0  0  0  0  0  0
   43.9590   29.9600   37.3670 H   0  0  0  0  0  0  0  0  0  0  0  0
   42.7480   31.3790   35.7900 H   0  0  0  0  0  0  0  0  0  0  0  0
   41.1630   33.0960   36.6470 H   0  0  0  0  0  0  0  0  0  0  0  0
   40.6050   33.5890   39.2710 C   0  0  0  0  0  0  0  0  0  0  0  0
   40.9230   34.8900   39.5080 C   0  0  0  0  0  0  0  0  0  0  0  0
   40.0270   35.8230   40.0330 C   0  0  0  0  0  0  0  0  0  0  0  0
   38.7820   35.4140   40.3220 N   0  0  0  0  0  0  0  0  0  0  0  0
   38.4580   34.1230   40.0900 C   0  0  0  0  0  0  0  0  0  0  0  0
   39.3380   33.2320   39.5810 N   0  0  0  0  0  0  0  0  0  0  0  0
   41.9320   35.2350   39.2770 H   0  0  0  0  0  0  0  0  0  0  0  0
   40.3330   36.8440   40.2000 H   0  0  0  0  0  0  0  0  0  0  0  0
   37.4810   33.6520   40.2780 H   0  0  0  0  0  0  0  0  0  0  0  0
  1  7  1  0  0  0  0
  1  6  1  0  0  0  0
  2  3  1  0  0  0  0
  2  1  2  0  0  0  0
  3  4  2  0  0  0  0
  4  5  1  0  0  0  0
  5  6  2  0  0  0  0
  5  9  1  0  0  0  0
  8  3  1  0  0  0  0
  9 10  1  0  0  0  0
 11  9  1  0  0  0  0
 12 14  1  0  0  0  0
 12  9  1  0  0  0  0
 12 13  1  0  0  0  0
 15 12  1  0  0  0  0
 16 15  2  0  0  0  0
 17 16  1  0  0  0  0
 18 17  2  0  0  0  0
 18 19  1  0  0  0  0
 19 26  1  0  0  0  0
 20 19  2  0  0  0  0
 20 21  1  0  0  0  0
 21 23  2  0  0  0  0
 22 21  1  0  0  0  0
 23 25  1  0  0  0  0
 23 24  1  0  0  0  0
 26 15  1  0  0  0  0
 26 25  2  0  0  0  0
 27  2  1  0  0  0  0
 28 27  1  0  0  0  0
 29 28  1  0  0  0  0
 29 34  1  0  0  0  0
 30 29  2  0  0  0  0
 31 32  2  0  0  0  0
 31 30  1  0  0  0  0
 32 33  1  0  0  0  0
 33 38  1  0  0  0  0
 33 28  2  0  0  0  0
 35 30  1  0  0  0  0
 36 31  1  0  0  0  0
 37 32  1  0  0  0  0
 38 39  2  0  0  0  0
 38 43  1  0  0  0  0
 39 40  1  0  0  0  0
 40 45  1  0  0  0  0
 40 41  2  0  0  0  0
 42 46  1  0  0  0  0
 42 41  1  0  0  0  0
 43 42  2  0  0  0  0
 44 39  1  0  0  0  0
M  END
>  <minimizedAffinity>
-6.6053319

$$$$

 OpenBabel03242517493D

 46 50  0  0  0  0  0  0  0  0999 V2000
   36.2430   27.6780   37.9030 C   0  0  0  0  0  0  0  0  0  0  0  0
   37.3470   28.5300   37.9970 C   0  0  0  0  0  0  0  0  0  0  0  0
   37.4210   29.5750   37.1080 C   0  0  0  0  0  0  0  0  0  0  0  0
   36.4330   29.7290   36.1900 N   0  0  0  0  0  0  0  0  0  0  0  0
   35.3730   28.8810   36.1280 C   0  0  0  0  0  0  0  0  0  0  0  0
   35.2560   27.8560   36.9640 N   0  0  0  0  0  0  0  0  0  0  0  0
   36.1300   26.8280   38.5850 H   0  0  0  0  0  0  0  0  0  0  0  0
   38.2670   30.2540   37.1580 H   0  0  0  0  0  0  0  0  0  0  0  0
   34.3520   29.1340   35.0920 C   0  0  0  0  0  0  0  0  0  0  0  0
   34.5640   28.4260   34.2530 H   0  0  0  0  0  0  0  0  0  0  0  0
   34.3740   30.1470   34.6950 H   0  0  0  0  0  0  0  0  0  0  0  0
   32.9520   28.7820   35.6130 C   0  0  0  0  0  0  0  0  0  0  0  0
   32.5150   27.9790   34.9840 H   0  0  0  0  0  0  0  0  0  0  0  0
   32.9840   28.4620   36.6580 H   0  0  0  0  0  0  0  0  0  0  0  0
   32.1250   30.0020   35.4150 C   0  0  0  0  0  0  0  0  0  0  0  0
   32.1400   30.7790   34.3180 N   0  0  0  0  0  0  0  0  0  0  0  0
   31.3720   31.8730   34.1870 C   0  0  0  0  0  3  0  0  0  0  0  0
   30.5300   32.2600   35.1600 N   0  0  0  0  0  0  0  0  0  0  0  0
   30.4570   31.5300   36.2980 C   0  0  0  0  0  0  0  0  0  0  0  0
   29.5800   31.9660   37.2660 C   0  0  0  0  0  3  0  0  0  0  0  0
   29.4760   31.2520   38.4360 C   0  0  0  0  0  0  0  0  0  0  0  0
   28.8100   31.5320   39.2450 H   0  0  0  0  0  0  0  0  0  0  0  0
   30.2510   30.1350   38.5860 C   0  0  0  0  0  0  0  0  0  0  0  0
   30.1710   29.5710   39.5050 H   0  0  0  0  0  0  0  0  0  0  0  0
   31.1370   29.6860   37.6200 C   0  0  0  0  0  3  0  0  0  0  0  0
   31.2490   30.4020   36.4300 C   0  0  0  0  0  0  0  0  0  0  0  0
   38.6000   28.2740   39.2150 S   0  0  0  0  0  0  0  0  0  0  0  0
   37.8760   27.8170   40.7630 C   0  0  0  0  0  0  0  0  0  0  0  0
   37.5970   26.5040   41.1160 C   0  0  0  0  0  0  0  0  0  0  0  0
   37.0290   26.2290   42.3510 C   0  0  0  0  0  0  0  0  0  0  0  0
   36.7330   27.2240   43.2370 C   0  0  0  0  0  0  0  0  0  0  0  0
   37.0140   28.5280   42.8770 C   0  0  0  0  0  0  0  0  0  0  0  0
   37.5800   28.8350   41.6550 C   0  0  0  0  0  0  0  0  0  0  0  0
   37.8340   25.7300   40.4090 H   0  0  0  0  0  0  0  0  0  0  0  0
   36.8510   25.1660   42.5270 H   0  0  0  0  0  0  0  0  0  0  0  0
   36.3000   26.9040   44.1530 H   0  0  0  0  0  0  0  0  0  0  0  0
   36.7650   29.2880   43.6100 H   0  0  0  0  0  0  0  0  0  0  0  0
   37.8690   30.2130   41.2940 C   0  0  0  0  0  0  0  0  0  0  0  0
   37.0040   31.0420   40.6500 C   0  0  0  0  0  0  0  0  0  0  0  0
   37.3030   32.3640   40.3120 C   0  0  0  0  0  0  0  0  0  0  0  0
   38.5120   32.8440   40.6410 N   0  0  0  0  0  0  0  0  0  0  0  0
   39.3780   32.0270   41.2810 C   0  0  0  0  0  0  0  0  0  0  0  0
   39.0730   30.7500   41.6000 N   0  0  0  0  0  0  0  0  0  0  0  0
   36.0180   30.6640   40.3780 H   0  0  0  0  0  0  0  0  0  0  0  0
   36.5780   32.9770   39.8020 H   0  0  0  0  0  0  0  0  0  0  0  0
   40.3970   32.2850   41.6090 H   0  0  0  0  0  0  0  0  0  0  0  0
  1  2  1  0  0  0  0
  1  7  1  0  0  0  0
  2 27  1  0  0  0  0
  3  8  1  0  0  0  0
  3  2  2  0  0  0  0
  4  3  1  0  0  0  0
  5  4  2  0  0  0  0
  5  6  1  0  0  0  0
  6  1  2  0  0  0  0
  9 12  1  0  0  0  0
  9  5  1  0  0  0  0
 10  9  1  0  0  0  0
 11  9  1  0  0  0  0
 12 14  1  0  0  0  0
 13 12  1  0  0  0  0
 15 12  1  0  0  0  0
 15 26  1  0  0  0  0
 16 15  2  0  0  0  0
 17 16  1  0  0  0  0
 17 18  2  0  0  0  0
 18 19  1  0  0  0  0
 19 26  2  0  0  0  0
 19 20  1  0  0  0  0
 20 21  2  0  0  0  0
 21 23  1  0  0  0  0
 21 22  1  0  0  0  0
 23 24  1  0  0  0  0
 25 23  2  0  0  0  0
 26 25  1  0  0  0  0
 27 28  1  0  0  0  0
 28 29  2  0  0  0  0
 28 33  1  0  0  0  0
 29 30  1  0  0  0  0
 30 35  1  0  0  0  0
 30 31  2  0  0  0  0
 31 36  1  0  0  0  0
 32 31  1  0  0  0  0
 32 37  1  0  0  0  0
 33 32  2  0  0  0  0
 34 29  1  0  0  0  0
 38 43  1  0  0  0  0
 38 33  1  0  0  0  0
 39 38  2  0  0  0  0
 40 41  2  0  0  0  0
 40 39  1  0  0  0  0
 41 42  1  0  0  0  0
 42 43  2  0  0  0  0
 42 46  1  0  0  0  0
 44 39  1  0  0  0  0
 45 40  1  0  0  0  0
M  END
>  <minimizedAffinity>
-6.59890652

$$$$

 OpenBabel03242517493D

 46 50  0  0  0  0  0  0  0  0999 V2000
   38.2870   30.6980   41.1510 C   0  0  0  0  0  0  0  0  0  0  0  0
   37.7700   30.6660   39.8530 C   0  0  0  0  0  0  0  0  0  0  0  0
   36.8250   29.7110   39.5670 C   0  0  0  0  0  0  0  0  0  0  0  0
   36.4420   28.8520   40.5460 N   0  0  0  0  0  0  0  0  0  0  0  0
   36.9660   28.9110   41.7980 C   0  0  0  0  0  0  0  0  0  0  0  0
   37.8810   29.8150   42.1240 N   0  0  0  0  0  0  0  0  0  0  0  0
   39.0430   31.4370   41.4370 H   0  0  0  0  0  0  0  0  0  0  0  0
   36.4050   29.6630   38.5670 H   0  0  0  0  0  0  0  0  0  0  0  0
   36.4830   27.9300   42.7910 C   0  0  0  0  0  0  0  0  0  0  0  0
   36.1720   27.0210   42.2180 H   0  0  0  0  0  0  0  0  0  0  0  0
   35.6280   28.2770   43.3670 H   0  0  0  0  0  0  0  0  0  0  0  0
   37.6240   27.4900   43.7170 C   0  0  0  0  0  0  0  0  0  0  0  0
   38.3470   28.3230   43.8340 H   0  0  0  0  0  0  0  0  0  0  0  0
   37.2470   27.1820   44.6960 H   0  0  0  0  0  0  0  0  0  0  0  0
   38.3260   26.3880   43.0040 C   0  0  0  0  0  0  0  0  0  0  0  0
   37.7450   25.5240   42.1520 N   0  0  0  0  0  0  0  0  0  0  0  0
   38.4230   24.5440   41.5320 C   0  0  0  0  0  3  0  0  0  0  0  0
   39.7400   24.3690   41.7280 N   0  0  0  0  0  0  0  0  0  0  0  0
   40.3980   25.1990   42.5710 C   0  0  0  0  0  0  0  0  0  0  0  0
   41.7470   24.9800   42.7410 C   0  0  0  0  0  3  0  0  0  0  0  0
   42.4510   25.8020   43.5890 C   0  0  0  0  0  0  0  0  0  0  0  0
   43.5140   25.6920   43.7750 H   0  0  0  0  0  0  0  0  0  0  0  0
   41.7760   26.8050   44.2290 C   0  0  0  0  0  0  0  0  0  0  0  0
   42.3270   27.4520   44.8970 H   0  0  0  0  0  0  0  0  0  0  0  0
   40.4190   27.0350   44.0680 C   0  0  0  0  0  3  0  0  0  0  0  0
   39.6970   26.2090   43.2100 C   0  0  0  0  0  0  0  0  0  0  0  0
   38.3120   31.8130   38.6240 S   0  0  0  0  0  0  0  0  0  0  0  0
   39.0820   33.2150   39.3810 C   0  0  0  0  0  0  0  0  0  0  0  0
   38.3720   34.2260   40.0140 C   0  0  0  0  0  0  0  0  0  0  0  0
   39.0530   35.2920   40.5840 C   0  0  0  0  0  0  0  0  0  0  0  0
   40.4140   35.3740   40.5380 C   0  0  0  0  0  0  0  0  0  0  0  0
   41.1120   34.3630   39.9070 C   0  0  0  0  0  0  0  0  0  0  0  0
   40.4640   33.2880   39.3300 C   0  0  0  0  0  0  0  0  0  0  0  0
   37.3010   34.1490   40.0410 H   0  0  0  0  0  0  0  0  0  0  0  0
   38.4000   36.0300   41.0540 H   0  0  0  0  0  0  0  0  0  0  0  0
   40.8330   36.2320   41.0060 H   0  0  0  0  0  0  0  0  0  0  0  0
   42.1920   34.4670   39.8940 H   0  0  0  0  0  0  0  0  0  0  0  0
   41.2170   32.2330   38.6700 C   0  0  0  0  0  0  0  0  0  0  0  0
   41.5910   32.2510   37.3620 C   0  0  0  0  0  0  0  0  0  0  0  0
   42.3130   31.2260   36.7480 C   0  0  0  0  0  0  0  0  0  0  0  0
   42.6580   30.1620   37.4890 N   0  0  0  0  0  0  0  0  0  0  0  0
   42.2900   30.1360   38.7890 C   0  0  0  0  0  0  0  0  0  0  0  0
   41.5900   31.1360   39.3690 N   0  0  0  0  0  0  0  0  0  0  0  0
   41.3160   33.1110   36.7500 H   0  0  0  0  0  0  0  0  0  0  0  0
   42.5840   31.2940   35.7070 H   0  0  0  0  0  0  0  0  0  0  0  0
   42.5030   29.3320   39.5110 H   0  0  0  0  0  0  0  0  0  0  0  0
  1  7  1  0  0  0  0
  1  6  1  0  0  0  0
  2  1  2  0  0  0  0
  3  2  1  0  0  0  0
  3  4  2  0  0  0  0
  4  5  1  0  0  0  0
  5  6  2  0  0  0  0
  5  9  1  0  0  0  0
  8  3  1  0  0  0  0
  9 11  1  0  0  0  0
  9 12  1  0  0  0  0
 10  9  1  0  0  0  0
 12 13  1  0  0  0  0
 12 14  1  0  0  0  0
 15 26  1  0  0  0  0
 15 12  1  0  0  0  0
 16 15  2  0  0  0  0
 17 18  2  0  0  0  0
 17 16  1  0  0  0  0
 18 19  1  0  0  0  0
 19 20  2  0  0  0  0
 19 26  1  0  0  0  0
 20 21  1  0  0  0  0
 21 22  1  0  0  0  0
 21 23  2  0  0  0  0
 23 24  1  0  0  0  0
 25 23  1  0  0  0  0
 26 25  2  0  0  0  0
 27 28  1  0  0  0  0
 27  2  1  0  0  0  0
 28 29  1  0  0  0  0
 29 34  1  0  0  0  0
 29 30  2  0  0  0  0
 30 35  1  0  0  0  0
 31 30  1  0  0  0  0
 31 36  1  0  0  0  0
 32 31  2  0  0  0  0
 33 28  2  0  0  0  0
 33 32  1  0  0  0  0
 37 32  1  0  0  0  0
 38 33  1  0  0  0  0
 38 43  1  0  0  0  0
 39 38  2  0  0  0  0
 40 39  1  0  0  0  0
 40 41  2  0  0  0  0
 41 42  1  0  0  0  0
 42 43  2  0  0  0  0
 42 46  1  0  0  0  0
 44 39  1  0  0  0  0
 45 40  1  0  0  0  0
M  END
>  <minimizedAffinity>
-6.49957466

$$$$

 OpenBabel03242517493D

 46 50  0  0  0  0  0  0  0  0999 V2000
   37.3010   27.9270   40.1290 C   0  0  0  0  0  0  0  0  0  0  0  0
   37.2740   27.8910   41.5260 C   0  0  0  0  0  0  0  0  0  0  0  0
   37.1050   29.0830   42.1900 C   0  0  0  0  0  0  0  0  0  0  0  0
   36.9730   30.2250   41.4690 N   0  0  0  0  0  0  0  0  0  0  0  0
   37.0040   30.2220   40.1100 C   0  0  0  0  0  0  0  0  0  0  0  0
   37.1650   29.0990   39.4230 N   0  0  0  0  0  0  0  0  0  0  0  0
   37.4340   27.0100   39.5460 H   0  0  0  0  0  0  0  0  0  0  0  0
   37.0790   29.0850   43.2760 H   0  0  0  0  0  0  0  0  0  0  0  0
   36.8530   31.5190   39.4180 C   0  0  0  0  0  0  0  0  0  0  0  0
   36.8730   32.3080   40.2100 H   0  0  0  0  0  0  0  0  0  0  0  0
   35.9190   31.6130   38.8680 H   0  0  0  0  0  0  0  0  0  0  0  0
   38.0560   31.7890   38.5060 C   0  0  0  0  0  0  0  0  0  0  0  0
   38.7100   30.8930   38.4800 H   0  0  0  0  0  0  0  0  0  0  0  0
   37.7380   32.0480   37.4920 H   0  0  0  0  0  0  0  0  0  0  0  0
   38.8250   32.8830   39.1590 C   0  0  0  0  0  0  0  0  0  0  0  0
   38.3760   33.6510   40.1670 N   0  0  0  0  0  0  0  0  0  0  0  0
   39.1100   34.6270   40.7250 C   0  0  0  0  0  3  0  0  0  0  0  0
   40.3560   34.8970   40.3010 N   0  0  0  0  0  0  0  0  0  0  0  0
   40.8820   34.1670   39.2890 C   0  0  0  0  0  0  0  0  0  0  0  0
   42.1620   34.4800   38.8890 C   0  0  0  0  0  3  0  0  0  0  0  0
   42.7310   33.7620   37.8650 C   0  0  0  0  0  0  0  0  0  0  0  0
   43.7330   33.9500   37.4940 H   0  0  0  0  0  0  0  0  0  0  0  0
   41.9970   32.7640   37.2860 C   0  0  0  0  0  0  0  0  0  0  0  0
   42.4430   32.1980   36.4800 H   0  0  0  0  0  0  0  0  0  0  0  0
   40.7080   32.4390   37.6780 C   0  0  0  0  0  3  0  0  0  0  0  0
   40.1230   33.1600   38.7160 C   0  0  0  0  0  0  0  0  0  0  0  0
   37.4520   26.3710   42.4060 S   0  0  0  0  0  0  0  0  0  0  0  0
   39.1440   26.1070   42.8520 C   0  0  0  0  0  0  0  0  0  0  0  0
   39.7710   26.7740   43.8950 C   0  0  0  0  0  0  0  0  0  0  0  0
   41.1020   26.5080   44.1800 C   0  0  0  0  0  0  0  0  0  0  0  0
   41.8180   25.6000   43.4560 C   0  0  0  0  0  0  0  0  0  0  0  0
   41.1860   24.9410   42.4200 C   0  0  0  0  0  0  0  0  0  0  0  0
   39.8620   25.1830   42.1100 C   0  0  0  0  0  0  0  0  0  0  0  0
   39.1960   27.4860   44.4560 H   0  0  0  0  0  0  0  0  0  0  0  0
   41.4970   27.0870   45.0180 H   0  0  0  0  0  0  0  0  0  0  0  0
   42.8300   25.4730   43.7580 H   0  0  0  0  0  0  0  0  0  0  0  0
   41.7910   24.2270   41.8710 H   0  0  0  0  0  0  0  0  0  0  0  0
   39.2130   24.4780   41.0160 C   0  0  0  0  0  0  0  0  0  0  0  0
   38.4730   23.3450   41.1560 C   0  0  0  0  0  0  0  0  0  0  0  0
   37.8590   22.6840   40.0910 C   0  0  0  0  0  0  0  0  0  0  0  0
   38.0060   23.1940   38.8590 N   0  0  0  0  0  0  0  0  0  0  0  0
   38.7390   24.3200   38.7110 C   0  0  0  0  0  0  0  0  0  0  0  0
   39.3280   24.9470   39.7520 N   0  0  0  0  0  0  0  0  0  0  0  0
   38.3460   22.9210   42.1530 H   0  0  0  0  0  0  0  0  0  0  0  0
   37.2820   21.7890   40.2610 H   0  0  0  0  0  0  0  0  0  0  0  0
   38.9420   24.8460   37.7650 H   0  0  0  0  0  0  0  0  0  0  0  0
  1  2  1  0  0  0  0
  2  3  2  0  0  0  0
  2 27  1  0  0  0  0
  3  8  1  0  0  0  0
  4  3  1  0  0  0  0
  5  4  2  0  0  0  0
  6  5  1  0  0  0  0
  6  1  2  0  0  0  0
  7  1  1  0  0  0  0
  9  5  1  0  0  0  0
  9 10  1  0  0  0  0
 11  9  1  0  0  0  0
 12 15  1  0  0  0  0
 12  9  1  0  0  0  0
 13 12  1  0  0  0  0
 14 12  1  0  0  0  0
 15 16  1  0  0  0  0
 16 17  2  0  0  0  0
 18 17  1  0  0  0  0
 19 18  2  0  0  0  0
 20 19  1  0  0  0  0
 21 20  2  0  0  0  0
 22 21  1  0  0  0  0
 23 25  2  0  0  0  0
 23 21  1  0  0  0  0
 24 23  1  0  0  0  0
 25 26  1  0  0  0  0
 26 15  2  0  0  0  0
 26 19  1  0  0  0  0
 27 28  1  0  0  0  0
 28 29  1  0  0  0  0
 29 30  2  0  0  0  0
 29 34  1  0  0  0  0
 30 35  1  0  0  0  0
 31 36  1  0  0  0  0
 31 30  1  0  0  0  0
 32 31  2  0  0  0  0
 33 32  1  0  0  0  0
 33 28  2  0  0  0  0
 37 32  1  0  0  0  0
 38 39  1  0  0  0  0
 38 33  1  0  0  0  0
 39 44  1  0  0  0  0
 40 45  1  0  0  0  0
 40 39  2  0  0  0  0
 41 40  1  0  0  0  0
 42 41  2  0  0  0  0
 42 43  1  0  0  0  0
 43 38  2  0  0  0  0
 46 42  1  0  0  0  0
M  END
>  <minimizedAffinity>
-6.32840061

$$$$
