
 OpenBabel03242519403D

 30 32  0  0  0  0  0  0  0  0999 V2000
   37.5340   29.1250   39.8350 O   0  0  0  0  0  0  0  0  0  0  0  0
   36.5780   29.4860   40.9600 P   0  0  2  0  0  0  0  0  0  0  0  0
   36.5190   31.2040   41.0890 O   0  0  0  0  0  0  0  0  0  0  0  0
   38.6980   33.7830   39.6440 C   0  0  0  0  0  0  0  0  0  0  0  0
   37.5350   33.0390   39.9470 C   0  0  0  0  0  0  0  0  0  0  0  0
   37.6610   31.9460   40.7830 C   0  0  0  0  0  0  0  0  0  0  0  0
   38.8960   31.6260   41.2820 N   0  0  0  0  0  0  0  0  0  0  0  0
   39.9910   32.3710   40.9650 C   0  0  0  0  0  0  0  0  0  0  0  0
   39.9030   33.4300   40.1610 N   0  0  0  0  0  0  0  0  0  0  0  0
   38.5730   34.6350   38.9860 H   0  0  0  0  0  0  0  0  0  0  0  0
   36.5680   33.3240   39.5290 H   0  0  0  0  0  0  0  0  0  0  0  0
   40.9420   32.0500   41.4040 H   0  0  0  0  0  0  0  0  0  0  0  0
   37.0410   28.8580   42.4360 O   0  0  0  0  0  0  0  0  0  0  0  0
   38.2550   28.2150   42.6410 C   0  0  0  0  0  0  0  0  0  0  0  0
   39.4390   28.7810   42.9390 N   0  0  0  0  0  0  0  0  0  0  0  0
   40.5280   27.9760   43.1060 C   0  0  0  0  0  3  0  0  0  0  0  0
   40.4790   26.6290   42.9840 N   0  0  0  0  0  0  0  0  0  0  0  0
   39.2830   26.0530   42.6820 C   0  0  0  0  0  0  0  0  0  0  0  0
   39.2970   24.6700   42.5710 C   0  0  0  0  0  3  0  0  0  0  0  0
   38.0980   24.0590   42.2660 C   0  0  0  0  0  0  0  0  0  0  0  0
   38.0210   22.9910   42.1610 H   0  0  0  0  0  0  0  0  0  0  0  0
   36.9500   24.7880   42.0820 C   0  0  0  0  0  0  0  0  0  0  0  0
   36.0060   24.3140   41.8410 H   0  0  0  0  0  0  0  0  0  0  0  0
   36.9950   26.1640   42.2040 C   0  0  0  0  0  3  0  0  0  0  0  0
   38.1600   26.8410   42.5080 C   0  0  0  0  0  0  0  0  0  0  0  0
   35.0470   28.9560   40.5270 O   0  0  0  0  0  0  0  0  0  0  0  0
   34.8540   28.9150   39.1610 C   0  0  0  0  0  0  0  0  0  0  0  0
   35.4310   29.9800   38.4850 F   0  0  0  0  0  0  0  0  0  0  0  0
   35.2630   27.6850   38.6780 F   0  0  0  0  0  0  0  0  0  0  0  0
   33.4880   29.0110   38.9470 F   0  0  0  0  0  0  0  0  0  0  0  0
  2  1  2  6  0  0  0
  2  3  1  0  0  0  0
  2 13  1  0  0  0  0
  4  5  2  0  0  0  0
  4  9  1  0  0  0  0
  5  6  1  0  0  0  0
  6  3  1  0  0  0  0
  6  7  2  0  0  0  0
  8  7  1  0  0  0  0
  8 12  1  0  0  0  0
  9  8  2  0  0  0  0
 10  4  1  0  0  0  0
 11  5  1  0  0  0  0
 13 14  1  0  0  0  0
 14 15  1  0  0  0  0
 15 16  2  0  0  0  0
 17 16  1  0  0  0  0
 18 17  2  0  0  0  0
 19 18  1  0  0  0  0
 20 19  2  0  0  0  0
 21 20  1  0  0  0  0
 22 24  2  0  0  0  0
 22 20  1  0  0  0  0
 23 22  1  0  0  0  0
 24 25  1  0  0  0  0
 25 14  2  0  0  0  0
 25 18  1  0  0  0  0
 26  2  1  0  0  0  0
 27 26  1  0  0  0  0
 28 27  1  0  0  0  0
 29 27  1  0  0  0  0
 30 27  1  0  0  0  0
M  END
>  <minimizedAffinity>
-5.8476038

$$$$

 OpenBabel03242519403D

 30 32  0  0  0  0  0  0  0  0999 V2000
   37.8070   29.4920   38.8160 O   0  0  0  0  0  0  0  0  0  0  0  0
   36.3830   29.5580   39.3420 P   0  0  2  0  0  0  0  0  0  0  0  0
   36.1990   31.0280   40.2230 O   0  0  0  0  0  0  0  0  0  0  0  0
   38.4010   33.9540   39.9460 C   0  0  0  0  0  0  0  0  0  0  0  0
   37.2770   33.1130   39.7820 C   0  0  0  0  0  0  0  0  0  0  0  0
   37.3040   31.8670   40.3800 C   0  0  0  0  0  0  0  0  0  0  0  0
   38.4070   31.4960   41.1020 N   0  0  0  0  0  0  0  0  0  0  0  0
   39.4690   32.3380   41.2350 C   0  0  0  0  0  0  0  0  0  0  0  0
   39.4750   33.5460   40.6710 N   0  0  0  0  0  0  0  0  0  0  0  0
   38.3570   34.9250   39.4670 H   0  0  0  0  0  0  0  0  0  0  0  0
   36.4160   33.4430   39.1990 H   0  0  0  0  0  0  0  0  0  0  0  0
   40.3130   31.9670   41.8270 H   0  0  0  0  0  0  0  0  0  0  0  0
   36.0000   28.2830   40.3490 O   0  0  0  0  0  0  0  0  0  0  0  0
   36.8170   27.8660   41.3920 C   0  0  0  0  0  0  0  0  0  0  0  0
   37.2830   28.6090   42.4120 N   0  0  0  0  0  0  0  0  0  0  0  0
   38.0790   28.0150   43.3480 C   0  0  0  0  0  3  0  0  0  0  0  0
   38.4270   26.7080   43.3010 N   0  0  0  0  0  0  0  0  0  0  0  0
   37.9570   25.9520   42.2710 C   0  0  0  0  0  0  0  0  0  0  0  0
   38.3480   24.6210   42.2790 C   0  0  0  0  0  3  0  0  0  0  0  0
   37.8860   23.8310   41.2460 C   0  0  0  0  0  0  0  0  0  0  0  0
   38.1420   22.7890   41.1770 H   0  0  0  0  0  0  0  0  0  0  0  0
   37.0800   24.3430   40.2600 C   0  0  0  0  0  0  0  0  0  0  0  0
   36.7150   23.7280   39.4460 H   0  0  0  0  0  0  0  0  0  0  0  0
   36.7220   25.6770   40.3020 C   0  0  0  0  0  3  0  0  0  0  0  0
   37.1480   26.5250   41.3060 C   0  0  0  0  0  0  0  0  0  0  0  0
   35.3480   29.6230   38.0240 O   0  0  0  0  0  0  0  0  0  0  0  0
   34.2140   28.8540   38.1880 C   0  0  0  0  0  0  0  0  0  0  0  0
   34.4370   27.4930   38.0400 F   0  0  0  0  0  0  0  0  0  0  0  0
   33.6150   29.1730   39.3940 F   0  0  0  0  0  0  0  0  0  0  0  0
   33.3340   29.2170   37.1800 F   0  0  0  0  0  0  0  0  0  0  0  0
  2  1  2  6  0  0  0
  2  3  1  0  0  0  0
  2 13  1  0  0  0  0
  3  6  1  0  0  0  0
  4  9  1  0  0  0  0
  5  4  2  0  0  0  0
  5  6  1  0  0  0  0
  6  7  2  0  0  0  0
  7  8  1  0  0  0  0
  8 12  1  0  0  0  0
  9  8  2  0  0  0  0
 10  4  1  0  0  0  0
 11  5  1  0  0  0  0
 13 14  1  0  0  0  0
 14 15  1  0  0  0  0
 15 16  2  0  0  0  0
 17 16  1  0  0  0  0
 18 19  1  0  0  0  0
 18 17  2  0  0  0  0
 20 19  2  0  0  0  0
 21 20  1  0  0  0  0
 22 24  2  0  0  0  0
 22 20  1  0  0  0  0
 23 22  1  0  0  0  0
 24 25  1  0  0  0  0
 25 14  2  0  0  0  0
 25 18  1  0  0  0  0
 26 27  1  0  0  0  0
 26  2  1  0  0  0  0
 27 29  1  0  0  0  0
 28 27  1  0  0  0  0
 30 27  1  0  0  0  0
M  END
>  <minimizedAffinity>
-5.67522001

$$$$

 OpenBabel03242519403D

 30 32  0  0  0  0  0  0  0  0999 V2000
   39.0080   30.3860   39.7050 O   0  0  0  0  0  0  0  0  0  0  0  0
   39.3590   31.3160   40.8540 P   0  0  2  0  0  0  0  0  0  0  0  0
   41.0180   31.7600   40.7030 O   0  0  0  0  0  0  0  0  0  0  0  0
   41.9450   33.6480   37.6930 C   0  0  0  0  0  0  0  0  0  0  0  0
   41.4280   33.3570   38.9750 C   0  0  0  0  0  0  0  0  0  0  0  0
   41.5270   32.0580   39.4380 C   0  0  0  0  0  0  0  0  0  0  0  0
   42.1170   31.1110   38.6440 N   0  0  0  0  0  0  0  0  0  0  0  0
   42.6040   31.4340   37.4150 C   0  0  0  0  0  0  0  0  0  0  0  0
   42.5230   32.6770   36.9390 N   0  0  0  0  0  0  0  0  0  0  0  0
   41.8550   34.6730   37.3520 H   0  0  0  0  0  0  0  0  0  0  0  0
   40.9630   34.1390   39.5780 H   0  0  0  0  0  0  0  0  0  0  0  0
   43.0600   30.6200   36.8420 H   0  0  0  0  0  0  0  0  0  0  0  0
   39.1300   30.6160   42.3530 O   0  0  0  0  0  0  0  0  0  0  0  0
   38.4830   29.4010   42.5330 C   0  0  0  0  0  0  0  0  0  0  0  0
   37.1710   29.1440   42.3800 N   0  0  0  0  0  0  0  0  0  0  0  0
   36.7200   27.8760   42.6040 C   0  0  0  0  0  3  0  0  0  0  0  0
   37.5290   26.8570   42.9750 N   0  0  0  0  0  0  0  0  0  0  0  0
   38.8570   27.1130   43.1300 C   0  0  0  0  0  0  0  0  0  0  0  0
   39.6340   26.0290   43.5110 C   0  0  0  0  0  3  0  0  0  0  0  0
   40.9850   26.2590   43.6760 C   0  0  0  0  0  0  0  0  0  0  0  0
   41.6580   25.4740   43.9700 H   0  0  0  0  0  0  0  0  0  0  0  0
   41.5280   27.5030   43.4730 C   0  0  0  0  0  0  0  0  0  0  0  0
   42.5880   27.6900   43.6010 H   0  0  0  0  0  0  0  0  0  0  0  0
   40.7060   28.5480   43.0940 C   0  0  0  0  0  3  0  0  0  0  0  0
   39.3460   28.3880   42.9110 C   0  0  0  0  0  0  0  0  0  0  0  0
   38.4440   32.7110   40.6890 O   0  0  0  0  0  0  0  0  0  0  0  0
   37.5380   32.6440   39.6490 C   0  0  0  0  0  0  0  0  0  0  0  0
   38.1230   32.4060   38.4140 F   0  0  0  0  0  0  0  0  0  0  0  0
   36.5500   31.7270   39.9620 F   0  0  0  0  0  0  0  0  0  0  0  0
   36.9350   33.8890   39.5620 F   0  0  0  0  0  0  0  0  0  0  0  0
  2  1  2  6  0  0  0
  2 13  1  0  0  0  0
  3  2  1  0  0  0  0
  4  5  1  0  0  0  0
  5  6  2  0  0  0  0
  5 11  1  0  0  0  0
  6  3  1  0  0  0  0
  7  6  1  0  0  0  0
  8  7  2  0  0  0  0
  9  8  1  0  0  0  0
  9  4  2  0  0  0  0
 10  4  1  0  0  0  0
 12  8  1  0  0  0  0
 13 14  1  0  0  0  0
 14 25  1  0  0  0  0
 15 14  2  0  0  0  0
 15 16  1  0  0  0  0
 16 17  2  0  0  0  0
 17 18  1  0  0  0  0
 18 19  1  0  0  0  0
 19 20  2  0  0  0  0
 20 21  1  0  0  0  0
 22 23  1  0  0  0  0
 22 20  1  0  0  0  0
 24 22  2  0  0  0  0
 25 24  1  0  0  0  0
 25 18  2  0  0  0  0
 26  2  1  0  0  0  0
 27 29  1  0  0  0  0
 27 26  1  0  0  0  0
 28 27  1  0  0  0  0
 30 27  1  0  0  0  0
M  END
>  <minimizedAffinity>
-5.42105865

$$$$

 OpenBabel03242519403D

 30 32  0  0  0  0  0  0  0  0999 V2000
   38.0420   30.0820   37.2040 O   0  0  0  0  0  0  0  0  0  0  0  0
   38.3740   29.7910   38.6580 P   0  0  2  0  0  0  0  0  0  0  0  0
   39.9670   29.1380   38.7290 O   0  0  0  0  0  0  0  0  0  0  0  0
   42.5230   29.2610   36.0950 C   0  0  0  0  0  0  0  0  0  0  0  0
   41.5390   28.7530   36.9730 C   0  0  0  0  0  0  0  0  0  0  0  0
   40.9400   29.6300   37.8570 C   0  0  0  0  0  0  0  0  0  0  0  0
   41.3180   30.9470   37.8500 N   0  0  0  0  0  0  0  0  0  0  0  0
   42.2710   31.3950   36.9870 C   0  0  0  0  0  0  0  0  0  0  0  0
   42.8680   30.5740   36.1220 N   0  0  0  0  0  0  0  0  0  0  0  0
   42.9790   28.5530   35.4110 H   0  0  0  0  0  0  0  0  0  0  0  0
   41.2650   27.6970   36.9490 H   0  0  0  0  0  0  0  0  0  0  0  0
   42.5170   32.4600   37.0440 H   0  0  0  0  0  0  0  0  0  0  0  0
   37.3210   28.7030   39.3620 O   0  0  0  0  0  0  0  0  0  0  0  0
   37.4960   28.1960   40.6420 C   0  0  0  0  0  0  0  0  0  0  0  0
   37.9250   28.8590   41.7320 N   0  0  0  0  0  0  0  0  0  0  0  0
   38.0320   28.1830   42.9120 C   0  0  0  0  0  3  0  0  0  0  0  0
   37.7280   26.8720   43.0450 N   0  0  0  0  0  0  0  0  0  0  0  0
   37.2930   26.1970   41.9440 C   0  0  0  0  0  0  0  0  0  0  0  0
   36.9970   24.8560   42.1440 C   0  0  0  0  0  3  0  0  0  0  0  0
   36.5540   24.1470   41.0460 C   0  0  0  0  0  0  0  0  0  0  0  0
   36.3030   23.1040   41.1140 H   0  0  0  0  0  0  0  0  0  0  0  0
   36.4150   24.7450   39.8180 C   0  0  0  0  0  0  0  0  0  0  0  0
   36.0680   24.1930   38.9520 H   0  0  0  0  0  0  0  0  0  0  0  0
   36.7250   26.0840   39.6770 C   0  0  0  0  0  3  0  0  0  0  0  0
   37.1730   26.8540   40.7330 C   0  0  0  0  0  0  0  0  0  0  0  0
   38.3850   31.2490   39.4870 O   0  0  0  0  0  0  0  0  0  0  0  0
   37.1710   31.9050   39.4440 C   0  0  0  0  0  0  0  0  0  0  0  0
   36.0760   31.0530   39.4410 F   0  0  0  0  0  0  0  0  0  0  0  0
   37.1210   32.8410   40.4610 F   0  0  0  0  0  0  0  0  0  0  0  0
   37.1310   32.5950   38.2420 F   0  0  0  0  0  0  0  0  0  0  0  0
  2  1  2  6  0  0  0
  2  3  1  0  0  0  0
  2 13  1  0  0  0  0
  2 26  1  0  0  0  0
  4  9  2  0  0  0  0
  4  5  1  0  0  0  0
  5  6  2  0  0  0  0
  6  3  1  0  0  0  0
  7  6  1  0  0  0  0
  8 12  1  0  0  0  0
  8  7  2  0  0  0  0
  9  8  1  0  0  0  0
 10  4  1  0  0  0  0
 11  5  1  0  0  0  0
 13 14  1  0  0  0  0
 14 25  2  0  0  0  0
 14 15  1  0  0  0  0
 15 16  2  0  0  0  0
 16 17  1  0  0  0  0
 18 19  1  0  0  0  0
 18 17  2  0  0  0  0
 20 21  1  0  0  0  0
 20 19  2  0  0  0  0
 22 20  1  0  0  0  0
 23 22  1  0  0  0  0
 24 22  2  0  0  0  0
 24 25  1  0  0  0  0
 25 18  1  0  0  0  0
 27 26  1  0  0  0  0
 27 29  1  0  0  0  0
 28 27  1  0  0  0  0
 30 27  1  0  0  0  0
M  END
>  <minimizedAffinity>
-5.24331951

$$$$

 OpenBabel03242519403D

 30 32  0  0  0  0  0  0  0  0999 V2000
   34.4940   29.2630   40.1540 O   0  0  0  0  0  0  0  0  0  0  0  0
   35.9440   29.4340   40.5740 P   0  0  2  0  0  0  0  0  0  0  0  0
   36.9490   28.9520   39.2590 O   0  0  0  0  0  0  0  0  0  0  0  0
   35.8080   25.9200   37.5300 C   0  0  0  0  0  0  0  0  0  0  0  0
   36.3440   26.7590   38.5330 C   0  0  0  0  0  0  0  0  0  0  0  0
   36.4210   28.1140   38.2750 C   0  0  0  0  0  0  0  0  0  0  0  0
   35.9800   28.5900   37.0680 N   0  0  0  0  0  0  0  0  0  0  0  0
   35.4700   27.7470   36.1300 C   0  0  0  0  0  0  0  0  0  0  0  0
   35.3820   26.4350   36.3470 N   0  0  0  0  0  0  0  0  0  0  0  0
   35.7580   24.8610   37.7560 H   0  0  0  0  0  0  0  0  0  0  0  0
   36.6850   26.3420   39.4820 H   0  0  0  0  0  0  0  0  0  0  0  0
   35.1400   28.2050   35.1910 H   0  0  0  0  0  0  0  0  0  0  0  0
   36.3460   28.5210   41.9130 O   0  0  0  0  0  0  0  0  0  0  0  0
   37.6570   28.2460   42.2800 C   0  0  0  0  0  0  0  0  0  0  0  0
   38.6240   29.1330   42.5810 N   0  0  0  0  0  0  0  0  0  0  0  0
   39.8600   28.6660   42.9220 C   0  0  0  0  0  3  0  0  0  0  0  0
   40.1660   27.3490   42.9720 N   0  0  0  0  0  0  0  0  0  0  0  0
   39.1900   26.4490   42.6690 C   0  0  0  0  0  0  0  0  0  0  0  0
   39.5640   25.1150   42.7390 C   0  0  0  0  0  3  0  0  0  0  0  0
   38.5950   24.1800   42.4370 C   0  0  0  0  0  0  0  0  0  0  0  0
   38.8020   23.1250   42.4660 H   0  0  0  0  0  0  0  0  0  0  0  0
   37.3240   24.5580   42.0830 C   0  0  0  0  0  0  0  0  0  0  0  0
   36.5580   23.8280   41.8440 H   0  0  0  0  0  0  0  0  0  0  0  0
   37.0060   25.9020   42.0300 C   0  0  0  0  0  3  0  0  0  0  0  0
   37.9260   26.8900   42.3200 C   0  0  0  0  0  0  0  0  0  0  0  0
   36.2150   31.0660   40.8480 O   0  0  0  0  0  0  0  0  0  0  0  0
   37.0860   31.6300   39.9380 C   0  0  0  0  0  0  0  0  0  0  0  0
   38.3830   31.1480   40.0350 F   0  0  0  0  0  0  0  0  0  0  0  0
   36.5600   31.5070   38.6640 F   0  0  0  0  0  0  0  0  0  0  0  0
   37.1500   32.9840   40.2310 F   0  0  0  0  0  0  0  0  0  0  0  0
  2  1  2  6  0  0  0
  2 26  1  0  0  0  0
  2 13  1  0  0  0  0
  3  2  1  0  0  0  0
  4 10  1  0  0  0  0
  4  5  1  0  0  0  0
  5 11  1  0  0  0  0
  6  5  2  0  0  0  0
  6  3  1  0  0  0  0
  7  6  1  0  0  0  0
  8  9  1  0  0  0  0
  8  7  2  0  0  0  0
  9  4  2  0  0  0  0
 12  8  1  0  0  0  0
 13 14  1  0  0  0  0
 14 25  2  0  0  0  0
 14 15  1  0  0  0  0
 15 16  2  0  0  0  0
 16 17  1  0  0  0  0
 18 19  1  0  0  0  0
 18 17  2  0  0  0  0
 20 21  1  0  0  0  0
 20 19  2  0  0  0  0
 22 20  1  0  0  0  0
 23 22  1  0  0  0  0
 24 22  2  0  0  0  0
 24 25  1  0  0  0  0
 25 18  1  0  0  0  0
 27 28  1  0  0  0  0
 27 30  1  0  0  0  0
 27 26  1  0  0  0  0
 29 27  1  0  0  0  0
M  END
>  <minimizedAffinity>
-5.24014425

$$$$

 OpenBabel03242519403D

 30 32  0  0  0  0  0  0  0  0999 V2000
   38.8430   29.9980   37.8820 O   0  0  0  0  0  0  0  0  0  0  0  0
   38.6760   30.0620   39.3910 P   0  0  2  0  0  0  0  0  0  0  0  0
   40.1170   29.4600   40.1210 O   0  0  0  0  0  0  0  0  0  0  0  0
   41.7150   31.2330   42.9130 C   0  0  0  0  0  0  0  0  0  0  0  0
   40.8800   30.3360   42.2080 C   0  0  0  0  0  0  0  0  0  0  0  0
   40.9380   30.3420   40.8270 C   0  0  0  0  0  0  0  0  0  0  0  0
   41.7920   31.2080   40.1980 N   0  0  0  0  0  0  0  0  0  0  0  0
   42.5800   32.0560   40.9160 C   0  0  0  0  0  0  0  0  0  0  0  0
   42.5480   32.0750   42.2490 N   0  0  0  0  0  0  0  0  0  0  0  0
   41.6520   31.2090   43.9950 H   0  0  0  0  0  0  0  0  0  0  0  0
   40.2120   29.6600   42.7440 H   0  0  0  0  0  0  0  0  0  0  0  0
   43.2350   32.7170   40.3390 H   0  0  0  0  0  0  0  0  0  0  0  0
   37.3840   29.1590   39.9430 O   0  0  0  0  0  0  0  0  0  0  0  0
   37.3540   28.5610   41.1960 C   0  0  0  0  0  0  0  0  0  0  0  0
   37.4940   29.1620   42.3910 N   0  0  0  0  0  0  0  0  0  0  0  0
   37.4340   28.4000   43.5210 C   0  0  0  0  0  3  0  0  0  0  0  0
   37.2410   27.0610   43.5010 N   0  0  0  0  0  0  0  0  0  0  0  0
   37.0990   26.4480   42.2930 C   0  0  0  0  0  0  0  0  0  0  0  0
   36.9040   25.0750   42.3380 C   0  0  0  0  0  3  0  0  0  0  0  0
   36.7570   24.4280   41.1280 C   0  0  0  0  0  0  0  0  0  0  0  0
   36.6020   23.3650   41.0730 H   0  0  0  0  0  0  0  0  0  0  0  0
   36.8030   25.1150   39.9400 C   0  0  0  0  0  0  0  0  0  0  0  0
   36.6880   24.6120   38.9870 H   0  0  0  0  0  0  0  0  0  0  0  0
   37.0000   26.4820   39.9550 C   0  0  0  0  0  3  0  0  0  0  0  0
   37.1550   27.1940   41.1290 C   0  0  0  0  0  0  0  0  0  0  0  0
   38.5210   31.6730   39.8280 O   0  0  0  0  0  0  0  0  0  0  0  0
   37.2230   32.1340   39.7440 C   0  0  0  0  0  0  0  0  0  0  0  0
   36.5430   31.6850   38.6210 F   0  0  0  0  0  0  0  0  0  0  0  0
   36.5600   31.8500   40.9240 F   0  0  0  0  0  0  0  0  0  0  0  0
   37.2940   33.5140   39.6310 F   0  0  0  0  0  0  0  0  0  0  0  0
  2  1  2  6  0  0  0
  2 26  1  0  0  0  0
  2 13  1  0  0  0  0
  2  3  1  0  0  0  0
  3  6  1  0  0  0  0
  4 10  1  0  0  0  0
  5 11  1  0  0  0  0
  5  4  2  0  0  0  0
  6  5  1  0  0  0  0
  7  6  2  0  0  0  0
  7  8  1  0  0  0  0
  8  9  2  0  0  0  0
  9  4  1  0  0  0  0
 12  8  1  0  0  0  0
 13 14  1  0  0  0  0
 14 15  1  0  0  0  0
 15 16  2  0  0  0  0
 17 16  1  0  0  0  0
 18 19  1  0  0  0  0
 18 17  2  0  0  0  0
 20 19  2  0  0  0  0
 21 20  1  0  0  0  0
 22 24  2  0  0  0  0
 22 20  1  0  0  0  0
 23 22  1  0  0  0  0
 24 25  1  0  0  0  0
 25 14  2  0  0  0  0
 25 18  1  0  0  0  0
 27 26  1  0  0  0  0
 27 29  1  0  0  0  0
 28 27  1  0  0  0  0
 30 27  1  0  0  0  0
M  END
>  <minimizedAffinity>
-5.14498806

$$$$

 OpenBabel03242519403D

 30 32  0  0  0  0  0  0  0  0999 V2000
   35.0770   29.3740   39.5640 O   0  0  0  0  0  0  0  0  0  0  0  0
   36.4180   29.4830   38.8570 P   0  0  2  0  0  0  0  0  0  0  0  0
   36.3610   28.5100   37.4350 O   0  0  0  0  0  0  0  0  0  0  0  0
   33.5010   28.9750   35.1790 C   0  0  0  0  0  0  0  0  0  0  0  0
   34.7450   29.1900   35.8130 C   0  0  0  0  0  0  0  0  0  0  0  0
   35.1330   28.3060   36.8030 C   0  0  0  0  0  0  0  0  0  0  0  0
   34.3050   27.2660   37.1300 N   0  0  0  0  0  0  0  0  0  0  0  0
   33.1130   27.0950   36.4940 C   0  0  0  0  0  0  0  0  0  0  0  0
   32.7100   27.9290   35.5360 N   0  0  0  0  0  0  0  0  0  0  0  0
   33.2190   29.6810   34.4070 H   0  0  0  0  0  0  0  0  0  0  0  0
   35.3780   30.0310   35.5250 H   0  0  0  0  0  0  0  0  0  0  0  0
   32.5090   26.2390   36.8130 H   0  0  0  0  0  0  0  0  0  0  0  0
   37.6970   28.9720   39.8010 O   0  0  0  0  0  0  0  0  0  0  0  0
   37.5430   28.4950   41.0960 C   0  0  0  0  0  0  0  0  0  0  0  0
   37.6040   29.2020   42.2390 N   0  0  0  0  0  0  0  0  0  0  0  0
   37.4240   28.5510   43.4240 C   0  0  0  0  0  3  0  0  0  0  0  0
   37.1880   27.2210   43.5100 N   0  0  0  0  0  0  0  0  0  0  0  0
   37.1250   26.5020   42.3550 C   0  0  0  0  0  0  0  0  0  0  0  0
   36.8790   25.1460   42.5080 C   0  0  0  0  0  3  0  0  0  0  0  0
   36.8110   24.3920   41.3540 C   0  0  0  0  0  0  0  0  0  0  0  0
   36.6240   23.3330   41.3830 H   0  0  0  0  0  0  0  0  0  0  0  0
   36.9790   24.9630   40.1170 C   0  0  0  0  0  0  0  0  0  0  0  0
   36.9260   24.3760   39.2070 H   0  0  0  0  0  0  0  0  0  0  0  0
   37.2210   26.3200   40.0240 C   0  0  0  0  0  3  0  0  0  0  0  0
   37.3020   27.1340   41.1370 C   0  0  0  0  0  0  0  0  0  0  0  0
   36.6180   31.0760   38.3730 O   0  0  0  0  0  0  0  0  0  0  0  0
   37.1200   31.8860   39.3720 C   0  0  0  0  0  0  0  0  0  0  0  0
   38.4430   31.6190   39.6940 F   0  0  0  0  0  0  0  0  0  0  0  0
   36.9040   33.2110   39.0380 F   0  0  0  0  0  0  0  0  0  0  0  0
   36.3790   31.6200   40.5130 F   0  0  0  0  0  0  0  0  0  0  0  0
  2  1  2  1  0  0  0
  2 13  1  0  0  0  0
  3  2  1  0  0  0  0
  4  9  2  0  0  0  0
  4  5  1  0  0  0  0
  5  6  2  0  0  0  0
  6  7  1  0  0  0  0
  6  3  1  0  0  0  0
  8 12  1  0  0  0  0
  8  7  2  0  0  0  0
  9  8  1  0  0  0  0
 10  4  1  0  0  0  0
 11  5  1  0  0  0  0
 13 14  1  0  0  0  0
 14 25  2  0  0  0  0
 14 15  1  0  0  0  0
 15 16  2  0  0  0  0
 16 17  1  0  0  0  0
 18 19  1  0  0  0  0
 18 17  2  0  0  0  0
 20 21  1  0  0  0  0
 20 19  2  0  0  0  0
 22 20  1  0  0  0  0
 23 22  1  0  0  0  0
 24 22  2  0  0  0  0
 24 25  1  0  0  0  0
 25 18  1  0  0  0  0
 26  2  1  0  0  0  0
 26 27  1  0  0  0  0
 27 28  1  0  0  0  0
 27 30  1  0  0  0  0
 29 27  1  0  0  0  0
M  END
>  <minimizedAffinity>
-5.02360201

$$$$

 OpenBabel03242519403D

 30 32  0  0  0  0  0  0  0  0999 V2000
   39.7240   29.2490   39.7290 O   0  0  0  0  0  0  0  0  0  0  0  0
   39.2600   30.5800   40.2980 P   0  0  2  0  0  0  0  0  0  0  0  0
   38.9780   30.3780   41.9860 O   0  0  0  0  0  0  0  0  0  0  0  0
   40.5440   27.4190   43.4950 C   0  0  0  0  0  0  0  0  0  0  0  0
   40.3990   28.7040   42.9240 C   0  0  0  0  0  0  0  0  0  0  0  0
   39.1320   29.1110   42.5520 C   0  0  0  0  0  0  0  0  0  0  0  0
   38.0740   28.2640   42.7480 N   0  0  0  0  0  0  0  0  0  0  0  0
   38.2580   27.0350   43.3030 C   0  0  0  0  0  0  0  0  0  0  0  0
   39.4670   26.6110   43.6720 N   0  0  0  0  0  0  0  0  0  0  0  0
   41.5470   27.1220   43.7780 H   0  0  0  0  0  0  0  0  0  0  0  0
   41.2670   29.3510   42.7830 H   0  0  0  0  0  0  0  0  0  0  0  0
   37.3620   26.4170   43.4260 H   0  0  0  0  0  0  0  0  0  0  0  0
   37.8560   31.1380   39.5870 O   0  0  0  0  0  0  0  0  0  0  0  0
   36.6910   30.3870   39.5130 C   0  0  0  0  0  0  0  0  0  0  0  0
   35.9000   30.0030   40.5310 N   0  0  0  0  0  0  0  0  0  0  0  0
   34.7880   29.2620   40.2560 C   0  0  0  0  0  3  0  0  0  0  0  0
   34.4370   28.8910   39.0040 N   0  0  0  0  0  0  0  0  0  0  0  0
   35.2350   29.2770   37.9700 C   0  0  0  0  0  0  0  0  0  0  0  0
   34.8220   28.8660   36.7110 C   0  0  0  0  0  3  0  0  0  0  0  0
   35.6120   29.2430   35.6440 C   0  0  0  0  0  0  0  0  0  0  0  0
   35.3640   28.9660   34.6350 H   0  0  0  0  0  0  0  0  0  0  0  0
   36.7490   29.9900   35.8250 C   0  0  0  0  0  0  0  0  0  0  0  0
   37.3740   30.2890   34.9910 H   0  0  0  0  0  0  0  0  0  0  0  0
   37.1130   30.3720   37.1030 C   0  0  0  0  0  3  0  0  0  0  0  0
   36.3690   30.0290   38.2160 C   0  0  0  0  0  0  0  0  0  0  0  0
   40.5110   31.6830   40.1200 O   0  0  0  0  0  0  0  0  0  0  0  0
   40.1090   32.9900   40.3010 C   0  0  0  0  0  0  0  0  0  0  0  0
   41.1310   33.8370   40.7060 F   0  0  0  0  0  0  0  0  0  0  0  0
   39.4640   33.4330   39.1610 F   0  0  0  0  0  0  0  0  0  0  0  0
   39.1780   32.9850   41.3290 F   0  0  0  0  0  0  0  0  0  0  0  0
  2  1  2  6  0  0  0
  2  3  1  0  0  0  0
  3  6  1  0  0  0  0
  4  9  1  0  0  0  0
  4 10  1  0  0  0  0
  5  4  2  0  0  0  0
  6  7  2  0  0  0  0
  6  5  1  0  0  0  0
  7  8  1  0  0  0  0
  8 12  1  0  0  0  0
  8  9  2  0  0  0  0
 11  5  1  0  0  0  0
 13  2  1  0  0  0  0
 14 13  1  0  0  0  0
 14 15  1  0  0  0  0
 16 15  2  0  0  0  0
 17 16  1  0  0  0  0
 18 25  1  0  0  0  0
 18 17  2  0  0  0  0
 19 18  1  0  0  0  0
 20 22  1  0  0  0  0
 20 19  2  0  0  0  0
 21 20  1  0  0  0  0
 22 24  2  0  0  0  0
 23 22  1  0  0  0  0
 24 25  1  0  0  0  0
 25 14  2  0  0  0  0
 26  2  1  0  0  0  0
 26 27  1  0  0  0  0
 27 28  1  0  0  0  0
 27 30  1  0  0  0  0
 29 27  1  0  0  0  0
M  END
>  <minimizedAffinity>
-4.96763611

$$$$

 OpenBabel03242519403D

 30 32  0  0  0  0  0  0  0  0999 V2000
   38.6590   30.7730   38.2020 O   0  0  0  0  0  0  0  0  0  0  0  0
   39.0970   30.2910   39.5750 P   0  0  2  0  0  0  0  0  0  0  0  0
   40.7330   30.7740   39.8220 O   0  0  0  0  0  0  0  0  0  0  0  0
   41.5340   34.1600   38.6460 C   0  0  0  0  0  0  0  0  0  0  0  0
   41.0000   33.1160   39.4340 C   0  0  0  0  0  0  0  0  0  0  0  0
   41.2560   31.8130   39.0500 C   0  0  0  0  0  0  0  0  0  0  0  0
   42.0110   31.5840   37.9300 N   0  0  0  0  0  0  0  0  0  0  0  0
   42.5070   32.6190   37.1990 C   0  0  0  0  0  0  0  0  0  0  0  0
   42.2780   33.8870   37.5420 N   0  0  0  0  0  0  0  0  0  0  0  0
   41.3190   35.1720   38.9670 H   0  0  0  0  0  0  0  0  0  0  0  0
   40.4020   33.3370   40.3200 H   0  0  0  0  0  0  0  0  0  0  0  0
   43.1010   32.3530   36.3180 H   0  0  0  0  0  0  0  0  0  0  0  0
   39.0010   28.6330   39.7440 O   0  0  0  0  0  0  0  0  0  0  0  0
   38.9970   27.9940   40.9770 C   0  0  0  0  0  0  0  0  0  0  0  0
   39.6470   28.3690   42.0930 N   0  0  0  0  0  0  0  0  0  0  0  0
   39.5180   27.6050   43.2170 C   0  0  0  0  0  3  0  0  0  0  0  0
   38.7660   26.4820   43.2660 N   0  0  0  0  0  0  0  0  0  0  0  0
   38.1050   26.0990   42.1380 C   0  0  0  0  0  0  0  0  0  0  0  0
   37.3510   24.9410   42.2520 C   0  0  0  0  0  3  0  0  0  0  0  0
   36.6710   24.5280   41.1240 C   0  0  0  0  0  0  0  0  0  0  0  0
   36.0630   23.6410   41.1260 H   0  0  0  0  0  0  0  0  0  0  0  0
   36.7420   25.2350   39.9490 C   0  0  0  0  0  0  0  0  0  0  0  0
   36.2100   24.9160   39.0600 H   0  0  0  0  0  0  0  0  0  0  0  0
   37.5090   26.3820   39.8930 C   0  0  0  0  0  3  0  0  0  0  0  0
   38.2160   26.8520   40.9830 C   0  0  0  0  0  0  0  0  0  0  0  0
   38.1570   31.0740   40.7220 O   0  0  0  0  0  0  0  0  0  0  0  0
   36.8190   31.1160   40.3880 C   0  0  0  0  0  0  0  0  0  0  0  0
   35.9720   31.1700   41.4850 F   0  0  0  0  0  0  0  0  0  0  0  0
   36.6030   32.1460   39.4900 F   0  0  0  0  0  0  0  0  0  0  0  0
   36.5330   29.9280   39.7320 F   0  0  0  0  0  0  0  0  0  0  0  0
  2  1  2  6  0  0  0
  2 13  1  0  0  0  0
  2  3  1  0  0  0  0
  2 26  1  0  0  0  0
  4 10  1  0  0  0  0
  4  5  1  0  0  0  0
  5 11  1  0  0  0  0
  6  5  2  0  0  0  0
  6  3  1  0  0  0  0
  7  6  1  0  0  0  0
  8  9  1  0  0  0  0
  8  7  2  0  0  0  0
  9  4  2  0  0  0  0
 12  8  1  0  0  0  0
 13 14  1  0  0  0  0
 14 25  2  0  0  0  0
 14 15  1  0  0  0  0
 15 16  2  0  0  0  0
 16 17  1  0  0  0  0
 18 19  1  0  0  0  0
 18 17  2  0  0  0  0
 20 21  1  0  0  0  0
 20 19  2  0  0  0  0
 22 20  1  0  0  0  0
 23 22  1  0  0  0  0
 24 22  2  0  0  0  0
 24 25  1  0  0  0  0
 25 18  1  0  0  0  0
 27 26  1  0  0  0  0
 27 28  1  0  0  0  0
 29 27  1  0  0  0  0
 30 27  1  0  0  0  0
M  END
>  <minimizedAffinity>
-4.94437742

$$$$
