
 OpenBabel03242511473D

 47 50  0  0  0  0  0  0  0  0999 V2000
   44.6820   35.7800   44.8330 C   0  0  0  0  0  0  0  0  0  0  0  0
   44.0770   35.9700   43.5670 C   0  0  0  0  0  0  0  0  0  0  0  0
   44.1420   34.9160   42.6730 C   0  0  0  0  0  0  0  0  0  0  0  0
   44.7620   33.7740   43.0280 N   0  0  0  0  0  0  0  0  0  0  0  0
   45.3220   33.6460   44.2490 C   0  0  0  0  0  0  0  0  0  0  0  0
   45.2910   34.6140   45.1390 N   0  0  0  0  0  0  0  0  0  0  0  0
   44.6390   36.5970   45.5430 H   0  0  0  0  0  0  0  0  0  0  0  0
   43.5870   36.9240   43.3390 H   0  0  0  0  0  0  0  0  0  0  0  0
   45.9820   32.3620   44.5620 C   0  0  0  0  0  0  0  0  0  0  0  0
   45.2720   31.5070   44.6020 H   0  0  0  0  0  0  0  0  0  0  0  0
   46.7010   32.1420   43.7640 H   0  0  0  0  0  0  0  0  0  0  0  0
   46.7730   32.5210   45.8400 C   0  0  0  0  0  0  0  0  0  0  0  0
   46.8660   33.5990   46.1100 H   0  0  0  0  0  0  0  0  0  0  0  0
   47.8380   32.1850   45.7140 H   0  0  0  0  0  0  0  0  0  0  0  0
   46.1630   31.8080   46.9490 C   0  0  0  0  0  0  0  0  0  0  0  0
   45.3520   32.2750   47.9490 C   0  0  0  0  0  0  0  0  0  0  0  0
   44.8380   31.5120   48.9360 C   0  0  0  0  0  0  0  0  0  0  0  0
   45.1480   30.1640   48.9440 C   0  0  0  0  0  0  0  0  0  0  0  0
   45.9600   29.6760   47.9500 C   0  0  0  0  0  0  0  0  0  0  0  0
   46.4740   30.4760   46.9510 C   0  0  0  0  0  0  0  0  0  0  0  0
   45.1440   33.3530   47.8880 H   0  0  0  0  0  0  0  0  0  0  0  0
   44.2060   31.9690   49.6860 H   0  0  0  0  0  0  0  0  0  0  0  0
   44.7040   29.5950   49.7660 H   0  0  0  0  0  0  0  0  0  0  0  0
   46.1060   28.5940   48.1040 H   0  0  0  0  0  0  0  0  0  0  0  0
   48.6150   29.4340   46.5570 C   0  0  0  0  0  0  0  0  0  0  0  0
   49.3790   29.7870   47.5490 O   0  0  0  0  0  0  0  0  0  0  0  0
   47.2740   29.6430   46.0980 N   0  0  0  0  0  0  0  0  0  0  0  0
   49.4670   28.8720   46.1860 H   0  0  0  0  0  0  0  0  0  0  0  0
   47.1240   29.1460   45.2190 H   0  0  0  0  0  0  0  0  0  0  0  0
   43.5060   35.1380   41.3600 C   0  0  0  0  0  0  0  0  0  0  0  0
   43.9700   34.4980   40.5940 H   0  0  0  0  0  0  0  0  0  0  0  0
   43.6940   36.1960   41.0520 H   0  0  0  0  0  0  0  0  0  0  0  0
   42.0140   34.8470   41.3950 C   0  0  0  0  0  0  0  0  0  0  0  0
   41.4820   35.5280   42.0670 H   0  0  0  0  0  0  0  0  0  0  0  0
   41.8170   33.8230   41.7400 H   0  0  0  0  0  0  0  0  0  0  0  0
   41.5000   35.0190   40.0130 C   0  0  0  0  0  0  0  0  0  0  0  0
   42.2460   35.7420   39.1550 N   0  0  0  0  0  0  0  0  0  0  0  0
   41.8790   35.9240   37.8820 C   0  0  0  0  0  0  0  0  0  0  0  0
   40.7300   35.3920   37.3740 N   0  0  0  0  0  0  0  0  0  0  0  0
   39.9370   34.6490   38.2060 C   0  0  0  0  0  0  0  0  0  0  0  0
   38.7570   34.0810   37.7710 C   0  0  0  0  0  0  0  0  0  0  0  0
   37.9610   33.3410   38.6200 C   0  0  0  0  0  0  0  0  0  0  0  0
   37.0460   32.9190   38.2270 H   0  0  0  0  0  0  0  0  0  0  0  0
   38.3760   33.1790   39.9300 C   0  0  0  0  0  0  0  0  0  0  0  0
   37.7120   32.5830   40.5770 H   0  0  0  0  0  0  0  0  0  0  0  0
   39.5640   33.7340   40.4160 C   0  0  0  0  0  0  0  0  0  0  0  0
   40.3260   34.4690   39.5130 C   0  0  0  0  0  0  0  0  0  0  0  0
  1  6  1  0  0  0  0
  1  7  1  0  0  0  0
  2  1  2  0  0  0  0
  3  4  2  0  0  0  0
  3  2  1  0  0  0  0
  4  5  1  0  0  0  0
  5  9  1  0  0  0  0
  5  6  2  0  0  0  0
  8  2  1  0  0  0  0
  9 10  1  0  0  0  0
  9 12  1  0  0  0  0
 11  9  1  0  0  0  0
 12 13  1  0  0  0  0
 12 15  1  0  0  0  0
 14 12  1  0  0  0  0
 15 20  2  0  0  0  0
 15 16  1  0  0  0  0
 16 17  2  0  0  0  0
 17 18  1  0  0  0  0
 17 22  1  0  0  0  0
 18 23  1  0  0  0  0
 19 24  1  0  0  0  0
 19 18  2  0  0  0  0
 20 19  1  0  0  0  0
 21 16  1  0  0  0  0
 25 26  2  0  0  0  0
 27 25  1  0  0  0  0
 27 20  1  0  0  0  0
 28 25  1  0  0  0  0
 29 27  1  0  0  0  0
 30 33  1  0  0  0  0
 30  3  1  0  0  0  0
 31 30  1  0  0  0  0
 32 30  1  0  0  0  0
 33 35  1  0  0  0  0
 33 34  1  0  0  0  0
 36 33  1  0  0  0  0
 37 36  2  0  0  0  0
 38 37  1  0  0  0  0
 39 38  2  0  0  0  0
 39 40  1  0  0  0  0
 40 47  1  0  0  0  0
 41 40  2  0  0  0  0
 41 42  1  0  0  0  0
 42 44  2  0  0  0  0
 43 42  1  0  0  0  0
 44 46  1  0  0  0  0
 44 45  1  0  0  0  0
 47 36  1  0  0  0  0
 47 46  2  0  0  0  0
M  END
>  <minimizedAffinity>
-6.76455927

>  <minimizedRMSD>
0.999670804

$$$$
