
 OpenBabel03252506383D

 47 51  0  0  1  0  0  0  0  0999 V2000
   46.7040   29.9850   46.5250 S   0  0  0  0  0  0  0  0  0  0  0  0
   45.3870   30.5290   43.5050 O   0  0  0  0  0  0  0  0  0  0  0  0
   44.8530   29.9590   44.4700 C   0  0  0  0  0  0  0  0  0  0  0  0
   45.0960   29.7020   45.9120 C   0  0  1  0  0  0  0  0  0  0  0  0
   44.5910   28.2890   46.0680 C   0  0  0  0  0  0  0  0  0  0  0  0
   43.2070   28.5010   45.4490 C   0  0  0  0  0  0  0  0  0  0  0  0
   43.5960   29.2900   44.2860 N   0  0  0  0  0  0  0  0  0  0  0  0
   44.2420   30.2940   46.3440 H   0  0  0  0  0  0  0  0  0  0  0  0
   44.4380   27.9900   47.1180 H   0  0  0  0  0  0  0  0  0  0  0  0
   45.1860   27.5770   45.4920 H   0  0  0  0  0  0  0  0  0  0  0  0
   42.6220   29.1480   46.1330 H   0  0  0  0  0  0  0  0  0  0  0  0
   42.7200   27.5540   45.1940 H   0  0  0  0  0  0  0  0  0  0  0  0
   42.7020   29.2910   43.1550 C   0  0  0  0  0  0  0  0  0  0  0  0
   42.4290   30.4740   42.5600 N   0  0  0  0  0  0  0  0  0  0  0  0
   41.5950   30.5640   41.4840 C   0  0  0  0  0  3  0  0  0  0  0  0
   41.0100   29.4760   40.9760 N   0  0  0  0  0  0  0  0  0  0  0  0
   41.2630   28.2830   41.5490 C   0  0  0  0  0  0  0  0  0  0  0  0
   40.6770   27.1360   41.0510 C   0  0  0  0  0  3  0  0  0  0  0  0
   40.9180   25.8910   41.6190 C   0  0  0  0  0  0  0  0  0  0  0  0
   40.4500   25.0030   41.2170 H   0  0  0  0  0  0  0  0  0  0  0  0
   41.7730   25.8370   42.7140 C   0  0  0  0  0  0  0  0  0  0  0  0
   41.9360   24.8520   43.1280 H   0  0  0  0  0  0  0  0  0  0  0  0
   42.3900   26.9610   43.2550 C   0  0  0  0  0  3  0  0  0  0  0  0
   42.1030   28.1580   42.6370 C   0  0  0  0  0  0  0  0  0  0  0  0
   44.5310   35.4660   45.1740 C   0  0  0  0  0  0  0  0  0  0  0  0
   45.1910   35.4750   43.9200 C   0  0  0  0  0  0  0  0  0  0  0  0
   46.1180   34.5220   43.6520 C   0  0  0  0  0  0  0  0  0  0  0  0
   46.3580   33.6050   44.6220 N   0  0  0  0  0  0  0  0  0  0  0  0
   45.7380   33.6020   45.7930 C   0  0  0  0  0  0  0  0  0  0  0  0
   44.8220   34.5250   46.0840 N   0  0  0  0  0  0  0  0  0  0  0  0
   46.0780   32.5820   46.7480 N   0  0  0  0  0  0  0  0  0  0  0  0
   45.3470   32.3120   47.9290 C   0  0  0  0  0  0  0  0  0  0  0  0
   46.4260   31.9670   48.9370 C   0  0  0  0  0  0  0  0  0  0  0  0
   47.7060   31.8750   48.1620 C   0  0  0  0  0  0  0  0  0  0  0  0
   47.2040   31.6790   46.7340 C   0  0  1  0  0  0  0  0  0  0  0  0
   43.7920   36.2280   45.3840 H   0  0  0  0  0  0  0  0  0  0  0  0
   46.6180   34.5190   42.7160 H   0  0  0  0  0  0  0  0  0  0  0  0
   44.9490   33.3100   48.2950 H   0  0  0  0  0  0  0  0  0  0  0  0
   44.5640   31.6330   48.0270 H   0  0  0  0  0  0  0  0  0  0  0  0
   46.2260   30.9580   49.3940 H   0  0  0  0  0  0  0  0  0  0  0  0
   46.5050   32.6650   49.7690 H   0  0  0  0  0  0  0  0  0  0  0  0
   48.2930   31.0060   48.4950 H   0  0  0  0  0  0  0  0  0  0  0  0
   48.3070   32.8020   48.2300 H   0  0  0  0  0  0  0  0  0  0  0  0
   47.9950   31.9760   46.0430 H   0  0  0  0  0  0  0  0  0  0  0  0
   44.8240   36.5160   42.9990 N   0  0  0  0  0  0  0  0  0  0  0  0
   45.5520   36.8880   42.3280 H   0  0  0  0  0  0  0  0  0  0  0  0
   43.8500   36.8640   43.0290 H   0  0  0  0  0  0  0  0  0  0  0  0
  1 35  1  0  0  0  0
  2  3  2  0  0  0  0
  3  4  1  0  0  0  0
  4  5  1  0  0  0  0
  4  8  1  1  0  0  0
  4  1  1  0  0  0  0
  5  9  1  0  0  0  0
  6  5  1  0  0  0  0
  6 11  1  0  0  0  0
  7  3  1  0  0  0  0
  7  6  1  0  0  0  0
 10  5  1  0  0  0  0
 12  6  1  0  0  0  0
 13  7  1  0  0  0  0
 14 13  2  0  0  0  0
 15 14  1  0  0  0  0
 16 15  2  0  0  0  0
 16 17  1  0  0  0  0
 17 24  1  0  0  0  0
 18 17  2  0  0  0  0
 18 19  1  0  0  0  0
 19 21  2  0  0  0  0
 20 19  1  0  0  0  0
 21 22  1  0  0  0  0
 21 23  1  0  0  0  0
 24 13  1  0  0  0  0
 24 23  2  0  0  0  0
 25 36  1  0  0  0  0
 25 30  1  0  0  0  0
 26 25  2  0  0  0  0
 27 26  1  0  0  0  0
 27 28  2  0  0  0  0
 28 29  1  0  0  0  0
 29 30  2  0  0  0  0
 29 31  1  0  0  0  0
 31 32  1  0  0  0  0
 32 39  1  0  0  0  0
 32 38  1  0  0  0  0
 32 33  1  0  0  0  0
 33 40  1  0  0  0  0
 33 41  1  0  0  0  0
 34 43  1  0  0  0  0
 34 42  1  0  0  0  0
 34 33  1  0  0  0  0
 35 44  1  6  0  0  0
 35 31  1  0  0  0  0
 35 34  1  0  0  0  0
 37 27  1  0  0  0  0
 45 47  1  0  0  0  0
 45 26  1  0  0  0  0
 46 45  1  0  0  0  0
M  END
>  <minimizedAffinity>
-5.80873156

>  <minimizedRMSD>
0.295344502

$$$$
