
 OpenBabel03242512013D

 50 54  0  0  1  0  0  0  0  0999 V2000
   47.2180   34.1510   42.4030 C   0  0  2  0  0  0  0  0  0  0  0  0
   48.5970   34.7110   42.5800 C   0  0  0  0  0  0  0  0  0  0  0  0
   48.9400   35.7160   41.5520 C   0  0  0  0  0  0  0  0  0  0  0  0
   48.7740   35.2030   40.1400 C   0  0  0  0  0  0  0  0  0  0  0  0
   47.5680   34.3270   39.9550 C   0  0  0  0  0  0  0  0  0  0  0  0
   46.5820   34.4350   41.0940 C   0  0  1  0  0  0  0  0  0  0  0  0
   47.3440   33.0290   42.4930 H   0  0  0  0  0  0  0  0  0  0  0  0
   49.3820   33.9340   42.5840 H   0  0  0  0  0  0  0  0  0  0  0  0
   48.6220   35.2110   43.5760 H   0  0  0  0  0  0  0  0  0  0  0  0
   48.3520   36.6390   41.7290 H   0  0  0  0  0  0  0  0  0  0  0  0
   50.0210   35.9970   41.6910 H   0  0  0  0  0  0  0  0  0  0  0  0
   48.7100   36.0920   39.4780 H   0  0  0  0  0  0  0  0  0  0  0  0
   49.7020   34.6660   39.7980 H   0  0  0  0  0  0  0  0  0  0  0  0
   47.8770   33.2620   39.7880 H   0  0  0  0  0  0  0  0  0  0  0  0
   47.0600   34.6250   39.0230 H   0  0  0  0  0  0  0  0  0  0  0  0
   46.1000   35.4150   40.9730 H   0  0  0  0  0  0  0  0  0  0  0  0
   46.3060   34.5110   43.5080 C   0  0  0  0  0  0  0  0  0  0  0  0
   45.6020   35.6800   43.2740 C   0  0  0  0  0  0  0  0  0  0  0  0
   44.6910   36.1480   44.2350 C   0  0  0  0  0  0  0  0  0  0  0  0
   44.5730   35.3620   45.3870 N   0  0  0  0  0  0  0  0  0  0  0  0
   45.2840   34.2300   45.5670 C   0  0  0  0  0  0  0  0  0  0  0  0
   46.1430   33.8220   44.6180 N   0  0  0  0  0  0  0  0  0  0  0  0
   45.5540   36.4140   42.4850 H   0  0  0  0  0  0  0  0  0  0  0  0
   44.0660   37.0030   44.2460 H   0  0  0  0  0  0  0  0  0  0  0  0
   45.1290   33.6920   46.4810 H   0  0  0  0  0  0  0  0  0  0  0  0
   45.5050   33.4060   40.8700 C   0  0  2  0  0  0  0  0  0  0  0  0
   44.9720   33.2390   39.4580 C   0  0  0  0  0  0  0  0  0  0  0  0
   44.1270   33.8320   40.5040 C   0  0  1  0  0  0  0  0  0  0  0  0
   45.6620   32.4280   41.3700 H   0  0  0  0  0  0  0  0  0  0  0  0
   45.3080   33.8840   38.6420 H   0  0  0  0  0  0  0  0  0  0  0  0
   44.6410   32.2400   39.1050 H   0  0  0  0  0  0  0  0  0  0  0  0
   43.9640   34.9300   40.4660 H   0  0  0  0  0  0  0  0  0  0  0  0
   43.0610   33.0850   41.2540 C   0  0  0  0  0  0  0  0  0  0  0  0
   43.4410   32.8360   42.2880 H   0  0  0  0  0  0  0  0  0  0  0  0
   42.9340   32.1000   40.7720 H   0  0  0  0  0  0  0  0  0  0  0  0
   41.7990   33.8560   41.4610 C   0  0  0  0  0  0  0  0  0  0  0  0
   41.8810   34.8050   40.8760 H   0  0  0  0  0  0  0  0  0  0  0  0
   41.6920   34.0790   42.5510 H   0  0  0  0  0  0  0  0  0  0  0  0
   40.5710   33.1630   41.0430 C   0  0  0  0  0  0  0  0  0  0  0  0
   40.0140   32.1990   41.8190 N   0  0  0  0  0  0  0  0  0  0  0  0
   38.9000   31.5420   41.4550 C   0  0  0  0  0  0  0  0  0  0  0  0
   38.2320   31.7620   40.3080 N   0  0  0  0  0  0  0  0  0  0  0  0
   38.7350   32.7070   39.4960 C   0  0  0  0  0  0  0  0  0  0  0  0
   38.1560   33.0430   38.2910 C   0  0  0  0  0  0  0  0  0  0  0  0
   38.6280   34.0050   37.4220 C   0  0  0  0  0  0  0  0  0  0  0  0
   38.1190   34.2090   36.5000 H   0  0  0  0  0  0  0  0  0  0  0  0
   39.7740   34.6810   37.7990 C   0  0  0  0  0  0  0  0  0  0  0  0
   40.1730   35.4390   37.1460 H   0  0  0  0  0  0  0  0  0  0  0  0
   40.3790   34.3570   39.0180 C   0  0  0  0  0  0  0  0  0  0  0  0
   39.8760   33.3880   39.8590 C   0  0  0  0  0  0  0  0  0  0  0  0
  1  7  1  1  0  0  0
  1  2  1  0  0  0  0
  1 17  1  0  0  0  0
  2  8  1  0  0  0  0
  2  9  1  0  0  0  0
  3 11  1  0  0  0  0
  3 10  1  0  0  0  0
  3  2  1  0  0  0  0
  4  3  1  0  0  0  0
  5  4  1  0  0  0  0
  5  6  1  0  0  0  0
  6 16  1  1  0  0  0
  6  1  1  0  0  0  0
 12  4  1  0  0  0  0
 13  4  1  0  0  0  0
 14  5  1  0  0  0  0
 15  5  1  0  0  0  0
 17 22  1  0  0  0  0
 18 17  2  0  0  0  0
 18 19  1  0  0  0  0
 19 24  1  0  0  0  0
 19 20  2  0  0  0  0
 20 21  1  0  0  0  0
 21 25  1  0  0  0  0
 22 21  2  0  0  0  0
 23 18  1  0  0  0  0
 26  6  1  0  0  0  0
 26 29  1  1  0  0  0
 27 28  1  0  0  0  0
 27 26  1  0  0  0  0
 28 32  1  6  0  0  0
 28 26  1  0  0  0  0
 28 33  1  0  0  0  0
 30 27  1  0  0  0  0
 31 27  1  0  0  0  0
 33 36  1  0  0  0  0
 33 34  1  0  0  0  0
 35 33  1  0  0  0  0
 36 38  1  0  0  0  0
 37 36  1  0  0  0  0
 39 36  1  0  0  0  0
 39 40  1  0  0  0  0
 41 40  2  0  0  0  0
 42 41  1  0  0  0  0
 43 50  1  0  0  0  0
 43 42  2  0  0  0  0
 44 43  1  0  0  0  0
 45 47  1  0  0  0  0
 45 44  2  0  0  0  0
 46 45  1  0  0  0  0
 47 49  2  0  0  0  0
 48 47  1  0  0  0  0
 49 50  1  0  0  0  0
 50 39  2  0  0  0  0
M  END
>  <minimizedAffinity>
-7.57304716

>  <minimizedRMSD>
2.63128495

$$$$
