
 OpenBabel03252508033D

 45 49  0  0  1  0  0  0  0  0999 V2000
   42.0730   33.2540   41.1220 C   0  0  0  0  0  0  0  0  0  0  0  0
   42.8030   34.3880   41.3230 C   0  0  0  0  0  0  0  0  0  0  0  0
   42.1320   35.6290   41.2870 C   0  0  0  0  0  0  0  0  0  0  0  0
   40.7770   35.7380   41.0580 C   0  0  0  0  0  0  0  0  0  0  0  0
   40.0540   34.5960   40.8580 C   0  0  0  0  0  0  0  0  0  0  0  0
   40.6990   33.3970   40.8920 C   0  0  0  0  0  0  0  0  0  0  0  0
   42.6210   36.5780   41.4260 H   0  0  0  0  0  0  0  0  0  0  0  0
   40.2690   36.6810   41.0320 H   0  0  0  0  0  0  0  0  0  0  0  0
   39.0080   34.6030   40.6760 H   0  0  0  0  0  0  0  0  0  0  0  0
   40.1150   32.4770   40.7290 H   0  0  0  0  0  0  0  0  0  0  0  0
   42.7590   31.7130   41.1840 S   0  0  0  0  0  0  0  0  0  0  0  0
   41.7360   30.8550   40.4460 O   0  0  0  0  0  0  0  0  0  0  0  0
   42.7900   31.2670   42.6290 O   0  0  0  0  0  0  0  0  0  0  0  0
   43.9830   31.0060   40.3250 C   0  0  0  0  0  0  0  0  0  0  0  0
   44.4540   31.3410   39.1020 N   0  0  0  0  0  0  0  0  0  0  0  0
   45.2960   30.7500   38.3010 C   0  0  0  0  0  3  0  0  0  0  0  0
   45.7860   29.6090   38.7630 N   0  0  0  0  0  0  0  0  0  0  0  0
   45.4370   29.1170   39.9540 C   0  0  0  0  0  0  0  0  0  0  0  0
   46.0580   27.9000   40.2460 C   0  0  0  0  0  3  0  0  0  0  0  0
   45.7450   27.3230   41.4580 C   0  0  0  0  0  0  0  0  0  0  0  0
   46.1920   26.3830   41.7400 H   0  0  0  0  0  0  0  0  0  0  0  0
   44.8590   27.9560   42.3060 C   0  0  0  0  0  0  0  0  0  0  0  0
   44.6350   27.4800   43.2490 H   0  0  0  0  0  0  0  0  0  0  0  0
   44.3040   29.1510   41.9200 C   0  0  0  0  0  3  0  0  0  0  0  0
   44.5460   29.8050   40.7360 C   0  0  0  0  0  0  0  0  0  0  0  0
   44.2340   34.3790   41.5540 C   0  0  0  0  0  0  0  0  0  0  0  0
   45.1090   34.3110   40.6230 O   0  0  0  0  0  0  0  0  0  0  0  0
   44.5840   34.4560   42.9430 C   0  0  0  0  0  0  0  0  0  0  0  0
   44.3070   35.7080   43.5690 C   0  0  0  0  0  0  0  0  0  0  0  0
   44.6330   35.8080   44.9210 C   0  0  0  0  0  0  0  0  0  0  0  0
   45.1790   34.7280   45.5410 N   0  0  0  0  0  0  0  0  0  0  0  0
   45.4170   33.5690   44.8860 C   0  0  0  0  0  0  0  0  0  0  0  0
   45.1250   33.4530   43.6340 N   0  0  0  0  0  0  0  0  0  0  0  0
   43.8890   36.5980   43.1740 H   0  0  0  0  0  0  0  0  0  0  0  0
   44.4780   36.6950   45.5230 H   0  0  0  0  0  0  0  0  0  0  0  0
   46.0080   32.4370   45.6450 C   0  0  1  0  0  0  0  0  0  0  0  0
   46.9690   32.7400   46.7760 C   0  0  0  0  0  0  0  0  0  0  0  0
   45.5650   32.3080   47.0400 C   0  0  1  0  0  0  0  0  0  0  0  0
   46.1910   31.5260   45.0710 H   0  0  0  0  0  0  0  0  0  0  0  0
   47.7450   31.9640   46.9620 H   0  0  0  0  0  0  0  0  0  0  0  0
   47.2790   33.7950   46.8580 H   0  0  0  0  0  0  0  0  0  0  0  0
   45.3860   31.3010   47.4580 H   0  0  0  0  0  0  0  0  0  0  0  0
   44.7790   33.3780   47.6480 N   0  0  0  0  0  0  0  0  0  0  0  0
   44.2090   32.9880   48.4560 H   0  0  0  0  0  0  0  0  0  0  0  0
   45.3350   34.1600   48.0100 H   0  0  0  0  0  0  0  0  0  0  0  0
  1 11  1  0  0  0  0
  1  2  1  0  0  0  0
  2 26  1  0  0  0  0
  3  2  2  0  0  0  0
  3  7  1  0  0  0  0
  4  3  1  0  0  0  0
  5  6  1  0  0  0  0
  5  4  2  0  0  0  0
  6  1  2  0  0  0  0
  8  4  1  0  0  0  0
  9  5  1  0  0  0  0
 10  6  1  0  0  0  0
 11 13  2  0  0  0  0
 12 11  2  0  0  0  0
 14 25  1  0  0  0  0
 14 11  1  0  0  0  0
 15 14  2  0  0  0  0
 16 17  2  0  0  0  0
 16 15  1  0  0  0  0
 17 18  1  0  0  0  0
 18 19  2  0  0  0  0
 18 25  1  0  0  0  0
 19 20  1  0  0  0  0
 20 21  1  0  0  0  0
 20 22  2  0  0  0  0
 22 23  1  0  0  0  0
 24 22  1  0  0  0  0
 25 24  2  0  0  0  0
 26 28  1  0  0  0  0
 27 26  2  0  0  0  0
 28 29  2  0  0  0  0
 28 33  1  0  0  0  0
 29 30  1  0  0  0  0
 30 35  1  0  0  0  0
 30 31  2  0  0  0  0
 32 31  1  0  0  0  0
 32 36  1  0  0  0  0
 33 32  2  0  0  0  0
 34 29  1  0  0  0  0
 36 39  1  6  0  0  0
 36 37  1  0  0  0  0
 36 38  1  0  0  0  0
 37 41  1  0  0  0  0
 37 40  1  0  0  0  0
 37 38  1  0  0  0  0
 38 42  1  1  0  0  0
 38 43  1  0  0  0  0
 43 45  1  0  0  0  0
 43 44  1  0  0  0  0
M  END
>  <minimizedAffinity>
-5.72752428

>  <minimizedRMSD>
1.42824495

$$$$
