
 OpenBabel03242511083D

 46 51  0  0  1  0  0  0  0  0999 V2000
   45.9330   32.1280   44.2040 C   0  0  0  0  0  0  0  0  0  0  0  0
   46.2120   31.4490   45.3770 C   0  0  0  0  0  0  0  0  0  0  0  0
   46.0210   31.9910   46.6430 C   0  0  0  0  0  0  0  0  0  0  0  0
   45.5260   33.2720   46.7620 C   0  0  0  0  0  0  0  0  0  0  0  0
   45.2400   33.9680   45.6290 C   0  0  0  0  0  0  0  0  0  0  0  0
   44.7490   35.2620   45.7140 C   0  0  0  0  0  0  0  0  0  0  0  0
   44.4500   36.0250   44.6200 C   0  0  0  0  0  0  0  0  0  0  0  0
   44.6650   35.4390   43.3860 C   0  0  0  0  0  0  0  0  0  0  0  0
   45.1540   34.1480   43.3000 C   0  0  0  0  0  0  0  0  0  0  0  0
   45.4470   33.3910   44.3940 C   0  0  0  0  0  0  0  0  0  0  0  0
   46.6020   30.4400   45.4370 H   0  0  0  0  0  0  0  0  0  0  0  0
   46.2370   31.4730   47.5630 H   0  0  0  0  0  0  0  0  0  0  0  0
   45.3790   33.7030   47.7530 H   0  0  0  0  0  0  0  0  0  0  0  0
   44.6070   35.6620   46.7030 H   0  0  0  0  0  0  0  0  0  0  0  0
   44.0710   37.0270   44.7590 H   0  0  0  0  0  0  0  0  0  0  0  0
   44.4030   36.1050   42.5580 H   0  0  0  0  0  0  0  0  0  0  0  0
   45.2790   33.7680   41.8960 C   0  0  0  0  0  0  0  0  0  0  0  0
   44.5760   33.0560   41.0240 N   0  0  0  0  0  0  0  0  0  0  0  0
   44.9480   32.8330   39.7720 C   0  0  0  0  0  0  0  0  0  0  0  0
   46.0970   33.3160   39.2550 N   0  0  0  0  0  0  0  0  0  0  0  0
   46.9170   34.0670   40.0480 C   0  0  0  0  0  0  0  0  0  0  0  0
   48.0780   34.5340   39.5030 C   0  0  0  0  0  0  0  0  0  0  0  0
   48.9230   35.2800   40.2850 C   0  0  0  0  0  0  0  0  0  0  0  0
   49.8220   35.6320   39.8390 H   0  0  0  0  0  0  0  0  0  0  0  0
   48.5810   35.5330   41.5770 C   0  0  0  0  0  0  0  0  0  0  0  0
   49.2570   36.1160   42.1600 H   0  0  0  0  0  0  0  0  0  0  0  0
   47.4000   35.0340   42.0630 C   0  0  0  0  0  0  0  0  0  0  0  0
   46.4720   34.2650   41.3480 C   0  0  0  0  0  0  0  0  0  0  0  0
   46.1520   31.4770   42.9840 N   0  0  0  0  0  0  0  0  0  0  0  0
   45.2460   31.7870   42.5820 H   0  0  0  0  0  0  0  0  0  0  0  0
   48.6540   31.2820   42.6820 C   0  0  1  0  0  0  0  0  0  0  0  0
   48.0050   30.8480   41.3840 C   0  0  0  0  0  0  0  0  0  0  0  0
   47.3280   30.6860   42.7370 C   0  0  2  0  0  0  0  0  0  0  0  0
   48.8650   32.3860   42.6390 H   0  0  0  0  0  0  0  0  0  0  0  0
   47.5640   31.5680   40.6940 H   0  0  0  0  0  0  0  0  0  0  0  0
   48.3460   29.9130   40.8940 H   0  0  0  0  0  0  0  0  0  0  0  0
   47.2790   29.6560   43.1760 H   0  0  0  0  0  0  0  0  0  0  0  0
   50.7950   29.0060   44.6710 C   0  0  0  0  0  0  0  0  0  0  0  0
   52.0710   29.2020   44.0620 C   0  0  0  0  0  0  0  0  0  0  0  0
   52.1560   30.1130   42.9700 C   0  0  0  0  0  0  0  0  0  0  0  0
   51.0610   30.7580   42.5450 N   0  0  0  0  0  0  0  0  0  0  0  0
   49.8590   30.5390   43.1590 C   0  0  0  0  0  0  0  0  0  0  0  0
   49.7330   29.6700   44.2100 N   0  0  0  0  0  0  0  0  0  0  0  0
   50.6680   28.3280   45.5020 H   0  0  0  0  0  0  0  0  0  0  0  0
   52.8920   28.6360   44.4780 H   0  0  0  0  0  0  0  0  0  0  0  0
   53.1350   30.2290   42.5420 H   0  0  0  0  0  0  0  0  0  0  0  0
  1 10  2  0  0  0  0
  1  2  1  0  0  0  0
  2 11  1  0  0  0  0
  2  3  2  0  0  0  0
  3  4  1  0  0  0  0
  3 12  1  0  0  0  0
  4 13  1  0  0  0  0
  5  6  1  0  0  0  0
  5  4  2  0  0  0  0
  6 14  1  0  0  0  0
  7 15  1  0  0  0  0
  7  6  2  0  0  0  0
  8  7  1  0  0  0  0
  9  8  2  0  0  0  0
  9 10  1  0  0  0  0
 10  5  1  0  0  0  0
 16  8  1  0  0  0  0
 17  9  1  0  0  0  0
 18 17  2  0  0  0  0
 19 18  1  0  0  0  0
 20 19  2  0  0  0  0
 20 21  1  0  0  0  0
 21 28  1  0  0  0  0
 22 21  2  0  0  0  0
 22 23  1  0  0  0  0
 23 25  2  0  0  0  0
 24 23  1  0  0  0  0
 25 27  1  0  0  0  0
 25 26  1  0  0  0  0
 28 17  1  0  0  0  0
 28 27  2  0  0  0  0
 29  1  1  0  0  0  0
 30 29  1  0  0  0  0
 31 34  1  1  0  0  0
 31 33  1  0  0  0  0
 31 42  1  0  0  0  0
 32 31  1  0  0  0  0
 32 33  1  0  0  0  0
 33 29  1  0  0  0  0
 33 37  1  1  0  0  0
 35 32  1  0  0  0  0
 36 32  1  0  0  0  0
 38 44  1  0  0  0  0
 39 45  1  0  0  0  0
 39 38  2  0  0  0  0
 40 39  1  0  0  0  0
 41 40  2  0  0  0  0
 41 42  1  0  0  0  0
 42 43  2  0  0  0  0
 43 38  1  0  0  0  0
 46 40  1  0  0  0  0
M  END
>  <minimizedAffinity>
-6.25256062

>  <minimizedRMSD>
1.73762405

$$$$
