
 OpenBabel03242517483D

 46 50  0  0  0  0  0  0  0  0999 V2000
   38.5340   31.8530   41.2180 C   0  0  0  0  0  0  0  0  0  0  0  0
   39.9180   31.7300   41.0650 C   0  0  0  0  0  0  0  0  0  0  0  0
   40.4200   30.4810   40.7910 C   0  0  0  0  0  0  0  0  0  0  0  0
   39.5600   29.4360   40.6820 N   0  0  0  0  0  0  0  0  0  0  0  0
   38.2190   29.5920   40.8360 C   0  0  0  0  0  0  0  0  0  0  0  0
   37.6850   30.7780   41.1020 N   0  0  0  0  0  0  0  0  0  0  0  0
   38.0770   32.8230   41.4380 H   0  0  0  0  0  0  0  0  0  0  0  0
   41.4910   30.3560   40.6670 H   0  0  0  0  0  0  0  0  0  0  0  0
   37.3690   28.3920   40.6990 C   0  0  0  0  0  0  0  0  0  0  0  0
   36.9330   28.1920   41.7090 H   0  0  0  0  0  0  0  0  0  0  0  0
   37.9140   27.5050   40.3820 H   0  0  0  0  0  0  0  0  0  0  0  0
   36.1850   28.6700   39.7630 C   0  0  0  0  0  0  0  0  0  0  0  0
   35.3010   28.0950   40.1060 H   0  0  0  0  0  0  0  0  0  0  0  0
   35.9470   29.7360   39.7280 H   0  0  0  0  0  0  0  0  0  0  0  0
   36.5800   28.1290   38.4340 C   0  0  0  0  0  0  0  0  0  0  0  0
   37.6420   28.5370   37.7170 N   0  0  0  0  0  0  0  0  0  0  0  0
   37.9570   28.0150   36.5190 C   0  0  0  0  0  3  0  0  0  0  0  0
   37.2190   27.0420   35.9620 N   0  0  0  0  0  0  0  0  0  0  0  0
   36.1320   26.5770   36.6220 C   0  0  0  0  0  0  0  0  0  0  0  0
   35.4070   25.5790   36.0110 C   0  0  0  0  0  3  0  0  0  0  0  0
   34.2960   25.0800   36.6480 C   0  0  0  0  0  0  0  0  0  0  0  0
   33.6740   24.2950   36.2310 H   0  0  0  0  0  0  0  0  0  0  0  0
   33.9600   25.5990   37.8700 C   0  0  0  0  0  0  0  0  0  0  0  0
   33.0870   25.2090   38.3730 H   0  0  0  0  0  0  0  0  0  0  0  0
   34.6820   26.6030   38.4950 C   0  0  0  0  0  3  0  0  0  0  0  0
   35.8090   27.1160   37.8560 C   0  0  0  0  0  0  0  0  0  0  0  0
   40.9830   33.1300   41.2200 S   0  0  0  0  0  0  0  0  0  0  0  0
   40.9320   34.1140   39.7500 C   0  0  0  0  0  0  0  0  0  0  0  0
   39.8380   34.1520   38.8960 C   0  0  0  0  0  0  0  0  0  0  0  0
   39.8770   34.9510   37.7630 C   0  0  0  0  0  0  0  0  0  0  0  0
   40.9730   35.7070   37.4620 C   0  0  0  0  0  0  0  0  0  0  0  0
   42.0560   35.6630   38.3170 C   0  0  0  0  0  0  0  0  0  0  0  0
   42.0490   34.8780   39.4540 C   0  0  0  0  0  0  0  0  0  0  0  0
   38.9830   33.5510   39.1440 H   0  0  0  0  0  0  0  0  0  0  0  0
   38.9670   34.9070   37.1610 H   0  0  0  0  0  0  0  0  0  0  0  0
   40.8970   36.2820   36.5710 H   0  0  0  0  0  0  0  0  0  0  0  0
   42.9050   36.2790   38.0420 H   0  0  0  0  0  0  0  0  0  0  0  0
   43.1980   34.8450   40.3430 C   0  0  0  0  0  0  0  0  0  0  0  0
   44.2790   34.0340   40.1810 C   0  0  0  0  0  0  0  0  0  0  0  0
   45.3730   34.0190   41.0480 C   0  0  0  0  0  0  0  0  0  0  0  0
   45.3590   34.8500   42.1010 N   0  0  0  0  0  0  0  0  0  0  0  0
   44.2890   35.6580   42.2700 C   0  0  0  0  0  0  0  0  0  0  0  0
   43.2380   35.6610   41.4220 N   0  0  0  0  0  0  0  0  0  0  0  0
   44.3020   33.3550   39.3280 H   0  0  0  0  0  0  0  0  0  0  0  0
   46.2040   33.3550   40.8700 H   0  0  0  0  0  0  0  0  0  0  0  0
   44.1440   36.3850   43.0840 H   0  0  0  0  0  0  0  0  0  0  0  0
  1  7  1  0  0  0  0
  2  1  2  0  0  0  0
  2 27  1  0  0  0  0
  3  2  1  0  0  0  0
  4  3  2  0  0  0  0
  4  5  1  0  0  0  0
  5  6  2  0  0  0  0
  6  1  1  0  0  0  0
  8  3  1  0  0  0  0
  9  5  1  0  0  0  0
  9 10  1  0  0  0  0
 11  9  1  0  0  0  0
 12 13  1  0  0  0  0
 12  9  1  0  0  0  0
 14 12  1  0  0  0  0
 15 12  1  0  0  0  0
 16 15  2  0  0  0  0
 17 16  1  0  0  0  0
 18 17  2  0  0  0  0
 18 19  1  0  0  0  0
 19 26  1  0  0  0  0
 20 19  2  0  0  0  0
 20 21  1  0  0  0  0
 21 23  2  0  0  0  0
 22 21  1  0  0  0  0
 23 24  1  0  0  0  0
 23 25  1  0  0  0  0
 26 15  1  0  0  0  0
 26 25  2  0  0  0  0
 28 27  1  0  0  0  0
 29 34  1  0  0  0  0
 29 28  2  0  0  0  0
 30 29  1  0  0  0  0
 31 30  2  0  0  0  0
 31 32  1  0  0  0  0
 32 33  2  0  0  0  0
 33 28  1  0  0  0  0
 33 38  1  0  0  0  0
 35 30  1  0  0  0  0
 36 31  1  0  0  0  0
 37 32  1  0  0  0  0
 38 43  1  0  0  0  0
 39 38  2  0  0  0  0
 39 40  1  0  0  0  0
 40 41  2  0  0  0  0
 41 42  1  0  0  0  0
 42 46  1  0  0  0  0
 43 42  2  0  0  0  0
 44 39  1  0  0  0  0
 45 40  1  0  0  0  0
M  END
>  <minimizedAffinity>
-5.41922522

>  <minimizedRMSD>
1.56546307

$$$$
