
 OpenBabel03242523303D

 25 27  0  0  0  0  0  0  0  0999 V2000
   45.7750   33.6780   45.1650 S   0  0  0  0  0  0  0  0  0  0  0  0
   46.0480   31.9220   45.3370 C   0  0  0  0  0  0  0  0  0  0  0  0
   45.6460   30.9720   44.4590 N   0  0  0  0  0  0  0  0  0  0  0  0
   45.9110   29.6740   44.7050 C   0  0  0  0  0  3  0  0  0  0  0  0
   46.5790   29.2800   45.8230 N   0  0  0  0  0  0  0  0  0  0  0  0
   47.0060   30.1930   46.7400 C   0  0  0  0  0  0  0  0  0  0  0  0
   47.6790   29.7460   47.8580 C   0  0  0  0  0  3  0  0  0  0  0  0
   48.1040   30.7090   48.7790 C   0  0  0  0  0  0  0  0  0  0  0  0
   48.6370   30.4820   49.6890 H   0  0  0  0  0  0  0  0  0  0  0  0
   47.8460   32.0410   48.5540 C   0  0  0  0  0  0  0  0  0  0  0  0
   48.1600   32.8290   49.2470 H   0  0  0  0  0  0  0  0  0  0  0  0
   47.1680   32.4250   47.4130 C   0  0  0  0  0  3  0  0  0  0  0  0
   46.7240   31.5130   46.4660 C   0  0  0  0  0  0  0  0  0  0  0  0
   45.2000   34.0220   43.4700 C   0  0  0  0  0  0  0  0  0  0  0  0
   44.5130   34.8990   43.4570 H   0  0  0  0  0  0  0  0  0  0  0  0
   44.6260   33.1710   43.0610 H   0  0  0  0  0  0  0  0  0  0  0  0
   47.4980   34.5330   40.5840 C   0  0  0  0  0  0  0  0  0  0  0  0
   48.7270   34.6530   41.2480 C   0  0  0  0  0  0  0  0  0  0  0  0
   48.7480   34.5590   42.6520 C   0  0  0  0  0  0  0  0  0  0  0  0
   47.5710   34.3540   43.3150 N   0  0  0  0  0  0  0  0  0  0  0  0
   46.3930   34.2420   42.6250 C   0  0  0  0  0  0  0  0  0  0  0  0
   46.3790   34.3320   41.2950 N   0  0  0  0  0  0  0  0  0  0  0  0
   47.5200   34.6100   39.5100 H   0  0  0  0  0  0  0  0  0  0  0  0
   49.6850   34.8140   40.7810 H   0  0  0  0  0  0  0  0  0  0  0  0
   49.6370   34.6390   43.2370 H   0  0  0  0  0  0  0  0  0  0  0  0
  1  2  1  0  0  0  0
  2 13  1  0  0  0  0
  3  4  1  0  0  0  0
  3  2  2  0  0  0  0
  4  5  2  0  0  0  0
  5  6  1  0  0  0  0
  6  7  1  0  0  0  0
  7  8  2  0  0  0  0
  8  9  1  0  0  0  0
 10  8  1  0  0  0  0
 10 11  1  0  0  0  0
 12 10  2  0  0  0  0
 13  6  2  0  0  0  0
 13 12  1  0  0  0  0
 14  1  1  0  0  0  0
 15 14  1  0  0  0  0
 16 14  1  0  0  0  0
 17 18  2  0  0  0  0
 17 22  1  0  0  0  0
 18 19  1  0  0  0  0
 19 25  1  0  0  0  0
 19 20  2  0  0  0  0
 21 20  1  0  0  0  0
 21 14  1  0  0  0  0
 22 21  2  0  0  0  0
 23 17  1  0  0  0  0
 24 18  1  0  0  0  0
M  END
>  <minimizedAffinity>
-4.3743372

>  <minimizedRMSD>
4.16958666

$$$$
