
 OpenBabel03252506123D

 39 42  0  0  0  0  0  0  0  0999 V2000
   45.3090   33.3610   41.2600 F   0  0  0  0  0  0  0  0  0  0  0  0
   46.4630   34.0250   41.1350 C   0  0  0  0  0  0  0  0  0  0  0  0
   46.8820   34.8350   42.1700 C   0  0  0  0  0  0  0  0  0  0  0  0
   48.0750   35.5620   42.1220 C   0  0  0  0  0  0  0  0  0  0  0  0
   48.8840   35.4740   40.9880 C   0  0  0  0  0  0  0  0  0  0  0  0
   48.4190   34.6460   39.9760 C   0  0  0  0  0  0  0  0  0  0  0  0
   47.2620   33.9330   40.0070 C   0  0  0  0  0  0  0  0  0  0  0  0
   48.3430   36.1860   42.9820 H   0  0  0  0  0  0  0  0  0  0  0  0
   49.7740   36.0500   41.0160 H   0  0  0  0  0  0  0  0  0  0  0  0
   49.1450   34.6680   39.1690 H   0  0  0  0  0  0  0  0  0  0  0  0
   45.4810   34.1330   45.4860 C   0  0  0  0  0  0  0  0  0  0  0  0
   44.5690   35.1990   45.6450 C   0  0  0  0  0  0  0  0  0  0  0  0
   44.4390   36.1600   44.6070 C   0  0  0  0  0  0  0  0  0  0  0  0
   45.2230   35.9790   43.5020 N   0  0  0  0  0  0  0  0  0  0  0  0
   46.0750   34.9600   43.3840 C   0  0  0  0  0  0  0  0  0  0  0  0
   46.1990   34.0500   44.3660 N   0  0  0  0  0  0  0  0  0  0  0  0
   43.9750   35.2920   46.5400 H   0  0  0  0  0  0  0  0  0  0  0  0
   43.7480   36.9870   44.7030 H   0  0  0  0  0  0  0  0  0  0  0  0
   45.5920   33.1930   46.5310 N   0  0  0  0  0  0  0  0  0  0  0  0
   45.1060   32.3230   46.2140 H   0  0  0  0  0  0  0  0  0  0  0  0
   46.0350   33.2270   47.4710 H   0  0  0  0  0  0  0  0  0  0  0  0
   46.9110   33.1520   38.9460 O   0  0  0  0  0  0  0  0  0  0  0  0
   48.1010   34.6410   37.1120 O   0  0  0  0  0  0  0  0  0  0  0  0
   47.1540   33.4930   37.3130 P   0  0  2  0  0  0  0  0  0  0  0  0
   45.6320   33.8450   36.6130 O   0  0  0  0  0  0  0  0  0  0  0  0
   45.7500   34.1700   35.6680 H   0  0  0  0  0  0  0  0  0  0  0  0
   47.7250   32.1570   36.4500 O   0  0  0  0  0  0  0  0  0  0  0  0
   48.0150   32.1010   35.1150 C   0  0  0  0  0  0  0  0  0  0  0  0
   48.8170   32.8860   34.3760 N   0  0  0  0  0  0  0  0  0  0  0  0
   48.9990   32.7010   33.0630 C   0  0  0  0  0  3  0  0  0  0  0  0
   48.3660   31.6910   32.4070 N   0  0  0  0  0  0  0  0  0  0  0  0
   47.5480   30.8700   33.0870 C   0  0  0  0  0  0  0  0  0  0  0  0
   46.9360   29.8650   32.3630 C   0  0  0  0  0  3  0  0  0  0  0  0
   46.0880   29.0000   33.0250 C   0  0  0  0  0  0  0  0  0  0  0  0
   45.5520   28.1780   32.5730 H   0  0  0  0  0  0  0  0  0  0  0  0
   45.8780   29.1620   34.3820 C   0  0  0  0  0  0  0  0  0  0  0  0
   45.2170   28.5050   34.9540 H   0  0  0  0  0  0  0  0  0  0  0  0
   46.5130   30.1810   35.0560 C   0  0  0  0  0  3  0  0  0  0  0  0
   47.3780   31.0780   34.4250 C   0  0  0  0  0  0  0  0  0  0  0  0
  2  1  1  0  0  0  0
  2  3  1  0  0  0  0
  3 15  1  0  0  0  0
  4  3  2  0  0  0  0
  4  8  1  0  0  0  0
  5  9  1  0  0  0  0
  5  4  1  0  0  0  0
  6  7  1  0  0  0  0
  6  5  2  0  0  0  0
  7  2  2  0  0  0  0
 10  6  1  0  0  0  0
 11 12  1  0  0  0  0
 11 19  1  0  0  0  0
 12 17  1  0  0  0  0
 13 18  1  0  0  0  0
 13 12  2  0  0  0  0
 14 13  1  0  0  0  0
 15 14  2  0  0  0  0
 15 16  1  0  0  0  0
 16 11  2  0  0  0  0
 19 21  1  0  0  0  0
 20 19  1  0  0  0  0
 22  7  1  0  0  0  0
 24 23  2  6  0  0  0
 24 22  1  0  0  0  0
 25 24  1  0  0  0  0
 26 25  1  0  0  0  0
 27 24  1  0  0  0  0
 28 27  1  0  0  0  0
 29 28  2  0  0  0  0
 30 29  1  0  0  0  0
 31 30  2  0  0  0  0
 31 32  1  0  0  0  0
 32 39  1  0  0  0  0
 33 34  1  0  0  0  0
 33 32  2  0  0  0  0
 34 36  2  0  0  0  0
 35 34  1  0  0  0  0
 36 37  1  0  0  0  0
 36 38  1  0  0  0  0
 39 38  2  0  0  0  0
 39 28  1  0  0  0  0
M  END
>  <minimizedAffinity>
-7.30556583

>  <minimizedRMSD>
1.06033564

$$$$
