
 OpenBabel03242523303D

 25 27  0  0  0  0  0  0  0  0999 V2000
   46.8370   31.7360   45.4790 S   0  0  0  0  0  0  0  0  0  0  0  0
   45.6200   30.6140   44.8100 C   0  0  0  0  0  0  0  0  0  0  0  0
   45.0500   30.7080   43.5840 N   0  0  0  0  0  0  0  0  0  0  0  0
   44.1380   29.7960   43.1960 C   0  0  0  0  0  3  0  0  0  0  0  0
   43.7640   28.7680   44.0060 N   0  0  0  0  0  0  0  0  0  0  0  0
   44.3050   28.6250   45.2480 C   0  0  0  0  0  0  0  0  0  0  0  0
   43.8950   27.5680   46.0330 C   0  0  0  0  0  3  0  0  0  0  0  0
   44.4680   27.4510   47.3030 C   0  0  0  0  0  0  0  0  0  0  0  0
   44.2270   26.6680   48.0060 H   0  0  0  0  0  0  0  0  0  0  0  0
   45.4030   28.3680   47.7260 C   0  0  0  0  0  0  0  0  0  0  0  0
   45.8780   28.3160   48.7120 H   0  0  0  0  0  0  0  0  0  0  0  0
   45.7710   29.4050   46.8920 C   0  0  0  0  0  3  0  0  0  0  0  0
   45.2350   29.5700   45.6240 C   0  0  0  0  0  0  0  0  0  0  0  0
   45.9760   33.1080   46.3150 C   0  0  0  0  0  0  0  0  0  0  0  0
   46.6060   33.5270   47.1340 H   0  0  0  0  0  0  0  0  0  0  0  0
   45.0390   32.7650   46.7870 H   0  0  0  0  0  0  0  0  0  0  0  0
   44.4980   35.9900   44.4760 C   0  0  0  0  0  0  0  0  0  0  0  0
   45.2030   35.9150   43.2650 C   0  0  0  0  0  0  0  0  0  0  0  0
   46.1580   34.8940   43.1020 C   0  0  0  0  0  0  0  0  0  0  0  0
   46.3630   34.0160   44.1270 N   0  0  0  0  0  0  0  0  0  0  0  0
   45.6520   34.1260   45.2930 C   0  0  0  0  0  0  0  0  0  0  0  0
   44.7480   35.0950   45.4430 N   0  0  0  0  0  0  0  0  0  0  0  0
   43.7760   36.7830   44.5660 H   0  0  0  0  0  0  0  0  0  0  0  0
   45.0840   36.5760   42.4230 H   0  0  0  0  0  0  0  0  0  0  0  0
   46.7380   34.7630   42.2150 H   0  0  0  0  0  0  0  0  0  0  0  0
  1 14  1  0  0  0  0
  2  1  1  0  0  0  0
  2 13  1  0  0  0  0
  3  2  2  0  0  0  0
  4  3  1  0  0  0  0
  4  5  2  0  0  0  0
  5  6  1  0  0  0  0
  6 13  2  0  0  0  0
  6  7  1  0  0  0  0
  7  8  2  0  0  0  0
  8 10  1  0  0  0  0
  8  9  1  0  0  0  0
 10 11  1  0  0  0  0
 12 10  2  0  0  0  0
 13 12  1  0  0  0  0
 14 16  1  0  0  0  0
 14 15  1  0  0  0  0
 17 23  1  0  0  0  0
 17 22  1  0  0  0  0
 18 17  2  0  0  0  0
 19 18  1  0  0  0  0
 19 20  2  0  0  0  0
 20 21  1  0  0  0  0
 21 22  2  0  0  0  0
 21 14  1  0  0  0  0
 24 18  1  0  0  0  0
 25 19  1  0  0  0  0
M  END
>  <minimizedAffinity>
-4.25343227

>  <minimizedRMSD>
1.01760721

$$$$
