
 OpenBabel03252506383D

 47 51  0  0  1  0  0  0  0  0999 V2000
   46.6910   30.0810   46.5300 S   0  0  0  0  0  0  0  0  0  0  0  0
   45.6130   30.8530   43.4660 O   0  0  0  0  0  0  0  0  0  0  0  0
   45.0300   30.1680   44.3210 C   0  0  0  0  0  0  0  0  0  0  0  0
   45.1610   29.7840   45.7490 C   0  0  1  0  0  0  0  0  0  0  0  0
   44.7240   28.3390   45.7260 C   0  0  0  0  0  0  0  0  0  0  0  0
   43.3890   28.5450   45.0050 C   0  0  0  0  0  0  0  0  0  0  0  0
   43.8330   29.4610   43.9610 N   0  0  0  0  0  0  0  0  0  0  0  0
   44.2410   30.2890   46.1540 H   0  0  0  0  0  0  0  0  0  0  0  0
   44.4980   27.9320   46.7250 H   0  0  0  0  0  0  0  0  0  0  0  0
   45.4070   27.7160   45.1430 H   0  0  0  0  0  0  0  0  0  0  0  0
   42.7130   29.0930   45.6900 H   0  0  0  0  0  0  0  0  0  0  0  0
   42.9810   27.6050   44.6190 H   0  0  0  0  0  0  0  0  0  0  0  0
   43.0420   29.5300   42.7570 C   0  0  0  0  0  0  0  0  0  0  0  0
   42.3730   28.4210   42.3700 N   0  0  0  0  0  0  0  0  0  0  0  0
   41.6020   28.4000   41.2450 C   0  0  0  0  0  3  0  0  0  0  0  0
   41.4790   29.4870   40.4780 N   0  0  0  0  0  0  0  0  0  0  0  0
   42.1340   30.6080   40.8370 C   0  0  0  0  0  0  0  0  0  0  0  0
   42.0300   31.7500   40.0700 C   0  0  0  0  0  3  0  0  0  0  0  0
   42.6940   32.9210   40.4150 C   0  0  0  0  0  0  0  0  0  0  0  0
   42.6020   33.8070   39.8020 H   0  0  0  0  0  0  0  0  0  0  0  0
   43.4710   32.9050   41.5680 C   0  0  0  0  0  0  0  0  0  0  0  0
   43.9710   33.8340   41.8040 H   0  0  0  0  0  0  0  0  0  0  0  0
   43.6090   31.7810   42.3780 C   0  0  0  0  0  3  0  0  0  0  0  0
   42.9210   30.6600   41.9700 C   0  0  0  0  0  0  0  0  0  0  0  0
   44.4990   35.5410   45.1270 C   0  0  0  0  0  0  0  0  0  0  0  0
   45.1780   35.5510   43.8830 C   0  0  0  0  0  0  0  0  0  0  0  0
   46.1170   34.6040   43.6330 C   0  0  0  0  0  0  0  0  0  0  0  0
   46.3490   33.6920   44.6100 N   0  0  0  0  0  0  0  0  0  0  0  0
   45.7100   33.6880   45.7710 C   0  0  0  0  0  0  0  0  0  0  0  0
   44.7830   34.6060   46.0450 N   0  0  0  0  0  0  0  0  0  0  0  0
   46.0420   32.6740   46.7340 N   0  0  0  0  0  0  0  0  0  0  0  0
   45.2940   32.4020   47.9050 C   0  0  0  0  0  0  0  0  0  0  0  0
   46.3600   32.0690   48.9310 C   0  0  0  0  0  0  0  0  0  0  0  0
   47.6530   31.9840   48.1760 C   0  0  0  0  0  0  0  0  0  0  0  0
   47.1750   31.7800   46.7410 C   0  0  1  0  0  0  0  0  0  0  0  0
   43.7510   36.2980   45.3220 H   0  0  0  0  0  0  0  0  0  0  0  0
   46.6320   34.6030   42.7050 H   0  0  0  0  0  0  0  0  0  0  0  0
   44.8830   33.3990   48.2610 H   0  0  0  0  0  0  0  0  0  0  0  0
   44.5150   31.7180   47.9920 H   0  0  0  0  0  0  0  0  0  0  0  0
   46.1600   31.0590   49.3880 H   0  0  0  0  0  0  0  0  0  0  0  0
   46.4200   32.7700   49.7620 H   0  0  0  0  0  0  0  0  0  0  0  0
   48.2410   31.1200   48.5220 H   0  0  0  0  0  0  0  0  0  0  0  0
   48.2460   32.9160   48.2510 H   0  0  0  0  0  0  0  0  0  0  0  0
   47.9740   32.0810   46.0620 H   0  0  0  0  0  0  0  0  0  0  0  0
   44.8190   36.5860   42.9530 N   0  0  0  0  0  0  0  0  0  0  0  0
   45.5550   36.9620   42.2930 H   0  0  0  0  0  0  0  0  0  0  0  0
   43.8410   36.9270   42.9660 H   0  0  0  0  0  0  0  0  0  0  0  0
  1 35  1  0  0  0  0
  2  3  2  0  0  0  0
  3  4  1  0  0  0  0
  4  8  1  1  0  0  0
  4  1  1  0  0  0  0
  5  4  1  0  0  0  0
  5  9  1  0  0  0  0
  6 11  1  0  0  0  0
  6  5  1  0  0  0  0
  7  3  1  0  0  0  0
  7  6  1  0  0  0  0
 10  5  1  0  0  0  0
 12  6  1  0  0  0  0
 13  7  1  0  0  0  0
 14 13  1  0  0  0  0
 15 14  2  0  0  0  0
 16 17  2  0  0  0  0
 16 15  1  0  0  0  0
 17 24  1  0  0  0  0
 18 19  2  0  0  0  0
 18 17  1  0  0  0  0
 19 21  1  0  0  0  0
 20 19  1  0  0  0  0
 21 22  1  0  0  0  0
 21 23  2  0  0  0  0
 24 23  1  0  0  0  0
 24 13  2  0  0  0  0
 25 36  1  0  0  0  0
 25 30  1  0  0  0  0
 26 25  2  0  0  0  0
 27 26  1  0  0  0  0
 27 28  2  0  0  0  0
 28 29  1  0  0  0  0
 29 30  2  0  0  0  0
 29 31  1  0  0  0  0
 31 35  1  0  0  0  0
 31 32  1  0  0  0  0
 32 39  1  0  0  0  0
 32 38  1  0  0  0  0
 32 33  1  0  0  0  0
 33 40  1  0  0  0  0
 33 41  1  0  0  0  0
 34 43  1  0  0  0  0
 34 42  1  0  0  0  0
 34 33  1  0  0  0  0
 35 44  1  6  0  0  0
 35 34  1  0  0  0  0
 37 27  1  0  0  0  0
 45 47  1  0  0  0  0
 45 26  1  0  0  0  0
 46 45  1  0  0  0  0
M  END
>  <minimizedAffinity>
-6.11218834

>  <minimizedRMSD>
0.306661397

$$$$
