
 OpenBabel03252508033D

 45 49  0  0  1  0  0  0  0  0999 V2000
   42.0720   33.2540   41.1250 C   0  0  0  0  0  0  0  0  0  0  0  0
   42.8030   34.3880   41.3250 C   0  0  0  0  0  0  0  0  0  0  0  0
   42.1330   35.6290   41.2880 C   0  0  0  0  0  0  0  0  0  0  0  0
   40.7770   35.7390   41.0600 C   0  0  0  0  0  0  0  0  0  0  0  0
   40.0530   34.5970   40.8600 C   0  0  0  0  0  0  0  0  0  0  0  0
   40.6970   33.3980   40.8950 C   0  0  0  0  0  0  0  0  0  0  0  0
   42.6230   36.5770   41.4260 H   0  0  0  0  0  0  0  0  0  0  0  0
   40.2700   36.6820   41.0330 H   0  0  0  0  0  0  0  0  0  0  0  0
   39.0080   34.6050   40.6790 H   0  0  0  0  0  0  0  0  0  0  0  0
   40.1120   32.4780   40.7330 H   0  0  0  0  0  0  0  0  0  0  0  0
   42.7570   31.7120   41.1880 S   0  0  0  0  0  0  0  0  0  0  0  0
   41.7320   30.8540   40.4510 O   0  0  0  0  0  0  0  0  0  0  0  0
   42.7880   31.2680   42.6330 O   0  0  0  0  0  0  0  0  0  0  0  0
   43.9780   31.0040   40.3280 C   0  0  0  0  0  0  0  0  0  0  0  0
   44.4490   31.3370   39.1040 N   0  0  0  0  0  0  0  0  0  0  0  0
   45.2900   30.7440   38.3040 C   0  0  0  0  0  3  0  0  0  0  0  0
   45.7780   29.6030   38.7660 N   0  0  0  0  0  0  0  0  0  0  0  0
   45.4300   29.1130   39.9570 C   0  0  0  0  0  0  0  0  0  0  0  0
   46.0500   27.8960   40.2500 C   0  0  0  0  0  3  0  0  0  0  0  0
   45.7380   27.3190   41.4640 C   0  0  0  0  0  0  0  0  0  0  0  0
   46.1840   26.3790   41.7450 H   0  0  0  0  0  0  0  0  0  0  0  0
   44.8540   27.9540   42.3110 C   0  0  0  0  0  0  0  0  0  0  0  0
   44.6300   27.4800   43.2550 H   0  0  0  0  0  0  0  0  0  0  0  0
   44.3000   29.1500   41.9240 C   0  0  0  0  0  3  0  0  0  0  0  0
   44.5410   29.8020   40.7390 C   0  0  0  0  0  0  0  0  0  0  0  0
   44.2340   34.3770   41.5550 C   0  0  0  0  0  0  0  0  0  0  0  0
   45.1080   34.3080   40.6230 O   0  0  0  0  0  0  0  0  0  0  0  0
   44.5840   34.4550   42.9440 C   0  0  0  0  0  0  0  0  0  0  0  0
   44.3080   35.7070   43.5690 C   0  0  0  0  0  0  0  0  0  0  0  0
   44.6340   35.8080   44.9210 C   0  0  0  0  0  0  0  0  0  0  0  0
   45.1810   34.7280   45.5420 N   0  0  0  0  0  0  0  0  0  0  0  0
   45.4170   33.5690   44.8870 C   0  0  0  0  0  0  0  0  0  0  0  0
   45.1250   33.4520   43.6350 N   0  0  0  0  0  0  0  0  0  0  0  0
   43.8890   36.5980   43.1740 H   0  0  0  0  0  0  0  0  0  0  0  0
   44.4800   36.6960   45.5230 H   0  0  0  0  0  0  0  0  0  0  0  0
   46.0090   32.4370   45.6460 C   0  0  1  0  0  0  0  0  0  0  0  0
   46.9700   32.7410   46.7770 C   0  0  0  0  0  0  0  0  0  0  0  0
   45.5650   32.3080   47.0410 C   0  0  1  0  0  0  0  0  0  0  0  0
   46.1920   31.5270   45.0720 H   0  0  0  0  0  0  0  0  0  0  0  0
   47.7460   31.9650   46.9630 H   0  0  0  0  0  0  0  0  0  0  0  0
   47.2790   33.7950   46.8600 H   0  0  0  0  0  0  0  0  0  0  0  0
   45.3870   31.3010   47.4590 H   0  0  0  0  0  0  0  0  0  0  0  0
   44.7790   33.3780   47.6480 N   0  0  0  0  0  0  0  0  0  0  0  0
   44.2080   32.9880   48.4570 H   0  0  0  0  0  0  0  0  0  0  0  0
   45.3350   34.1600   48.0110 H   0  0  0  0  0  0  0  0  0  0  0  0
  1 11  1  0  0  0  0
  1  2  1  0  0  0  0
  2 26  1  0  0  0  0
  3  2  2  0  0  0  0
  3  7  1  0  0  0  0
  4  3  1  0  0  0  0
  5  6  1  0  0  0  0
  5  4  2  0  0  0  0
  6  1  2  0  0  0  0
  8  4  1  0  0  0  0
  9  5  1  0  0  0  0
 10  6  1  0  0  0  0
 11 13  2  0  0  0  0
 12 11  2  0  0  0  0
 14 25  1  0  0  0  0
 14 11  1  0  0  0  0
 15 14  2  0  0  0  0
 16 17  2  0  0  0  0
 16 15  1  0  0  0  0
 17 18  1  0  0  0  0
 18 19  2  0  0  0  0
 18 25  1  0  0  0  0
 19 20  1  0  0  0  0
 20 21  1  0  0  0  0
 20 22  2  0  0  0  0
 22 23  1  0  0  0  0
 24 22  1  0  0  0  0
 25 24  2  0  0  0  0
 26 28  1  0  0  0  0
 27 26  2  0  0  0  0
 28 29  2  0  0  0  0
 28 33  1  0  0  0  0
 29 30  1  0  0  0  0
 30 35  1  0  0  0  0
 30 31  2  0  0  0  0
 32 31  1  0  0  0  0
 32 36  1  0  0  0  0
 33 32  2  0  0  0  0
 34 29  1  0  0  0  0
 36 39  1  6  0  0  0
 36 37  1  0  0  0  0
 36 38  1  0  0  0  0
 37 41  1  0  0  0  0
 37 40  1  0  0  0  0
 37 38  1  0  0  0  0
 38 42  1  1  0  0  0
 38 43  1  0  0  0  0
 43 45  1  0  0  0  0
 43 44  1  0  0  0  0
M  END
>  <minimizedAffinity>
-5.72660589

>  <minimizedRMSD>
2.32003999

$$$$
