
 OpenBabel03252503173D

 39 43  0  0  1  0  0  0  0  0999 V2000
   37.3550   29.9190   38.8450 C   0  0  0  0  0  0  0  0  0  0  0  0
   38.6930   29.8970   39.1470 C   0  0  0  0  0  0  0  0  0  0  0  0
   39.2980   30.7420   38.3350 N   0  0  0  0  0  0  0  0  0  0  0  0
   38.3530   31.2790   37.5450 C   0  0  0  0  0  0  0  0  0  0  0  0
   37.1520   30.7770   37.8550 N   0  0  0  0  0  0  0  0  0  0  0  0
   38.4360   32.2660   36.4870 N   0  0  0  0  0  0  0  0  0  0  0  0
   39.0380   29.2630   39.8740 H   0  0  0  0  0  0  0  0  0  0  0  0
   38.4790   33.2850   36.5400 H   0  0  0  0  0  0  0  0  0  0  0  0
   38.4530   31.8100   35.5510 H   0  0  0  0  0  0  0  0  0  0  0  0
   40.5980   31.0780   38.0330 C   0  0  1  0  0  3  0  0  0  0  0  0
   41.5710   30.8050   37.2380 N   0  0  0  0  0  2  0  0  0  0  0  0
   42.4580   30.5490   36.5060 C   0  0  0  0  0  2  0  0  0  0  0  0
   43.1750   31.5380   37.0760 N   0  0  0  0  0  2  0  0  0  0  0  0
   42.7150   32.3020   38.0690 C   0  0  0  0  0  0  0  0  0  0  0  0
   43.4310   33.3860   38.6940 C   0  0  0  0  0  3  0  0  0  0  0  0
   42.9040   34.1610   39.6910 C   0  0  0  0  0  0  0  0  0  0  0  0
   43.5310   34.9470   40.0870 H   0  0  0  0  0  0  0  0  0  0  0  0
   41.6240   33.9460   40.1680 C   0  0  0  0  0  0  0  0  0  0  0  0
   41.1950   34.5480   40.9440 H   0  0  0  0  0  0  0  0  0  0  0  0
   40.9060   32.9190   39.6040 C   0  0  0  0  0  3  0  0  0  0  0  0
   41.4130   32.0910   38.5710 C   0  0  0  0  0  0  0  0  0  0  0  0
   36.2890   29.1010   39.5050 C   0  0  0  0  0  0  0  0  0  0  0  0
   35.4090   29.5810   40.2970 O   0  0  0  0  0  0  0  0  0  0  0  0
   35.6350   27.2100   38.0800 C   0  0  0  0  0  0  0  0  0  0  0  0
   36.2000   27.6920   39.2700 C   0  0  0  0  0  0  0  0  0  0  0  0
   36.6470   26.7200   40.1690 C   0  0  0  0  0  0  0  0  0  0  0  0
   36.5350   25.4160   39.8970 N   0  0  0  0  0  0  0  0  0  0  0  0
   35.9790   24.9870   38.7300 C   0  0  0  0  0  0  0  0  0  0  0  0
   35.5310   25.8980   37.8290 N   0  0  0  0  0  0  0  0  0  0  0  0
   35.2510   27.8740   37.3080 H   0  0  0  0  0  0  0  0  0  0  0  0
   35.8880   23.8970   38.5230 H   0  0  0  0  0  0  0  0  0  0  0  0
   37.2160   27.1310   41.3840 C   0  0  0  0  0  0  0  0  0  0  0  0
   36.7350   27.5300   42.5900 C   0  0  0  0  0  0  0  0  0  0  0  0
   37.4940   27.8790   43.6020 C   0  0  0  0  0  0  0  0  0  0  0  0
   38.8380   27.8270   43.3930 C   0  0  0  0  0  0  0  0  0  0  0  0
   38.9620   27.2460   41.6620 S   0  0  0  0  0  0  0  0  0  0  0  0
   35.6450   27.5800   42.7910 H   0  0  0  0  0  0  0  0  0  0  0  0
   37.3800   28.2170   44.6100 H   0  0  0  0  0  0  0  0  0  0  0  0
   39.8630   27.9840   43.8170 H   0  0  0  0  0  0  0  0  0  0  0  0
  1  2  2  0  0  0  0
  1 22  1  0  0  0  0
  2  7  1  0  0  0  0
  3  2  1  0  0  0  0
  4  5  2  0  0  0  0
  4  3  1  0  0  0  0
  5  1  1  0  0  0  0
  6  8  1  0  0  0  0
  6  4  1  0  0  0  0
  9  6  1  0  0  0  0
 10  3  1  6  0  0  0
 10 21  1  0  0  0  0
 11 10  1  0  0  0  0
 12 13  1  0  0  0  0
 12 11  1  0  0  0  0
 13 14  1  0  0  0  0
 14 21  2  0  0  0  0
 14 15  1  0  0  0  0
 15 16  2  0  0  0  0
 16 17  1  0  0  0  0
 16 18  1  0  0  0  0
 18 19  1  0  0  0  0
 20 18  2  0  0  0  0
 21 20  1  0  0  0  0
 22 23  2  0  0  0  0
 24 25  1  0  0  0  0
 25 22  1  0  0  0  0
 25 26  2  0  0  0  0
 26 32  1  0  0  0  0
 27 26  1  0  0  0  0
 28 27  2  0  0  0  0
 29 24  2  0  0  0  0
 29 28  1  0  0  0  0
 30 24  1  0  0  0  0
 31 28  1  0  0  0  0
 32 36  1  0  0  0  0
 32 33  2  0  0  0  0
 33 37  1  0  0  0  0
 33 34  1  0  0  0  0
 34 38  1  0  0  0  0
 35 34  2  0  0  0  0
 35 39  1  0  0  0  0
 36 35  1  0  0  0  0
M  END
>  <minimizedAffinity>
-6.54771996

$$$$

 OpenBabel03252503173D

 39 43  0  0  1  0  0  0  0  0999 V2000
   38.1620   30.2800   41.2750 C   0  0  0  0  0  0  0  0  0  0  0  0
   38.8520   29.1280   40.9960 C   0  0  0  0  0  0  0  0  0  0  0  0
   38.3870   28.1840   41.7930 N   0  0  0  0  0  0  0  0  0  0  0  0
   37.4290   28.7410   42.5510 C   0  0  0  0  0  0  0  0  0  0  0  0
   37.2830   30.0340   42.2360 N   0  0  0  0  0  0  0  0  0  0  0  0
   36.5750   28.1820   43.5810 N   0  0  0  0  0  0  0  0  0  0  0  0
   39.5970   29.1400   40.2940 H   0  0  0  0  0  0  0  0  0  0  0  0
   35.7130   27.6430   43.5000 H   0  0  0  0  0  0  0  0  0  0  0  0
   36.9490   28.3930   44.5300 H   0  0  0  0  0  0  0  0  0  0  0  0
   38.7260   26.8880   42.1070 C   0  0  1  0  0  3  0  0  0  0  0  0
   39.4170   26.1760   42.9260 N   0  0  0  0  0  2  0  0  0  0  0  0
   40.0520   25.5310   43.6800 C   0  0  0  0  0  2  0  0  0  0  0  0
   39.5650   24.4200   43.0930 N   0  0  0  0  0  2  0  0  0  0  0  0
   38.7070   24.4430   42.0700 C   0  0  0  0  0  0  0  0  0  0  0  0
   38.1390   23.2850   41.4270 C   0  0  0  0  0  3  0  0  0  0  0  0
   37.2380   23.3610   40.3990 C   0  0  0  0  0  0  0  0  0  0  0  0
   36.8780   22.4270   39.9910 H   0  0  0  0  0  0  0  0  0  0  0  0
   36.8100   24.5800   39.9070 C   0  0  0  0  0  0  0  0  0  0  0  0
   36.1020   24.6560   39.1060 H   0  0  0  0  0  0  0  0  0  0  0  0
   37.3310   25.7110   40.4890 C   0  0  0  0  0  3  0  0  0  0  0  0
   38.2660   25.6790   41.5530 C   0  0  0  0  0  0  0  0  0  0  0  0
   38.3700   31.6100   40.6220 C   0  0  0  0  0  0  0  0  0  0  0  0
   37.4960   32.5430   40.6060 O   0  0  0  0  0  0  0  0  0  0  0  0
   40.6370   32.5570   40.6580 C   0  0  0  0  0  0  0  0  0  0  0  0
   39.6020   31.9150   39.9610 C   0  0  0  0  0  0  0  0  0  0  0  0
   39.8670   31.6130   38.6220 C   0  0  0  0  0  0  0  0  0  0  0  0
   41.0380   31.9240   38.0570 N   0  0  0  0  0  0  0  0  0  0  0  0
   42.0180   32.5480   38.7660 C   0  0  0  0  0  0  0  0  0  0  0  0
   41.8020   32.8600   40.0700 N   0  0  0  0  0  0  0  0  0  0  0  0
   40.5430   32.8420   41.7040 H   0  0  0  0  0  0  0  0  0  0  0  0
   42.9830   32.8050   38.2770 H   0  0  0  0  0  0  0  0  0  0  0  0
   38.8740   30.9770   37.8610 C   0  0  0  0  0  0  0  0  0  0  0  0
   37.7210   31.3680   37.2580 C   0  0  0  0  0  0  0  0  0  0  0  0
   36.9360   30.5590   36.5860 C   0  0  0  0  0  0  0  0  0  0  0  0
   37.3320   29.2600   36.5120 C   0  0  0  0  0  0  0  0  0  0  0  0
   38.8980   29.2530   37.4580 S   0  0  0  0  0  0  0  0  0  0  0  0
   37.3740   32.4220   37.2990 H   0  0  0  0  0  0  0  0  0  0  0  0
   36.0170   30.6040   36.0420 H   0  0  0  0  0  0  0  0  0  0  0  0
   37.1110   28.2290   36.1300 H   0  0  0  0  0  0  0  0  0  0  0  0
  1  5  1  0  0  0  0
  2  1  2  0  0  0  0
  2  3  1  0  0  0  0
  3  4  1  0  0  0  0
  4  6  1  0  0  0  0
  5  4  2  0  0  0  0
  6  9  1  0  0  0  0
  7  2  1  0  0  0  0
  8  6  1  0  0  0  0
 10  3  1  1  0  0  0
 10 11  1  0  0  0  0
 11 12  1  0  0  0  0
 13 12  1  0  0  0  0
 14 13  1  0  0  0  0
 15 14  2  0  0  0  0
 16 15  1  0  0  0  0
 17 16  1  0  0  0  0
 18 16  2  0  0  0  0
 18 20  1  0  0  0  0
 19 18  1  0  0  0  0
 20 21  2  0  0  0  0
 21 14  1  0  0  0  0
 21 10  1  0  0  0  0
 22  1  1  0  0  0  0
 23 22  2  0  0  0  0
 24 30  1  0  0  0  0
 25 22  1  0  0  0  0
 25 24  2  0  0  0  0
 26 25  1  0  0  0  0
 27 26  2  0  0  0  0
 27 28  1  0  0  0  0
 28 29  2  0  0  0  0
 29 24  1  0  0  0  0
 31 28  1  0  0  0  0
 32 26  1  0  0  0  0
 33 37  1  0  0  0  0
 33 32  2  0  0  0  0
 34 33  1  0  0  0  0
 35 34  2  0  0  0  0
 35 36  1  0  0  0  0
 36 32  1  0  0  0  0
 38 34  1  0  0  0  0
 39 35  1  0  0  0  0
M  END
>  <minimizedAffinity>
-6.54527569

$$$$

 OpenBabel03252503173D

 39 43  0  0  1  0  0  0  0  0999 V2000
   38.4200   31.0040   39.6430 C   0  0  0  0  0  0  0  0  0  0  0  0
   39.7480   30.6650   39.6300 C   0  0  0  0  0  0  0  0  0  0  0  0
   40.2570   31.0930   38.4910 N   0  0  0  0  0  0  0  0  0  0  0  0
   39.2630   31.6870   37.8100 C   0  0  0  0  0  0  0  0  0  0  0  0
   38.1260   31.6370   38.5160 N   0  0  0  0  0  0  0  0  0  0  0  0
   39.2440   32.3430   36.5180 N   0  0  0  0  0  0  0  0  0  0  0  0
   40.1450   30.1400   40.4150 H   0  0  0  0  0  0  0  0  0  0  0  0
   39.5210   33.2890   36.2560 H   0  0  0  0  0  0  0  0  0  0  0  0
   38.8850   31.7020   35.7790 H   0  0  0  0  0  0  0  0  0  0  0  0
   41.4510   30.9620   37.8200 C   0  0  1  0  0  3  0  0  0  0  0  0
   42.0640   30.2470   36.9440 N   0  0  0  0  0  2  0  0  0  0  0  0
   42.6200   29.5880   36.1410 C   0  0  0  0  0  2  0  0  0  0  0  0
   43.6690   30.4290   36.2180 N   0  0  0  0  0  2  0  0  0  0  0  0
   43.6990   31.4970   37.0180 C   0  0  0  0  0  0  0  0  0  0  0  0
   44.7850   32.4410   37.1170 C   0  0  0  0  0  3  0  0  0  0  0  0
   44.7550   33.5390   37.9320 C   0  0  0  0  0  0  0  0  0  0  0  0
   45.6270   34.1790   37.9270 H   0  0  0  0  0  0  0  0  0  0  0  0
   43.6580   33.8170   38.7260 C   0  0  0  0  0  0  0  0  0  0  0  0
   43.6180   34.6760   39.3660 H   0  0  0  0  0  0  0  0  0  0  0  0
   42.6000   32.9410   38.6660 C   0  0  0  0  0  3  0  0  0  0  0  0
   42.5890   31.7900   37.8380 C   0  0  0  0  0  0  0  0  0  0  0  0
   37.4440   30.7000   40.7360 C   0  0  0  0  0  0  0  0  0  0  0  0
   36.5430   31.5140   41.1360 O   0  0  0  0  0  0  0  0  0  0  0  0
   38.2250   29.2800   42.5830 C   0  0  0  0  0  0  0  0  0  0  0  0
   37.4710   29.4370   41.4090 C   0  0  0  0  0  0  0  0  0  0  0  0
   36.7810   28.3030   40.9730 C   0  0  0  0  0  0  0  0  0  0  0  0
   36.8460   27.1480   41.6420 N   0  0  0  0  0  0  0  0  0  0  0  0
   37.5890   27.0340   42.7780 C   0  0  0  0  0  0  0  0  0  0  0  0
   38.2760   28.1120   43.2360 N   0  0  0  0  0  0  0  0  0  0  0  0
   38.8040   30.0940   43.0140 H   0  0  0  0  0  0  0  0  0  0  0  0
   37.6370   26.0630   43.3180 H   0  0  0  0  0  0  0  0  0  0  0  0
   36.0130   28.3860   39.8010 C   0  0  0  0  0  0  0  0  0  0  0  0
   34.7680   28.8330   39.4910 C   0  0  0  0  0  0  0  0  0  0  0  0
   34.2570   28.7990   38.2830 C   0  0  0  0  0  0  0  0  0  0  0  0
   35.0500   28.2760   37.3090 C   0  0  0  0  0  0  0  0  0  0  0  0
   36.5770   27.8340   38.2160 S   0  0  0  0  0  0  0  0  0  0  0  0
   34.1000   29.2680   40.2640 H   0  0  0  0  0  0  0  0  0  0  0  0
   33.3490   29.0710   37.7890 H   0  0  0  0  0  0  0  0  0  0  0  0
   35.1600   28.0100   36.2250 H   0  0  0  0  0  0  0  0  0  0  0  0
  1 22  1  0  0  0  0
  2  1  2  0  0  0  0
  2  7  1  0  0  0  0
  3  2  1  0  0  0  0
  4  3  1  0  0  0  0
  4  5  2  0  0  0  0
  5  1  1  0  0  0  0
  6  4  1  0  0  0  0
  8  6  1  0  0  0  0
  9  6  1  0  0  0  0
 10 21  1  0  0  0  0
 10  3  1  6  0  0  0
 11 10  1  0  0  0  0
 12 13  1  0  0  0  0
 12 11  1  0  0  0  0
 13 14  1  0  0  0  0
 14 15  2  0  0  0  0
 14 21  1  0  0  0  0
 15 16  1  0  0  0  0
 16 18  2  0  0  0  0
 17 16  1  0  0  0  0
 18 19  1  0  0  0  0
 20 18  1  0  0  0  0
 21 20  2  0  0  0  0
 22 23  2  0  0  0  0
 22 25  1  0  0  0  0
 24 30  1  0  0  0  0
 24 29  1  0  0  0  0
 25 24  2  0  0  0  0
 26 25  1  0  0  0  0
 26 27  2  0  0  0  0
 27 28  1  0  0  0  0
 28 29  2  0  0  0  0
 28 31  1  0  0  0  0
 32 26  1  0  0  0  0
 33 32  2  0  0  0  0
 33 37  1  0  0  0  0
 34 33  1  0  0  0  0
 35 36  1  0  0  0  0
 35 34  2  0  0  0  0
 36 32  1  0  0  0  0
 38 34  1  0  0  0  0
 39 35  1  0  0  0  0
M  END
>  <minimizedAffinity>
-6.54195929

$$$$

 OpenBabel03252503173D

 39 43  0  0  1  0  0  0  0  0999 V2000
   39.0920   30.7520   41.2300 C   0  0  0  0  0  0  0  0  0  0  0  0
   39.5610   29.4930   40.9550 C   0  0  0  0  0  0  0  0  0  0  0  0
   38.9720   28.6580   41.7900 N   0  0  0  0  0  0  0  0  0  0  0  0
   38.1540   29.3860   42.5680 C   0  0  0  0  0  0  0  0  0  0  0  0
   38.2210   30.6790   42.2270 N   0  0  0  0  0  0  0  0  0  0  0  0
   37.2570   29.0010   43.6390 N   0  0  0  0  0  0  0  0  0  0  0  0
   40.2690   29.3640   40.2270 H   0  0  0  0  0  0  0  0  0  0  0  0
   36.3120   28.6180   43.6010 H   0  0  0  0  0  0  0  0  0  0  0  0
   37.6970   29.1600   44.5700 H   0  0  0  0  0  0  0  0  0  0  0  0
   39.0940   27.3290   42.1220 C   0  0  1  0  0  3  0  0  0  0  0  0
   39.6820   26.5220   42.9320 N   0  0  0  0  0  2  0  0  0  0  0  0
   40.2250   25.7890   43.6780 C   0  0  0  0  0  2  0  0  0  0  0  0
   39.5320   24.7700   43.1360 N   0  0  0  0  0  2  0  0  0  0  0  0
   38.6520   24.9230   42.1430 C   0  0  0  0  0  0  0  0  0  0  0  0
   37.8680   23.8700   41.5470 C   0  0  0  0  0  3  0  0  0  0  0  0
   36.9560   24.0840   40.5500 C   0  0  0  0  0  0  0  0  0  0  0  0
   36.4240   23.2200   40.1770 H   0  0  0  0  0  0  0  0  0  0  0  0
   36.7250   25.3500   40.0450 C   0  0  0  0  0  0  0  0  0  0  0  0
   36.0110   25.5340   39.2680 H   0  0  0  0  0  0  0  0  0  0  0  0
   37.4550   26.3840   40.5810 C   0  0  0  0  0  3  0  0  0  0  0  0
   38.4110   26.2080   41.6130 C   0  0  0  0  0  0  0  0  0  0  0  0
   39.5000   32.0150   40.5390 C   0  0  0  0  0  0  0  0  0  0  0  0
   39.1810   33.1860   40.9410 O   0  0  0  0  0  0  0  0  0  0  0  0
   39.7000   31.7270   38.1070 C   0  0  0  0  0  0  0  0  0  0  0  0
   40.2990   31.9720   39.3520 C   0  0  0  0  0  0  0  0  0  0  0  0
   41.6840   32.1610   39.3340 C   0  0  0  0  0  0  0  0  0  0  0  0
   42.3790   32.1070   38.1930 N   0  0  0  0  0  0  0  0  0  0  0  0
   41.7610   31.8660   37.0040 C   0  0  0  0  0  0  0  0  0  0  0  0
   40.4170   31.6760   36.9770 N   0  0  0  0  0  0  0  0  0  0  0  0
   38.6290   31.5640   38.0000 H   0  0  0  0  0  0  0  0  0  0  0  0
   42.3560   31.8190   36.0650 H   0  0  0  0  0  0  0  0  0  0  0  0
   42.3510   32.4030   40.5450 C   0  0  0  0  0  0  0  0  0  0  0  0
   42.7340   33.5100   41.2320 C   0  0  0  0  0  0  0  0  0  0  0  0
   43.3700   33.4750   42.3800 C   0  0  0  0  0  0  0  0  0  0  0  0
   43.6470   32.2400   42.8780 C   0  0  0  0  0  0  0  0  0  0  0  0
   42.9430   31.1200   41.6120 S   0  0  0  0  0  0  0  0  0  0  0  0
   42.5190   34.5300   40.8530 H   0  0  0  0  0  0  0  0  0  0  0  0
   43.7690   34.1620   43.0950 H   0  0  0  0  0  0  0  0  0  0  0  0
   44.1070   31.6390   43.7050 H   0  0  0  0  0  0  0  0  0  0  0  0
  1  5  1  0  0  0  0
  2  1  2  0  0  0  0
  2  3  1  0  0  0  0
  3  4  1  0  0  0  0
  4  6  1  0  0  0  0
  5  4  2  0  0  0  0
  6  9  1  0  0  0  0
  7  2  1  0  0  0  0
  8  6  1  0  0  0  0
 10  3  1  1  0  0  0
 10 11  1  0  0  0  0
 11 12  1  0  0  0  0
 13 12  1  0  0  0  0
 14 13  1  0  0  0  0
 15 14  2  0  0  0  0
 16 15  1  0  0  0  0
 17 16  1  0  0  0  0
 18 16  2  0  0  0  0
 18 20  1  0  0  0  0
 19 18  1  0  0  0  0
 20 21  2  0  0  0  0
 21 10  1  0  0  0  0
 21 14  1  0  0  0  0
 22 23  2  0  0  0  0
 22  1  1  0  0  0  0
 24 25  1  0  0  0  0
 25 22  1  0  0  0  0
 26 25  2  0  0  0  0
 26 32  1  0  0  0  0
 27 26  1  0  0  0  0
 28 27  2  0  0  0  0
 29 28  1  0  0  0  0
 29 24  2  0  0  0  0
 30 24  1  0  0  0  0
 31 28  1  0  0  0  0
 32 33  2  0  0  0  0
 32 36  1  0  0  0  0
 33 34  1  0  0  0  0
 34 35  2  0  0  0  0
 34 38  1  0  0  0  0
 35 39  1  0  0  0  0
 36 35  1  0  0  0  0
 37 33  1  0  0  0  0
M  END
>  <minimizedAffinity>
-6.19888783

$$$$

 OpenBabel03252503173D

 39 43  0  0  1  0  0  0  0  0999 V2000
   37.7350   31.0870   40.0440 C   0  0  0  0  0  0  0  0  0  0  0  0
   39.0770   30.9720   39.7840 C   0  0  0  0  0  0  0  0  0  0  0  0
   39.6610   32.0720   40.2170 N   0  0  0  0  0  0  0  0  0  0  0  0
   38.7000   32.8550   40.7350 C   0  0  0  0  0  0  0  0  0  0  0  0
   37.5080   32.2520   40.6330 N   0  0  0  0  0  0  0  0  0  0  0  0
   38.7600   34.1610   41.3600 N   0  0  0  0  0  0  0  0  0  0  0  0
   39.4300   30.1410   39.3020 H   0  0  0  0  0  0  0  0  0  0  0  0
   39.0050   34.4230   42.3150 H   0  0  0  0  0  0  0  0  0  0  0  0
   38.5070   34.9110   40.6830 H   0  0  0  0  0  0  0  0  0  0  0  0
   40.9160   32.6310   40.1420 C   0  0  1  0  0  3  0  0  0  0  0  0
   41.6460   33.4290   39.4460 N   0  0  0  0  0  2  0  0  0  0  0  0
   42.3080   34.1610   38.8030 C   0  0  0  0  0  2  0  0  0  0  0  0
   43.2970   34.0140   39.7070 N   0  0  0  0  0  2  0  0  0  0  0  0
   43.1930   33.2440   40.7920 C   0  0  0  0  0  0  0  0  0  0  0  0
   44.2100   33.0740   41.8000 C   0  0  0  0  0  3  0  0  0  0  0  0
   44.0440   32.2950   42.9130 C   0  0  0  0  0  0  0  0  0  0  0  0
   44.8750   32.2400   43.6030 H   0  0  0  0  0  0  0  0  0  0  0  0
   42.8650   31.6100   43.1420 C   0  0  0  0  0  0  0  0  0  0  0  0
   42.7180   31.0000   44.0110 H   0  0  0  0  0  0  0  0  0  0  0  0
   41.8690   31.7400   42.2030 C   0  0  0  0  0  3  0  0  0  0  0  0
   41.9980   32.5340   41.0360 C   0  0  0  0  0  0  0  0  0  0  0  0
   36.6830   30.0770   39.7070 C   0  0  0  0  0  0  0  0  0  0  0  0
   35.4750   30.1380   40.1200 O   0  0  0  0  0  0  0  0  0  0  0  0
   36.8640   29.0540   37.4800 C   0  0  0  0  0  0  0  0  0  0  0  0
   36.9890   28.9540   38.8740 C   0  0  0  0  0  0  0  0  0  0  0  0
   37.4180   27.7150   39.3580 C   0  0  0  0  0  0  0  0  0  0  0  0
   37.6870   26.6990   38.5320 N   0  0  0  0  0  0  0  0  0  0  0  0
   37.5530   26.8360   37.1840 C   0  0  0  0  0  0  0  0  0  0  0  0
   37.1380   28.0230   36.6710 N   0  0  0  0  0  0  0  0  0  0  0  0
   36.5370   29.9700   36.9910 H   0  0  0  0  0  0  0  0  0  0  0  0
   37.7750   25.9780   36.5110 H   0  0  0  0  0  0  0  0  0  0  0  0
   37.5570   27.5400   40.7440 C   0  0  0  0  0  0  0  0  0  0  0  0
   36.7200   27.2260   41.7670 C   0  0  0  0  0  0  0  0  0  0  0  0
   37.1000   27.1220   43.0190 C   0  0  0  0  0  0  0  0  0  0  0  0
   38.4180   27.3510   43.2680 C   0  0  0  0  0  0  0  0  0  0  0  0
   39.0920   27.7230   41.6080 S   0  0  0  0  0  0  0  0  0  0  0  0
   35.6410   27.0310   41.5930 H   0  0  0  0  0  0  0  0  0  0  0  0
   36.6690   26.9010   43.9710 H   0  0  0  0  0  0  0  0  0  0  0  0
   39.2360   27.4070   44.0330 H   0  0  0  0  0  0  0  0  0  0  0  0
  1  5  1  0  0  0  0
  2  1  2  0  0  0  0
  2  3  1  0  0  0  0
  3  4  1  0  0  0  0
  4  6  1  0  0  0  0
  5  4  2  0  0  0  0
  6  8  1  0  0  0  0
  7  2  1  0  0  0  0
  9  6  1  0  0  0  0
 10  3  1  1  0  0  0
 10 21  1  0  0  0  0
 11 10  1  0  0  0  0
 12 11  1  0  0  0  0
 12 13  1  0  0  0  0
 13 14  1  0  0  0  0
 14 21  2  0  0  0  0
 14 15  1  0  0  0  0
 15 16  2  0  0  0  0
 16 18  1  0  0  0  0
 16 17  1  0  0  0  0
 18 19  1  0  0  0  0
 20 18  2  0  0  0  0
 21 20  1  0  0  0  0
 22  1  1  0  0  0  0
 22 23  2  0  0  0  0
 24 25  1  0  0  0  0
 25 26  2  0  0  0  0
 25 22  1  0  0  0  0
 26 32  1  0  0  0  0
 27 26  1  0  0  0  0
 28 27  2  0  0  0  0
 29 28  1  0  0  0  0
 29 24  2  0  0  0  0
 30 24  1  0  0  0  0
 31 28  1  0  0  0  0
 32 36  1  0  0  0  0
 32 33  2  0  0  0  0
 33 34  1  0  0  0  0
 34 35  2  0  0  0  0
 34 38  1  0  0  0  0
 35 39  1  0  0  0  0
 36 35  1  0  0  0  0
 37 33  1  0  0  0  0
M  END
>  <minimizedAffinity>
-6.17822075

$$$$

 OpenBabel03252503173D

 39 43  0  0  1  0  0  0  0  0999 V2000
   39.4780   29.5030   41.9340 C   0  0  0  0  0  0  0  0  0  0  0  0
   39.5130   28.3290   41.2270 C   0  0  0  0  0  0  0  0  0  0  0  0
   38.3960   27.6760   41.4850 N   0  0  0  0  0  0  0  0  0  0  0  0
   37.6820   28.4320   42.3360 C   0  0  0  0  0  0  0  0  0  0  0  0
   38.3430   29.5620   42.6160 N   0  0  0  0  0  0  0  0  0  0  0  0
   36.3820   28.2240   42.9420 N   0  0  0  0  0  0  0  0  0  0  0  0
   40.3370   28.1010   40.6630 H   0  0  0  0  0  0  0  0  0  0  0  0
   35.4470   28.3810   42.5640 H   0  0  0  0  0  0  0  0  0  0  0  0
   36.4770   27.8560   43.9120 H   0  0  0  0  0  0  0  0  0  0  0  0
   37.8870   26.4260   41.2170 C   0  0  1  0  0  3  0  0  0  0  0  0
   37.7950   25.2320   41.6860 N   0  0  0  0  0  2  0  0  0  0  0  0
   37.7140   24.1400   42.1210 C   0  0  0  0  0  2  0  0  0  0  0  0
   36.9430   23.8070   41.0680 N   0  0  0  0  0  2  0  0  0  0  0  0
   36.6120   24.6630   40.0990 C   0  0  0  0  0  0  0  0  0  0  0  0
   35.7710   24.3640   38.9670 C   0  0  0  0  0  3  0  0  0  0  0  0
   35.4350   25.2870   38.0140 C   0  0  0  0  0  0  0  0  0  0  0  0
   34.7970   24.9510   37.2080 H   0  0  0  0  0  0  0  0  0  0  0  0
   35.8910   26.5900   38.0820 C   0  0  0  0  0  0  0  0  0  0  0  0
   35.6330   27.3250   37.3460 H   0  0  0  0  0  0  0  0  0  0  0  0
   36.7010   26.9180   39.1430 C   0  0  0  0  0  3  0  0  0  0  0  0
   37.0750   25.9950   40.1510 C   0  0  0  0  0  0  0  0  0  0  0  0
   40.5470   30.5510   41.9560 C   0  0  0  0  0  0  0  0  0  0  0  0
   40.7720   31.3210   42.9500 O   0  0  0  0  0  0  0  0  0  0  0  0
   42.6510   30.1120   40.7660 C   0  0  0  0  0  0  0  0  0  0  0  0
   41.4010   30.7460   40.8240 C   0  0  0  0  0  0  0  0  0  0  0  0
   41.0770   31.5520   39.7290 C   0  0  0  0  0  0  0  0  0  0  0  0
   41.9170   31.6990   38.7000 N   0  0  0  0  0  0  0  0  0  0  0  0
   43.1230   31.0670   38.6810 C   0  0  0  0  0  0  0  0  0  0  0  0
   43.4780   30.2750   39.7250 N   0  0  0  0  0  0  0  0  0  0  0  0
   43.0100   29.4630   41.5620 H   0  0  0  0  0  0  0  0  0  0  0  0
   43.8120   31.2060   37.8180 H   0  0  0  0  0  0  0  0  0  0  0  0
   39.8440   32.2230   39.7230 C   0  0  0  0  0  0  0  0  0  0  0  0
   39.3940   33.4200   40.1820 C   0  0  0  0  0  0  0  0  0  0  0  0
   38.1550   33.8340   40.0550 C   0  0  0  0  0  0  0  0  0  0  0  0
   37.3000   32.9870   39.4210 C   0  0  0  0  0  0  0  0  0  0  0  0
   38.3660   31.5570   39.0120 S   0  0  0  0  0  0  0  0  0  0  0  0
   40.0700   34.1330   40.7000 H   0  0  0  0  0  0  0  0  0  0  0  0
   37.5660   34.6880   40.3120 H   0  0  0  0  0  0  0  0  0  0  0  0
   36.2560   32.8020   39.0580 H   0  0  0  0  0  0  0  0  0  0  0  0
  1 22  1  0  0  0  0
  1  5  1  0  0  0  0
  2  3  1  0  0  0  0
  2  1  2  0  0  0  0
  3  4  1  0  0  0  0
  4  5  2  0  0  0  0
  4  6  1  0  0  0  0
  6  9  1  0  0  0  0
  7  2  1  0  0  0  0
  8  6  1  0  0  0  0
 10  3  1  1  0  0  0
 10 11  1  0  0  0  0
 11 12  1  0  0  0  0
 13 12  1  0  0  0  0
 14 21  1  0  0  0  0
 14 13  1  0  0  0  0
 15 14  2  0  0  0  0
 16 18  2  0  0  0  0
 16 15  1  0  0  0  0
 17 16  1  0  0  0  0
 18 20  1  0  0  0  0
 19 18  1  0  0  0  0
 20 21  2  0  0  0  0
 21 10  1  0  0  0  0
 22 23  2  0  0  0  0
 24 25  1  0  0  0  0
 24 30  1  0  0  0  0
 25 22  1  0  0  0  0
 26 25  2  0  0  0  0
 27 26  1  0  0  0  0
 28 27  2  0  0  0  0
 28 29  1  0  0  0  0
 29 24  2  0  0  0  0
 31 28  1  0  0  0  0
 32 26  1  0  0  0  0
 32 33  2  0  0  0  0
 33 37  1  0  0  0  0
 34 33  1  0  0  0  0
 34 38  1  0  0  0  0
 35 34  2  0  0  0  0
 36 35  1  0  0  0  0
 36 32  1  0  0  0  0
 39 35  1  0  0  0  0
M  END
>  <minimizedAffinity>
-6.00687885

$$$$

 OpenBabel03252503173D

 39 43  0  0  1  0  0  0  0  0999 V2000
   38.1720   29.8360   39.1630 C   0  0  0  0  0  0  0  0  0  0  0  0
   39.5370   29.7770   39.2830 C   0  0  0  0  0  0  0  0  0  0  0  0
   40.0510   30.6040   38.3920 N   0  0  0  0  0  0  0  0  0  0  0  0
   39.0230   31.1650   37.7330 C   0  0  0  0  0  0  0  0  0  0  0  0
   37.8610   30.6970   38.2040 N   0  0  0  0  0  0  0  0  0  0  0  0
   38.9900   32.1480   36.6680 N   0  0  0  0  0  0  0  0  0  0  0  0
   39.9590   29.1360   39.9600 H   0  0  0  0  0  0  0  0  0  0  0  0
   39.0670   33.1640   36.7080 H   0  0  0  0  0  0  0  0  0  0  0  0
   38.8690   31.6890   35.7400 H   0  0  0  0  0  0  0  0  0  0  0  0
   41.3060   30.9040   37.9170 C   0  0  1  0  0  3  0  0  0  0  0  0
   42.1570   30.6020   37.0000 N   0  0  0  0  0  2  0  0  0  0  0  0
   42.9310   30.3210   36.1580 C   0  0  0  0  0  2  0  0  0  0  0  0
   43.7440   31.2900   36.6200 N   0  0  0  0  0  2  0  0  0  0  0  0
   43.4420   32.0690   37.6620 C   0  0  0  0  0  0  0  0  0  0  0  0
   44.2640   33.1340   38.1790 C   0  0  0  0  0  3  0  0  0  0  0  0
   43.8960   33.9260   39.2320 C   0  0  0  0  0  0  0  0  0  0  0  0
   44.5930   34.6950   39.5360 H   0  0  0  0  0  0  0  0  0  0  0  0
   42.6870   33.7470   39.8780 C   0  0  0  0  0  0  0  0  0  0  0  0
   42.3830   34.3620   40.7020 H   0  0  0  0  0  0  0  0  0  0  0  0
   41.8730   32.7380   39.4210 C   0  0  0  0  0  3  0  0  0  0  0  0
   42.2140   31.8940   38.3350 C   0  0  0  0  0  0  0  0  0  0  0  0
   37.1830   29.0490   39.9640 C   0  0  0  0  0  0  0  0  0  0  0  0
   35.9730   28.8460   39.6050 O   0  0  0  0  0  0  0  0  0  0  0  0
   37.5090   29.2260   42.3930 C   0  0  0  0  0  0  0  0  0  0  0  0
   37.5570   28.4640   41.2150 C   0  0  0  0  0  0  0  0  0  0  0  0
   37.9860   27.1420   41.3630 C   0  0  0  0  0  0  0  0  0  0  0  0
   38.3260   26.6500   42.5590 N   0  0  0  0  0  0  0  0  0  0  0  0
   38.2660   27.4210   43.6790 C   0  0  0  0  0  0  0  0  0  0  0  0
   37.8560   28.7120   43.5800 N   0  0  0  0  0  0  0  0  0  0  0  0
   37.1920   30.2670   42.3980 H   0  0  0  0  0  0  0  0  0  0  0  0
   38.5590   26.9970   44.6650 H   0  0  0  0  0  0  0  0  0  0  0  0
   38.0660   26.3240   40.2260 C   0  0  0  0  0  0  0  0  0  0  0  0
   39.0520   25.9620   39.3650 C   0  0  0  0  0  0  0  0  0  0  0  0
   38.8720   25.1610   38.3400 C   0  0  0  0  0  0  0  0  0  0  0  0
   37.6090   24.6870   38.1620 C   0  0  0  0  0  0  0  0  0  0  0  0
   36.6850   25.4490   39.5460 S   0  0  0  0  0  0  0  0  0  0  0  0
   40.0920   26.3300   39.4870 H   0  0  0  0  0  0  0  0  0  0  0  0
   39.4460   24.7360   37.5450 H   0  0  0  0  0  0  0  0  0  0  0  0
   36.9210   24.0510   37.5470 H   0  0  0  0  0  0  0  0  0  0  0  0
  1  2  2  0  0  0  0
  1 22  1  0  0  0  0
  2  7  1  0  0  0  0
  3  2  1  0  0  0  0
  4  5  2  0  0  0  0
  4  3  1  0  0  0  0
  5  1  1  0  0  0  0
  6  8  1  0  0  0  0
  6  4  1  0  0  0  0
  9  6  1  0  0  0  0
 10 21  1  0  0  0  0
 10  3  1  6  0  0  0
 11 10  1  0  0  0  0
 12 13  1  0  0  0  0
 12 11  1  0  0  0  0
 13 14  1  0  0  0  0
 14 15  2  0  0  0  0
 14 21  1  0  0  0  0
 15 16  1  0  0  0  0
 16 17  1  0  0  0  0
 16 18  2  0  0  0  0
 18 19  1  0  0  0  0
 20 18  1  0  0  0  0
 21 20  2  0  0  0  0
 22 25  1  0  0  0  0
 23 22  2  0  0  0  0
 24 30  1  0  0  0  0
 24 29  1  0  0  0  0
 25 26  1  0  0  0  0
 25 24  2  0  0  0  0
 26 27  2  0  0  0  0
 27 28  1  0  0  0  0
 28 31  1  0  0  0  0
 29 28  2  0  0  0  0
 32 26  1  0  0  0  0
 33 37  1  0  0  0  0
 33 32  2  0  0  0  0
 34 33  1  0  0  0  0
 35 34  2  0  0  0  0
 35 36  1  0  0  0  0
 36 32  1  0  0  0  0
 38 34  1  0  0  0  0
 39 35  1  0  0  0  0
M  END
>  <minimizedAffinity>
-5.95681

$$$$

 OpenBabel03252503173D

 39 43  0  0  1  0  0  0  0  0999 V2000
   37.5240   30.0170   38.8650 C   0  0  0  0  0  0  0  0  0  0  0  0
   38.8690   29.9510   39.1230 C   0  0  0  0  0  0  0  0  0  0  0  0
   39.4770   30.7560   38.2720 N   0  0  0  0  0  0  0  0  0  0  0  0
   38.5260   31.3100   37.5010 C   0  0  0  0  0  0  0  0  0  0  0  0
   37.3180   30.8600   37.8630 N   0  0  0  0  0  0  0  0  0  0  0  0
   38.6090   32.2710   36.4190 N   0  0  0  0  0  0  0  0  0  0  0  0
   39.2150   29.3210   39.8520 H   0  0  0  0  0  0  0  0  0  0  0  0
   38.6910   33.2870   36.4470 H   0  0  0  0  0  0  0  0  0  0  0  0
   38.5780   31.7940   35.4940 H   0  0  0  0  0  0  0  0  0  0  0  0
   40.7770   31.0360   37.9190 C   0  0  1  0  0  3  0  0  0  0  0  0
   41.7120   30.7090   37.0990 N   0  0  0  0  0  2  0  0  0  0  0  0
   42.5640   30.4050   36.3440 C   0  0  0  0  0  2  0  0  0  0  0  0
   43.3350   31.3780   36.8670 N   0  0  0  0  0  2  0  0  0  0  0  0
   42.9380   32.1800   37.8570 C   0  0  0  0  0  0  0  0  0  0  0  0
   43.7140   33.2500   38.4330 C   0  0  0  0  0  3  0  0  0  0  0  0
   43.2490   34.0660   39.4280 C   0  0  0  0  0  0  0  0  0  0  0  0
   43.9190   34.8360   39.7850 H   0  0  0  0  0  0  0  0  0  0  0  0
   41.9790   33.9100   39.9530 C   0  0  0  0  0  0  0  0  0  0  0  0
   41.6000   34.5430   40.7290 H   0  0  0  0  0  0  0  0  0  0  0  0
   41.2060   32.8980   39.4360 C   0  0  0  0  0  3  0  0  0  0  0  0
   41.6470   32.0290   38.4070 C   0  0  0  0  0  0  0  0  0  0  0  0
   36.4520   29.2540   39.5780 C   0  0  0  0  0  0  0  0  0  0  0  0
   35.5250   29.8010   40.2690 O   0  0  0  0  0  0  0  0  0  0  0  0
   37.0170   27.0580   40.5240 C   0  0  0  0  0  0  0  0  0  0  0  0
   36.4090   27.8250   39.5180 C   0  0  0  0  0  0  0  0  0  0  0  0
   35.7860   27.1030   38.4960 C   0  0  0  0  0  0  0  0  0  0  0  0
   35.7810   25.7670   38.4910 N   0  0  0  0  0  0  0  0  0  0  0  0
   36.3830   25.0570   39.4850 C   0  0  0  0  0  0  0  0  0  0  0  0
   37.0000   25.7190   40.4970 N   0  0  0  0  0  0  0  0  0  0  0  0
   37.5330   27.5120   41.3670 H   0  0  0  0  0  0  0  0  0  0  0  0
   36.3740   23.9450   39.4610 H   0  0  0  0  0  0  0  0  0  0  0  0
   35.1640   27.8060   37.4520 C   0  0  0  0  0  0  0  0  0  0  0  0
   33.9690   28.4290   37.2850 C   0  0  0  0  0  0  0  0  0  0  0  0
   33.6050   29.0310   36.1770 C   0  0  0  0  0  0  0  0  0  0  0  0
   34.5050   29.0070   35.1570 C   0  0  0  0  0  0  0  0  0  0  0  0
   35.9090   28.0740   35.8680 S   0  0  0  0  0  0  0  0  0  0  0  0
   33.2170   28.4680   38.1010 H   0  0  0  0  0  0  0  0  0  0  0  0
   32.7640   29.5710   35.7980 H   0  0  0  0  0  0  0  0  0  0  0  0
   34.7400   29.3060   34.1020 H   0  0  0  0  0  0  0  0  0  0  0  0
  1  2  2  0  0  0  0
  1 22  1  0  0  0  0
  2  7  1  0  0  0  0
  3  2  1  0  0  0  0
  4  5  2  0  0  0  0
  4  3  1  0  0  0  0
  5  1  1  0  0  0  0
  6  8  1  0  0  0  0
  6  4  1  0  0  0  0
  9  6  1  0  0  0  0
 10  3  1  6  0  0  0
 10 21  1  0  0  0  0
 11 10  1  0  0  0  0
 12 13  1  0  0  0  0
 12 11  1  0  0  0  0
 13 14  1  0  0  0  0
 14 21  2  0  0  0  0
 14 15  1  0  0  0  0
 15 16  2  0  0  0  0
 16 17  1  0  0  0  0
 16 18  1  0  0  0  0
 18 19  1  0  0  0  0
 20 18  2  0  0  0  0
 21 20  1  0  0  0  0
 22 23  2  0  0  0  0
 24 30  1  0  0  0  0
 25 22  1  0  0  0  0
 25 24  2  0  0  0  0
 26 25  1  0  0  0  0
 27 26  2  0  0  0  0
 27 28  1  0  0  0  0
 28 29  2  0  0  0  0
 29 24  1  0  0  0  0
 31 28  1  0  0  0  0
 32 26  1  0  0  0  0
 33 32  2  0  0  0  0
 33 37  1  0  0  0  0
 34 33  1  0  0  0  0
 35 36  1  0  0  0  0
 35 34  2  0  0  0  0
 36 32  1  0  0  0  0
 38 34  1  0  0  0  0
 39 35  1  0  0  0  0
M  END
>  <minimizedAffinity>
-5.87879753

$$$$

 OpenBabel03252503173D

 39 43  0  0  1  0  0  0  0  0999 V2000
   37.5270   31.1460   38.6510 C   0  0  0  0  0  0  0  0  0  0  0  0
   36.4040   30.4090   38.9290 C   0  0  0  0  0  0  0  0  0  0  0  0
   36.0700   29.7630   37.8270 N   0  0  0  0  0  0  0  0  0  0  0  0
   36.9680   30.0950   36.8850 C   0  0  0  0  0  0  0  0  0  0  0  0
   37.8710   30.9470   37.3870 N   0  0  0  0  0  0  0  0  0  0  0  0
   37.1030   29.6820   35.5020 N   0  0  0  0  0  0  0  0  0  0  0  0
   35.9780   30.4650   39.8580 H   0  0  0  0  0  0  0  0  0  0  0  0
   37.5150   28.8370   35.1050 H   0  0  0  0  0  0  0  0  0  0  0  0
   36.6990   30.3940   34.8590 H   0  0  0  0  0  0  0  0  0  0  0  0
   35.0110   28.9940   37.4050 C   0  0  1  0  0  3  0  0  0  0  0  0
   33.8740   29.0490   36.8060 N   0  0  0  0  0  2  0  0  0  0  0  0
   32.8340   29.1080   36.2570 C   0  0  0  0  0  2  0  0  0  0  0  0
   32.7480   27.7660   36.3360 N   0  0  0  0  0  2  0  0  0  0  0  0
   33.6860   27.0010   36.8980 C   0  0  0  0  0  0  0  0  0  0  0  0
   33.6530   25.5620   36.9850 C   0  0  0  0  0  3  0  0  0  0  0  0
   34.6560   24.8190   37.5450 C   0  0  0  0  0  0  0  0  0  0  0  0
   34.5260   23.7460   37.5570 H   0  0  0  0  0  0  0  0  0  0  0  0
   35.7870   25.4170   38.0720 C   0  0  0  0  0  0  0  0  0  0  0  0
   36.5820   24.8480   38.5100 H   0  0  0  0  0  0  0  0  0  0  0  0
   35.8570   26.7880   38.0150 C   0  0  0  0  0  3  0  0  0  0  0  0
   34.8420   27.5970   37.4460 C   0  0  0  0  0  0  0  0  0  0  0  0
   38.2460   32.0480   39.6040 C   0  0  0  0  0  0  0  0  0  0  0  0
   37.6630   32.8780   40.3810 O   0  0  0  0  0  0  0  0  0  0  0  0
   40.4470   32.9140   38.9370 C   0  0  0  0  0  0  0  0  0  0  0  0
   39.6740   32.0220   39.6970 C   0  0  0  0  0  0  0  0  0  0  0  0
   40.3890   31.1440   40.5150 C   0  0  0  0  0  0  0  0  0  0  0  0
   41.7250   31.1640   40.5590 N   0  0  0  0  0  0  0  0  0  0  0  0
   42.4400   32.0450   39.8050 C   0  0  0  0  0  0  0  0  0  0  0  0
   41.7850   32.9150   38.9960 N   0  0  0  0  0  0  0  0  0  0  0  0
   39.9980   33.6420   38.2630 H   0  0  0  0  0  0  0  0  0  0  0  0
   43.5520   32.0430   39.8500 H   0  0  0  0  0  0  0  0  0  0  0  0
   39.6810   30.2180   41.2980 C   0  0  0  0  0  0  0  0  0  0  0  0
   39.1230   30.2270   42.5360 C   0  0  0  0  0  0  0  0  0  0  0  0
   38.4970   29.2020   43.0640 C   0  0  0  0  0  0  0  0  0  0  0  0
   38.4250   28.0800   42.2970 C   0  0  0  0  0  0  0  0  0  0  0  0
   39.3030   28.5710   40.7680 S   0  0  0  0  0  0  0  0  0  0  0  0
   39.1640   31.1280   43.1830 H   0  0  0  0  0  0  0  0  0  0  0  0
   37.9930   28.9530   43.9730 H   0  0  0  0  0  0  0  0  0  0  0  0
   38.0690   27.0210   42.2100 H   0  0  0  0  0  0  0  0  0  0  0  0
  1  2  2  0  0  0  0
  1 22  1  0  0  0  0
  2  7  1  0  0  0  0
  3  2  1  0  0  0  0
  4  5  2  0  0  0  0
  4  3  1  0  0  0  0
  5  1  1  0  0  0  0
  6  4  1  0  0  0  0
  8  6  1  0  0  0  0
  9  6  1  0  0  0  0
 10 21  1  0  0  0  0
 10  3  1  6  0  0  0
 11 10  1  0  0  0  0
 12 13  1  0  0  0  0
 12 11  1  0  0  0  0
 13 14  1  0  0  0  0
 14 15  2  0  0  0  0
 14 21  1  0  0  0  0
 15 16  1  0  0  0  0
 16 17  1  0  0  0  0
 16 18  2  0  0  0  0
 18 19  1  0  0  0  0
 20 18  1  0  0  0  0
 21 20  2  0  0  0  0
 22 25  1  0  0  0  0
 22 23  2  0  0  0  0
 24 29  2  0  0  0  0
 24 25  1  0  0  0  0
 25 26  2  0  0  0  0
 26 27  1  0  0  0  0
 26 32  1  0  0  0  0
 28 31  1  0  0  0  0
 28 27  2  0  0  0  0
 29 28  1  0  0  0  0
 30 24  1  0  0  0  0
 32 33  2  0  0  0  0
 33 34  1  0  0  0  0
 33 37  1  0  0  0  0
 34 38  1  0  0  0  0
 35 34  2  0  0  0  0
 36 32  1  0  0  0  0
 36 35  1  0  0  0  0
 39 35  1  0  0  0  0
M  END
>  <minimizedAffinity>
-5.84612131

$$$$
