
 OpenBabel03252507043D

 50 54  0  0  0  0  0  0  0  0999 V2000
   41.4160   30.3540   41.9010 N   0  0  0  0  0  0  0  0  0  0  0  0
   41.4880   29.2730   42.8260 C   0  0  0  0  0  0  0  0  0  0  0  0
   40.1070   29.4170   43.4640 C   0  0  0  0  0  0  0  0  0  0  0  0
   39.0060   29.2830   42.5260 C   0  0  0  0  0  0  0  0  0  0  0  0
   39.2330   29.5590   41.1240 C   0  0  0  0  0  0  0  0  0  0  0  0
   40.5500   30.1740   40.7120 C   0  0  0  0  0  0  0  0  0  0  0  0
   41.7140   28.2840   42.4640 H   0  0  0  0  0  0  0  0  0  0  0  0
   42.1970   29.6070   43.6410 H   0  0  0  0  0  0  0  0  0  0  0  0
   40.0210   28.7210   44.3240 H   0  0  0  0  0  0  0  0  0  0  0  0
   40.1190   30.4490   43.9110 H   0  0  0  0  0  0  0  0  0  0  0  0
   38.5760   28.2500   42.5950 H   0  0  0  0  0  0  0  0  0  0  0  0
   38.1550   29.9400   42.8690 H   0  0  0  0  0  0  0  0  0  0  0  0
   38.5570   29.3940   40.3360 H   0  0  0  0  0  0  0  0  0  0  0  0
   42.0240   31.5390   41.9710 C   0  0  0  0  0  0  0  0  0  0  0  0
   41.9490   32.1530   41.0080 H   0  0  0  0  0  0  0  0  0  0  0  0
   41.5860   32.2150   42.7370 H   0  0  0  0  0  0  0  0  0  0  0  0
   43.4860   31.4490   42.2270 C   0  0  0  0  0  0  0  0  0  0  0  0
   43.7180   30.9700   43.2190 H   0  0  0  0  0  0  0  0  0  0  0  0
   44.0300   30.8390   41.4750 H   0  0  0  0  0  0  0  0  0  0  0  0
   44.0500   32.8090   42.1630 C   0  0  0  0  0  0  0  0  0  0  0  0
   43.2210   33.9040   42.0470 C   0  0  0  0  0  0  0  0  0  0  0  0
   43.8030   35.1610   41.9760 C   0  0  0  0  0  0  0  0  0  0  0  0
   45.1650   35.2510   42.0280 N   0  0  0  0  0  0  0  0  0  0  0  0
   45.9340   34.1720   42.1420 C   0  0  0  0  0  0  0  0  0  0  0  0
   45.3530   32.9690   42.2070 N   0  0  0  0  0  0  0  0  0  0  0  0
   42.1550   34.0380   42.0080 H   0  0  0  0  0  0  0  0  0  0  0  0
   43.3150   36.1300   41.8820 H   0  0  0  0  0  0  0  0  0  0  0  0
   47.3820   34.3640   42.2180 C   0  0  0  0  0  0  0  0  0  0  0  0
   48.2020   33.3640   42.7330 C   0  0  0  0  0  0  0  0  0  0  0  0
   49.5570   33.5560   42.8040 C   0  0  0  0  0  0  0  0  0  0  0  0
   49.9870   34.7710   42.3390 C   0  0  0  0  0  0  0  0  0  0  0  0
   49.2160   35.8120   41.8130 C   0  0  0  0  0  0  0  0  0  0  0  0
   47.8880   35.5350   41.7810 N   0  0  0  0  0  0  0  0  0  0  0  0
   47.7880   32.4190   43.0860 H   0  0  0  0  0  0  0  0  0  0  0  0
   50.2730   32.8470   43.1840 H   0  0  0  0  0  0  0  0  0  0  0  0
   51.0660   34.9840   42.3700 H   0  0  0  0  0  0  0  0  0  0  0  0
   49.6490   36.7210   41.4780 H   0  0  0  0  0  0  0  0  0  0  0  0
   40.9210   30.6230   39.0820 S   0  0  0  0  0  0  0  0  0  0  0  0
   39.9320   31.9320   38.4800 C   0  0  0  0  0  0  0  0  0  0  0  0
   38.6590   32.0400   38.1190 N   0  0  0  0  0  0  0  0  0  0  0  0
   38.0620   33.1320   37.6750 C   0  0  0  0  0  0  0  0  0  0  0  0
   38.7510   34.2660   37.5590 N   0  0  0  0  0  0  0  0  0  0  0  0
   40.0580   34.2830   37.8980 C   0  0  0  0  0  0  0  0  0  0  0  0
   40.6820   35.4950   37.7450 C   0  0  0  0  0  0  0  0  0  0  0  0
   42.0100   35.5820   38.0710 C   0  0  0  0  0  0  0  0  0  0  0  0
   42.6050   36.4770   37.9940 H   0  0  0  0  0  0  0  0  0  0  0  0
   42.6620   34.4800   38.5300 C   0  0  0  0  0  0  0  0  0  0  0  0
   43.7110   34.4900   38.8040 H   0  0  0  0  0  0  0  0  0  0  0  0
   41.9940   33.2860   38.6670 C   0  0  0  0  0  0  0  0  0  0  0  0
   40.6510   33.1190   38.3590 C   0  0  0  0  0  0  0  0  0  0  0  0
  1 14  1  0  0  0  0
  1  2  1  0  0  0  0
  2  3  1  0  0  0  0
  2  8  1  0  0  0  0
  3 10  1  0  0  0  0
  3  9  1  0  0  0  0
  4 11  1  0  0  0  0
  4 12  1  0  0  0  0
  4  3  1  0  0  0  0
  5  4  1  0  0  0  0
  6  5  2  0  0  0  0
  6  1  1  0  0  0  0
  7  2  1  0  0  0  0
 13  5  1  0  0  0  0
 14 17  1  0  0  0  0
 14 16  1  0  0  0  0
 15 14  1  0  0  0  0
 17 18  1  0  0  0  0
 19 17  1  0  0  0  0
 20 25  1  0  0  0  0
 20 17  1  0  0  0  0
 21 20  2  0  0  0  0
 22 23  2  0  0  0  0
 22 21  1  0  0  0  0
 23 24  1  0  0  0  0
 24 25  2  0  0  0  0
 24 28  1  0  0  0  0
 26 21  1  0  0  0  0
 27 22  1  0  0  0  0
 28 29  1  0  0  0  0
 29 30  2  0  0  0  0
 29 34  1  0  0  0  0
 30 35  1  0  0  0  0
 31 36  1  0  0  0  0
 31 30  1  0  0  0  0
 32 31  2  0  0  0  0
 33 32  1  0  0  0  0
 33 28  2  0  0  0  0
 37 32  1  0  0  0  0
 38  6  1  0  0  0  0
 39 38  1  0  0  0  0
 40 39  2  0  0  0  0
 41 40  1  0  0  0  0
 42 41  2  0  0  0  0
 42 43  1  0  0  0  0
 43 50  1  0  0  0  0
 44 43  2  0  0  0  0
 44 45  1  0  0  0  0
 45 47  2  0  0  0  0
 46 45  1  0  0  0  0
 47 49  1  0  0  0  0
 47 48  1  0  0  0  0
 50 39  1  0  0  0  0
 50 49  2  0  0  0  0
M  END
>  <minimizedAffinity>
-6.20951366

>  <minimizedRMSD>
3.62336802

$$$$
