
 OpenBabel03252508033D

 45 49  0  0  1  0  0  0  0  0999 V2000
   42.0070   33.3160   41.1980 C   0  0  0  0  0  0  0  0  0  0  0  0
   42.7840   34.4280   41.3320 C   0  0  0  0  0  0  0  0  0  0  0  0
   42.1660   35.6920   41.2210 C   0  0  0  0  0  0  0  0  0  0  0  0
   40.8160   35.8440   40.9860 C   0  0  0  0  0  0  0  0  0  0  0  0
   40.0450   34.7240   40.8530 C   0  0  0  0  0  0  0  0  0  0  0  0
   40.6390   33.5030   40.9590 C   0  0  0  0  0  0  0  0  0  0  0  0
   42.6950   36.6250   41.3040 H   0  0  0  0  0  0  0  0  0  0  0  0
   40.3480   36.8050   40.9030 H   0  0  0  0  0  0  0  0  0  0  0  0
   39.0010   34.7640   40.6710 H   0  0  0  0  0  0  0  0  0  0  0  0
   40.0160   32.6000   40.8510 H   0  0  0  0  0  0  0  0  0  0  0  0
   42.6270   31.7530   41.3520 S   0  0  0  0  0  0  0  0  0  0  0  0
   42.0310   31.0300   40.1480 O   0  0  0  0  0  0  0  0  0  0  0  0
   42.0470   31.1360   42.6040 O   0  0  0  0  0  0  0  0  0  0  0  0
   44.1120   31.1100   41.0130 C   0  0  0  0  0  0  0  0  0  0  0  0
   44.7700   31.0880   39.8300 N   0  0  0  0  0  0  0  0  0  0  0  0
   45.8560   30.4760   39.4490 C   0  0  0  0  0  3  0  0  0  0  0  0
   46.4280   29.7350   40.3860 N   0  0  0  0  0  0  0  0  0  0  0  0
   45.9220   29.6350   41.6180 C   0  0  0  0  0  0  0  0  0  0  0  0
   46.6700   28.7970   42.4480 C   0  0  0  0  0  3  0  0  0  0  0  0
   46.2090   28.6350   43.7390 C   0  0  0  0  0  0  0  0  0  0  0  0
   46.7440   28.0000   44.4260 H   0  0  0  0  0  0  0  0  0  0  0  0
   45.0640   29.2900   44.1400 C   0  0  0  0  0  0  0  0  0  0  0  0
   44.7290   29.1460   45.1570 H   0  0  0  0  0  0  0  0  0  0  0  0
   44.4030   30.0910   43.2410 C   0  0  0  0  0  3  0  0  0  0  0  0
   44.7760   30.3150   41.9380 C   0  0  0  0  0  0  0  0  0  0  0  0
   44.2140   34.3720   41.5640 C   0  0  0  0  0  0  0  0  0  0  0  0
   45.0860   34.2590   40.6340 O   0  0  0  0  0  0  0  0  0  0  0  0
   44.5670   34.4580   42.9510 C   0  0  0  0  0  0  0  0  0  0  0  0
   44.2790   35.7100   43.5730 C   0  0  0  0  0  0  0  0  0  0  0  0
   44.6060   35.8190   44.9230 C   0  0  0  0  0  0  0  0  0  0  0  0
   45.1650   34.7470   45.5470 N   0  0  0  0  0  0  0  0  0  0  0  0
   45.4120   33.5880   44.8960 C   0  0  0  0  0  0  0  0  0  0  0  0
   45.1190   33.4640   43.6450 N   0  0  0  0  0  0  0  0  0  0  0  0
   43.8500   36.5950   43.1750 H   0  0  0  0  0  0  0  0  0  0  0  0
   44.4440   36.7070   45.5230 H   0  0  0  0  0  0  0  0  0  0  0  0
   46.0160   32.4640   45.6580 C   0  0  1  0  0  0  0  0  0  0  0  0
   46.9690   32.7820   46.7920 C   0  0  0  0  0  0  0  0  0  0  0  0
   45.5700   32.3300   47.0510 C   0  0  1  0  0  0  0  0  0  0  0  0
   46.2140   31.5560   45.0850 H   0  0  0  0  0  0  0  0  0  0  0  0
   47.7550   32.0180   46.9820 H   0  0  0  0  0  0  0  0  0  0  0  0
   47.2630   33.8410   46.8750 H   0  0  0  0  0  0  0  0  0  0  0  0
   45.4040   31.3210   47.4700 H   0  0  0  0  0  0  0  0  0  0  0  0
   44.7670   33.3890   47.6550 N   0  0  0  0  0  0  0  0  0  0  0  0
   44.1980   32.9910   48.4610 H   0  0  0  0  0  0  0  0  0  0  0  0
   45.3100   34.1790   48.0190 H   0  0  0  0  0  0  0  0  0  0  0  0
  1  2  1  0  0  0  0
  1 11  1  0  0  0  0
  2 26  1  0  0  0  0
  3  7  1  0  0  0  0
  3  2  2  0  0  0  0
  4  3  1  0  0  0  0
  5  6  1  0  0  0  0
  5  4  2  0  0  0  0
  6  1  2  0  0  0  0
  8  4  1  0  0  0  0
  9  5  1  0  0  0  0
 10  6  1  0  0  0  0
 11 13  2  0  0  0  0
 12 11  2  0  0  0  0
 14 11  1  0  0  0  0
 14 25  1  0  0  0  0
 15 14  2  0  0  0  0
 16 15  1  0  0  0  0
 16 17  2  0  0  0  0
 17 18  1  0  0  0  0
 18 25  2  0  0  0  0
 18 19  1  0  0  0  0
 19 20  2  0  0  0  0
 20 22  1  0  0  0  0
 20 21  1  0  0  0  0
 22 23  1  0  0  0  0
 24 22  2  0  0  0  0
 25 24  1  0  0  0  0
 26 28  1  0  0  0  0
 27 26  2  0  0  0  0
 28 29  2  0  0  0  0
 28 33  1  0  0  0  0
 29 30  1  0  0  0  0
 30 35  1  0  0  0  0
 30 31  2  0  0  0  0
 32 31  1  0  0  0  0
 32 36  1  0  0  0  0
 33 32  2  0  0  0  0
 34 29  1  0  0  0  0
 36 39  1  6  0  0  0
 36 37  1  0  0  0  0
 36 38  1  0  0  0  0
 37 41  1  0  0  0  0
 37 40  1  0  0  0  0
 37 38  1  0  0  0  0
 38 42  1  1  0  0  0
 38 43  1  0  0  0  0
 43 45  1  0  0  0  0
 43 44  1  0  0  0  0
M  END
>  <minimizedAffinity>
-5.93155861

>  <minimizedRMSD>
0.81007576

$$$$
