
 OpenBabel03252506213D

 38 41  0  0  0  0  0  0  0  0999 V2000
   45.2330   37.2480   43.5500 C   0  0  0  0  0  0  0  0  0  0  0  0
   44.1890   37.1270   42.6160 C   0  0  0  0  0  0  0  0  0  0  0  0
   44.2280   36.0300   41.7450 C   0  0  0  0  0  0  0  0  0  0  0  0
   45.2570   35.1480   41.8410 N   0  0  0  0  0  0  0  0  0  0  0  0
   46.2410   35.3100   42.7610 C   0  0  0  0  0  0  0  0  0  0  0  0
   46.2200   36.3510   43.6000 N   0  0  0  0  0  0  0  0  0  0  0  0
   43.3820   37.8100   42.5340 H   0  0  0  0  0  0  0  0  0  0  0  0
   43.4590   35.8700   40.9990 H   0  0  0  0  0  0  0  0  0  0  0  0
   48.8620   36.1890   41.5290 Cl  0  0  0  0  0  0  0  0  0  0  0  0
   48.5430   34.6470   42.2490 C   0  0  0  0  0  0  0  0  0  0  0  0
   47.3240   34.3010   42.7940 C   0  0  0  0  0  0  0  0  0  0  0  0
   47.0370   33.0890   43.3700 C   0  0  0  0  0  0  0  0  0  0  0  0
   48.0630   32.1800   43.3860 C   0  0  0  0  0  0  0  0  0  0  0  0
   49.3140   32.3970   42.8790 C   0  0  0  0  0  0  0  0  0  0  0  0
   49.5130   33.6600   42.3120 C   0  0  0  0  0  0  0  0  0  0  0  0
   46.0690   32.8590   43.7860 H   0  0  0  0  0  0  0  0  0  0  0  0
   47.9150   31.1840   43.8290 H   0  0  0  0  0  0  0  0  0  0  0  0
   50.0900   31.6600   42.9100 H   0  0  0  0  0  0  0  0  0  0  0  0
   50.4860   33.8770   41.9000 H   0  0  0  0  0  0  0  0  0  0  0  0
   45.2080   38.3920   44.4720 C   0  0  0  0  0  3  0  0  0  0  0  0
   44.9780   39.5810   43.9920 C   0  0  0  0  0  3  0  0  0  0  0  0
   44.9410   40.7620   44.8870 C   0  0  0  0  0  0  0  0  0  0  0  0
   44.0910   40.7380   45.5950 H   0  0  0  0  0  0  0  0  0  0  0  0
   45.9030   40.7360   45.4780 H   0  0  0  0  0  0  0  0  0  0  0  0
   44.9950   41.9620   44.0800 N   0  0  0  0  0  0  0  0  0  0  0  0
   45.2260   41.8690   43.0760 H   0  0  0  0  0  0  0  0  0  0  0  0
   44.7240   43.1920   44.7410 C   0  0  0  0  0  0  0  0  0  0  0  0
   45.6940   43.9190   45.3130 N   0  0  0  0  0  0  0  0  0  0  0  0
   45.5290   45.0770   45.9490 C   0  0  0  0  0  3  0  0  0  0  0  0
   44.2970   45.5740   46.0350 N   0  0  0  0  0  0  0  0  0  0  0  0
   43.2310   44.9250   45.4930 C   0  0  0  0  0  0  0  0  0  0  0  0
   41.9830   45.4990   45.6220 C   0  0  0  0  0  3  0  0  0  0  0  0
   40.9540   44.7840   45.0490 C   0  0  0  0  0  0  0  0  0  0  0  0
   39.9540   45.2090   45.1320 H   0  0  0  0  0  0  0  0  0  0  0  0
   41.0920   43.5890   44.3880 C   0  0  0  0  0  0  0  0  0  0  0  0
   40.2450   43.0630   43.9530 H   0  0  0  0  0  0  0  0  0  0  0  0
   42.3800   43.0820   44.3040 C   0  0  0  0  0  3  0  0  0  0  0  0
   43.4610   43.7300   44.8470 C   0  0  0  0  0  0  0  0  0  0  0  0
  1  6  1  0  0  0  0
  1 20  1  0  0  0  0
  2  1  2  0  0  0  0
  3  4  2  0  0  0  0
  3  2  1  0  0  0  0
  4  5  1  0  0  0  0
  5 11  1  0  0  0  0
  5  6  2  0  0  0  0
  7  2  1  0  0  0  0
  8  3  1  0  0  0  0
  9 10  1  0  0  0  0
 10 15  2  0  0  0  0
 10 11  1  0  0  0  0
 11 12  2  0  0  0  0
 12 13  1  0  0  0  0
 12 16  1  0  0  0  0
 13 17  1  0  0  0  0
 14 18  1  0  0  0  0
 14 13  2  0  0  0  0
 15 14  1  0  0  0  0
 19 15  1  0  0  0  0
 21 20  2  0  0  0  0
 21 22  1  0  0  0  0
 22 24  1  0  0  0  0
 22 23  1  0  0  0  0
 25 27  1  0  0  0  0
 25 22  1  0  0  0  0
 26 25  1  0  0  0  0
 27 38  2  0  0  0  0
 27 28  1  0  0  0  0
 28 29  2  0  0  0  0
 29 30  1  0  0  0  0
 31 32  1  0  0  0  0
 31 30  2  0  0  0  0
 33 34  1  0  0  0  0
 33 32  2  0  0  0  0
 35 33  1  0  0  0  0
 36 35  1  0  0  0  0
 37 35  2  0  0  0  0
 37 38  1  0  0  0  0
 38 31  1  0  0  0  0
M  END
>  <minimizedAffinity>
2.6755209

>  <minimizedRMSD>
1.68272519

$$$$
