
 OpenBabel03252506463D

 45 49  0  0  1  0  0  0  0  0999 V2000
   49.5250   33.3920   41.4610 N   0  0  1  0  0  0  0  0  0  0  0  0
   50.7270   33.0940   42.1980 C   0  0  0  0  0  0  0  0  0  0  0  0
   51.3400   31.7620   41.8870 C   0  0  0  0  0  0  0  0  0  0  0  0
   50.3890   30.6750   42.3400 C   0  0  0  0  0  0  0  0  0  0  0  0
   48.9610   31.0850   42.1380 C   0  0  0  0  0  0  0  0  0  0  0  0
   48.8950   32.1510   41.0720 C   0  0  2  0  0  0  0  0  0  0  0  0
   50.5230   33.1070   43.2900 H   0  0  0  0  0  0  0  0  0  0  0  0
   51.4310   33.9230   42.0030 H   0  0  0  0  0  0  0  0  0  0  0  0
   52.2810   31.7240   42.5160 H   0  0  0  0  0  0  0  0  0  0  0  0
   51.6990   31.6270   40.8650 H   0  0  0  0  0  0  0  0  0  0  0  0
   50.6360   29.6900   41.9250 H   0  0  0  0  0  0  0  0  0  0  0  0
   50.5290   30.5970   43.4550 H   0  0  0  0  0  0  0  0  0  0  0  0
   48.2970   30.2650   41.8440 H   0  0  0  0  0  0  0  0  0  0  0  0
   48.5130   31.5320   43.0550 H   0  0  0  0  0  0  0  0  0  0  0  0
   47.8150   32.3770   40.9460 H   0  0  0  0  0  0  0  0  0  0  0  0
   49.3490   31.6320   39.8120 N   0  0  0  0  0  0  0  0  0  0  0  0
   50.3450   31.8700   39.6420 H   0  0  0  0  0  0  0  0  0  0  0  0
   48.6160   30.9030   38.8480 C   0  0  0  0  0  0  0  0  0  0  0  0
   48.7250   29.5840   38.6440 N   0  0  0  0  0  0  0  0  0  0  0  0
   48.0650   28.8510   37.7660 C   0  0  0  0  0  3  0  0  0  0  0  0
   47.1760   29.4690   36.9700 N   0  0  0  0  0  0  0  0  0  0  0  0
   46.9760   30.7910   37.0770 C   0  0  0  0  0  0  0  0  0  0  0  0
   46.0670   31.3950   36.2580 C   0  0  0  0  0  3  0  0  0  0  0  0
   45.8110   32.7500   36.3130 C   0  0  0  0  0  0  0  0  0  0  0  0
   45.0860   33.1540   35.6410 H   0  0  0  0  0  0  0  0  0  0  0  0
   46.5300   33.4710   37.2510 C   0  0  0  0  0  0  0  0  0  0  0  0
   46.3200   34.5310   37.2840 H   0  0  0  0  0  0  0  0  0  0  0  0
   47.4350   32.8410   38.0600 C   0  0  0  0  0  3  0  0  0  0  0  0
   47.6960   31.4950   38.0130 C   0  0  0  0  0  0  0  0  0  0  0  0
   47.2950   34.5760   41.9480 C   0  0  1  0  0  0  0  0  0  0  0  0
   48.3610   35.5620   41.6500 C   0  0  0  0  0  0  0  0  0  0  0  0
   48.7170   34.2530   42.2310 C   0  0  2  0  0  0  0  0  0  0  0  0
   46.7590   34.1820   41.0560 H   0  0  0  0  0  0  0  0  0  0  0  0
   48.4760   36.4470   42.3060 H   0  0  0  0  0  0  0  0  0  0  0  0
   48.6430   35.7870   40.5920 H   0  0  0  0  0  0  0  0  0  0  0  0
   48.9570   34.2290   43.3370 H   0  0  0  0  0  0  0  0  0  0  0  0
   45.5740   35.9970   43.0960 C   0  0  0  0  0  0  0  0  0  0  0  0
   46.3740   34.8440   43.0710 C   0  0  0  0  0  0  0  0  0  0  0  0
   46.2560   33.9380   44.1500 C   0  0  0  0  0  0  0  0  0  0  0  0
   45.3840   34.2310   45.1410 N   0  0  0  0  0  0  0  0  0  0  0  0
   44.6250   35.3440   45.1430 C   0  0  0  0  0  0  0  0  0  0  0  0
   44.7130   36.2440   44.1150 N   0  0  0  0  0  0  0  0  0  0  0  0
   45.6660   36.6880   42.2700 H   0  0  0  0  0  0  0  0  0  0  0  0
   46.8590   33.0390   44.1630 H   0  0  0  0  0  0  0  0  0  0  0  0
   43.9710   35.4500   46.0000 H   0  0  0  0  0  0  0  0  0  0  0  0
  1  2  1  1  0  0  0
  1 32  1  0  0  0  0
  2  7  1  0  0  0  0
  3  2  1  0  0  0  0
  3  4  1  0  0  0  0
  3  9  1  0  0  0  0
  4 12  1  0  0  0  0
  5  4  1  0  0  0  0
  5 14  1  0  0  0  0
  6 15  1  6  0  0  0
  6  1  1  0  0  0  0
  6  5  1  0  0  0  0
  8  2  1  0  0  0  0
 10  3  1  0  0  0  0
 11  4  1  0  0  0  0
 13  5  1  0  0  0  0
 16  6  1  0  0  0  0
 17 16  1  0  0  0  0
 18 16  1  0  0  0  0
 19 18  1  0  0  0  0
 20 19  2  0  0  0  0
 21 22  2  0  0  0  0
 21 20  1  0  0  0  0
 22 29  1  0  0  0  0
 23 24  2  0  0  0  0
 23 22  1  0  0  0  0
 24 26  1  0  0  0  0
 25 24  1  0  0  0  0
 26 27  1  0  0  0  0
 26 28  2  0  0  0  0
 29 28  1  0  0  0  0
 29 18  2  0  0  0  0
 30 33  1  6  0  0  0
 30 32  1  0  0  0  0
 30 38  1  0  0  0  0
 31 30  1  0  0  0  0
 31 32  1  0  0  0  0
 31 34  1  0  0  0  0
 32 36  1  1  0  0  0
 35 31  1  0  0  0  0
 37 42  1  0  0  0  0
 38 37  2  0  0  0  0
 38 39  1  0  0  0  0
 39 44  1  0  0  0  0
 39 40  2  0  0  0  0
 40 41  1  0  0  0  0
 41 45  1  0  0  0  0
 42 41  2  0  0  0  0
 43 37  1  0  0  0  0
M  END
>  <minimizedAffinity>
-5.45927811

>  <minimizedRMSD>
1.86938703

$$$$
