
 OpenBabel03252504333D

 43 46  0  0  0  0  0  0  0  0999 V2000
   41.6080   35.7480   41.1870 C   0  0  0  0  0  0  0  0  0  0  0  0
   41.5440   35.8470   42.2950 H   0  0  0  0  0  0  0  0  0  0  0  0
   41.2200   36.7010   40.7710 H   0  0  0  0  0  0  0  0  0  0  0  0
   40.9210   33.4040   41.3140 C   0  0  0  0  0  0  0  0  0  0  0  0
   40.5760   34.7040   40.8690 C   0  0  0  0  0  0  0  0  0  0  0  0
   39.3930   34.8330   40.2280 C   0  0  0  0  0  0  0  0  0  0  0  0
   38.6510   33.7530   40.0630 N   0  0  0  0  0  0  0  0  0  0  0  0
   38.9630   32.5480   40.4700 C   0  0  0  0  0  0  0  0  0  0  0  0
   40.1480   32.3260   41.1310 N   0  0  0  0  0  0  0  0  0  0  0  0
   41.8670   33.2400   41.8390 H   0  0  0  0  0  0  0  0  0  0  0  0
   39.1480   35.8030   39.9040 H   0  0  0  0  0  0  0  0  0  0  0  0
   38.2130   31.2750   40.3380 C   0  0  0  0  0  0  0  0  0  0  0  0
   37.4530   30.7430   41.3290 N   0  0  0  0  0  0  0  0  0  0  0  0
   36.7690   29.6170   41.2620 C   0  0  0  0  0  3  0  0  0  0  0  0
   36.7880   28.8800   40.1230 N   0  0  0  0  0  0  0  0  0  0  0  0
   37.5200   29.3150   39.0530 C   0  0  0  0  0  0  0  0  0  0  0  0
   37.5310   28.5580   37.9020 C   0  0  0  0  0  3  0  0  0  0  0  0
   38.2580   28.9710   36.8060 C   0  0  0  0  0  0  0  0  0  0  0  0
   38.1870   28.2970   35.9710 H   0  0  0  0  0  0  0  0  0  0  0  0
   38.9500   30.1550   36.9400 C   0  0  0  0  0  0  0  0  0  0  0  0
   39.5120   30.4410   36.0470 H   0  0  0  0  0  0  0  0  0  0  0  0
   38.9070   30.8740   38.1140 C   0  0  0  0  0  3  0  0  0  0  0  0
   38.2010   30.4950   39.2090 C   0  0  0  0  0  0  0  0  0  0  0  0
   42.8280   35.4590   40.6500 O   0  0  0  0  0  0  0  0  0  0  0  0
   44.0390   35.3070   41.3010 C   0  0  0  0  0  3  0  0  0  0  0  0
   44.0570   35.6580   42.5820 C   0  0  0  0  0  3  0  0  0  0  0  0
   45.2610   35.5790   43.5040 C   0  0  0  0  0  0  0  0  0  0  0  0
   46.0840   35.2580   42.8370 H   0  0  0  0  0  0  0  0  0  0  0  0
   45.4700   36.5360   43.9900 H   0  0  0  0  0  0  0  0  0  0  0  0
   44.9880   34.6000   44.4420 O   0  0  0  0  0  0  0  0  0  0  0  0
   45.6830   32.4860   42.9940 O   0  0  0  0  0  0  0  0  0  0  0  0
   46.0070   33.2710   44.2440 P   0  0  1  0  0  0  0  0  0  0  0  0
   47.6240   33.7680   44.0980 O   0  0  0  0  0  0  0  0  0  0  0  0
   47.6550   34.7570   44.2390 H   0  0  0  0  0  0  0  0  0  0  0  0
   45.9060   32.2720   45.6010 O   0  0  0  0  0  0  0  0  0  0  0  0
   46.1750   32.9520   46.7710 C   0  0  0  0  0  0  0  0  0  0  0  0
   47.0440   32.3130   47.8080 C   0  0  0  0  0  0  0  0  0  0  0  0
   45.5380   32.3620   48.0090 C   0  0  0  0  0  0  0  0  0  0  0  0
   46.3350   34.0250   46.6560 H   0  0  0  0  0  0  0  0  0  0  0  0
   47.7070   32.9020   48.4560 H   0  0  0  0  0  0  0  0  0  0  0  0
   47.4160   31.2830   47.6290 H   0  0  0  0  0  0  0  0  0  0  0  0
   45.2330   33.1320   48.7640 H   0  0  0  0  0  0  0  0  0  0  0  0
   44.9410   31.4520   47.9360 H   0  0  0  0  0  0  0  0  0  0  0  0
  1  2  1  0  0  0  0
  3  1  1  0  0  0  0
  4 10  1  0  0  0  0
  5  1  1  0  0  0  0
  5  4  2  0  0  0  0
  6  5  1  0  0  0  0
  7  6  2  0  0  0  0
  7  8  1  0  0  0  0
  8  9  2  0  0  0  0
  9  4  1  0  0  0  0
 11  6  1  0  0  0  0
 12  8  1  0  0  0  0
 12 13  1  0  0  0  0
 14 13  2  0  0  0  0
 15 14  1  0  0  0  0
 16 23  1  0  0  0  0
 16 15  2  0  0  0  0
 17 16  1  0  0  0  0
 18 20  1  0  0  0  0
 18 17  2  0  0  0  0
 19 18  1  0  0  0  0
 20 22  2  0  0  0  0
 21 20  1  0  0  0  0
 22 23  1  0  0  0  0
 23 12  2  0  0  0  0
 24  1  1  0  0  0  0
 24 25  1  0  0  0  0
 25 26  2  0  0  0  0
 26 27  1  0  0  0  0
 27 29  1  0  0  0  0
 27 30  1  0  0  0  0
 28 27  1  0  0  0  0
 32 31  2  6  0  0  0
 32 30  1  0  0  0  0
 32 35  1  0  0  0  0
 33 34  1  0  0  0  0
 33 32  1  0  0  0  0
 35 36  1  0  0  0  0
 36 37  1  0  0  0  0
 36 38  1  0  0  0  0
 37 38  1  0  0  0  0
 37 40  1  0  0  0  0
 38 42  1  0  0  0  0
 39 36  1  0  0  0  0
 41 37  1  0  0  0  0
 43 38  1  0  0  0  0
M  END
>  <minimizedAffinity>
-5.68309307

>  <minimizedRMSD>
1.41567361

$$$$
