
 OpenBabel03252505433D

 45 49  0  0  1  0  0  0  0  0999 V2000
   44.2620   34.4650   41.8950 C   0  0  0  0  0  0  0  0  0  0  0  0
   43.7290   34.5130   40.6310 C   0  0  0  0  0  0  0  0  0  0  0  0
   43.9350   33.5300   39.6870 C   0  0  0  0  0  0  0  0  0  0  0  0
   44.7040   32.4800   40.0490 N   0  0  0  0  0  0  0  0  0  0  0  0
   45.2370   32.4190   41.2920 C   0  0  0  0  0  0  0  0  0  0  0  0
   45.0250   33.3850   42.2020 N   0  0  0  0  0  0  0  0  0  0  0  0
   43.1100   35.3640   40.3450 H   0  0  0  0  0  0  0  0  0  0  0  0
   43.4920   33.6170   38.7040 H   0  0  0  0  0  0  0  0  0  0  0  0
   45.2190   36.2890   43.2730 C   0  0  1  0  0  0  0  0  0  0  0  0
   44.5370   35.3420   44.3100 C   0  0  0  0  0  0  0  0  0  0  0  0
   44.0330   35.5790   42.8910 C   0  0  2  0  0  0  0  0  0  0  0  0
   46.2310   35.8810   43.0140 H   0  0  0  0  0  0  0  0  0  0  0  0
   43.9200   35.8400   45.0920 H   0  0  0  0  0  0  0  0  0  0  0  0
   44.9750   34.3640   44.4950 H   0  0  0  0  0  0  0  0  0  0  0  0
   43.0190   35.9800   42.7850 H   0  0  0  0  0  0  0  0  0  0  0  0
   45.2430   37.7090   43.6820 C   0  0  0  0  0  0  0  0  0  0  0  0
   45.4790   38.6710   42.6860 C   0  0  0  0  0  0  0  0  0  0  0  0
   45.5020   40.0160   43.0490 C   0  0  0  0  0  0  0  0  0  0  0  0
   45.2940   40.3270   44.3470 N   0  0  0  0  0  0  0  0  0  0  0  0
   45.0680   39.3800   45.2860 C   0  0  0  0  0  0  0  0  0  0  0  0
   45.0530   38.1010   44.9040 N   0  0  0  0  0  0  0  0  0  0  0  0
   45.6440   38.4240   41.6550 H   0  0  0  0  0  0  0  0  0  0  0  0
   45.6800   40.7900   42.3140 H   0  0  0  0  0  0  0  0  0  0  0  0
   44.8610   39.9290   46.6540 C   0  0  0  0  0  0  0  0  0  0  0  0
   44.3570   38.9710   47.5120 F   0  0  0  0  0  0  0  0  0  0  0  0
   43.8900   40.9520   46.6060 F   0  0  0  0  0  0  0  0  0  0  0  0
   46.0080   40.5200   47.1070 F   0  0  0  0  0  0  0  0  0  0  0  0
   46.1100   31.2860   41.7280 C   0  0  0  0  0  0  0  0  0  0  0  0
   45.5370   30.3350   41.5360 H   0  0  0  0  0  0  0  0  0  0  0  0
   46.3080   31.2930   42.7960 H   0  0  0  0  0  0  0  0  0  0  0  0
   47.3590   31.2400   40.9200 C   0  0  0  0  0  0  0  0  0  0  0  0
   47.5430   32.2400   40.4510 H   0  0  0  0  0  0  0  0  0  0  0  0
   47.1850   30.5370   40.0590 H   0  0  0  0  0  0  0  0  0  0  0  0
   48.5740   30.8380   41.6630 C   0  0  0  0  0  0  0  0  0  0  0  0
   48.5250   30.3690   42.9450 N   0  0  0  0  0  0  0  0  0  0  0  0
   49.6450   30.0240   43.6110 C   0  0  0  0  0  3  0  0  0  0  0  0
   50.8890   30.1060   43.0900 N   0  0  0  0  0  0  0  0  0  0  0  0
   50.9810   30.5650   41.8230 C   0  0  0  0  0  0  0  0  0  0  0  0
   52.2380   30.6700   41.2220 C   0  0  0  0  0  3  0  0  0  0  0  0
   52.3930   31.1260   39.9330 C   0  0  0  0  0  0  0  0  0  0  0  0
   53.3530   31.2170   39.4450 H   0  0  0  0  0  0  0  0  0  0  0  0
   51.2630   31.4810   39.2420 C   0  0  0  0  0  0  0  0  0  0  0  0
   51.3890   31.8450   38.2110 H   0  0  0  0  0  0  0  0  0  0  0  0
   50.0230   31.3770   39.8360 C   0  0  0  0  0  3  0  0  0  0  0  0
   49.8350   30.9300   41.1090 C   0  0  0  0  0  0  0  0  0  0  0  0
  1  6  1  0  0  0  0
  1 11  1  0  0  0  0
  2  1  2  0  0  0  0
  3  4  2  0  0  0  0
  3  2  1  0  0  0  0
  4  5  1  0  0  0  0
  5 28  1  0  0  0  0
  5  6  2  0  0  0  0
  7  2  1  0  0  0  0
  8  3  1  0  0  0  0
  9 12  1  6  0  0  0
  9 16  1  0  0  0  0
  9 10  1  0  0  0  0
 10 14  1  0  0  0  0
 10 13  1  0  0  0  0
 11 15  1  6  0  0  0
 11  9  1  0  0  0  0
 11 10  1  0  0  0  0
 16 21  1  0  0  0  0
 17 18  1  0  0  0  0
 17 16  2  0  0  0  0
 18 19  2  0  0  0  0
 19 20  1  0  0  0  0
 20 24  1  0  0  0  0
 21 20  2  0  0  0  0
 22 17  1  0  0  0  0
 23 18  1  0  0  0  0
 24 27  1  0  0  0  0
 24 25  1  0  0  0  0
 26 24  1  0  0  0  0
 28 30  1  0  0  0  0
 29 28  1  0  0  0  0
 31 34  1  0  0  0  0
 31 28  1  0  0  0  0
 32 31  1  0  0  0  0
 33 31  1  0  0  0  0
 34 35  1  0  0  0  0
 35 36  2  0  0  0  0
 37 36  1  0  0  0  0
 38 37  2  0  0  0  0
 39 38  1  0  0  0  0
 40 39  2  0  0  0  0
 41 40  1  0  0  0  0
 42 44  2  0  0  0  0
 42 40  1  0  0  0  0
 43 42  1  0  0  0  0
 44 45  1  0  0  0  0
 45 34  2  0  0  0  0
 45 38  1  0  0  0  0
M  END
>  <minimizedAffinity>
-1.27121055

>  <minimizedRMSD>
9.59104919

$$$$
