
 OpenBabel03242516233D

 32 35  0  0  0  0  0  0  0  0999 V2000
   37.5990   31.0740   40.7610 C   0  0  0  0  0  0  0  0  0  0  0  0
   37.7710   30.2370   41.8380 C   0  0  0  0  0  0  0  0  0  0  0  0
   36.9690   29.1330   42.0370 C   0  0  0  0  0  0  0  0  0  0  0  0
   35.9480   28.8430   41.1280 C   0  0  0  0  0  0  0  0  0  0  0  0
   35.7570   29.6530   40.0580 C   0  0  0  0  0  0  0  0  0  0  0  0
   36.5770   30.7480   39.8900 C   0  0  0  0  0  0  0  0  0  0  0  0
   38.5580   30.4390   42.5580 H   0  0  0  0  0  0  0  0  0  0  0  0
   35.3210   27.9740   41.2920 H   0  0  0  0  0  0  0  0  0  0  0  0
   34.9660   29.4320   39.3510 H   0  0  0  0  0  0  0  0  0  0  0  0
   36.3890   31.3770   39.0120 H   0  0  0  0  0  0  0  0  0  0  0  0
   38.5710   34.5290   40.0780 C   0  0  0  0  0  0  0  0  0  0  0  0
   39.9730   34.4990   40.1680 C   0  0  0  0  0  0  0  0  0  0  0  0
   40.5860   33.2880   40.4640 C   0  0  0  0  0  0  0  0  0  0  0  0
   39.8240   32.1640   40.6600 N   0  0  0  0  0  0  0  0  0  0  0  0
   38.4590   32.2420   40.5620 C   0  0  0  0  0  0  0  0  0  0  0  0
   37.8470   33.4160   40.2740 N   0  0  0  0  0  0  0  0  0  0  0  0
   38.1570   35.5000   39.8470 H   0  0  0  0  0  0  0  0  0  0  0  0
   40.6320   35.3450   40.0260 H   0  0  0  0  0  0  0  0  0  0  0  0
   41.6460   33.1020   40.5670 H   0  0  0  0  0  0  0  0  0  0  0  0
   37.2570   28.0970   43.4560 S   0  0  0  0  0  0  0  0  0  0  0  0
   38.6360   27.0130   43.1180 C   0  0  0  0  0  0  0  0  0  0  0  0
   39.9260   27.2530   43.4560 N   0  0  0  0  0  0  0  0  0  0  0  0
   40.9160   26.4110   43.1800 C   0  0  0  0  0  3  0  0  0  0  0  0
   40.6150   25.2670   42.5340 N   0  0  0  0  0  0  0  0  0  0  0  0
   39.3690   24.9460   42.1600 C   0  0  0  0  0  0  0  0  0  0  0  0
   39.0440   23.7700   41.4930 C   0  0  0  0  0  3  0  0  0  0  0  0
   37.7360   23.4940   41.1330 C   0  0  0  0  0  0  0  0  0  0  0  0
   37.4580   22.5780   40.6100 H   0  0  0  0  0  0  0  0  0  0  0  0
   36.6990   24.3720   41.4200 C   0  0  0  0  0  0  0  0  0  0  0  0
   35.6640   24.2010   41.1610 H   0  0  0  0  0  0  0  0  0  0  0  0
   37.0600   25.5220   42.0800 C   0  0  0  0  0  3  0  0  0  0  0  0
   38.3540   25.8320   42.4550 C   0  0  0  0  0  0  0  0  0  0  0  0
  1  2  1  0  0  0  0
  2  3  2  0  0  0  0
  2  7  1  0  0  0  0
  3 20  1  0  0  0  0
  4  8  1  0  0  0  0
  4  3  1  0  0  0  0
  5  4  2  0  0  0  0
  6  5  1  0  0  0  0
  6  1  2  0  0  0  0
  9  5  1  0  0  0  0
 10  6  1  0  0  0  0
 11 12  2  0  0  0  0
 11 16  1  0  0  0  0
 12 13  1  0  0  0  0
 13 19  1  0  0  0  0
 13 14  2  0  0  0  0
 15 14  1  0  0  0  0
 15  1  1  0  0  0  0
 16 15  2  0  0  0  0
 17 11  1  0  0  0  0
 18 12  1  0  0  0  0
 21 22  1  0  0  0  0
 21 20  1  0  0  0  0
 23 22  2  0  0  0  0
 24 23  1  0  0  0  0
 25 32  1  0  0  0  0
 25 24  2  0  0  0  0
 26 25  1  0  0  0  0
 27 29  1  0  0  0  0
 27 26  2  0  0  0  0
 28 27  1  0  0  0  0
 29 31  2  0  0  0  0
 30 29  1  0  0  0  0
 31 32  1  0  0  0  0
 32 21  2  0  0  0  0
M  END
>  <minimizedAffinity>
-6.35490227

$$$$

 OpenBabel03242516233D

 32 35  0  0  0  0  0  0  0  0999 V2000
   37.4960   30.9470   40.6340 C   0  0  0  0  0  0  0  0  0  0  0  0
   37.6120   30.0770   41.6930 C   0  0  0  0  0  0  0  0  0  0  0  0
   36.7850   28.9810   41.8280 C   0  0  0  0  0  0  0  0  0  0  0  0
   35.7980   28.7340   40.8700 C   0  0  0  0  0  0  0  0  0  0  0  0
   35.6630   29.5760   39.8170 C   0  0  0  0  0  0  0  0  0  0  0  0
   36.5060   30.6620   39.7140 C   0  0  0  0  0  0  0  0  0  0  0  0
   38.3720   30.2470   42.4500 H   0  0  0  0  0  0  0  0  0  0  0  0
   35.1520   27.8710   40.9850 H   0  0  0  0  0  0  0  0  0  0  0  0
   34.8990   29.3880   39.0730 H   0  0  0  0  0  0  0  0  0  0  0  0
   36.3640   31.3180   38.8470 H   0  0  0  0  0  0  0  0  0  0  0  0
   38.5460   34.4090   40.1220 C   0  0  0  0  0  0  0  0  0  0  0  0
   39.9450   34.3480   40.2380 C   0  0  0  0  0  0  0  0  0  0  0  0
   40.5280   33.1140   40.4940 C   0  0  0  0  0  0  0  0  0  0  0  0
   39.7430   31.9980   40.6260 N   0  0  0  0  0  0  0  0  0  0  0  0
   38.3810   32.1060   40.5030 C   0  0  0  0  0  0  0  0  0  0  0  0
   37.7980   33.3020   40.2540 N   0  0  0  0  0  0  0  0  0  0  0  0
   38.1540   35.3960   39.9240 H   0  0  0  0  0  0  0  0  0  0  0  0
   40.6220   35.1870   40.1460 H   0  0  0  0  0  0  0  0  0  0  0  0
   41.5830   32.9030   40.6100 H   0  0  0  0  0  0  0  0  0  0  0  0
   36.9990   27.9020   43.2270 S   0  0  0  0  0  0  0  0  0  0  0  0
   37.7180   26.3630   42.6730 C   0  0  0  0  0  0  0  0  0  0  0  0
   37.0550   25.3710   42.0300 N   0  0  0  0  0  0  0  0  0  0  0  0
   37.6380   24.2430   41.6400 C   0  0  0  0  0  3  0  0  0  0  0  0
   38.9510   24.0860   41.8980 N   0  0  0  0  0  0  0  0  0  0  0  0
   39.6880   25.0120   42.5290 C   0  0  0  0  0  0  0  0  0  0  0  0
   41.0430   24.8620   42.8020 C   0  0  0  0  0  3  0  0  0  0  0  0
   41.7500   25.8550   43.4570 C   0  0  0  0  0  0  0  0  0  0  0  0
   42.8140   25.7600   43.6830 H   0  0  0  0  0  0  0  0  0  0  0  0
   41.1430   27.0350   43.8670 C   0  0  0  0  0  0  0  0  0  0  0  0
   41.6530   27.8380   44.3810 H   0  0  0  0  0  0  0  0  0  0  0  0
   39.8040   27.1450   43.5790 C   0  0  0  0  0  3  0  0  0  0  0  0
   39.0650   26.1760   42.9270 C   0  0  0  0  0  0  0  0  0  0  0  0
  1  2  1  0  0  0  0
  2  3  2  0  0  0  0
  2  7  1  0  0  0  0
  3 20  1  0  0  0  0
  4  8  1  0  0  0  0
  4  3  1  0  0  0  0
  5  4  2  0  0  0  0
  6  5  1  0  0  0  0
  6  1  2  0  0  0  0
  9  5  1  0  0  0  0
 10  6  1  0  0  0  0
 11 12  2  0  0  0  0
 11 16  1  0  0  0  0
 12 13  1  0  0  0  0
 13 19  1  0  0  0  0
 13 14  2  0  0  0  0
 15 14  1  0  0  0  0
 15  1  1  0  0  0  0
 16 15  2  0  0  0  0
 17 11  1  0  0  0  0
 18 12  1  0  0  0  0
 21 32  1  0  0  0  0
 21 20  1  0  0  0  0
 22 21  2  0  0  0  0
 23 24  2  0  0  0  0
 23 22  1  0  0  0  0
 24 25  1  0  0  0  0
 25 26  2  0  0  0  0
 25 32  1  0  0  0  0
 26 27  1  0  0  0  0
 27 28  1  0  0  0  0
 27 29  2  0  0  0  0
 29 30  1  0  0  0  0
 31 29  1  0  0  0  0
 32 31  2  0  0  0  0
M  END
>  <minimizedAffinity>
-6.32099962

$$$$

 OpenBabel03242516233D

 32 35  0  0  0  0  0  0  0  0999 V2000
   38.3250   24.7140   42.0030 C   0  0  0  0  0  0  0  0  0  0  0  0
   37.7460   25.9100   42.3550 C   0  0  0  0  0  0  0  0  0  0  0  0
   38.3430   26.7710   43.2520 C   0  0  0  0  0  0  0  0  0  0  0  0
   39.5710   26.4330   43.8270 C   0  0  0  0  0  0  0  0  0  0  0  0
   40.1630   25.2600   43.4970 C   0  0  0  0  0  0  0  0  0  0  0  0
   39.5380   24.4220   42.5980 C   0  0  0  0  0  0  0  0  0  0  0  0
   36.7920   26.1960   41.9220 H   0  0  0  0  0  0  0  0  0  0  0  0
   40.0330   27.1160   44.5310 H   0  0  0  0  0  0  0  0  0  0  0  0
   41.1140   24.9940   43.9410 H   0  0  0  0  0  0  0  0  0  0  0  0
   40.0500   23.4840   42.3570 H   0  0  0  0  0  0  0  0  0  0  0  0
   35.7880   23.3640   39.7470 C   0  0  0  0  0  0  0  0  0  0  0  0
   36.3760   22.1840   39.2600 C   0  0  0  0  0  0  0  0  0  0  0  0
   37.6470   21.8520   39.7090 C   0  0  0  0  0  0  0  0  0  0  0  0
   38.2940   22.6670   40.6020 N   0  0  0  0  0  0  0  0  0  0  0  0
   37.6800   23.8090   41.0490 C   0  0  0  0  0  0  0  0  0  0  0  0
   36.4410   24.1460   40.6210 N   0  0  0  0  0  0  0  0  0  0  0  0
   34.8000   23.5660   39.3590 H   0  0  0  0  0  0  0  0  0  0  0  0
   35.9230   21.4980   38.5570 H   0  0  0  0  0  0  0  0  0  0  0  0
   38.2300   20.9840   39.4320 H   0  0  0  0  0  0  0  0  0  0  0  0
   37.5290   28.3020   43.6560 S   0  0  0  0  0  0  0  0  0  0  0  0
   38.0280   29.5550   42.4850 C   0  0  0  0  0  0  0  0  0  0  0  0
   39.1150   30.3560   42.6040 N   0  0  0  0  0  0  0  0  0  0  0  0
   39.4410   31.2750   41.7020 C   0  0  0  0  0  3  0  0  0  0  0  0
   38.6500   31.4110   40.6200 N   0  0  0  0  0  0  0  0  0  0  0  0
   37.5550   30.6640   40.4170 C   0  0  0  0  0  0  0  0  0  0  0  0
   36.7300   30.7930   39.3050 C   0  0  0  0  0  3  0  0  0  0  0  0
   35.6130   29.9920   39.1510 C   0  0  0  0  0  0  0  0  0  0  0  0
   34.9510   30.0750   38.2880 H   0  0  0  0  0  0  0  0  0  0  0  0
   35.2690   29.0300   40.0930 C   0  0  0  0  0  0  0  0  0  0  0  0
   34.4080   28.3810   40.0170 H   0  0  0  0  0  0  0  0  0  0  0  0
   36.1080   28.9330   41.1760 C   0  0  0  0  0  3  0  0  0  0  0  0
   37.2320   29.7150   41.3640 C   0  0  0  0  0  0  0  0  0  0  0  0
  1  2  2  0  0  0  0
  1  6  1  0  0  0  0
  2  3  1  0  0  0  0
  3 20  1  0  0  0  0
  3  4  2  0  0  0  0
  4  8  1  0  0  0  0
  5  4  1  0  0  0  0
  5  9  1  0  0  0  0
  6  5  2  0  0  0  0
  7  2  1  0  0  0  0
 10  6  1  0  0  0  0
 11 16  1  0  0  0  0
 12 13  1  0  0  0  0
 12 11  2  0  0  0  0
 13 14  2  0  0  0  0
 14 15  1  0  0  0  0
 15  1  1  0  0  0  0
 16 15  2  0  0  0  0
 17 11  1  0  0  0  0
 18 12  1  0  0  0  0
 19 13  1  0  0  0  0
 21 22  1  0  0  0  0
 21 20  1  0  0  0  0
 23 22  2  0  0  0  0
 24 23  1  0  0  0  0
 25 24  2  0  0  0  0
 25 32  1  0  0  0  0
 26 25  1  0  0  0  0
 27 26  2  0  0  0  0
 27 29  1  0  0  0  0
 28 27  1  0  0  0  0
 29 31  2  0  0  0  0
 30 29  1  0  0  0  0
 31 32  1  0  0  0  0
 32 21  2  0  0  0  0
M  END
>  <minimizedAffinity>
-6.1547823

$$$$

 OpenBabel03242516233D

 32 35  0  0  0  0  0  0  0  0999 V2000
   37.9480   31.5920   38.6730 C   0  0  0  0  0  0  0  0  0  0  0  0
   37.2240   30.8230   39.5530 C   0  0  0  0  0  0  0  0  0  0  0  0
   36.3590   29.8400   39.1200 C   0  0  0  0  0  0  0  0  0  0  0  0
   36.2030   29.6070   37.7510 C   0  0  0  0  0  0  0  0  0  0  0  0
   36.9040   30.3520   36.8620 C   0  0  0  0  0  0  0  0  0  0  0  0
   37.7590   31.3260   37.3300 C   0  0  0  0  0  0  0  0  0  0  0  0
   37.3290   30.9830   40.6220 H   0  0  0  0  0  0  0  0  0  0  0  0
   35.5200   28.8330   37.4190 H   0  0  0  0  0  0  0  0  0  0  0  0
   36.7850   30.1750   35.8000 H   0  0  0  0  0  0  0  0  0  0  0  0
   38.3080   31.9060   36.5790 H   0  0  0  0  0  0  0  0  0  0  0  0
   41.0140   33.5460   39.0330 C   0  0  0  0  0  0  0  0  0  0  0  0
   40.6640   34.5360   39.9670 C   0  0  0  0  0  0  0  0  0  0  0  0
   39.3720   34.5310   40.4750 C   0  0  0  0  0  0  0  0  0  0  0  0
   38.4760   33.5780   40.0610 N   0  0  0  0  0  0  0  0  0  0  0  0
   38.8630   32.6320   39.1480 C   0  0  0  0  0  0  0  0  0  0  0  0
   40.1200   32.6240   38.6440 N   0  0  0  0  0  0  0  0  0  0  0  0
   42.0320   33.6050   38.6770 H   0  0  0  0  0  0  0  0  0  0  0  0
   41.3180   35.3150   40.3350 H   0  0  0  0  0  0  0  0  0  0  0  0
   38.9510   35.2200   41.1950 H   0  0  0  0  0  0  0  0  0  0  0  0
   35.4590   28.8860   40.3230 S   0  0  0  0  0  0  0  0  0  0  0  0
   36.5890   28.3240   41.5870 C   0  0  0  0  0  0  0  0  0  0  0  0
   37.0440   29.0680   42.6240 N   0  0  0  0  0  0  0  0  0  0  0  0
   37.8870   28.6000   43.5380 C   0  0  0  0  0  3  0  0  0  0  0  0
   38.3030   27.3230   43.4230 N   0  0  0  0  0  0  0  0  0  0  0  0
   37.9060   26.5130   42.4320 C   0  0  0  0  0  0  0  0  0  0  0  0
   38.3270   25.1940   42.3010 C   0  0  0  0  0  3  0  0  0  0  0  0
   37.8820   24.4050   41.2540 C   0  0  0  0  0  0  0  0  0  0  0  0
   38.1990   23.3680   41.1310 H   0  0  0  0  0  0  0  0  0  0  0  0
   37.0020   24.8920   40.2970 C   0  0  0  0  0  0  0  0  0  0  0  0
   36.6260   24.3160   39.4630 H   0  0  0  0  0  0  0  0  0  0  0  0
   36.6090   26.1990   40.4610 C   0  0  0  0  0  3  0  0  0  0  0  0
   37.0320   27.0160   41.4920 C   0  0  0  0  0  0  0  0  0  0  0  0
  1 15  1  0  0  0  0
  1  2  1  0  0  0  0
  2  7  1  0  0  0  0
  3  2  2  0  0  0  0
  3 20  1  0  0  0  0
  4  3  1  0  0  0  0
  5  6  1  0  0  0  0
  5  4  2  0  0  0  0
  6  1  2  0  0  0  0
  8  4  1  0  0  0  0
  9  5  1  0  0  0  0
 10  6  1  0  0  0  0
 11 12  1  0  0  0  0
 12 18  1  0  0  0  0
 12 13  2  0  0  0  0
 13 19  1  0  0  0  0
 14 13  1  0  0  0  0
 15 14  2  0  0  0  0
 16 11  2  0  0  0  0
 16 15  1  0  0  0  0
 17 11  1  0  0  0  0
 20 21  1  0  0  0  0
 21 22  1  0  0  0  0
 22 23  2  0  0  0  0
 24 23  1  0  0  0  0
 25 24  2  0  0  0  0
 26 25  1  0  0  0  0
 27 26  2  0  0  0  0
 28 27  1  0  0  0  0
 29 31  2  0  0  0  0
 29 27  1  0  0  0  0
 30 29  1  0  0  0  0
 31 32  1  0  0  0  0
 32 21  2  0  0  0  0
 32 25  1  0  0  0  0
M  END
>  <minimizedAffinity>
-6.10469532

$$$$

 OpenBabel03242516233D

 32 35  0  0  0  0  0  0  0  0999 V2000
   37.3660   31.3300   38.9830 C   0  0  0  0  0  0  0  0  0  0  0  0
   38.1310   30.8150   40.0030 C   0  0  0  0  0  0  0  0  0  0  0  0
   38.7590   31.6280   40.9240 C   0  0  0  0  0  0  0  0  0  0  0  0
   38.6240   33.0160   40.8300 C   0  0  0  0  0  0  0  0  0  0  0  0
   37.8760   33.5490   39.8340 C   0  0  0  0  0  0  0  0  0  0  0  0
   37.2620   32.7070   38.9310 C   0  0  0  0  0  0  0  0  0  0  0  0
   38.2500   29.7400   40.0980 H   0  0  0  0  0  0  0  0  0  0  0  0
   39.1220   33.6480   41.5570 H   0  0  0  0  0  0  0  0  0  0  0  0
   37.7690   34.6240   39.7580 H   0  0  0  0  0  0  0  0  0  0  0  0
   36.6660   33.1780   38.1410 H   0  0  0  0  0  0  0  0  0  0  0  0
   35.0460   28.8460   37.6420 C   0  0  0  0  0  0  0  0  0  0  0  0
   35.3930   28.7740   36.2830 C   0  0  0  0  0  0  0  0  0  0  0  0
   36.4260   29.5800   35.8260 C   0  0  0  0  0  0  0  0  0  0  0  0
   37.0780   30.4190   36.6950 N   0  0  0  0  0  0  0  0  0  0  0  0
   36.7040   30.4540   38.0140 C   0  0  0  0  0  0  0  0  0  0  0  0
   35.6980   29.6740   38.4740 N   0  0  0  0  0  0  0  0  0  0  0  0
   34.2350   28.1940   37.9340 H   0  0  0  0  0  0  0  0  0  0  0  0
   34.9220   28.1370   35.5450 H   0  0  0  0  0  0  0  0  0  0  0  0
   36.8100   29.6400   34.8170 H   0  0  0  0  0  0  0  0  0  0  0  0
   39.7310   30.8840   42.2150 S   0  0  0  0  0  0  0  0  0  0  0  0
   38.9120   29.4010   42.7830 C   0  0  0  0  0  0  0  0  0  0  0  0
   37.5740   29.2520   42.9400 N   0  0  0  0  0  0  0  0  0  0  0  0
   37.0150   28.1240   43.3660 C   0  0  0  0  0  3  0  0  0  0  0  0
   37.8230   27.0850   43.6540 N   0  0  0  0  0  0  0  0  0  0  0  0
   39.1570   27.1410   43.5300 C   0  0  0  0  0  0  0  0  0  0  0  0
   40.0030   26.0770   43.8230 C   0  0  0  0  0  3  0  0  0  0  0  0
   41.3740   26.1950   43.6740 C   0  0  0  0  0  0  0  0  0  0  0  0
   42.0560   25.3740   43.8970 H   0  0  0  0  0  0  0  0  0  0  0  0
   41.9610   27.3720   43.2280 C   0  0  0  0  0  0  0  0  0  0  0  0
   43.0240   27.5130   43.0950 H   0  0  0  0  0  0  0  0  0  0  0  0
   41.0920   28.4000   42.9490 C   0  0  0  0  0  3  0  0  0  0  0  0
   39.7190   28.3190   43.0850 C   0  0  0  0  0  0  0  0  0  0  0  0
  1  2  1  0  0  0  0
  2  7  1  0  0  0  0
  2  3  2  0  0  0  0
  3 20  1  0  0  0  0
  4  3  1  0  0  0  0
  4  8  1  0  0  0  0
  5  4  2  0  0  0  0
  6  1  2  0  0  0  0
  6  5  1  0  0  0  0
  9  5  1  0  0  0  0
 10  6  1  0  0  0  0
 11 17  1  0  0  0  0
 11 16  1  0  0  0  0
 12 11  2  0  0  0  0
 13 12  1  0  0  0  0
 13 14  2  0  0  0  0
 14 15  1  0  0  0  0
 15 16  2  0  0  0  0
 15  1  1  0  0  0  0
 18 12  1  0  0  0  0
 19 13  1  0  0  0  0
 20 21  1  0  0  0  0
 21 22  2  0  0  0  0
 21 32  1  0  0  0  0
 22 23  1  0  0  0  0
 23 24  2  0  0  0  0
 25 24  1  0  0  0  0
 25 26  1  0  0  0  0
 27 26  2  0  0  0  0
 27 28  1  0  0  0  0
 29 27  1  0  0  0  0
 30 29  1  0  0  0  0
 31 32  1  0  0  0  0
 31 29  2  0  0  0  0
 32 25  2  0  0  0  0
M  END
>  <minimizedAffinity>
-6.09246731

$$$$

 OpenBabel03242516233D

 32 35  0  0  0  0  0  0  0  0999 V2000
   37.8060   31.5650   38.5240 C   0  0  0  0  0  0  0  0  0  0  0  0
   37.1050   30.6570   39.2820 C   0  0  0  0  0  0  0  0  0  0  0  0
   36.3410   29.6640   38.7060 C   0  0  0  0  0  0  0  0  0  0  0  0
   36.2670   29.5640   37.3140 C   0  0  0  0  0  0  0  0  0  0  0  0
   36.9490   30.4470   36.5440 C   0  0  0  0  0  0  0  0  0  0  0  0
   37.7020   31.4280   37.1540 C   0  0  0  0  0  0  0  0  0  0  0  0
   37.1470   30.7130   40.3660 H   0  0  0  0  0  0  0  0  0  0  0  0
   35.6640   28.7810   36.8690 H   0  0  0  0  0  0  0  0  0  0  0  0
   36.8940   30.3740   35.4650 H   0  0  0  0  0  0  0  0  0  0  0  0
   38.2380   32.1210   36.4950 H   0  0  0  0  0  0  0  0  0  0  0  0
   40.7460   33.5350   39.4320 C   0  0  0  0  0  0  0  0  0  0  0  0
   40.2250   34.5350   40.2710 C   0  0  0  0  0  0  0  0  0  0  0  0
   38.8600   34.5310   40.5250 C   0  0  0  0  0  0  0  0  0  0  0  0
   38.0600   33.5700   39.9620 N   0  0  0  0  0  0  0  0  0  0  0  0
   38.6140   32.6140   39.1500 C   0  0  0  0  0  0  0  0  0  0  0  0
   39.9430   32.6050   38.8930 N   0  0  0  0  0  0  0  0  0  0  0  0
   41.8140   33.5940   39.2740 H   0  0  0  0  0  0  0  0  0  0  0  0
   40.7970   35.3200   40.7460 H   0  0  0  0  0  0  0  0  0  0  0  0
   38.3100   35.2270   41.1440 H   0  0  0  0  0  0  0  0  0  0  0  0
   35.4630   28.5270   39.7560 S   0  0  0  0  0  0  0  0  0  0  0  0
   36.5370   27.1570   40.1600 C   0  0  0  0  0  0  0  0  0  0  0  0
   36.7590   26.0740   39.3760 N   0  0  0  0  0  0  0  0  0  0  0  0
   37.5690   25.0800   39.7250 C   0  0  0  0  0  3  0  0  0  0  0  0
   38.1950   25.1610   40.9150 N   0  0  0  0  0  0  0  0  0  0  0  0
   38.0360   26.1930   41.7560 C   0  0  0  0  0  0  0  0  0  0  0  0
   38.6770   26.2890   42.9870 C   0  0  0  0  0  3  0  0  0  0  0  0
   38.4730   27.3810   43.8120 C   0  0  0  0  0  0  0  0  0  0  0  0
   38.9630   27.4780   44.7810 H   0  0  0  0  0  0  0  0  0  0  0  0
   37.6260   28.4220   43.4500 C   0  0  0  0  0  0  0  0  0  0  0  0
   37.4350   29.2940   44.0590 H   0  0  0  0  0  0  0  0  0  0  0  0
   37.0130   28.2900   42.2270 C   0  0  0  0  0  3  0  0  0  0  0  0
   37.1920   27.2150   41.3770 C   0  0  0  0  0  0  0  0  0  0  0  0
  1 15  1  0  0  0  0
  1  2  1  0  0  0  0
  2  7  1  0  0  0  0
  3  2  2  0  0  0  0
  3 20  1  0  0  0  0
  4  3  1  0  0  0  0
  5  6  1  0  0  0  0
  5  4  2  0  0  0  0
  6  1  2  0  0  0  0
  8  4  1  0  0  0  0
  9  5  1  0  0  0  0
 10  6  1  0  0  0  0
 11 12  1  0  0  0  0
 12 13  2  0  0  0  0
 12 18  1  0  0  0  0
 13 19  1  0  0  0  0
 14 13  1  0  0  0  0
 15 14  2  0  0  0  0
 16 15  1  0  0  0  0
 16 11  2  0  0  0  0
 17 11  1  0  0  0  0
 20 21  1  0  0  0  0
 21 32  1  0  0  0  0
 22 23  1  0  0  0  0
 22 21  2  0  0  0  0
 23 24  2  0  0  0  0
 24 25  1  0  0  0  0
 25 26  1  0  0  0  0
 26 27  2  0  0  0  0
 27 28  1  0  0  0  0
 29 27  1  0  0  0  0
 29 30  1  0  0  0  0
 31 29  2  0  0  0  0
 32 25  2  0  0  0  0
 32 31  1  0  0  0  0
M  END
>  <minimizedAffinity>
-6.02216578

$$$$

 OpenBabel03242516233D

 32 35  0  0  0  0  0  0  0  0999 V2000
   38.3030   24.8500   42.0360 C   0  0  0  0  0  0  0  0  0  0  0  0
   37.7050   26.0430   42.3670 C   0  0  0  0  0  0  0  0  0  0  0  0
   38.2800   26.9240   43.2580 C   0  0  0  0  0  0  0  0  0  0  0  0
   39.5060   26.6110   43.8510 C   0  0  0  0  0  0  0  0  0  0  0  0
   40.1170   25.4410   43.5430 C   0  0  0  0  0  0  0  0  0  0  0  0
   39.5130   24.5830   42.6480 C   0  0  0  0  0  0  0  0  0  0  0  0
   36.7520   26.3100   41.9190 H   0  0  0  0  0  0  0  0  0  0  0  0
   39.9510   27.3080   44.5510 H   0  0  0  0  0  0  0  0  0  0  0  0
   41.0670   25.1940   44.0000 H   0  0  0  0  0  0  0  0  0  0  0  0
   40.0410   23.6490   42.4250 H   0  0  0  0  0  0  0  0  0  0  0  0
   35.8070   23.4340   39.7750 C   0  0  0  0  0  0  0  0  0  0  0  0
   36.4180   22.2590   39.3070 C   0  0  0  0  0  0  0  0  0  0  0  0
   37.6910   21.9520   39.7700 C   0  0  0  0  0  0  0  0  0  0  0  0
   38.3170   22.7880   40.6590 N   0  0  0  0  0  0  0  0  0  0  0  0
   37.6810   23.9250   41.0880 C   0  0  0  0  0  0  0  0  0  0  0  0
   36.4400   24.2370   40.6450 N   0  0  0  0  0  0  0  0  0  0  0  0
   34.8200   23.6160   39.3760 H   0  0  0  0  0  0  0  0  0  0  0  0
   35.9830   21.5580   38.6070 H   0  0  0  0  0  0  0  0  0  0  0  0
   38.2910   21.0920   39.5070 H   0  0  0  0  0  0  0  0  0  0  0  0
   37.4410   28.4480   43.6330 S   0  0  0  0  0  0  0  0  0  0  0  0
   37.3200   29.4300   42.1460 C   0  0  0  0  0  0  0  0  0  0  0  0
   36.2670   29.4390   41.2920 N   0  0  0  0  0  0  0  0  0  0  0  0
   36.2280   30.1900   40.1970 C   0  0  0  0  0  3  0  0  0  0  0  0
   37.2890   30.9760   39.9290 N   0  0  0  0  0  0  0  0  0  0  0  0
   38.3740   31.0320   40.7140 C   0  0  0  0  0  0  0  0  0  0  0  0
   39.4750   31.8390   40.4500 C   0  0  0  0  0  3  0  0  0  0  0  0
   40.5670   31.8540   41.3000 C   0  0  0  0  0  0  0  0  0  0  0  0
   41.4420   32.4790   41.1130 H   0  0  0  0  0  0  0  0  0  0  0  0
   40.6110   31.0710   42.4460 C   0  0  0  0  0  0  0  0  0  0  0  0
   41.4390   31.0480   43.1390 H   0  0  0  0  0  0  0  0  0  0  0  0
   39.5040   30.2880   42.6720 C   0  0  0  0  0  3  0  0  0  0  0  0
   38.3960   30.2460   41.8470 C   0  0  0  0  0  0  0  0  0  0  0  0
  1  2  2  0  0  0  0
  1  6  1  0  0  0  0
  2  3  1  0  0  0  0
  3 20  1  0  0  0  0
  3  4  2  0  0  0  0
  4  8  1  0  0  0  0
  5  4  1  0  0  0  0
  5  9  1  0  0  0  0
  6  5  2  0  0  0  0
  7  2  1  0  0  0  0
 10  6  1  0  0  0  0
 11 16  1  0  0  0  0
 12 13  1  0  0  0  0
 12 11  2  0  0  0  0
 13 14  2  0  0  0  0
 14 15  1  0  0  0  0
 15  1  1  0  0  0  0
 16 15  2  0  0  0  0
 17 11  1  0  0  0  0
 18 12  1  0  0  0  0
 19 13  1  0  0  0  0
 21 20  1  0  0  0  0
 22 21  2  0  0  0  0
 23 22  1  0  0  0  0
 24 23  2  0  0  0  0
 24 25  1  0  0  0  0
 25 32  1  0  0  0  0
 26 25  2  0  0  0  0
 26 27  1  0  0  0  0
 27 29  2  0  0  0  0
 28 27  1  0  0  0  0
 29 31  1  0  0  0  0
 29 30  1  0  0  0  0
 32 21  1  0  0  0  0
 32 31  2  0  0  0  0
M  END
>  <minimizedAffinity>
-5.9483819

$$$$

 OpenBabel03242516233D

 32 35  0  0  0  0  0  0  0  0999 V2000
   37.5430   26.5950   41.9840 C   0  0  0  0  0  0  0  0  0  0  0  0
   38.4910   27.5460   41.6910 C   0  0  0  0  0  0  0  0  0  0  0  0
   38.6380   28.6870   42.4530 C   0  0  0  0  0  0  0  0  0  0  0  0
   37.8070   28.8960   43.5560 C   0  0  0  0  0  0  0  0  0  0  0  0
   36.8640   27.9750   43.8670 C   0  0  0  0  0  0  0  0  0  0  0  0
   36.7440   26.8460   43.0840 C   0  0  0  0  0  0  0  0  0  0  0  0
   39.1500   27.4060   40.8390 H   0  0  0  0  0  0  0  0  0  0  0  0
   37.9290   29.7960   44.1490 H   0  0  0  0  0  0  0  0  0  0  0  0
   36.2170   28.1340   44.7210 H   0  0  0  0  0  0  0  0  0  0  0  0
   35.9690   26.1260   43.3690 H   0  0  0  0  0  0  0  0  0  0  0  0
   38.0420   23.1640   40.8310 C   0  0  0  0  0  0  0  0  0  0  0  0
   37.2050   23.0710   39.7060 C   0  0  0  0  0  0  0  0  0  0  0  0
   36.4680   24.1900   39.3430 C   0  0  0  0  0  0  0  0  0  0  0  0
   36.5680   25.3450   40.0770 N   0  0  0  0  0  0  0  0  0  0  0  0
   37.3980   25.3890   41.1670 C   0  0  0  0  0  0  0  0  0  0  0  0
   38.1230   24.3050   41.5330 N   0  0  0  0  0  0  0  0  0  0  0  0
   38.5870   22.2600   41.0610 H   0  0  0  0  0  0  0  0  0  0  0  0
   37.0800   22.1950   39.0850 H   0  0  0  0  0  0  0  0  0  0  0  0
   35.7850   24.2790   38.5100 H   0  0  0  0  0  0  0  0  0  0  0  0
   39.8910   29.8700   42.0070 S   0  0  0  0  0  0  0  0  0  0  0  0
   39.1220   31.2490   41.1720 C   0  0  0  0  0  0  0  0  0  0  0  0
   37.8160   31.3270   40.8200 N   0  0  0  0  0  0  0  0  0  0  0  0
   37.2940   32.3790   40.1980 C   0  0  0  0  0  3  0  0  0  0  0  0
   38.1070   33.4130   39.9090 N   0  0  0  0  0  0  0  0  0  0  0  0
   39.4120   33.4250   40.2180 C   0  0  0  0  0  0  0  0  0  0  0  0
   40.2630   34.4850   39.9250 C   0  0  0  0  0  3  0  0  0  0  0  0
   41.6020   34.4390   40.2710 C   0  0  0  0  0  0  0  0  0  0  0  0
   42.2890   35.2570   40.0510 H   0  0  0  0  0  0  0  0  0  0  0  0
   42.1510   33.3400   40.9210 C   0  0  0  0  0  0  0  0  0  0  0  0
   43.1890   33.2580   41.2110 H   0  0  0  0  0  0  0  0  0  0  0  0
   41.2780   32.3140   41.1930 C   0  0  0  0  0  3  0  0  0  0  0  0
   39.9360   32.3240   40.8630 C   0  0  0  0  0  0  0  0  0  0  0  0
  1  6  1  0  0  0  0
  2  1  2  0  0  0  0
  2  3  1  0  0  0  0
  3  4  2  0  0  0  0
  4  5  1  0  0  0  0
  4  8  1  0  0  0  0
  5  9  1  0  0  0  0
  6 10  1  0  0  0  0
  6  5  2  0  0  0  0
  7  2  1  0  0  0  0
 11 17  1  0  0  0  0
 11 16  1  0  0  0  0
 12 11  2  0  0  0  0
 13 12  1  0  0  0  0
 13 14  2  0  0  0  0
 14 15  1  0  0  0  0
 15 16  2  0  0  0  0
 15  1  1  0  0  0  0
 18 12  1  0  0  0  0
 19 13  1  0  0  0  0
 20  3  1  0  0  0  0
 21 20  1  0  0  0  0
 22 21  2  0  0  0  0
 23 22  1  0  0  0  0
 24 23  2  0  0  0  0
 24 25  1  0  0  0  0
 25 32  1  0  0  0  0
 26 25  2  0  0  0  0
 26 27  1  0  0  0  0
 27 29  2  0  0  0  0
 28 27  1  0  0  0  0
 29 31  1  0  0  0  0
 29 30  1  0  0  0  0
 32 21  1  0  0  0  0
 32 31  2  0  0  0  0
M  END
>  <minimizedAffinity>
-5.90802479

$$$$

 OpenBabel03242516233D

 32 35  0  0  0  0  0  0  0  0999 V2000
   37.3840   26.5850   41.6990 C   0  0  0  0  0  0  0  0  0  0  0  0
   36.8380   27.7390   41.1900 C   0  0  0  0  0  0  0  0  0  0  0  0
   36.9740   28.9530   41.8300 C   0  0  0  0  0  0  0  0  0  0  0  0
   37.6840   29.0290   43.0320 C   0  0  0  0  0  0  0  0  0  0  0  0
   38.2320   27.9050   43.5560 C   0  0  0  0  0  0  0  0  0  0  0  0
   38.0760   26.7080   42.8890 C   0  0  0  0  0  0  0  0  0  0  0  0
   36.2820   27.7070   40.2580 H   0  0  0  0  0  0  0  0  0  0  0  0
   37.7850   29.9860   43.5290 H   0  0  0  0  0  0  0  0  0  0  0  0
   38.7820   27.9600   44.4860 H   0  0  0  0  0  0  0  0  0  0  0  0
   38.5350   25.8240   43.3460 H   0  0  0  0  0  0  0  0  0  0  0  0
   36.2430   24.1420   39.2330 C   0  0  0  0  0  0  0  0  0  0  0  0
   36.8730   22.9520   39.6350 C   0  0  0  0  0  0  0  0  0  0  0  0
   37.6920   22.9890   40.7560 C   0  0  0  0  0  0  0  0  0  0  0  0
   37.8680   24.1660   41.4380 N   0  0  0  0  0  0  0  0  0  0  0  0
   37.2310   25.3030   41.0080 C   0  0  0  0  0  0  0  0  0  0  0  0
   36.4300   25.2820   39.9170 N   0  0  0  0  0  0  0  0  0  0  0  0
   35.6210   24.0460   38.3550 H   0  0  0  0  0  0  0  0  0  0  0  0
   36.7790   21.9920   39.1450 H   0  0  0  0  0  0  0  0  0  0  0  0
   38.2430   22.1660   41.1890 H   0  0  0  0  0  0  0  0  0  0  0  0
   36.2370   30.4020   41.1060 S   0  0  0  0  0  0  0  0  0  0  0  0
   37.1340   30.8330   39.6220 C   0  0  0  0  0  0  0  0  0  0  0  0
   38.2350   31.6210   39.5680 N   0  0  0  0  0  0  0  0  0  0  0  0
   38.8650   31.9110   38.4350 C   0  0  0  0  0  3  0  0  0  0  0  0
   38.3810   31.3930   37.2890 N   0  0  0  0  0  0  0  0  0  0  0  0
   37.2980   30.6050   37.2450 C   0  0  0  0  0  0  0  0  0  0  0  0
   36.7870   30.0630   36.0700 C   0  0  0  0  0  3  0  0  0  0  0  0
   35.6640   29.2540   36.0880 C   0  0  0  0  0  0  0  0  0  0  0  0
   35.2460   28.8190   35.1800 H   0  0  0  0  0  0  0  0  0  0  0  0
   35.0030   28.9490   37.2710 C   0  0  0  0  0  0  0  0  0  0  0  0
   34.1250   28.3230   37.3370 H   0  0  0  0  0  0  0  0  0  0  0  0
   35.5380   29.5020   38.4100 C   0  0  0  0  0  3  0  0  0  0  0  0
   36.6570   30.3140   38.4310 C   0  0  0  0  0  0  0  0  0  0  0  0
  1  6  1  0  0  0  0
  2  1  2  0  0  0  0
  2  3  1  0  0  0  0
  3  4  2  0  0  0  0
  4  8  1  0  0  0  0
  4  5  1  0  0  0  0
  5  9  1  0  0  0  0
  6 10  1  0  0  0  0
  6  5  2  0  0  0  0
  7  2  1  0  0  0  0
 11 12  2  0  0  0  0
 11 16  1  0  0  0  0
 12 13  1  0  0  0  0
 13 19  1  0  0  0  0
 13 14  2  0  0  0  0
 15 14  1  0  0  0  0
 15  1  1  0  0  0  0
 16 15  2  0  0  0  0
 17 11  1  0  0  0  0
 18 12  1  0  0  0  0
 20  3  1  0  0  0  0
 21 20  1  0  0  0  0
 22 21  1  0  0  0  0
 23 22  2  0  0  0  0
 24 23  1  0  0  0  0
 25 24  2  0  0  0  0
 25 32  1  0  0  0  0
 26 27  2  0  0  0  0
 26 25  1  0  0  0  0
 27 29  1  0  0  0  0
 28 27  1  0  0  0  0
 29 30  1  0  0  0  0
 29 31  2  0  0  0  0
 31 32  1  0  0  0  0
 32 21  2  0  0  0  0
M  END
>  <minimizedAffinity>
-5.87894964

$$$$
