
 OpenBabel03252503273D

 28 30  0  0  0  0  0  0  0  0999 V2000
   45.1970   34.6390   42.7720 C   0  0  0  0  0  0  0  0  0  0  0  0
   46.2380   35.0950   41.9320 C   0  0  0  0  0  0  0  0  0  0  0  0
   47.5360   34.7560   42.3660 C   0  0  0  0  0  0  0  0  0  0  0  0
   47.6740   34.0480   43.5130 N   0  0  0  0  0  0  0  0  0  0  0  0
   46.6250   33.6430   44.2720 C   0  0  0  0  0  0  0  0  0  0  0  0
   45.3770   33.9430   43.8960 N   0  0  0  0  0  0  0  0  0  0  0  0
   43.3660   34.1170   41.3440 C   0  0  0  0  0  0  0  0  0  0  0  0
   44.1920   33.2950   40.8740 O   0  0  0  0  0  0  0  0  0  0  0  0
   43.8410   34.9150   42.4100 N   0  0  0  0  0  0  0  0  0  0  0  0
   46.0450   35.6500   41.0430 H   0  0  0  0  0  0  0  0  0  0  0  0
   46.8910   33.0850   45.1600 H   0  0  0  0  0  0  0  0  0  0  0  0
   43.3140   35.6310   42.9090 H   0  0  0  0  0  0  0  0  0  0  0  0
   41.9570   34.4440   41.0140 C   0  0  0  0  0  0  0  0  0  0  0  0
   41.5310   35.6630   40.6290 N   0  0  0  0  0  0  0  0  0  0  0  0
   40.2740   35.9530   40.3350 C   0  0  0  0  0  0  0  0  0  0  0  0
   39.3070   35.0470   40.3990 N   0  0  0  0  0  0  0  0  0  0  0  0
   39.6290   33.7870   40.7770 C   0  0  0  0  0  0  0  0  0  0  0  0
   38.6270   32.8510   40.8410 C   0  0  0  0  0  0  0  0  0  0  0  0
   38.8910   31.5670   41.2140 C   0  0  0  0  0  0  0  0  0  0  0  0
   38.0440   30.9000   41.2380 H   0  0  0  0  0  0  0  0  0  0  0  0
   40.2050   31.2560   41.5240 C   0  0  0  0  0  0  0  0  0  0  0  0
   40.3870   30.2240   41.8190 H   0  0  0  0  0  0  0  0  0  0  0  0
   41.1800   32.2260   41.4450 C   0  0  0  0  0  0  0  0  0  0  0  0
   40.9460   33.5180   41.0750 C   0  0  0  0  0  0  0  0  0  0  0  0
   48.6140   35.2270   41.4950 C   0  0  0  0  0  0  0  0  0  0  0  0
   49.7450   34.4210   41.7090 F   0  0  0  0  0  0  0  0  0  0  0  0
   48.9570   36.4880   41.9270 F   0  0  0  0  0  0  0  0  0  0  0  0
   48.3150   35.1440   40.1620 F   0  0  0  0  0  0  0  0  0  0  0  0
  1  6  1  0  0  0  0
  2  3  1  0  0  0  0
  2  1  2  0  0  0  0
  3  4  2  0  0  0  0
  4  5  1  0  0  0  0
  5 11  1  0  0  0  0
  6  5  2  0  0  0  0
  7  9  1  0  0  0  0
  8  7  2  0  0  0  0
  9  1  1  0  0  0  0
  9 12  1  0  0  0  0
 10  2  1  0  0  0  0
 13 24  1  0  0  0  0
 13  7  1  0  0  0  0
 14 13  2  0  0  0  0
 15 16  2  0  0  0  0
 15 14  1  0  0  0  0
 16 17  1  0  0  0  0
 17 18  2  0  0  0  0
 17 24  1  0  0  0  0
 18 19  1  0  0  0  0
 19 20  1  0  0  0  0
 19 21  2  0  0  0  0
 21 22  1  0  0  0  0
 23 21  1  0  0  0  0
 24 23  2  0  0  0  0
 25 26  1  0  0  0  0
 25 27  1  0  0  0  0
 25  3  1  0  0  0  0
 28 25  1  0  0  0  0
M  END
>  <minimizedAffinity>
-6.97448015

>  <minimizedRMSD>
1.54617918

$$$$
