
 OpenBabel03252507323D

 52 56  0  0  1  0  0  0  0  0999 V2000
   47.0330   32.4410   45.3090 C   0  0  0  0  0  0  0  0  0  0  0  0
   45.9670   33.1110   45.8930 C   0  0  0  0  0  0  0  0  0  0  0  0
   45.3600   34.1910   45.2100 C   0  0  0  0  0  0  0  0  0  0  0  0
   45.8980   34.5130   43.9650 N   0  0  0  0  0  0  0  0  0  0  0  0
   46.9410   33.8190   43.4560 C   0  0  0  0  0  0  0  0  0  0  0  0
   47.4920   32.8100   44.1130 N   0  0  0  0  0  0  0  0  0  0  0  0
   45.4350   33.0630   46.8180 H   0  0  0  0  0  0  0  0  0  0  0  0
   44.5490   34.8090   45.4900 H   0  0  0  0  0  0  0  0  0  0  0  0
   47.6030   31.3280   46.0400 C   0  0  2  0  0  0  0  0  0  0  0  0
   47.0500   29.9630   45.5220 C   0  0  0  0  0  0  0  0  0  0  0  0
   47.7810   28.8510   46.1880 C   0  0  0  0  0  0  0  0  0  0  0  0
   47.9910   28.9910   47.6570 C   0  0  0  0  0  0  0  0  0  0  0  0
   48.2770   30.3360   48.0940 C   0  0  0  0  0  0  0  0  0  0  0  0
   47.3570   31.4050   47.4670 C   0  0  2  0  0  0  0  0  0  0  0  0
   48.6870   31.2380   45.7880 H   0  0  0  0  0  0  0  0  0  0  0  0
   45.9620   29.9360   45.6160 H   0  0  0  0  0  0  0  0  0  0  0  0
   47.2800   29.9880   44.4370 H   0  0  0  0  0  0  0  0  0  0  0  0
   47.1480   27.9270   46.0490 H   0  0  0  0  0  0  0  0  0  0  0  0
   48.6790   28.6520   45.5720 H   0  0  0  0  0  0  0  0  0  0  0  0
   49.0640   28.5440   47.7280 H   0  0  0  0  0  0  0  0  0  0  0  0
   47.5690   28.2300   48.3160 H   0  0  0  0  0  0  0  0  0  0  0  0
   48.1100   30.4130   49.2080 H   0  0  0  0  0  0  0  0  0  0  0  0
   49.3040   30.7460   47.9500 H   0  0  0  0  0  0  0  0  0  0  0  0
   47.6980   32.3060   47.9780 H   0  0  0  0  0  0  0  0  0  0  0  0
   45.9650   31.0450   47.7530 N   0  0  0  0  0  0  0  0  0  0  0  0
   45.3200   30.6910   48.9500 C   0  0  0  0  0  0  0  0  0  0  0  0
   44.9870   31.5500   49.8440 O   0  0  0  0  0  0  0  0  0  0  0  0
   45.0530   29.2950   49.0920 N   0  0  0  0  0  0  0  0  0  0  0  0
   45.2220   30.9420   46.9640 H   0  0  0  0  0  0  0  0  0  0  0  0
   44.4060   28.8060   48.4180 H   0  0  0  0  0  0  0  0  0  0  0  0
   45.2160   28.4050   49.6160 H   0  0  0  0  0  0  0  0  0  0  0  0
   47.4740   34.2380   42.1630 C   0  0  0  0  0  0  0  0  0  0  0  0
   48.3270   35.2790   42.0290 C   0  0  0  0  0  0  0  0  0  0  0  0
   48.8420   35.6940   40.8180 C   0  0  0  0  0  0  0  0  0  0  0  0
   48.4330   34.9770   39.7150 C   0  0  0  0  0  0  0  0  0  0  0  0
   47.5550   33.8970   39.8150 C   0  0  0  0  0  0  0  0  0  0  0  0
   47.1300   33.6000   41.0580 N   0  0  0  0  0  0  0  0  0  0  0  0
   48.6340   35.8290   42.9060 H   0  0  0  0  0  0  0  0  0  0  0  0
   49.5230   36.5270   40.7120 H   0  0  0  0  0  0  0  0  0  0  0  0
   48.8340   35.2990   38.7710 H   0  0  0  0  0  0  0  0  0  0  0  0
   47.2350   33.2590   38.5530 C   0  0  0  0  0  0  0  0  0  0  0  0
   46.0140   33.3680   38.0020 N   0  0  0  0  0  0  0  0  0  0  0  0
   45.6100   32.8360   36.8650 C   0  0  0  0  0  3  0  0  0  0  0  0
   46.4570   32.0930   36.1300 N   0  0  0  0  0  0  0  0  0  0  0  0
   47.7300   31.9050   36.5820 C   0  0  0  0  0  0  0  0  0  0  0  0
   48.6150   31.1480   35.8460 C   0  0  0  0  0  3  0  0  0  0  0  0
   49.9230   30.9430   36.2890 C   0  0  0  0  0  0  0  0  0  0  0  0
   50.5180   30.3340   35.6250 H   0  0  0  0  0  0  0  0  0  0  0  0
   50.2680   31.5440   37.5060 C   0  0  0  0  0  0  0  0  0  0  0  0
   51.2960   31.3490   37.7980 H   0  0  0  0  0  0  0  0  0  0  0  0
   49.3390   32.2850   38.1880 C   0  0  0  0  0  3  0  0  0  0  0  0
   48.0650   32.4950   37.7720 C   0  0  0  0  0  0  0  0  0  0  0  0
  1  2  1  0  0  0  0
  1  9  1  0  0  0  0
  2  7  1  0  0  0  0
  3  8  1  0  0  0  0
  3  2  2  0  0  0  0
  4  3  1  0  0  0  0
  5  4  2  0  0  0  0
  5  6  1  0  0  0  0
  6  1  2  0  0  0  0
  9 15  1  6  0  0  0
  9 14  1  0  0  0  0
 10 16  1  0  0  0  0
 10  9  1  0  0  0  0
 10 11  1  0  0  0  0
 11 12  1  0  0  0  0
 12 20  1  0  0  0  0
 12 13  1  0  0  0  0
 12 21  1  0  0  0  0
 13 22  1  0  0  0  0
 14 25  1  0  0  0  0
 14 24  1  1  0  0  0
 14 13  1  0  0  0  0
 17 10  1  0  0  0  0
 18 11  1  0  0  0  0
 19 11  1  0  0  0  0
 23 13  1  0  0  0  0
 25 26  1  0  0  0  0
 26 28  1  0  0  0  0
 26 27  2  0  0  0  0
 28 31  1  0  0  0  0
 29 25  1  0  0  0  0
 30 28  1  0  0  0  0
 32  5  1  0  0  0  0
 33 32  1  0  0  0  0
 33 38  1  0  0  0  0
 34 33  2  0  0  0  0
 35 36  2  0  0  0  0
 35 34  1  0  0  0  0
 36 37  1  0  0  0  0
 37 32  2  0  0  0  0
 39 34  1  0  0  0  0
 40 35  1  0  0  0  0
 41 36  1  0  0  0  0
 42 41  1  0  0  0  0
 43 42  2  0  0  0  0
 44 45  2  0  0  0  0
 44 43  1  0  0  0  0
 45 52  1  0  0  0  0
 46 47  2  0  0  0  0
 46 45  1  0  0  0  0
 47 49  1  0  0  0  0
 48 47  1  0  0  0  0
 49 50  1  0  0  0  0
 49 51  2  0  0  0  0
 52 51  1  0  0  0  0
 52 41  2  0  0  0  0
M  END
>  <minimizedAffinity>
-6.88463688

>  <minimizedRMSD>
1.56494451

$$$$
