
 OpenBabel03252505073D

 46 50  0  0  1  0  0  0  0  0999 V2000
   44.5840   35.6220   44.6570 C   0  0  0  0  0  0  0  0  0  0  0  0
   45.1930   35.5960   43.3810 C   0  0  0  0  0  0  0  0  0  0  0  0
   46.2340   34.6560   43.1620 C   0  0  0  0  0  0  0  0  0  0  0  0
   46.5860   33.8360   44.1880 N   0  0  0  0  0  0  0  0  0  0  0  0
   45.9840   33.8880   45.3870 C   0  0  0  0  0  0  0  0  0  0  0  0
   44.9760   34.7860   45.6270 N   0  0  0  0  0  0  0  0  0  0  0  0
   43.8030   36.3520   44.7640 H   0  0  0  0  0  0  0  0  0  0  0  0
   44.9250   36.2380   42.5650 H   0  0  0  0  0  0  0  0  0  0  0  0
   46.4180   32.9750   46.4650 C   0  0  2  0  0  0  0  0  0  0  0  0
   46.9730   31.7590   45.7740 C   0  0  0  0  0  0  0  0  0  0  0  0
   46.0950   30.5680   45.8050 C   0  0  0  0  0  0  0  0  0  0  0  0
   45.8240   30.2990   47.2780 C   0  0  0  0  0  0  0  0  0  0  0  0
   45.0370   31.3630   47.8870 C   0  0  0  0  0  0  0  0  0  0  0  0
   45.3760   32.7370   47.4380 C   0  0  0  0  0  0  0  0  0  0  0  0
   47.2700   33.5150   46.9700 H   0  0  0  0  0  0  0  0  0  0  0  0
   47.2570   31.9600   44.7130 H   0  0  0  0  0  0  0  0  0  0  0  0
   47.9260   31.4850   46.2710 H   0  0  0  0  0  0  0  0  0  0  0  0
   45.1100   30.7500   45.3490 H   0  0  0  0  0  0  0  0  0  0  0  0
   46.6600   29.7210   45.3780 H   0  0  0  0  0  0  0  0  0  0  0  0
   45.1520   29.4060   47.2690 H   0  0  0  0  0  0  0  0  0  0  0  0
   46.7300   29.9930   47.8280 H   0  0  0  0  0  0  0  0  0  0  0  0
   44.2510   31.4460   48.5940 H   0  0  0  0  0  0  0  0  0  0  0  0
   44.6840   33.8600   47.9530 N   0  0  0  0  0  0  0  0  0  0  0  0
   45.1130   34.5290   48.6330 H   0  0  0  0  0  0  0  0  0  0  0  0
   43.6980   33.9860   47.6120 H   0  0  0  0  0  0  0  0  0  0  0  0
   46.8900   34.6050   41.8680 C   0  0  0  0  0  0  0  0  0  0  0  0
   48.0890   35.2180   41.7220 C   0  0  0  0  0  0  0  0  0  0  0  0
   48.6730   35.1250   40.4400 C   0  0  0  0  0  0  0  0  0  0  0  0
   47.9620   34.4260   39.4910 C   0  0  0  0  0  0  0  0  0  0  0  0
   46.7580   33.8110   39.6300 C   0  0  0  0  0  0  0  0  0  0  0  0
   46.2960   33.9630   40.8940 N   0  0  0  0  0  0  0  0  0  0  0  0
   48.5750   35.7430   42.5150 H   0  0  0  0  0  0  0  0  0  0  0  0
   49.6120   35.5930   40.2850 H   0  0  0  0  0  0  0  0  0  0  0  0
   48.4930   34.4090   38.5350 H   0  0  0  0  0  0  0  0  0  0  0  0
   46.2050   33.1360   38.4790 C   0  0  0  0  0  0  0  0  0  0  0  0
   44.9370   32.7010   38.5170 N   0  0  0  0  0  0  0  0  0  0  0  0
   44.3410   32.0670   37.5010 C   0  0  0  0  0  0  0  0  0  0  0  0
   44.9900   31.8150   36.3350 N   0  0  0  0  0  0  0  0  0  0  0  0
   46.2870   32.2220   36.2080 C   0  0  0  0  0  0  0  0  0  0  0  0
   46.9980   31.9940   35.0490 C   0  0  0  0  0  0  0  0  0  0  0  0
   48.3070   32.4020   34.9090 C   0  0  0  0  0  0  0  0  0  0  0  0
   48.7580   32.1660   33.9550 H   0  0  0  0  0  0  0  0  0  0  0  0
   48.8810   33.0600   36.0030 C   0  0  0  0  0  0  0  0  0  0  0  0
   49.9090   33.3630   35.8530 H   0  0  0  0  0  0  0  0  0  0  0  0
   48.1330   33.2640   37.1380 C   0  0  0  0  0  0  0  0  0  0  0  0
   46.8340   32.8660   37.2900 C   0  0  0  0  0  0  0  0  0  0  0  0
  1  7  1  0  0  0  0
  1  6  1  0  0  0  0
  2  1  2  0  0  0  0
  3  2  1  0  0  0  0
  3  4  2  0  0  0  0
  4  5  1  0  0  0  0
  5  6  2  0  0  0  0
  5  9  1  0  0  0  0
  8  2  1  0  0  0  0
  9 15  1  1  0  0  0
  9 14  1  0  0  0  0
 10 11  1  0  0  0  0
 10 17  1  0  0  0  0
 10  9  1  0  0  0  0
 11 12  1  0  0  0  0
 12 21  1  0  0  0  0
 12 13  1  0  0  0  0
 13 22  1  0  0  0  0
 14 13  2  0  0  0  0
 14 23  1  0  0  0  0
 16 10  1  0  0  0  0
 18 11  1  0  0  0  0
 19 11  1  0  0  0  0
 20 12  1  0  0  0  0
 23 24  1  0  0  0  0
 25 23  1  0  0  0  0
 26  3  1  0  0  0  0
 27 26  1  0  0  0  0
 27 32  1  0  0  0  0
 28 27  2  0  0  0  0
 29 30  2  0  0  0  0
 29 28  1  0  0  0  0
 30 31  1  0  0  0  0
 31 26  2  0  0  0  0
 33 28  1  0  0  0  0
 34 29  1  0  0  0  0
 35 36  1  0  0  0  0
 35 30  1  0  0  0  0
 37 36  2  0  0  0  0
 38 37  1  0  0  0  0
 39 38  2  0  0  0  0
 39 46  1  0  0  0  0
 40 39  1  0  0  0  0
 41 40  2  0  0  0  0
 41 43  1  0  0  0  0
 42 41  1  0  0  0  0
 43 45  2  0  0  0  0
 44 43  1  0  0  0  0
 45 46  1  0  0  0  0
 46 35  2  0  0  0  0
M  END
>  <minimizedAffinity>
-8.02036762

>  <minimizedRMSD>
0.352509618

$$$$
