
 OpenBabel03252508173D

 50 55  0  0  1  0  0  0  0  0999 V2000
   46.6760   31.5300   48.2320 C   0  0  1  0  0  0  0  0  0  0  0  0
   46.3370   30.4590   49.2110 C   0  0  0  0  0  0  0  0  0  0  0  0
   47.5300   31.2770   49.4070 C   0  0  1  0  0  0  0  0  0  0  0  0
   45.8440   32.2950   48.2170 H   0  0  0  0  0  0  0  0  0  0  0  0
   46.4990   29.3970   48.9080 H   0  0  0  0  0  0  0  0  0  0  0  0
   45.5000   30.5580   49.9310 H   0  0  0  0  0  0  0  0  0  0  0  0
   47.4810   32.0420   50.2090 H   0  0  0  0  0  0  0  0  0  0  0  0
   48.9060   30.7370   49.1760 C   0  0  2  0  0  0  0  0  0  0  0  0
   49.5460   30.1570   50.4630 C   0  0  0  0  0  0  0  0  0  0  0  0
   50.0650   31.4200   49.8970 C   0  0  1  0  0  0  0  0  0  0  0  0
   49.1260   30.0770   48.3190 H   0  0  0  0  0  0  0  0  0  0  0  0
   48.9970   30.2660   51.4160 H   0  0  0  0  0  0  0  0  0  0  0  0
   50.1320   29.2430   50.4180 H   0  0  0  0  0  0  0  0  0  0  0  0
   49.8150   32.3850   50.3920 H   0  0  0  0  0  0  0  0  0  0  0  0
   51.4170   31.3140   49.2900 C   0  0  0  0  0  0  0  0  0  0  0  0
   51.7470   30.3580   48.4000 N   0  0  0  0  0  0  0  0  0  0  0  0
   52.9470   30.2250   47.8300 C   0  0  0  0  0  3  0  0  0  0  0  0
   53.9480   31.0980   48.1380 N   0  0  0  0  0  0  0  0  0  0  0  0
   53.6720   32.0830   49.0300 C   0  0  0  0  0  0  0  0  0  0  0  0
   54.7160   32.9410   49.3100 C   0  0  0  0  0  3  0  0  0  0  0  0
   54.4610   33.9670   50.2260 C   0  0  0  0  0  0  0  0  0  0  0  0
   55.3050   34.6210   50.4220 H   0  0  0  0  0  0  0  0  0  0  0  0
   53.2250   34.1120   50.8200 C   0  0  0  0  0  0  0  0  0  0  0  0
   53.0990   34.9420   51.5310 H   0  0  0  0  0  0  0  0  0  0  0  0
   52.1890   33.2410   50.5270 C   0  0  0  0  0  3  0  0  0  0  0  0
   52.4260   32.2100   49.6140 C   0  0  0  0  0  0  0  0  0  0  0  0
   47.1020   31.0540   46.8830 C   0  0  0  0  0  0  0  0  0  0  0  0
   48.1440   30.8010   46.7430 H   0  0  0  0  0  0  0  0  0  0  0  0
   46.5220   30.1360   46.5740 H   0  0  0  0  0  0  0  0  0  0  0  0
   46.0210   33.0260   46.1670 C   0  0  0  0  0  3  0  0  0  0  0  0
   46.8480   32.1240   45.8440 C   0  0  0  0  0  3  0  0  0  0  0  0
   44.5390   35.9420   44.4620 C   0  0  0  0  0  0  0  0  0  0  0  0
   45.2060   35.9580   43.2400 C   0  0  0  0  0  0  0  0  0  0  0  0
   46.1220   34.9860   43.0470 C   0  0  0  0  0  0  0  0  0  0  0  0
   46.3610   34.0510   44.0100 N   0  0  0  0  0  0  0  0  0  0  0  0
   45.6950   34.0640   45.1840 C   0  0  0  0  0  0  0  0  0  0  0  0
   44.8000   35.0130   45.3750 N   0  0  0  0  0  0  0  0  0  0  0  0
   43.7950   36.7140   44.6450 H   0  0  0  0  0  0  0  0  0  0  0  0
   45.0280   36.6840   42.4790 H   0  0  0  0  0  0  0  0  0  0  0  0
   46.9010   34.8730   41.8150 C   0  0  0  0  0  0  0  0  0  0  0  0
   48.1110   35.4770   41.5980 C   0  0  0  0  0  0  0  0  0  0  0  0
   48.8380   35.3630   40.4310 C   0  0  0  0  0  0  0  0  0  0  0  0
   48.3420   34.5980   39.3930 C   0  0  0  0  0  0  0  0  0  0  0  0
   47.1350   33.9710   39.5540 C   0  0  0  0  0  0  0  0  0  0  0  0
   46.4400   34.1140   40.7440 C   0  0  0  0  0  0  0  0  0  0  0  0
   48.5220   36.0890   42.4120 H   0  0  0  0  0  0  0  0  0  0  0  0
   49.7840   35.8800   40.3610 H   0  0  0  0  0  0  0  0  0  0  0  0
   48.9340   34.5290   38.4960 H   0  0  0  0  0  0  0  0  0  0  0  0
   46.7510   33.3750   38.7380 H   0  0  0  0  0  0  0  0  0  0  0  0
   45.4950   33.5890   40.7930 H   0  0  0  0  0  0  0  0  0  0  0  0
  1  4  1  1  0  0  0
  1  2  1  0  0  0  0
  1  3  1  0  0  0  0
  2  3  1  0  0  0  0
  2  6  1  0  0  0  0
  3  7  1  1  0  0  0
  5  2  1  0  0  0  0
  8 11  1  6  0  0  0
  8  3  1  0  0  0  0
  8 10  1  0  0  0  0
  8  9  1  0  0  0  0
  9 12  1  0  0  0  0
 10 14  1  1  0  0  0
 10  9  1  0  0  0  0
 13  9  1  0  0  0  0
 15 26  1  0  0  0  0
 15 10  1  0  0  0  0
 16 15  2  0  0  0  0
 17 18  2  0  0  0  0
 17 16  1  0  0  0  0
 18 19  1  0  0  0  0
 19 20  2  0  0  0  0
 19 26  1  0  0  0  0
 20 21  1  0  0  0  0
 21 22  1  0  0  0  0
 21 23  2  0  0  0  0
 23 24  1  0  0  0  0
 25 23  1  0  0  0  0
 26 25  2  0  0  0  0
 27  1  1  0  0  0  0
 28 27  1  0  0  0  0
 29 27  1  0  0  0  0
 31 30  2  0  0  0  0
 31 27  1  0  0  0  0
 32 38  1  0  0  0  0
 32 37  1  0  0  0  0
 33 32  2  0  0  0  0
 34 33  1  0  0  0  0
 34 35  2  0  0  0  0
 35 36  1  0  0  0  0
 36 37  2  0  0  0  0
 36 30  1  0  0  0  0
 39 33  1  0  0  0  0
 40 34  1  0  0  0  0
 41 40  1  0  0  0  0
 41 46  1  0  0  0  0
 42 41  2  0  0  0  0
 43 44  2  0  0  0  0
 43 42  1  0  0  0  0
 44 45  1  0  0  0  0
 45 50  1  0  0  0  0
 45 40  2  0  0  0  0
 47 42  1  0  0  0  0
 48 43  1  0  0  0  0
 49 44  1  0  0  0  0
M  END
>  <minimizedAffinity>
-7.05463791

>  <minimizedRMSD>
1.25963783

$$$$
