
 OpenBabel03252505073D

 46 50  0  0  1  0  0  0  0  0999 V2000
   44.5760   35.5700   44.5710 C   0  0  0  0  0  0  0  0  0  0  0  0
   45.2440   35.5840   43.3250 C   0  0  0  0  0  0  0  0  0  0  0  0
   46.3300   34.6860   43.1460 C   0  0  0  0  0  0  0  0  0  0  0  0
   46.6640   33.8670   44.1790 N   0  0  0  0  0  0  0  0  0  0  0  0
   46.0050   33.8820   45.3480 C   0  0  0  0  0  0  0  0  0  0  0  0
   44.9540   34.7380   45.5500 N   0  0  0  0  0  0  0  0  0  0  0  0
   43.7630   36.2700   44.6500 H   0  0  0  0  0  0  0  0  0  0  0  0
   44.9900   36.2250   42.5050 H   0  0  0  0  0  0  0  0  0  0  0  0
   46.4230   32.9720   46.4360 C   0  0  2  0  0  0  0  0  0  0  0  0
   46.9730   31.7470   45.7580 C   0  0  0  0  0  0  0  0  0  0  0  0
   46.0850   30.5640   45.7900 C   0  0  0  0  0  0  0  0  0  0  0  0
   45.8000   30.3070   47.2630 C   0  0  0  0  0  0  0  0  0  0  0  0
   45.0170   31.3820   47.8580 C   0  0  0  0  0  0  0  0  0  0  0  0
   45.3720   32.7500   47.4020 C   0  0  0  0  0  0  0  0  0  0  0  0
   47.2760   33.5090   46.9440 H   0  0  0  0  0  0  0  0  0  0  0  0
   47.2670   31.9380   44.6970 H   0  0  0  0  0  0  0  0  0  0  0  0
   47.9200   31.4690   46.2640 H   0  0  0  0  0  0  0  0  0  0  0  0
   45.1050   30.7510   45.3250 H   0  0  0  0  0  0  0  0  0  0  0  0
   46.6460   29.7090   45.3730 H   0  0  0  0  0  0  0  0  0  0  0  0
   45.1200   29.4200   47.2540 H   0  0  0  0  0  0  0  0  0  0  0  0
   46.6990   29.9980   47.8220 H   0  0  0  0  0  0  0  0  0  0  0  0
   44.2260   31.4770   48.5590 H   0  0  0  0  0  0  0  0  0  0  0  0
   44.6850   33.8820   47.9040 N   0  0  0  0  0  0  0  0  0  0  0  0
   45.1140   34.5530   48.5830 H   0  0  0  0  0  0  0  0  0  0  0  0
   43.7030   34.0150   47.5540 H   0  0  0  0  0  0  0  0  0  0  0  0
   47.0470   34.6750   41.8840 C   0  0  0  0  0  0  0  0  0  0  0  0
   48.1490   35.4520   41.7560 C   0  0  0  0  0  0  0  0  0  0  0  0
   48.8010   35.3890   40.5050 C   0  0  0  0  0  0  0  0  0  0  0  0
   48.2440   34.5530   39.5640 C   0  0  0  0  0  0  0  0  0  0  0  0
   47.1370   33.7730   39.6850 C   0  0  0  0  0  0  0  0  0  0  0  0
   46.5990   33.9110   40.9200 N   0  0  0  0  0  0  0  0  0  0  0  0
   48.5160   36.0760   42.5400 H   0  0  0  0  0  0  0  0  0  0  0  0
   49.6680   35.9830   40.3650 H   0  0  0  0  0  0  0  0  0  0  0  0
   48.8180   34.5720   38.6320 H   0  0  0  0  0  0  0  0  0  0  0  0
   46.7450   32.9740   38.5480 C   0  0  0  0  0  0  0  0  0  0  0  0
   45.9410   33.5080   37.6160 N   0  0  0  0  0  0  0  0  0  0  0  0
   45.5240   32.8460   36.5310 C   0  0  0  0  0  3  0  0  0  0  0  0
   45.8930   31.5610   36.2900 N   0  0  0  0  0  0  0  0  0  0  0  0
   46.7130   30.9370   37.1880 C   0  0  0  0  0  0  0  0  0  0  0  0
   47.1210   29.6350   36.9980 C   0  0  0  0  0  3  0  0  0  0  0  0
   47.9480   28.9950   37.8960 C   0  0  0  0  0  0  0  0  0  0  0  0
   48.1990   27.9750   37.6390 H   0  0  0  0  0  0  0  0  0  0  0  0
   48.3520   29.7330   39.0140 C   0  0  0  0  0  0  0  0  0  0  0  0
   48.9990   29.1970   39.6950 H   0  0  0  0  0  0  0  0  0  0  0  0
   47.9190   31.0300   39.1600 C   0  0  0  0  0  3  0  0  0  0  0  0
   47.1000   31.6770   38.2780 C   0  0  0  0  0  0  0  0  0  0  0  0
  1  7  1  0  0  0  0
  1  6  1  0  0  0  0
  2  1  2  0  0  0  0
  3  2  1  0  0  0  0
  3  4  2  0  0  0  0
  4  5  1  0  0  0  0
  5  6  2  0  0  0  0
  5  9  1  0  0  0  0
  8  2  1  0  0  0  0
  9 15  1  1  0  0  0
  9 14  1  0  0  0  0
 10 11  1  0  0  0  0
 10 17  1  0  0  0  0
 10  9  1  0  0  0  0
 11 12  1  0  0  0  0
 12 21  1  0  0  0  0
 12 13  1  0  0  0  0
 13 22  1  0  0  0  0
 14 13  2  0  0  0  0
 14 23  1  0  0  0  0
 16 10  1  0  0  0  0
 18 11  1  0  0  0  0
 19 11  1  0  0  0  0
 20 12  1  0  0  0  0
 23 24  1  0  0  0  0
 25 23  1  0  0  0  0
 26  3  1  0  0  0  0
 27 26  1  0  0  0  0
 27 32  1  0  0  0  0
 28 27  2  0  0  0  0
 29 30  2  0  0  0  0
 29 28  1  0  0  0  0
 30 31  1  0  0  0  0
 31 26  2  0  0  0  0
 33 28  1  0  0  0  0
 34 29  1  0  0  0  0
 35 30  1  0  0  0  0
 36 35  2  0  0  0  0
 37 36  1  0  0  0  0
 38 37  2  0  0  0  0
 38 39  1  0  0  0  0
 39 46  1  0  0  0  0
 40 39  2  0  0  0  0
 40 41  1  0  0  0  0
 41 43  2  0  0  0  0
 42 41  1  0  0  0  0
 43 45  1  0  0  0  0
 43 44  1  0  0  0  0
 46 35  1  0  0  0  0
 46 45  2  0  0  0  0
M  END
>  <minimizedAffinity>
-7.44197655

>  <minimizedRMSD>
0.344851643

$$$$
