
 OpenBabel03252509243D

 30 33  0  0  1  0  0  0  0  0999 V2000
   45.5340   34.3790   42.0430 C   0  0  1  0  0  0  0  0  0  0  0  0
   46.8490   34.9180   41.4220 C   0  0  0  0  0  0  0  0  0  0  0  0
   46.1870   33.5370   41.1100 C   0  0  2  0  0  0  0  0  0  0  0  0
   44.6550   35.0050   41.8100 H   0  0  0  0  0  0  0  0  0  0  0  0
   47.7650   34.9030   42.0040 H   0  0  0  0  0  0  0  0  0  0  0  0
   46.7140   35.6990   40.6780 H   0  0  0  0  0  0  0  0  0  0  0  0
   46.7930   32.6720   41.5080 H   0  0  0  0  0  0  0  0  0  0  0  0
   45.8450   33.3750   39.6960 C   0  0  0  0  0  0  0  0  0  0  0  0
   44.5380   33.4500   39.3450 N   0  0  0  0  0  0  0  0  0  0  0  0
   44.2080   33.3000   38.0450 C   0  0  0  0  0  3  0  0  0  0  0  0
   45.1030   33.0760   37.0500 N   0  0  0  0  0  0  0  0  0  0  0  0
   46.4210   32.9940   37.3600 C   0  0  0  0  0  0  0  0  0  0  0  0
   47.4110   32.7700   36.4250 C   0  0  0  0  0  3  0  0  0  0  0  0
   48.7440   32.6910   36.7660 C   0  0  0  0  0  0  0  0  0  0  0  0
   49.5230   32.5160   36.0390 H   0  0  0  0  0  0  0  0  0  0  0  0
   49.0960   32.8440   38.0980 C   0  0  0  0  0  0  0  0  0  0  0  0
   50.1380   32.7820   38.3640 H   0  0  0  0  0  0  0  0  0  0  0  0
   48.0900   33.0660   39.0060 C   0  0  0  0  0  3  0  0  0  0  0  0
   46.7520   33.1470   38.6840 C   0  0  0  0  0  0  0  0  0  0  0  0
   45.1070   34.4310   45.7800 C   0  0  0  0  0  0  0  0  0  0  0  0
   44.9090   34.7740   44.4170 C   0  0  0  0  0  0  0  0  0  0  0  0
   45.7270   34.1280   43.5220 C   0  0  0  0  0  0  0  0  0  0  0  0
   46.6740   33.2090   43.9540 N   0  0  0  0  0  0  0  0  0  0  0  0
   46.8220   32.9180   45.2530 C   0  0  0  0  0  0  0  0  0  0  0  0
   46.0290   33.5380   46.1680 N   0  0  0  0  0  0  0  0  0  0  0  0
   44.4720   34.9270   46.5090 H   0  0  0  0  0  0  0  0  0  0  0  0
   47.5820   32.1980   45.4510 H   0  0  0  0  0  0  0  0  0  0  0  0
   43.9510   35.7420   43.9810 N   0  0  0  0  0  0  0  0  0  0  0  0
   44.5910   36.5740   43.9640 H   0  0  0  0  0  0  0  0  0  0  0  0
   42.9410   35.5810   43.7680 H   0  0  0  0  0  0  0  0  0  0  0  0
  1  4  1  6  0  0  0
  1 22  1  0  0  0  0
  2  5  1  0  0  0  0
  2  1  1  0  0  0  0
  3  2  1  0  0  0  0
  3  7  1  1  0  0  0
  3  1  1  0  0  0  0
  6  2  1  0  0  0  0
  8  3  1  0  0  0  0
  9  8  1  0  0  0  0
 10  9  2  0  0  0  0
 11 12  2  0  0  0  0
 11 10  1  0  0  0  0
 12 19  1  0  0  0  0
 13 14  2  0  0  0  0
 13 12  1  0  0  0  0
 14 16  1  0  0  0  0
 15 14  1  0  0  0  0
 16 17  1  0  0  0  0
 16 18  2  0  0  0  0
 19 18  1  0  0  0  0
 19  8  2  0  0  0  0
 20 25  1  0  0  0  0
 20 26  1  0  0  0  0
 21 20  2  0  0  0  0
 22 23  2  0  0  0  0
 22 21  1  0  0  0  0
 23 24  1  0  0  0  0
 24 27  1  0  0  0  0
 24 25  2  0  0  0  0
 28 21  1  0  0  0  0
 29 28  1  0  0  0  0
 30 28  1  0  0  0  0
M  END
>  <minimizedAffinity>
-4.9868536

>  <minimizedRMSD>
2.26200557

$$$$
