
 OpenBabel03252506103D

 33 36  0  0  0  0  0  0  0  0999 V2000
   45.4410   33.0290   41.1770 F   0  0  0  0  0  0  0  0  0  0  0  0
   46.5170   33.7900   40.9500 C   0  0  0  0  0  0  0  0  0  0  0  0
   46.9810   34.6320   41.9390 C   0  0  0  0  0  0  0  0  0  0  0  0
   48.0860   35.4540   41.7880 C   0  0  0  0  0  0  0  0  0  0  0  0
   48.7760   35.4400   40.5770 C   0  0  0  0  0  0  0  0  0  0  0  0
   48.2820   34.5820   39.6080 C   0  0  0  0  0  0  0  0  0  0  0  0
   47.1890   33.7630   39.7420 C   0  0  0  0  0  0  0  0  0  0  0  0
   48.3950   36.0910   42.6060 H   0  0  0  0  0  0  0  0  0  0  0  0
   49.6450   36.0670   40.4230 H   0  0  0  0  0  0  0  0  0  0  0  0
   48.8670   34.6120   38.6840 H   0  0  0  0  0  0  0  0  0  0  0  0
   46.7440   32.8810   38.6620 C   0  0  0  0  0  0  0  0  0  0  0  0
   45.7460   33.4080   37.8990 N   0  0  0  0  0  0  0  0  0  0  0  0
   45.2420   32.6920   36.8610 C   0  0  0  0  0  3  0  0  0  0  0  0
   45.7320   31.4510   36.5830 N   0  0  0  0  0  0  0  0  0  0  0  0
   46.7150   30.9030   37.3130 C   0  0  0  0  0  0  0  0  0  0  0  0
   47.2380   29.6500   37.0560 C   0  0  0  0  0  3  0  0  0  0  0  0
   48.2560   29.1180   37.8290 C   0  0  0  0  0  0  0  0  0  0  0  0
   48.6990   28.1610   37.6820 H   0  0  0  0  0  0  0  0  0  0  0  0
   48.7250   29.8970   38.8710 C   0  0  0  0  0  0  0  0  0  0  0  0
   49.5300   29.5040   39.5030 H   0  0  0  0  0  0  0  0  0  0  0  0
   48.2500   31.1680   39.1940 C   0  0  0  0  0  3  0  0  0  0  0  0
   47.2420   31.6080   38.3700 C   0  0  0  0  0  0  0  0  0  0  0  0
   46.0950   33.9740   45.4620 C   0  0  0  0  0  0  0  0  0  0  0  0
   44.9620   34.7910   45.6250 C   0  0  0  0  0  0  0  0  0  0  0  0
   44.5050   35.5670   44.5280 C   0  0  0  0  0  0  0  0  0  0  0  0
   45.2120   35.4600   43.3660 N   0  0  0  0  0  0  0  0  0  0  0  0
   46.2810   34.6810   43.2370 C   0  0  0  0  0  0  0  0  0  0  0  0
   46.7120   33.9490   44.2750 N   0  0  0  0  0  0  0  0  0  0  0  0
   44.4470   34.8260   46.5760 H   0  0  0  0  0  0  0  0  0  0  0  0
   43.6480   36.1980   44.6210 H   0  0  0  0  0  0  0  0  0  0  0  0
   46.5480   33.2060   46.5490 N   0  0  0  0  0  0  0  0  0  0  0  0
   47.5320   32.9910   46.8380 H   0  0  0  0  0  0  0  0  0  0  0  0
   45.9950   32.7030   47.2780 H   0  0  0  0  0  0  0  0  0  0  0  0
  2  1  1  0  0  0  0
  2  3  1  0  0  0  0
  3 27  1  0  0  0  0
  4  3  2  0  0  0  0
  4  8  1  0  0  0  0
  5  4  1  0  0  0  0
  6  7  1  0  0  0  0
  6  5  2  0  0  0  0
  7  2  2  0  0  0  0
  9  5  1  0  0  0  0
 10  6  1  0  0  0  0
 11  7  1  0  0  0  0
 12 11  2  0  0  0  0
 13 12  1  0  0  0  0
 14 13  2  0  0  0  0
 14 15  1  0  0  0  0
 15 22  1  0  0  0  0
 16 15  2  0  0  0  0
 16 17  1  0  0  0  0
 17 19  2  0  0  0  0
 18 17  1  0  0  0  0
 19 21  1  0  0  0  0
 19 20  1  0  0  0  0
 22 11  1  0  0  0  0
 22 21  2  0  0  0  0
 23 24  1  0  0  0  0
 23 31  1  0  0  0  0
 24 29  1  0  0  0  0
 25 30  1  0  0  0  0
 25 24  2  0  0  0  0
 26 25  1  0  0  0  0
 27 26  2  0  0  0  0
 27 28  1  0  0  0  0
 28 23  2  0  0  0  0
 31 32  1  0  0  0  0
 31 33  1  0  0  0  0
M  END
>  <minimizedAffinity>
-5.87728119

>  <minimizedRMSD>
2.7027545

$$$$
