
 OpenBabel03242518073D

 38 41  0  0  1  0  0  0  0  0999 V2000
   46.5340   34.8550   42.1380 N   0  0  0  0  0  0  0  0  0  0  0  0
   47.7650   35.5610   41.9340 C   0  0  0  0  0  0  0  0  0  0  0  0
   48.7490   34.7240   41.2340 C   0  0  0  0  0  0  0  0  0  0  0  0
   48.2420   33.5770   40.4670 C   0  0  0  0  0  0  0  0  0  0  0  0
   46.8200   33.5660   40.0790 C   0  0  0  0  0  0  0  0  0  0  0  0
   45.8560   34.2970   40.9770 C   0  0  1  0  0  0  0  0  0  0  0  0
   47.5080   36.4290   41.2590 H   0  0  0  0  0  0  0  0  0  0  0  0
   48.1380   36.0490   42.8560 H   0  0  0  0  0  0  0  0  0  0  0  0
   49.3600   35.3590   40.5440 H   0  0  0  0  0  0  0  0  0  0  0  0
   49.5080   34.3920   42.0040 H   0  0  0  0  0  0  0  0  0  0  0  0
   48.4140   32.6470   41.0870 H   0  0  0  0  0  0  0  0  0  0  0  0
   48.8540   33.3890   39.5580 H   0  0  0  0  0  0  0  0  0  0  0  0
   46.4420   32.5140   39.9920 H   0  0  0  0  0  0  0  0  0  0  0  0
   46.7360   33.9460   39.0200 H   0  0  0  0  0  0  0  0  0  0  0  0
   45.5210   35.2100   40.4400 H   0  0  0  0  0  0  0  0  0  0  0  0
   44.6930   33.4630   41.3480 C   0  0  0  0  0  0  0  0  0  0  0  0
   44.7700   32.2870   41.9970 N   0  0  0  0  0  0  0  0  0  0  0  0
   43.6830   31.5730   42.3170 C   0  0  0  0  0  0  0  0  0  0  0  0
   42.4180   31.9430   42.0320 N   0  0  0  0  0  0  0  0  0  0  0  0
   42.2780   33.1200   41.3780 C   0  0  0  0  0  0  0  0  0  0  0  0
   40.9940   33.5140   41.0730 C   0  0  0  0  0  0  0  0  0  0  0  0
   40.7760   34.6830   40.4140 C   0  0  0  0  0  0  0  0  0  0  0  0
   39.7540   34.9520   40.1980 H   0  0  0  0  0  0  0  0  0  0  0  0
   41.8580   35.4520   40.0630 C   0  0  0  0  0  0  0  0  0  0  0  0
   41.6510   36.3730   39.5400 H   0  0  0  0  0  0  0  0  0  0  0  0
   43.1220   35.0200   40.3860 C   0  0  0  0  0  0  0  0  0  0  0  0
   43.4010   33.8440   41.0540 C   0  0  0  0  0  0  0  0  0  0  0  0
   45.0580   35.6900   43.8650 C   0  0  0  0  0  0  0  0  0  0  0  0
   45.9980   34.7140   43.4290 C   0  0  0  0  0  0  0  0  0  0  0  0
   46.3300   33.6790   44.3070 C   0  0  0  0  0  0  0  0  0  0  0  0
   45.7200   33.6900   45.5220 N   0  0  0  0  0  0  0  0  0  0  0  0
   44.8410   34.6140   45.9110 C   0  0  0  0  0  0  0  0  0  0  0  0
   44.5030   35.6220   45.0860 N   0  0  0  0  0  0  0  0  0  0  0  0
   44.6980   36.7580   42.9900 N   0  0  0  0  0  0  0  0  0  0  0  0
   47.0440   32.9350   43.9810 H   0  0  0  0  0  0  0  0  0  0  0  0
   44.3780   34.5830   46.8940 H   0  0  0  0  0  0  0  0  0  0  0  0
   45.3300   37.1790   42.2730 H   0  0  0  0  0  0  0  0  0  0  0  0
   43.7460   37.1820   43.0320 H   0  0  0  0  0  0  0  0  0  0  0  0
  1 29  1  0  0  0  0
  2  1  1  0  0  0  0
  2  8  1  0  0  0  0
  3  2  1  0  0  0  0
  3 10  1  0  0  0  0
  4 11  1  0  0  0  0
  4  3  1  0  0  0  0
  5  4  1  0  0  0  0
  5  6  1  0  0  0  0
  6 15  1  6  0  0  0
  6 16  1  0  0  0  0
  6  1  1  0  0  0  0
  7  2  1  0  0  0  0
  9  3  1  0  0  0  0
 12  4  1  0  0  0  0
 13  5  1  0  0  0  0
 14  5  1  0  0  0  0
 16 17  1  0  0  0  0
 17 18  2  0  0  0  0
 19 18  1  0  0  0  0
 20 19  2  0  0  0  0
 21 20  1  0  0  0  0
 22 21  2  0  0  0  0
 23 22  1  0  0  0  0
 24 26  2  0  0  0  0
 24 22  1  0  0  0  0
 25 24  1  0  0  0  0
 26 27  1  0  0  0  0
 27 16  2  0  0  0  0
 27 20  1  0  0  0  0
 28 33  1  0  0  0  0
 29 28  2  0  0  0  0
 29 30  1  0  0  0  0
 30 31  2  0  0  0  0
 31 32  1  0  0  0  0
 32 36  1  0  0  0  0
 33 32  2  0  0  0  0
 34 38  1  0  0  0  0
 34 28  1  0  0  0  0
 35 30  1  0  0  0  0
 37 34  1  0  0  0  0
M  END
>  <minimizedAffinity>
-6.33794594

>  <minimizedRMSD>
0.55321461

$$$$
