
 OpenBabel03242522153D

 35 38  0  0  0  0  0  0  0  0999 V2000
   35.0410   28.4340   38.6420 C   0  0  0  0  0  0  0  0  0  0  0  0
   35.8480   28.9970   38.0970 H   0  0  0  0  0  0  0  0  0  0  0  0
   35.3470   27.3880   38.7960 H   0  0  0  0  0  0  0  0  0  0  0  0
   31.9200   29.1580   36.8070 C   0  0  0  0  0  0  0  0  0  0  0  0
   32.0040   28.2000   35.8590 C   0  0  0  0  0  0  0  0  0  0  0  0
   33.6000   27.3590   36.2980 S   0  0  0  0  0  0  0  0  0  0  0  0
   33.8440   28.5220   37.7360 C   0  0  0  0  0  0  0  0  0  0  0  0
   32.9120   29.1650   37.6410 N   0  0  0  0  0  0  0  0  0  0  0  0
   31.2580   27.9960   35.0210 H   0  0  0  0  0  0  0  0  0  0  0  0
   29.0970   31.3080   38.1070 C   0  0  0  0  0  0  0  0  0  0  0  0
   30.1640   30.3820   38.0930 C   0  0  0  0  0  0  0  0  0  0  0  0
   30.7960   30.1170   36.8850 C   0  0  0  0  0  0  0  0  0  0  0  0
   30.3260   30.7870   35.7790 N   0  0  0  0  0  0  0  0  0  0  0  0
   29.3180   31.6530   35.8270 C   0  0  0  0  0  0  0  0  0  0  0  0
   28.6990   31.9180   36.9830 N   0  0  0  0  0  0  0  0  0  0  0  0
   28.5750   31.5460   39.0240 H   0  0  0  0  0  0  0  0  0  0  0  0
   28.9650   32.1680   34.9410 H   0  0  0  0  0  0  0  0  0  0  0  0
   30.5000   29.7930   39.3400 N   0  0  0  0  0  0  0  0  0  0  0  0
   29.9500   29.2470   40.0300 H   0  0  0  0  0  0  0  0  0  0  0  0
   31.4930   29.9200   39.6520 H   0  0  0  0  0  0  0  0  0  0  0  0
   34.7940   29.2120   39.9120 C   0  0  0  0  0  0  0  0  0  0  0  0
   34.2910   28.5360   40.6330 H   0  0  0  0  0  0  0  0  0  0  0  0
   34.0870   30.0500   39.7550 H   0  0  0  0  0  0  0  0  0  0  0  0
   36.0200   29.7710   40.5180 C   0  0  0  0  0  0  0  0  0  0  0  0
   36.4820   30.9710   40.0640 N   0  0  0  0  0  0  0  0  0  0  0  0
   37.6000   31.5240   40.6100 C   0  0  0  0  0  3  0  0  0  0  0  0
   38.2650   30.8980   41.6030 N   0  0  0  0  0  0  0  0  0  0  0  0
   37.8800   29.7190   42.1060 C   0  0  0  0  0  0  0  0  0  0  0  0
   38.5330   29.0400   43.1170 C   0  0  0  0  0  3  0  0  0  0  0  0
   38.0840   27.8220   43.5840 C   0  0  0  0  0  0  0  0  0  0  0  0
   38.5840   27.2800   44.3750 H   0  0  0  0  0  0  0  0  0  0  0  0
   36.9520   27.2600   43.0320 C   0  0  0  0  0  0  0  0  0  0  0  0
   36.5910   26.3050   43.3920 H   0  0  0  0  0  0  0  0  0  0  0  0
   36.3160   27.9560   42.0230 C   0  0  0  0  0  3  0  0  0  0  0  0
   36.7320   29.1720   41.5290 C   0  0  0  0  0  0  0  0  0  0  0  0
  1  3  1  0  0  0  0
  1 21  1  0  0  0  0
  2  1  1  0  0  0  0
  4 12  1  0  0  0  0
  4  8  1  0  0  0  0
  5  6  1  0  0  0  0
  5  4  2  0  0  0  0
  6  7  1  0  0  0  0
  7  1  1  0  0  0  0
  8  7  2  0  0  0  0
  9  5  1  0  0  0  0
 10 16  1  0  0  0  0
 11 10  1  0  0  0  0
 11 18  1  0  0  0  0
 12 11  2  0  0  0  0
 13 14  2  0  0  0  0
 13 12  1  0  0  0  0
 14 15  1  0  0  0  0
 15 10  2  0  0  0  0
 17 14  1  0  0  0  0
 18 20  1  0  0  0  0
 18 19  1  0  0  0  0
 21 24  1  0  0  0  0
 21 22  1  0  0  0  0
 23 21  1  0  0  0  0
 24 35  1  0  0  0  0
 25 24  2  0  0  0  0
 25 26  1  0  0  0  0
 26 27  2  0  0  0  0
 27 28  1  0  0  0  0
 28 29  1  0  0  0  0
 29 30  2  0  0  0  0
 30 31  1  0  0  0  0
 32 33  1  0  0  0  0
 32 30  1  0  0  0  0
 34 32  2  0  0  0  0
 35 34  1  0  0  0  0
 35 28  2  0  0  0  0
M  END
>  <minimizedAffinity>
-6.21126842

$$$$

 OpenBabel03242522153D

 35 38  0  0  0  0  0  0  0  0999 V2000
   37.6830   29.2470   43.1070 C   0  0  0  0  0  0  0  0  0  0  0  0
   36.9750   29.8140   43.7720 H   0  0  0  0  0  0  0  0  0  0  0  0
   38.7000   29.2710   43.5280 H   0  0  0  0  0  0  0  0  0  0  0  0
   38.1650   31.1950   40.0090 C   0  0  0  0  0  0  0  0  0  0  0  0
   36.9440   31.0240   39.4580 C   0  0  0  0  0  0  0  0  0  0  0  0
   36.0920   29.9680   40.7240 S   0  0  0  0  0  0  0  0  0  0  0  0
   37.6240   29.9700   41.7900 C   0  0  0  0  0  0  0  0  0  0  0  0
   38.3170   30.6050   41.1530 N   0  0  0  0  0  0  0  0  0  0  0  0
   36.5750   31.4420   38.4630 H   0  0  0  0  0  0  0  0  0  0  0  0
   40.7220   33.8770   39.2670 C   0  0  0  0  0  0  0  0  0  0  0  0
   39.6960   33.1660   39.9290 C   0  0  0  0  0  0  0  0  0  0  0  0
   39.2370   31.9840   39.3620 C   0  0  0  0  0  0  0  0  0  0  0  0
   39.8240   31.5930   38.1810 N   0  0  0  0  0  0  0  0  0  0  0  0
   40.7880   32.2870   37.5840 C   0  0  0  0  0  0  0  0  0  0  0  0
   41.2420   33.4270   38.1170 N   0  0  0  0  0  0  0  0  0  0  0  0
   41.1130   34.8020   39.6710 H   0  0  0  0  0  0  0  0  0  0  0  0
   41.2360   31.9580   36.6520 H   0  0  0  0  0  0  0  0  0  0  0  0
   39.2180   33.7360   41.1380 N   0  0  0  0  0  0  0  0  0  0  0  0
   38.8110   34.6620   41.3650 H   0  0  0  0  0  0  0  0  0  0  0  0
   39.2770   33.1220   41.9850 H   0  0  0  0  0  0  0  0  0  0  0  0
   37.0880   27.8660   42.9720 C   0  0  0  0  0  0  0  0  0  0  0  0
   36.4750   27.8480   42.0480 H   0  0  0  0  0  0  0  0  0  0  0  0
   36.3840   27.6330   43.7950 H   0  0  0  0  0  0  0  0  0  0  0  0
   38.0940   26.7850   42.9280 C   0  0  0  0  0  0  0  0  0  0  0  0
   39.2260   26.9170   43.6750 N   0  0  0  0  0  0  0  0  0  0  0  0
   40.1680   25.9340   43.6720 C   0  0  0  0  0  3  0  0  0  0  0  0
   39.9980   24.8190   42.9320 N   0  0  0  0  0  0  0  0  0  0  0  0
   38.9180   24.6090   42.1700 C   0  0  0  0  0  0  0  0  0  0  0  0
   38.7050   23.4860   41.3940 C   0  0  0  0  0  3  0  0  0  0  0  0
   37.5680   23.3370   40.6260 C   0  0  0  0  0  0  0  0  0  0  0  0
   37.3880   22.4640   40.0130 H   0  0  0  0  0  0  0  0  0  0  0  0
   36.6140   24.3320   40.6270 C   0  0  0  0  0  0  0  0  0  0  0  0
   35.7180   24.2250   40.0290 H   0  0  0  0  0  0  0  0  0  0  0  0
   36.8480   25.4450   41.4110 C   0  0  0  0  0  3  0  0  0  0  0  0
   37.9670   25.6320   42.1900 C   0  0  0  0  0  0  0  0  0  0  0  0
  1  3  1  0  0  0  0
  1  2  1  0  0  0  0
  4  8  1  0  0  0  0
  5  4  2  0  0  0  0
  5  6  1  0  0  0  0
  6  7  1  0  0  0  0
  7  1  1  0  0  0  0
  8  7  2  0  0  0  0
  9  5  1  0  0  0  0
 10 16  1  0  0  0  0
 10 11  1  0  0  0  0
 11 18  1  0  0  0  0
 12 11  2  0  0  0  0
 12  4  1  0  0  0  0
 13 12  1  0  0  0  0
 14 15  1  0  0  0  0
 14 13  2  0  0  0  0
 15 10  2  0  0  0  0
 17 14  1  0  0  0  0
 18 19  1  0  0  0  0
 18 20  1  0  0  0  0
 21  1  1  0  0  0  0
 21 23  1  0  0  0  0
 22 21  1  0  0  0  0
 24 21  1  0  0  0  0
 24 25  1  0  0  0  0
 26 25  2  0  0  0  0
 27 26  1  0  0  0  0
 28 35  1  0  0  0  0
 28 27  2  0  0  0  0
 29 28  1  0  0  0  0
 30 32  1  0  0  0  0
 30 29  2  0  0  0  0
 31 30  1  0  0  0  0
 32 34  2  0  0  0  0
 33 32  1  0  0  0  0
 34 35  1  0  0  0  0
 35 24  2  0  0  0  0
M  END
>  <minimizedAffinity>
-6.20654535

$$$$

 OpenBabel03242522153D

 35 38  0  0  0  0  0  0  0  0999 V2000
   36.1050   28.1280   39.3880 C   0  0  0  0  0  0  0  0  0  0  0  0
   36.8940   27.3270   39.3570 H   0  0  0  0  0  0  0  0  0  0  0  0
   35.1960   27.7840   38.8710 H   0  0  0  0  0  0  0  0  0  0  0  0
   37.8830   31.1490   38.2280 C   0  0  0  0  0  0  0  0  0  0  0  0
   37.5340   31.1130   36.9240 C   0  0  0  0  0  0  0  0  0  0  0  0
   36.4750   29.5910   36.8480 S   0  0  0  0  0  0  0  0  0  0  0  0
   36.7260   29.2960   38.6730 C   0  0  0  0  0  0  0  0  0  0  0  0
   37.3940   30.1770   38.9340 N   0  0  0  0  0  0  0  0  0  0  0  0
   37.8380   31.8530   36.1120 H   0  0  0  0  0  0  0  0  0  0  0  0
   39.1450   34.0480   40.2970 C   0  0  0  0  0  0  0  0  0  0  0  0
   38.2740   33.0610   39.7860 C   0  0  0  0  0  0  0  0  0  0  0  0
   38.7480   32.2030   38.8020 C   0  0  0  0  0  0  0  0  0  0  0  0
   40.0490   32.3850   38.3940 N   0  0  0  0  0  0  0  0  0  0  0  0
   40.8430   33.3260   38.8970 C   0  0  0  0  0  0  0  0  0  0  0  0
   40.4020   34.1600   39.8450 N   0  0  0  0  0  0  0  0  0  0  0  0
   38.8210   34.7390   41.0650 H   0  0  0  0  0  0  0  0  0  0  0  0
   41.8660   33.4500   38.5590 H   0  0  0  0  0  0  0  0  0  0  0  0
   36.9650   33.0350   40.3350 N   0  0  0  0  0  0  0  0  0  0  0  0
   36.2180   33.7520   40.4040 H   0  0  0  0  0  0  0  0  0  0  0  0
   36.6680   32.1260   40.7630 H   0  0  0  0  0  0  0  0  0  0  0  0
   35.9160   28.4510   40.8500 C   0  0  0  0  0  0  0  0  0  0  0  0
   35.0860   27.8220   41.2330 H   0  0  0  0  0  0  0  0  0  0  0  0
   35.5860   29.4970   41.0060 H   0  0  0  0  0  0  0  0  0  0  0  0
   37.1260   28.2380   41.6700 C   0  0  0  0  0  0  0  0  0  0  0  0
   37.7650   29.3270   42.1840 N   0  0  0  0  0  0  0  0  0  0  0  0
   38.8740   29.1690   42.9570 C   0  0  0  0  0  3  0  0  0  0  0  0
   39.3570   27.9380   43.2270 N   0  0  0  0  0  0  0  0  0  0  0  0
   38.7910   26.8170   42.7630 C   0  0  0  0  0  0  0  0  0  0  0  0
   39.2540   25.5380   43.0090 C   0  0  0  0  0  3  0  0  0  0  0  0
   38.6240   24.4250   42.4930 C   0  0  0  0  0  0  0  0  0  0  0  0
   38.9750   23.4180   42.6770 H   0  0  0  0  0  0  0  0  0  0  0  0
   37.5010   24.5830   41.7080 C   0  0  0  0  0  0  0  0  0  0  0  0
   37.0000   23.7160   41.3000 H   0  0  0  0  0  0  0  0  0  0  0  0
   37.0570   25.8700   41.4760 C   0  0  0  0  0  3  0  0  0  0  0  0
   37.6560   27.0060   41.9720 C   0  0  0  0  0  0  0  0  0  0  0  0
  1 21  1  0  0  0  0
  2  1  1  0  0  0  0
  3  1  1  0  0  0  0
  4 12  1  0  0  0  0
  4  8  1  0  0  0  0
  5  4  2  0  0  0  0
  6  5  1  0  0  0  0
  6  7  1  0  0  0  0
  7  8  2  0  0  0  0
  7  1  1  0  0  0  0
  9  5  1  0  0  0  0
 10 16  1  0  0  0  0
 11 10  2  0  0  0  0
 11 18  1  0  0  0  0
 12 11  1  0  0  0  0
 13 12  2  0  0  0  0
 13 14  1  0  0  0  0
 14 15  2  0  0  0  0
 15 10  1  0  0  0  0
 17 14  1  0  0  0  0
 18 19  1  0  0  0  0
 18 20  1  0  0  0  0
 21 23  1  0  0  0  0
 21 22  1  0  0  0  0
 21 24  1  0  0  0  0
 24 35  2  0  0  0  0
 24 25  1  0  0  0  0
 25 26  2  0  0  0  0
 26 27  1  0  0  0  0
 28 29  1  0  0  0  0
 28 27  2  0  0  0  0
 30 31  1  0  0  0  0
 30 29  2  0  0  0  0
 32 30  1  0  0  0  0
 33 32  1  0  0  0  0
 34 32  2  0  0  0  0
 34 35  1  0  0  0  0
 35 28  1  0  0  0  0
M  END
>  <minimizedAffinity>
-6.19381332

$$$$

 OpenBabel03242522153D

 35 38  0  0  0  0  0  0  0  0999 V2000
   37.4620   29.4590   38.9630 C   0  0  0  0  0  0  0  0  0  0  0  0
   38.2880   28.7300   39.1890 H   0  0  0  0  0  0  0  0  0  0  0  0
   37.1950   29.4100   37.8960 H   0  0  0  0  0  0  0  0  0  0  0  0
   39.4080   32.5500   39.4960 C   0  0  0  0  0  0  0  0  0  0  0  0
   38.5080   33.2450   40.2240 C   0  0  0  0  0  0  0  0  0  0  0  0
   37.0880   32.0540   40.3240 S   0  0  0  0  0  0  0  0  0  0  0  0
   38.0370   30.8020   39.3180 C   0  0  0  0  0  0  0  0  0  0  0  0
   39.0030   31.3710   39.1390 N   0  0  0  0  0  0  0  0  0  0  0  0
   38.6330   34.2960   40.6500 H   0  0  0  0  0  0  0  0  0  0  0  0
   42.4830   33.5540   37.5420 C   0  0  0  0  0  0  0  0  0  0  0  0
   41.2050   33.0240   37.8280 C   0  0  0  0  0  0  0  0  0  0  0  0
   40.7390   33.0880   39.1350 C   0  0  0  0  0  0  0  0  0  0  0  0
   41.5690   33.6710   40.0630 N   0  0  0  0  0  0  0  0  0  0  0  0
   42.7680   34.1610   39.7590 C   0  0  0  0  0  0  0  0  0  0  0  0
   43.2320   34.1070   38.5060 N   0  0  0  0  0  0  0  0  0  0  0  0
   42.8890   33.5270   36.5390 H   0  0  0  0  0  0  0  0  0  0  0  0
   43.4050   34.6160   40.5090 H   0  0  0  0  0  0  0  0  0  0  0  0
   40.5010   32.4610   36.7320 N   0  0  0  0  0  0  0  0  0  0  0  0
   40.7350   31.7070   36.0600 H   0  0  0  0  0  0  0  0  0  0  0  0
   39.5550   32.8690   36.5400 H   0  0  0  0  0  0  0  0  0  0  0  0
   36.3410   29.1030   39.9100 C   0  0  0  0  0  0  0  0  0  0  0  0
   35.5760   28.5410   39.3370 H   0  0  0  0  0  0  0  0  0  0  0  0
   35.8180   30.0020   40.2910 H   0  0  0  0  0  0  0  0  0  0  0  0
   36.7760   28.3120   41.0790 C   0  0  0  0  0  0  0  0  0  0  0  0
   37.1040   28.9710   42.2270 N   0  0  0  0  0  0  0  0  0  0  0  0
   37.4940   28.2740   43.3290 C   0  0  0  0  0  3  0  0  0  0  0  0
   37.5620   26.9270   43.3050 N   0  0  0  0  0  0  0  0  0  0  0  0
   37.2580   26.2020   42.2210 C   0  0  0  0  0  0  0  0  0  0  0  0
   37.3190   24.8240   42.1490 C   0  0  0  0  0  3  0  0  0  0  0  0
   36.9970   24.1400   40.9950 C   0  0  0  0  0  0  0  0  0  0  0  0
   37.0400   23.0620   40.9250 H   0  0  0  0  0  0  0  0  0  0  0  0
   36.6030   24.8450   39.8770 C   0  0  0  0  0  0  0  0  0  0  0  0
   36.3480   24.3180   38.9670 H   0  0  0  0  0  0  0  0  0  0  0  0
   36.5490   26.2220   39.9720 C   0  0  0  0  0  3  0  0  0  0  0  0
   36.8620   26.9410   41.1030 C   0  0  0  0  0  0  0  0  0  0  0  0
  1  2  1  0  0  0  0
  1  7  1  0  0  0  0
  1 21  1  0  0  0  0
  3  1  1  0  0  0  0
  4  5  2  0  0  0  0
  5  6  1  0  0  0  0
  5  9  1  0  0  0  0
  7  6  1  0  0  0  0
  8  7  2  0  0  0  0
  8  4  1  0  0  0  0
 10 11  2  0  0  0  0
 10 15  1  0  0  0  0
 11 12  1  0  0  0  0
 12  4  1  0  0  0  0
 12 13  2  0  0  0  0
 14 13  1  0  0  0  0
 14 17  1  0  0  0  0
 15 14  2  0  0  0  0
 16 10  1  0  0  0  0
 18 11  1  0  0  0  0
 19 18  1  0  0  0  0
 20 18  1  0  0  0  0
 21 23  1  0  0  0  0
 21 24  1  0  0  0  0
 22 21  1  0  0  0  0
 24 35  2  0  0  0  0
 24 25  1  0  0  0  0
 25 26  2  0  0  0  0
 27 26  1  0  0  0  0
 28 27  2  0  0  0  0
 29 28  1  0  0  0  0
 30 29  2  0  0  0  0
 31 30  1  0  0  0  0
 32 34  2  0  0  0  0
 32 30  1  0  0  0  0
 33 32  1  0  0  0  0
 34 35  1  0  0  0  0
 35 28  1  0  0  0  0
M  END
>  <minimizedAffinity>
-6.13950348

$$$$

 OpenBabel03242522153D

 35 38  0  0  0  0  0  0  0  0999 V2000
   37.3760   28.6990   39.1910 C   0  0  0  0  0  0  0  0  0  0  0  0
   38.3200   28.0990   39.0730 H   0  0  0  0  0  0  0  0  0  0  0  0
   36.8170   28.7170   38.2440 H   0  0  0  0  0  0  0  0  0  0  0  0
   39.0710   31.9330   39.7410 C   0  0  0  0  0  0  0  0  0  0  0  0
   38.1570   32.5180   40.5450 C   0  0  0  0  0  0  0  0  0  0  0  0
   36.8550   31.2010   40.6730 S   0  0  0  0  0  0  0  0  0  0  0  0
   37.8510   30.0760   39.5680 C   0  0  0  0  0  0  0  0  0  0  0  0
   38.7510   30.7360   39.3600 N   0  0  0  0  0  0  0  0  0  0  0  0
   38.2140   33.5600   41.0040 H   0  0  0  0  0  0  0  0  0  0  0  0
   41.8710   33.3790   37.6560 C   0  0  0  0  0  0  0  0  0  0  0  0
   40.6600   32.7320   37.9890 C   0  0  0  0  0  0  0  0  0  0  0  0
   40.3260   32.6000   39.3310 C   0  0  0  0  0  0  0  0  0  0  0  0
   41.2140   33.1170   40.2450 N   0  0  0  0  0  0  0  0  0  0  0  0
   42.3470   33.7210   39.8970 C   0  0  0  0  0  0  0  0  0  0  0  0
   42.6830   33.8560   38.6100 N   0  0  0  0  0  0  0  0  0  0  0  0
   42.1740   33.5060   36.6250 H   0  0  0  0  0  0  0  0  0  0  0  0
   43.0320   34.1200   40.6370 H   0  0  0  0  0  0  0  0  0  0  0  0
   39.8800   32.2650   36.8990 N   0  0  0  0  0  0  0  0  0  0  0  0
   40.0850   31.6180   36.1150 H   0  0  0  0  0  0  0  0  0  0  0  0
   38.8980   32.6290   36.8530 H   0  0  0  0  0  0  0  0  0  0  0  0
   36.6390   28.0660   40.3470 C   0  0  0  0  0  0  0  0  0  0  0  0
   35.5600   28.0410   40.0900 H   0  0  0  0  0  0  0  0  0  0  0  0
   36.7060   28.6790   41.2680 H   0  0  0  0  0  0  0  0  0  0  0  0
   37.1080   26.7060   40.6810 C   0  0  0  0  0  0  0  0  0  0  0  0
   36.6070   25.6530   39.9750 N   0  0  0  0  0  0  0  0  0  0  0  0
   37.0270   24.3870   40.2440 C   0  0  0  0  0  3  0  0  0  0  0  0
   37.9400   24.1530   41.2090 N   0  0  0  0  0  0  0  0  0  0  0  0
   38.4820   25.1280   41.9490 C   0  0  0  0  0  0  0  0  0  0  0  0
   39.4150   24.9350   42.9500 C   0  0  0  0  0  3  0  0  0  0  0  0
   39.9280   25.9880   43.6790 C   0  0  0  0  0  0  0  0  0  0  0  0
   40.6590   25.8520   44.4650 H   0  0  0  0  0  0  0  0  0  0  0  0
   39.5030   27.2710   43.4090 C   0  0  0  0  0  0  0  0  0  0  0  0
   39.8990   28.1040   43.9750 H   0  0  0  0  0  0  0  0  0  0  0  0
   38.5700   27.4400   42.4040 C   0  0  0  0  0  3  0  0  0  0  0  0
   38.0340   26.4180   41.6540 C   0  0  0  0  0  0  0  0  0  0  0  0
  1  7  1  0  0  0  0
  1 21  1  0  0  0  0
  2  1  1  0  0  0  0
  3  1  1  0  0  0  0
  4  5  2  0  0  0  0
  5  6  1  0  0  0  0
  5  9  1  0  0  0  0
  7  6  1  0  0  0  0
  8  7  2  0  0  0  0
  8  4  1  0  0  0  0
 10 11  2  0  0  0  0
 10 15  1  0  0  0  0
 11 12  1  0  0  0  0
 12  4  1  0  0  0  0
 12 13  2  0  0  0  0
 14 13  1  0  0  0  0
 14 17  1  0  0  0  0
 15 14  2  0  0  0  0
 16 10  1  0  0  0  0
 18 11  1  0  0  0  0
 19 18  1  0  0  0  0
 20 18  1  0  0  0  0
 21 24  1  0  0  0  0
 21 23  1  0  0  0  0
 22 21  1  0  0  0  0
 24 35  1  0  0  0  0
 25 26  1  0  0  0  0
 25 24  2  0  0  0  0
 26 27  2  0  0  0  0
 27 28  1  0  0  0  0
 28 29  1  0  0  0  0
 29 30  2  0  0  0  0
 30 31  1  0  0  0  0
 32 30  1  0  0  0  0
 32 33  1  0  0  0  0
 34 32  2  0  0  0  0
 35 28  2  0  0  0  0
 35 34  1  0  0  0  0
M  END
>  <minimizedAffinity>
-5.90699196

$$$$

 OpenBabel03242522153D

 35 38  0  0  0  0  0  0  0  0999 V2000
   36.2720   27.8620   40.0570 C   0  0  0  0  0  0  0  0  0  0  0  0
   36.7080   26.9210   39.6240 H   0  0  0  0  0  0  0  0  0  0  0  0
   35.1740   27.8370   39.9900 H   0  0  0  0  0  0  0  0  0  0  0  0
   37.9140   30.8050   38.5480 C   0  0  0  0  0  0  0  0  0  0  0  0
   37.5710   30.6020   37.2590 C   0  0  0  0  0  0  0  0  0  0  0  0
   36.5810   29.0350   37.3630 S   0  0  0  0  0  0  0  0  0  0  0  0
   36.8410   28.9660   39.2090 C   0  0  0  0  0  0  0  0  0  0  0  0
   37.4680   29.9010   39.3640 N   0  0  0  0  0  0  0  0  0  0  0  0
   37.8430   31.2550   36.3640 H   0  0  0  0  0  0  0  0  0  0  0  0
   39.0120   34.0270   40.1910 C   0  0  0  0  0  0  0  0  0  0  0  0
   38.1850   32.9510   39.7960 C   0  0  0  0  0  0  0  0  0  0  0  0
   38.7290   31.9570   38.9930 C   0  0  0  0  0  0  0  0  0  0  0  0
   40.0500   32.1010   38.6370 N   0  0  0  0  0  0  0  0  0  0  0  0
   40.8000   33.1270   39.0260 C   0  0  0  0  0  0  0  0  0  0  0  0
   40.2910   34.0920   39.8000 N   0  0  0  0  0  0  0  0  0  0  0  0
   38.6330   34.8240   40.8160 H   0  0  0  0  0  0  0  0  0  0  0  0
   41.8400   33.2190   38.7320 H   0  0  0  0  0  0  0  0  0  0  0  0
   36.8460   32.9840   40.2660 N   0  0  0  0  0  0  0  0  0  0  0  0
   36.0870   33.6850   40.1750 H   0  0  0  0  0  0  0  0  0  0  0  0
   36.5360   32.1490   40.8180 H   0  0  0  0  0  0  0  0  0  0  0  0
   36.8170   27.9490   41.4620 C   0  0  0  0  0  0  0  0  0  0  0  0
   35.9670   28.1610   42.1440 H   0  0  0  0  0  0  0  0  0  0  0  0
   37.5120   28.8020   41.5870 H   0  0  0  0  0  0  0  0  0  0  0  0
   37.5230   26.7300   41.9050 C   0  0  0  0  0  0  0  0  0  0  0  0
   36.9160   25.5230   41.7220 N   0  0  0  0  0  0  0  0  0  0  0  0
   37.5430   24.3760   42.1030 C   0  0  0  0  0  3  0  0  0  0  0  0
   38.7690   24.4150   42.6650 N   0  0  0  0  0  0  0  0  0  0  0  0
   39.4350   25.5560   42.8810 C   0  0  0  0  0  0  0  0  0  0  0  0
   40.6880   25.6430   43.4580 C   0  0  0  0  0  3  0  0  0  0  0  0
   41.3140   26.8550   43.6570 C   0  0  0  0  0  0  0  0  0  0  0  0
   42.2940   26.9390   44.1070 H   0  0  0  0  0  0  0  0  0  0  0  0
   40.6800   28.0180   43.2730 C   0  0  0  0  0  0  0  0  0  0  0  0
   41.1630   28.9740   43.4240 H   0  0  0  0  0  0  0  0  0  0  0  0
   39.4290   27.9070   42.6980 C   0  0  0  0  0  3  0  0  0  0  0  0
   38.7700   26.7170   42.4830 C   0  0  0  0  0  0  0  0  0  0  0  0
  1 21  1  0  0  0  0
  2  1  1  0  0  0  0
  3  1  1  0  0  0  0
  4 12  1  0  0  0  0
  4  8  1  0  0  0  0
  5  6  1  0  0  0  0
  5  4  2  0  0  0  0
  6  7  1  0  0  0  0
  7  8  2  0  0  0  0
  7  1  1  0  0  0  0
  9  5  1  0  0  0  0
 10 16  1  0  0  0  0
 11 10  2  0  0  0  0
 11 18  1  0  0  0  0
 12 11  1  0  0  0  0
 13 12  2  0  0  0  0
 13 14  1  0  0  0  0
 14 15  2  0  0  0  0
 15 10  1  0  0  0  0
 17 14  1  0  0  0  0
 18 20  1  0  0  0  0
 19 18  1  0  0  0  0
 21 23  1  0  0  0  0
 21 24  1  0  0  0  0
 21 22  1  0  0  0  0
 24 35  1  0  0  0  0
 25 24  2  0  0  0  0
 25 26  1  0  0  0  0
 26 27  2  0  0  0  0
 27 28  1  0  0  0  0
 28 29  1  0  0  0  0
 29 30  2  0  0  0  0
 30 31  1  0  0  0  0
 32 33  1  0  0  0  0
 32 30  1  0  0  0  0
 34 32  2  0  0  0  0
 35 34  1  0  0  0  0
 35 28  2  0  0  0  0
M  END
>  <minimizedAffinity>
-5.90295076

$$$$

 OpenBabel03242522153D

 35 38  0  0  0  0  0  0  0  0999 V2000
   39.0450   29.9320   42.5540 C   0  0  0  0  0  0  0  0  0  0  0  0
   38.9530   30.7560   43.3140 H   0  0  0  0  0  0  0  0  0  0  0  0
   40.1050   29.7270   42.3450 H   0  0  0  0  0  0  0  0  0  0  0  0
   37.0920   30.6190   39.4970 C   0  0  0  0  0  0  0  0  0  0  0  0
   37.3860   31.9280   39.3470 C   0  0  0  0  0  0  0  0  0  0  0  0
   38.5050   32.2430   40.7940 S   0  0  0  0  0  0  0  0  0  0  0  0
   38.3440   30.4640   41.3340 C   0  0  0  0  0  0  0  0  0  0  0  0
   37.6510   30.0660   40.5280 N   0  0  0  0  0  0  0  0  0  0  0  0
   37.0160   32.6250   38.5230 H   0  0  0  0  0  0  0  0  0  0  0  0
   34.2340   28.5880   38.0870 C   0  0  0  0  0  0  0  0  0  0  0  0
   35.0400   29.2790   39.0190 C   0  0  0  0  0  0  0  0  0  0  0  0
   36.2070   29.8810   38.5680 C   0  0  0  0  0  0  0  0  0  0  0  0
   36.4930   29.7550   37.2290 N   0  0  0  0  0  0  0  0  0  0  0  0
   35.7120   29.0970   36.3770 C   0  0  0  0  0  0  0  0  0  0  0  0
   34.5840   28.5120   36.7960 N   0  0  0  0  0  0  0  0  0  0  0  0
   33.3160   28.1030   38.3910 H   0  0  0  0  0  0  0  0  0  0  0  0
   35.9590   29.0120   35.3250 H   0  0  0  0  0  0  0  0  0  0  0  0
   34.5740   29.2930   40.3600 N   0  0  0  0  0  0  0  0  0  0  0  0
   34.3350   28.5370   41.0290 H   0  0  0  0  0  0  0  0  0  0  0  0
   34.4350   30.2420   40.7830 H   0  0  0  0  0  0  0  0  0  0  0  0
   38.2780   28.7670   43.1300 C   0  0  0  0  0  0  0  0  0  0  0  0
   37.3300   28.6690   42.5630 H   0  0  0  0  0  0  0  0  0  0  0  0
   37.9730   28.9470   44.1800 H   0  0  0  0  0  0  0  0  0  0  0  0
   39.0180   27.4890   43.0950 C   0  0  0  0  0  0  0  0  0  0  0  0
   40.2490   27.4320   43.6780 N   0  0  0  0  0  0  0  0  0  0  0  0
   40.9530   26.2680   43.6780 C   0  0  0  0  0  3  0  0  0  0  0  0
   40.4490   25.1560   43.1050 N   0  0  0  0  0  0  0  0  0  0  0  0
   39.2490   25.1240   42.5110 C   0  0  0  0  0  0  0  0  0  0  0  0
   38.6960   24.0110   41.9070 C   0  0  0  0  0  3  0  0  0  0  0  0
   37.4550   24.0510   41.3070 C   0  0  0  0  0  0  0  0  0  0  0  0
   37.0090   23.1880   40.8310 H   0  0  0  0  0  0  0  0  0  0  0  0
   36.7400   25.2300   41.3040 C   0  0  0  0  0  0  0  0  0  0  0  0
   35.7650   25.2710   40.8370 H   0  0  0  0  0  0  0  0  0  0  0  0
   37.3120   26.3290   41.9140 C   0  0  0  0  0  3  0  0  0  0  0  0
   38.5470   26.3310   42.5230 C   0  0  0  0  0  0  0  0  0  0  0  0
  1 21  1  0  0  0  0
  1  2  1  0  0  0  0
  3  1  1  0  0  0  0
  4  8  1  0  0  0  0
  5  4  2  0  0  0  0
  5  6  1  0  0  0  0
  6  7  1  0  0  0  0
  7  1  1  0  0  0  0
  8  7  2  0  0  0  0
  9  5  1  0  0  0  0
 10 16  1  0  0  0  0
 10 11  1  0  0  0  0
 11 18  1  0  0  0  0
 12 11  2  0  0  0  0
 12  4  1  0  0  0  0
 13 12  1  0  0  0  0
 14 15  1  0  0  0  0
 14 13  2  0  0  0  0
 15 10  2  0  0  0  0
 17 14  1  0  0  0  0
 18 20  1  0  0  0  0
 18 19  1  0  0  0  0
 21 23  1  0  0  0  0
 22 21  1  0  0  0  0
 24 21  1  0  0  0  0
 24 25  1  0  0  0  0
 26 25  2  0  0  0  0
 27 26  1  0  0  0  0
 28 35  1  0  0  0  0
 28 27  2  0  0  0  0
 29 28  1  0  0  0  0
 30 29  2  0  0  0  0
 31 30  1  0  0  0  0
 32 30  1  0  0  0  0
 32 34  2  0  0  0  0
 33 32  1  0  0  0  0
 34 35  1  0  0  0  0
 35 24  2  0  0  0  0
M  END
>  <minimizedAffinity>
-5.84823465

$$$$

 OpenBabel03242522153D

 35 38  0  0  0  0  0  0  0  0999 V2000
   35.9230   29.6460   38.4930 C   0  0  0  0  0  0  0  0  0  0  0  0
   36.4630   29.0860   37.6800 H   0  0  0  0  0  0  0  0  0  0  0  0
   35.0990   30.2350   38.0640 H   0  0  0  0  0  0  0  0  0  0  0  0
   38.8750   31.6430   39.4590 C   0  0  0  0  0  0  0  0  0  0  0  0
   38.3850   32.2180   40.5780 C   0  0  0  0  0  0  0  0  0  0  0  0
   36.6700   31.5130   40.6580 S   0  0  0  0  0  0  0  0  0  0  0  0
   36.9730   30.5390   39.0950 C   0  0  0  0  0  0  0  0  0  0  0  0
   38.0400   30.8490   38.8630 N   0  0  0  0  0  0  0  0  0  0  0  0
   38.9250   32.9470   41.2680 H   0  0  0  0  0  0  0  0  0  0  0  0
   41.7980   32.4210   37.1940 C   0  0  0  0  0  0  0  0  0  0  0  0
   40.4700   32.1860   37.6170 C   0  0  0  0  0  0  0  0  0  0  0  0
   40.2430   31.8970   38.9560 C   0  0  0  0  0  0  0  0  0  0  0  0
   41.3450   31.8590   39.7790 N   0  0  0  0  0  0  0  0  0  0  0  0
   42.5820   32.0850   39.3470 C   0  0  0  0  0  0  0  0  0  0  0  0
   42.8180   32.3650   38.0610 N   0  0  0  0  0  0  0  0  0  0  0  0
   42.0240   32.6500   36.1610 H   0  0  0  0  0  0  0  0  0  0  0  0
   43.4350   32.0500   40.0160 H   0  0  0  0  0  0  0  0  0  0  0  0
   39.4690   32.2680   36.6140 N   0  0  0  0  0  0  0  0  0  0  0  0
   39.3380   31.7750   35.7110 H   0  0  0  0  0  0  0  0  0  0  0  0
   38.6990   32.9560   36.7940 H   0  0  0  0  0  0  0  0  0  0  0  0
   35.4960   28.5960   39.4900 C   0  0  0  0  0  0  0  0  0  0  0  0
   34.6000   28.0850   39.0830 H   0  0  0  0  0  0  0  0  0  0  0  0
   35.1680   29.0420   40.4490 H   0  0  0  0  0  0  0  0  0  0  0  0
   36.5450   27.6020   39.7960 C   0  0  0  0  0  0  0  0  0  0  0  0
   37.0240   26.8270   38.7820 N   0  0  0  0  0  0  0  0  0  0  0  0
   38.0020   25.9110   39.0230 C   0  0  0  0  0  3  0  0  0  0  0  0
   38.5100   25.7550   40.2630 N   0  0  0  0  0  0  0  0  0  0  0  0
   38.0970   26.4730   41.3150 C   0  0  0  0  0  0  0  0  0  0  0  0
   38.5850   26.3430   42.6010 C   0  0  0  0  0  3  0  0  0  0  0  0
   38.1070   27.1140   43.6410 C   0  0  0  0  0  0  0  0  0  0  0  0
   38.4790   27.0230   44.6530 H   0  0  0  0  0  0  0  0  0  0  0  0
   37.1160   28.0410   43.3990 C   0  0  0  0  0  0  0  0  0  0  0  0
   36.7350   28.6510   44.2080 H   0  0  0  0  0  0  0  0  0  0  0  0
   36.6440   28.1540   42.1050 C   0  0  0  0  0  3  0  0  0  0  0  0
   37.0930   27.4050   41.0410 C   0  0  0  0  0  0  0  0  0  0  0  0
  1  7  1  0  0  0  0
  1 21  1  0  0  0  0
  2  1  1  0  0  0  0
  3  1  1  0  0  0  0
  4  5  2  0  0  0  0
  5  6  1  0  0  0  0
  5  9  1  0  0  0  0
  7  6  1  0  0  0  0
  8  7  2  0  0  0  0
  8  4  1  0  0  0  0
 10 11  2  0  0  0  0
 10 15  1  0  0  0  0
 11 12  1  0  0  0  0
 12  4  1  0  0  0  0
 12 13  2  0  0  0  0
 14 13  1  0  0  0  0
 14 17  1  0  0  0  0
 15 14  2  0  0  0  0
 16 10  1  0  0  0  0
 18 20  1  0  0  0  0
 18 11  1  0  0  0  0
 19 18  1  0  0  0  0
 21 24  1  0  0  0  0
 21 23  1  0  0  0  0
 22 21  1  0  0  0  0
 24 35  1  0  0  0  0
 25 26  1  0  0  0  0
 25 24  2  0  0  0  0
 26 27  2  0  0  0  0
 27 28  1  0  0  0  0
 28 29  1  0  0  0  0
 29 30  2  0  0  0  0
 30 31  1  0  0  0  0
 32 30  1  0  0  0  0
 32 33  1  0  0  0  0
 34 32  2  0  0  0  0
 35 28  2  0  0  0  0
 35 34  1  0  0  0  0
M  END
>  <minimizedAffinity>
-5.84002924

$$$$

 OpenBabel03242522153D

 35 38  0  0  0  0  0  0  0  0999 V2000
   35.5750   28.9150   40.4850 C   0  0  0  0  0  0  0  0  0  0  0  0
   35.1770   29.7350   39.8260 H   0  0  0  0  0  0  0  0  0  0  0  0
   34.8310   28.6490   41.2510 H   0  0  0  0  0  0  0  0  0  0  0  0
   38.5870   30.7870   41.5120 C   0  0  0  0  0  0  0  0  0  0  0  0
   38.9040   30.0860   42.6220 C   0  0  0  0  0  0  0  0  0  0  0  0
   37.5640   28.8030   42.6670 S   0  0  0  0  0  0  0  0  0  0  0  0
   36.8110   29.5020   41.1090 C   0  0  0  0  0  0  0  0  0  0  0  0
   37.5290   30.3560   40.8990 N   0  0  0  0  0  0  0  0  0  0  0  0
   39.7840   30.2720   43.3240 H   0  0  0  0  0  0  0  0  0  0  0  0
   39.5560   34.1610   40.1130 C   0  0  0  0  0  0  0  0  0  0  0  0
   38.7510   33.0850   40.5500 C   0  0  0  0  0  0  0  0  0  0  0  0
   39.3770   31.9450   41.0390 C   0  0  0  0  0  0  0  0  0  0  0  0
   40.7520   31.9520   41.0580 N   0  0  0  0  0  0  0  0  0  0  0  0
   41.4800   32.9830   40.6390 C   0  0  0  0  0  0  0  0  0  0  0  0
   40.8930   34.0870   40.1650 N   0  0  0  0  0  0  0  0  0  0  0  0
   39.1150   35.0690   39.7250 H   0  0  0  0  0  0  0  0  0  0  0  0
   42.5640   32.9640   40.6630 H   0  0  0  0  0  0  0  0  0  0  0  0
   37.3480   33.2710   40.4480 N   0  0  0  0  0  0  0  0  0  0  0  0
   36.7260   33.4960   39.6490 H   0  0  0  0  0  0  0  0  0  0  0  0
   36.8080   33.1660   41.3400 H   0  0  0  0  0  0  0  0  0  0  0  0
   35.9460   27.7910   39.5480 C   0  0  0  0  0  0  0  0  0  0  0  0
   35.1210   27.0490   39.5630 H   0  0  0  0  0  0  0  0  0  0  0  0
   36.8420   27.2390   39.8950 H   0  0  0  0  0  0  0  0  0  0  0  0
   36.2020   28.2280   38.1610 C   0  0  0  0  0  0  0  0  0  0  0  0
   37.4910   28.2660   37.7180 N   0  0  0  0  0  0  0  0  0  0  0  0
   37.7640   28.6490   36.4400 C   0  0  0  0  0  3  0  0  0  0  0  0
   36.7710   28.9970   35.5970 N   0  0  0  0  0  0  0  0  0  0  0  0
   35.4800   28.9880   35.9500 C   0  0  0  0  0  0  0  0  0  0  0  0
   34.4310   29.3400   35.1220 C   0  0  0  0  0  3  0  0  0  0  0  0
   33.1220   29.3140   35.5550 C   0  0  0  0  0  0  0  0  0  0  0  0
   32.2910   29.5870   34.9190 H   0  0  0  0  0  0  0  0  0  0  0  0
   32.8430   28.9270   36.8490 C   0  0  0  0  0  0  0  0  0  0  0  0
   31.8190   28.9030   37.1990 H   0  0  0  0  0  0  0  0  0  0  0  0
   33.9070   28.5790   37.6590 C   0  0  0  0  0  3  0  0  0  0  0  0
   35.2260   28.5920   37.2650 C   0  0  0  0  0  0  0  0  0  0  0  0
  1  7  1  0  0  0  0
  1  3  1  0  0  0  0
  2  1  1  0  0  0  0
  4  5  2  0  0  0  0
  5  6  1  0  0  0  0
  5  9  1  0  0  0  0
  7  6  1  0  0  0  0
  8  7  2  0  0  0  0
  8  4  1  0  0  0  0
 10 15  2  0  0  0  0
 10 11  1  0  0  0  0
 11 12  2  0  0  0  0
 12 13  1  0  0  0  0
 12  4  1  0  0  0  0
 14 17  1  0  0  0  0
 14 13  2  0  0  0  0
 15 14  1  0  0  0  0
 16 10  1  0  0  0  0
 18 11  1  0  0  0  0
 18 20  1  0  0  0  0
 19 18  1  0  0  0  0
 21 22  1  0  0  0  0
 21 23  1  0  0  0  0
 21  1  1  0  0  0  0
 24 21  1  0  0  0  0
 25 24  1  0  0  0  0
 26 25  2  0  0  0  0
 27 28  2  0  0  0  0
 27 26  1  0  0  0  0
 28 35  1  0  0  0  0
 29 30  2  0  0  0  0
 29 28  1  0  0  0  0
 30 32  1  0  0  0  0
 31 30  1  0  0  0  0
 32 33  1  0  0  0  0
 32 34  2  0  0  0  0
 35 34  1  0  0  0  0
 35 24  2  0  0  0  0
M  END
>  <minimizedAffinity>
-5.62799644

$$$$
