
 OpenBabel03242515513D

 23 25  0  0  0  0  0  0  0  0999 V2000
   38.3990   27.8660   42.2450 C   0  0  0  0  0  0  0  0  0  0  0  0
   39.3730   27.8320   43.1840 N   0  0  0  0  0  0  0  0  0  0  0  0
   39.9350   26.7350   43.6800 C   0  0  0  0  0  3  0  0  0  0  0  0
   39.5310   25.5160   43.2360 N   0  0  0  0  0  0  0  0  0  0  0  0
   38.5620   25.4170   42.2960 C   0  0  0  0  0  0  0  0  0  0  0  0
   38.1680   24.1720   41.8610 C   0  0  0  0  0  3  0  0  0  0  0  0
   37.1830   24.0520   40.9050 C   0  0  0  0  0  0  0  0  0  0  0  0
   36.9650   23.0270   40.6500 H   0  0  0  0  0  0  0  0  0  0  0  0
   36.6270   25.2130   40.4180 C   0  0  0  0  0  0  0  0  0  0  0  0
   35.8600   25.0700   39.6720 H   0  0  0  0  0  0  0  0  0  0  0  0
   37.0620   26.4300   40.8910 C   0  0  0  0  0  3  0  0  0  0  0  0
   38.0390   26.6060   41.8420 C   0  0  0  0  0  0  0  0  0  0  0  0
   38.4670   31.1770   40.8560 C   0  0  0  0  0  0  0  0  0  0  0  0
   37.1460   31.5720   40.6880 C   0  0  0  0  0  0  0  0  0  0  0  0
   36.1740   30.6710   41.0640 C   0  0  0  0  0  0  0  0  0  0  0  0
   36.5420   29.4830   41.5620 N   0  0  0  0  0  0  0  0  0  0  0  0
   37.8030   29.1060   41.7230 C   0  0  0  0  0  0  0  0  0  0  0  0
   38.7480   29.9800   41.3590 N   0  0  0  0  0  0  0  0  0  0  0  0
   39.2560   31.8820   40.5630 H   0  0  0  0  0  0  0  0  0  0  0  0
   35.1610   30.9200   40.9560 H   0  0  0  0  0  0  0  0  0  0  0  0
   36.9050   32.8580   40.1480 N   0  0  0  0  0  0  0  0  0  0  0  0
   36.1980   33.5170   40.5790 H   0  0  0  0  0  0  0  0  0  0  0  0
   37.3850   33.2530   39.3120 H   0  0  0  0  0  0  0  0  0  0  0  0
  1  2  1  0  0  0  0
  2  3  2  0  0  0  0
  4  3  1  0  0  0  0
  5  4  2  0  0  0  0
  6  5  1  0  0  0  0
  7  6  2  0  0  0  0
  8  7  1  0  0  0  0
  9 11  2  0  0  0  0
  9  7  1  0  0  0  0
 10  9  1  0  0  0  0
 11 12  1  0  0  0  0
 12  1  2  0  0  0  0
 12  5  1  0  0  0  0
 13 18  1  0  0  0  0
 14 13  2  0  0  0  0
 14 15  1  0  0  0  0
 15 16  2  0  0  0  0
 16 17  1  0  0  0  0
 17  1  1  0  0  0  0
 18 17  2  0  0  0  0
 19 13  1  0  0  0  0
 20 15  1  0  0  0  0
 21 22  1  0  0  0  0
 21 14  1  0  0  0  0
 23 21  1  0  0  0  0
M  END
>  <minimizedAffinity>
-5.51045752

$$$$

 OpenBabel03242515513D

 23 25  0  0  0  0  0  0  0  0999 V2000
   38.7570   31.5460   40.2860 C   0  0  0  0  0  0  0  0  0  0  0  0
   37.4210   31.7260   40.1720 N   0  0  0  0  0  0  0  0  0  0  0  0
   36.4870   31.0400   40.8220 C   0  0  0  0  0  3  0  0  0  0  0  0
   36.8560   30.0620   41.6900 N   0  0  0  0  0  0  0  0  0  0  0  0
   38.1650   29.7850   41.8920 C   0  0  0  0  0  0  0  0  0  0  0  0
   38.5170   28.7900   42.7750 C   0  0  0  0  0  3  0  0  0  0  0  0
   39.8450   28.4950   42.9930 C   0  0  0  0  0  0  0  0  0  0  0  0
   39.9880   27.6980   43.7060 H   0  0  0  0  0  0  0  0  0  0  0  0
   40.7800   29.2280   42.2990 C   0  0  0  0  0  0  0  0  0  0  0  0
   41.8070   28.9620   42.5020 H   0  0  0  0  0  0  0  0  0  0  0  0
   40.3680   30.2120   41.4290 C   0  0  0  0  0  3  0  0  0  0  0  0
   39.0590   30.5470   41.1740 C   0  0  0  0  0  0  0  0  0  0  0  0
   40.7750   32.3860   37.4360 C   0  0  0  0  0  0  0  0  0  0  0  0
   41.5410   33.4870   37.7950 C   0  0  0  0  0  0  0  0  0  0  0  0
   41.3700   33.9770   39.0700 C   0  0  0  0  0  0  0  0  0  0  0  0
   40.4900   33.3800   39.8870 N   0  0  0  0  0  0  0  0  0  0  0  0
   39.7580   32.3280   39.5450 C   0  0  0  0  0  0  0  0  0  0  0  0
   39.9240   31.8520   38.3060 N   0  0  0  0  0  0  0  0  0  0  0  0
   40.8970   31.9800   36.4230 H   0  0  0  0  0  0  0  0  0  0  0  0
   41.9240   34.8070   39.3900 H   0  0  0  0  0  0  0  0  0  0  0  0
   42.4300   34.0140   36.8270 N   0  0  0  0  0  0  0  0  0  0  0  0
   43.4310   34.2570   37.0690 H   0  0  0  0  0  0  0  0  0  0  0  0
   42.1860   34.2020   35.8320 H   0  0  0  0  0  0  0  0  0  0  0  0
  1 12  1  0  0  0  0
  2  1  2  0  0  0  0
  2  3  1  0  0  0  0
  3  4  2  0  0  0  0
  4  5  1  0  0  0  0
  5  6  1  0  0  0  0
  6  7  2  0  0  0  0
  7  8  1  0  0  0  0
  9 10  1  0  0  0  0
  9  7  1  0  0  0  0
 11  9  2  0  0  0  0
 12 11  1  0  0  0  0
 12  5  2  0  0  0  0
 13 14  2  0  0  0  0
 13 18  1  0  0  0  0
 14 15  1  0  0  0  0
 15 20  1  0  0  0  0
 15 16  2  0  0  0  0
 17 16  1  0  0  0  0
 17  1  1  0  0  0  0
 18 17  2  0  0  0  0
 19 13  1  0  0  0  0
 21 22  1  0  0  0  0
 21 14  1  0  0  0  0
 23 21  1  0  0  0  0
M  END
>  <minimizedAffinity>
-5.25767231

$$$$

 OpenBabel03242515513D

 23 25  0  0  0  0  0  0  0  0999 V2000
   37.7380   29.1040   41.1510 C   0  0  0  0  0  0  0  0  0  0  0  0
   37.8590   29.5670   42.4170 N   0  0  0  0  0  0  0  0  0  0  0  0
   37.7350   28.8430   43.5240 C   0  0  0  0  0  3  0  0  0  0  0  0
   37.4650   27.5150   43.4280 N   0  0  0  0  0  0  0  0  0  0  0  0
   37.3200   26.9320   42.2150 C   0  0  0  0  0  0  0  0  0  0  0  0
   37.0460   25.5850   42.1420 C   0  0  0  0  0  3  0  0  0  0  0  0
   36.8960   24.9750   40.9150 C   0  0  0  0  0  0  0  0  0  0  0  0
   36.6830   23.9200   40.9930 H   0  0  0  0  0  0  0  0  0  0  0  0
   37.0310   25.7610   39.7950 C   0  0  0  0  0  0  0  0  0  0  0  0
   36.9050   25.2410   38.8570 H   0  0  0  0  0  0  0  0  0  0  0  0
   37.3060   27.1040   39.9310 C   0  0  0  0  0  3  0  0  0  0  0  0
   37.4650   27.7620   41.1270 C   0  0  0  0  0  0  0  0  0  0  0  0
   39.5660   30.8780   38.6190 C   0  0  0  0  0  0  0  0  0  0  0  0
   38.6280   31.4650   37.7800 C   0  0  0  0  0  0  0  0  0  0  0  0
   37.3010   31.2520   38.0830 C   0  0  0  0  0  0  0  0  0  0  0  0
   36.9870   30.5040   39.1500 N   0  0  0  0  0  0  0  0  0  0  0  0
   37.8820   29.9440   39.9520 C   0  0  0  0  0  0  0  0  0  0  0  0
   39.1710   30.1510   39.6580 N   0  0  0  0  0  0  0  0  0  0  0  0
   40.6290   31.0370   38.3950 H   0  0  0  0  0  0  0  0  0  0  0  0
   36.5540   31.6720   37.4800 H   0  0  0  0  0  0  0  0  0  0  0  0
   39.1060   32.2280   36.6890 N   0  0  0  0  0  0  0  0  0  0  0  0
   38.7090   33.1830   36.4640 H   0  0  0  0  0  0  0  0  0  0  0  0
   39.8620   31.9300   36.0370 H   0  0  0  0  0  0  0  0  0  0  0  0
  1  2  1  0  0  0  0
  2  3  2  0  0  0  0
  4  3  1  0  0  0  0
  5  4  2  0  0  0  0
  6  5  1  0  0  0  0
  7  8  1  0  0  0  0
  7  6  2  0  0  0  0
  9 11  2  0  0  0  0
  9  7  1  0  0  0  0
 10  9  1  0  0  0  0
 11 12  1  0  0  0  0
 12  1  2  0  0  0  0
 12  5  1  0  0  0  0
 13 18  1  0  0  0  0
 14 15  1  0  0  0  0
 14 13  2  0  0  0  0
 15 16  2  0  0  0  0
 16 17  1  0  0  0  0
 17  1  1  0  0  0  0
 18 17  2  0  0  0  0
 19 13  1  0  0  0  0
 20 15  1  0  0  0  0
 21 14  1  0  0  0  0
 22 21  1  0  0  0  0
 23 21  1  0  0  0  0
M  END
>  <minimizedAffinity>
-5.21304178

$$$$

 OpenBabel03242515513D

 23 25  0  0  0  0  0  0  0  0999 V2000
   37.6050   27.4680   40.7640 C   0  0  0  0  0  0  0  0  0  0  0  0
   36.8320   26.5840   40.0920 N   0  0  0  0  0  0  0  0  0  0  0  0
   36.8110   25.2700   40.2830 C   0  0  0  0  0  3  0  0  0  0  0  0
   37.6170   24.7170   41.2260 N   0  0  0  0  0  0  0  0  0  0  0  0
   38.4390   25.4970   41.9670 C   0  0  0  0  0  0  0  0  0  0  0  0
   39.2470   24.9160   42.9170 C   0  0  0  0  0  3  0  0  0  0  0  0
   40.0900   25.6950   43.6800 C   0  0  0  0  0  0  0  0  0  0  0  0
   40.6700   25.1220   44.3860 H   0  0  0  0  0  0  0  0  0  0  0  0
   40.0810   27.0520   43.4490 C   0  0  0  0  0  0  0  0  0  0  0  0
   40.7570   27.6210   44.0690 H   0  0  0  0  0  0  0  0  0  0  0  0
   39.2500   27.5760   42.4850 C   0  0  0  0  0  3  0  0  0  0  0  0
   38.3920   26.8460   41.6970 C   0  0  0  0  0  0  0  0  0  0  0  0
   36.3140   30.8090   41.0340 C   0  0  0  0  0  0  0  0  0  0  0  0
   37.1780   31.6340   40.3250 C   0  0  0  0  0  0  0  0  0  0  0  0
   38.2590   31.0320   39.7200 C   0  0  0  0  0  0  0  0  0  0  0  0
   38.4220   29.7070   39.8430 N   0  0  0  0  0  0  0  0  0  0  0  0
   37.5970   28.9190   40.5190 C   0  0  0  0  0  0  0  0  0  0  0  0
   36.5470   29.5030   41.1060 N   0  0  0  0  0  0  0  0  0  0  0  0
   35.4470   31.2700   41.5230 H   0  0  0  0  0  0  0  0  0  0  0  0
   38.9420   31.6100   39.1740 H   0  0  0  0  0  0  0  0  0  0  0  0
   36.8810   33.0170   40.2820 N   0  0  0  0  0  0  0  0  0  0  0  0
   36.9150   33.5630   39.3760 H   0  0  0  0  0  0  0  0  0  0  0  0
   36.6140   33.5960   41.1050 H   0  0  0  0  0  0  0  0  0  0  0  0
  1 12  1  0  0  0  0
  2  3  1  0  0  0  0
  2  1  2  0  0  0  0
  3  4  2  0  0  0  0
  4  5  1  0  0  0  0
  5  6  1  0  0  0  0
  6  7  2  0  0  0  0
  7  8  1  0  0  0  0
  9  7  1  0  0  0  0
  9 10  1  0  0  0  0
 11  9  2  0  0  0  0
 12  5  2  0  0  0  0
 12 11  1  0  0  0  0
 13 18  1  0  0  0  0
 13 19  1  0  0  0  0
 14 13  2  0  0  0  0
 15 16  2  0  0  0  0
 15 14  1  0  0  0  0
 16 17  1  0  0  0  0
 17  1  1  0  0  0  0
 17 18  2  0  0  0  0
 20 15  1  0  0  0  0
 21 14  1  0  0  0  0
 21 23  1  0  0  0  0
 22 21  1  0  0  0  0
M  END
>  <minimizedAffinity>
-5.17829657

$$$$

 OpenBabel03242515513D

 23 25  0  0  0  0  0  0  0  0999 V2000
   39.3540   30.8850   40.3810 C   0  0  0  0  0  0  0  0  0  0  0  0
   39.7870   30.6900   41.6480 N   0  0  0  0  0  0  0  0  0  0  0  0
   39.0960   30.1110   42.6240 C   0  0  0  0  0  3  0  0  0  0  0  0
   37.8390   29.6590   42.3770 N   0  0  0  0  0  0  0  0  0  0  0  0
   37.2920   29.7950   41.1460 C   0  0  0  0  0  0  0  0  0  0  0  0
   36.0170   29.3300   40.9190 C   0  0  0  0  0  3  0  0  0  0  0  0
   35.4450   29.4610   39.6720 C   0  0  0  0  0  0  0  0  0  0  0  0
   34.4450   29.0580   39.6230 H   0  0  0  0  0  0  0  0  0  0  0  0
   36.1940   30.0660   38.6900 C   0  0  0  0  0  0  0  0  0  0  0  0
   35.7050   30.1470   37.7310 H   0  0  0  0  0  0  0  0  0  0  0  0
   37.4650   30.5120   38.9770 C   0  0  0  0  0  3  0  0  0  0  0  0
   38.0830   30.4070   40.2010 C   0  0  0  0  0  0  0  0  0  0  0  0
   41.0710   33.6260   38.8180 C   0  0  0  0  0  0  0  0  0  0  0  0
   41.6110   33.1410   37.6340 C   0  0  0  0  0  0  0  0  0  0  0  0
   41.3860   31.8140   37.3430 C   0  0  0  0  0  0  0  0  0  0  0  0
   40.6720   31.0700   38.1990 N   0  0  0  0  0  0  0  0  0  0  0  0
   40.1550   31.5320   39.3290 C   0  0  0  0  0  0  0  0  0  0  0  0
   40.3730   32.8210   39.6120 N   0  0  0  0  0  0  0  0  0  0  0  0
   41.2390   34.6810   39.0680 H   0  0  0  0  0  0  0  0  0  0  0  0
   41.7730   31.3990   36.4620 H   0  0  0  0  0  0  0  0  0  0  0  0
   42.3460   34.0430   36.8280 N   0  0  0  0  0  0  0  0  0  0  0  0
   42.1890   34.1060   35.7830 H   0  0  0  0  0  0  0  0  0  0  0  0
   43.0760   34.6980   37.1780 H   0  0  0  0  0  0  0  0  0  0  0  0
  1  2  1  0  0  0  0
  2  3  2  0  0  0  0
  4  3  1  0  0  0  0
  5  4  2  0  0  0  0
  6  5  1  0  0  0  0
  7  6  2  0  0  0  0
  8  7  1  0  0  0  0
  9 11  2  0  0  0  0
  9  7  1  0  0  0  0
 10  9  1  0  0  0  0
 11 12  1  0  0  0  0
 12  1  2  0  0  0  0
 12  5  1  0  0  0  0
 13 19  1  0  0  0  0
 13 18  1  0  0  0  0
 14 13  2  0  0  0  0
 15 14  1  0  0  0  0
 15 16  2  0  0  0  0
 16 17  1  0  0  0  0
 17 18  2  0  0  0  0
 17  1  1  0  0  0  0
 20 15  1  0  0  0  0
 21 23  1  0  0  0  0
 21 14  1  0  0  0  0
 22 21  1  0  0  0  0
M  END
>  <minimizedAffinity>
-5.16174841

$$$$

 OpenBabel03242515513D

 23 25  0  0  0  0  0  0  0  0999 V2000
   37.5750   28.0910   39.4790 C   0  0  0  0  0  0  0  0  0  0  0  0
   37.2710   26.9350   38.8450 N   0  0  0  0  0  0  0  0  0  0  0  0
   36.8910   25.8050   39.4320 C   0  0  0  0  0  3  0  0  0  0  0  0
   36.7810   25.7580   40.7850 N   0  0  0  0  0  0  0  0  0  0  0  0
   37.0580   26.8510   41.5330 C   0  0  0  0  0  0  0  0  0  0  0  0
   36.9400   26.7790   42.9030 C   0  0  0  0  0  3  0  0  0  0  0  0
   37.2180   27.8830   43.6800 C   0  0  0  0  0  0  0  0  0  0  0  0
   37.0890   27.6990   44.7350 H   0  0  0  0  0  0  0  0  0  0  0  0
   37.6100   29.0320   43.0330 C   0  0  0  0  0  0  0  0  0  0  0  0
   37.8170   29.8700   43.6810 H   0  0  0  0  0  0  0  0  0  0  0  0
   37.7090   29.0440   41.6590 C   0  0  0  0  0  3  0  0  0  0  0  0
   37.4440   27.9740   40.8380 C   0  0  0  0  0  0  0  0  0  0  0  0
   39.9430   30.3410   37.9850 C   0  0  0  0  0  0  0  0  0  0  0  0
   39.2240   31.4380   37.5280 C   0  0  0  0  0  0  0  0  0  0  0  0
   37.8620   31.4210   37.7340 C   0  0  0  0  0  0  0  0  0  0  0  0
   37.3080   30.3690   38.3510 N   0  0  0  0  0  0  0  0  0  0  0  0
   37.9940   29.3210   38.7890 C   0  0  0  0  0  0  0  0  0  0  0  0
   39.3160   29.3370   38.5900 N   0  0  0  0  0  0  0  0  0  0  0  0
   41.0290   30.3360   37.8310 H   0  0  0  0  0  0  0  0  0  0  0  0
   37.2740   32.2250   37.4070 H   0  0  0  0  0  0  0  0  0  0  0  0
   39.9430   32.4780   36.8920 N   0  0  0  0  0  0  0  0  0  0  0  0
   39.7790   33.4950   37.1360 H   0  0  0  0  0  0  0  0  0  0  0  0
   40.6680   32.3390   36.1570 H   0  0  0  0  0  0  0  0  0  0  0  0
  1 12  1  0  0  0  0
  2  3  1  0  0  0  0
  2  1  2  0  0  0  0
  3  4  2  0  0  0  0
  4  5  1  0  0  0  0
  5  6  1  0  0  0  0
  6  7  2  0  0  0  0
  7  8  1  0  0  0  0
  9  7  1  0  0  0  0
  9 10  1  0  0  0  0
 11  9  2  0  0  0  0
 12  5  2  0  0  0  0
 12 11  1  0  0  0  0
 13 18  1  0  0  0  0
 14 15  1  0  0  0  0
 14 13  2  0  0  0  0
 15 16  2  0  0  0  0
 16 17  1  0  0  0  0
 17  1  1  0  0  0  0
 18 17  2  0  0  0  0
 19 13  1  0  0  0  0
 20 15  1  0  0  0  0
 21 22  1  0  0  0  0
 21 14  1  0  0  0  0
 23 21  1  0  0  0  0
M  END
>  <minimizedAffinity>
-5.01743364

$$$$

 OpenBabel03242515513D

 23 25  0  0  0  0  0  0  0  0999 V2000
   40.0300   29.3920   41.4300 C   0  0  0  0  0  0  0  0  0  0  0  0
   41.2060   29.0740   42.0180 N   0  0  0  0  0  0  0  0  0  0  0  0
   41.3650   28.2260   43.0270 C   0  0  0  0  0  3  0  0  0  0  0  0
   40.2810   27.5950   43.5480 N   0  0  0  0  0  0  0  0  0  0  0  0
   39.0460   27.8280   43.0460 C   0  0  0  0  0  0  0  0  0  0  0  0
   37.9620   27.1780   43.5900 C   0  0  0  0  0  3  0  0  0  0  0  0
   36.6970   27.4030   43.0910 C   0  0  0  0  0  0  0  0  0  0  0  0
   35.9350   26.8350   43.6020 H   0  0  0  0  0  0  0  0  0  0  0  0
   36.5770   28.2900   42.0460 C   0  0  0  0  0  0  0  0  0  0  0  0
   35.5680   28.4360   41.6890 H   0  0  0  0  0  0  0  0  0  0  0  0
   37.6980   28.9110   41.5430 C   0  0  0  0  0  3  0  0  0  0  0  0
   38.9800   28.7220   42.0030 C   0  0  0  0  0  0  0  0  0  0  0  0
   40.1170   30.3920   37.9810 C   0  0  0  0  0  0  0  0  0  0  0  0
   39.7780   31.7390   37.9430 C   0  0  0  0  0  0  0  0  0  0  0  0
   39.5030   32.3470   39.1480 C   0  0  0  0  0  0  0  0  0  0  0  0
   39.5750   31.6250   40.2750 N   0  0  0  0  0  0  0  0  0  0  0  0
   39.8990   30.3400   40.3130 C   0  0  0  0  0  0  0  0  0  0  0  0
   40.1660   29.7490   39.1430 N   0  0  0  0  0  0  0  0  0  0  0  0
   40.3390   29.8900   37.0310 H   0  0  0  0  0  0  0  0  0  0  0  0
   39.2420   33.3620   39.1730 H   0  0  0  0  0  0  0  0  0  0  0  0
   39.7410   32.3730   36.6780 N   0  0  0  0  0  0  0  0  0  0  0  0
   40.1950   33.3160   36.5180 H   0  0  0  0  0  0  0  0  0  0  0  0
   39.2820   31.9830   35.8280 H   0  0  0  0  0  0  0  0  0  0  0  0
  1 12  2  0  0  0  0
  1  2  1  0  0  0  0
  2  3  2  0  0  0  0
  3  4  1  0  0  0  0
  5  4  2  0  0  0  0
  5  6  1  0  0  0  0
  7  6  2  0  0  0  0
  7  8  1  0  0  0  0
  9  7  1  0  0  0  0
 10  9  1  0  0  0  0
 11 12  1  0  0  0  0
 11  9  2  0  0  0  0
 12  5  1  0  0  0  0
 13 18  1  0  0  0  0
 14 13  2  0  0  0  0
 14 15  1  0  0  0  0
 15 20  1  0  0  0  0
 15 16  2  0  0  0  0
 16 17  1  0  0  0  0
 17  1  1  0  0  0  0
 18 17  2  0  0  0  0
 19 13  1  0  0  0  0
 21 14  1  0  0  0  0
 22 21  1  0  0  0  0
 23 21  1  0  0  0  0
M  END
>  <minimizedAffinity>
-4.99703693

$$$$

 OpenBabel03242515513D

 23 25  0  0  0  0  0  0  0  0999 V2000
   37.7790   30.2220   40.9410 C   0  0  0  0  0  0  0  0  0  0  0  0
   36.4910   30.0470   40.5650 N   0  0  0  0  0  0  0  0  0  0  0  0
   35.7050   29.0410   40.9330 C   0  0  0  0  0  3  0  0  0  0  0  0
   36.1920   28.0790   41.7600 N   0  0  0  0  0  0  0  0  0  0  0  0
   37.4680   28.1410   42.2060 C   0  0  0  0  0  0  0  0  0  0  0  0
   37.9400   27.1560   43.0430 C   0  0  0  0  0  3  0  0  0  0  0  0
   39.2370   27.2040   43.5070 C   0  0  0  0  0  0  0  0  0  0  0  0
   39.4840   26.3760   44.1520 H   0  0  0  0  0  0  0  0  0  0  0  0
   40.0170   28.2620   43.1010 C   0  0  0  0  0  0  0  0  0  0  0  0
   41.0240   28.2580   43.4880 H   0  0  0  0  0  0  0  0  0  0  0  0
   39.4890   29.2190   42.2630 C   0  0  0  0  0  3  0  0  0  0  0  0
   38.2050   29.2190   41.7710 C   0  0  0  0  0  0  0  0  0  0  0  0
   39.8900   32.0250   38.6630 C   0  0  0  0  0  0  0  0  0  0  0  0
   40.2390   33.2140   39.2910 C   0  0  0  0  0  0  0  0  0  0  0  0
   39.7350   33.4230   40.5550 C   0  0  0  0  0  0  0  0  0  0  0  0
   38.9480   32.4880   41.1070 N   0  0  0  0  0  0  0  0  0  0  0  0
   38.6150   31.3530   40.5080 C   0  0  0  0  0  0  0  0  0  0  0  0
   39.1040   31.1490   39.2800 N   0  0  0  0  0  0  0  0  0  0  0  0
   40.2820   31.8410   37.6540 H   0  0  0  0  0  0  0  0  0  0  0  0
   39.9680   34.3040   41.0720 H   0  0  0  0  0  0  0  0  0  0  0  0
   41.0780   34.1100   38.5860 N   0  0  0  0  0  0  0  0  0  0  0  0
   41.9160   34.5640   39.0470 H   0  0  0  0  0  0  0  0  0  0  0  0
   40.9500   34.3890   37.5910 H   0  0  0  0  0  0  0  0  0  0  0  0
  1 12  1  0  0  0  0
  2  3  1  0  0  0  0
  2  1  2  0  0  0  0
  3  4  2  0  0  0  0
  4  5  1  0  0  0  0
  5  6  1  0  0  0  0
  6  7  2  0  0  0  0
  7  8  1  0  0  0  0
  9 10  1  0  0  0  0
  9  7  1  0  0  0  0
 11  9  2  0  0  0  0
 12  5  2  0  0  0  0
 12 11  1  0  0  0  0
 13 18  2  0  0  0  0
 13 14  1  0  0  0  0
 14 15  2  0  0  0  0
 15 20  1  0  0  0  0
 15 16  1  0  0  0  0
 17  1  1  0  0  0  0
 17 16  2  0  0  0  0
 18 17  1  0  0  0  0
 19 13  1  0  0  0  0
 21 22  1  0  0  0  0
 21 14  1  0  0  0  0
 23 21  1  0  0  0  0
M  END
>  <minimizedAffinity>
-4.89794731

$$$$

 OpenBabel03242515513D

 23 25  0  0  0  0  0  0  0  0999 V2000
   37.3850   27.4530   40.9220 C   0  0  0  0  0  0  0  0  0  0  0  0
   37.8780   26.8810   42.0450 N   0  0  0  0  0  0  0  0  0  0  0  0
   37.8320   25.5870   42.3410 C   0  0  0  0  0  3  0  0  0  0  0  0
   37.2500   24.7210   41.4710 N   0  0  0  0  0  0  0  0  0  0  0  0
   36.7190   25.1710   40.3100 C   0  0  0  0  0  0  0  0  0  0  0  0
   36.1340   24.2760   39.4440 C   0  0  0  0  0  3  0  0  0  0  0  0
   35.5880   24.7160   38.2570 C   0  0  0  0  0  0  0  0  0  0  0  0
   35.1610   23.9200   37.6680 H   0  0  0  0  0  0  0  0  0  0  0  0
   35.6560   26.0640   37.9890 C   0  0  0  0  0  0  0  0  0  0  0  0
   35.2160   26.3630   37.0500 H   0  0  0  0  0  0  0  0  0  0  0  0
   36.2550   26.9120   38.8950 C   0  0  0  0  0  3  0  0  0  0  0  0
   36.8130   26.5260   40.0900 C   0  0  0  0  0  0  0  0  0  0  0  0
   36.2630   30.8620   41.0650 C   0  0  0  0  0  0  0  0  0  0  0  0
   37.1820   31.6200   40.3500 C   0  0  0  0  0  0  0  0  0  0  0  0
   38.2420   30.9450   39.7860 C   0  0  0  0  0  0  0  0  0  0  0  0
   38.3340   29.6180   39.9510 N   0  0  0  0  0  0  0  0  0  0  0  0
   37.4570   28.8940   40.6330 C   0  0  0  0  0  0  0  0  0  0  0  0
   36.4270   29.5480   41.1810 N   0  0  0  0  0  0  0  0  0  0  0  0
   35.4110   31.3810   41.5230 H   0  0  0  0  0  0  0  0  0  0  0  0
   38.9630   31.4710   39.2370 H   0  0  0  0  0  0  0  0  0  0  0  0
   36.9570   33.0140   40.2600 N   0  0  0  0  0  0  0  0  0  0  0  0
   37.0360   33.5300   39.3390 H   0  0  0  0  0  0  0  0  0  0  0  0
   36.7040   33.6310   41.0600 H   0  0  0  0  0  0  0  0  0  0  0  0
  1  2  1  0  0  0  0
  2  3  2  0  0  0  0
  4  3  1  0  0  0  0
  5  4  2  0  0  0  0
  6  5  1  0  0  0  0
  7  6  2  0  0  0  0
  8  7  1  0  0  0  0
  9  7  1  0  0  0  0
  9 11  2  0  0  0  0
 10  9  1  0  0  0  0
 11 12  1  0  0  0  0
 12  5  1  0  0  0  0
 12  1  2  0  0  0  0
 13 18  1  0  0  0  0
 13 19  1  0  0  0  0
 14 13  2  0  0  0  0
 15 16  2  0  0  0  0
 15 14  1  0  0  0  0
 16 17  1  0  0  0  0
 17  1  1  0  0  0  0
 17 18  2  0  0  0  0
 20 15  1  0  0  0  0
 21 14  1  0  0  0  0
 21 23  1  0  0  0  0
 22 21  1  0  0  0  0
M  END
>  <minimizedAffinity>
-4.89140558

$$$$
