
 OpenBabel03252502203D

 36 39  0  0  1  0  0  0  0  0999 V2000
   46.6360   34.4400   42.2900 N   0  0  0  0  0  0  0  0  0  0  0  0
   48.0500   34.1780   42.3090 C   0  0  0  0  0  0  0  0  0  0  0  0
   48.6100   34.8960   41.0860 C   0  0  0  0  0  0  0  0  0  0  0  0
   48.0690   34.3510   39.8160 C   0  0  0  0  0  0  0  0  0  0  0  0
   46.6460   33.8960   39.8890 C   0  0  0  0  0  0  0  0  0  0  0  0
   45.8630   34.3990   41.0560 C   0  0  1  0  0  0  0  0  0  0  0  0
   48.1780   33.0820   42.2140 H   0  0  0  0  0  0  0  0  0  0  0  0
   48.5280   34.5670   43.2100 H   0  0  0  0  0  0  0  0  0  0  0  0
   48.4360   35.9810   41.2250 H   0  0  0  0  0  0  0  0  0  0  0  0
   49.7140   34.6820   41.1130 H   0  0  0  0  0  0  0  0  0  0  0  0
   48.0950   35.1890   39.0650 H   0  0  0  0  0  0  0  0  0  0  0  0
   48.7030   33.5520   39.3670 H   0  0  0  0  0  0  0  0  0  0  0  0
   46.0650   34.0990   38.9770 H   0  0  0  0  0  0  0  0  0  0  0  0
   46.6740   32.7740   39.9880 H   0  0  0  0  0  0  0  0  0  0  0  0
   45.6140   35.4390   40.8710 H   0  0  0  0  0  0  0  0  0  0  0  0
   44.7690   33.4580   41.3110 C   0  0  0  0  0  0  0  0  0  0  0  0
   45.0240   32.1950   41.7320 N   0  0  0  0  0  0  0  0  0  0  0  0
   44.0670   31.2830   41.9840 C   0  0  0  0  0  0  0  0  0  0  0  0
   42.7700   31.5860   41.8260 N   0  0  0  0  0  0  0  0  0  0  0  0
   42.4380   32.8010   41.4170 C   0  0  0  0  0  0  0  0  0  0  0  0
   41.1180   33.1250   41.2500 C   0  0  0  0  0  0  0  0  0  0  0  0
   40.7960   34.3890   40.8250 C   0  0  0  0  0  0  0  0  0  0  0  0
   39.7370   34.6220   40.7010 H   0  0  0  0  0  0  0  0  0  0  0  0
   41.7570   35.3510   40.5570 C   0  0  0  0  0  0  0  0  0  0  0  0
   41.4400   36.3290   40.2260 H   0  0  0  0  0  0  0  0  0  0  0  0
   43.0710   34.9950   40.7340 C   0  0  0  0  0  0  0  0  0  0  0  0
   43.4220   33.7420   41.1560 C   0  0  0  0  0  0  0  0  0  0  0  0
   44.4660   36.1290   44.8300 C   0  0  0  0  0  0  0  0  0  0  0  0
   45.1350   35.9250   43.6060 C   0  0  0  0  0  0  0  0  0  0  0  0
   45.9130   34.7530   43.4820 C   0  0  0  0  0  0  0  0  0  0  0  0
   45.9760   33.8870   44.5440 N   0  0  0  0  0  0  0  0  0  0  0  0
   45.3010   34.1460   45.7040 C   0  0  0  0  0  0  0  0  0  0  0  0
   44.5490   35.2690   45.8370 N   0  0  0  0  0  0  0  0  0  0  0  0
   43.9170   37.0590   44.7710 H   0  0  0  0  0  0  0  0  0  0  0  0
   45.1180   36.5680   42.7500 H   0  0  0  0  0  0  0  0  0  0  0  0
   45.3350   33.4850   46.5470 H   0  0  0  0  0  0  0  0  0  0  0  0
  1  2  1  0  0  0  0
  1 30  1  0  0  0  0
  2  8  1  0  0  0  0
  3 10  1  0  0  0  0
  3  9  1  0  0  0  0
  3  2  1  0  0  0  0
  4  5  1  0  0  0  0
  4  3  1  0  0  0  0
  5 14  1  0  0  0  0
  5  6  1  0  0  0  0
  6 15  1  6  0  0  0
  6 16  1  0  0  0  0
  6  1  1  0  0  0  0
  7  2  1  0  0  0  0
 11  4  1  0  0  0  0
 12  4  1  0  0  0  0
 13  5  1  0  0  0  0
 16 17  1  0  0  0  0
 17 18  2  0  0  0  0
 19 18  1  0  0  0  0
 20 19  2  0  0  0  0
 21 20  1  0  0  0  0
 22 21  2  0  0  0  0
 23 22  1  0  0  0  0
 24 26  2  0  0  0  0
 24 22  1  0  0  0  0
 25 24  1  0  0  0  0
 26 27  1  0  0  0  0
 27 16  2  0  0  0  0
 27 20  1  0  0  0  0
 28 33  1  0  0  0  0
 29 28  2  0  0  0  0
 30 29  1  0  0  0  0
 30 31  2  0  0  0  0
 31 32  1  0  0  0  0
 32 33  2  0  0  0  0
 32 36  1  0  0  0  0
 34 28  1  0  0  0  0
 35 29  1  0  0  0  0
M  END
>  <minimizedAffinity>
-6.16702557

>  <minimizedRMSD>
2.3109746

$$$$
