
 OpenBabel03252507323D

 52 56  0  0  1  0  0  0  0  0999 V2000
   46.9960   32.7300   45.5350 C   0  0  0  0  0  0  0  0  0  0  0  0
   45.8960   33.3910   46.0630 C   0  0  0  0  0  0  0  0  0  0  0  0
   45.2190   34.3590   45.2830 C   0  0  0  0  0  0  0  0  0  0  0  0
   45.7270   34.5840   44.0050 N   0  0  0  0  0  0  0  0  0  0  0  0
   46.8060   33.9050   43.5530 C   0  0  0  0  0  0  0  0  0  0  0  0
   47.4220   33.0020   44.3010 N   0  0  0  0  0  0  0  0  0  0  0  0
   45.3750   33.4060   46.9950 H   0  0  0  0  0  0  0  0  0  0  0  0
   44.3750   34.9530   45.5110 H   0  0  0  0  0  0  0  0  0  0  0  0
   47.6370   31.7330   46.3660 C   0  0  2  0  0  0  0  0  0  0  0  0
   47.3890   30.2910   45.8210 C   0  0  0  0  0  0  0  0  0  0  0  0
   48.1960   29.3200   46.6090 C   0  0  0  0  0  0  0  0  0  0  0  0
   48.1840   29.5050   48.0880 C   0  0  0  0  0  0  0  0  0  0  0  0
   48.1860   30.8830   48.5180 C   0  0  0  0  0  0  0  0  0  0  0  0
   47.1950   31.7790   47.7460 C   0  0  2  0  0  0  0  0  0  0  0  0
   48.7450   31.8220   46.2590 H   0  0  0  0  0  0  0  0  0  0  0  0
   46.3170   30.0850   45.7740 H   0  0  0  0  0  0  0  0  0  0  0  0
   47.7530   30.3450   44.7750 H   0  0  0  0  0  0  0  0  0  0  0  0
   47.7470   28.3040   46.4170 H   0  0  0  0  0  0  0  0  0  0  0  0
   49.1880   29.2690   46.1210 H   0  0  0  0  0  0  0  0  0  0  0  0
   49.2960   29.2420   48.3110 H   0  0  0  0  0  0  0  0  0  0  0  0
   47.8080   28.6900   48.7090 H   0  0  0  0  0  0  0  0  0  0  0  0
   47.8620   30.9390   49.5990 H   0  0  0  0  0  0  0  0  0  0  0  0
   49.1420   31.4560   48.4970 H   0  0  0  0  0  0  0  0  0  0  0  0
   47.3140   32.7280   48.2700 H   0  0  0  0  0  0  0  0  0  0  0  0
   45.8550   31.1960   47.8600 N   0  0  0  0  0  0  0  0  0  0  0  0
   45.1590   30.6640   48.9580 C   0  0  0  0  0  0  0  0  0  0  0  0
   44.6110   31.3970   49.8590 O   0  0  0  0  0  0  0  0  0  0  0  0
   45.1010   29.2370   48.9910 N   0  0  0  0  0  0  0  0  0  0  0  0
   45.2180   31.0400   46.9910 H   0  0  0  0  0  0  0  0  0  0  0  0
   44.6070   28.7070   48.2250 H   0  0  0  0  0  0  0  0  0  0  0  0
   45.3480   28.3460   49.4790 H   0  0  0  0  0  0  0  0  0  0  0  0
   47.3020   34.2210   42.2180 C   0  0  0  0  0  0  0  0  0  0  0  0
   48.2300   35.1790   41.9930 C   0  0  0  0  0  0  0  0  0  0  0  0
   48.7130   35.4970   40.7390 C   0  0  0  0  0  0  0  0  0  0  0  0
   48.1880   34.7700   39.6930 C   0  0  0  0  0  0  0  0  0  0  0  0
   47.2300   33.7740   39.8870 C   0  0  0  0  0  0  0  0  0  0  0  0
   46.8490   33.5680   41.1620 N   0  0  0  0  0  0  0  0  0  0  0  0
   48.6270   35.7390   42.8270 H   0  0  0  0  0  0  0  0  0  0  0  0
   49.4540   36.2640   40.5610 H   0  0  0  0  0  0  0  0  0  0  0  0
   48.5630   35.0160   38.7160 H   0  0  0  0  0  0  0  0  0  0  0  0
   46.7920   33.1110   38.6740 C   0  0  0  0  0  0  0  0  0  0  0  0
   47.6530   32.8290   37.6800 N   0  0  0  0  0  0  0  0  0  0  0  0
   47.3710   32.2340   36.5380 C   0  0  0  0  0  3  0  0  0  0  0  0
   46.1120   31.8400   36.2740 N   0  0  0  0  0  0  0  0  0  0  0  0
   45.1430   32.0700   37.2070 C   0  0  0  0  0  0  0  0  0  0  0  0
   43.8460   31.6760   36.9600 C   0  0  0  0  0  3  0  0  0  0  0  0
   42.8370   31.9000   37.8990 C   0  0  0  0  0  0  0  0  0  0  0  0
   41.8650   31.5460   37.5880 H   0  0  0  0  0  0  0  0  0  0  0  0
   43.2230   32.5380   39.0840 C   0  0  0  0  0  0  0  0  0  0  0  0
   42.3980   32.6840   39.7730 H   0  0  0  0  0  0  0  0  0  0  0  0
   44.5310   32.9030   39.2650 C   0  0  0  0  0  3  0  0  0  0  0  0
   45.5220   32.6940   38.3650 C   0  0  0  0  0  0  0  0  0  0  0  0
  1  2  1  0  0  0  0
  1  9  1  0  0  0  0
  2  7  1  0  0  0  0
  3  8  1  0  0  0  0
  3  2  2  0  0  0  0
  4  3  1  0  0  0  0
  5  4  2  0  0  0  0
  5  6  1  0  0  0  0
  6  1  2  0  0  0  0
  9 15  1  6  0  0  0
  9 14  1  0  0  0  0
 10  9  1  0  0  0  0
 10 11  1  0  0  0  0
 11 12  1  0  0  0  0
 12 20  1  0  0  0  0
 12 13  1  0  0  0  0
 12 21  1  0  0  0  0
 13 22  1  0  0  0  0
 14 25  1  0  0  0  0
 14 24  1  1  0  0  0
 14 13  1  0  0  0  0
 16 10  1  0  0  0  0
 17 10  1  0  0  0  0
 18 11  1  0  0  0  0
 19 11  1  0  0  0  0
 23 13  1  0  0  0  0
 25 26  1  0  0  0  0
 26 28  1  0  0  0  0
 26 27  2  0  0  0  0
 28 31  1  0  0  0  0
 29 25  1  0  0  0  0
 30 28  1  0  0  0  0
 32  5  1  0  0  0  0
 33 32  1  0  0  0  0
 33 38  1  0  0  0  0
 34 33  2  0  0  0  0
 35 36  2  0  0  0  0
 35 34  1  0  0  0  0
 36 37  1  0  0  0  0
 37 32  2  0  0  0  0
 39 34  1  0  0  0  0
 40 35  1  0  0  0  0
 41 36  1  0  0  0  0
 42 41  2  0  0  0  0
 43 42  1  0  0  0  0
 44 43  2  0  0  0  0
 44 45  1  0  0  0  0
 45 52  1  0  0  0  0
 46 45  2  0  0  0  0
 46 47  1  0  0  0  0
 47 49  2  0  0  0  0
 48 47  1  0  0  0  0
 49 51  1  0  0  0  0
 49 50  1  0  0  0  0
 52 41  1  0  0  0  0
 52 51  2  0  0  0  0
M  END
>  <minimizedAffinity>
-6.822824

>  <minimizedRMSD>
0.248321071

$$$$
