
 OpenBabel03242516253D

 46 51  0  0  0  0  0  0  0  0999 V2000
   49.3290   29.3370   48.9700 C   0  0  0  0  0  0  0  0  0  0  0  0
   49.5280   30.3280   49.8870 N   0  0  0  0  0  0  0  0  0  0  0  0
   50.2310   30.1550   51.0090 C   0  0  0  0  0  0  0  0  0  0  0  0
   50.7640   28.9450   51.2450 N   0  0  0  0  0  0  0  0  0  0  0  0
   50.6220   27.9130   50.4040 C   0  0  0  0  0  0  0  0  0  0  0  0
   51.1780   26.6670   50.6200 C   0  0  0  0  0  0  0  0  0  0  0  0
   51.0120   25.6450   49.7010 C   0  0  0  0  0  0  0  0  0  0  0  0
   50.2790   25.8190   48.5220 C   0  0  0  0  0  0  0  0  0  0  0  0
   49.7380   27.0810   48.3450 C   0  0  0  0  0  0  0  0  0  0  0  0
   49.8910   28.1070   49.2420 C   0  0  0  0  0  0  0  0  0  0  0  0
   50.3610   30.9620   51.6950 H   0  0  0  0  0  0  0  0  0  0  0  0
   51.7340   26.5520   51.5280 H   0  0  0  0  0  0  0  0  0  0  0  0
   51.5120   24.7210   50.0020 H   0  0  0  0  0  0  0  0  0  0  0  0
   50.2580   24.9320   47.9360 H   0  0  0  0  0  0  0  0  0  0  0  0
   48.9270   27.0120   47.1370 C   0  0  0  0  0  0  0  0  0  0  0  0
   49.1170   27.4400   45.8510 N   0  0  0  0  0  0  0  0  0  0  0  0
   48.1540   27.2110   44.9220 C   0  0  0  0  0  3  0  0  0  0  0  0
   46.9820   26.5740   45.1650 N   0  0  0  0  0  0  0  0  0  0  0  0
   46.7510   26.1340   46.4150 C   0  0  0  0  0  0  0  0  0  0  0  0
   45.5720   25.4770   46.6280 C   0  0  0  0  0  3  0  0  0  0  0  0
   45.2850   24.9860   47.8670 C   0  0  0  0  0  0  0  0  0  0  0  0
   44.3740   24.4620   48.0760 H   0  0  0  0  0  0  0  0  0  0  0  0
   46.1790   25.1480   48.9120 C   0  0  0  0  0  0  0  0  0  0  0  0
   45.9910   24.7750   49.9010 H   0  0  0  0  0  0  0  0  0  0  0  0
   47.3410   25.8210   48.6150 C   0  0  0  0  0  3  0  0  0  0  0  0
   47.7160   26.3520   47.3900 C   0  0  0  0  0  0  0  0  0  0  0  0
   48.4120   29.5400   47.4720 S   0  0  0  0  0  0  0  0  0  0  0  0
   45.9510   32.6610   46.8210 C   0  0  0  0  0  0  0  0  0  0  0  0
   46.9010   31.6890   46.7200 C   0  0  0  0  0  0  0  0  0  0  0  0
   47.1260   30.7640   47.7170 C   0  0  0  0  0  0  0  0  0  0  0  0
   46.3640   30.8010   48.8930 C   0  0  0  0  0  0  0  0  0  0  0  0
   45.4120   31.7530   49.0220 C   0  0  0  0  0  0  0  0  0  0  0  0
   45.2150   32.6670   47.9990 C   0  0  0  0  0  0  0  0  0  0  0  0
   47.5030   31.6430   45.8010 H   0  0  0  0  0  0  0  0  0  0  0  0
   46.5310   30.0910   49.6670 H   0  0  0  0  0  0  0  0  0  0  0  0
   44.7850   31.8380   49.9090 H   0  0  0  0  0  0  0  0  0  0  0  0
   44.4510   33.4230   48.1140 H   0  0  0  0  0  0  0  0  0  0  0  0
   44.5760   35.5470   45.0600 C   0  0  0  0  0  0  0  0  0  0  0  0
   45.2200   35.5190   43.8230 C   0  0  0  0  0  0  0  0  0  0  0  0
   46.1450   34.4930   43.5890 C   0  0  0  0  0  0  0  0  0  0  0  0
   46.3800   33.5690   44.5650 N   0  0  0  0  0  0  0  0  0  0  0  0
   45.7200   33.6370   45.7690 C   0  0  0  0  0  0  0  0  0  0  0  0
   44.8340   34.6190   45.9960 N   0  0  0  0  0  0  0  0  0  0  0  0
   43.8760   36.3690   45.1770 H   0  0  0  0  0  0  0  0  0  0  0  0
   45.1050   36.1990   42.9840 H   0  0  0  0  0  0  0  0  0  0  0  0
   46.7170   34.3460   42.6730 H   0  0  0  0  0  0  0  0  0  0  0  0
  1 10  2  0  0  0  0
  1  2  1  0  0  0  0
  2  3  2  0  0  0  0
  3  4  1  0  0  0  0
  3 11  1  0  0  0  0
  5  6  1  0  0  0  0
  5  4  2  0  0  0  0
  6 12  1  0  0  0  0
  7 13  1  0  0  0  0
  7  6  2  0  0  0  0
  8  7  1  0  0  0  0
  9  8  2  0  0  0  0
  9 10  1  0  0  0  0
 10  5  1  0  0  0  0
 14  8  1  0  0  0  0
 15 26  1  0  0  0  0
 15  9  1  0  0  0  0
 16 15  2  0  0  0  0
 17 18  2  0  0  0  0
 17 16  1  0  0  0  0
 18 19  1  0  0  0  0
 19 20  2  0  0  0  0
 19 26  1  0  0  0  0
 20 21  1  0  0  0  0
 21 22  1  0  0  0  0
 21 23  2  0  0  0  0
 23 24  1  0  0  0  0
 25 23  1  0  0  0  0
 26 25  2  0  0  0  0
 27 30  1  0  0  0  0
 27  1  1  0  0  0  0
 28 33  1  0  0  0  0
 29 28  2  0  0  0  0
 29 30  1  0  0  0  0
 30 31  2  0  0  0  0
 31 32  1  0  0  0  0
 31 35  1  0  0  0  0
 32 36  1  0  0  0  0
 33 37  1  0  0  0  0
 33 32  2  0  0  0  0
 34 29  1  0  0  0  0
 38 44  1  0  0  0  0
 38 43  1  0  0  0  0
 39 38  2  0  0  0  0
 40 39  1  0  0  0  0
 40 41  2  0  0  0  0
 41 42  1  0  0  0  0
 42 43  2  0  0  0  0
 42 28  1  0  0  0  0
 45 39  1  0  0  0  0
 46 40  1  0  0  0  0
M  END
>  <minimizedAffinity>
-6.4384594

>  <minimizedRMSD>
1.85677803

$$$$
