
 OpenBabel03242523353D

 40 44  0  0  0  0  0  0  0  0999 V2000
   35.4570   25.9450   36.8380 C   0  0  0  0  0  0  0  0  0  0  0  0
   35.0050   25.3660   36.0000 H   0  0  0  0  0  0  0  0  0  0  0  0
   36.4760   26.2060   36.4980 H   0  0  0  0  0  0  0  0  0  0  0  0
   35.0670   23.2560   39.3620 C   0  0  0  0  0  0  0  0  0  0  0  0
   36.0130   23.6520   40.2980 C   0  0  0  0  0  0  0  0  0  0  0  0
   36.7860   24.8250   40.0840 C   0  0  0  0  0  0  0  0  0  0  0  0
   36.5360   25.5110   38.9240 N   0  0  0  0  0  0  0  0  0  0  0  0
   35.6100   25.0980   38.0360 C   0  0  0  0  0  0  0  0  0  0  0  0
   34.9050   23.9920   38.2730 N   0  0  0  0  0  0  0  0  0  0  0  0
   34.4790   22.3760   39.5100 H   0  0  0  0  0  0  0  0  0  0  0  0
   36.0980   23.0240   41.1500 H   0  0  0  0  0  0  0  0  0  0  0  0
   37.7130   25.0600   41.1650 C   0  0  0  0  0  0  0  0  0  0  0  0
   38.6510   24.1700   41.5320 N   0  0  0  0  0  0  0  0  0  0  0  0
   39.5350   24.2940   42.4960 C   0  0  0  0  0  3  0  0  0  0  0  0
   39.5600   25.4000   43.2330 N   0  0  0  0  0  0  0  0  0  0  0  0
   38.6730   26.4110   42.9960 C   0  0  0  0  0  0  0  0  0  0  0  0
   38.6770   27.5680   43.7420 C   0  0  0  0  0  3  0  0  0  0  0  0
   37.7740   28.5760   43.4840 C   0  0  0  0  0  0  0  0  0  0  0  0
   37.8430   29.4510   44.1130 H   0  0  0  0  0  0  0  0  0  0  0  0
   36.8630   28.3830   42.4460 C   0  0  0  0  0  0  0  0  0  0  0  0
   36.1620   29.1770   42.2530 H   0  0  0  0  0  0  0  0  0  0  0  0
   36.9170   27.2030   41.7450 C   0  0  0  0  0  3  0  0  0  0  0  0
   37.7970   26.1730   41.9660 C   0  0  0  0  0  0  0  0  0  0  0  0
   34.4870   27.3940   37.2750 S   0  0  0  0  0  0  0  0  0  0  0  0
   35.5430   28.7890   37.5930 C   0  0  0  0  0  0  0  0  0  0  0  0
   36.2830   29.2730   36.5420 C   0  0  0  0  0  0  0  0  0  0  0  0
   37.0970   30.3610   36.7640 C   0  0  0  0  0  0  0  0  0  0  0  0
   37.1820   30.9720   38.0190 C   0  0  0  0  0  0  0  0  0  0  0  0
   37.9810   32.0360   38.1990 N   0  0  0  0  0  0  0  0  0  0  0  0
   38.0770   32.6470   39.3910 C   0  0  0  0  0  0  0  0  0  0  0  0
   37.3400   32.1680   40.4450 C   0  0  0  0  0  0  0  0  0  0  0  0
   36.5110   31.0660   40.2640 C   0  0  0  0  0  0  0  0  0  0  0  0
   36.3990   30.4190   39.0320 C   0  0  0  0  0  0  0  0  0  0  0  0
   35.5770   29.3360   38.8460 C   0  0  0  0  0  0  0  0  0  0  0  0
   36.3410   28.9280   35.5230 H   0  0  0  0  0  0  0  0  0  0  0  0
   37.7240   30.8180   35.9940 H   0  0  0  0  0  0  0  0  0  0  0  0
   38.7230   33.5040   39.5280 H   0  0  0  0  0  0  0  0  0  0  0  0
   37.4320   32.6740   41.3950 H   0  0  0  0  0  0  0  0  0  0  0  0
   35.9290   30.6930   41.1060 H   0  0  0  0  0  0  0  0  0  0  0  0
   34.9980   28.9490   39.6480 H   0  0  0  0  0  0  0  0  0  0  0  0
  1 24  1  0  0  0  0
  1  8  1  0  0  0  0
  2  1  1  0  0  0  0
  3  1  1  0  0  0  0
  4 10  1  0  0  0  0
  4  5  1  0  0  0  0
  5 11  1  0  0  0  0
  6  5  2  0  0  0  0
  6 12  1  0  0  0  0
  7  6  1  0  0  0  0
  8  9  1  0  0  0  0
  8  7  2  0  0  0  0
  9  4  2  0  0  0  0
 12 13  2  0  0  0  0
 12 23  1  0  0  0  0
 13 14  1  0  0  0  0
 14 15  2  0  0  0  0
 16 15  1  0  0  0  0
 16 17  1  0  0  0  0
 18 17  2  0  0  0  0
 18 19  1  0  0  0  0
 20 18  1  0  0  0  0
 21 20  1  0  0  0  0
 22 23  1  0  0  0  0
 22 20  2  0  0  0  0
 23 16  2  0  0  0  0
 24 25  1  0  0  0  0
 25 34  1  0  0  0  0
 26 27  1  0  0  0  0
 26 25  2  0  0  0  0
 27 28  2  0  0  0  0
 28 29  1  0  0  0  0
 28 33  1  0  0  0  0
 29 30  2  0  0  0  0
 30 37  1  0  0  0  0
 30 31  1  0  0  0  0
 31 38  1  0  0  0  0
 32 31  2  0  0  0  0
 32 39  1  0  0  0  0
 33 32  1  0  0  0  0
 34 33  2  0  0  0  0
 34 40  1  0  0  0  0
 35 26  1  0  0  0  0
 36 27  1  0  0  0  0
M  END
>  <minimizedAffinity>
-6.60522795

$$$$

 OpenBabel03242523353D

 40 44  0  0  0  0  0  0  0  0999 V2000
   40.9480   33.0570   40.5090 C   0  0  0  0  0  0  0  0  0  0  0  0
   41.1730   32.8440   39.4380 H   0  0  0  0  0  0  0  0  0  0  0  0
   41.6250   33.8840   40.7920 H   0  0  0  0  0  0  0  0  0  0  0  0
   42.5070   30.8810   43.0770 C   0  0  0  0  0  0  0  0  0  0  0  0
   41.8470   29.6860   42.8260 C   0  0  0  0  0  0  0  0  0  0  0  0
   40.8740   29.6070   41.7930 C   0  0  0  0  0  0  0  0  0  0  0  0
   40.6450   30.7600   41.0880 N   0  0  0  0  0  0  0  0  0  0  0  0
   41.3050   31.9040   41.3580 C   0  0  0  0  0  0  0  0  0  0  0  0
   42.2100   31.9380   42.3350 N   0  0  0  0  0  0  0  0  0  0  0  0
   43.2410   30.9550   43.8500 H   0  0  0  0  0  0  0  0  0  0  0  0
   42.1270   28.8740   43.4510 H   0  0  0  0  0  0  0  0  0  0  0  0
   40.3010   28.2860   41.6970 C   0  0  0  0  0  0  0  0  0  0  0  0
   40.9150   27.2650   41.0740 N   0  0  0  0  0  0  0  0  0  0  0  0
   40.4770   26.0340   40.9380 C   0  0  0  0  0  3  0  0  0  0  0  0
   39.2990   25.6900   41.4500 N   0  0  0  0  0  0  0  0  0  0  0  0
   38.5400   26.6070   42.1180 C   0  0  0  0  0  0  0  0  0  0  0  0
   37.3180   26.2780   42.6600 C   0  0  0  0  0  3  0  0  0  0  0  0
   36.5690   27.2200   43.3330 C   0  0  0  0  0  0  0  0  0  0  0  0
   35.6230   26.8820   43.7280 H   0  0  0  0  0  0  0  0  0  0  0  0
   37.0910   28.5070   43.4440 C   0  0  0  0  0  0  0  0  0  0  0  0
   36.4980   29.2350   43.9720 H   0  0  0  0  0  0  0  0  0  0  0  0
   38.3160   28.7640   42.8780 C   0  0  0  0  0  3  0  0  0  0  0  0
   39.0970   27.8600   42.2000 C   0  0  0  0  0  0  0  0  0  0  0  0
   39.2180   33.4610   40.7810 S   0  0  0  0  0  0  0  0  0  0  0  0
   38.1610   32.3190   39.9210 C   0  0  0  0  0  0  0  0  0  0  0  0
   38.3220   32.2090   38.5620 C   0  0  0  0  0  0  0  0  0  0  0  0
   37.5210   31.3200   37.8800 C   0  0  0  0  0  0  0  0  0  0  0  0
   36.5620   30.5400   38.5350 C   0  0  0  0  0  0  0  0  0  0  0  0
   35.8030   29.6790   37.8400 N   0  0  0  0  0  0  0  0  0  0  0  0
   34.8800   28.9130   38.4430 C   0  0  0  0  0  0  0  0  0  0  0  0
   34.7130   29.0190   39.8020 C   0  0  0  0  0  0  0  0  0  0  0  0
   35.4970   29.9100   40.5270 C   0  0  0  0  0  0  0  0  0  0  0  0
   36.4620   30.7130   39.9150 C   0  0  0  0  0  0  0  0  0  0  0  0
   37.2440   31.5890   40.6270 C   0  0  0  0  0  0  0  0  0  0  0  0
   39.0010   32.7260   37.9040 H   0  0  0  0  0  0  0  0  0  0  0  0
   37.5730   31.1610   36.8000 H   0  0  0  0  0  0  0  0  0  0  0  0
   34.2720   28.2210   37.8770 H   0  0  0  0  0  0  0  0  0  0  0  0
   33.9650   28.3940   40.2680 H   0  0  0  0  0  0  0  0  0  0  0  0
   35.3580   29.9880   41.6040 H   0  0  0  0  0  0  0  0  0  0  0  0
   37.1310   31.6870   41.6780 H   0  0  0  0  0  0  0  0  0  0  0  0
  1 24  1  0  0  0  0
  1  3  1  0  0  0  0
  1  8  1  0  0  0  0
  2  1  1  0  0  0  0
  4 10  1  0  0  0  0
  5  4  1  0  0  0  0
  5 11  1  0  0  0  0
  6  5  2  0  0  0  0
  7  8  2  0  0  0  0
  7  6  1  0  0  0  0
  8  9  1  0  0  0  0
  9  4  2  0  0  0  0
 12  6  1  0  0  0  0
 12 23  1  0  0  0  0
 13 12  2  0  0  0  0
 14 13  1  0  0  0  0
 14 15  2  0  0  0  0
 15 16  1  0  0  0  0
 16 23  2  0  0  0  0
 16 17  1  0  0  0  0
 17 18  2  0  0  0  0
 18 20  1  0  0  0  0
 18 19  1  0  0  0  0
 20 21  1  0  0  0  0
 22 20  2  0  0  0  0
 23 22  1  0  0  0  0
 25 34  1  0  0  0  0
 25 24  1  0  0  0  0
 26 25  2  0  0  0  0
 27 28  2  0  0  0  0
 27 26  1  0  0  0  0
 28 33  1  0  0  0  0
 29 30  2  0  0  0  0
 29 28  1  0  0  0  0
 30 31  1  0  0  0  0
 31 38  1  0  0  0  0
 31 32  2  0  0  0  0
 32 39  1  0  0  0  0
 33 32  1  0  0  0  0
 33 34  2  0  0  0  0
 34 40  1  0  0  0  0
 35 26  1  0  0  0  0
 36 27  1  0  0  0  0
 37 30  1  0  0  0  0
M  END
>  <minimizedAffinity>
-6.47376156

$$$$

 OpenBabel03242523353D

 40 44  0  0  0  0  0  0  0  0999 V2000
   36.3340   29.5480   36.2160 C   0  0  0  0  0  0  0  0  0  0  0  0
   37.1680   29.1450   35.5950 H   0  0  0  0  0  0  0  0  0  0  0  0
   35.9670   30.4380   35.6730 H   0  0  0  0  0  0  0  0  0  0  0  0
   37.7750   31.6230   38.9310 C   0  0  0  0  0  0  0  0  0  0  0  0
   37.7170   30.7260   39.9890 C   0  0  0  0  0  0  0  0  0  0  0  0
   37.1930   29.4200   39.7930 C   0  0  0  0  0  0  0  0  0  0  0  0
   36.7640   29.1230   38.5260 N   0  0  0  0  0  0  0  0  0  0  0  0
   36.8340   30.0180   37.5210 C   0  0  0  0  0  0  0  0  0  0  0  0
   37.3320   31.2340   37.7440 N   0  0  0  0  0  0  0  0  0  0  0  0
   38.1670   32.6090   39.0630 H   0  0  0  0  0  0  0  0  0  0  0  0
   38.0870   31.0930   40.9140 H   0  0  0  0  0  0  0  0  0  0  0  0
   37.2140   28.6470   41.0120 C   0  0  0  0  0  0  0  0  0  0  0  0
   37.3710   29.2010   42.2270 N   0  0  0  0  0  0  0  0  0  0  0  0
   37.4020   28.5830   43.3870 C   0  0  0  0  0  3  0  0  0  0  0  0
   37.2690   27.2620   43.4380 N   0  0  0  0  0  0  0  0  0  0  0  0
   37.1000   26.5380   42.2920 C   0  0  0  0  0  0  0  0  0  0  0  0
   36.9580   25.1690   42.3150 C   0  0  0  0  0  3  0  0  0  0  0  0
   36.7860   24.4590   41.1460 C   0  0  0  0  0  0  0  0  0  0  0  0
   36.6810   23.3890   41.2490 H   0  0  0  0  0  0  0  0  0  0  0  0
   36.7600   25.1730   39.9490 C   0  0  0  0  0  0  0  0  0  0  0  0
   36.6250   24.6090   39.0420 H   0  0  0  0  0  0  0  0  0  0  0  0
   36.9090   26.5380   40.0030 C   0  0  0  0  0  3  0  0  0  0  0  0
   37.0830   27.2860   41.1400 C   0  0  0  0  0  0  0  0  0  0  0  0
   35.0400   28.3330   36.4970 S   0  0  0  0  0  0  0  0  0  0  0  0
   33.4330   29.0850   36.3890 C   0  0  0  0  0  0  0  0  0  0  0  0
   32.9930   29.4590   35.1420 C   0  0  0  0  0  0  0  0  0  0  0  0
   31.7450   30.0310   35.0350 C   0  0  0  0  0  0  0  0  0  0  0  0
   30.9310   30.2360   36.1540 C   0  0  0  0  0  0  0  0  0  0  0  0
   29.7170   30.7910   36.0130 N   0  0  0  0  0  0  0  0  0  0  0  0
   28.9110   30.9940   37.0680 C   0  0  0  0  0  0  0  0  0  0  0  0
   29.3460   30.6230   38.3160 C   0  0  0  0  0  0  0  0  0  0  0  0
   30.6020   30.0480   38.4680 C   0  0  0  0  0  0  0  0  0  0  0  0
   31.4520   29.8300   37.3820 C   0  0  0  0  0  0  0  0  0  0  0  0
   32.6910   29.2560   37.5250 C   0  0  0  0  0  0  0  0  0  0  0  0
   33.4820   29.3780   34.1860 H   0  0  0  0  0  0  0  0  0  0  0  0
   31.3070   30.3620   34.0900 H   0  0  0  0  0  0  0  0  0  0  0  0
   27.9340   31.4410   36.9460 H   0  0  0  0  0  0  0  0  0  0  0  0
   28.6820   30.7950   39.1510 H   0  0  0  0  0  0  0  0  0  0  0  0
   30.9390   29.7570   39.4630 H   0  0  0  0  0  0  0  0  0  0  0  0
   33.0470   28.9620   38.4820 H   0  0  0  0  0  0  0  0  0  0  0  0
  1 24  1  0  0  0  0
  1  8  1  0  0  0  0
  2  1  1  0  0  0  0
  3  1  1  0  0  0  0
  4 10  1  0  0  0  0
  4  5  1  0  0  0  0
  5 11  1  0  0  0  0
  6  5  2  0  0  0  0
  6 12  1  0  0  0  0
  7  6  1  0  0  0  0
  8  9  1  0  0  0  0
  8  7  2  0  0  0  0
  9  4  2  0  0  0  0
 12 23  2  0  0  0  0
 12 13  1  0  0  0  0
 13 14  2  0  0  0  0
 14 15  1  0  0  0  0
 16 17  1  0  0  0  0
 16 15  2  0  0  0  0
 18 19  1  0  0  0  0
 18 17  2  0  0  0  0
 20 22  2  0  0  0  0
 20 18  1  0  0  0  0
 21 20  1  0  0  0  0
 22 23  1  0  0  0  0
 23 16  1  0  0  0  0
 25 24  1  0  0  0  0
 25 34  1  0  0  0  0
 26 25  2  0  0  0  0
 27 26  1  0  0  0  0
 27 28  2  0  0  0  0
 28 33  1  0  0  0  0
 29 28  1  0  0  0  0
 29 30  2  0  0  0  0
 30 31  1  0  0  0  0
 31 32  2  0  0  0  0
 31 38  1  0  0  0  0
 32 39  1  0  0  0  0
 33 34  2  0  0  0  0
 33 32  1  0  0  0  0
 34 40  1  0  0  0  0
 35 26  1  0  0  0  0
 36 27  1  0  0  0  0
 37 30  1  0  0  0  0
M  END
>  <minimizedAffinity>
-6.45414066

$$$$

 OpenBabel03242523353D

 40 44  0  0  0  0  0  0  0  0999 V2000
   35.9590   26.2010   37.2000 C   0  0  0  0  0  0  0  0  0  0  0  0
   35.6690   25.4840   36.3970 H   0  0  0  0  0  0  0  0  0  0  0  0
   36.9520   26.5870   36.9030 H   0  0  0  0  0  0  0  0  0  0  0  0
   35.9610   23.6400   39.8820 C   0  0  0  0  0  0  0  0  0  0  0  0
   36.5370   24.3630   40.9170 C   0  0  0  0  0  0  0  0  0  0  0  0
   36.9280   25.7150   40.7180 C   0  0  0  0  0  0  0  0  0  0  0  0
   36.7010   26.2320   39.4690 N   0  0  0  0  0  0  0  0  0  0  0  0
   36.1390   25.5020   38.4850 C   0  0  0  0  0  0  0  0  0  0  0  0
   35.7860   24.2370   38.7120 N   0  0  0  0  0  0  0  0  0  0  0  0
   35.6620   22.6230   40.0180 H   0  0  0  0  0  0  0  0  0  0  0  0
   36.6510   23.8330   41.8310 H   0  0  0  0  0  0  0  0  0  0  0  0
   37.5100   26.2850   41.9090 C   0  0  0  0  0  0  0  0  0  0  0  0
   36.8280   27.0880   42.7440 N   0  0  0  0  0  0  0  0  0  0  0  0
   37.2690   27.6500   43.8480 C   0  0  0  0  0  3  0  0  0  0  0  0
   38.5220   27.4440   44.2410 N   0  0  0  0  0  0  0  0  0  0  0  0
   39.3570   26.6500   43.5070 C   0  0  0  0  0  0  0  0  0  0  0  0
   40.6580   26.4170   43.8920 C   0  0  0  0  0  3  0  0  0  0  0  0
   41.4820   25.6110   43.1370 C   0  0  0  0  0  0  0  0  0  0  0  0
   42.4880   25.4790   43.5070 H   0  0  0  0  0  0  0  0  0  0  0  0
   40.9540   25.0440   41.9790 C   0  0  0  0  0  0  0  0  0  0  0  0
   41.6060   24.4160   41.3970 H   0  0  0  0  0  0  0  0  0  0  0  0
   39.6470   25.3210   41.6560 C   0  0  0  0  0  3  0  0  0  0  0  0
   38.7900   26.1160   42.3760 C   0  0  0  0  0  0  0  0  0  0  0  0
   34.7500   27.5120   37.4200 S   0  0  0  0  0  0  0  0  0  0  0  0
   35.4340   28.8490   38.3720 C   0  0  0  0  0  0  0  0  0  0  0  0
   34.9910   28.9950   39.6640 C   0  0  0  0  0  0  0  0  0  0  0  0
   35.5180   30.0160   40.4230 C   0  0  0  0  0  0  0  0  0  0  0  0
   36.4800   30.8930   39.9100 C   0  0  0  0  0  0  0  0  0  0  0  0
   36.9770   31.8730   40.6800 N   0  0  0  0  0  0  0  0  0  0  0  0
   37.9060   32.7260   40.2170 C   0  0  0  0  0  0  0  0  0  0  0  0
   38.3520   32.5860   38.9270 C   0  0  0  0  0  0  0  0  0  0  0  0
   37.8400   31.5710   38.1240 C   0  0  0  0  0  0  0  0  0  0  0  0
   36.8740   30.6760   38.5910 C   0  0  0  0  0  0  0  0  0  0  0  0
   36.3700   29.6690   37.8060 C   0  0  0  0  0  0  0  0  0  0  0  0
   34.2650   28.4190   40.2130 H   0  0  0  0  0  0  0  0  0  0  0  0
   35.2310   30.2140   41.4590 H   0  0  0  0  0  0  0  0  0  0  0  0
   38.3030   33.5140   40.8430 H   0  0  0  0  0  0  0  0  0  0  0  0
   39.0990   33.2810   38.5730 H   0  0  0  0  0  0  0  0  0  0  0  0
   38.1990   31.4670   37.1020 H   0  0  0  0  0  0  0  0  0  0  0  0
   36.7010   29.5430   36.8040 H   0  0  0  0  0  0  0  0  0  0  0  0
  1 24  1  0  0  0  0
  1  8  1  0  0  0  0
  2  1  1  0  0  0  0
  3  1  1  0  0  0  0
  4 10  1  0  0  0  0
  4  5  1  0  0  0  0
  5 11  1  0  0  0  0
  6  5  2  0  0  0  0
  6 12  1  0  0  0  0
  7  6  1  0  0  0  0
  8  9  1  0  0  0  0
  8  7  2  0  0  0  0
  9  4  2  0  0  0  0
 12 23  2  0  0  0  0
 12 13  1  0  0  0  0
 13 14  2  0  0  0  0
 14 15  1  0  0  0  0
 16 17  1  0  0  0  0
 16 15  2  0  0  0  0
 18 19  1  0  0  0  0
 18 17  2  0  0  0  0
 20 18  1  0  0  0  0
 21 20  1  0  0  0  0
 22 20  2  0  0  0  0
 22 23  1  0  0  0  0
 23 16  1  0  0  0  0
 24 25  1  0  0  0  0
 25 26  1  0  0  0  0
 26 35  1  0  0  0  0
 26 27  2  0  0  0  0
 27 36  1  0  0  0  0
 28 27  1  0  0  0  0
 28 29  1  0  0  0  0
 30 29  2  0  0  0  0
 30 37  1  0  0  0  0
 31 30  1  0  0  0  0
 32 33  1  0  0  0  0
 32 31  2  0  0  0  0
 33 28  2  0  0  0  0
 34 25  2  0  0  0  0
 34 33  1  0  0  0  0
 38 31  1  0  0  0  0
 39 32  1  0  0  0  0
 40 34  1  0  0  0  0
M  END
>  <minimizedAffinity>
-6.40735531

$$$$

 OpenBabel03242523353D

 40 44  0  0  0  0  0  0  0  0999 V2000
   36.9410   31.0320   39.5600 C   0  0  0  0  0  0  0  0  0  0  0  0
   37.4500   30.2170   38.9930 H   0  0  0  0  0  0  0  0  0  0  0  0
   36.1340   31.3900   38.8960 H   0  0  0  0  0  0  0  0  0  0  0  0
   38.3210   34.4390   40.0520 C   0  0  0  0  0  0  0  0  0  0  0  0
   39.6730   34.1470   40.1670 C   0  0  0  0  0  0  0  0  0  0  0  0
   40.1260   32.8030   40.0810 C   0  0  0  0  0  0  0  0  0  0  0  0
   39.1610   31.8500   39.8820 N   0  0  0  0  0  0  0  0  0  0  0  0
   37.8560   32.1680   39.7740 C   0  0  0  0  0  0  0  0  0  0  0  0
   37.4700   33.4410   39.8600 N   0  0  0  0  0  0  0  0  0  0  0  0
   37.9660   35.4450   40.1140 H   0  0  0  0  0  0  0  0  0  0  0  0
   40.3060   34.9860   40.3180 H   0  0  0  0  0  0  0  0  0  0  0  0
   41.5590   32.7110   40.2310 C   0  0  0  0  0  0  0  0  0  0  0  0
   42.1900   32.9460   41.3940 N   0  0  0  0  0  0  0  0  0  0  0  0
   43.4820   32.8860   41.6280 C   0  0  0  0  0  3  0  0  0  0  0  0
   44.3180   32.5620   40.6470 N   0  0  0  0  0  0  0  0  0  0  0  0
   43.8440   32.2900   39.3950 C   0  0  0  0  0  0  0  0  0  0  0  0
   44.6860   31.9490   38.3610 C   0  0  0  0  0  3  0  0  0  0  0  0
   44.1860   31.6760   37.1060 C   0  0  0  0  0  0  0  0  0  0  0  0
   44.9120   31.4160   36.3500 H   0  0  0  0  0  0  0  0  0  0  0  0
   42.8070   31.7550   36.9240 C   0  0  0  0  0  0  0  0  0  0  0  0
   42.4270   31.5400   35.9400 H   0  0  0  0  0  0  0  0  0  0  0  0
   42.0280   32.1020   38.0010 C   0  0  0  0  0  3  0  0  0  0  0  0
   42.4800   32.3820   39.2670 C   0  0  0  0  0  0  0  0  0  0  0  0
   36.3250   30.4780   41.1540 S   0  0  0  0  0  0  0  0  0  0  0  0
   37.2220   29.0490   41.7170 C   0  0  0  0  0  0  0  0  0  0  0  0
   38.3280   29.2670   42.5010 C   0  0  0  0  0  0  0  0  0  0  0  0
   39.0290   28.1730   42.9580 C   0  0  0  0  0  0  0  0  0  0  0  0
   38.6410   26.8660   42.6430 C   0  0  0  0  0  0  0  0  0  0  0  0
   39.3430   25.8230   43.1110 N   0  0  0  0  0  0  0  0  0  0  0  0
   38.9910   24.5570   42.8300 C   0  0  0  0  0  0  0  0  0  0  0  0
   37.8860   24.3340   42.0470 C   0  0  0  0  0  0  0  0  0  0  0  0
   37.1550   25.4110   41.5590 C   0  0  0  0  0  0  0  0  0  0  0  0
   37.5080   26.7330   41.8410 C   0  0  0  0  0  0  0  0  0  0  0  0
   36.7860   27.8010   41.3690 C   0  0  0  0  0  0  0  0  0  0  0  0
   38.7650   30.1930   42.8350 H   0  0  0  0  0  0  0  0  0  0  0  0
   39.9210   28.2410   43.5860 H   0  0  0  0  0  0  0  0  0  0  0  0
   39.5610   23.7210   43.2110 H   0  0  0  0  0  0  0  0  0  0  0  0
   37.6200   23.3090   41.8330 H   0  0  0  0  0  0  0  0  0  0  0  0
   36.2800   25.2250   40.9380 H   0  0  0  0  0  0  0  0  0  0  0  0
   35.9280   27.6500   40.7610 H   0  0  0  0  0  0  0  0  0  0  0  0
  1  8  1  0  0  0  0
  1 24  1  0  0  0  0
  2  1  1  0  0  0  0
  3  1  1  0  0  0  0
  4 10  1  0  0  0  0
  4  5  1  0  0  0  0
  5 11  1  0  0  0  0
  6  5  2  0  0  0  0
  6 12  1  0  0  0  0
  7  6  1  0  0  0  0
  8  9  1  0  0  0  0
  8  7  2  0  0  0  0
  9  4  2  0  0  0  0
 12 13  1  0  0  0  0
 13 14  2  0  0  0  0
 15 14  1  0  0  0  0
 16 15  2  0  0  0  0
 17 16  1  0  0  0  0
 18 17  2  0  0  0  0
 19 18  1  0  0  0  0
 20 18  1  0  0  0  0
 20 22  2  0  0  0  0
 21 20  1  0  0  0  0
 22 23  1  0  0  0  0
 23 16  1  0  0  0  0
 23 12  2  0  0  0  0
 24 25  1  0  0  0  0
 25 26  1  0  0  0  0
 26 35  1  0  0  0  0
 26 27  2  0  0  0  0
 27 36  1  0  0  0  0
 28 27  1  0  0  0  0
 28 29  1  0  0  0  0
 30 29  2  0  0  0  0
 30 37  1  0  0  0  0
 31 30  1  0  0  0  0
 32 33  1  0  0  0  0
 32 31  2  0  0  0  0
 33 28  2  0  0  0  0
 34 25  2  0  0  0  0
 34 33  1  0  0  0  0
 38 31  1  0  0  0  0
 39 32  1  0  0  0  0
 40 34  1  0  0  0  0
M  END
>  <minimizedAffinity>
-6.3527751

$$$$

 OpenBabel03242523353D

 40 44  0  0  0  0  0  0  0  0999 V2000
   37.1270   31.1540   39.4950 C   0  0  0  0  0  0  0  0  0  0  0  0
   37.6880   30.3420   38.9760 H   0  0  0  0  0  0  0  0  0  0  0  0
   36.3620   31.4900   38.7700 H   0  0  0  0  0  0  0  0  0  0  0  0
   38.3970   34.5830   40.1100 C   0  0  0  0  0  0  0  0  0  0  0  0
   39.7560   34.3280   40.2380 C   0  0  0  0  0  0  0  0  0  0  0  0
   40.2500   33.0010   40.1180 C   0  0  0  0  0  0  0  0  0  0  0  0
   39.3170   32.0270   39.8750 N   0  0  0  0  0  0  0  0  0  0  0  0
   38.0040   32.3100   39.7570 C   0  0  0  0  0  0  0  0  0  0  0  0
   37.5790   33.5680   39.8760 N   0  0  0  0  0  0  0  0  0  0  0  0
   38.0120   35.5770   40.1980 H   0  0  0  0  0  0  0  0  0  0  0  0
   40.3620   35.1800   40.4240 H   0  0  0  0  0  0  0  0  0  0  0  0
   41.6820   32.9460   40.2870 C   0  0  0  0  0  0  0  0  0  0  0  0
   42.5420   33.5450   39.4460 N   0  0  0  0  0  0  0  0  0  0  0  0
   43.8550   33.5530   39.5180 C   0  0  0  0  0  3  0  0  0  0  0  0
   44.4670   32.9150   40.5110 N   0  0  0  0  0  0  0  0  0  0  0  0
   43.7420   32.2500   41.4580 C   0  0  0  0  0  0  0  0  0  0  0  0
   44.3490   31.5840   42.4980 C   0  0  0  0  0  3  0  0  0  0  0  0
   43.5980   30.9210   43.4450 C   0  0  0  0  0  0  0  0  0  0  0  0
   44.1490   30.4230   44.2280 H   0  0  0  0  0  0  0  0  0  0  0  0
   42.2100   30.9530   43.3120 C   0  0  0  0  0  0  0  0  0  0  0  0
   41.6330   30.4320   44.0570 H   0  0  0  0  0  0  0  0  0  0  0  0
   41.6740   31.6370   42.2490 C   0  0  0  0  0  3  0  0  0  0  0  0
   42.3810   32.3100   41.2830 C   0  0  0  0  0  0  0  0  0  0  0  0
   36.4090   30.6100   41.0490 S   0  0  0  0  0  0  0  0  0  0  0  0
   37.1530   29.0890   41.5910 C   0  0  0  0  0  0  0  0  0  0  0  0
   36.5150   27.9190   41.2590 C   0  0  0  0  0  0  0  0  0  0  0  0
   37.0830   26.7300   41.6580 C   0  0  0  0  0  0  0  0  0  0  0  0
   38.2780   26.6920   42.3830 C   0  0  0  0  0  0  0  0  0  0  0  0
   38.8070   25.5140   42.7500 N   0  0  0  0  0  0  0  0  0  0  0  0
   39.9570   25.4470   43.4410 C   0  0  0  0  0  0  0  0  0  0  0  0
   40.5990   26.6120   43.7760 C   0  0  0  0  0  0  0  0  0  0  0  0
   40.0560   27.8350   43.3990 C   0  0  0  0  0  0  0  0  0  0  0  0
   38.8610   27.9230   42.6800 C   0  0  0  0  0  0  0  0  0  0  0  0
   38.3230   29.1270   42.2980 C   0  0  0  0  0  0  0  0  0  0  0  0
   35.5980   27.7650   40.7130 H   0  0  0  0  0  0  0  0  0  0  0  0
   36.6520   25.7490   41.4430 H   0  0  0  0  0  0  0  0  0  0  0  0
   40.3780   24.4940   43.7330 H   0  0  0  0  0  0  0  0  0  0  0  0
   41.5230   26.5360   44.3320 H   0  0  0  0  0  0  0  0  0  0  0  0
   40.5720   28.7550   43.6690 H   0  0  0  0  0  0  0  0  0  0  0  0
   38.8040   30.0400   42.5470 H   0  0  0  0  0  0  0  0  0  0  0  0
  1  8  1  0  0  0  0
  1 24  1  0  0  0  0
  2  1  1  0  0  0  0
  3  1  1  0  0  0  0
  4 10  1  0  0  0  0
  4  5  1  0  0  0  0
  5 11  1  0  0  0  0
  6  5  2  0  0  0  0
  6 12  1  0  0  0  0
  7  6  1  0  0  0  0
  8  7  2  0  0  0  0
  8  9  1  0  0  0  0
  9  4  2  0  0  0  0
 12 23  1  0  0  0  0
 13 14  1  0  0  0  0
 13 12  2  0  0  0  0
 14 15  2  0  0  0  0
 15 16  1  0  0  0  0
 16 17  1  0  0  0  0
 17 18  2  0  0  0  0
 18 19  1  0  0  0  0
 20 18  1  0  0  0  0
 20 21  1  0  0  0  0
 22 20  2  0  0  0  0
 23 16  2  0  0  0  0
 23 22  1  0  0  0  0
 24 25  1  0  0  0  0
 25 34  1  0  0  0  0
 26 25  2  0  0  0  0
 26 27  1  0  0  0  0
 27 28  2  0  0  0  0
 28 33  1  0  0  0  0
 28 29  1  0  0  0  0
 29 30  2  0  0  0  0
 30 37  1  0  0  0  0
 30 31  1  0  0  0  0
 31 38  1  0  0  0  0
 32 39  1  0  0  0  0
 32 31  2  0  0  0  0
 33 32  1  0  0  0  0
 34 40  1  0  0  0  0
 34 33  2  0  0  0  0
 35 26  1  0  0  0  0
 36 27  1  0  0  0  0
M  END
>  <minimizedAffinity>
-6.31927443

$$$$

 OpenBabel03242523353D

 40 44  0  0  0  0  0  0  0  0999 V2000
   36.2940   29.7920   38.0320 C   0  0  0  0  0  0  0  0  0  0  0  0
   36.9110   29.0720   37.4460 H   0  0  0  0  0  0  0  0  0  0  0  0
   35.6290   30.2770   37.2940 H   0  0  0  0  0  0  0  0  0  0  0  0
   37.5590   32.5890   40.1130 C   0  0  0  0  0  0  0  0  0  0  0  0
   38.8160   32.7710   39.5510 C   0  0  0  0  0  0  0  0  0  0  0  0
   39.2430   31.9530   38.4700 C   0  0  0  0  0  0  0  0  0  0  0  0
   38.3510   31.0050   38.0400 N   0  0  0  0  0  0  0  0  0  0  0  0
   37.1390   30.8550   38.6090 C   0  0  0  0  0  0  0  0  0  0  0  0
   36.7750   31.6420   39.6210 N   0  0  0  0  0  0  0  0  0  0  0  0
   37.2250   33.1970   40.9260 H   0  0  0  0  0  0  0  0  0  0  0  0
   39.3990   33.5450   39.9860 H   0  0  0  0  0  0  0  0  0  0  0  0
   40.5760   32.2950   38.0340 C   0  0  0  0  0  0  0  0  0  0  0  0
   41.1020   33.5220   38.1840 N   0  0  0  0  0  0  0  0  0  0  0  0
   42.3000   33.9270   37.8230 C   0  0  0  0  0  3  0  0  0  0  0  0
   43.1370   33.0760   37.2370 N   0  0  0  0  0  0  0  0  0  0  0  0
   42.7620   31.7830   37.0060 C   0  0  0  0  0  0  0  0  0  0  0  0
   43.6080   30.8810   36.4030 C   0  0  0  0  0  3  0  0  0  0  0  0
   43.2100   29.5800   36.1830 C   0  0  0  0  0  0  0  0  0  0  0  0
   43.9330   28.9350   35.7050 H   0  0  0  0  0  0  0  0  0  0  0  0
   41.9290   29.2140   36.5900 C   0  0  0  0  0  0  0  0  0  0  0  0
   41.6280   28.1960   36.4130 H   0  0  0  0  0  0  0  0  0  0  0  0
   41.1380   30.1680   37.1850 C   0  0  0  0  0  3  0  0  0  0  0  0
   41.4910   31.4730   37.4250 C   0  0  0  0  0  0  0  0  0  0  0  0
   35.3830   28.9940   39.3600 S   0  0  0  0  0  0  0  0  0  0  0  0
   36.4250   27.8620   40.2500 C   0  0  0  0  0  0  0  0  0  0  0  0
   36.4750   26.5640   39.8020 C   0  0  0  0  0  0  0  0  0  0  0  0
   37.2870   25.6750   40.4700 C   0  0  0  0  0  0  0  0  0  0  0  0
   38.0480   26.0610   41.5770 C   0  0  0  0  0  0  0  0  0  0  0  0
   38.8340   25.1700   42.2010 N   0  0  0  0  0  0  0  0  0  0  0  0
   39.5810   25.5140   43.2620 C   0  0  0  0  0  0  0  0  0  0  0  0
   39.5350   26.8090   43.7150 C   0  0  0  0  0  0  0  0  0  0  0  0
   38.7220   27.7370   43.0730 C   0  0  0  0  0  0  0  0  0  0  0  0
   37.9400   27.3960   41.9680 C   0  0  0  0  0  0  0  0  0  0  0  0
   37.1420   28.3090   41.3250 C   0  0  0  0  0  0  0  0  0  0  0  0
   35.9610   26.0990   38.9770 H   0  0  0  0  0  0  0  0  0  0  0  0
   37.3940   24.6230   40.1910 H   0  0  0  0  0  0  0  0  0  0  0  0
   40.2120   24.7900   43.7600 H   0  0  0  0  0  0  0  0  0  0  0  0
   40.1440   27.0660   44.5700 H   0  0  0  0  0  0  0  0  0  0  0  0
   38.6920   28.7630   43.4380 H   0  0  0  0  0  0  0  0  0  0  0  0
   37.0910   29.3160   41.6590 H   0  0  0  0  0  0  0  0  0  0  0  0
  1  8  1  0  0  0  0
  1 24  1  0  0  0  0
  2  1  1  0  0  0  0
  3  1  1  0  0  0  0
  4 10  1  0  0  0  0
  5 11  1  0  0  0  0
  5  4  2  0  0  0  0
  6  5  1  0  0  0  0
  7  6  2  0  0  0  0
  7  8  1  0  0  0  0
  8  9  2  0  0  0  0
  9  4  1  0  0  0  0
 12 13  1  0  0  0  0
 12  6  1  0  0  0  0
 14 13  2  0  0  0  0
 15 14  1  0  0  0  0
 16 15  2  0  0  0  0
 16 23  1  0  0  0  0
 17 16  1  0  0  0  0
 18 17  2  0  0  0  0
 18 20  1  0  0  0  0
 19 18  1  0  0  0  0
 20 22  2  0  0  0  0
 21 20  1  0  0  0  0
 22 23  1  0  0  0  0
 23 12  2  0  0  0  0
 24 25  1  0  0  0  0
 25 34  1  0  0  0  0
 26 25  2  0  0  0  0
 26 27  1  0  0  0  0
 27 28  2  0  0  0  0
 28 33  1  0  0  0  0
 28 29  1  0  0  0  0
 29 30  2  0  0  0  0
 30 31  1  0  0  0  0
 30 37  1  0  0  0  0
 31 38  1  0  0  0  0
 32 39  1  0  0  0  0
 32 31  2  0  0  0  0
 33 32  1  0  0  0  0
 34 40  1  0  0  0  0
 34 33  2  0  0  0  0
 35 26  1  0  0  0  0
 36 27  1  0  0  0  0
M  END
>  <minimizedAffinity>
-6.19203091

$$$$

 OpenBabel03242523353D

 40 44  0  0  0  0  0  0  0  0999 V2000
   37.0990   27.5750   39.4610 C   0  0  0  0  0  0  0  0  0  0  0  0
   36.0700   27.9550   39.2620 H   0  0  0  0  0  0  0  0  0  0  0  0
   37.0760   26.5060   39.1820 H   0  0  0  0  0  0  0  0  0  0  0  0
   36.8080   27.7970   43.1510 C   0  0  0  0  0  0  0  0  0  0  0  0
   38.1470   27.7360   43.5120 C   0  0  0  0  0  0  0  0  0  0  0  0
   39.1540   27.6190   42.5160 C   0  0  0  0  0  0  0  0  0  0  0  0
   38.7170   27.5740   41.2170 N   0  0  0  0  0  0  0  0  0  0  0  0
   37.4080   27.6350   40.9020 C   0  0  0  0  0  0  0  0  0  0  0  0
   36.4940   27.7440   41.8660 N   0  0  0  0  0  0  0  0  0  0  0  0
   36.0410   27.8850   43.8910 H   0  0  0  0  0  0  0  0  0  0  0  0
   38.3380   27.7840   44.5560 H   0  0  0  0  0  0  0  0  0  0  0  0
   40.4750   27.5660   43.0940 C   0  0  0  0  0  0  0  0  0  0  0  0
   41.0100   26.4380   43.5930 N   0  0  0  0  0  0  0  0  0  0  0  0
   42.1990   26.2910   44.1350 C   0  0  0  0  0  3  0  0  0  0  0  0
   43.0160   27.3350   44.2320 N   0  0  0  0  0  0  0  0  0  0  0  0
   42.6310   28.5620   43.7710 C   0  0  0  0  0  0  0  0  0  0  0  0
   43.4570   29.6590   43.8560 C   0  0  0  0  0  3  0  0  0  0  0  0
   43.0490   30.8880   43.3830 C   0  0  0  0  0  0  0  0  0  0  0  0
   43.7550   31.6970   43.4870 H   0  0  0  0  0  0  0  0  0  0  0  0
   41.7770   30.9770   42.8190 C   0  0  0  0  0  0  0  0  0  0  0  0
   41.4680   31.9410   42.4520 H   0  0  0  0  0  0  0  0  0  0  0  0
   41.0070   29.8400   42.7680 C   0  0  0  0  0  3  0  0  0  0  0  0
   41.3710   28.5980   43.2260 C   0  0  0  0  0  0  0  0  0  0  0  0
   38.3560   28.4930   38.5630 S   0  0  0  0  0  0  0  0  0  0  0  0
   38.2990   30.2200   38.9830 C   0  0  0  0  0  0  0  0  0  0  0  0
   37.0760   30.8410   38.9340 C   0  0  0  0  0  0  0  0  0  0  0  0
   37.0080   32.1760   39.2690 C   0  0  0  0  0  0  0  0  0  0  0  0
   38.1440   32.8970   39.6500 C   0  0  0  0  0  0  0  0  0  0  0  0
   38.0410   34.1950   39.9770 N   0  0  0  0  0  0  0  0  0  0  0  0
   39.1130   34.9110   40.3530 C   0  0  0  0  0  0  0  0  0  0  0  0
   40.3390   34.2950   40.4020 C   0  0  0  0  0  0  0  0  0  0  0  0
   40.4520   32.9510   40.0650 C   0  0  0  0  0  0  0  0  0  0  0  0
   39.3470   32.1920   39.6720 C   0  0  0  0  0  0  0  0  0  0  0  0
   39.4500   30.8630   39.3460 C   0  0  0  0  0  0  0  0  0  0  0  0
   36.1110   30.4450   38.6640 H   0  0  0  0  0  0  0  0  0  0  0  0
   36.0830   32.7580   39.2610 H   0  0  0  0  0  0  0  0  0  0  0  0
   39.0230   35.9560   40.6140 H   0  0  0  0  0  0  0  0  0  0  0  0
   41.1890   34.8890   40.7080 H   0  0  0  0  0  0  0  0  0  0  0  0
   41.4280   32.4700   40.1070 H   0  0  0  0  0  0  0  0  0  0  0  0
   40.3900   30.3670   39.3770 H   0  0  0  0  0  0  0  0  0  0  0  0
  1  8  1  0  0  0  0
  2  1  1  0  0  0  0
  3  1  1  0  0  0  0
  4  5  1  0  0  0  0
  4 10  1  0  0  0  0
  5 11  1  0  0  0  0
  6 12  1  0  0  0  0
  6  5  2  0  0  0  0
  7  6  1  0  0  0  0
  8  7  2  0  0  0  0
  8  9  1  0  0  0  0
  9  4  2  0  0  0  0
 12 23  2  0  0  0  0
 12 13  1  0  0  0  0
 13 14  2  0  0  0  0
 14 15  1  0  0  0  0
 16 17  1  0  0  0  0
 16 15  2  0  0  0  0
 18 19  1  0  0  0  0
 18 17  2  0  0  0  0
 20 18  1  0  0  0  0
 21 20  1  0  0  0  0
 22 20  2  0  0  0  0
 22 23  1  0  0  0  0
 23 16  1  0  0  0  0
 24 25  1  0  0  0  0
 24  1  1  0  0  0  0
 25 34  1  0  0  0  0
 26 25  2  0  0  0  0
 26 27  1  0  0  0  0
 27 28  2  0  0  0  0
 28 33  1  0  0  0  0
 28 29  1  0  0  0  0
 29 30  2  0  0  0  0
 30 31  1  0  0  0  0
 30 37  1  0  0  0  0
 31 38  1  0  0  0  0
 32 39  1  0  0  0  0
 32 31  2  0  0  0  0
 33 32  1  0  0  0  0
 34 40  1  0  0  0  0
 34 33  2  0  0  0  0
 35 26  1  0  0  0  0
 36 27  1  0  0  0  0
M  END
>  <minimizedAffinity>
-6.19018316

$$$$

 OpenBabel03242523353D

 40 44  0  0  0  0  0  0  0  0999 V2000
   35.4100   29.1940   35.9520 C   0  0  0  0  0  0  0  0  0  0  0  0
   35.6820   29.4930   34.9130 H   0  0  0  0  0  0  0  0  0  0  0  0
   35.3770   30.1360   36.5300 H   0  0  0  0  0  0  0  0  0  0  0  0
   38.5520   27.3070   36.5210 C   0  0  0  0  0  0  0  0  0  0  0  0
   38.3170   26.8080   37.7950 C   0  0  0  0  0  0  0  0  0  0  0  0
   37.1010   27.1050   38.4680 C   0  0  0  0  0  0  0  0  0  0  0  0
   36.2100   27.8930   37.7880 N   0  0  0  0  0  0  0  0  0  0  0  0
   36.4690   28.3610   36.5510 C   0  0  0  0  0  0  0  0  0  0  0  0
   37.6220   28.0610   35.9530 N   0  0  0  0  0  0  0  0  0  0  0  0
   39.4620   27.0920   36.0020 H   0  0  0  0  0  0  0  0  0  0  0  0
   39.0970   26.2110   38.1980 H   0  0  0  0  0  0  0  0  0  0  0  0
   37.0540   26.5000   39.7780 C   0  0  0  0  0  0  0  0  0  0  0  0
   36.8820   25.1800   39.9690 N   0  0  0  0  0  0  0  0  0  0  0  0
   36.8280   24.5410   41.1150 C   0  0  0  0  0  3  0  0  0  0  0  0
   36.9490   25.2140   42.2550 N   0  0  0  0  0  0  0  0  0  0  0  0
   37.1290   26.5670   42.2450 C   0  0  0  0  0  0  0  0  0  0  0  0
   37.2600   27.2890   43.4100 C   0  0  0  0  0  3  0  0  0  0  0  0
   37.4440   28.6550   43.3760 C   0  0  0  0  0  0  0  0  0  0  0  0
   37.5380   29.1470   44.3320 H   0  0  0  0  0  0  0  0  0  0  0  0
   37.4940   29.2730   42.1270 C   0  0  0  0  0  0  0  0  0  0  0  0
   37.6390   30.3400   42.1120 H   0  0  0  0  0  0  0  0  0  0  0  0
   37.3560   28.4890   41.0070 C   0  0  0  0  0  3  0  0  0  0  0  0
   37.1710   27.1290   40.9920 C   0  0  0  0  0  0  0  0  0  0  0  0
   33.8580   28.2910   36.0220 S   0  0  0  0  0  0  0  0  0  0  0  0
   32.4750   29.4090   35.9920 C   0  0  0  0  0  0  0  0  0  0  0  0
   31.7790   29.5850   37.1630 C   0  0  0  0  0  0  0  0  0  0  0  0
   30.7130   30.4560   37.1640 C   0  0  0  0  0  0  0  0  0  0  0  0
   30.3320   31.1540   36.0130 C   0  0  0  0  0  0  0  0  0  0  0  0
   29.2920   32.0010   36.0510 N   0  0  0  0  0  0  0  0  0  0  0  0
   28.9070   32.6880   34.9640 C   0  0  0  0  0  0  0  0  0  0  0  0
   29.5980   32.5160   33.7900 C   0  0  0  0  0  0  0  0  0  0  0  0
   30.6770   31.6400   33.7450 C   0  0  0  0  0  0  0  0  0  0  0  0
   31.0900   30.9170   34.8670 C   0  0  0  0  0  0  0  0  0  0  0  0
   32.1580   30.0560   34.8300 C   0  0  0  0  0  0  0  0  0  0  0  0
   31.9310   29.1340   38.1300 H   0  0  0  0  0  0  0  0  0  0  0  0
   30.0980   30.6630   38.0430 H   0  0  0  0  0  0  0  0  0  0  0  0
   28.0680   33.3700   35.0010 H   0  0  0  0  0  0  0  0  0  0  0  0
   29.2730   33.0790   32.9270 H   0  0  0  0  0  0  0  0  0  0  0  0
   31.2190   31.5100   32.8100 H   0  0  0  0  0  0  0  0  0  0  0  0
   32.7060   29.9080   33.9320 H   0  0  0  0  0  0  0  0  0  0  0  0
  1 24  1  0  0  0  0
  1  3  1  0  0  0  0
  1  8  1  0  0  0  0
  2  1  1  0  0  0  0
  4  5  1  0  0  0  0
  5 11  1  0  0  0  0
  5  6  2  0  0  0  0
  6 12  1  0  0  0  0
  7  6  1  0  0  0  0
  8  7  2  0  0  0  0
  9  4  2  0  0  0  0
  9  8  1  0  0  0  0
 10  4  1  0  0  0  0
 12 13  2  0  0  0  0
 12 23  1  0  0  0  0
 13 14  1  0  0  0  0
 14 15  2  0  0  0  0
 16 15  1  0  0  0  0
 16 17  1  0  0  0  0
 18 17  2  0  0  0  0
 18 19  1  0  0  0  0
 20 18  1  0  0  0  0
 21 20  1  0  0  0  0
 22 20  2  0  0  0  0
 23 22  1  0  0  0  0
 23 16  2  0  0  0  0
 25 24  1  0  0  0  0
 25 26  1  0  0  0  0
 26 27  2  0  0  0  0
 26 35  1  0  0  0  0
 27 36  1  0  0  0  0
 28 29  1  0  0  0  0
 28 27  1  0  0  0  0
 30 37  1  0  0  0  0
 30 29  2  0  0  0  0
 31 30  1  0  0  0  0
 32 31  2  0  0  0  0
 32 33  1  0  0  0  0
 33 28  2  0  0  0  0
 34 33  1  0  0  0  0
 34 25  2  0  0  0  0
 38 31  1  0  0  0  0
 39 32  1  0  0  0  0
 40 34  1  0  0  0  0
M  END
>  <minimizedAffinity>
-6.15606976

$$$$
