
 OpenBabel03242512493D

 33 36  0  0  1  0  0  0  0  0999 V2000
   36.7250   28.0540   41.5060 N   0  0  0  0  0  0  0  0  0  0  0  0
   37.1550   26.9010   42.2910 C   0  0  0  0  0  0  0  0  0  0  0  0
   36.8150   27.4330   43.6570 C   0  0  0  0  0  0  0  0  0  0  0  0
   37.5150   28.7740   43.6140 C   0  0  0  0  0  0  0  0  0  0  0  0
   37.2310   29.2420   42.1970 C   0  0  1  0  0  0  0  0  0  0  0  0
   38.2260   26.7620   42.1440 H   0  0  0  0  0  0  0  0  0  0  0  0
   36.5500   26.0150   42.0020 H   0  0  0  0  0  0  0  0  0  0  0  0
   37.2330   26.7710   44.4680 H   0  0  0  0  0  0  0  0  0  0  0  0
   35.7250   27.5520   43.7370 H   0  0  0  0  0  0  0  0  0  0  0  0
   36.9880   29.4120   44.3590 H   0  0  0  0  0  0  0  0  0  0  0  0
   38.5780   28.6950   43.8240 H   0  0  0  0  0  0  0  0  0  0  0  0
   36.4220   29.9710   42.1920 H   0  0  0  0  0  0  0  0  0  0  0  0
   38.4560   29.6270   41.4770 C   0  0  0  0  0  0  0  0  0  0  0  0
   39.5620   28.8600   41.4770 N   0  0  0  0  0  0  0  0  0  0  0  0
   40.7040   29.1650   40.8360 C   0  0  0  0  0  3  0  0  0  0  0  0
   40.7550   30.3140   40.1450 N   0  0  0  0  0  0  0  0  0  0  0  0
   39.6950   31.1090   40.1100 C   0  0  0  0  0  0  0  0  0  0  0  0
   39.8200   32.2740   39.3800 C   0  0  0  0  0  3  0  0  0  0  0  0
   38.7010   33.1140   39.3430 C   0  0  0  0  0  0  0  0  0  0  0  0
   38.7480   34.0520   38.7760 H   0  0  0  0  0  0  0  0  0  0  0  0
   37.5010   32.8610   39.9760 C   0  0  0  0  0  0  0  0  0  0  0  0
   36.6910   33.5440   39.9060 H   0  0  0  0  0  0  0  0  0  0  0  0
   37.4530   31.6770   40.6860 C   0  0  0  0  0  3  0  0  0  0  0  0
   38.5030   30.8150   40.7640 C   0  0  0  0  0  0  0  0  0  0  0  0
   34.3060   29.0400   38.8610 C   0  0  0  0  0  0  0  0  0  0  0  0
   34.9560   29.0730   40.0920 C   0  0  0  0  0  0  0  0  0  0  0  0
   35.9760   28.1430   40.3130 C   0  0  0  0  0  0  0  0  0  0  0  0
   36.2840   27.2520   39.3170 N   0  0  0  0  0  0  0  0  0  0  0  0
   35.6290   27.2460   38.1270 C   0  0  0  0  0  0  0  0  0  0  0  0
   34.6340   28.1510   37.9080 N   0  0  0  0  0  0  0  0  0  0  0  0
   33.5270   29.7930   38.7660 H   0  0  0  0  0  0  0  0  0  0  0  0
   34.7280   29.7690   40.8900 H   0  0  0  0  0  0  0  0  0  0  0  0
   35.8940   26.5300   37.3610 H   0  0  0  0  0  0  0  0  0  0  0  0
  1  5  1  0  0  0  0
  1  2  1  0  0  0  0
  2  3  1  0  0  0  0
  3  9  1  0  0  0  0
  3  8  1  0  0  0  0
  4  3  1  0  0  0  0
  4 11  1  0  0  0  0
  4 10  1  0  0  0  0
  5 12  1  6  0  0  0
  5  4  1  0  0  0  0
  6  2  1  0  0  0  0
  7  2  1  0  0  0  0
 13 14  1  0  0  0  0
 13  5  1  0  0  0  0
 15 14  2  0  0  0  0
 16 15  1  0  0  0  0
 17 16  2  0  0  0  0
 17 24  1  0  0  0  0
 18 17  1  0  0  0  0
 19 18  2  0  0  0  0
 19 21  1  0  0  0  0
 20 19  1  0  0  0  0
 21 23  2  0  0  0  0
 22 21  1  0  0  0  0
 23 24  1  0  0  0  0
 24 13  2  0  0  0  0
 25 26  1  0  0  0  0
 26 27  2  0  0  0  0
 26 32  1  0  0  0  0
 27  1  1  0  0  0  0
 28 27  1  0  0  0  0
 29 28  2  0  0  0  0
 30 29  1  0  0  0  0
 30 25  2  0  0  0  0
 31 25  1  0  0  0  0
 33 29  1  0  0  0  0
M  END
>  <minimizedAffinity>
-5.322927

$$$$

 OpenBabel03242512493D

 33 36  0  0  1  0  0  0  0  0999 V2000
   36.6940   29.9480   38.5160 N   0  0  0  0  0  0  0  0  0  0  0  0
   36.3450   29.5400   37.1580 C   0  0  0  0  0  0  0  0  0  0  0  0
   34.8790   29.2860   37.3810 C   0  0  0  0  0  0  0  0  0  0  0  0
   34.9350   28.3700   38.5840 C   0  0  0  0  0  0  0  0  0  0  0  0
   36.0370   29.0000   39.4180 C   0  0  1  0  0  0  0  0  0  0  0  0
   36.9000   28.6340   36.9150 H   0  0  0  0  0  0  0  0  0  0  0  0
   36.5440   30.3820   36.4600 H   0  0  0  0  0  0  0  0  0  0  0  0
   34.4130   28.7760   36.4900 H   0  0  0  0  0  0  0  0  0  0  0  0
   34.3810   30.2360   37.6230 H   0  0  0  0  0  0  0  0  0  0  0  0
   33.9470   28.4710   39.0850 H   0  0  0  0  0  0  0  0  0  0  0  0
   35.1520   27.3400   38.3120 H   0  0  0  0  0  0  0  0  0  0  0  0
   35.6110   29.5880   40.2290 H   0  0  0  0  0  0  0  0  0  0  0  0
   37.0780   28.0300   39.7980 C   0  0  0  0  0  0  0  0  0  0  0  0
   37.6840   27.2350   38.8970 N   0  0  0  0  0  0  0  0  0  0  0  0
   38.6390   26.3340   39.1900 C   0  0  0  0  0  3  0  0  0  0  0  0
   39.0200   26.2130   40.4700 N   0  0  0  0  0  0  0  0  0  0  0  0
   38.4570   26.9700   41.4010 C   0  0  0  0  0  0  0  0  0  0  0  0
   38.9000   26.7890   42.6970 C   0  0  0  0  0  3  0  0  0  0  0  0
   38.3060   27.5880   43.6790 C   0  0  0  0  0  0  0  0  0  0  0  0
   38.6220   27.4840   44.7260 H   0  0  0  0  0  0  0  0  0  0  0  0
   37.3230   28.5300   43.4460 C   0  0  0  0  0  0  0  0  0  0  0  0
   36.9150   29.1030   44.2410 H   0  0  0  0  0  0  0  0  0  0  0  0
   36.9340   28.6520   42.1270 C   0  0  0  0  0  3  0  0  0  0  0  0
   37.4690   27.9070   41.1220 C   0  0  0  0  0  0  0  0  0  0  0  0
   37.9530   32.9540   40.3050 C   0  0  0  0  0  0  0  0  0  0  0  0
   37.0530   31.9610   39.9250 C   0  0  0  0  0  0  0  0  0  0  0  0
   37.4870   31.0120   38.9950 C   0  0  0  0  0  0  0  0  0  0  0  0
   38.7650   31.1040   38.5060 N   0  0  0  0  0  0  0  0  0  0  0  0
   39.6180   32.0870   38.8960 C   0  0  0  0  0  0  0  0  0  0  0  0
   39.1980   33.0140   39.8020 N   0  0  0  0  0  0  0  0  0  0  0  0
   37.5410   33.6510   41.0290 H   0  0  0  0  0  0  0  0  0  0  0  0
   36.0410   31.8700   40.3010 H   0  0  0  0  0  0  0  0  0  0  0  0
   40.6190   32.1340   38.4920 H   0  0  0  0  0  0  0  0  0  0  0  0
  1 27  1  0  0  0  0
  1  5  1  0  0  0  0
  2  3  1  0  0  0  0
  2  1  1  0  0  0  0
  3  9  1  0  0  0  0
  3  4  1  0  0  0  0
  4 10  1  0  0  0  0
  4  5  1  0  0  0  0
  5 13  1  0  0  0  0
  5 12  1  1  0  0  0
  6  2  1  0  0  0  0
  7  2  1  0  0  0  0
  8  3  1  0  0  0  0
 11  4  1  0  0  0  0
 13 24  1  0  0  0  0
 14 15  1  0  0  0  0
 14 13  2  0  0  0  0
 15 16  2  0  0  0  0
 16 17  1  0  0  0  0
 17 18  1  0  0  0  0
 18 19  2  0  0  0  0
 19 20  1  0  0  0  0
 21 19  1  0  0  0  0
 21 22  1  0  0  0  0
 23 21  2  0  0  0  0
 24 17  2  0  0  0  0
 24 23  1  0  0  0  0
 25 31  1  0  0  0  0
 26 32  1  0  0  0  0
 26 25  1  0  0  0  0
 27 26  2  0  0  0  0
 28 29  2  0  0  0  0
 28 27  1  0  0  0  0
 29 30  1  0  0  0  0
 30 25  2  0  0  0  0
 33 29  1  0  0  0  0
M  END
>  <minimizedAffinity>
-5.22581577

$$$$

 OpenBabel03242512493D

 33 36  0  0  1  0  0  0  0  0999 V2000
   37.1470   30.3680   39.8460 N   0  0  0  0  0  0  0  0  0  0  0  0
   37.2740   31.6890   40.4540 C   0  0  0  0  0  0  0  0  0  0  0  0
   38.7250   31.9310   40.1370 C   0  0  0  0  0  0  0  0  0  0  0  0
   39.3430   30.6570   40.6710 C   0  0  0  0  0  0  0  0  0  0  0  0
   38.3300   29.6060   40.2500 C   0  0  1  0  0  0  0  0  0  0  0  0
   37.0820   31.5970   41.5230 H   0  0  0  0  0  0  0  0  0  0  0  0
   36.5880   32.3960   39.9400 H   0  0  0  0  0  0  0  0  0  0  0  0
   39.1140   32.8410   40.6770 H   0  0  0  0  0  0  0  0  0  0  0  0
   38.8480   32.0100   39.0470 H   0  0  0  0  0  0  0  0  0  0  0  0
   40.3000   30.5330   40.1190 H   0  0  0  0  0  0  0  0  0  0  0  0
   39.4920   30.6880   41.7470 H   0  0  0  0  0  0  0  0  0  0  0  0
   38.6760   29.0780   39.3630 H   0  0  0  0  0  0  0  0  0  0  0  0
   37.8930   28.7640   41.3760 C   0  0  0  0  0  0  0  0  0  0  0  0
   37.7260   29.2540   42.6180 N   0  0  0  0  0  0  0  0  0  0  0  0
   37.3290   28.5300   43.6800 C   0  0  0  0  0  3  0  0  0  0  0  0
   37.0790   27.2250   43.4960 N   0  0  0  0  0  0  0  0  0  0  0  0
   37.2270   26.6870   42.2930 C   0  0  0  0  0  0  0  0  0  0  0  0
   36.9520   25.3390   42.1800 C   0  0  0  0  0  3  0  0  0  0  0  0
   37.1080   24.7720   40.9110 C   0  0  0  0  0  0  0  0  0  0  0  0
   36.9010   23.7030   40.7670 H   0  0  0  0  0  0  0  0  0  0  0  0
   37.5100   25.4570   39.7820 C   0  0  0  0  0  0  0  0  0  0  0  0
   37.6080   24.9630   38.8480 H   0  0  0  0  0  0  0  0  0  0  0  0
   37.7660   26.8010   39.9750 C   0  0  0  0  0  3  0  0  0  0  0  0
   37.6360   27.4160   41.1820 C   0  0  0  0  0  0  0  0  0  0  0  0
   34.0350   28.7950   38.5540 C   0  0  0  0  0  0  0  0  0  0  0  0
   34.9270   29.3100   39.4910 C   0  0  0  0  0  0  0  0  0  0  0  0
   36.1440   29.8130   39.0210 C   0  0  0  0  0  0  0  0  0  0  0  0
   36.3980   29.7740   37.6740 N   0  0  0  0  0  0  0  0  0  0  0  0
   35.5060   29.2630   36.7860 C   0  0  0  0  0  0  0  0  0  0  0  0
   34.3190   28.7720   37.2410 N   0  0  0  0  0  0  0  0  0  0  0  0
   33.1140   28.4250   38.9970 H   0  0  0  0  0  0  0  0  0  0  0  0
   34.7450   29.3510   40.5580 H   0  0  0  0  0  0  0  0  0  0  0  0
   35.7350   29.2460   35.7300 H   0  0  0  0  0  0  0  0  0  0  0  0
  1  5  1  0  0  0  0
  1  2  1  0  0  0  0
  2  6  1  0  0  0  0
  3  2  1  0  0  0  0
  3  4  1  0  0  0  0
  3  8  1  0  0  0  0
  4 11  1  0  0  0  0
  5 12  1  6  0  0  0
  5  4  1  0  0  0  0
  5 13  1  0  0  0  0
  7  2  1  0  0  0  0
  9  3  1  0  0  0  0
 10  4  1  0  0  0  0
 13 14  1  0  0  0  0
 14 15  2  0  0  0  0
 16 15  1  0  0  0  0
 17 16  2  0  0  0  0
 18 17  1  0  0  0  0
 19 18  2  0  0  0  0
 20 19  1  0  0  0  0
 21 23  2  0  0  0  0
 21 19  1  0  0  0  0
 22 21  1  0  0  0  0
 23 24  1  0  0  0  0
 24 13  2  0  0  0  0
 24 17  1  0  0  0  0
 25 31  1  0  0  0  0
 25 26  1  0  0  0  0
 26 32  1  0  0  0  0
 27 26  2  0  0  0  0
 27  1  1  0  0  0  0
 28 27  1  0  0  0  0
 29 30  1  0  0  0  0
 29 28  2  0  0  0  0
 30 25  2  0  0  0  0
 33 29  1  0  0  0  0
M  END
>  <minimizedAffinity>
-5.17988062

$$$$

 OpenBabel03242512493D

 33 36  0  0  1  0  0  0  0  0999 V2000
   37.5670   27.9970   41.1990 N   0  0  0  0  0  0  0  0  0  0  0  0
   38.0950   26.9190   42.0300 C   0  0  0  0  0  0  0  0  0  0  0  0
   37.1170   27.0290   43.1690 C   0  0  0  0  0  0  0  0  0  0  0  0
   37.2180   28.5060   43.4810 C   0  0  0  0  0  0  0  0  0  0  0  0
   37.3000   29.1240   42.0950 C   0  0  1  0  0  0  0  0  0  0  0  0
   39.1140   27.1730   42.3200 H   0  0  0  0  0  0  0  0  0  0  0  0
   38.0180   25.9580   41.4770 H   0  0  0  0  0  0  0  0  0  0  0  0
   37.4380   26.3950   44.0440 H   0  0  0  0  0  0  0  0  0  0  0  0
   36.1130   26.7630   42.8090 H   0  0  0  0  0  0  0  0  0  0  0  0
   36.2620   28.7730   43.9820 H   0  0  0  0  0  0  0  0  0  0  0  0
   38.0820   28.7420   44.0960 H   0  0  0  0  0  0  0  0  0  0  0  0
   36.3340   29.5300   41.8020 H   0  0  0  0  0  0  0  0  0  0  0  0
   38.4550   30.0250   41.9500 C   0  0  0  0  0  0  0  0  0  0  0  0
   39.6460   29.7660   42.5190 N   0  0  0  0  0  0  0  0  0  0  0  0
   40.7310   30.5560   42.4180 C   0  0  0  0  0  3  0  0  0  0  0  0
   40.6270   31.6840   41.6990 N   0  0  0  0  0  0  0  0  0  0  0  0
   39.4770   31.9900   41.1160 C   0  0  0  0  0  0  0  0  0  0  0  0
   39.4440   33.1660   40.3930 C   0  0  0  0  0  3  0  0  0  0  0  0
   38.2300   33.4900   39.7770 C   0  0  0  0  0  0  0  0  0  0  0  0
   38.1510   34.4140   39.1900 H   0  0  0  0  0  0  0  0  0  0  0  0
   37.0820   32.7260   39.8410 C   0  0  0  0  0  0  0  0  0  0  0  0
   36.1930   33.0320   39.3490 H   0  0  0  0  0  0  0  0  0  0  0  0
   37.1940   31.5650   40.5810 C   0  0  0  0  0  3  0  0  0  0  0  0
   38.3430   31.1900   41.2070 C   0  0  0  0  0  0  0  0  0  0  0  0
   35.9550   28.2550   37.8580 C   0  0  0  0  0  0  0  0  0  0  0  0
   36.0440   28.1960   39.2470 C   0  0  0  0  0  0  0  0  0  0  0  0
   37.3160   28.0670   39.8120 C   0  0  0  0  0  0  0  0  0  0  0  0
   38.4040   28.0040   38.9790 N   0  0  0  0  0  0  0  0  0  0  0  0
   38.2830   28.0630   37.6270 C   0  0  0  0  0  0  0  0  0  0  0  0
   37.0440   28.1880   37.0740 N   0  0  0  0  0  0  0  0  0  0  0  0
   34.9350   28.3560   37.4970 H   0  0  0  0  0  0  0  0  0  0  0  0
   35.1980   28.2460   39.9210 H   0  0  0  0  0  0  0  0  0  0  0  0
   39.1600   28.0100   36.9970 H   0  0  0  0  0  0  0  0  0  0  0  0
  1  2  1  0  0  0  0
  1  5  1  0  0  0  0
  2  6  1  0  0  0  0
  2  3  1  0  0  0  0
  3  4  1  0  0  0  0
  3  8  1  0  0  0  0
  4 10  1  0  0  0  0
  4 11  1  0  0  0  0
  5 12  1  6  0  0  0
  5  4  1  0  0  0  0
  7  2  1  0  0  0  0
  9  3  1  0  0  0  0
 13  5  1  0  0  0  0
 13 14  1  0  0  0  0
 15 14  2  0  0  0  0
 16 15  1  0  0  0  0
 17 24  1  0  0  0  0
 17 16  2  0  0  0  0
 18 17  1  0  0  0  0
 19 21  1  0  0  0  0
 19 18  2  0  0  0  0
 20 19  1  0  0  0  0
 21 23  2  0  0  0  0
 22 21  1  0  0  0  0
 23 24  1  0  0  0  0
 24 13  2  0  0  0  0
 25 26  1  0  0  0  0
 26 27  2  0  0  0  0
 26 32  1  0  0  0  0
 27  1  1  0  0  0  0
 28 27  1  0  0  0  0
 29 28  2  0  0  0  0
 30 29  1  0  0  0  0
 30 25  2  0  0  0  0
 31 25  1  0  0  0  0
 33 29  1  0  0  0  0
M  END
>  <minimizedAffinity>
-5.14108706

$$$$

 OpenBabel03242512493D

 33 36  0  0  1  0  0  0  0  0999 V2000
   36.6440   29.7120   38.5780 N   0  0  0  0  0  0  0  0  0  0  0  0
   36.3300   29.3680   37.1940 C   0  0  0  0  0  0  0  0  0  0  0  0
   34.8340   29.2860   37.3270 C   0  0  0  0  0  0  0  0  0  0  0  0
   34.7120   28.3520   38.5120 C   0  0  0  0  0  0  0  0  0  0  0  0
   35.8290   28.8350   39.4210 C   0  0  1  0  0  0  0  0  0  0  0  0
   36.7900   28.4070   36.9640 H   0  0  0  0  0  0  0  0  0  0  0  0
   36.6670   30.1910   36.5270 H   0  0  0  0  0  0  0  0  0  0  0  0
   34.3650   28.8470   36.4010 H   0  0  0  0  0  0  0  0  0  0  0  0
   34.4370   30.2840   37.5610 H   0  0  0  0  0  0  0  0  0  0  0  0
   33.7140   28.5620   38.9580 H   0  0  0  0  0  0  0  0  0  0  0  0
   34.8220   27.3080   38.2310 H   0  0  0  0  0  0  0  0  0  0  0  0
   35.4270   29.4580   40.2180 H   0  0  0  0  0  0  0  0  0  0  0  0
   36.7240   27.7440   39.8390 C   0  0  0  0  0  0  0  0  0  0  0  0
   37.1250   26.7780   38.9920 N   0  0  0  0  0  0  0  0  0  0  0  0
   37.9410   25.7610   39.3220 C   0  0  0  0  0  3  0  0  0  0  0  0
   38.3930   25.6970   40.5830 N   0  0  0  0  0  0  0  0  0  0  0  0
   38.0310   26.6220   41.4610 C   0  0  0  0  0  0  0  0  0  0  0  0
   38.5350   26.4920   42.7400 C   0  0  0  0  0  3  0  0  0  0  0  0
   38.1530   27.4670   43.6670 C   0  0  0  0  0  0  0  0  0  0  0  0
   38.5260   27.4100   44.6980 H   0  0  0  0  0  0  0  0  0  0  0  0
   37.3210   28.5350   43.3940 C   0  0  0  0  0  0  0  0  0  0  0  0
   37.0710   29.2400   44.1470 H   0  0  0  0  0  0  0  0  0  0  0  0
   36.8580   28.5970   42.0940 C   0  0  0  0  0  3  0  0  0  0  0  0
   37.1890   27.6820   41.1430 C   0  0  0  0  0  0  0  0  0  0  0  0
   39.6620   31.5980   39.6550 C   0  0  0  0  0  0  0  0  0  0  0  0
   38.9210   30.5730   39.0710 C   0  0  0  0  0  0  0  0  0  0  0  0
   37.5270   30.6680   39.1240 C   0  0  0  0  0  0  0  0  0  0  0  0
   36.9630   31.7530   39.7440 N   0  0  0  0  0  0  0  0  0  0  0  0
   37.7150   32.7360   40.3050 C   0  0  0  0  0  0  0  0  0  0  0  0
   39.0740   32.6460   40.2540 N   0  0  0  0  0  0  0  0  0  0  0  0
   40.7360   31.4510   39.5710 H   0  0  0  0  0  0  0  0  0  0  0  0
   39.3470   29.7090   38.5760 H   0  0  0  0  0  0  0  0  0  0  0  0
   37.2410   33.5790   40.7870 H   0  0  0  0  0  0  0  0  0  0  0  0
  1 27  1  0  0  0  0
  1  5  1  0  0  0  0
  2  3  1  0  0  0  0
  2  1  1  0  0  0  0
  3  9  1  0  0  0  0
  3  4  1  0  0  0  0
  4 10  1  0  0  0  0
  4  5  1  0  0  0  0
  5 13  1  0  0  0  0
  5 12  1  1  0  0  0
  6  2  1  0  0  0  0
  7  2  1  0  0  0  0
  8  3  1  0  0  0  0
 11  4  1  0  0  0  0
 13 24  1  0  0  0  0
 14 15  1  0  0  0  0
 14 13  2  0  0  0  0
 15 16  2  0  0  0  0
 16 17  1  0  0  0  0
 17 18  1  0  0  0  0
 18 19  2  0  0  0  0
 19 20  1  0  0  0  0
 21 19  1  0  0  0  0
 21 22  1  0  0  0  0
 23 21  2  0  0  0  0
 24 17  2  0  0  0  0
 24 23  1  0  0  0  0
 25 30  1  0  0  0  0
 26 27  1  0  0  0  0
 26 25  2  0  0  0  0
 27 28  2  0  0  0  0
 28 29  1  0  0  0  0
 29 33  1  0  0  0  0
 30 29  2  0  0  0  0
 31 25  1  0  0  0  0
 32 26  1  0  0  0  0
M  END
>  <minimizedAffinity>
-5.12880182

$$$$

 OpenBabel03242512493D

 33 36  0  0  1  0  0  0  0  0999 V2000
   36.3630   29.0000   40.2220 N   0  0  0  0  0  0  0  0  0  0  0  0
   34.9440   29.3100   40.0710 C   0  0  0  0  0  0  0  0  0  0  0  0
   34.7540   28.7700   38.6790 C   0  0  0  0  0  0  0  0  0  0  0  0
   35.8850   29.4670   37.9540 C   0  0  0  0  0  0  0  0  0  0  0  0
   37.0130   29.3960   38.9710 C   0  0  1  0  0  0  0  0  0  0  0  0
   34.8180   30.3910   40.1280 H   0  0  0  0  0  0  0  0  0  0  0  0
   34.3640   28.7550   40.8400 H   0  0  0  0  0  0  0  0  0  0  0  0
   33.7490   29.0630   38.2620 H   0  0  0  0  0  0  0  0  0  0  0  0
   34.8970   27.6800   38.6920 H   0  0  0  0  0  0  0  0  0  0  0  0
   36.1070   28.8350   37.0660 H   0  0  0  0  0  0  0  0  0  0  0  0
   35.6350   30.4870   37.6770 H   0  0  0  0  0  0  0  0  0  0  0  0
   37.7050   28.5960   38.7150 H   0  0  0  0  0  0  0  0  0  0  0  0
   37.6120   30.7140   39.2370 C   0  0  0  0  0  0  0  0  0  0  0  0
   36.8720   31.8330   39.3410 N   0  0  0  0  0  0  0  0  0  0  0  0
   37.3700   33.0590   39.5830 C   0  0  0  0  0  3  0  0  0  0  0  0
   38.6970   33.1850   39.7320 N   0  0  0  0  0  0  0  0  0  0  0  0
   39.4750   32.1160   39.6390 C   0  0  0  0  0  0  0  0  0  0  0  0
   40.8310   32.3210   39.8030 C   0  0  0  0  0  3  0  0  0  0  0  0
   41.6520   31.1930   39.7050 C   0  0  0  0  0  0  0  0  0  0  0  0
   42.7380   31.3020   39.8280 H   0  0  0  0  0  0  0  0  0  0  0  0
   41.2070   29.9100   39.4600 C   0  0  0  0  0  0  0  0  0  0  0  0
   41.8880   29.0970   39.3970 H   0  0  0  0  0  0  0  0  0  0  0  0
   39.8400   29.7850   39.3080 C   0  0  0  0  0  3  0  0  0  0  0  0
   38.9840   30.8390   39.3900 C   0  0  0  0  0  0  0  0  0  0  0  0
   38.3250   26.7330   42.4210 C   0  0  0  0  0  0  0  0  0  0  0  0
   37.6360   27.1510   41.2850 C   0  0  0  0  0  0  0  0  0  0  0  0
   37.0850   28.4370   41.2950 C   0  0  0  0  0  0  0  0  0  0  0  0
   37.2480   29.2150   42.4120 N   0  0  0  0  0  0  0  0  0  0  0  0
   37.9260   28.7760   43.5050 C   0  0  0  0  0  0  0  0  0  0  0  0
   38.4630   27.5250   43.4990 N   0  0  0  0  0  0  0  0  0  0  0  0
   38.7220   25.7250   42.3350 H   0  0  0  0  0  0  0  0  0  0  0  0
   37.4970   26.5520   40.3940 H   0  0  0  0  0  0  0  0  0  0  0  0
   38.0370   29.4140   44.3710 H   0  0  0  0  0  0  0  0  0  0  0  0
  1 27  1  0  0  0  0
  2  6  1  0  0  0  0
  2  1  1  0  0  0  0
  2  7  1  0  0  0  0
  3  9  1  0  0  0  0
  3  2  1  0  0  0  0
  4  3  1  0  0  0  0
  4  5  1  0  0  0  0
  5 12  1  6  0  0  0
  5 13  1  0  0  0  0
  5  1  1  0  0  0  0
  8  3  1  0  0  0  0
 10  4  1  0  0  0  0
 11  4  1  0  0  0  0
 13 14  2  0  0  0  0
 13 24  1  0  0  0  0
 14 15  1  0  0  0  0
 15 16  2  0  0  0  0
 17 16  1  0  0  0  0
 17 18  1  0  0  0  0
 19 18  2  0  0  0  0
 19 20  1  0  0  0  0
 21 19  1  0  0  0  0
 22 21  1  0  0  0  0
 23 24  1  0  0  0  0
 23 21  2  0  0  0  0
 24 17  2  0  0  0  0
 25 30  1  0  0  0  0
 26 27  1  0  0  0  0
 26 25  2  0  0  0  0
 27 28  2  0  0  0  0
 28 29  1  0  0  0  0
 29 33  1  0  0  0  0
 30 29  2  0  0  0  0
 31 25  1  0  0  0  0
 32 26  1  0  0  0  0
M  END
>  <minimizedAffinity>
-5.08383322

$$$$

 OpenBabel03242512493D

 33 36  0  0  1  0  0  0  0  0999 V2000
   38.7720   31.2150   39.0290 N   0  0  0  0  0  0  0  0  0  0  0  0
   37.8670   31.9490   38.1490 C   0  0  0  0  0  0  0  0  0  0  0  0
   37.3360   32.9300   39.1580 C   0  0  0  0  0  0  0  0  0  0  0  0
   36.9100   31.9880   40.2640 C   0  0  0  0  0  0  0  0  0  0  0  0
   38.0380   30.9700   40.2720 C   0  0  1  0  0  0  0  0  0  0  0  0
   37.1060   31.2600   37.7840 H   0  0  0  0  0  0  0  0  0  0  0  0
   38.4550   32.4290   37.3370 H   0  0  0  0  0  0  0  0  0  0  0  0
   36.4610   33.5080   38.7440 H   0  0  0  0  0  0  0  0  0  0  0  0
   38.1520   33.5890   39.4850 H   0  0  0  0  0  0  0  0  0  0  0  0
   36.9140   32.5970   41.1950 H   0  0  0  0  0  0  0  0  0  0  0  0
   35.9400   31.5370   40.0750 H   0  0  0  0  0  0  0  0  0  0  0  0
   38.7300   31.1760   41.0870 H   0  0  0  0  0  0  0  0  0  0  0  0
   37.5450   29.5860   40.1740 C   0  0  0  0  0  0  0  0  0  0  0  0
   37.1560   29.0420   39.0060 N   0  0  0  0  0  0  0  0  0  0  0  0
   36.6990   27.7850   38.8620 C   0  0  0  0  0  3  0  0  0  0  0  0
   36.6230   27.0110   39.9550 N   0  0  0  0  0  0  0  0  0  0  0  0
   36.9930   27.4950   41.1330 C   0  0  0  0  0  0  0  0  0  0  0  0
   36.8860   26.6410   42.2130 C   0  0  0  0  0  3  0  0  0  0  0  0
   37.2760   27.1510   43.4560 C   0  0  0  0  0  0  0  0  0  0  0  0
   37.2110   26.5130   44.3470 H   0  0  0  0  0  0  0  0  0  0  0  0
   37.7520   28.4290   43.6720 C   0  0  0  0  0  0  0  0  0  0  0  0
   38.0310   28.7510   44.6450 H   0  0  0  0  0  0  0  0  0  0  0  0
   37.8300   29.2220   42.5440 C   0  0  0  0  0  3  0  0  0  0  0  0
   37.4670   28.7900   41.3060 C   0  0  0  0  0  0  0  0  0  0  0  0
   41.8900   29.7100   37.6730 C   0  0  0  0  0  0  0  0  0  0  0  0
   40.5480   30.0810   37.7140 C   0  0  0  0  0  0  0  0  0  0  0  0
   40.0990   30.7730   38.8430 C   0  0  0  0  0  0  0  0  0  0  0  0
   40.9930   31.0490   39.8460 N   0  0  0  0  0  0  0  0  0  0  0  0
   42.2960   30.6720   39.7750 C   0  0  0  0  0  0  0  0  0  0  0  0
   42.7370   29.9980   38.6760 N   0  0  0  0  0  0  0  0  0  0  0  0
   42.1600   29.1780   36.7650 H   0  0  0  0  0  0  0  0  0  0  0  0
   39.8270   29.8730   36.9330 H   0  0  0  0  0  0  0  0  0  0  0  0
   42.9770   30.9040   40.5820 H   0  0  0  0  0  0  0  0  0  0  0  0
  1  5  1  0  0  0  0
  2  1  1  0  0  0  0
  2  3  1  0  0  0  0
  3  9  1  0  0  0  0
  3  4  1  0  0  0  0
  4  5  1  0  0  0  0
  4 10  1  0  0  0  0
  5 12  1  1  0  0  0
  6  2  1  0  0  0  0
  7  2  1  0  0  0  0
  8  3  1  0  0  0  0
 11  4  1  0  0  0  0
 13  5  1  0  0  0  0
 13 24  1  0  0  0  0
 14 13  2  0  0  0  0
 15 14  1  0  0  0  0
 15 16  2  0  0  0  0
 16 17  1  0  0  0  0
 17 24  2  0  0  0  0
 17 18  1  0  0  0  0
 18 19  2  0  0  0  0
 19 21  1  0  0  0  0
 19 20  1  0  0  0  0
 21 22  1  0  0  0  0
 23 21  2  0  0  0  0
 24 23  1  0  0  0  0
 25 26  2  0  0  0  0
 25 30  1  0  0  0  0
 26 27  1  0  0  0  0
 27  1  1  0  0  0  0
 27 28  2  0  0  0  0
 29 28  1  0  0  0  0
 29 33  1  0  0  0  0
 30 29  2  0  0  0  0
 31 25  1  0  0  0  0
 32 26  1  0  0  0  0
M  END
>  <minimizedAffinity>
-5.06117678

$$$$

 OpenBabel03242512493D

 33 36  0  0  1  0  0  0  0  0999 V2000
   38.6080   24.9960   41.3220 N   0  0  0  0  0  0  0  0  0  0  0  0
   37.6510   24.0350   41.8620 C   0  0  0  0  0  0  0  0  0  0  0  0
   36.8960   23.7480   40.5930 C   0  0  0  0  0  0  0  0  0  0  0  0
   36.5650   25.1540   40.1430 C   0  0  0  0  0  0  0  0  0  0  0  0
   37.8460   25.9060   40.4630 C   0  0  1  0  0  0  0  0  0  0  0  0
   37.0430   24.5370   42.6140 H   0  0  0  0  0  0  0  0  0  0  0  0
   38.2020   23.1520   42.2550 H   0  0  0  0  0  0  0  0  0  0  0  0
   35.9650   23.1470   40.8000 H   0  0  0  0  0  0  0  0  0  0  0  0
   37.5650   23.2460   39.8800 H   0  0  0  0  0  0  0  0  0  0  0  0
   36.4040   25.0880   39.0440 H   0  0  0  0  0  0  0  0  0  0  0  0
   35.6990   25.5620   40.6580 H   0  0  0  0  0  0  0  0  0  0  0  0
   38.4380   26.0490   39.5610 H   0  0  0  0  0  0  0  0  0  0  0  0
   37.6030   27.1080   41.2780 C   0  0  0  0  0  0  0  0  0  0  0  0
   37.6920   27.0970   42.6210 N   0  0  0  0  0  0  0  0  0  0  0  0
   37.4800   28.1650   43.4100 C   0  0  0  0  0  3  0  0  0  0  0  0
   37.1560   29.3290   42.8260 N   0  0  0  0  0  0  0  0  0  0  0  0
   37.0540   29.3980   41.5060 C   0  0  0  0  0  0  0  0  0  0  0  0
   36.7170   30.6280   40.9760 C   0  0  0  0  0  3  0  0  0  0  0  0
   36.6090   30.7010   39.5830 C   0  0  0  0  0  0  0  0  0  0  0  0
   36.3440   31.6560   39.1110 H   0  0  0  0  0  0  0  0  0  0  0  0
   36.8130   29.6450   38.7170 C   0  0  0  0  0  0  0  0  0  0  0  0
   36.7130   29.7710   37.6670 H   0  0  0  0  0  0  0  0  0  0  0  0
   37.1470   28.4490   39.3230 C   0  0  0  0  0  3  0  0  0  0  0  0
   37.2680   28.3070   40.6700 C   0  0  0  0  0  0  0  0  0  0  0  0
   42.0240   25.2100   42.7730 C   0  0  0  0  0  0  0  0  0  0  0  0
   40.6400   25.0570   42.7480 C   0  0  0  0  0  0  0  0  0  0  0  0
   40.0000   25.1320   41.5070 C   0  0  0  0  0  0  0  0  0  0  0  0
   40.7590   25.3520   40.3860 N   0  0  0  0  0  0  0  0  0  0  0  0
   42.1080   25.4970   40.4450 C   0  0  0  0  0  0  0  0  0  0  0  0
   42.7350   25.4250   41.6530 N   0  0  0  0  0  0  0  0  0  0  0  0
   42.4450   25.1380   43.7720 H   0  0  0  0  0  0  0  0  0  0  0  0
   40.0240   24.8820   43.6210 H   0  0  0  0  0  0  0  0  0  0  0  0
   42.6790   25.6690   39.5430 H   0  0  0  0  0  0  0  0  0  0  0  0
  1 27  1  0  0  0  0
  1  2  1  0  0  0  0
  2  7  1  0  0  0  0
  2  6  1  0  0  0  0
  3  8  1  0  0  0  0
  3  2  1  0  0  0  0
  4  5  1  0  0  0  0
  4  3  1  0  0  0  0
  4 11  1  0  0  0  0
  5 12  1  6  0  0  0
  5 13  1  0  0  0  0
  5  1  1  0  0  0  0
  9  3  1  0  0  0  0
 10  4  1  0  0  0  0
 13 14  1  0  0  0  0
 14 15  2  0  0  0  0
 16 15  1  0  0  0  0
 17 16  2  0  0  0  0
 18 17  1  0  0  0  0
 19 18  2  0  0  0  0
 20 19  1  0  0  0  0
 21 23  2  0  0  0  0
 21 19  1  0  0  0  0
 22 21  1  0  0  0  0
 23 24  1  0  0  0  0
 24 13  2  0  0  0  0
 24 17  1  0  0  0  0
 25 31  1  0  0  0  0
 26 25  1  0  0  0  0
 26 32  1  0  0  0  0
 27 26  2  0  0  0  0
 28 29  2  0  0  0  0
 28 27  1  0  0  0  0
 29 30  1  0  0  0  0
 30 25  2  0  0  0  0
 33 29  1  0  0  0  0
M  END
>  <minimizedAffinity>
-5.04846478

$$$$

 OpenBabel03242512493D

 33 36  0  0  1  0  0  0  0  0999 V2000
   38.1950   27.5010   41.6640 N   0  0  0  0  0  0  0  0  0  0  0  0
   39.2140   28.2520   42.3920 C   0  0  0  0  0  0  0  0  0  0  0  0
   38.2970   29.0880   43.2420 C   0  0  0  0  0  0  0  0  0  0  0  0
   37.3780   29.6570   42.1840 C   0  0  0  0  0  0  0  0  0  0  0  0
   37.1720   28.4680   41.2610 C   0  0  1  0  0  0  0  0  0  0  0  0
   39.7850   28.8420   41.6760 H   0  0  0  0  0  0  0  0  0  0  0  0
   39.8380   27.5460   42.9810 H   0  0  0  0  0  0  0  0  0  0  0  0
   38.8660   29.8990   43.7800 H   0  0  0  0  0  0  0  0  0  0  0  0
   37.7510   28.4330   43.9370 H   0  0  0  0  0  0  0  0  0  0  0  0
   36.4360   29.9200   42.7130 H   0  0  0  0  0  0  0  0  0  0  0  0
   37.8120   30.5130   41.6730 H   0  0  0  0  0  0  0  0  0  0  0  0
   36.2090   27.9980   41.4560 H   0  0  0  0  0  0  0  0  0  0  0  0
   37.4640   28.7900   39.8550 C   0  0  0  0  0  0  0  0  0  0  0  0
   38.7160   29.0150   39.4140 N   0  0  0  0  0  0  0  0  0  0  0  0
   39.0370   29.3130   38.1420 C   0  0  0  0  0  3  0  0  0  0  0  0
   38.0450   29.3940   37.2420 N   0  0  0  0  0  0  0  0  0  0  0  0
   36.7920   29.1820   37.6210 C   0  0  0  0  0  0  0  0  0  0  0  0
   35.8250   29.2830   36.6400 C   0  0  0  0  0  3  0  0  0  0  0  0
   34.5030   29.0600   37.0390 C   0  0  0  0  0  0  0  0  0  0  0  0
   33.6950   29.1280   36.2980 H   0  0  0  0  0  0  0  0  0  0  0  0
   34.1060   28.7510   38.3250 C   0  0  0  0  0  0  0  0  0  0  0  0
   33.0820   28.5950   38.5590 H   0  0  0  0  0  0  0  0  0  0  0  0
   35.1300   28.6680   39.2480 C   0  0  0  0  0  3  0  0  0  0  0  0
   36.4370   28.8740   38.9290 C   0  0  0  0  0  0  0  0  0  0  0  0
   37.0730   23.9720   41.3340 C   0  0  0  0  0  0  0  0  0  0  0  0
   37.0300   25.3080   41.7240 C   0  0  0  0  0  0  0  0  0  0  0  0
   38.0960   26.1300   41.3460 C   0  0  0  0  0  0  0  0  0  0  0  0
   39.1220   25.5840   40.6170 N   0  0  0  0  0  0  0  0  0  0  0  0
   39.1330   24.2760   40.2540 C   0  0  0  0  0  0  0  0  0  0  0  0
   38.0960   23.4720   40.6210 N   0  0  0  0  0  0  0  0  0  0  0  0
   36.2090   23.4010   41.6660 H   0  0  0  0  0  0  0  0  0  0  0  0
   36.2290   25.7570   42.2980 H   0  0  0  0  0  0  0  0  0  0  0  0
   39.9570   23.8750   39.6790 H   0  0  0  0  0  0  0  0  0  0  0  0
  1  2  1  0  0  0  0
  2  7  1  0  0  0  0
  2  3  1  0  0  0  0
  3  8  1  0  0  0  0
  3  9  1  0  0  0  0
  4 10  1  0  0  0  0
  4  3  1  0  0  0  0
  5 12  1  1  0  0  0
  5  1  1  0  0  0  0
  5  4  1  0  0  0  0
  6  2  1  0  0  0  0
 11  4  1  0  0  0  0
 13  5  1  0  0  0  0
 14 13  1  0  0  0  0
 15 14  2  0  0  0  0
 16 17  2  0  0  0  0
 16 15  1  0  0  0  0
 17 24  1  0  0  0  0
 18 19  2  0  0  0  0
 18 17  1  0  0  0  0
 19 21  1  0  0  0  0
 20 19  1  0  0  0  0
 21 22  1  0  0  0  0
 21 23  2  0  0  0  0
 24 23  1  0  0  0  0
 24 13  2  0  0  0  0
 25 31  1  0  0  0  0
 25 26  1  0  0  0  0
 26 32  1  0  0  0  0
 27  1  1  0  0  0  0
 27 26  2  0  0  0  0
 28 27  1  0  0  0  0
 29 28  2  0  0  0  0
 29 30  1  0  0  0  0
 30 25  2  0  0  0  0
 33 29  1  0  0  0  0
M  END
>  <minimizedAffinity>
-5.01072216

$$$$
