
 OpenBabel03252506093D

 33 36  0  0  0  0  0  0  0  0999 V2000
   44.8710   33.6040   41.1110 F   0  0  0  0  0  0  0  0  0  0  0  0
   46.1110   34.0820   40.9610 C   0  0  0  0  0  0  0  0  0  0  0  0
   46.7120   34.7650   41.9980 C   0  0  0  0  0  0  0  0  0  0  0  0
   47.9910   35.2930   41.9270 C   0  0  0  0  0  0  0  0  0  0  0  0
   48.7220   35.1330   40.7510 C   0  0  0  0  0  0  0  0  0  0  0  0
   48.0860   34.4430   39.7320 C   0  0  0  0  0  0  0  0  0  0  0  0
   46.8210   33.9150   39.7870 C   0  0  0  0  0  0  0  0  0  0  0  0
   48.4010   35.8190   42.7790 H   0  0  0  0  0  0  0  0  0  0  0  0
   49.7240   35.5310   40.6600 H   0  0  0  0  0  0  0  0  0  0  0  0
   48.7100   34.3460   38.8380 H   0  0  0  0  0  0  0  0  0  0  0  0
   46.2340   33.1910   38.6590 C   0  0  0  0  0  0  0  0  0  0  0  0
   44.9590   32.7660   38.8820 N   0  0  0  0  0  0  0  0  0  0  0  0
   44.2980   32.0810   37.9130 C   0  0  0  0  0  0  0  0  0  0  0  0
   44.9060   31.8190   36.7230 N   0  0  0  0  0  0  0  0  0  0  0  0
   46.1600   32.2230   36.4690 C   0  0  0  0  0  0  0  0  0  0  0  0
   46.8060   31.9790   35.2710 C   0  0  0  0  0  0  0  0  0  0  0  0
   48.0990   32.4160   35.0450 C   0  0  0  0  0  0  0  0  0  0  0  0
   48.6480   32.2600   34.1460 H   0  0  0  0  0  0  0  0  0  0  0  0
   48.7170   33.1080   36.0710 C   0  0  0  0  0  0  0  0  0  0  0  0
   49.7420   33.4660   35.9230 H   0  0  0  0  0  0  0  0  0  0  0  0
   48.1340   33.3930   37.3050 C   0  0  0  0  0  0  0  0  0  0  0  0
   46.8500   32.9190   37.4360 C   0  0  0  0  0  0  0  0  0  0  0  0
   45.4270   34.2210   45.4160 C   0  0  0  0  0  0  0  0  0  0  0  0
   44.5980   35.3440   45.5880 C   0  0  0  0  0  0  0  0  0  0  0  0
   44.4810   36.2860   44.5310 C   0  0  0  0  0  0  0  0  0  0  0  0
   45.1970   36.0270   43.4000 N   0  0  0  0  0  0  0  0  0  0  0  0
   45.9750   34.9580   43.2630 C   0  0  0  0  0  0  0  0  0  0  0  0
   46.0850   34.0700   44.2610 N   0  0  0  0  0  0  0  0  0  0  0  0
   44.0560   35.4860   46.5130 H   0  0  0  0  0  0  0  0  0  0  0  0
   43.8600   37.1490   44.6320 H   0  0  0  0  0  0  0  0  0  0  0  0
   45.5420   33.2890   46.4630 N   0  0  0  0  0  0  0  0  0  0  0  0
   46.3880   32.7580   46.7800 H   0  0  0  0  0  0  0  0  0  0  0  0
   44.8120   32.9470   47.1250 H   0  0  0  0  0  0  0  0  0  0  0  0
  2  1  1  0  0  0  0
  2  3  1  0  0  0  0
  3 27  1  0  0  0  0
  4  3  2  0  0  0  0
  4  8  1  0  0  0  0
  5  4  1  0  0  0  0
  6  7  1  0  0  0  0
  6  5  2  0  0  0  0
  7  2  2  0  0  0  0
  9  5  1  0  0  0  0
 10  6  1  0  0  0  0
 11 12  1  0  0  0  0
 11  7  1  0  0  0  0
 13 12  2  0  0  0  0
 14 13  1  0  0  0  0
 15 14  2  0  0  0  0
 15 22  1  0  0  0  0
 16 15  1  0  0  0  0
 17 16  2  0  0  0  0
 17 19  1  0  0  0  0
 18 17  1  0  0  0  0
 19 21  2  0  0  0  0
 20 19  1  0  0  0  0
 21 22  1  0  0  0  0
 22 11  2  0  0  0  0
 23 24  1  0  0  0  0
 23 31  1  0  0  0  0
 24 29  1  0  0  0  0
 25 30  1  0  0  0  0
 25 24  2  0  0  0  0
 26 25  1  0  0  0  0
 27 26  2  0  0  0  0
 27 28  1  0  0  0  0
 28 23  2  0  0  0  0
 31 32  1  0  0  0  0
 31 33  1  0  0  0  0
M  END
>  <minimizedAffinity>
-6.8574934

>  <minimizedRMSD>
0.382932425

$$$$
