
 OpenBabel03242513573D

 37 41  0  0  0  0  0  0  0  0999 V2000
   44.7420   35.2890   44.7830 C   0  0  0  0  0  0  0  0  0  0  0  0
   44.6870   34.8930   43.4520 C   0  0  0  0  0  0  0  0  0  0  0  0
   45.0790   33.5830   43.1920 C   0  0  0  0  0  0  0  0  0  0  0  0
   45.4730   32.8020   44.2030 N   0  0  0  0  0  0  0  0  0  0  0  0
   45.5230   33.1850   45.4730 C   0  0  0  0  0  0  0  0  0  0  0  0
   45.1470   34.4510   45.7290 N   0  0  0  0  0  0  0  0  0  0  0  0
   44.4350   36.3090   44.9600 H   0  0  0  0  0  0  0  0  0  0  0  0
   45.0960   33.1190   42.2190 H   0  0  0  0  0  0  0  0  0  0  0  0
   45.9180   32.5030   46.7260 C   0  0  0  0  0  0  0  0  0  0  0  0
   45.4670   32.8180   47.9360 N   0  0  0  0  0  0  0  0  0  0  0  0
   45.8300   32.1960   49.0550 C   0  0  0  0  0  0  0  0  0  0  0  0
   46.7100   31.1690   49.0480 N   0  0  0  0  0  0  0  0  0  0  0  0
   47.2320   30.7700   47.8530 C   0  0  0  0  0  0  0  0  0  0  0  0
   48.1220   29.7250   47.8810 C   0  0  0  0  0  0  0  0  0  0  0  0
   48.6690   29.2940   46.6920 C   0  0  0  0  0  0  0  0  0  0  0  0
   49.3600   28.4710   46.7830 H   0  0  0  0  0  0  0  0  0  0  0  0
   48.2930   29.9380   45.5320 C   0  0  0  0  0  0  0  0  0  0  0  0
   48.7490   29.5610   44.6340 H   0  0  0  0  0  0  0  0  0  0  0  0
   47.3930   30.9790   45.5880 C   0  0  0  0  0  0  0  0  0  0  0  0
   46.8120   31.4560   46.7400 C   0  0  0  0  0  0  0  0  0  0  0  0
   44.2840   35.6810   42.4030 O   0  0  0  0  0  0  0  0  0  0  0  0
   43.5150   35.2410   41.3320 C   0  0  0  0  0  0  0  0  0  0  0  0
   43.9750   34.6630   40.1630 C   0  0  0  0  0  0  0  0  0  0  0  0
   43.0730   34.2800   39.1910 C   0  0  0  0  0  0  0  0  0  0  0  0
   41.7070   34.4550   39.3440 C   0  0  0  0  0  0  0  0  0  0  0  0
   40.8990   34.0520   38.3400 N   0  0  0  0  0  0  0  0  0  0  0  0
   39.5580   34.2170   38.4690 C   0  0  0  0  0  0  0  0  0  0  0  0
   39.0660   34.7810   39.6040 C   0  0  0  0  0  0  0  0  0  0  0  0
   39.9150   35.2000   40.6500 C   0  0  0  0  0  0  0  0  0  0  0  0
   41.2680   35.0370   40.5270 C   0  0  0  0  0  0  0  0  0  0  0  0
   42.1360   35.4350   41.5240 C   0  0  0  0  0  0  0  0  0  0  0  0
   45.0360   34.5470   40.0860 H   0  0  0  0  0  0  0  0  0  0  0  0
   43.4330   33.8280   38.2770 H   0  0  0  0  0  0  0  0  0  0  0  0
   38.8700   33.9160   37.7050 H   0  0  0  0  0  0  0  0  0  0  0  0
   38.0210   34.9680   39.8310 H   0  0  0  0  0  0  0  0  0  0  0  0
   39.5670   35.6530   41.5680 H   0  0  0  0  0  0  0  0  0  0  0  0
   41.7100   35.8720   42.3990 H   0  0  0  0  0  0  0  0  0  0  0  0
  1  7  1  0  0  0  0
  1  6  1  0  0  0  0
  2  1  2  0  0  0  0
  3  2  1  0  0  0  0
  3  4  2  0  0  0  0
  4  5  1  0  0  0  0
  5  6  2  0  0  0  0
  5  9  1  0  0  0  0
  8  3  1  0  0  0  0
  9 20  2  0  0  0  0
  9 10  1  0  0  0  0
 10 11  2  0  0  0  0
 12 11  1  0  0  0  0
 13 14  1  0  0  0  0
 13 12  2  0  0  0  0
 15 16  1  0  0  0  0
 15 14  2  0  0  0  0
 17 19  2  0  0  0  0
 17 15  1  0  0  0  0
 18 17  1  0  0  0  0
 19 20  1  0  0  0  0
 20 13  1  0  0  0  0
 21  2  1  0  0  0  0
 22 31  1  0  0  0  0
 22 21  1  0  0  0  0
 23 22  2  0  0  0  0
 24 25  2  0  0  0  0
 24 23  1  0  0  0  0
 25 30  1  0  0  0  0
 26 27  2  0  0  0  0
 26 25  1  0  0  0  0
 27 28  1  0  0  0  0
 28 35  1  0  0  0  0
 28 29  2  0  0  0  0
 29 36  1  0  0  0  0
 30 29  1  0  0  0  0
 30 31  2  0  0  0  0
 31 37  1  0  0  0  0
 32 23  1  0  0  0  0
 33 24  1  0  0  0  0
 34 27  1  0  0  0  0
M  END
>  <minimizedAffinity>
-7.15954018

>  <minimizedRMSD>
1.46911001

$$$$
