
 OpenBabel03252506573D

 41 46  0  0  0  0  0  0  0  0999 V2000
   47.4250   31.3320   45.2710 C   0  0  0  0  0  0  0  0  0  0  0  0
   46.9380   32.6160   45.1300 C   0  0  0  0  0  0  0  0  0  0  0  0
   46.2160   33.2460   46.1260 C   0  0  0  0  0  0  0  0  0  0  0  0
   45.9550   32.5780   47.3330 C   0  0  0  0  0  0  0  0  0  0  0  0
   45.3060   32.8670   48.4930 N   0  0  0  0  0  0  0  0  0  0  0  0
   45.3990   31.7870   49.3130 C   0  0  0  0  0  0  0  0  0  0  0  0
   46.1040   30.8490   48.6440 N   0  0  0  0  0  0  0  0  0  0  0  0
   46.4570   31.3030   47.4330 C   0  0  0  0  0  0  0  0  0  0  0  0
   47.1690   30.6580   46.4730 C   0  0  0  0  0  0  0  0  0  0  0  0
   47.9950   30.8330   44.4820 H   0  0  0  0  0  0  0  0  0  0  0  0
   45.8300   34.2470   46.0300 H   0  0  0  0  0  0  0  0  0  0  0  0
   44.8690   33.7940   48.5830 H   0  0  0  0  0  0  0  0  0  0  0  0
   44.9570   31.7900   50.2890 H   0  0  0  0  0  0  0  0  0  0  0  0
   46.6180   35.0640   42.4030 C   0  0  0  0  0  0  0  0  0  0  0  0
   47.6830   34.7280   41.5710 C   0  0  0  0  0  0  0  0  0  0  0  0
   48.5150   33.6560   41.9460 C   0  0  0  0  0  0  0  0  0  0  0  0
   48.2310   33.0000   43.1140 N   0  0  0  0  0  0  0  0  0  0  0  0
   47.1790   33.3580   43.9030 C   0  0  0  0  0  0  0  0  0  0  0  0
   46.3770   34.3820   43.5520 N   0  0  0  0  0  0  0  0  0  0  0  0
   46.0180   35.8910   42.0650 H   0  0  0  0  0  0  0  0  0  0  0  0
   47.9450   35.2070   40.6550 H   0  0  0  0  0  0  0  0  0  0  0  0
   49.3730   33.2820   41.4080 H   0  0  0  0  0  0  0  0  0  0  0  0
   47.6670   29.2890   46.6740 C   0  0  0  0  0  0  0  0  0  0  0  0
   48.9760   28.8980   46.5840 C   0  0  0  0  0  0  0  0  0  0  0  0
   48.9050   27.5220   46.8570 C   0  0  0  0  0  0  0  0  0  0  0  0
   47.6130   27.1520   47.0900 C   0  0  0  0  0  0  0  0  0  0  0  0
   46.9380   28.2690   46.9610 O   0  0  0  0  0  0  0  0  0  0  0  0
   49.8610   29.4730   46.3610 H   0  0  0  0  0  0  0  0  0  0  0  0
   49.7780   26.9430   46.8900 H   0  0  0  0  0  0  0  0  0  0  0  0
   46.8730   25.9520   47.4200 C   0  0  0  0  0  0  0  0  0  0  0  0
   46.1310   25.9060   48.5600 N   0  0  0  0  0  0  0  0  0  0  0  0
   45.5130   24.8260   48.9900 C   0  0  0  0  0  3  0  0  0  0  0  0
   45.5490   23.6480   48.3420 N   0  0  0  0  0  0  0  0  0  0  0  0
   46.2640   23.5760   47.1800 C   0  0  0  0  0  0  0  0  0  0  0  0
   46.3180   22.4250   46.4630 C   0  0  0  0  0  3  0  0  0  0  0  0
   47.0070   22.3340   45.2690 C   0  0  0  0  0  0  0  0  0  0  0  0
   46.9730   21.3710   44.8000 H   0  0  0  0  0  0  0  0  0  0  0  0
   47.6390   23.5090   44.8570 C   0  0  0  0  0  0  0  0  0  0  0  0
   48.1730   23.4000   43.9050 H   0  0  0  0  0  0  0  0  0  0  0  0
   47.5590   24.6520   45.6120 C   0  0  0  0  0  3  0  0  0  0  0  0
   46.8810   24.7370   46.7930 C   0  0  0  0  0  0  0  0  0  0  0  0
  1  9  1  0  0  0  0
  2  1  2  0  0  0  0
  2  3  1  0  0  0  0
  3  4  2  0  0  0  0
  4  8  1  0  0  0  0
  4  5  1  0  0  0  0
  5 12  1  0  0  0  0
  5  6  1  0  0  0  0
  6 13  1  0  0  0  0
  7  6  2  0  0  0  0
  8  7  1  0  0  0  0
  9 23  1  0  0  0  0
  9  8  2  0  0  0  0
 10  1  1  0  0  0  0
 11  3  1  0  0  0  0
 14 19  1  0  0  0  0
 15 16  1  0  0  0  0
 15 14  2  0  0  0  0
 16 17  2  0  0  0  0
 17 18  1  0  0  0  0
 18  2  1  0  0  0  0
 19 18  2  0  0  0  0
 20 14  1  0  0  0  0
 21 15  1  0  0  0  0
 22 16  1  0  0  0  0
 23 27  1  0  0  0  0
 24 23  2  0  0  0  0
 24 25  1  0  0  0  0
 25 29  1  0  0  0  0
 25 26  2  0  0  0  0
 26 30  1  0  0  0  0
 27 26  1  0  0  0  0
 28 24  1  0  0  0  0
 30 31  1  0  0  0  0
 31 32  2  0  0  0  0
 33 32  1  0  0  0  0
 34 33  2  0  0  0  0
 35 34  1  0  0  0  0
 36 35  2  0  0  0  0
 37 36  1  0  0  0  0
 38 36  1  0  0  0  0
 38 40  2  0  0  0  0
 39 38  1  0  0  0  0
 40 41  1  0  0  0  0
 41 34  1  0  0  0  0
 41 30  2  0  0  0  0
M  END
>  <minimizedAffinity>
-5.8679595

>  <minimizedRMSD>
0.88174212

$$$$
