
 OpenBabel03252507433D

 34 37  0  0  0  0  0  0  0  0999 V2000
   45.9510   34.9880   41.9240 C   0  0  0  0  0  0  0  0  0  0  0  0
   45.4290   35.8160   42.9650 C   0  0  0  0  0  0  0  0  0  0  0  0
   43.6180   35.3950   42.9100 S   0  0  0  0  0  0  0  0  0  0  0  0
   43.9090   34.1860   41.4940 C   0  0  0  0  0  0  0  0  0  0  0  0
   45.0320   34.2740   41.3370 N   0  0  0  0  0  0  0  0  0  0  0  0
   45.9820   36.4940   43.5960 H   0  0  0  0  0  0  0  0  0  0  0  0
   42.6660   33.5350   41.0520 C   0  0  0  0  0  0  0  0  0  0  0  0
   42.0970   32.4440   41.5930 N   0  0  0  0  0  0  0  0  0  0  0  0
   40.9650   31.9040   41.1410 C   0  0  0  0  0  3  0  0  0  0  0  0
   40.3000   32.4220   40.0950 N   0  0  0  0  0  0  0  0  0  0  0  0
   40.7850   33.5060   39.4890 C   0  0  0  0  0  0  0  0  0  0  0  0
   40.1080   34.0420   38.4140 C   0  0  0  0  0  3  0  0  0  0  0  0
   40.6190   35.1760   37.7840 C   0  0  0  0  0  0  0  0  0  0  0  0
   40.0550   35.5630   36.9450 H   0  0  0  0  0  0  0  0  0  0  0  0
   41.7980   35.7040   38.2870 C   0  0  0  0  0  0  0  0  0  0  0  0
   42.0920   36.5860   37.7100 H   0  0  0  0  0  0  0  0  0  0  0  0
   42.4550   35.1510   39.3600 C   0  0  0  0  0  3  0  0  0  0  0  0
   41.9570   34.0330   39.9860 C   0  0  0  0  0  0  0  0  0  0  0  0
   47.3960   34.9980   41.6130 C   0  0  0  0  0  0  0  0  0  0  0  0
   47.9380   34.8910   42.5980 H   0  0  0  0  0  0  0  0  0  0  0  0
   47.7140   35.9870   41.2210 H   0  0  0  0  0  0  0  0  0  0  0  0
   47.8680   33.9180   40.7150 C   0  0  0  0  0  0  0  0  0  0  0  0
   47.0470   33.3730   40.2580 H   0  0  0  0  0  0  0  0  0  0  0  0
   48.3940   34.4300   39.8530 H   0  0  0  0  0  0  0  0  0  0  0  0
   48.8860   33.0300   41.3180 C   0  0  0  0  0  0  0  0  0  0  0  0
   48.5430   31.6610   41.3890 C   0  0  0  0  0  0  0  0  0  0  0  0
   49.4420   30.7630   41.9370 C   0  0  0  0  0  0  0  0  0  0  0  0
   50.6390   31.2550   42.3900 N   0  0  0  0  0  0  0  0  0  0  0  0
   50.9240   32.5730   42.3010 C   0  0  0  0  0  0  0  0  0  0  0  0
   50.0610   33.4360   41.7760 N   0  0  0  0  0  0  0  0  0  0  0  0
   49.1910   29.7240   41.9960 H   0  0  0  0  0  0  0  0  0  0  0  0
   51.8980   32.9000   42.6820 H   0  0  0  0  0  0  0  0  0  0  0  0
   46.9570   31.0900   40.7800 S   0  0  0  0  0  0  0  0  0  0  0  0
   46.0010   31.4030   41.7900 H   0  0  0  0  0  0  0  0  0  0  0  0
  1  2  2  0  0  0  0
  2  6  1  0  0  0  0
  3  2  1  0  0  0  0
  4  3  1  0  0  0  0
  5  4  2  0  0  0  0
  5  1  1  0  0  0  0
  7  4  1  0  0  0  0
  7  8  1  0  0  0  0
  9  8  2  0  0  0  0
 10  9  1  0  0  0  0
 11 18  1  0  0  0  0
 11 10  2  0  0  0  0
 12 11  1  0  0  0  0
 13 15  1  0  0  0  0
 13 12  2  0  0  0  0
 14 13  1  0  0  0  0
 15 17  2  0  0  0  0
 16 15  1  0  0  0  0
 17 18  1  0  0  0  0
 18  7  2  0  0  0  0
 19  1  1  0  0  0  0
 19 20  1  0  0  0  0
 21 19  1  0  0  0  0
 22 25  1  0  0  0  0
 22 19  1  0  0  0  0
 23 22  1  0  0  0  0
 24 22  1  0  0  0  0
 25 26  2  0  0  0  0
 25 30  1  0  0  0  0
 26 27  1  0  0  0  0
 27 31  1  0  0  0  0
 27 28  2  0  0  0  0
 29 28  1  0  0  0  0
 29 32  1  0  0  0  0
 30 29  2  0  0  0  0
 33 26  1  0  0  0  0
 33 34  1  0  0  0  0
M  END
>  <minimizedAffinity>
-5.03722525

>  <minimizedRMSD>
3.05374432

$$$$
