
 OpenBabel03252508173D

 50 55  0  0  1  0  0  0  0  0999 V2000
   46.9060   31.7330   48.2910 C   0  0  1  0  0  0  0  0  0  0  0  0
   46.2300   30.8450   49.2780 C   0  0  0  0  0  0  0  0  0  0  0  0
   47.6360   31.1960   49.4540 C   0  0  1  0  0  0  0  0  0  0  0  0
   46.3910   32.7390   48.2860 H   0  0  0  0  0  0  0  0  0  0  0  0
   46.0080   29.7920   48.9770 H   0  0  0  0  0  0  0  0  0  0  0  0
   45.4920   31.2270   50.0120 H   0  0  0  0  0  0  0  0  0  0  0  0
   47.8690   31.9290   50.2540 H   0  0  0  0  0  0  0  0  0  0  0  0
   48.7350   30.2110   49.2030 C   0  0  2  0  0  0  0  0  0  0  0  0
   49.7180   30.0950   50.3960 C   0  0  0  0  0  0  0  0  0  0  0  0
   50.1640   30.7450   49.1460 C   0  0  1  0  0  0  0  0  0  0  0  0
   48.5240   29.2080   48.7940 H   0  0  0  0  0  0  0  0  0  0  0  0
   49.5850   30.7800   51.2540 H   0  0  0  0  0  0  0  0  0  0  0  0
   50.1080   29.1250   50.6910 H   0  0  0  0  0  0  0  0  0  0  0  0
   50.2560   31.8530   49.1080 H   0  0  0  0  0  0  0  0  0  0  0  0
   51.1630   29.9660   48.3690 C   0  0  0  0  0  0  0  0  0  0  0  0
   52.4680   29.9180   48.6960 N   0  0  0  0  0  0  0  0  0  0  0  0
   53.4010   29.2330   48.0290 C   0  0  0  0  0  3  0  0  0  0  0  0
   53.0550   28.5130   46.9240 N   0  0  0  0  0  0  0  0  0  0  0  0
   51.7500   28.5250   46.5470 C   0  0  0  0  0  0  0  0  0  0  0  0
   51.4500   27.7820   45.4230 C   0  0  0  0  0  3  0  0  0  0  0  0
   50.1130   27.7760   45.0100 C   0  0  0  0  0  0  0  0  0  0  0  0
   49.9130   27.1820   44.1250 H   0  0  0  0  0  0  0  0  0  0  0  0
   49.1430   28.4810   45.6940 C   0  0  0  0  0  0  0  0  0  0  0  0
   48.1140   28.4290   45.3110 H   0  0  0  0  0  0  0  0  0  0  0  0
   49.4650   29.2210   46.8190 C   0  0  0  0  0  3  0  0  0  0  0  0
   50.7960   29.2380   47.2460 C   0  0  0  0  0  0  0  0  0  0  0  0
   47.1180   31.1410   46.9370 C   0  0  0  0  0  0  0  0  0  0  0  0
   48.1070   30.7760   46.6970 H   0  0  0  0  0  0  0  0  0  0  0  0
   46.4220   30.2700   46.7600 H   0  0  0  0  0  0  0  0  0  0  0  0
   46.0370   33.0960   46.1770 C   0  0  0  0  0  3  0  0  0  0  0  0
   46.8430   32.1710   45.8640 C   0  0  0  0  0  3  0  0  0  0  0  0
   44.5240   35.9510   44.3990 C   0  0  0  0  0  0  0  0  0  0  0  0
   45.1620   35.9190   43.1620 C   0  0  0  0  0  0  0  0  0  0  0  0
   46.0700   34.9370   42.9840 C   0  0  0  0  0  0  0  0  0  0  0  0
   46.3290   34.0380   43.9760 N   0  0  0  0  0  0  0  0  0  0  0  0
   45.6920   34.0970   45.1640 C   0  0  0  0  0  0  0  0  0  0  0  0
   44.8040   35.0570   45.3400 N   0  0  0  0  0  0  0  0  0  0  0  0
   43.7860   36.7330   44.5700 H   0  0  0  0  0  0  0  0  0  0  0  0
   44.9680   36.6170   42.3780 H   0  0  0  0  0  0  0  0  0  0  0  0
   46.8190   34.7750   41.7380 C   0  0  0  0  0  0  0  0  0  0  0  0
   48.0340   35.3520   41.4770 C   0  0  0  0  0  0  0  0  0  0  0  0
   48.7320   35.1920   40.2980 C   0  0  0  0  0  0  0  0  0  0  0  0
   48.2010   34.4050   39.2960 C   0  0  0  0  0  0  0  0  0  0  0  0
   46.9890   33.8020   39.5020 C   0  0  0  0  0  0  0  0  0  0  0  0
   46.3230   33.9920   40.7020 C   0  0  0  0  0  0  0  0  0  0  0  0
   48.4710   35.9820   42.2630 H   0  0  0  0  0  0  0  0  0  0  0  0
   49.6840   35.6920   40.1910 H   0  0  0  0  0  0  0  0  0  0  0  0
   48.7720   34.3000   38.3880 H   0  0  0  0  0  0  0  0  0  0  0  0
   46.5780   33.1870   38.7130 H   0  0  0  0  0  0  0  0  0  0  0  0
   45.3720   33.4830   40.7880 H   0  0  0  0  0  0  0  0  0  0  0  0
  1  4  1  1  0  0  0
  1  2  1  0  0  0  0
  1  3  1  0  0  0  0
  2  3  1  0  0  0  0
  2  6  1  0  0  0  0
  3  7  1  1  0  0  0
  5  2  1  0  0  0  0
  8 11  1  6  0  0  0
  8  3  1  0  0  0  0
  8  9  1  0  0  0  0
  9 13  1  0  0  0  0
  9 12  1  0  0  0  0
 10 14  1  1  0  0  0
 10  8  1  0  0  0  0
 10  9  1  0  0  0  0
 15 16  1  0  0  0  0
 15 10  1  0  0  0  0
 17 16  2  0  0  0  0
 18 17  1  0  0  0  0
 19 18  2  0  0  0  0
 19 26  1  0  0  0  0
 20 19  1  0  0  0  0
 21 20  2  0  0  0  0
 21 23  1  0  0  0  0
 22 21  1  0  0  0  0
 23 25  2  0  0  0  0
 24 23  1  0  0  0  0
 25 26  1  0  0  0  0
 26 15  2  0  0  0  0
 27  1  1  0  0  0  0
 28 27  1  0  0  0  0
 29 27  1  0  0  0  0
 31 30  2  0  0  0  0
 31 27  1  0  0  0  0
 32 38  1  0  0  0  0
 32 37  1  0  0  0  0
 33 32  2  0  0  0  0
 34 33  1  0  0  0  0
 34 35  2  0  0  0  0
 35 36  1  0  0  0  0
 36 37  2  0  0  0  0
 36 30  1  0  0  0  0
 39 33  1  0  0  0  0
 40 34  1  0  0  0  0
 41 40  1  0  0  0  0
 41 46  1  0  0  0  0
 42 41  2  0  0  0  0
 43 44  2  0  0  0  0
 43 42  1  0  0  0  0
 44 45  1  0  0  0  0
 45 50  1  0  0  0  0
 45 40  2  0  0  0  0
 47 42  1  0  0  0  0
 48 43  1  0  0  0  0
 49 44  1  0  0  0  0
M  END
>  <minimizedAffinity>
-6.59727621

>  <minimizedRMSD>
1.09744084

$$$$
