
 OpenBabel03252509333D

 43 46  0  0  1  0  0  0  0  0999 V2000
   45.2260   32.6260   40.5670 C   0  0  1  0  0  0  0  0  0  0  0  0
   44.3120   33.3540   41.5160 C   0  0  0  0  0  0  0  0  0  0  0  0
   43.9320   32.2680   42.4860 C   0  0  0  0  0  0  0  0  0  0  0  0
   44.0220   30.9770   41.7190 C   0  0  0  0  0  0  0  0  0  0  0  0
   44.4080   31.3610   40.2850 C   0  0  1  0  0  0  0  0  0  0  0  0
   46.1350   32.2820   41.0960 H   0  0  0  0  0  0  0  0  0  0  0  0
   44.9200   34.0990   42.0910 H   0  0  0  0  0  0  0  0  0  0  0  0
   43.4580   33.8020   41.0100 H   0  0  0  0  0  0  0  0  0  0  0  0
   44.6400   32.2160   43.3550 H   0  0  0  0  0  0  0  0  0  0  0  0
   42.9230   32.4550   42.9100 H   0  0  0  0  0  0  0  0  0  0  0  0
   43.0080   30.5050   41.7250 H   0  0  0  0  0  0  0  0  0  0  0  0
   44.7140   30.2470   42.1630 H   0  0  0  0  0  0  0  0  0  0  0  0
   45.1110   30.6010   39.9260 H   0  0  0  0  0  0  0  0  0  0  0  0
   43.2340   31.6070   39.4480 C   0  0  0  0  0  0  0  0  0  0  0  0
   42.6410   30.6010   38.7770 N   0  0  0  0  0  0  0  0  0  0  0  0
   41.5470   30.7920   37.9890 C   0  0  0  0  0  3  0  0  0  0  0  0
   40.9870   32.0000   37.8290 N   0  0  0  0  0  0  0  0  0  0  0  0
   41.5230   33.0540   38.4690 C   0  0  0  0  0  0  0  0  0  0  0  0
   40.9870   34.3340   38.3420 C   0  0  0  0  0  3  0  0  0  0  0  0
   41.5510   35.4030   39.0040 C   0  0  0  0  0  0  0  0  0  0  0  0
   41.1150   36.3830   38.8900 H   0  0  0  0  0  0  0  0  0  0  0  0
   42.6740   35.2220   39.8180 C   0  0  0  0  0  0  0  0  0  0  0  0
   43.1260   36.0560   40.3420 H   0  0  0  0  0  0  0  0  0  0  0  0
   43.1700   33.9350   39.9100 C   0  0  0  0  0  3  0  0  0  0  0  0
   42.6400   32.8360   39.2680 C   0  0  0  0  0  0  0  0  0  0  0  0
   45.5060   33.3090   39.4040 O   0  0  0  0  0  0  0  0  0  0  0  0
   47.4970   33.8780   37.8400 O   0  0  0  0  0  0  0  0  0  0  0  0
   47.1690   33.5050   39.2510 P   0  0  1  0  0  0  0  0  0  0  0  0
   47.7720   34.6110   40.3560 O   0  0  0  0  0  0  0  0  0  0  0  0
   47.8840   35.4840   39.9030 H   0  0  0  0  0  0  0  0  0  0  0  0
   47.9030   32.0240   39.6380 O   0  0  0  0  0  0  0  0  0  0  0  0
   48.8800   32.2600   40.5590 C   0  0  0  0  0  0  0  0  0  0  0  0
   48.9550   33.2360   41.0120 H   0  0  0  0  0  0  0  0  0  0  0  0
   48.6630   31.5520   41.4130 H   0  0  0  0  0  0  0  0  0  0  0  0
   51.6220   31.1970   38.2770 C   0  0  0  0  0  0  0  0  0  0  0  0
   50.3500   31.5610   38.7330 C   0  0  0  0  0  0  0  0  0  0  0  0
   50.2100   31.8780   40.0730 C   0  0  0  0  0  0  0  0  0  0  0  0
   51.3140   31.8220   40.8860 N   0  0  0  0  0  0  0  0  0  0  0  0
   52.5300   31.4660   40.4060 C   0  0  0  0  0  0  0  0  0  0  0  0
   52.6710   31.1590   39.1240 N   0  0  0  0  0  0  0  0  0  0  0  0
   51.6750   30.9600   37.2290 H   0  0  0  0  0  0  0  0  0  0  0  0
   49.4950   31.5980   38.0790 H   0  0  0  0  0  0  0  0  0  0  0  0
   53.3920   31.4280   41.0700 H   0  0  0  0  0  0  0  0  0  0  0  0
  1  6  1  1  0  0  0
  1  2  1  0  0  0  0
  2  7  1  0  0  0  0
  2  3  1  0  0  0  0
  3 10  1  0  0  0  0
  3  9  1  0  0  0  0
  4 11  1  0  0  0  0
  4 12  1  0  0  0  0
  4  3  1  0  0  0  0
  5 13  1  6  0  0  0
  5  1  1  0  0  0  0
  5  4  1  0  0  0  0
  8  2  1  0  0  0  0
 14  5  1  0  0  0  0
 15 14  2  0  0  0  0
 16 15  1  0  0  0  0
 17 16  2  0  0  0  0
 17 18  1  0  0  0  0
 18 25  1  0  0  0  0
 19 18  2  0  0  0  0
 19 20  1  0  0  0  0
 20 22  2  0  0  0  0
 21 20  1  0  0  0  0
 22 24  1  0  0  0  0
 22 23  1  0  0  0  0
 25 14  1  0  0  0  0
 25 24  2  0  0  0  0
 26  1  1  0  0  0  0
 28 27  2  6  0  0  0
 28 26  1  0  0  0  0
 28 31  1  0  0  0  0
 28 29  1  0  0  0  0
 30 29  1  0  0  0  0
 31 32  1  0  0  0  0
 32 33  1  0  0  0  0
 32 34  1  0  0  0  0
 35 36  2  0  0  0  0
 35 40  1  0  0  0  0
 36 37  1  0  0  0  0
 37 32  1  0  0  0  0
 37 38  2  0  0  0  0
 39 38  1  0  0  0  0
 39 43  1  0  0  0  0
 40 39  2  0  0  0  0
 41 35  1  0  0  0  0
 42 36  1  0  0  0  0
M  END
>  <minimizedAffinity>
-4.15884686

>  <minimizedRMSD>
8.72498035

$$$$
