
 OpenBabel03252509233D

 30 33  0  0  1  0  0  0  0  0999 V2000
   46.4450   34.7330   42.0180 C   0  0  1  0  0  0  0  0  0  0  0  0
   47.9060   35.2520   41.9890 C   0  0  0  0  0  0  0  0  0  0  0  0
   47.4440   33.7960   41.6610 C   0  0  2  0  0  0  0  0  0  0  0  0
   45.7850   35.2480   41.2980 H   0  0  0  0  0  0  0  0  0  0  0  0
   48.4440   35.3990   42.9190 H   0  0  0  0  0  0  0  0  0  0  0  0
   48.1460   35.8860   41.1390 H   0  0  0  0  0  0  0  0  0  0  0  0
   47.7800   33.0540   42.4430 H   0  0  0  0  0  0  0  0  0  0  0  0
   47.7970   33.3760   40.3040 C   0  0  0  0  0  0  0  0  0  0  0  0
   46.9400   33.6780   39.3010 N   0  0  0  0  0  0  0  0  0  0  0  0
   47.2530   33.2960   38.0450 C   0  0  0  0  0  3  0  0  0  0  0  0
   48.3820   32.6200   37.7100 N   0  0  0  0  0  0  0  0  0  0  0  0
   49.2650   32.2970   38.6870 C   0  0  0  0  0  0  0  0  0  0  0  0
   50.4410   31.6120   38.4550 C   0  0  0  0  0  3  0  0  0  0  0  0
   51.3240   31.2970   39.4660 C   0  0  0  0  0  0  0  0  0  0  0  0
   52.2450   30.7620   39.2900 H   0  0  0  0  0  0  0  0  0  0  0  0
   51.0130   31.6850   40.7590 C   0  0  0  0  0  0  0  0  0  0  0  0
   51.7040   31.4380   41.5500 H   0  0  0  0  0  0  0  0  0  0  0  0
   49.8380   32.3640   40.9610 C   0  0  0  0  0  3  0  0  0  0  0  0
   48.9430   32.6880   39.9630 C   0  0  0  0  0  0  0  0  0  0  0  0
   44.5150   35.6110   45.1260 C   0  0  0  0  0  0  0  0  0  0  0  0
   45.0100   35.7100   43.7990 C   0  0  0  0  0  0  0  0  0  0  0  0
   45.9210   34.7470   43.4370 C   0  0  0  0  0  0  0  0  0  0  0  0
   46.3110   33.7590   44.3320 N   0  0  0  0  0  0  0  0  0  0  0  0
   45.8140   33.7080   45.5750 C   0  0  0  0  0  0  0  0  0  0  0  0
   44.9080   34.6450   45.9690 N   0  0  0  0  0  0  0  0  0  0  0  0
   43.7910   36.3590   45.4380 H   0  0  0  0  0  0  0  0  0  0  0  0
   46.1940   32.9030   46.1600 H   0  0  0  0  0  0  0  0  0  0  0  0
   44.6250   36.7460   42.8910 N   0  0  0  0  0  0  0  0  0  0  0  0
   45.4110   37.4110   43.0970 H   0  0  0  0  0  0  0  0  0  0  0  0
   43.7970   36.7520   42.2550 H   0  0  0  0  0  0  0  0  0  0  0  0
  1  4  1  6  0  0  0
  1 22  1  0  0  0  0
  2  1  1  0  0  0  0
  2  5  1  0  0  0  0
  3  2  1  0  0  0  0
  3  1  1  0  0  0  0
  3  7  1  1  0  0  0
  6  2  1  0  0  0  0
  8  3  1  0  0  0  0
  9  8  2  0  0  0  0
 10  9  1  0  0  0  0
 11 10  2  0  0  0  0
 11 12  1  0  0  0  0
 12 19  1  0  0  0  0
 13 12  2  0  0  0  0
 13 14  1  0  0  0  0
 14 16  2  0  0  0  0
 15 14  1  0  0  0  0
 16 18  1  0  0  0  0
 16 17  1  0  0  0  0
 19  8  1  0  0  0  0
 19 18  2  0  0  0  0
 20 26  1  0  0  0  0
 20 25  1  0  0  0  0
 21 20  2  0  0  0  0
 22 21  1  0  0  0  0
 22 23  2  0  0  0  0
 23 24  1  0  0  0  0
 24 25  2  0  0  0  0
 24 27  1  0  0  0  0
 28 29  1  0  0  0  0
 28 21  1  0  0  0  0
 30 28  1  0  0  0  0
M  END
>  <minimizedAffinity>
-5.51470709

>  <minimizedRMSD>
0.982613325

$$$$
