
 OpenBabel03252507433D

 34 37  0  0  0  0  0  0  0  0999 V2000
   43.5670   34.8350   41.6400 C   0  0  0  0  0  0  0  0  0  0  0  0
   42.6460   35.8620   42.0150 C   0  0  0  0  0  0  0  0  0  0  0  0
   41.0140   35.0870   41.5730 S   0  0  0  0  0  0  0  0  0  0  0  0
   41.8820   33.5280   40.9670 C   0  0  0  0  0  0  0  0  0  0  0  0
   42.9760   33.7820   41.1490 N   0  0  0  0  0  0  0  0  0  0  0  0
   42.8840   36.8250   42.4410 H   0  0  0  0  0  0  0  0  0  0  0  0
   40.9340   32.5180   40.4710 C   0  0  0  0  0  0  0  0  0  0  0  0
   40.7930   31.2600   40.9260 N   0  0  0  0  0  0  0  0  0  0  0  0
   39.9120   30.3940   40.4290 C   0  0  0  0  0  3  0  0  0  0  0  0
   39.0860   30.7190   39.4220 N   0  0  0  0  0  0  0  0  0  0  0  0
   39.1480   31.9470   38.9010 C   0  0  0  0  0  0  0  0  0  0  0  0
   38.3040   32.2880   37.8670 C   0  0  0  0  0  3  0  0  0  0  0  0
   38.3740   33.5710   37.3260 C   0  0  0  0  0  0  0  0  0  0  0  0
   37.6920   33.7960   36.5170 H   0  0  0  0  0  0  0  0  0  0  0  0
   39.3050   34.4400   37.8720 C   0  0  0  0  0  0  0  0  0  0  0  0
   39.2600   35.4080   37.3640 H   0  0  0  0  0  0  0  0  0  0  0  0
   40.1360   34.0760   38.9040 C   0  0  0  0  0  3  0  0  0  0  0  0
   40.0740   32.8120   39.4420 C   0  0  0  0  0  0  0  0  0  0  0  0
   45.0200   35.0290   41.8260 C   0  0  0  0  0  0  0  0  0  0  0  0
   45.2560   34.7020   42.8800 H   0  0  0  0  0  0  0  0  0  0  0  0
   45.2880   36.1050   41.7960 H   0  0  0  0  0  0  0  0  0  0  0  0
   45.8940   34.2600   40.9070 C   0  0  0  0  0  0  0  0  0  0  0  0
   45.4940   33.2750   40.6850 H   0  0  0  0  0  0  0  0  0  0  0  0
   45.8750   34.8120   39.9190 H   0  0  0  0  0  0  0  0  0  0  0  0
   47.3160   34.2290   41.3080 C   0  0  0  0  0  0  0  0  0  0  0  0
   47.9910   33.0070   41.0870 C   0  0  0  0  0  0  0  0  0  0  0  0
   49.3260   32.8960   41.4330 C   0  0  0  0  0  0  0  0  0  0  0  0
   49.9370   33.9950   41.9800 N   0  0  0  0  0  0  0  0  0  0  0  0
   49.2510   35.1440   42.1740 C   0  0  0  0  0  0  0  0  0  0  0  0
   47.9690   35.2500   41.8430 N   0  0  0  0  0  0  0  0  0  0  0  0
   49.8460   31.9750   41.2690 H   0  0  0  0  0  0  0  0  0  0  0  0
   49.7990   35.9830   42.6160 H   0  0  0  0  0  0  0  0  0  0  0  0
   47.1270   31.6110   40.3690 S   0  0  0  0  0  0  0  0  0  0  0  0
   46.3660   31.0230   41.4220 H   0  0  0  0  0  0  0  0  0  0  0  0
  1 19  1  0  0  0  0
  1  2  2  0  0  0  0
  2  6  1  0  0  0  0
  3  2  1  0  0  0  0
  4  5  2  0  0  0  0
  4  3  1  0  0  0  0
  5  1  1  0  0  0  0
  7  8  1  0  0  0  0
  7  4  1  0  0  0  0
  9  8  2  0  0  0  0
 10  9  1  0  0  0  0
 11 10  2  0  0  0  0
 11 18  1  0  0  0  0
 12 11  1  0  0  0  0
 13 12  2  0  0  0  0
 13 15  1  0  0  0  0
 14 13  1  0  0  0  0
 15 17  2  0  0  0  0
 16 15  1  0  0  0  0
 17 18  1  0  0  0  0
 18  7  2  0  0  0  0
 19 20  1  0  0  0  0
 21 19  1  0  0  0  0
 22 25  1  0  0  0  0
 22 19  1  0  0  0  0
 23 22  1  0  0  0  0
 24 22  1  0  0  0  0
 25 30  1  0  0  0  0
 26 25  2  0  0  0  0
 26 27  1  0  0  0  0
 27 28  2  0  0  0  0
 28 29  1  0  0  0  0
 29 32  1  0  0  0  0
 30 29  2  0  0  0  0
 31 27  1  0  0  0  0
 33 26  1  0  0  0  0
 33 34  1  0  0  0  0
M  END
>  <minimizedAffinity>
-5.36886787

>  <minimizedRMSD>
2.16619062

$$$$
