
 OpenBabel03252509233D

 30 33  0  0  1  0  0  0  0  0999 V2000
   46.4640   35.0550   41.8870 C   0  0  1  0  0  0  0  0  0  0  0  0
   48.0120   35.0530   41.7940 C   0  0  0  0  0  0  0  0  0  0  0  0
   47.0550   33.9920   41.1610 C   0  0  2  0  0  0  0  0  0  0  0  0
   46.0010   35.9450   41.4250 H   0  0  0  0  0  0  0  0  0  0  0  0
   48.6030   34.7360   42.6460 H   0  0  0  0  0  0  0  0  0  0  0  0
   48.4280   35.7950   41.1160 H   0  0  0  0  0  0  0  0  0  0  0  0
   47.1380   32.9860   41.6660 H   0  0  0  0  0  0  0  0  0  0  0  0
   47.1860   33.9000   39.7060 C   0  0  0  0  0  0  0  0  0  0  0  0
   48.2570   34.4930   39.1260 N   0  0  0  0  0  0  0  0  0  0  0  0
   48.3910   34.4170   37.7850 C   0  0  0  0  0  3  0  0  0  0  0  0
   47.5180   33.7790   36.9650 N   0  0  0  0  0  0  0  0  0  0  0  0
   46.4330   33.1730   37.5070 C   0  0  0  0  0  0  0  0  0  0  0  0
   45.4860   32.4980   36.7630 C   0  0  0  0  0  3  0  0  0  0  0  0
   44.3920   31.8880   37.3380 C   0  0  0  0  0  0  0  0  0  0  0  0
   43.6490   31.3590   36.7620 H   0  0  0  0  0  0  0  0  0  0  0  0
   44.2440   31.9590   38.7150 C   0  0  0  0  0  0  0  0  0  0  0  0
   43.3880   31.4820   39.1650 H   0  0  0  0  0  0  0  0  0  0  0  0
   45.2000   32.6370   39.4280 C   0  0  0  0  0  3  0  0  0  0  0  0
   46.3000   33.2520   38.8710 C   0  0  0  0  0  0  0  0  0  0  0  0
   44.7080   35.3400   45.2010 C   0  0  0  0  0  0  0  0  0  0  0  0
   45.1120   35.6700   43.8810 C   0  0  0  0  0  0  0  0  0  0  0  0
   46.0330   34.8200   43.3170 C   0  0  0  0  0  0  0  0  0  0  0  0
   46.5170   33.7230   44.0180 N   0  0  0  0  0  0  0  0  0  0  0  0
   46.1040   33.4530   45.2630 C   0  0  0  0  0  0  0  0  0  0  0  0
   45.1910   34.2730   45.8540 N   0  0  0  0  0  0  0  0  0  0  0  0
   43.9790   35.9940   45.6710 H   0  0  0  0  0  0  0  0  0  0  0  0
   46.5510   32.5850   45.6890 H   0  0  0  0  0  0  0  0  0  0  0  0
   44.6310   36.8160   43.1750 N   0  0  0  0  0  0  0  0  0  0  0  0
   45.4040   37.4770   43.4390 H   0  0  0  0  0  0  0  0  0  0  0  0
   43.7630   36.8840   42.5970 H   0  0  0  0  0  0  0  0  0  0  0  0
  1  4  1  6  0  0  0
  1 22  1  0  0  0  0
  2  1  1  0  0  0  0
  2  5  1  0  0  0  0
  3  7  1  1  0  0  0
  3  2  1  0  0  0  0
  3  1  1  0  0  0  0
  6  2  1  0  0  0  0
  8  3  1  0  0  0  0
  9  8  1  0  0  0  0
 10  9  2  0  0  0  0
 11 12  2  0  0  0  0
 11 10  1  0  0  0  0
 12 19  1  0  0  0  0
 13 14  2  0  0  0  0
 13 12  1  0  0  0  0
 14 16  1  0  0  0  0
 15 14  1  0  0  0  0
 16 17  1  0  0  0  0
 16 18  2  0  0  0  0
 19 18  1  0  0  0  0
 19  8  2  0  0  0  0
 20 26  1  0  0  0  0
 20 25  1  0  0  0  0
 21 20  2  0  0  0  0
 22 21  1  0  0  0  0
 22 23  2  0  0  0  0
 23 24  1  0  0  0  0
 24 27  1  0  0  0  0
 24 25  2  0  0  0  0
 28 29  1  0  0  0  0
 28 21  1  0  0  0  0
 30 28  1  0  0  0  0
M  END
>  <minimizedAffinity>
-5.74870872

>  <minimizedRMSD>
1.06015885

$$$$
