
 OpenBabel03242515393D

 39 43  0  0  0  0  0  0  0  0999 V2000
   44.0770   34.8130   41.0430 C   0  0  0  0  0  0  0  0  0  0  0  0
   44.0160   34.0460   39.9090 C   0  0  0  0  0  0  0  0  0  0  0  0
   45.2210   33.4580   39.4480 C   0  0  0  0  0  0  0  0  0  0  0  0
   46.3360   33.7170   40.1860 N   0  0  0  0  0  0  0  0  0  0  0  0
   46.3550   34.4650   41.2780 C   0  0  0  0  0  0  0  0  0  0  0  0
   45.2160   34.9960   41.6800 N   0  0  0  0  0  0  0  0  0  0  0  0
   43.0890   33.9090   39.4090 H   0  0  0  0  0  0  0  0  0  0  0  0
   45.0470   32.6680   38.2490 C   0  0  0  0  0  0  0  0  0  0  0  0
   43.9290   31.9470   38.0130 N   0  0  0  0  0  0  0  0  0  0  0  0
   43.7320   31.2070   36.9220 C   0  0  0  0  0  0  0  0  0  0  0  0
   44.6380   31.1010   35.9350 N   0  0  0  0  0  0  0  0  0  0  0  0
   45.7790   31.7790   36.0780 C   0  0  0  0  0  0  0  0  0  0  0  0
   46.7380   31.7010   35.0930 C   0  0  0  0  0  0  0  0  0  0  0  0
   47.9320   32.3840   35.2020 C   0  0  0  0  0  0  0  0  0  0  0  0
   48.6240   32.2630   34.3810 H   0  0  0  0  0  0  0  0  0  0  0  0
   48.1300   33.1580   36.3510 C   0  0  0  0  0  0  0  0  0  0  0  0
   49.0640   33.6820   36.4170 H   0  0  0  0  0  0  0  0  0  0  0  0
   47.1400   33.2020   37.3030 C   0  0  0  0  0  0  0  0  0  0  0  0
   45.9440   32.5310   37.2190 C   0  0  0  0  0  0  0  0  0  0  0  0
   42.5010   35.5390   41.5880 S   0  0  0  0  0  0  0  0  0  0  0  0
   40.3230   35.0210   40.0710 C   0  0  0  0  0  0  0  0  0  0  0  0
   41.1310   34.4970   41.0780 C   0  0  0  0  0  0  0  0  0  0  0  0
   40.8660   33.2720   41.6140 C   0  0  0  0  0  0  0  0  0  0  0  0
   39.7930   32.5120   41.1830 C   0  0  0  0  0  0  0  0  0  0  0  0
   38.9760   33.0450   40.1650 C   0  0  0  0  0  0  0  0  0  0  0  0
   39.2310   34.2930   39.6040 C   0  0  0  0  0  0  0  0  0  0  0  0
   37.9720   32.0840   39.9150 O   0  0  0  0  0  0  0  0  0  0  0  0
   37.9930   31.1850   40.9780 C   0  0  0  0  0  0  0  0  0  0  0  0
   39.2920   31.2570   41.5390 O   0  0  0  0  0  0  0  0  0  0  0  0
   40.4650   35.9800   39.5960 H   0  0  0  0  0  0  0  0  0  0  0  0
   41.5260   32.9120   42.3910 H   0  0  0  0  0  0  0  0  0  0  0  0
   38.5920   34.6760   38.8280 H   0  0  0  0  0  0  0  0  0  0  0  0
   37.1940   31.3850   41.7170 H   0  0  0  0  0  0  0  0  0  0  0  0
   37.9060   30.1540   40.5640 H   0  0  0  0  0  0  0  0  0  0  0  0
   47.4790   34.7130   42.0040 O   0  0  0  0  0  0  0  0  0  0  0  0
   48.6510   35.1570   41.3680 C   0  0  0  0  0  0  0  0  0  0  0  0
   49.7110   34.3140   41.6040 F   0  0  0  0  0  0  0  0  0  0  0  0
   48.3220   35.2680   40.0200 F   0  0  0  0  0  0  0  0  0  0  0  0
   48.9700   36.4050   41.9080 F   0  0  0  0  0  0  0  0  0  0  0  0
  1 20  1  0  0  0  0
  1  6  1  0  0  0  0
  2  1  2  0  0  0  0
  3  2  1  0  0  0  0
  3  4  2  0  0  0  0
  4  5  1  0  0  0  0
  5  6  2  0  0  0  0
  5 35  1  0  0  0  0
  7  2  1  0  0  0  0
  8  3  1  0  0  0  0
  9  8  1  0  0  0  0
 10  9  2  0  0  0  0
 11 12  2  0  0  0  0
 11 10  1  0  0  0  0
 12 19  1  0  0  0  0
 13 14  2  0  0  0  0
 13 12  1  0  0  0  0
 14 16  1  0  0  0  0
 15 14  1  0  0  0  0
 16 17  1  0  0  0  0
 16 18  2  0  0  0  0
 19 18  1  0  0  0  0
 19  8  2  0  0  0  0
 21 22  1  0  0  0  0
 22 20  1  0  0  0  0
 22 23  2  0  0  0  0
 23 31  1  0  0  0  0
 24 29  1  0  0  0  0
 24 23  1  0  0  0  0
 25 24  2  0  0  0  0
 26 21  2  0  0  0  0
 26 25  1  0  0  0  0
 27 25  1  0  0  0  0
 27 28  1  0  0  0  0
 28 29  1  0  0  0  0
 28 33  1  0  0  0  0
 30 21  1  0  0  0  0
 32 26  1  0  0  0  0
 34 28  1  0  0  0  0
 36 37  1  0  0  0  0
 36 39  1  0  0  0  0
 36 35  1  0  0  0  0
 38 36  1  0  0  0  0
M  END
>  <minimizedAffinity>
-6.6552124

>  <minimizedRMSD>
0.83474344

$$$$
