
 OpenBabel03242522123D

 23 25  0  0  0  0  0  0  0  0999 V2000
   46.8200   32.7260   45.1280 C   0  0  0  0  0  0  0  0  0  0  0  0
   47.6750   32.1970   44.2380 N   0  0  0  0  0  0  0  0  0  0  0  0
   47.8730   32.7040   43.0090 C   0  0  0  0  0  0  0  0  0  0  0  0
   47.2120   33.7940   42.5830 N   0  0  0  0  0  0  0  0  0  0  0  0
   46.3430   34.3760   43.4160 C   0  0  0  0  0  0  0  0  0  0  0  0
   45.6540   35.4960   42.9980 C   0  0  0  0  0  0  0  0  0  0  0  0
   44.7380   36.1360   43.8300 C   0  0  0  0  0  0  0  0  0  0  0  0
   44.2490   36.9970   43.4270 H   0  0  0  0  0  0  0  0  0  0  0  0
   44.5650   35.5780   45.0930 C   0  0  0  0  0  0  0  0  0  0  0  0
   43.8540   36.0950   45.7070 H   0  0  0  0  0  0  0  0  0  0  0  0
   45.2690   34.4730   45.4560 C   0  0  0  0  0  0  0  0  0  0  0  0
   46.1650   33.8380   44.6560 C   0  0  0  0  0  0  0  0  0  0  0  0
   45.5780   30.2900   47.6080 C   0  0  0  0  0  0  0  0  0  0  0  0
   45.8450   30.9980   46.4360 C   0  0  0  0  0  0  0  0  0  0  0  0
   46.6600   32.1260   46.4350 C   0  0  0  0  0  0  0  0  0  0  0  0
   47.1360   32.4320   47.6580 N   0  0  0  0  0  0  0  0  0  0  0  0
   46.8950   31.7730   48.7900 C   0  0  0  0  0  0  0  0  0  0  0  0
   46.1110   30.6880   48.7870 N   0  0  0  0  0  0  0  0  0  0  0  0
   44.9470   29.4130   47.6210 H   0  0  0  0  0  0  0  0  0  0  0  0
   47.4440   32.3190   49.5290 H   0  0  0  0  0  0  0  0  0  0  0  0
   45.2000   30.4400   45.2640 N   0  0  0  0  0  0  0  0  0  0  0  0
   44.7840   30.0440   44.4540 H   0  0  0  0  0  0  0  0  0  0  0  0
   44.2220   30.8430   45.3700 H   0  0  0  0  0  0  0  0  0  0  0  0
  1 15  1  0  0  0  0
  2  1  2  0  0  0  0
  3  2  1  0  0  0  0
  4  3  2  0  0  0  0
  4  5  1  0  0  0  0
  5 12  1  0  0  0  0
  6  5  2  0  0  0  0
  6  7  1  0  0  0  0
  7  9  2  0  0  0  0
  8  7  1  0  0  0  0
  9 11  1  0  0  0  0
  9 10  1  0  0  0  0
 12  1  1  0  0  0  0
 12 11  2  0  0  0  0
 13 19  1  0  0  0  0
 13 18  1  0  0  0  0
 14 13  2  0  0  0  0
 15 14  1  0  0  0  0
 15 16  2  0  0  0  0
 16 17  1  0  0  0  0
 17 20  1  0  0  0  0
 18 17  2  0  0  0  0
 21 23  1  0  0  0  0
 21 14  1  0  0  0  0
 22 21  1  0  0  0  0
M  END
>  <minimizedAffinity>
-5.49157047

>  <minimizedRMSD>
4.85481787

$$$$
