
 OpenBabel03252507443D

 34 37  0  0  0  0  0  0  0  0999 V2000
   39.0800   32.7620   40.3580 C   0  0  0  0  0  0  0  0  0  0  0  0
   39.0500   32.2490   39.0250 C   0  0  0  0  0  0  0  0  0  0  0  0
   38.6050   30.4660   39.3160 S   0  0  0  0  0  0  0  0  0  0  0  0
   38.5450   30.7510   41.1780 C   0  0  0  0  0  0  0  0  0  0  0  0
   38.8040   31.8560   41.2550 N   0  0  0  0  0  0  0  0  0  0  0  0
   39.2430   32.7940   38.1140 H   0  0  0  0  0  0  0  0  0  0  0  0
   38.2030   29.5280   41.9190 C   0  0  0  0  0  0  0  0  0  0  0  0
   36.9740   29.0070   42.0820 N   0  0  0  0  0  0  0  0  0  0  0  0
   36.7330   27.8900   42.7680 C   0  0  0  0  0  3  0  0  0  0  0  0
   37.7180   27.1940   43.3570 N   0  0  0  0  0  0  0  0  0  0  0  0
   38.9750   27.6290   43.2530 C   0  0  0  0  0  0  0  0  0  0  0  0
   39.9910   26.9180   43.8560 C   0  0  0  0  0  3  0  0  0  0  0  0
   41.3020   27.3770   43.7440 C   0  0  0  0  0  0  0  0  0  0  0  0
   42.0670   26.7880   44.2330 H   0  0  0  0  0  0  0  0  0  0  0  0
   41.5070   28.5430   43.0220 C   0  0  0  0  0  0  0  0  0  0  0  0
   42.5710   28.7950   43.0090 H   0  0  0  0  0  0  0  0  0  0  0  0
   40.4770   29.2330   42.4300 C   0  0  0  0  0  3  0  0  0  0  0  0
   39.1820   28.7870   42.5360 C   0  0  0  0  0  0  0  0  0  0  0  0
   39.3970   34.1840   40.6060 C   0  0  0  0  0  0  0  0  0  0  0  0
   39.7980   34.2450   41.6600 H   0  0  0  0  0  0  0  0  0  0  0  0
   38.4760   34.8040   40.6160 H   0  0  0  0  0  0  0  0  0  0  0  0
   40.4060   34.7850   39.7010 C   0  0  0  0  0  0  0  0  0  0  0  0
   40.2770   34.4660   38.6710 H   0  0  0  0  0  0  0  0  0  0  0  0
   40.1990   35.8970   39.6910 H   0  0  0  0  0  0  0  0  0  0  0  0
   41.8010   34.6530   40.1760 C   0  0  0  0  0  0  0  0  0  0  0  0
   42.7220   34.1290   39.2410 C   0  0  0  0  0  0  0  0  0  0  0  0
   44.0470   33.9760   39.6060 C   0  0  0  0  0  0  0  0  0  0  0  0
   44.4060   34.3480   40.8760 N   0  0  0  0  0  0  0  0  0  0  0  0
   43.4910   34.8440   41.7370 C   0  0  0  0  0  0  0  0  0  0  0  0
   42.2170   34.9900   41.3870 N   0  0  0  0  0  0  0  0  0  0  0  0
   44.7530   33.5800   38.9050 H   0  0  0  0  0  0  0  0  0  0  0  0
   43.8440   35.1210   42.7360 H   0  0  0  0  0  0  0  0  0  0  0  0
   42.1790   33.6610   37.5970 S   0  0  0  0  0  0  0  0  0  0  0  0
   41.5550   32.3860   37.7270 H   0  0  0  0  0  0  0  0  0  0  0  0
  1 19  1  0  0  0  0
  1  5  1  0  0  0  0
  2  3  1  0  0  0  0
  2  1  2  0  0  0  0
  3  4  1  0  0  0  0
  4  5  2  0  0  0  0
  4  7  1  0  0  0  0
  6  2  1  0  0  0  0
  7  8  2  0  0  0  0
  7 18  1  0  0  0  0
  8  9  1  0  0  0  0
  9 10  2  0  0  0  0
 11 10  1  0  0  0  0
 11 12  1  0  0  0  0
 13 12  2  0  0  0  0
 13 14  1  0  0  0  0
 15 13  1  0  0  0  0
 16 15  1  0  0  0  0
 17 18  1  0  0  0  0
 17 15  2  0  0  0  0
 18 11  2  0  0  0  0
 19 21  1  0  0  0  0
 19 20  1  0  0  0  0
 22 25  1  0  0  0  0
 22 19  1  0  0  0  0
 23 22  1  0  0  0  0
 24 22  1  0  0  0  0
 25 30  1  0  0  0  0
 26 27  1  0  0  0  0
 26 25  2  0  0  0  0
 27 28  2  0  0  0  0
 28 29  1  0  0  0  0
 29 32  1  0  0  0  0
 30 29  2  0  0  0  0
 31 27  1  0  0  0  0
 33 34  1  0  0  0  0
 33 26  1  0  0  0  0
M  END
>  <minimizedAffinity>
-5.82211447

$$$$

 OpenBabel03252507443D

 34 37  0  0  0  0  0  0  0  0999 V2000
   37.3980   30.1510   41.5490 C   0  0  0  0  0  0  0  0  0  0  0  0
   36.3190   30.3120   40.6260 C   0  0  0  0  0  0  0  0  0  0  0  0
   36.9200   31.7320   39.5870 S   0  0  0  0  0  0  0  0  0  0  0  0
   38.5100   31.8390   40.5940 C   0  0  0  0  0  0  0  0  0  0  0  0
   38.3640   31.0030   41.3520 N   0  0  0  0  0  0  0  0  0  0  0  0
   35.4090   29.7340   40.5820 H   0  0  0  0  0  0  0  0  0  0  0  0
   39.4000   32.9090   40.1190 C   0  0  0  0  0  0  0  0  0  0  0  0
   39.4420   34.1760   40.5680 N   0  0  0  0  0  0  0  0  0  0  0  0
   40.2770   35.0990   40.0910 C   0  0  0  0  0  3  0  0  0  0  0  0
   41.1510   34.8240   39.1100 N   0  0  0  0  0  0  0  0  0  0  0  0
   41.1880   33.5940   38.5970 C   0  0  0  0  0  0  0  0  0  0  0  0
   42.0840   33.3060   37.5900 C   0  0  0  0  0  3  0  0  0  0  0  0
   42.1190   32.0180   37.0560 C   0  0  0  0  0  0  0  0  0  0  0  0
   42.8370   31.8370   36.2680 H   0  0  0  0  0  0  0  0  0  0  0  0
   41.2320   31.0900   37.5810 C   0  0  0  0  0  0  0  0  0  0  0  0
   41.3580   30.1250   37.0820 H   0  0  0  0  0  0  0  0  0  0  0  0
   40.3480   31.4020   38.5870 C   0  0  0  0  0  3  0  0  0  0  0  0
   40.3090   32.6690   39.1160 C   0  0  0  0  0  0  0  0  0  0  0  0
   37.3440   29.0990   42.5870 C   0  0  0  0  0  0  0  0  0  0  0  0
   36.4630   29.3440   43.2480 H   0  0  0  0  0  0  0  0  0  0  0  0
   38.2270   29.1540   43.2580 H   0  0  0  0  0  0  0  0  0  0  0  0
   37.1680   27.7140   42.0900 C   0  0  0  0  0  0  0  0  0  0  0  0
   36.1550   27.3500   42.2340 H   0  0  0  0  0  0  0  0  0  0  0  0
   37.3050   27.7610   40.9670 H   0  0  0  0  0  0  0  0  0  0  0  0
   38.1960   26.7640   42.5670 C   0  0  0  0  0  0  0  0  0  0  0  0
   38.1860   25.4890   41.9560 C   0  0  0  0  0  0  0  0  0  0  0  0
   39.1180   24.5430   42.3450 C   0  0  0  0  0  0  0  0  0  0  0  0
   40.0180   24.8960   43.3170 N   0  0  0  0  0  0  0  0  0  0  0  0
   39.9900   26.1270   43.8730 C   0  0  0  0  0  0  0  0  0  0  0  0
   39.0950   27.0360   43.5010 N   0  0  0  0  0  0  0  0  0  0  0  0
   39.1180   23.5750   41.8890 H   0  0  0  0  0  0  0  0  0  0  0  0
   40.7380   26.3440   44.6440 H   0  0  0  0  0  0  0  0  0  0  0  0
   36.9750   25.0980   40.6940 S   0  0  0  0  0  0  0  0  0  0  0  0
   35.7600   24.8010   41.3780 H   0  0  0  0  0  0  0  0  0  0  0  0
  1 19  1  0  0  0  0
  2  1  2  0  0  0  0
  3  4  1  0  0  0  0
  3  2  1  0  0  0  0
  4  5  2  0  0  0  0
  5  1  1  0  0  0  0
  6  2  1  0  0  0  0
  7  8  1  0  0  0  0
  7  4  1  0  0  0  0
  9  8  2  0  0  0  0
 10  9  1  0  0  0  0
 11 10  2  0  0  0  0
 11 18  1  0  0  0  0
 12 11  1  0  0  0  0
 13 15  1  0  0  0  0
 13 12  2  0  0  0  0
 14 13  1  0  0  0  0
 15 17  2  0  0  0  0
 16 15  1  0  0  0  0
 17 18  1  0  0  0  0
 18  7  2  0  0  0  0
 19 20  1  0  0  0  0
 19 21  1  0  0  0  0
 22 23  1  0  0  0  0
 22 25  1  0  0  0  0
 22 19  1  0  0  0  0
 24 22  1  0  0  0  0
 25 30  1  0  0  0  0
 26 27  1  0  0  0  0
 26 25  2  0  0  0  0
 27 28  2  0  0  0  0
 28 29  1  0  0  0  0
 29 32  1  0  0  0  0
 30 29  2  0  0  0  0
 31 27  1  0  0  0  0
 33 34  1  0  0  0  0
 33 26  1  0  0  0  0
M  END
>  <minimizedAffinity>
-5.79376888

$$$$

 OpenBabel03252507443D

 34 37  0  0  0  0  0  0  0  0999 V2000
   37.6710   30.1770   41.8300 C   0  0  0  0  0  0  0  0  0  0  0  0
   36.4810   30.4260   41.0800 C   0  0  0  0  0  0  0  0  0  0  0  0
   37.0260   31.8010   39.9520 S   0  0  0  0  0  0  0  0  0  0  0  0
   38.7530   31.7790   40.7060 C   0  0  0  0  0  0  0  0  0  0  0  0
   38.6590   30.9540   41.4830 N   0  0  0  0  0  0  0  0  0  0  0  0
   35.5320   29.9210   41.1780 H   0  0  0  0  0  0  0  0  0  0  0  0
   39.6410   32.7790   40.0940 C   0  0  0  0  0  0  0  0  0  0  0  0
   39.7560   34.0720   40.4470 N   0  0  0  0  0  0  0  0  0  0  0  0
   40.5840   34.9270   39.8480 C   0  0  0  0  0  3  0  0  0  0  0  0
   41.3760   34.5520   38.8310 N   0  0  0  0  0  0  0  0  0  0  0  0
   41.3360   33.2890   38.4060 C   0  0  0  0  0  0  0  0  0  0  0  0
   42.1480   32.8980   37.3630 C   0  0  0  0  0  3  0  0  0  0  0  0
   42.1010   31.5760   36.9220 C   0  0  0  0  0  0  0  0  0  0  0  0
   42.7550   31.3130   36.1010 H   0  0  0  0  0  0  0  0  0  0  0  0
   41.2250   30.7200   37.5730 C   0  0  0  0  0  0  0  0  0  0  0  0
   41.2830   29.7190   37.1370 H   0  0  0  0  0  0  0  0  0  0  0  0
   40.4270   31.1340   38.6130 C   0  0  0  0  0  3  0  0  0  0  0  0
   40.4670   32.4360   39.0510 C   0  0  0  0  0  0  0  0  0  0  0  0
   37.6940   29.1280   42.8710 C   0  0  0  0  0  0  0  0  0  0  0  0
   36.8610   28.4090   42.6220 H   0  0  0  0  0  0  0  0  0  0  0  0
   37.4230   29.5430   43.8640 H   0  0  0  0  0  0  0  0  0  0  0  0
   38.9520   28.3490   42.9710 C   0  0  0  0  0  0  0  0  0  0  0  0
   39.7440   28.7650   42.3550 H   0  0  0  0  0  0  0  0  0  0  0  0
   39.3150   28.4710   44.0360 H   0  0  0  0  0  0  0  0  0  0  0  0
   38.7790   26.8930   42.7830 C   0  0  0  0  0  0  0  0  0  0  0  0
   39.8280   26.0810   43.2690 C   0  0  0  0  0  0  0  0  0  0  0  0
   39.7410   24.7070   43.1350 C   0  0  0  0  0  0  0  0  0  0  0  0
   38.6230   24.1940   42.5290 N   0  0  0  0  0  0  0  0  0  0  0  0
   37.6440   25.0090   42.0790 C   0  0  0  0  0  0  0  0  0  0  0  0
   37.7270   26.3290   42.2070 N   0  0  0  0  0  0  0  0  0  0  0  0
   40.5320   24.0830   43.4990 H   0  0  0  0  0  0  0  0  0  0  0  0
   36.7780   24.5340   41.6050 H   0  0  0  0  0  0  0  0  0  0  0  0
   41.2620   26.8220   44.0480 S   0  0  0  0  0  0  0  0  0  0  0  0
   42.0930   27.2990   42.9920 H   0  0  0  0  0  0  0  0  0  0  0  0
  1 19  1  0  0  0  0
  2  6  1  0  0  0  0
  2  1  2  0  0  0  0
  3  4  1  0  0  0  0
  3  2  1  0  0  0  0
  4  5  2  0  0  0  0
  5  1  1  0  0  0  0
  7  8  1  0  0  0  0
  7  4  1  0  0  0  0
  9  8  2  0  0  0  0
 10  9  1  0  0  0  0
 11 10  2  0  0  0  0
 11 18  1  0  0  0  0
 12 11  1  0  0  0  0
 13 12  2  0  0  0  0
 13 15  1  0  0  0  0
 14 13  1  0  0  0  0
 15 17  2  0  0  0  0
 16 15  1  0  0  0  0
 17 18  1  0  0  0  0
 18  7  2  0  0  0  0
 19 22  1  0  0  0  0
 19 21  1  0  0  0  0
 20 19  1  0  0  0  0
 22 24  1  0  0  0  0
 23 22  1  0  0  0  0
 25 22  1  0  0  0  0
 25 26  1  0  0  0  0
 26 33  1  0  0  0  0
 27 26  2  0  0  0  0
 27 31  1  0  0  0  0
 28 27  1  0  0  0  0
 29 30  1  0  0  0  0
 29 28  2  0  0  0  0
 30 25  2  0  0  0  0
 32 29  1  0  0  0  0
 34 33  1  0  0  0  0
M  END
>  <minimizedAffinity>
-5.77409267

$$$$

 OpenBabel03252507443D

 34 37  0  0  0  0  0  0  0  0999 V2000
   37.4570   32.0370   38.9100 C   0  0  0  0  0  0  0  0  0  0  0  0
   37.5870   31.8690   37.4960 C   0  0  0  0  0  0  0  0  0  0  0  0
   37.4400   30.0230   37.3200 S   0  0  0  0  0  0  0  0  0  0  0  0
   37.2320   29.8290   39.1830 C   0  0  0  0  0  0  0  0  0  0  0  0
   37.2930   30.9080   39.5400 N   0  0  0  0  0  0  0  0  0  0  0  0
   37.7310   32.6440   36.7600 H   0  0  0  0  0  0  0  0  0  0  0  0
   37.0660   28.4230   39.5830 C   0  0  0  0  0  0  0  0  0  0  0  0
   36.8460   27.3780   38.7650 N   0  0  0  0  0  0  0  0  0  0  0  0
   36.7040   26.1250   39.1950 C   0  0  0  0  0  3  0  0  0  0  0  0
   36.7710   25.8110   40.4980 N   0  0  0  0  0  0  0  0  0  0  0  0
   36.9860   26.7780   41.3910 C   0  0  0  0  0  0  0  0  0  0  0  0
   37.0560   26.4620   42.7310 C   0  0  0  0  0  3  0  0  0  0  0  0
   37.2810   27.4770   43.6590 C   0  0  0  0  0  0  0  0  0  0  0  0
   37.3290   27.1830   44.6990 H   0  0  0  0  0  0  0  0  0  0  0  0
   37.4230   28.7660   43.1690 C   0  0  0  0  0  0  0  0  0  0  0  0
   37.5930   29.4650   43.9920 H   0  0  0  0  0  0  0  0  0  0  0  0
   37.3490   29.0560   41.8270 C   0  0  0  0  0  3  0  0  0  0  0  0
   37.1270   28.0600   40.9060 C   0  0  0  0  0  0  0  0  0  0  0  0
   37.5110   33.3860   39.5110 C   0  0  0  0  0  0  0  0  0  0  0  0
   36.4670   33.6210   39.8690 H   0  0  0  0  0  0  0  0  0  0  0  0
   37.7280   34.1580   38.7440 H   0  0  0  0  0  0  0  0  0  0  0  0
   38.4320   33.5390   40.6630 C   0  0  0  0  0  0  0  0  0  0  0  0
   38.0430   34.2210   41.4140 H   0  0  0  0  0  0  0  0  0  0  0  0
   38.4690   32.5300   41.1750 H   0  0  0  0  0  0  0  0  0  0  0  0
   39.8310   33.8350   40.2850 C   0  0  0  0  0  0  0  0  0  0  0  0
   40.7920   32.8820   40.6910 C   0  0  0  0  0  0  0  0  0  0  0  0
   42.1230   33.0830   40.3740 C   0  0  0  0  0  0  0  0  0  0  0  0
   42.4480   34.2140   39.6700 N   0  0  0  0  0  0  0  0  0  0  0  0
   41.4950   35.0990   39.3030 C   0  0  0  0  0  0  0  0  0  0  0  0
   40.2160   34.9060   39.6080 N   0  0  0  0  0  0  0  0  0  0  0  0
   42.8590   32.3670   40.6770 H   0  0  0  0  0  0  0  0  0  0  0  0
   41.8220   35.9810   38.7420 H   0  0  0  0  0  0  0  0  0  0  0  0
   40.2940   31.4270   41.6120 S   0  0  0  0  0  0  0  0  0  0  0  0
   40.1120   31.8480   42.9630 H   0  0  0  0  0  0  0  0  0  0  0  0
  1 19  1  0  0  0  0
  1  5  1  0  0  0  0
  2  1  2  0  0  0  0
  3  2  1  0  0  0  0
  3  4  1  0  0  0  0
  4  5  2  0  0  0  0
  4  7  1  0  0  0  0
  6  2  1  0  0  0  0
  7 18  1  0  0  0  0
  8  9  1  0  0  0  0
  8  7  2  0  0  0  0
  9 10  2  0  0  0  0
 10 11  1  0  0  0  0
 11 12  1  0  0  0  0
 12 13  2  0  0  0  0
 13 14  1  0  0  0  0
 15 13  1  0  0  0  0
 15 16  1  0  0  0  0
 17 15  2  0  0  0  0
 18 11  2  0  0  0  0
 18 17  1  0  0  0  0
 19 20  1  0  0  0  0
 19 22  1  0  0  0  0
 21 19  1  0  0  0  0
 22 24  1  0  0  0  0
 22 23  1  0  0  0  0
 25 22  1  0  0  0  0
 25 26  1  0  0  0  0
 26 33  1  0  0  0  0
 27 31  1  0  0  0  0
 27 26  2  0  0  0  0
 28 27  1  0  0  0  0
 29 30  1  0  0  0  0
 29 28  2  0  0  0  0
 30 25  2  0  0  0  0
 32 29  1  0  0  0  0
 33 34  1  0  0  0  0
M  END
>  <minimizedAffinity>
-5.75751305

$$$$

 OpenBabel03252507443D

 34 37  0  0  0  0  0  0  0  0999 V2000
   36.6870   28.8030   41.7400 C   0  0  0  0  0  0  0  0  0  0  0  0
   36.0160   28.5500   40.5040 C   0  0  0  0  0  0  0  0  0  0  0  0
   36.4760   30.0530   39.5100 S   0  0  0  0  0  0  0  0  0  0  0  0
   37.4840   30.7360   40.9490 C   0  0  0  0  0  0  0  0  0  0  0  0
   37.3440   29.9290   41.7380 N   0  0  0  0  0  0  0  0  0  0  0  0
   35.4100   27.6920   40.2560 H   0  0  0  0  0  0  0  0  0  0  0  0
   38.1060   32.0300   40.6300 C   0  0  0  0  0  0  0  0  0  0  0  0
   37.4820   33.1280   40.1670 N   0  0  0  0  0  0  0  0  0  0  0  0
   38.1090   34.2720   39.8970 C   0  0  0  0  0  3  0  0  0  0  0  0
   39.4320   34.4130   40.0700 N   0  0  0  0  0  0  0  0  0  0  0  0
   40.1430   33.3810   40.5260 C   0  0  0  0  0  0  0  0  0  0  0  0
   41.5020   33.5190   40.7060 C   0  0  0  0  0  3  0  0  0  0  0  0
   42.2400   32.4360   41.1820 C   0  0  0  0  0  0  0  0  0  0  0  0
   43.3040   32.5900   41.3080 H   0  0  0  0  0  0  0  0  0  0  0  0
   41.5480   31.2650   41.4490 C   0  0  0  0  0  0  0  0  0  0  0  0
   42.2360   30.4970   41.8140 H   0  0  0  0  0  0  0  0  0  0  0  0
   40.1910   31.1520   41.2620 C   0  0  0  0  0  3  0  0  0  0  0  0
   39.4580   32.2150   40.7920 C   0  0  0  0  0  0  0  0  0  0  0  0
   36.5950   27.8340   42.8530 C   0  0  0  0  0  0  0  0  0  0  0  0
   35.5040   27.7710   43.1360 H   0  0  0  0  0  0  0  0  0  0  0  0
   37.1020   28.2200   43.7630 H   0  0  0  0  0  0  0  0  0  0  0  0
   37.0660   26.4610   42.5510 C   0  0  0  0  0  0  0  0  0  0  0  0
   36.3840   25.7010   42.9190 H   0  0  0  0  0  0  0  0  0  0  0  0
   37.0390   26.3590   41.4240 H   0  0  0  0  0  0  0  0  0  0  0  0
   38.4730   26.2070   42.9300 C   0  0  0  0  0  0  0  0  0  0  0  0
   39.0360   25.0090   42.4350 C   0  0  0  0  0  0  0  0  0  0  0  0
   40.3490   24.6990   42.7420 C   0  0  0  0  0  0  0  0  0  0  0  0
   41.0480   25.5830   43.5230 N   0  0  0  0  0  0  0  0  0  0  0  0
   40.4680   26.7160   43.9760 C   0  0  0  0  0  0  0  0  0  0  0  0
   39.2070   27.0150   43.6810 N   0  0  0  0  0  0  0  0  0  0  0  0
   40.7850   23.7940   42.3720 H   0  0  0  0  0  0  0  0  0  0  0  0
   41.0820   27.3790   44.5950 H   0  0  0  0  0  0  0  0  0  0  0  0
   38.0600   23.8990   41.4210 S   0  0  0  0  0  0  0  0  0  0  0  0
   37.2300   23.1620   42.3160 H   0  0  0  0  0  0  0  0  0  0  0  0
  1 19  1  0  0  0  0
  2  1  2  0  0  0  0
  3  2  1  0  0  0  0
  3  4  1  0  0  0  0
  4  5  2  0  0  0  0
  5  1  1  0  0  0  0
  6  2  1  0  0  0  0
  7 18  1  0  0  0  0
  7  4  1  0  0  0  0
  8  7  2  0  0  0  0
  9 10  2  0  0  0  0
  9  8  1  0  0  0  0
 10 11  1  0  0  0  0
 11 12  2  0  0  0  0
 11 18  1  0  0  0  0
 12 13  1  0  0  0  0
 13 14  1  0  0  0  0
 13 15  2  0  0  0  0
 15 16  1  0  0  0  0
 17 15  1  0  0  0  0
 18 17  2  0  0  0  0
 19 20  1  0  0  0  0
 19 21  1  0  0  0  0
 22 19  1  0  0  0  0
 22 23  1  0  0  0  0
 22 25  1  0  0  0  0
 24 22  1  0  0  0  0
 25 30  1  0  0  0  0
 26 27  1  0  0  0  0
 26 25  2  0  0  0  0
 27 28  2  0  0  0  0
 28 29  1  0  0  0  0
 29 32  1  0  0  0  0
 30 29  2  0  0  0  0
 31 27  1  0  0  0  0
 33 34  1  0  0  0  0
 33 26  1  0  0  0  0
M  END
>  <minimizedAffinity>
-5.75610352

$$$$

 OpenBabel03252507443D

 34 37  0  0  0  0  0  0  0  0999 V2000
   36.9100   29.0340   41.3570 C   0  0  0  0  0  0  0  0  0  0  0  0
   35.8050   29.2470   40.4760 C   0  0  0  0  0  0  0  0  0  0  0  0
   36.5770   30.2970   39.1490 S   0  0  0  0  0  0  0  0  0  0  0  0
   38.2410   30.2490   40.0330 C   0  0  0  0  0  0  0  0  0  0  0  0
   38.0030   29.6150   40.9470 N   0  0  0  0  0  0  0  0  0  0  0  0
   34.7990   28.8740   40.5930 H   0  0  0  0  0  0  0  0  0  0  0  0
   39.2770   31.0040   39.3120 C   0  0  0  0  0  0  0  0  0  0  0  0
   40.0790   30.5360   38.3390 N   0  0  0  0  0  0  0  0  0  0  0  0
   41.0010   31.2770   37.7250 C   0  0  0  0  0  3  0  0  0  0  0  0
   41.2000   32.5660   38.0420 N   0  0  0  0  0  0  0  0  0  0  0  0
   40.4540   33.1250   38.9970 C   0  0  0  0  0  0  0  0  0  0  0  0
   40.6540   34.4480   39.3260 C   0  0  0  0  0  3  0  0  0  0  0  0
   39.8720   35.0270   40.3250 C   0  0  0  0  0  0  0  0  0  0  0  0
   40.0630   36.0670   40.5510 H   0  0  0  0  0  0  0  0  0  0  0  0
   38.9250   34.2200   40.9370 C   0  0  0  0  0  0  0  0  0  0  0  0
   38.3820   34.7880   41.6980 H   0  0  0  0  0  0  0  0  0  0  0  0
   38.7450   32.9020   40.5900 C   0  0  0  0  0  3  0  0  0  0  0  0
   39.5130   32.3250   39.6070 C   0  0  0  0  0  0  0  0  0  0  0  0
   36.7460   28.2240   42.5820 C   0  0  0  0  0  0  0  0  0  0  0  0
   35.6690   28.3390   42.9020 H   0  0  0  0  0  0  0  0  0  0  0  0
   37.3370   28.6440   43.4230 H   0  0  0  0  0  0  0  0  0  0  0  0
   37.0250   26.7750   42.4370 C   0  0  0  0  0  0  0  0  0  0  0  0
   36.2390   26.1590   42.8650 H   0  0  0  0  0  0  0  0  0  0  0  0
   36.9950   26.5570   41.3270 H   0  0  0  0  0  0  0  0  0  0  0  0
   38.3780   26.3720   42.8760 C   0  0  0  0  0  0  0  0  0  0  0  0
   38.7910   25.0780   42.4870 C   0  0  0  0  0  0  0  0  0  0  0  0
   40.0450   24.6260   42.8550 C   0  0  0  0  0  0  0  0  0  0  0  0
   40.8370   25.4700   43.5900 N   0  0  0  0  0  0  0  0  0  0  0  0
   40.4000   26.7000   43.9410 C   0  0  0  0  0  0  0  0  0  0  0  0
   39.1950   27.1340   43.5880 N   0  0  0  0  0  0  0  0  0  0  0  0
   40.3680   23.6470   42.5650 H   0  0  0  0  0  0  0  0  0  0  0  0
   41.0830   27.3230   44.5290 H   0  0  0  0  0  0  0  0  0  0  0  0
   37.7000   24.0280   41.5270 S   0  0  0  0  0  0  0  0  0  0  0  0
   36.7620   23.4730   42.4480 H   0  0  0  0  0  0  0  0  0  0  0  0
  1 19  1  0  0  0  0
  2  6  1  0  0  0  0
  2  1  2  0  0  0  0
  3  4  1  0  0  0  0
  3  2  1  0  0  0  0
  4  5  2  0  0  0  0
  5  1  1  0  0  0  0
  7 18  1  0  0  0  0
  7  4  1  0  0  0  0
  8  7  2  0  0  0  0
  9 10  2  0  0  0  0
  9  8  1  0  0  0  0
 10 11  1  0  0  0  0
 11 12  2  0  0  0  0
 11 18  1  0  0  0  0
 12 13  1  0  0  0  0
 13 14  1  0  0  0  0
 13 15  2  0  0  0  0
 15 16  1  0  0  0  0
 17 15  1  0  0  0  0
 18 17  2  0  0  0  0
 19 20  1  0  0  0  0
 19 21  1  0  0  0  0
 22 19  1  0  0  0  0
 22 23  1  0  0  0  0
 22 25  1  0  0  0  0
 24 22  1  0  0  0  0
 25 30  1  0  0  0  0
 26 27  1  0  0  0  0
 26 25  2  0  0  0  0
 27 28  2  0  0  0  0
 28 29  1  0  0  0  0
 29 32  1  0  0  0  0
 30 29  2  0  0  0  0
 31 27  1  0  0  0  0
 33 34  1  0  0  0  0
 33 26  1  0  0  0  0
M  END
>  <minimizedAffinity>
-5.72837305

$$$$

 OpenBabel03252507443D

 34 37  0  0  0  0  0  0  0  0999 V2000
   34.6220   29.0860   37.5620 C   0  0  0  0  0  0  0  0  0  0  0  0
   35.4980   29.0740   36.4330 C   0  0  0  0  0  0  0  0  0  0  0  0
   37.1140   29.5800   37.2040 S   0  0  0  0  0  0  0  0  0  0  0  0
   36.3010   29.7120   38.8990 C   0  0  0  0  0  0  0  0  0  0  0  0
   35.2240   29.4270   38.6660 N   0  0  0  0  0  0  0  0  0  0  0  0
   35.2430   28.8270   35.4140 H   0  0  0  0  0  0  0  0  0  0  0  0
   37.2520   30.1200   39.9430 C   0  0  0  0  0  0  0  0  0  0  0  0
   38.1270   31.1400   39.8770 N   0  0  0  0  0  0  0  0  0  0  0  0
   38.9640   31.4560   40.8650 C   0  0  0  0  0  3  0  0  0  0  0  0
   38.9960   30.7660   42.0150 N   0  0  0  0  0  0  0  0  0  0  0  0
   38.1670   29.7350   42.1790 C   0  0  0  0  0  0  0  0  0  0  0  0
   38.1950   29.0220   43.3590 C   0  0  0  0  0  3  0  0  0  0  0  0
   37.3260   27.9450   43.5240 C   0  0  0  0  0  0  0  0  0  0  0  0
   37.3820   27.4140   44.4650 H   0  0  0  0  0  0  0  0  0  0  0  0
   36.4720   27.6500   42.4720 C   0  0  0  0  0  0  0  0  0  0  0  0
   35.8460   26.7900   42.7250 H   0  0  0  0  0  0  0  0  0  0  0  0
   36.4630   28.3770   41.3050 C   0  0  0  0  0  3  0  0  0  0  0  0
   37.3170   29.4400   41.1350 C   0  0  0  0  0  0  0  0  0  0  0  0
   33.1950   28.7320   37.4050 C   0  0  0  0  0  0  0  0  0  0  0  0
   32.7030   28.9330   38.4010 H   0  0  0  0  0  0  0  0  0  0  0  0
   33.0690   27.6410   37.2420 H   0  0  0  0  0  0  0  0  0  0  0  0
   32.4540   29.4910   36.3700 C   0  0  0  0  0  0  0  0  0  0  0  0
   33.1060   30.1310   35.7820 H   0  0  0  0  0  0  0  0  0  0  0  0
   32.0590   28.7240   35.6370 H   0  0  0  0  0  0  0  0  0  0  0  0
   31.2570   30.1970   36.8770 C   0  0  0  0  0  0  0  0  0  0  0  0
   30.6580   31.1130   35.9830 C   0  0  0  0  0  0  0  0  0  0  0  0
   29.5320   31.8110   36.3800 C   0  0  0  0  0  0  0  0  0  0  0  0
   29.0460   31.5750   37.6400 N   0  0  0  0  0  0  0  0  0  0  0  0
   29.6520   30.6900   38.4620 C   0  0  0  0  0  0  0  0  0  0  0  0
   30.7340   30.0190   38.0810 N   0  0  0  0  0  0  0  0  0  0  0  0
   29.0710   32.5080   35.7110 H   0  0  0  0  0  0  0  0  0  0  0  0
   29.2120   30.5490   39.4560 H   0  0  0  0  0  0  0  0  0  0  0  0
   31.3520   31.3720   34.3510 S   0  0  0  0  0  0  0  0  0  0  0  0
   32.4710   32.2400   34.5220 H   0  0  0  0  0  0  0  0  0  0  0  0
  1  5  1  0  0  0  0
  2  3  1  0  0  0  0
  2  1  2  0  0  0  0
  3  4  1  0  0  0  0
  4  7  1  0  0  0  0
  5  4  2  0  0  0  0
  6  2  1  0  0  0  0
  7 18  1  0  0  0  0
  8  7  2  0  0  0  0
  8  9  1  0  0  0  0
  9 10  2  0  0  0  0
 10 11  1  0  0  0  0
 11 12  1  0  0  0  0
 12 13  2  0  0  0  0
 13 14  1  0  0  0  0
 15 16  1  0  0  0  0
 15 13  1  0  0  0  0
 17 15  2  0  0  0  0
 18 17  1  0  0  0  0
 18 11  2  0  0  0  0
 19  1  1  0  0  0  0
 19 20  1  0  0  0  0
 21 19  1  0  0  0  0
 22 25  1  0  0  0  0
 22 19  1  0  0  0  0
 23 22  1  0  0  0  0
 24 22  1  0  0  0  0
 25 30  1  0  0  0  0
 26 27  1  0  0  0  0
 26 25  2  0  0  0  0
 27 28  2  0  0  0  0
 28 29  1  0  0  0  0
 29 32  1  0  0  0  0
 30 29  2  0  0  0  0
 31 27  1  0  0  0  0
 33 34  1  0  0  0  0
 33 26  1  0  0  0  0
M  END
>  <minimizedAffinity>
-5.66574478

$$$$

 OpenBabel03252507443D

 34 37  0  0  0  0  0  0  0  0999 V2000
   38.0740   29.0790   39.1180 C   0  0  0  0  0  0  0  0  0  0  0  0
   37.1380   29.4140   38.0920 C   0  0  0  0  0  0  0  0  0  0  0  0
   37.3510   31.2580   37.9730 S   0  0  0  0  0  0  0  0  0  0  0  0
   38.6600   31.2270   39.3280 C   0  0  0  0  0  0  0  0  0  0  0  0
   38.7090   30.1190   39.5820 N   0  0  0  0  0  0  0  0  0  0  0  0
   36.4930   28.7370   37.5520 H   0  0  0  0  0  0  0  0  0  0  0  0
   39.1880   32.5670   39.6250 C   0  0  0  0  0  0  0  0  0  0  0  0
   38.7020   33.4380   40.5270 N   0  0  0  0  0  0  0  0  0  0  0  0
   39.2300   34.6410   40.7480 C   0  0  0  0  0  3  0  0  0  0  0  0
   40.3030   35.0790   40.0710 N   0  0  0  0  0  0  0  0  0  0  0  0
   40.8610   34.2880   39.1530 C   0  0  0  0  0  0  0  0  0  0  0  0
   41.9640   34.7310   38.4550 C   0  0  0  0  0  3  0  0  0  0  0  0
   42.5420   33.9010   37.4950 C   0  0  0  0  0  0  0  0  0  0  0  0
   43.4050   34.2890   36.9720 H   0  0  0  0  0  0  0  0  0  0  0  0
   41.9600   32.6570   37.2990 C   0  0  0  0  0  0  0  0  0  0  0  0
   42.5020   32.1060   36.5250 H   0  0  0  0  0  0  0  0  0  0  0  0
   40.8600   32.2380   38.0080 C   0  0  0  0  0  3  0  0  0  0  0  0
   40.2840   33.0520   38.9550 C   0  0  0  0  0  0  0  0  0  0  0  0
   38.2450   27.6750   39.5450 C   0  0  0  0  0  0  0  0  0  0  0  0
   39.3530   27.5170   39.6980 H   0  0  0  0  0  0  0  0  0  0  0  0
   37.9680   26.9720   38.7320 H   0  0  0  0  0  0  0  0  0  0  0  0
   37.5550   27.2970   40.8020 C   0  0  0  0  0  0  0  0  0  0  0  0
   37.0180   28.1310   41.2440 H   0  0  0  0  0  0  0  0  0  0  0  0
   36.7530   26.5540   40.5110 H   0  0  0  0  0  0  0  0  0  0  0  0
   38.4130   26.5830   41.7730 C   0  0  0  0  0  0  0  0  0  0  0  0
   38.7650   27.3090   42.9330 C   0  0  0  0  0  0  0  0  0  0  0  0
   39.5620   26.7100   43.8920 C   0  0  0  0  0  0  0  0  0  0  0  0
   39.9770   25.4230   43.6650 N   0  0  0  0  0  0  0  0  0  0  0  0
   39.6160   24.7680   42.5400 C   0  0  0  0  0  0  0  0  0  0  0  0
   38.8500   25.3420   41.6180 N   0  0  0  0  0  0  0  0  0  0  0  0
   39.8350   27.2510   44.7750 H   0  0  0  0  0  0  0  0  0  0  0  0
   39.9810   23.7420   42.4200 H   0  0  0  0  0  0  0  0  0  0  0  0
   38.1880   28.9900   43.1610 S   0  0  0  0  0  0  0  0  0  0  0  0
   39.0320   29.8170   42.3630 H   0  0  0  0  0  0  0  0  0  0  0  0
  1 19  1  0  0  0  0
  1  5  1  0  0  0  0
  2  1  2  0  0  0  0
  3  2  1  0  0  0  0
  3  4  1  0  0  0  0
  4  5  2  0  0  0  0
  4  7  1  0  0  0  0
  6  2  1  0  0  0  0
  7  8  1  0  0  0  0
  8  9  2  0  0  0  0
 10  9  1  0  0  0  0
 11 10  2  0  0  0  0
 12 11  1  0  0  0  0
 13 12  2  0  0  0  0
 14 13  1  0  0  0  0
 15 13  1  0  0  0  0
 15 17  2  0  0  0  0
 16 15  1  0  0  0  0
 17 18  1  0  0  0  0
 18 11  1  0  0  0  0
 18  7  2  0  0  0  0
 19 20  1  0  0  0  0
 19 22  1  0  0  0  0
 21 19  1  0  0  0  0
 22 23  1  0  0  0  0
 22 25  1  0  0  0  0
 24 22  1  0  0  0  0
 25 26  1  0  0  0  0
 26 33  1  0  0  0  0
 26 27  2  0  0  0  0
 27 31  1  0  0  0  0
 28 27  1  0  0  0  0
 29 28  2  0  0  0  0
 30 25  2  0  0  0  0
 30 29  1  0  0  0  0
 32 29  1  0  0  0  0
 34 33  1  0  0  0  0
M  END
>  <minimizedAffinity>
-5.49532938

$$$$

 OpenBabel03252507443D

 34 37  0  0  0  0  0  0  0  0999 V2000
   40.4900   32.8550   39.7620 C   0  0  0  0  0  0  0  0  0  0  0  0
   39.6520   34.0000   39.9310 C   0  0  0  0  0  0  0  0  0  0  0  0
   37.9700   33.2200   40.0780 S   0  0  0  0  0  0  0  0  0  0  0  0
   38.7150   31.5000   39.8830 C   0  0  0  0  0  0  0  0  0  0  0  0
   39.8220   31.7350   39.7690 N   0  0  0  0  0  0  0  0  0  0  0  0
   39.9620   35.0340   39.9600 H   0  0  0  0  0  0  0  0  0  0  0  0
   37.6950   30.4420   39.9360 C   0  0  0  0  0  0  0  0  0  0  0  0
   36.8280   30.1150   38.9610 N   0  0  0  0  0  0  0  0  0  0  0  0
   35.9260   29.1410   39.0740 C   0  0  0  0  0  3  0  0  0  0  0  0
   35.8150   28.4040   40.1900 N   0  0  0  0  0  0  0  0  0  0  0  0
   36.6310   28.6500   41.2170 C   0  0  0  0  0  0  0  0  0  0  0  0
   36.5230   27.8960   42.3660 C   0  0  0  0  0  3  0  0  0  0  0  0
   37.3780   28.1580   43.4350 C   0  0  0  0  0  0  0  0  0  0  0  0
   37.2580   27.5430   44.3170 H   0  0  0  0  0  0  0  0  0  0  0  0
   38.3010   29.1810   43.2740 C   0  0  0  0  0  0  0  0  0  0  0  0
   38.9080   29.2860   44.1780 H   0  0  0  0  0  0  0  0  0  0  0  0
   38.3890   29.9180   42.1180 C   0  0  0  0  0  3  0  0  0  0  0  0
   37.5490   29.6650   41.0600 C   0  0  0  0  0  0  0  0  0  0  0  0
   41.9510   33.0120   39.6060 C   0  0  0  0  0  0  0  0  0  0  0  0
   42.4090   32.0050   39.8310 H   0  0  0  0  0  0  0  0  0  0  0  0
   42.3660   33.6910   40.3810 H   0  0  0  0  0  0  0  0  0  0  0  0
   42.4130   33.4320   38.2610 C   0  0  0  0  0  0  0  0  0  0  0  0
   41.6710   34.0290   37.7390 H   0  0  0  0  0  0  0  0  0  0  0  0
   43.2860   34.1320   38.4310 H   0  0  0  0  0  0  0  0  0  0  0  0
   42.9520   32.3300   37.4360 C   0  0  0  0  0  0  0  0  0  0  0  0
   44.3530   32.3290   37.2510 C   0  0  0  0  0  0  0  0  0  0  0  0
   44.9380   31.3290   36.4940 C   0  0  0  0  0  0  0  0  0  0  0  0
   44.1150   30.3750   35.9520 N   0  0  0  0  0  0  0  0  0  0  0  0
   42.7790   30.4170   36.1540 C   0  0  0  0  0  0  0  0  0  0  0  0
   42.2180   31.3770   36.8820 N   0  0  0  0  0  0  0  0  0  0  0  0
   45.9980   31.3190   36.3480 H   0  0  0  0  0  0  0  0  0  0  0  0
   42.1800   29.6240   35.6930 H   0  0  0  0  0  0  0  0  0  0  0  0
   45.3660   33.6110   37.9880 S   0  0  0  0  0  0  0  0  0  0  0  0
   45.2370   34.7570   37.1500 H   0  0  0  0  0  0  0  0  0  0  0  0
  1  5  1  0  0  0  0
  1  2  2  0  0  0  0
  2  6  1  0  0  0  0
  2  3  1  0  0  0  0
  4  7  1  0  0  0  0
  4  3  1  0  0  0  0
  5  4  2  0  0  0  0
  7 18  1  0  0  0  0
  8  9  1  0  0  0  0
  8  7  2  0  0  0  0
  9 10  2  0  0  0  0
 10 11  1  0  0  0  0
 11 12  1  0  0  0  0
 12 13  2  0  0  0  0
 13 14  1  0  0  0  0
 15 13  1  0  0  0  0
 15 16  1  0  0  0  0
 17 15  2  0  0  0  0
 18 11  2  0  0  0  0
 18 17  1  0  0  0  0
 19  1  1  0  0  0  0
 19 20  1  0  0  0  0
 19 21  1  0  0  0  0
 22 24  1  0  0  0  0
 22 19  1  0  0  0  0
 23 22  1  0  0  0  0
 25 22  1  0  0  0  0
 26 25  1  0  0  0  0
 26 33  1  0  0  0  0
 27 26  2  0  0  0  0
 28 29  2  0  0  0  0
 28 27  1  0  0  0  0
 29 30  1  0  0  0  0
 30 25  2  0  0  0  0
 31 27  1  0  0  0  0
 32 29  1  0  0  0  0
 34 33  1  0  0  0  0
M  END
>  <minimizedAffinity>
-5.44032335

$$$$
