
 OpenBabel03252506573D

 41 46  0  0  0  0  0  0  0  0999 V2000
   47.3850   31.4280   45.2830 C   0  0  0  0  0  0  0  0  0  0  0  0
   46.8800   32.7100   45.1970 C   0  0  0  0  0  0  0  0  0  0  0  0
   46.1660   33.2930   46.2270 C   0  0  0  0  0  0  0  0  0  0  0  0
   45.9320   32.5790   47.4120 C   0  0  0  0  0  0  0  0  0  0  0  0
   45.2980   32.8170   48.5910 N   0  0  0  0  0  0  0  0  0  0  0  0
   45.4170   31.7090   49.3700 C   0  0  0  0  0  0  0  0  0  0  0  0
   46.1230   30.8050   48.6560 N   0  0  0  0  0  0  0  0  0  0  0  0
   46.4520   31.3080   47.4580 C   0  0  0  0  0  0  0  0  0  0  0  0
   47.1560   30.7080   46.4640 C   0  0  0  0  0  0  0  0  0  0  0  0
   47.9490   30.9650   44.4680 H   0  0  0  0  0  0  0  0  0  0  0  0
   45.7660   34.2930   46.1740 H   0  0  0  0  0  0  0  0  0  0  0  0
   44.8510   33.7340   48.7220 H   0  0  0  0  0  0  0  0  0  0  0  0
   44.9900   31.6700   50.3520 H   0  0  0  0  0  0  0  0  0  0  0  0
   46.4110   35.1590   42.4930 C   0  0  0  0  0  0  0  0  0  0  0  0
   47.5460   34.9650   41.7120 C   0  0  0  0  0  0  0  0  0  0  0  0
   48.4780   33.9880   42.1120 C   0  0  0  0  0  0  0  0  0  0  0  0
   48.2150   33.2810   43.2540 N   0  0  0  0  0  0  0  0  0  0  0  0
   47.0930   33.4990   43.9940 C   0  0  0  0  0  0  0  0  0  0  0  0
   46.1950   34.4310   43.6190 N   0  0  0  0  0  0  0  0  0  0  0  0
   45.7360   35.9180   42.1370 H   0  0  0  0  0  0  0  0  0  0  0  0
   47.7950   35.4890   40.8160 H   0  0  0  0  0  0  0  0  0  0  0  0
   49.3990   33.7260   41.6130 H   0  0  0  0  0  0  0  0  0  0  0  0
   47.6740   29.3380   46.6060 C   0  0  0  0  0  0  0  0  0  0  0  0
   48.8750   28.8880   46.1260 C   0  0  0  0  0  0  0  0  0  0  0  0
   48.8790   27.5420   46.5240 C   0  0  0  0  0  0  0  0  0  0  0  0
   47.7320   27.2430   47.1980 C   0  0  0  0  0  0  0  0  0  0  0  0
   47.0670   28.3740   47.2030 O   0  0  0  0  0  0  0  0  0  0  0  0
   49.6440   29.4080   45.5770 H   0  0  0  0  0  0  0  0  0  0  0  0
   49.7070   26.9320   46.3190 H   0  0  0  0  0  0  0  0  0  0  0  0
   47.1270   26.1030   47.8530 C   0  0  0  0  0  0  0  0  0  0  0  0
   45.8020   25.8410   47.6720 N   0  0  0  0  0  0  0  0  0  0  0  0
   45.1490   24.8920   48.3070 C   0  0  0  0  0  3  0  0  0  0  0  0
   45.7250   24.0740   49.2050 N   0  0  0  0  0  0  0  0  0  0  0  0
   47.0540   24.2410   49.4670 C   0  0  0  0  0  0  0  0  0  0  0  0
   47.7040   23.4310   50.3410 C   0  0  0  0  0  3  0  0  0  0  0  0
   49.0540   23.5580   50.5990 C   0  0  0  0  0  0  0  0  0  0  0  0
   49.4460   22.8590   51.3100 H   0  0  0  0  0  0  0  0  0  0  0  0
   49.7010   24.5760   49.8950 C   0  0  0  0  0  0  0  0  0  0  0  0
   50.7710   24.6470   50.1240 H   0  0  0  0  0  0  0  0  0  0  0  0
   49.0070   25.3740   49.0200 C   0  0  0  0  0  3  0  0  0  0  0  0
   47.6720   25.2470   48.7700 C   0  0  0  0  0  0  0  0  0  0  0  0
  1  9  1  0  0  0  0
  2  1  2  0  0  0  0
  2  3  1  0  0  0  0
  3  4  2  0  0  0  0
  4  8  1  0  0  0  0
  4  5  1  0  0  0  0
  5 12  1  0  0  0  0
  5  6  1  0  0  0  0
  6 13  1  0  0  0  0
  7  6  2  0  0  0  0
  8  7  1  0  0  0  0
  9 23  1  0  0  0  0
  9  8  2  0  0  0  0
 10  1  1  0  0  0  0
 11  3  1  0  0  0  0
 14 19  1  0  0  0  0
 15 16  1  0  0  0  0
 15 14  2  0  0  0  0
 16 17  2  0  0  0  0
 17 18  1  0  0  0  0
 18  2  1  0  0  0  0
 19 18  2  0  0  0  0
 20 14  1  0  0  0  0
 21 15  1  0  0  0  0
 22 16  1  0  0  0  0
 23 27  1  0  0  0  0
 24 25  1  0  0  0  0
 24 23  2  0  0  0  0
 25 26  2  0  0  0  0
 26 27  1  0  0  0  0
 26 30  1  0  0  0  0
 28 24  1  0  0  0  0
 29 25  1  0  0  0  0
 30 41  1  0  0  0  0
 31 30  2  0  0  0  0
 31 32  1  0  0  0  0
 32 33  2  0  0  0  0
 33 34  1  0  0  0  0
 34 35  1  0  0  0  0
 35 36  2  0  0  0  0
 36 37  1  0  0  0  0
 38 39  1  0  0  0  0
 38 36  1  0  0  0  0
 40 38  2  0  0  0  0
 41 40  1  0  0  0  0
 41 34  2  0  0  0  0
M  END
>  <minimizedAffinity>
-6.67061567

>  <minimizedRMSD>
1.61341608

$$$$
