
 OpenBabel03252505073D

 46 50  0  0  1  0  0  0  0  0999 V2000
   44.5690   35.5750   44.6140 C   0  0  0  0  0  0  0  0  0  0  0  0
   45.2400   35.6080   43.3700 C   0  0  0  0  0  0  0  0  0  0  0  0
   46.3290   34.7170   43.1800 C   0  0  0  0  0  0  0  0  0  0  0  0
   46.6650   33.8850   44.2020 N   0  0  0  0  0  0  0  0  0  0  0  0
   46.0040   33.8810   45.3710 C   0  0  0  0  0  0  0  0  0  0  0  0
   44.9490   34.7310   45.5820 N   0  0  0  0  0  0  0  0  0  0  0  0
   43.7540   36.2690   44.7010 H   0  0  0  0  0  0  0  0  0  0  0  0
   44.9840   36.2590   42.5570 H   0  0  0  0  0  0  0  0  0  0  0  0
   46.4230   32.9590   46.4470 C   0  0  2  0  0  0  0  0  0  0  0  0
   46.9650   31.7390   45.7530 C   0  0  0  0  0  0  0  0  0  0  0  0
   46.0730   30.5590   45.7770 C   0  0  0  0  0  0  0  0  0  0  0  0
   45.7940   30.2880   47.2490 C   0  0  0  0  0  0  0  0  0  0  0  0
   45.0190   31.3590   47.8590 C   0  0  0  0  0  0  0  0  0  0  0  0
   45.3770   32.7310   47.4160 C   0  0  0  0  0  0  0  0  0  0  0  0
   47.2810   33.4870   46.9560 H   0  0  0  0  0  0  0  0  0  0  0  0
   47.2550   31.9400   44.6930 H   0  0  0  0  0  0  0  0  0  0  0  0
   47.9140   31.4520   46.2520 H   0  0  0  0  0  0  0  0  0  0  0  0
   45.0920   30.7550   45.3190 H   0  0  0  0  0  0  0  0  0  0  0  0
   46.6280   29.7060   45.3490 H   0  0  0  0  0  0  0  0  0  0  0  0
   45.1110   29.4040   47.2350 H   0  0  0  0  0  0  0  0  0  0  0  0
   46.6950   29.9690   47.8000 H   0  0  0  0  0  0  0  0  0  0  0  0
   44.2320   31.4500   48.5650 H   0  0  0  0  0  0  0  0  0  0  0  0
   44.6970   33.8610   47.9340 N   0  0  0  0  0  0  0  0  0  0  0  0
   45.1320   34.5220   48.6170 H   0  0  0  0  0  0  0  0  0  0  0  0
   43.7140   34.0000   47.5900 H   0  0  0  0  0  0  0  0  0  0  0  0
   47.0480   34.7260   41.9190 C   0  0  0  0  0  0  0  0  0  0  0  0
   48.1730   35.4730   41.8180 C   0  0  0  0  0  0  0  0  0  0  0  0
   48.8250   35.4330   40.5660 C   0  0  0  0  0  0  0  0  0  0  0  0
   48.2460   34.6440   39.5980 C   0  0  0  0  0  0  0  0  0  0  0  0
   47.1170   33.8940   39.6920 C   0  0  0  0  0  0  0  0  0  0  0  0
   46.5800   34.0080   40.9300 N   0  0  0  0  0  0  0  0  0  0  0  0
   48.5560   36.0610   42.6230 H   0  0  0  0  0  0  0  0  0  0  0  0
   49.7100   36.0050   40.4470 H   0  0  0  0  0  0  0  0  0  0  0  0
   48.8220   34.6770   38.6680 H   0  0  0  0  0  0  0  0  0  0  0  0
   46.7030   33.1450   38.5290 C   0  0  0  0  0  0  0  0  0  0  0  0
   45.4090   33.1440   38.1740 N   0  0  0  0  0  0  0  0  0  0  0  0
   44.9330   32.4810   37.1140 C   0  0  0  0  0  3  0  0  0  0  0  0
   45.7420   31.7470   36.3060 N   0  0  0  0  0  0  0  0  0  0  0  0
   47.0750   31.6920   36.5920 C   0  0  0  0  0  0  0  0  0  0  0  0
   47.9460   30.9650   35.8090 C   0  0  0  0  0  3  0  0  0  0  0  0
   49.2940   30.9010   36.0900 C   0  0  0  0  0  0  0  0  0  0  0  0
   49.8740   30.3000   35.4030 H   0  0  0  0  0  0  0  0  0  0  0  0
   49.7390   31.6140   37.2100 C   0  0  0  0  0  0  0  0  0  0  0  0
   50.8000   31.5380   37.3950 H   0  0  0  0  0  0  0  0  0  0  0  0
   48.8320   32.3260   37.9610 C   0  0  0  0  0  3  0  0  0  0  0  0
   47.4920   32.3970   37.6950 C   0  0  0  0  0  0  0  0  0  0  0  0
  1  7  1  0  0  0  0
  1  6  1  0  0  0  0
  2  1  2  0  0  0  0
  3  2  1  0  0  0  0
  3  4  2  0  0  0  0
  4  5  1  0  0  0  0
  5  6  2  0  0  0  0
  5  9  1  0  0  0  0
  8  2  1  0  0  0  0
  9 15  1  1  0  0  0
  9 14  1  0  0  0  0
 10 11  1  0  0  0  0
 10 17  1  0  0  0  0
 10  9  1  0  0  0  0
 11 12  1  0  0  0  0
 12 21  1  0  0  0  0
 12 13  1  0  0  0  0
 13 22  1  0  0  0  0
 14 13  2  0  0  0  0
 14 23  1  0  0  0  0
 16 10  1  0  0  0  0
 18 11  1  0  0  0  0
 19 11  1  0  0  0  0
 20 12  1  0  0  0  0
 23 24  1  0  0  0  0
 25 23  1  0  0  0  0
 26  3  1  0  0  0  0
 27 26  1  0  0  0  0
 27 32  1  0  0  0  0
 28 27  2  0  0  0  0
 29 30  2  0  0  0  0
 29 28  1  0  0  0  0
 30 31  1  0  0  0  0
 31 26  2  0  0  0  0
 33 28  1  0  0  0  0
 34 29  1  0  0  0  0
 35 30  1  0  0  0  0
 36 35  1  0  0  0  0
 37 36  2  0  0  0  0
 38 39  2  0  0  0  0
 38 37  1  0  0  0  0
 39 46  1  0  0  0  0
 40 41  2  0  0  0  0
 40 39  1  0  0  0  0
 41 43  1  0  0  0  0
 42 41  1  0  0  0  0
 43 44  1  0  0  0  0
 43 45  2  0  0  0  0
 46 45  1  0  0  0  0
 46 35  2  0  0  0  0
M  END
>  <minimizedAffinity>
-7.83104181

>  <minimizedRMSD>
0.275944948

$$$$
