
 OpenBabel03252505073D

 46 50  0  0  1  0  0  0  0  0999 V2000
   44.5940   35.5870   44.6130 C   0  0  0  0  0  0  0  0  0  0  0  0
   45.2310   35.5650   43.3510 C   0  0  0  0  0  0  0  0  0  0  0  0
   46.2890   34.6360   43.1590 C   0  0  0  0  0  0  0  0  0  0  0  0
   46.6280   33.8250   44.1950 N   0  0  0  0  0  0  0  0  0  0  0  0
   46.0000   33.8740   45.3810 C   0  0  0  0  0  0  0  0  0  0  0  0
   44.9760   34.7600   45.5950 N   0  0  0  0  0  0  0  0  0  0  0  0
   43.8020   36.3080   44.7010 H   0  0  0  0  0  0  0  0  0  0  0  0
   44.9730   36.1990   42.5270 H   0  0  0  0  0  0  0  0  0  0  0  0
   46.4220   32.9710   46.4720 C   0  0  2  0  0  0  0  0  0  0  0  0
   46.9800   31.7480   45.7990 C   0  0  0  0  0  0  0  0  0  0  0  0
   46.1000   30.5590   45.8330 C   0  0  0  0  0  0  0  0  0  0  0  0
   45.8140   30.3050   47.3070 C   0  0  0  0  0  0  0  0  0  0  0  0
   45.0250   31.3760   47.8970 C   0  0  0  0  0  0  0  0  0  0  0  0
   45.3710   32.7460   47.4370 C   0  0  0  0  0  0  0  0  0  0  0  0
   47.2710   33.5150   46.9800 H   0  0  0  0  0  0  0  0  0  0  0  0
   47.2750   31.9370   44.7380 H   0  0  0  0  0  0  0  0  0  0  0  0
   47.9280   31.4760   46.3070 H   0  0  0  0  0  0  0  0  0  0  0  0
   45.1200   30.7380   45.3660 H   0  0  0  0  0  0  0  0  0  0  0  0
   46.6670   29.7060   45.4200 H   0  0  0  0  0  0  0  0  0  0  0  0
   45.1400   29.4140   47.3000 H   0  0  0  0  0  0  0  0  0  0  0  0
   46.7150   30.0030   47.8680 H   0  0  0  0  0  0  0  0  0  0  0  0
   44.2320   31.4680   48.5970 H   0  0  0  0  0  0  0  0  0  0  0  0
   44.6770   33.8750   47.9350 N   0  0  0  0  0  0  0  0  0  0  0  0
   45.1000   34.5500   48.6120 H   0  0  0  0  0  0  0  0  0  0  0  0
   43.6940   34.0000   47.5830 H   0  0  0  0  0  0  0  0  0  0  0  0
   46.9730   34.5880   41.8790 C   0  0  0  0  0  0  0  0  0  0  0  0
   48.0850   35.3410   41.7080 C   0  0  0  0  0  0  0  0  0  0  0  0
   48.7040   35.2430   40.4430 C   0  0  0  0  0  0  0  0  0  0  0  0
   48.1090   34.3990   39.5330 C   0  0  0  0  0  0  0  0  0  0  0  0
   46.9910   33.6430   39.6970 C   0  0  0  0  0  0  0  0  0  0  0  0
   46.4870   33.8150   40.9420 N   0  0  0  0  0  0  0  0  0  0  0  0
   48.4840   35.9740   42.4710 H   0  0  0  0  0  0  0  0  0  0  0  0
   49.5790   35.8180   40.2700 H   0  0  0  0  0  0  0  0  0  0  0  0
   48.6580   34.3900   38.5870 H   0  0  0  0  0  0  0  0  0  0  0  0
   46.5550   32.8300   38.5860 C   0  0  0  0  0  0  0  0  0  0  0  0
   46.3410   33.4070   37.3950 N   0  0  0  0  0  0  0  0  0  0  0  0
   45.9360   32.7350   36.3100 C   0  0  0  0  0  3  0  0  0  0  0  0
   45.7080   31.3970   36.3390 N   0  0  0  0  0  0  0  0  0  0  0  0
   45.9000   30.7270   37.5130 C   0  0  0  0  0  0  0  0  0  0  0  0
   45.6850   29.3690   37.6050 C   0  0  0  0  0  3  0  0  0  0  0  0
   45.8760   28.6820   38.7860 C   0  0  0  0  0  0  0  0  0  0  0  0
   45.6750   27.6200   38.7320 H   0  0  0  0  0  0  0  0  0  0  0  0
   46.3000   29.4320   39.8890 C   0  0  0  0  0  0  0  0  0  0  0  0
   46.4370   28.8580   40.7930 H   0  0  0  0  0  0  0  0  0  0  0  0
   46.5010   30.7850   39.7470 C   0  0  0  0  0  3  0  0  0  0  0  0
   46.3160   31.4800   38.5850 C   0  0  0  0  0  0  0  0  0  0  0  0
  1  7  1  0  0  0  0
  1  6  1  0  0  0  0
  2  1  2  0  0  0  0
  3  2  1  0  0  0  0
  3  4  2  0  0  0  0
  4  5  1  0  0  0  0
  5  6  2  0  0  0  0
  5  9  1  0  0  0  0
  8  2  1  0  0  0  0
  9 15  1  1  0  0  0
  9 14  1  0  0  0  0
 10 11  1  0  0  0  0
 10 17  1  0  0  0  0
 10  9  1  0  0  0  0
 11 12  1  0  0  0  0
 12 21  1  0  0  0  0
 12 13  1  0  0  0  0
 13 22  1  0  0  0  0
 14 13  2  0  0  0  0
 14 23  1  0  0  0  0
 16 10  1  0  0  0  0
 18 11  1  0  0  0  0
 19 11  1  0  0  0  0
 20 12  1  0  0  0  0
 23 24  1  0  0  0  0
 25 23  1  0  0  0  0
 26  3  1  0  0  0  0
 27 26  1  0  0  0  0
 27 32  1  0  0  0  0
 28 27  2  0  0  0  0
 29 30  2  0  0  0  0
 29 28  1  0  0  0  0
 30 31  1  0  0  0  0
 31 26  2  0  0  0  0
 33 28  1  0  0  0  0
 34 29  1  0  0  0  0
 35 30  1  0  0  0  0
 36 35  2  0  0  0  0
 37 38  2  0  0  0  0
 37 36  1  0  0  0  0
 38 39  1  0  0  0  0
 39 40  2  0  0  0  0
 39 46  1  0  0  0  0
 40 41  1  0  0  0  0
 41 43  2  0  0  0  0
 42 41  1  0  0  0  0
 43 44  1  0  0  0  0
 45 43  1  0  0  0  0
 46 35  1  0  0  0  0
 46 45  2  0  0  0  0
M  END
>  <minimizedAffinity>
-7.38333845

>  <minimizedRMSD>
0.297220409

$$$$
