
 OpenBabel03252507433D

 34 37  0  0  0  0  0  0  0  0999 V2000
   44.4460   34.4820   41.0470 C   0  0  0  0  0  0  0  0  0  0  0  0
   43.6420   35.6570   41.1630 C   0  0  0  0  0  0  0  0  0  0  0  0
   42.0900   35.1430   40.2760 S   0  0  0  0  0  0  0  0  0  0  0  0
   42.8210   33.4430   39.9160 C   0  0  0  0  0  0  0  0  0  0  0  0
   43.8480   33.5220   40.3990 N   0  0  0  0  0  0  0  0  0  0  0  0
   43.9080   36.5820   41.6510 H   0  0  0  0  0  0  0  0  0  0  0  0
   41.8930   32.5850   39.1640 C   0  0  0  0  0  0  0  0  0  0  0  0
   42.0940   32.0670   37.9390 N   0  0  0  0  0  0  0  0  0  0  0  0
   41.2070   31.2940   37.3140 C   0  0  0  0  0  3  0  0  0  0  0  0
   40.0290   30.9720   37.8690 N   0  0  0  0  0  0  0  0  0  0  0  0
   39.7340   31.4370   39.0840 C   0  0  0  0  0  0  0  0  0  0  0  0
   38.5260   31.1100   39.6610 C   0  0  0  0  0  3  0  0  0  0  0  0
   38.2220   31.5990   40.9310 C   0  0  0  0  0  0  0  0  0  0  0  0
   37.2640   31.3170   41.3450 H   0  0  0  0  0  0  0  0  0  0  0  0
   39.1730   32.3990   41.5460 C   0  0  0  0  0  0  0  0  0  0  0  0
   38.8170   32.7170   42.5310 H   0  0  0  0  0  0  0  0  0  0  0  0
   40.3720   32.7110   40.9500 C   0  0  0  0  0  3  0  0  0  0  0  0
   40.6770   32.2330   39.6980 C   0  0  0  0  0  0  0  0  0  0  0  0
   45.8030   34.4420   41.6320 C   0  0  0  0  0  0  0  0  0  0  0  0
   45.8190   33.5690   42.3470 H   0  0  0  0  0  0  0  0  0  0  0  0
   45.9910   35.3320   42.2680 H   0  0  0  0  0  0  0  0  0  0  0  0
   46.9140   34.2600   40.6680 C   0  0  0  0  0  0  0  0  0  0  0  0
   46.6990   33.4920   39.9310 H   0  0  0  0  0  0  0  0  0  0  0  0
   46.9790   35.2230   40.0760 H   0  0  0  0  0  0  0  0  0  0  0  0
   48.2420   34.1010   41.2980 C   0  0  0  0  0  0  0  0  0  0  0  0
   48.9040   32.8800   41.0360 C   0  0  0  0  0  0  0  0  0  0  0  0
   50.1530   32.6530   41.5860 C   0  0  0  0  0  0  0  0  0  0  0  0
   50.6950   33.6410   42.3680 N   0  0  0  0  0  0  0  0  0  0  0  0
   50.0250   34.7930   42.5920 C   0  0  0  0  0  0  0  0  0  0  0  0
   48.8250   35.0110   42.0640 N   0  0  0  0  0  0  0  0  0  0  0  0
   50.6630   31.7310   41.3940 H   0  0  0  0  0  0  0  0  0  0  0  0
   50.5140   35.5400   43.2270 H   0  0  0  0  0  0  0  0  0  0  0  0
   48.1330   31.6330   40.0050 S   0  0  0  0  0  0  0  0  0  0  0  0
   47.1800   30.9630   40.8280 H   0  0  0  0  0  0  0  0  0  0  0  0
  1  2  2  0  0  0  0
  1 19  1  0  0  0  0
  2  6  1  0  0  0  0
  3  2  1  0  0  0  0
  4  3  1  0  0  0  0
  4  5  2  0  0  0  0
  5  1  1  0  0  0  0
  7 18  1  0  0  0  0
  7  4  1  0  0  0  0
  8  7  2  0  0  0  0
  9 10  2  0  0  0  0
  9  8  1  0  0  0  0
 10 11  1  0  0  0  0
 11 12  2  0  0  0  0
 11 18  1  0  0  0  0
 12 13  1  0  0  0  0
 13 14  1  0  0  0  0
 13 15  2  0  0  0  0
 15 16  1  0  0  0  0
 17 15  1  0  0  0  0
 18 17  2  0  0  0  0
 19 21  1  0  0  0  0
 19 20  1  0  0  0  0
 22 25  1  0  0  0  0
 22 19  1  0  0  0  0
 23 22  1  0  0  0  0
 24 22  1  0  0  0  0
 25 30  1  0  0  0  0
 26 25  2  0  0  0  0
 26 27  1  0  0  0  0
 27 28  2  0  0  0  0
 28 29  1  0  0  0  0
 29 32  1  0  0  0  0
 30 29  2  0  0  0  0
 31 27  1  0  0  0  0
 33 34  1  0  0  0  0
 33 26  1  0  0  0  0
M  END
>  <minimizedAffinity>
-5.2154603

>  <minimizedRMSD>
1.62929523

$$$$
