
 OpenBabel03252509243D

 30 33  0  0  1  0  0  0  0  0999 V2000
   46.7150   34.8260   41.9710 C   0  0  1  0  0  0  0  0  0  0  0  0
   48.1620   35.3780   42.0430 C   0  0  0  0  0  0  0  0  0  0  0  0
   47.7550   33.9220   41.6470 C   0  0  2  0  0  0  0  0  0  0  0  0
   46.0860   35.3470   41.2290 H   0  0  0  0  0  0  0  0  0  0  0  0
   48.6420   35.5090   43.0070 H   0  0  0  0  0  0  0  0  0  0  0  0
   48.4350   36.0430   41.2270 H   0  0  0  0  0  0  0  0  0  0  0  0
   48.0640   33.1650   42.4250 H   0  0  0  0  0  0  0  0  0  0  0  0
   48.1970   33.5520   40.3010 C   0  0  0  0  0  0  0  0  0  0  0  0
   47.6970   34.2480   39.2530 N   0  0  0  0  0  0  0  0  0  0  0  0
   48.0940   33.9170   38.0060 C   0  0  0  0  0  3  0  0  0  0  0  0
   48.9730   32.9220   37.7240 N   0  0  0  0  0  0  0  0  0  0  0  0
   49.4990   32.2020   38.7460 C   0  0  0  0  0  0  0  0  0  0  0  0
   50.4000   31.1720   38.5670 C   0  0  0  0  0  3  0  0  0  0  0  0
   50.9200   30.4550   39.6240 C   0  0  0  0  0  0  0  0  0  0  0  0
   51.6250   29.6480   39.4910 H   0  0  0  0  0  0  0  0  0  0  0  0
   50.5180   30.7860   40.9090 C   0  0  0  0  0  0  0  0  0  0  0  0
   50.9240   30.2250   41.7350 H   0  0  0  0  0  0  0  0  0  0  0  0
   49.6220   31.8140   41.0550 C   0  0  0  0  0  3  0  0  0  0  0  0
   49.0910   32.5430   40.0120 C   0  0  0  0  0  0  0  0  0  0  0  0
   44.5670   35.5440   44.9750 C   0  0  0  0  0  0  0  0  0  0  0  0
   45.1330   35.6950   43.6820 C   0  0  0  0  0  0  0  0  0  0  0  0
   46.1090   34.7850   43.3570 C   0  0  0  0  0  0  0  0  0  0  0  0
   46.4950   33.7980   44.2550 N   0  0  0  0  0  0  0  0  0  0  0  0
   45.9300   33.6960   45.4650 C   0  0  0  0  0  0  0  0  0  0  0  0
   44.9580   34.5810   45.8220 N   0  0  0  0  0  0  0  0  0  0  0  0
   43.7910   36.2500   45.2580 H   0  0  0  0  0  0  0  0  0  0  0  0
   46.3140   32.8980   46.0570 H   0  0  0  0  0  0  0  0  0  0  0  0
   44.7510   36.7300   42.7730 N   0  0  0  0  0  0  0  0  0  0  0  0
   45.4910   37.4270   43.0370 H   0  0  0  0  0  0  0  0  0  0  0  0
   43.9620   36.7110   42.0890 H   0  0  0  0  0  0  0  0  0  0  0  0
  1  4  1  6  0  0  0
  1  2  1  0  0  0  0
  1 22  1  0  0  0  0
  2  5  1  0  0  0  0
  3  1  1  0  0  0  0
  3  2  1  0  0  0  0
  3  7  1  1  0  0  0
  6  2  1  0  0  0  0
  8  3  1  0  0  0  0
  9  8  2  0  0  0  0
 10  9  1  0  0  0  0
 11 10  2  0  0  0  0
 11 12  1  0  0  0  0
 12 19  1  0  0  0  0
 13 12  2  0  0  0  0
 13 14  1  0  0  0  0
 14 16  2  0  0  0  0
 15 14  1  0  0  0  0
 16 18  1  0  0  0  0
 16 17  1  0  0  0  0
 19  8  1  0  0  0  0
 19 18  2  0  0  0  0
 20 26  1  0  0  0  0
 20 25  1  0  0  0  0
 21 20  2  0  0  0  0
 22 21  1  0  0  0  0
 22 23  2  0  0  0  0
 23 24  1  0  0  0  0
 24 25  2  0  0  0  0
 24 27  1  0  0  0  0
 28 29  1  0  0  0  0
 28 21  1  0  0  0  0
 30 28  1  0  0  0  0
M  END
>  <minimizedAffinity>
-5.39786816

>  <minimizedRMSD>
1.0880233

$$$$
