
 OpenBabel03252505073D

 46 50  0  0  1  0  0  0  0  0999 V2000
   44.5740   35.5660   44.5950 C   0  0  0  0  0  0  0  0  0  0  0  0
   45.2450   35.5900   43.3510 C   0  0  0  0  0  0  0  0  0  0  0  0
   46.3350   34.6980   43.1670 C   0  0  0  0  0  0  0  0  0  0  0  0
   46.6700   33.8730   44.1950 N   0  0  0  0  0  0  0  0  0  0  0  0
   46.0080   33.8770   45.3630 C   0  0  0  0  0  0  0  0  0  0  0  0
   44.9530   34.7280   45.5690 N   0  0  0  0  0  0  0  0  0  0  0  0
   43.7590   36.2610   44.6770 H   0  0  0  0  0  0  0  0  0  0  0  0
   44.9900   36.2360   42.5340 H   0  0  0  0  0  0  0  0  0  0  0  0
   46.4270   32.9610   46.4450 C   0  0  2  0  0  0  0  0  0  0  0  0
   46.9740   31.7400   45.7590 C   0  0  0  0  0  0  0  0  0  0  0  0
   46.0850   30.5570   45.7870 C   0  0  0  0  0  0  0  0  0  0  0  0
   45.8030   30.2930   47.2600 C   0  0  0  0  0  0  0  0  0  0  0  0
   45.0230   31.3660   47.8620 C   0  0  0  0  0  0  0  0  0  0  0  0
   45.3780   32.7360   47.4120 C   0  0  0  0  0  0  0  0  0  0  0  0
   47.2820   33.4940   46.9540 H   0  0  0  0  0  0  0  0  0  0  0  0
   47.2660   31.9350   44.6990 H   0  0  0  0  0  0  0  0  0  0  0  0
   47.9220   31.4570   46.2620 H   0  0  0  0  0  0  0  0  0  0  0  0
   45.1050   30.7480   45.3250 H   0  0  0  0  0  0  0  0  0  0  0  0
   46.6440   29.7030   45.3650 H   0  0  0  0  0  0  0  0  0  0  0  0
   45.1220   29.4070   47.2480 H   0  0  0  0  0  0  0  0  0  0  0  0
   46.7030   29.9800   47.8150 H   0  0  0  0  0  0  0  0  0  0  0  0
   44.2340   31.4580   48.5650 H   0  0  0  0  0  0  0  0  0  0  0  0
   44.6950   33.8660   47.9220 N   0  0  0  0  0  0  0  0  0  0  0  0
   45.1260   34.5330   48.6030 H   0  0  0  0  0  0  0  0  0  0  0  0
   43.7120   34.0020   47.5750 H   0  0  0  0  0  0  0  0  0  0  0  0
   47.0540   34.6990   41.9060 C   0  0  0  0  0  0  0  0  0  0  0  0
   48.1610   35.4710   41.7900 C   0  0  0  0  0  0  0  0  0  0  0  0
   48.8150   35.4210   40.5400 C   0  0  0  0  0  0  0  0  0  0  0  0
   48.2560   34.5990   39.5880 C   0  0  0  0  0  0  0  0  0  0  0  0
   47.1440   33.8240   39.6970 C   0  0  0  0  0  0  0  0  0  0  0  0
   46.6040   33.9500   40.9320 N   0  0  0  0  0  0  0  0  0  0  0  0
   48.5300   36.0840   42.5830 H   0  0  0  0  0  0  0  0  0  0  0  0
   49.6860   36.0120   40.4100 H   0  0  0  0  0  0  0  0  0  0  0  0
   48.8320   34.6280   38.6580 H   0  0  0  0  0  0  0  0  0  0  0  0
   46.7500   33.0420   38.5490 C   0  0  0  0  0  0  0  0  0  0  0  0
   45.5600   33.2750   37.9730 N   0  0  0  0  0  0  0  0  0  0  0  0
   45.1110   32.6020   36.9070 C   0  0  0  0  0  3  0  0  0  0  0  0
   45.8390   31.6160   36.3220 N   0  0  0  0  0  0  0  0  0  0  0  0
   47.0630   31.3120   36.8440 C   0  0  0  0  0  0  0  0  0  0  0  0
   47.8490   30.3220   36.2940 C   0  0  0  0  0  3  0  0  0  0  0  0
   49.0870   30.0060   36.8110 C   0  0  0  0  0  0  0  0  0  0  0  0
   49.6080   29.2120   36.2940 H   0  0  0  0  0  0  0  0  0  0  0  0
   49.5090   30.7400   37.9260 C   0  0  0  0  0  0  0  0  0  0  0  0
   50.4830   30.4610   38.3010 H   0  0  0  0  0  0  0  0  0  0  0  0
   48.6900   31.7190   38.4400 C   0  0  0  0  0  3  0  0  0  0  0  0
   47.4600   32.0430   37.9370 C   0  0  0  0  0  0  0  0  0  0  0  0
  1  7  1  0  0  0  0
  1  6  1  0  0  0  0
  2  1  2  0  0  0  0
  3  2  1  0  0  0  0
  3  4  2  0  0  0  0
  4  5  1  0  0  0  0
  5  6  2  0  0  0  0
  5  9  1  0  0  0  0
  8  2  1  0  0  0  0
  9 15  1  1  0  0  0
  9 14  1  0  0  0  0
 10 11  1  0  0  0  0
 10 17  1  0  0  0  0
 10  9  1  0  0  0  0
 11 12  1  0  0  0  0
 12 21  1  0  0  0  0
 12 13  1  0  0  0  0
 13 22  1  0  0  0  0
 14 13  2  0  0  0  0
 14 23  1  0  0  0  0
 16 10  1  0  0  0  0
 18 11  1  0  0  0  0
 19 11  1  0  0  0  0
 20 12  1  0  0  0  0
 23 24  1  0  0  0  0
 25 23  1  0  0  0  0
 26  3  1  0  0  0  0
 27 26  1  0  0  0  0
 27 32  1  0  0  0  0
 28 27  2  0  0  0  0
 29 30  2  0  0  0  0
 29 28  1  0  0  0  0
 30 31  1  0  0  0  0
 31 26  2  0  0  0  0
 33 28  1  0  0  0  0
 34 29  1  0  0  0  0
 35 30  1  0  0  0  0
 36 35  1  0  0  0  0
 37 36  2  0  0  0  0
 38 39  2  0  0  0  0
 38 37  1  0  0  0  0
 39 46  1  0  0  0  0
 40 41  2  0  0  0  0
 40 39  1  0  0  0  0
 41 43  1  0  0  0  0
 42 41  1  0  0  0  0
 43 44  1  0  0  0  0
 43 45  2  0  0  0  0
 46 45  1  0  0  0  0
 46 35  2  0  0  0  0
M  END
>  <minimizedAffinity>
-7.6001873

>  <minimizedRMSD>
0.154331356

$$$$
