
 OpenBabel03252505073D

 46 50  0  0  1  0  0  0  0  0999 V2000
   44.5770   35.6000   44.6250 C   0  0  0  0  0  0  0  0  0  0  0  0
   45.2290   35.6120   43.3700 C   0  0  0  0  0  0  0  0  0  0  0  0
   46.3020   34.7030   43.1720 C   0  0  0  0  0  0  0  0  0  0  0  0
   46.6410   33.8760   44.1960 N   0  0  0  0  0  0  0  0  0  0  0  0
   45.9990   33.8930   45.3750 C   0  0  0  0  0  0  0  0  0  0  0  0
   44.9590   34.7600   45.5950 N   0  0  0  0  0  0  0  0  0  0  0  0
   43.7730   36.3080   44.7180 H   0  0  0  0  0  0  0  0  0  0  0  0
   44.9700   36.2590   42.5560 H   0  0  0  0  0  0  0  0  0  0  0  0
   46.4210   32.9740   46.4530 C   0  0  2  0  0  0  0  0  0  0  0  0
   46.9720   31.7570   45.7620 C   0  0  0  0  0  0  0  0  0  0  0  0
   46.0860   30.5720   45.7860 C   0  0  0  0  0  0  0  0  0  0  0  0
   45.8060   30.3010   47.2570 C   0  0  0  0  0  0  0  0  0  0  0  0
   45.0240   31.3680   47.8640 C   0  0  0  0  0  0  0  0  0  0  0  0
   45.3740   32.7410   47.4200 C   0  0  0  0  0  0  0  0  0  0  0  0
   47.2750   33.5080   46.9640 H   0  0  0  0  0  0  0  0  0  0  0  0
   47.2620   31.9580   44.7020 H   0  0  0  0  0  0  0  0  0  0  0  0
   47.9210   31.4750   46.2630 H   0  0  0  0  0  0  0  0  0  0  0  0
   45.1050   30.7610   45.3250 H   0  0  0  0  0  0  0  0  0  0  0  0
   46.6470   29.7220   45.3590 H   0  0  0  0  0  0  0  0  0  0  0  0
   45.1280   29.4120   47.2420 H   0  0  0  0  0  0  0  0  0  0  0  0
   46.7080   29.9880   47.8100 H   0  0  0  0  0  0  0  0  0  0  0  0
   44.2350   31.4550   48.5680 H   0  0  0  0  0  0  0  0  0  0  0  0
   44.6870   33.8670   47.9350 N   0  0  0  0  0  0  0  0  0  0  0  0
   45.1160   34.5320   48.6180 H   0  0  0  0  0  0  0  0  0  0  0  0
   43.7030   34.0010   47.5890 H   0  0  0  0  0  0  0  0  0  0  0  0
   47.0010   34.6910   41.9000 C   0  0  0  0  0  0  0  0  0  0  0  0
   48.1440   35.4080   41.7790 C   0  0  0  0  0  0  0  0  0  0  0  0
   48.7750   35.3470   40.5180 C   0  0  0  0  0  0  0  0  0  0  0  0
   48.1610   34.5720   39.5610 C   0  0  0  0  0  0  0  0  0  0  0  0
   47.0130   33.8520   39.6750 C   0  0  0  0  0  0  0  0  0  0  0  0
   46.4990   33.9830   40.9200 N   0  0  0  0  0  0  0  0  0  0  0  0
   48.5550   35.9870   42.5770 H   0  0  0  0  0  0  0  0  0  0  0  0
   49.6730   35.8950   40.3830 H   0  0  0  0  0  0  0  0  0  0  0  0
   48.7230   34.5870   38.6220 H   0  0  0  0  0  0  0  0  0  0  0  0
   46.5610   33.1120   38.5210 C   0  0  0  0  0  0  0  0  0  0  0  0
   47.4360   32.8050   37.5510 N   0  0  0  0  0  0  0  0  0  0  0  0
   47.1090   32.1240   36.4480 C   0  0  0  0  0  3  0  0  0  0  0  0
   45.8430   31.6860   36.2250 N   0  0  0  0  0  0  0  0  0  0  0  0
   44.8850   31.9540   37.1590 C   0  0  0  0  0  0  0  0  0  0  0  0
   43.5840   31.5350   36.9890 C   0  0  0  0  0  3  0  0  0  0  0  0
   42.6070   31.7990   37.9270 C   0  0  0  0  0  0  0  0  0  0  0  0
   41.6250   31.4190   37.6810 H   0  0  0  0  0  0  0  0  0  0  0  0
   43.0030   32.5150   39.0620 C   0  0  0  0  0  0  0  0  0  0  0  0
   42.2100   32.7000   39.7720 H   0  0  0  0  0  0  0  0  0  0  0  0
   44.3150   32.9110   39.1880 C   0  0  0  0  0  3  0  0  0  0  0  0
   45.2920   32.6560   38.2670 C   0  0  0  0  0  0  0  0  0  0  0  0
  1  7  1  0  0  0  0
  1  6  1  0  0  0  0
  2  1  2  0  0  0  0
  3  2  1  0  0  0  0
  3  4  2  0  0  0  0
  4  5  1  0  0  0  0
  5  6  2  0  0  0  0
  5  9  1  0  0  0  0
  8  2  1  0  0  0  0
  9 15  1  1  0  0  0
  9 14  1  0  0  0  0
 10 11  1  0  0  0  0
 10 17  1  0  0  0  0
 10  9  1  0  0  0  0
 11 12  1  0  0  0  0
 12 21  1  0  0  0  0
 12 13  1  0  0  0  0
 13 22  1  0  0  0  0
 14 13  2  0  0  0  0
 14 23  1  0  0  0  0
 16 10  1  0  0  0  0
 18 11  1  0  0  0  0
 19 11  1  0  0  0  0
 20 12  1  0  0  0  0
 23 24  1  0  0  0  0
 25 23  1  0  0  0  0
 26  3  1  0  0  0  0
 27 26  1  0  0  0  0
 27 32  1  0  0  0  0
 28 27  2  0  0  0  0
 29 30  2  0  0  0  0
 29 28  1  0  0  0  0
 30 31  1  0  0  0  0
 31 26  2  0  0  0  0
 33 28  1  0  0  0  0
 34 29  1  0  0  0  0
 35 30  1  0  0  0  0
 36 35  2  0  0  0  0
 37 36  1  0  0  0  0
 38 37  2  0  0  0  0
 38 39  1  0  0  0  0
 39 46  1  0  0  0  0
 40 39  2  0  0  0  0
 40 41  1  0  0  0  0
 41 43  2  0  0  0  0
 42 41  1  0  0  0  0
 43 45  1  0  0  0  0
 43 44  1  0  0  0  0
 46 35  1  0  0  0  0
 46 45  2  0  0  0  0
M  END
>  <minimizedAffinity>
-7.86293936

>  <minimizedRMSD>
0.154395536

$$$$
