
 OpenBabel03242513583D

 37 41  0  0  0  0  0  0  0  0999 V2000
   38.0430   30.6830   41.5850 C   0  0  0  0  0  0  0  0  0  0  0  0
   36.8590   30.3700   40.9280 C   0  0  0  0  0  0  0  0  0  0  0  0
   36.5130   31.2060   39.8700 C   0  0  0  0  0  0  0  0  0  0  0  0
   37.3130   32.2290   39.5520 N   0  0  0  0  0  0  0  0  0  0  0  0
   38.4430   32.5230   40.1830 C   0  0  0  0  0  0  0  0  0  0  0  0
   38.7810   31.7190   41.2070 N   0  0  0  0  0  0  0  0  0  0  0  0
   38.2890   30.0220   42.4030 H   0  0  0  0  0  0  0  0  0  0  0  0
   35.6310   31.1040   39.2590 H   0  0  0  0  0  0  0  0  0  0  0  0
   39.4600   33.5830   40.0050 C   0  0  0  0  0  0  0  0  0  0  0  0
   39.5050   34.7150   40.7000 N   0  0  0  0  0  0  0  0  0  0  0  0
   40.4260   35.6610   40.5310 C   0  0  0  0  0  3  0  0  0  0  0  0
   41.4130   35.5410   39.6130 N   0  0  0  0  0  0  0  0  0  0  0  0
   41.4530   34.4130   38.8470 C   0  0  0  0  0  0  0  0  0  0  0  0
   42.4670   34.3220   37.9260 C   0  0  0  0  0  3  0  0  0  0  0  0
   42.5390   33.1960   37.1350 C   0  0  0  0  0  0  0  0  0  0  0  0
   43.3570   33.1870   36.4320 H   0  0  0  0  0  0  0  0  0  0  0  0
   41.5850   32.2160   37.3100 C   0  0  0  0  0  0  0  0  0  0  0  0
   41.6890   31.3600   36.6680 H   0  0  0  0  0  0  0  0  0  0  0  0
   40.6000   32.3820   38.2570 C   0  0  0  0  0  3  0  0  0  0  0  0
   40.4720   33.4800   39.0770 C   0  0  0  0  0  0  0  0  0  0  0  0
   36.0270   29.3240   41.2400 O   0  0  0  0  0  0  0  0  0  0  0  0
   36.4510   28.0240   41.4950 C   0  0  0  0  0  0  0  0  0  0  0  0
   36.7610   27.4800   42.7270 C   0  0  0  0  0  0  0  0  0  0  0  0
   37.1700   26.1640   42.8070 C   0  0  0  0  0  0  0  0  0  0  0  0
   37.2840   25.3580   41.6860 C   0  0  0  0  0  0  0  0  0  0  0  0
   37.6940   24.0830   41.8600 N   0  0  0  0  0  0  0  0  0  0  0  0
   37.8160   23.2780   40.7730 C   0  0  0  0  0  0  0  0  0  0  0  0
   37.5200   23.7770   39.5430 C   0  0  0  0  0  0  0  0  0  0  0  0
   37.0920   25.1100   39.3680 C   0  0  0  0  0  0  0  0  0  0  0  0
   36.9670   25.9270   40.4590 C   0  0  0  0  0  0  0  0  0  0  0  0
   36.5550   27.2390   40.3340 C   0  0  0  0  0  0  0  0  0  0  0  0
   36.6590   28.1360   43.5670 H   0  0  0  0  0  0  0  0  0  0  0  0
   37.4120   25.7380   43.7720 H   0  0  0  0  0  0  0  0  0  0  0  0
   38.1360   22.2600   40.8510 H   0  0  0  0  0  0  0  0  0  0  0  0
   37.5750   23.2420   38.6000 H   0  0  0  0  0  0  0  0  0  0  0  0
   36.8470   25.5470   38.4090 H   0  0  0  0  0  0  0  0  0  0  0  0
   36.3320   27.5910   39.3510 H   0  0  0  0  0  0  0  0  0  0  0  0
  1  7  1  0  0  0  0
  2 21  1  0  0  0  0
  2  1  2  0  0  0  0
  3  2  1  0  0  0  0
  4  3  2  0  0  0  0
  4  5  1  0  0  0  0
  5  6  2  0  0  0  0
  6  1  1  0  0  0  0
  8  3  1  0  0  0  0
  9  5  1  0  0  0  0
  9 10  1  0  0  0  0
 11 10  2  0  0  0  0
 12 11  1  0  0  0  0
 13 20  1  0  0  0  0
 13 12  2  0  0  0  0
 14 13  1  0  0  0  0
 15 17  1  0  0  0  0
 15 14  2  0  0  0  0
 16 15  1  0  0  0  0
 17 19  2  0  0  0  0
 18 17  1  0  0  0  0
 19 20  1  0  0  0  0
 20  9  2  0  0  0  0
 21 22  1  0  0  0  0
 22 23  1  0  0  0  0
 23 24  2  0  0  0  0
 23 32  1  0  0  0  0
 24 33  1  0  0  0  0
 25 26  1  0  0  0  0
 25 24  1  0  0  0  0
 27 34  1  0  0  0  0
 27 26  2  0  0  0  0
 28 27  1  0  0  0  0
 29 28  2  0  0  0  0
 29 30  1  0  0  0  0
 30 25  2  0  0  0  0
 31 30  1  0  0  0  0
 31 22  2  0  0  0  0
 35 28  1  0  0  0  0
 36 29  1  0  0  0  0
 37 31  1  0  0  0  0
M  END
>  <minimizedAffinity>
-6.89584541

$$$$

 OpenBabel03242513583D

 37 41  0  0  0  0  0  0  0  0999 V2000
   37.3430   31.0640   38.6760 C   0  0  0  0  0  0  0  0  0  0  0  0
   36.9790   31.8220   39.7830 C   0  0  0  0  0  0  0  0  0  0  0  0
   36.3380   31.1300   40.8080 C   0  0  0  0  0  0  0  0  0  0  0  0
   36.1160   29.8180   40.6760 N   0  0  0  0  0  0  0  0  0  0  0  0
   36.4660   29.0990   39.6160 C   0  0  0  0  0  0  0  0  0  0  0  0
   37.0850   29.7630   38.6230 N   0  0  0  0  0  0  0  0  0  0  0  0
   37.8370   31.6220   37.8950 H   0  0  0  0  0  0  0  0  0  0  0  0
   35.9910   31.5660   41.7310 H   0  0  0  0  0  0  0  0  0  0  0  0
   36.3230   27.6690   39.2660 C   0  0  0  0  0  0  0  0  0  0  0  0
   35.9100   27.2140   38.0880 N   0  0  0  0  0  0  0  0  0  0  0  0
   35.7860   25.9240   37.7850 C   0  0  0  0  0  3  0  0  0  0  0  0
   36.0760   24.9500   38.6780 N   0  0  0  0  0  0  0  0  0  0  0  0
   36.5090   25.3150   39.9190 C   0  0  0  0  0  0  0  0  0  0  0  0
   36.7960   24.3020   40.8010 C   0  0  0  0  0  3  0  0  0  0  0  0
   37.2360   24.6340   42.0630 C   0  0  0  0  0  0  0  0  0  0  0  0
   37.4430   23.7940   42.7060 H   0  0  0  0  0  0  0  0  0  0  0  0
   37.3650   25.9710   42.3770 C   0  0  0  0  0  0  0  0  0  0  0  0
   37.7120   26.1720   43.3740 H   0  0  0  0  0  0  0  0  0  0  0  0
   37.0570   26.9270   41.4360 C   0  0  0  0  0  3  0  0  0  0  0  0
   36.6140   26.6630   40.1600 C   0  0  0  0  0  0  0  0  0  0  0  0
   37.2000   33.1680   39.9340 O   0  0  0  0  0  0  0  0  0  0  0  0
   38.4440   33.7450   40.1640 C   0  0  0  0  0  0  0  0  0  0  0  0
   38.7520   35.0920   40.1280 C   0  0  0  0  0  0  0  0  0  0  0  0
   40.0450   35.5030   40.3800 C   0  0  0  0  0  0  0  0  0  0  0  0
   41.0600   34.6050   40.6710 C   0  0  0  0  0  0  0  0  0  0  0  0
   42.2960   35.0970   40.9020 N   0  0  0  0  0  0  0  0  0  0  0  0
   43.3040   34.2330   41.1860 C   0  0  0  0  0  0  0  0  0  0  0  0
   43.0420   32.9000   41.2310 C   0  0  0  0  0  0  0  0  0  0  0  0
   41.7480   32.3920   40.9890 C   0  0  0  0  0  0  0  0  0  0  0  0
   40.7260   33.2560   40.7020 C   0  0  0  0  0  0  0  0  0  0  0  0
   39.4460   32.8030   40.4550 C   0  0  0  0  0  0  0  0  0  0  0  0
   37.9400   35.7510   39.8990 H   0  0  0  0  0  0  0  0  0  0  0  0
   40.2860   36.5570   40.3520 H   0  0  0  0  0  0  0  0  0  0  0  0
   44.3030   34.5670   41.3780 H   0  0  0  0  0  0  0  0  0  0  0  0
   43.7540   32.1090   41.4460 H   0  0  0  0  0  0  0  0  0  0  0  0
   41.4950   31.3410   41.0150 H   0  0  0  0  0  0  0  0  0  0  0  0
   39.2820   31.7500   40.5010 H   0  0  0  0  0  0  0  0  0  0  0  0
  1  2  1  0  0  0  0
  2 21  1  0  0  0  0
  2  3  2  0  0  0  0
  3  8  1  0  0  0  0
  4  3  1  0  0  0  0
  5  4  2  0  0  0  0
  6  1  2  0  0  0  0
  6  5  1  0  0  0  0
  7  1  1  0  0  0  0
  9  5  1  0  0  0  0
  9 20  1  0  0  0  0
 10  9  2  0  0  0  0
 11 10  1  0  0  0  0
 11 12  2  0  0  0  0
 12 13  1  0  0  0  0
 13 20  2  0  0  0  0
 13 14  1  0  0  0  0
 14 15  2  0  0  0  0
 15 17  1  0  0  0  0
 15 16  1  0  0  0  0
 17 18  1  0  0  0  0
 19 17  2  0  0  0  0
 20 19  1  0  0  0  0
 21 22  1  0  0  0  0
 22 31  1  0  0  0  0
 23 22  2  0  0  0  0
 23 24  1  0  0  0  0
 24 25  2  0  0  0  0
 25 30  1  0  0  0  0
 25 26  1  0  0  0  0
 26 27  2  0  0  0  0
 27 28  1  0  0  0  0
 27 34  1  0  0  0  0
 28 35  1  0  0  0  0
 29 36  1  0  0  0  0
 29 28  2  0  0  0  0
 30 29  1  0  0  0  0
 31 37  1  0  0  0  0
 31 30  2  0  0  0  0
 32 23  1  0  0  0  0
 33 24  1  0  0  0  0
M  END
>  <minimizedAffinity>
-6.79912281

$$$$

 OpenBabel03242513583D

 37 41  0  0  0  0  0  0  0  0999 V2000
   36.8840   30.7430   40.5680 C   0  0  0  0  0  0  0  0  0  0  0  0
   37.3160   29.7030   41.3820 C   0  0  0  0  0  0  0  0  0  0  0  0
   38.5790   29.8600   41.9480 C   0  0  0  0  0  0  0  0  0  0  0  0
   39.2820   30.9670   41.6880 N   0  0  0  0  0  0  0  0  0  0  0  0
   38.8640   31.9570   40.9090 C   0  0  0  0  0  0  0  0  0  0  0  0
   37.6450   31.8090   40.3590 N   0  0  0  0  0  0  0  0  0  0  0  0
   35.9030   30.5980   40.1400 H   0  0  0  0  0  0  0  0  0  0  0  0
   39.0610   29.1500   42.6000 H   0  0  0  0  0  0  0  0  0  0  0  0
   39.4630   33.2440   40.4920 C   0  0  0  0  0  0  0  0  0  0  0  0
   39.0790   34.4380   40.9330 N   0  0  0  0  0  0  0  0  0  0  0  0
   39.6270   35.5890   40.5510 C   0  0  0  0  0  3  0  0  0  0  0  0
   40.6430   35.6350   39.6580 N   0  0  0  0  0  0  0  0  0  0  0  0
   41.1100   34.4600   39.1460 C   0  0  0  0  0  0  0  0  0  0  0  0
   42.1420   34.5410   38.2440 C   0  0  0  0  0  3  0  0  0  0  0  0
   42.6380   33.3740   37.7060 C   0  0  0  0  0  0  0  0  0  0  0  0
   43.4470   33.5070   37.0050 H   0  0  0  0  0  0  0  0  0  0  0  0
   42.0720   32.1820   38.1020 C   0  0  0  0  0  0  0  0  0  0  0  0
   42.4980   31.3040   37.6520 H   0  0  0  0  0  0  0  0  0  0  0  0
   41.0390   32.1840   39.0130 C   0  0  0  0  0  3  0  0  0  0  0  0
   40.4980   33.3130   39.5860 C   0  0  0  0  0  0  0  0  0  0  0  0
   36.6070   28.5620   41.6610 O   0  0  0  0  0  0  0  0  0  0  0  0
   36.6330   27.4040   40.8900 C   0  0  0  0  0  0  0  0  0  0  0  0
   36.2230   27.2750   39.5750 C   0  0  0  0  0  0  0  0  0  0  0  0
   36.3150   26.0480   38.9510 C   0  0  0  0  0  0  0  0  0  0  0  0
   36.8080   24.9260   39.5990 C   0  0  0  0  0  0  0  0  0  0  0  0
   36.8580   23.7660   38.9100 N   0  0  0  0  0  0  0  0  0  0  0  0
   37.3340   22.6550   39.5280 C   0  0  0  0  0  0  0  0  0  0  0  0
   37.7470   22.7420   40.8210 C   0  0  0  0  0  0  0  0  0  0  0  0
   37.6920   23.9570   41.5360 C   0  0  0  0  0  0  0  0  0  0  0  0
   37.2130   25.0810   40.9190 C   0  0  0  0  0  0  0  0  0  0  0  0
   37.1380   26.2900   41.5810 C   0  0  0  0  0  0  0  0  0  0  0  0
   35.8500   28.1650   39.1130 H   0  0  0  0  0  0  0  0  0  0  0  0
   35.9950   25.9470   37.9230 H   0  0  0  0  0  0  0  0  0  0  0  0
   37.3970   21.7090   39.0310 H   0  0  0  0  0  0  0  0  0  0  0  0
   38.1460   21.9340   41.4260 H   0  0  0  0  0  0  0  0  0  0  0  0
   38.0090   24.0700   42.5630 H   0  0  0  0  0  0  0  0  0  0  0  0
   37.4720   26.3160   42.5940 H   0  0  0  0  0  0  0  0  0  0  0  0
  1  2  1  0  0  0  0
  2 21  1  0  0  0  0
  2  3  2  0  0  0  0
  3  8  1  0  0  0  0
  4  3  1  0  0  0  0
  5  4  2  0  0  0  0
  6  1  2  0  0  0  0
  6  5  1  0  0  0  0
  7  1  1  0  0  0  0
  9  5  1  0  0  0  0
  9 10  1  0  0  0  0
 11 10  2  0  0  0  0
 12 11  1  0  0  0  0
 13 20  1  0  0  0  0
 13 12  2  0  0  0  0
 14 13  1  0  0  0  0
 15 17  1  0  0  0  0
 15 14  2  0  0  0  0
 16 15  1  0  0  0  0
 17 19  2  0  0  0  0
 18 17  1  0  0  0  0
 19 20  1  0  0  0  0
 20  9  2  0  0  0  0
 22 31  1  0  0  0  0
 22 21  1  0  0  0  0
 23 22  2  0  0  0  0
 24 23  1  0  0  0  0
 24 25  2  0  0  0  0
 25 30  1  0  0  0  0
 26 27  2  0  0  0  0
 26 25  1  0  0  0  0
 27 28  1  0  0  0  0
 28 35  1  0  0  0  0
 28 29  2  0  0  0  0
 29 36  1  0  0  0  0
 30 29  1  0  0  0  0
 30 31  2  0  0  0  0
 31 37  1  0  0  0  0
 32 23  1  0  0  0  0
 33 24  1  0  0  0  0
 34 27  1  0  0  0  0
M  END
>  <minimizedAffinity>
-6.45896721

$$$$

 OpenBabel03242513583D

 37 41  0  0  0  0  0  0  0  0999 V2000
   39.7150   32.4860   40.9620 C   0  0  0  0  0  0  0  0  0  0  0  0
   38.6930   33.3080   40.5030 C   0  0  0  0  0  0  0  0  0  0  0  0
   39.0760   34.5830   40.0950 C   0  0  0  0  0  0  0  0  0  0  0  0
   40.3640   34.9350   40.1640 N   0  0  0  0  0  0  0  0  0  0  0  0
   41.3360   34.1460   40.6040 C   0  0  0  0  0  0  0  0  0  0  0  0
   40.9710   32.9140   41.0000 N   0  0  0  0  0  0  0  0  0  0  0  0
   39.3930   31.5040   41.2740 H   0  0  0  0  0  0  0  0  0  0  0  0
   38.4110   35.3410   39.7140 H   0  0  0  0  0  0  0  0  0  0  0  0
   42.7970   34.3250   40.7640 C   0  0  0  0  0  0  0  0  0  0  0  0
   43.3890   34.7810   41.8620 N   0  0  0  0  0  0  0  0  0  0  0  0
   44.7040   34.9370   41.9940 C   0  0  0  0  0  3  0  0  0  0  0  0
   45.5630   34.6370   40.9920 N   0  0  0  0  0  0  0  0  0  0  0  0
   45.0510   34.1600   39.8210 C   0  0  0  0  0  0  0  0  0  0  0  0
   45.9490   33.8650   38.8250 C   0  0  0  0  0  3  0  0  0  0  0  0
   45.4680   33.3810   37.6270 C   0  0  0  0  0  0  0  0  0  0  0  0
   46.2240   33.1690   36.8880 H   0  0  0  0  0  0  0  0  0  0  0  0
   44.1060   33.2190   37.4910 C   0  0  0  0  0  0  0  0  0  0  0  0
   43.7860   32.8390   36.5380 H   0  0  0  0  0  0  0  0  0  0  0  0
   43.2710   33.5380   38.5380 C   0  0  0  0  0  3  0  0  0  0  0  0
   43.6860   34.0250   39.7570 C   0  0  0  0  0  0  0  0  0  0  0  0
   37.3670   32.9620   40.4240 O   0  0  0  0  0  0  0  0  0  0  0  0
   36.8940   31.7370   39.9640 C   0  0  0  0  0  0  0  0  0  0  0  0
   36.2370   30.7720   40.7040 C   0  0  0  0  0  0  0  0  0  0  0  0
   35.8310   29.6040   40.0910 C   0  0  0  0  0  0  0  0  0  0  0  0
   36.0600   29.3580   38.7470 C   0  0  0  0  0  0  0  0  0  0  0  0
   35.6300   28.1860   38.2340 N   0  0  0  0  0  0  0  0  0  0  0  0
   35.8470   27.9240   36.9190 C   0  0  0  0  0  0  0  0  0  0  0  0
   36.4910   28.8490   36.1580 C   0  0  0  0  0  0  0  0  0  0  0  0
   36.9380   30.0730   36.7000 C   0  0  0  0  0  0  0  0  0  0  0  0
   36.7220   30.3430   38.0240 C   0  0  0  0  0  0  0  0  0  0  0  0
   37.1450   31.5250   38.5980 C   0  0  0  0  0  0  0  0  0  0  0  0
   36.0800   31.0020   41.7370 H   0  0  0  0  0  0  0  0  0  0  0  0
   35.3160   28.8490   40.6710 H   0  0  0  0  0  0  0  0  0  0  0  0
   35.5280   27.0120   36.4590 H   0  0  0  0  0  0  0  0  0  0  0  0
   36.7250   28.7650   35.1020 H   0  0  0  0  0  0  0  0  0  0  0  0
   37.4520   30.8350   36.1310 H   0  0  0  0  0  0  0  0  0  0  0  0
   37.6450   32.2240   37.9650 H   0  0  0  0  0  0  0  0  0  0  0  0
  1  6  1  0  0  0  0
  1  7  1  0  0  0  0
  2  1  2  0  0  0  0
  3  4  2  0  0  0  0
  3  2  1  0  0  0  0
  4  5  1  0  0  0  0
  5  9  1  0  0  0  0
  5  6  2  0  0  0  0
  8  3  1  0  0  0  0
  9 10  1  0  0  0  0
 10 11  2  0  0  0  0
 12 11  1  0  0  0  0
 13 12  2  0  0  0  0
 14 13  1  0  0  0  0
 15 14  2  0  0  0  0
 16 15  1  0  0  0  0
 17 15  1  0  0  0  0
 17 19  2  0  0  0  0
 18 17  1  0  0  0  0
 19 20  1  0  0  0  0
 20 13  1  0  0  0  0
 20  9  2  0  0  0  0
 21  2  1  0  0  0  0
 22 21  1  0  0  0  0
 22 23  1  0  0  0  0
 23 32  1  0  0  0  0
 24 33  1  0  0  0  0
 24 23  2  0  0  0  0
 25 24  1  0  0  0  0
 26 25  1  0  0  0  0
 27 26  2  0  0  0  0
 28 29  2  0  0  0  0
 28 27  1  0  0  0  0
 29 30  1  0  0  0  0
 30 31  1  0  0  0  0
 30 25  2  0  0  0  0
 31 22  2  0  0  0  0
 34 27  1  0  0  0  0
 35 28  1  0  0  0  0
 36 29  1  0  0  0  0
 37 31  1  0  0  0  0
M  END
>  <minimizedAffinity>
-6.42268372

$$$$

 OpenBabel03242513583D

 37 41  0  0  0  0  0  0  0  0999 V2000
   37.0190   30.6320   38.3670 C   0  0  0  0  0  0  0  0  0  0  0  0
   36.1660   29.9810   39.2500 C   0  0  0  0  0  0  0  0  0  0  0  0
   36.1150   30.5020   40.5410 C   0  0  0  0  0  0  0  0  0  0  0  0
   36.8630   31.5670   40.8490 N   0  0  0  0  0  0  0  0  0  0  0  0
   37.6760   32.1850   40.0010 C   0  0  0  0  0  0  0  0  0  0  0  0
   37.7300   31.6840   38.7530 N   0  0  0  0  0  0  0  0  0  0  0  0
   37.0420   30.2090   37.3740 H   0  0  0  0  0  0  0  0  0  0  0  0
   35.5080   30.1180   41.3440 H   0  0  0  0  0  0  0  0  0  0  0  0
   38.5760   33.3530   40.1240 C   0  0  0  0  0  0  0  0  0  0  0  0
   38.2020   34.6190   39.9690 N   0  0  0  0  0  0  0  0  0  0  0  0
   39.0210   35.6610   40.0830 C   0  0  0  0  0  3  0  0  0  0  0  0
   40.3340   35.5090   40.3720 N   0  0  0  0  0  0  0  0  0  0  0  0
   40.8170   34.2460   40.5510 C   0  0  0  0  0  0  0  0  0  0  0  0
   42.1530   34.1260   40.8440 C   0  0  0  0  0  3  0  0  0  0  0  0
   42.6760   32.8650   41.0300 C   0  0  0  0  0  0  0  0  0  0  0  0
   43.7300   32.8400   41.2560 H   0  0  0  0  0  0  0  0  0  0  0  0
   41.8270   31.7850   40.9120 C   0  0  0  0  0  0  0  0  0  0  0  0
   42.2870   30.8260   41.0680 H   0  0  0  0  0  0  0  0  0  0  0  0
   40.4980   31.9890   40.6160 C   0  0  0  0  0  3  0  0  0  0  0  0
   39.9140   33.2200   40.4180 C   0  0  0  0  0  0  0  0  0  0  0  0
   35.3910   28.8890   38.9500 O   0  0  0  0  0  0  0  0  0  0  0  0
   35.8120   27.5670   39.0490 C   0  0  0  0  0  0  0  0  0  0  0  0
   35.6880   26.5840   38.0850 C   0  0  0  0  0  0  0  0  0  0  0  0
   36.1610   25.3130   38.3430 C   0  0  0  0  0  0  0  0  0  0  0  0
   36.7610   24.9810   39.5470 C   0  0  0  0  0  0  0  0  0  0  0  0
   37.1920   23.7120   39.7120 N   0  0  0  0  0  0  0  0  0  0  0  0
   37.7800   23.3660   40.8860 C   0  0  0  0  0  0  0  0  0  0  0  0
   37.9200   24.3050   41.8600 C   0  0  0  0  0  0  0  0  0  0  0  0
   37.4680   25.6300   41.6810 C   0  0  0  0  0  0  0  0  0  0  0  0
   36.8740   25.9860   40.5000 C   0  0  0  0  0  0  0  0  0  0  0  0
   36.4150   27.2690   40.2830 C   0  0  0  0  0  0  0  0  0  0  0  0
   35.2190   26.8830   37.1700 H   0  0  0  0  0  0  0  0  0  0  0  0
   36.0650   24.5440   37.5880 H   0  0  0  0  0  0  0  0  0  0  0  0
   38.1400   22.3740   41.0720 H   0  0  0  0  0  0  0  0  0  0  0  0
   38.3690   24.1590   42.8370 H   0  0  0  0  0  0  0  0  0  0  0  0
   37.5590   26.4060   42.4270 H   0  0  0  0  0  0  0  0  0  0  0  0
   36.5440   27.9760   41.0720 H   0  0  0  0  0  0  0  0  0  0  0  0
  1  6  2  0  0  0  0
  1  2  1  0  0  0  0
  2  3  2  0  0  0  0
  3  4  1  0  0  0  0
  3  8  1  0  0  0  0
  5  9  1  0  0  0  0
  5  4  2  0  0  0  0
  6  5  1  0  0  0  0
  7  1  1  0  0  0  0
  9 20  1  0  0  0  0
 10 11  1  0  0  0  0
 10  9  2  0  0  0  0
 11 12  2  0  0  0  0
 12 13  1  0  0  0  0
 13 14  1  0  0  0  0
 14 15  2  0  0  0  0
 15 16  1  0  0  0  0
 17 15  1  0  0  0  0
 17 18  1  0  0  0  0
 19 17  2  0  0  0  0
 20 13  2  0  0  0  0
 20 19  1  0  0  0  0
 21 22  1  0  0  0  0
 21  2  1  0  0  0  0
 22 31  1  0  0  0  0
 23 24  1  0  0  0  0
 23 22  2  0  0  0  0
 24 25  2  0  0  0  0
 25 26  1  0  0  0  0
 25 30  1  0  0  0  0
 26 27  2  0  0  0  0
 27 34  1  0  0  0  0
 27 28  1  0  0  0  0
 28 35  1  0  0  0  0
 29 28  2  0  0  0  0
 29 36  1  0  0  0  0
 30 29  1  0  0  0  0
 31 30  2  0  0  0  0
 31 37  1  0  0  0  0
 32 23  1  0  0  0  0
 33 24  1  0  0  0  0
M  END
>  <minimizedAffinity>
-6.39776802

$$$$

 OpenBabel03242513583D

 37 41  0  0  0  0  0  0  0  0999 V2000
   34.0440   29.1670   39.4160 C   0  0  0  0  0  0  0  0  0  0  0  0
   34.0750   28.7790   38.0820 C   0  0  0  0  0  0  0  0  0  0  0  0
   35.3420   28.6270   37.5240 C   0  0  0  0  0  0  0  0  0  0  0  0
   36.4230   28.8540   38.2770 N   0  0  0  0  0  0  0  0  0  0  0  0
   36.3870   29.2250   39.5520 C   0  0  0  0  0  0  0  0  0  0  0  0
   35.1650   29.3740   40.0950 N   0  0  0  0  0  0  0  0  0  0  0  0
   33.0510   29.2800   39.8260 H   0  0  0  0  0  0  0  0  0  0  0  0
   35.5430   28.3330   36.5070 H   0  0  0  0  0  0  0  0  0  0  0  0
   37.4340   29.5240   40.5530 C   0  0  0  0  0  0  0  0  0  0  0  0
   38.0350   30.7010   40.6940 N   0  0  0  0  0  0  0  0  0  0  0  0
   38.9750   30.9580   41.6000 C   0  0  0  0  0  3  0  0  0  0  0  0
   39.4060   30.0150   42.4690 N   0  0  0  0  0  0  0  0  0  0  0  0
   38.8500   28.7710   42.4050 C   0  0  0  0  0  0  0  0  0  0  0  0
   39.3090   27.8370   43.3010 C   0  0  0  0  0  3  0  0  0  0  0  0
   38.7700   26.5690   43.2640 C   0  0  0  0  0  0  0  0  0  0  0  0
   39.1740   25.8850   43.9930 H   0  0  0  0  0  0  0  0  0  0  0  0
   37.7950   26.3030   42.3270 C   0  0  0  0  0  0  0  0  0  0  0  0
   37.4100   25.3000   42.3430 H   0  0  0  0  0  0  0  0  0  0  0  0
   37.3890   27.2950   41.4630 C   0  0  0  0  0  3  0  0  0  0  0  0
   37.8860   28.5790   41.4470 C   0  0  0  0  0  0  0  0  0  0  0  0
   32.9760   28.5410   37.2950 O   0  0  0  0  0  0  0  0  0  0  0  0
   31.9900   29.4790   37.0070 C   0  0  0  0  0  0  0  0  0  0  0  0
   31.0090   29.9390   37.8650 C   0  0  0  0  0  0  0  0  0  0  0  0
   30.1000   30.8770   37.4180 C   0  0  0  0  0  0  0  0  0  0  0  0
   30.1330   31.3800   36.1280 C   0  0  0  0  0  0  0  0  0  0  0  0
   29.2020   32.2930   35.7780 N   0  0  0  0  0  0  0  0  0  0  0  0
   29.2160   32.7960   34.5170 C   0  0  0  0  0  0  0  0  0  0  0  0
   30.1660   32.3680   33.6440 C   0  0  0  0  0  0  0  0  0  0  0  0
   31.1370   31.4140   34.0150 C   0  0  0  0  0  0  0  0  0  0  0  0
   31.1290   30.9020   35.2850 C   0  0  0  0  0  0  0  0  0  0  0  0
   32.0570   29.9650   35.6900 C   0  0  0  0  0  0  0  0  0  0  0  0
   31.0190   29.5250   38.8520 H   0  0  0  0  0  0  0  0  0  0  0  0
   29.3320   31.2380   38.0900 H   0  0  0  0  0  0  0  0  0  0  0  0
   28.5020   33.5220   34.1850 H   0  0  0  0  0  0  0  0  0  0  0  0
   30.2870   32.6890   32.6140 H   0  0  0  0  0  0  0  0  0  0  0  0
   31.9090   31.0460   33.3530 H   0  0  0  0  0  0  0  0  0  0  0  0
   32.7860   29.6560   34.9750 H   0  0  0  0  0  0  0  0  0  0  0  0
  1  7  1  0  0  0  0
  1  6  1  0  0  0  0
  2  1  2  0  0  0  0
  3  2  1  0  0  0  0
  3  4  2  0  0  0  0
  4  5  1  0  0  0  0
  5  6  2  0  0  0  0
  5  9  1  0  0  0  0
  8  3  1  0  0  0  0
  9 10  2  0  0  0  0
  9 20  1  0  0  0  0
 10 11  1  0  0  0  0
 11 12  2  0  0  0  0
 13 12  1  0  0  0  0
 13 14  1  0  0  0  0
 15 14  2  0  0  0  0
 15 16  1  0  0  0  0
 17 18  1  0  0  0  0
 17 15  1  0  0  0  0
 19 17  2  0  0  0  0
 20 19  1  0  0  0  0
 20 13  2  0  0  0  0
 21  2  1  0  0  0  0
 22 21  1  0  0  0  0
 22 23  1  0  0  0  0
 23 32  1  0  0  0  0
 24 23  2  0  0  0  0
 24 33  1  0  0  0  0
 25 24  1  0  0  0  0
 26 25  1  0  0  0  0
 27 26  2  0  0  0  0
 28 29  2  0  0  0  0
 28 27  1  0  0  0  0
 29 30  1  0  0  0  0
 30 31  1  0  0  0  0
 30 25  2  0  0  0  0
 31 22  2  0  0  0  0
 34 27  1  0  0  0  0
 35 28  1  0  0  0  0
 36 29  1  0  0  0  0
 37 31  1  0  0  0  0
M  END
>  <minimizedAffinity>
-6.37393379

$$$$

 OpenBabel03242513583D

 37 41  0  0  0  0  0  0  0  0999 V2000
   39.7920   31.4940   40.6810 C   0  0  0  0  0  0  0  0  0  0  0  0
   38.6790   32.3180   40.5650 C   0  0  0  0  0  0  0  0  0  0  0  0
   38.9280   33.6170   40.1320 C   0  0  0  0  0  0  0  0  0  0  0  0
   40.1830   33.9890   39.8580 N   0  0  0  0  0  0  0  0  0  0  0  0
   41.2430   33.1980   39.9710 C   0  0  0  0  0  0  0  0  0  0  0  0
   41.0070   31.9420   40.3910 N   0  0  0  0  0  0  0  0  0  0  0  0
   39.5740   30.4920   41.0190 H   0  0  0  0  0  0  0  0  0  0  0  0
   38.1810   34.3800   39.9890 H   0  0  0  0  0  0  0  0  0  0  0  0
   42.6890   33.3950   39.7290 C   0  0  0  0  0  0  0  0  0  0  0  0
   43.3590   32.9010   38.6920 N   0  0  0  0  0  0  0  0  0  0  0  0
   44.6600   33.0870   38.4850 C   0  0  0  0  0  3  0  0  0  0  0  0
   45.4230   33.8110   39.3360 N   0  0  0  0  0  0  0  0  0  0  0  0
   44.8280   34.3610   40.4330 C   0  0  0  0  0  0  0  0  0  0  0  0
   45.6300   35.0900   41.2760 C   0  0  0  0  0  3  0  0  0  0  0  0
   45.0620   35.6610   42.3940 C   0  0  0  0  0  0  0  0  0  0  0  0
   45.7450   36.2190   43.0140 H   0  0  0  0  0  0  0  0  0  0  0  0
   43.7130   35.4690   42.6090 C   0  0  0  0  0  0  0  0  0  0  0  0
   43.3230   35.9370   43.4950 H   0  0  0  0  0  0  0  0  0  0  0  0
   42.9770   34.7240   41.7150 C   0  0  0  0  0  3  0  0  0  0  0  0
   43.4830   34.1290   40.5820 C   0  0  0  0  0  0  0  0  0  0  0  0
   37.3850   31.9510   40.8390 O   0  0  0  0  0  0  0  0  0  0  0  0
   36.6920   30.9390   40.1840 C   0  0  0  0  0  0  0  0  0  0  0  0
   35.8400   30.0130   40.7570 C   0  0  0  0  0  0  0  0  0  0  0  0
   35.2280   29.0670   39.9600 C   0  0  0  0  0  0  0  0  0  0  0  0
   35.4380   29.0080   38.5910 C   0  0  0  0  0  0  0  0  0  0  0  0
   34.7990   28.0460   37.8920 N   0  0  0  0  0  0  0  0  0  0  0  0
   34.9940   27.9700   36.5510 C   0  0  0  0  0  0  0  0  0  0  0  0
   35.8250   28.8630   35.9500 C   0  0  0  0  0  0  0  0  0  0  0  0
   36.4900   29.8660   36.6860 C   0  0  0  0  0  0  0  0  0  0  0  0
   36.2980   29.9490   38.0390 C   0  0  0  0  0  0  0  0  0  0  0  0
   36.9310   30.9120   38.7990 C   0  0  0  0  0  0  0  0  0  0  0  0
   35.7060   30.0940   41.8150 H   0  0  0  0  0  0  0  0  0  0  0  0
   34.5610   28.3430   40.4080 H   0  0  0  0  0  0  0  0  0  0  0  0
   34.5130   27.2280   35.9460 H   0  0  0  0  0  0  0  0  0  0  0  0
   36.0640   28.9100   34.8930 H   0  0  0  0  0  0  0  0  0  0  0  0
   37.1580   30.5950   36.2500 H   0  0  0  0  0  0  0  0  0  0  0  0
   37.5750   31.5940   38.2890 H   0  0  0  0  0  0  0  0  0  0  0  0
  1  7  1  0  0  0  0
  2  1  1  0  0  0  0
  2 21  1  0  0  0  0
  3  2  2  0  0  0  0
  4  5  2  0  0  0  0
  4  3  1  0  0  0  0
  5  6  1  0  0  0  0
  6  1  2  0  0  0  0
  8  3  1  0  0  0  0
  9  5  1  0  0  0  0
  9 20  1  0  0  0  0
 10  9  2  0  0  0  0
 11 10  1  0  0  0  0
 11 12  2  0  0  0  0
 12 13  1  0  0  0  0
 13 20  2  0  0  0  0
 13 14  1  0  0  0  0
 14 15  2  0  0  0  0
 15 17  1  0  0  0  0
 15 16  1  0  0  0  0
 17 18  1  0  0  0  0
 19 17  2  0  0  0  0
 20 19  1  0  0  0  0
 22 23  1  0  0  0  0
 22 21  1  0  0  0  0
 23 32  1  0  0  0  0
 24 33  1  0  0  0  0
 24 23  2  0  0  0  0
 25 24  1  0  0  0  0
 26 25  2  0  0  0  0
 27 26  1  0  0  0  0
 28 27  2  0  0  0  0
 28 29  1  0  0  0  0
 29 30  2  0  0  0  0
 30 25  1  0  0  0  0
 30 31  1  0  0  0  0
 31 22  2  0  0  0  0
 34 27  1  0  0  0  0
 35 28  1  0  0  0  0
 36 29  1  0  0  0  0
 37 31  1  0  0  0  0
M  END
>  <minimizedAffinity>
-6.3676281

$$$$

 OpenBabel03242513583D

 37 41  0  0  0  0  0  0  0  0999 V2000
   37.8570   30.0190   41.7610 C   0  0  0  0  0  0  0  0  0  0  0  0
   37.3780   30.7290   40.6670 C   0  0  0  0  0  0  0  0  0  0  0  0
   36.8850   29.9630   39.6140 C   0  0  0  0  0  0  0  0  0  0  0  0
   36.8980   28.6290   39.7110 N   0  0  0  0  0  0  0  0  0  0  0  0
   37.3580   27.9560   40.7590 C   0  0  0  0  0  0  0  0  0  0  0  0
   37.8350   28.6920   41.7780 N   0  0  0  0  0  0  0  0  0  0  0  0
   38.2340   30.6350   42.5640 H   0  0  0  0  0  0  0  0  0  0  0  0
   36.4790   30.3540   38.6960 H   0  0  0  0  0  0  0  0  0  0  0  0
   37.4670   26.5130   41.0720 C   0  0  0  0  0  0  0  0  0  0  0  0
   38.0990   26.0130   42.1280 N   0  0  0  0  0  0  0  0  0  0  0  0
   38.1900   24.7130   42.3990 C   0  0  0  0  0  3  0  0  0  0  0  0
   37.6320   23.7760   41.5980 N   0  0  0  0  0  0  0  0  0  0  0  0
   36.9590   24.1900   40.4860 C   0  0  0  0  0  0  0  0  0  0  0  0
   36.4040   23.2140   39.6960 C   0  0  0  0  0  3  0  0  0  0  0  0
   35.7170   23.5960   38.5640 C   0  0  0  0  0  0  0  0  0  0  0  0
   35.3070   22.7820   37.9870 H   0  0  0  0  0  0  0  0  0  0  0  0
   35.6230   24.9420   38.2830 C   0  0  0  0  0  0  0  0  0  0  0  0
   35.0760   25.1830   37.3890 H   0  0  0  0  0  0  0  0  0  0  0  0
   36.2070   25.8600   39.1270 C   0  0  0  0  0  3  0  0  0  0  0  0
   36.9060   25.5450   40.2710 C   0  0  0  0  0  0  0  0  0  0  0  0
   37.3550   32.0970   40.5530 O   0  0  0  0  0  0  0  0  0  0  0  0
   38.4510   32.8810   40.2080 C   0  0  0  0  0  0  0  0  0  0  0  0
   38.8260   34.0800   40.7860 C   0  0  0  0  0  0  0  0  0  0  0  0
   39.9490   34.7370   40.3230 C   0  0  0  0  0  0  0  0  0  0  0  0
   40.7220   34.2350   39.2890 C   0  0  0  0  0  0  0  0  0  0  0  0
   41.8010   34.9480   38.9010 N   0  0  0  0  0  0  0  0  0  0  0  0
   42.5700   34.4750   37.8860 C   0  0  0  0  0  0  0  0  0  0  0  0
   42.2340   33.2990   37.2920 C   0  0  0  0  0  0  0  0  0  0  0  0
   41.1050   32.5590   37.7030 C   0  0  0  0  0  0  0  0  0  0  0  0
   40.3250   33.0290   38.7250 C   0  0  0  0  0  0  0  0  0  0  0  0
   39.2100   32.3400   39.1570 C   0  0  0  0  0  0  0  0  0  0  0  0
   38.2020   34.4310   41.5810 H   0  0  0  0  0  0  0  0  0  0  0  0
   40.2420   35.6740   40.7760 H   0  0  0  0  0  0  0  0  0  0  0  0
   43.4370   34.9980   37.5370 H   0  0  0  0  0  0  0  0  0  0  0  0
   42.7620   32.8140   36.4770 H   0  0  0  0  0  0  0  0  0  0  0  0
   40.8020   31.6210   37.2590 H   0  0  0  0  0  0  0  0  0  0  0  0
   38.9810   31.4210   38.6650 H   0  0  0  0  0  0  0  0  0  0  0  0
  1  6  1  0  0  0  0
  1  7  1  0  0  0  0
  2  1  2  0  0  0  0
  3  4  2  0  0  0  0
  3  2  1  0  0  0  0
  4  5  1  0  0  0  0
  5  9  1  0  0  0  0
  5  6  2  0  0  0  0
  8  3  1  0  0  0  0
  9 10  1  0  0  0  0
 10 11  2  0  0  0  0
 12 11  1  0  0  0  0
 13 12  2  0  0  0  0
 14 13  1  0  0  0  0
 15 14  2  0  0  0  0
 16 15  1  0  0  0  0
 17 15  1  0  0  0  0
 17 19  2  0  0  0  0
 18 17  1  0  0  0  0
 19 20  1  0  0  0  0
 20 13  1  0  0  0  0
 20  9  2  0  0  0  0
 21  2  1  0  0  0  0
 22 21  1  0  0  0  0
 22 23  1  0  0  0  0
 23 32  1  0  0  0  0
 24 33  1  0  0  0  0
 24 23  2  0  0  0  0
 25 24  1  0  0  0  0
 26 25  1  0  0  0  0
 27 26  2  0  0  0  0
 28 29  2  0  0  0  0
 28 27  1  0  0  0  0
 29 30  1  0  0  0  0
 30 31  1  0  0  0  0
 30 25  2  0  0  0  0
 31 22  2  0  0  0  0
 34 27  1  0  0  0  0
 35 28  1  0  0  0  0
 36 29  1  0  0  0  0
 37 31  1  0  0  0  0
M  END
>  <minimizedAffinity>
-6.35792065

$$$$

 OpenBabel03242513583D

 37 41  0  0  0  0  0  0  0  0999 V2000
   40.1490   32.1870   40.7890 C   0  0  0  0  0  0  0  0  0  0  0  0
   39.0310   32.8990   40.3720 C   0  0  0  0  0  0  0  0  0  0  0  0
   39.2870   34.0970   39.7100 C   0  0  0  0  0  0  0  0  0  0  0  0
   40.5530   34.4830   39.5160 N   0  0  0  0  0  0  0  0  0  0  0  0
   41.6170   33.7980   39.9170 C   0  0  0  0  0  0  0  0  0  0  0  0
   41.3740   32.6410   40.5580 N   0  0  0  0  0  0  0  0  0  0  0  0
   39.9250   31.2620   41.3010 H   0  0  0  0  0  0  0  0  0  0  0  0
   38.5370   34.7670   39.3230 H   0  0  0  0  0  0  0  0  0  0  0  0
   43.0740   34.0320   39.8120 C   0  0  0  0  0  0  0  0  0  0  0  0
   43.8100   33.7650   38.7380 N   0  0  0  0  0  0  0  0  0  0  0  0
   45.1210   33.9810   38.6550 C   0  0  0  0  0  3  0  0  0  0  0  0
   45.8250   34.5000   39.6870 N   0  0  0  0  0  0  0  0  0  0  0  0
   45.1590   34.8080   40.8370 C   0  0  0  0  0  0  0  0  0  0  0  0
   45.9030   35.3340   41.8640 C   0  0  0  0  0  3  0  0  0  0  0  0
   45.2640   35.6570   43.0410 C   0  0  0  0  0  0  0  0  0  0  0  0
   45.9040   36.0650   43.8070 H   0  0  0  0  0  0  0  0  0  0  0  0
   43.9060   35.4340   43.1270 C   0  0  0  0  0  0  0  0  0  0  0  0
   43.4590   35.7050   44.0660 H   0  0  0  0  0  0  0  0  0  0  0  0
   43.2310   34.9030   42.0510 C   0  0  0  0  0  3  0  0  0  0  0  0
   43.8090   34.5600   40.8500 C   0  0  0  0  0  0  0  0  0  0  0  0
   37.7270   32.5170   40.5610 O   0  0  0  0  0  0  0  0  0  0  0  0
   37.3050   31.2050   40.7480 C   0  0  0  0  0  0  0  0  0  0  0  0
   36.4830   30.4720   39.9120 C   0  0  0  0  0  0  0  0  0  0  0  0
   36.1570   29.1720   40.2460 C   0  0  0  0  0  0  0  0  0  0  0  0
   36.6280   28.5680   41.4010 C   0  0  0  0  0  0  0  0  0  0  0  0
   36.2550   27.2940   41.6470 N   0  0  0  0  0  0  0  0  0  0  0  0
   36.7030   26.6840   42.7740 C   0  0  0  0  0  0  0  0  0  0  0  0
   37.5140   27.3720   43.6220 C   0  0  0  0  0  0  0  0  0  0  0  0
   37.9000   28.7040   43.3590 C   0  0  0  0  0  0  0  0  0  0  0  0
   37.4530   29.3240   42.2240 C   0  0  0  0  0  0  0  0  0  0  0  0
   37.8030   30.6270   41.9280 C   0  0  0  0  0  0  0  0  0  0  0  0
   36.1420   30.9760   39.0320 H   0  0  0  0  0  0  0  0  0  0  0  0
   35.5140   28.5990   39.5920 H   0  0  0  0  0  0  0  0  0  0  0  0
   36.4390   25.6760   43.0200 H   0  0  0  0  0  0  0  0  0  0  0  0
   37.9380   27.0030   44.5500 H   0  0  0  0  0  0  0  0  0  0  0  0
   38.5430   29.2870   44.0040 H   0  0  0  0  0  0  0  0  0  0  0  0
   38.4410   31.1310   42.6190 H   0  0  0  0  0  0  0  0  0  0  0  0
  1  7  1  0  0  0  0
  2 21  1  0  0  0  0
  2  1  2  0  0  0  0
  3  2  1  0  0  0  0
  4  3  2  0  0  0  0
  4  5  1  0  0  0  0
  5  6  2  0  0  0  0
  6  1  1  0  0  0  0
  8  3  1  0  0  0  0
  9  5  1  0  0  0  0
  9 20  1  0  0  0  0
 10  9  2  0  0  0  0
 11 10  1  0  0  0  0
 11 12  2  0  0  0  0
 12 13  1  0  0  0  0
 13 20  2  0  0  0  0
 13 14  1  0  0  0  0
 14 15  2  0  0  0  0
 15 17  1  0  0  0  0
 15 16  1  0  0  0  0
 17 18  1  0  0  0  0
 19 17  2  0  0  0  0
 20 19  1  0  0  0  0
 21 22  1  0  0  0  0
 22 31  1  0  0  0  0
 23 24  1  0  0  0  0
 23 22  2  0  0  0  0
 24 25  2  0  0  0  0
 25 26  1  0  0  0  0
 25 30  1  0  0  0  0
 26 27  2  0  0  0  0
 27 34  1  0  0  0  0
 27 28  1  0  0  0  0
 28 35  1  0  0  0  0
 29 28  2  0  0  0  0
 29 36  1  0  0  0  0
 30 29  1  0  0  0  0
 31 30  2  0  0  0  0
 31 37  1  0  0  0  0
 32 23  1  0  0  0  0
 33 24  1  0  0  0  0
M  END
>  <minimizedAffinity>
-6.32400036

$$$$
