
 OpenBabel03252500203D

 23 25  0  0  0  0  0  0  0  0999 V2000
   37.5670   29.7840   40.1530 C   0  0  0  0  0  0  0  0  0  0  0  0
   37.2480   29.1650   39.0110 N   0  0  0  0  0  0  0  0  0  0  0  0
   36.8220   27.9040   38.9530 C   0  0  0  0  0  3  0  0  0  0  0  0
   36.6770   27.1410   40.0500 N   0  0  0  0  0  0  0  0  0  0  0  0
   36.9750   27.6750   41.2490 C   0  0  0  0  0  0  0  0  0  0  0  0
   36.8340   26.9110   42.3850 C   0  0  0  0  0  3  0  0  0  0  0  0
   37.1300   27.4300   43.6220 C   0  0  0  0  0  0  0  0  0  0  0  0
   36.9910   26.7650   44.4510 H   0  0  0  0  0  0  0  0  0  0  0  0
   37.5730   28.7440   43.6790 C   0  0  0  0  0  0  0  0  0  0  0  0
   37.8020   29.1400   44.6560 H   0  0  0  0  0  0  0  0  0  0  0  0
   37.6970   29.4650   42.5110 C   0  0  0  0  0  3  0  0  0  0  0  0
   37.4100   28.9810   41.2570 C   0  0  0  0  0  0  0  0  0  0  0  0
   37.3850   33.4350   39.6650 C   0  0  0  0  0  0  0  0  0  0  0  0
   37.0910   32.0750   39.6950 C   0  0  0  0  0  0  0  0  0  0  0  0
   38.0290   31.1560   40.1910 C   0  0  0  0  0  0  0  0  0  0  0  0
   39.1520   31.7510   40.5960 N   0  0  0  0  0  0  0  0  0  0  0  0
   39.4600   33.0310   40.5800 C   0  0  0  0  0  0  0  0  0  0  0  0
   38.5470   33.8960   40.1000 N   0  0  0  0  0  0  0  0  0  0  0  0
   40.7020   33.5050   41.0470 N   0  0  0  0  0  0  0  0  0  0  0  0
   36.6630   34.1420   39.2810 H   0  0  0  0  0  0  0  0  0  0  0  0
   36.1330   31.7880   39.3260 H   0  0  0  0  0  0  0  0  0  0  0  0
   41.5220   32.8460   40.9490 H   0  0  0  0  0  0  0  0  0  0  0  0
   40.7320   34.4660   41.4550 H   0  0  0  0  0  0  0  0  0  0  0  0
  1 15  1  0  0  0  0
  1 12  1  0  0  0  0
  2  1  2  0  0  0  0
  3  2  1  0  0  0  0
  3  4  2  0  0  0  0
  4  5  1  0  0  0  0
  5 12  2  0  0  0  0
  5  6  1  0  0  0  0
  6  7  2  0  0  0  0
  7  9  1  0  0  0  0
  7  8  1  0  0  0  0
  9 10  1  0  0  0  0
 11  9  2  0  0  0  0
 12 11  1  0  0  0  0
 13 14  2  0  0  0  0
 13 18  1  0  0  0  0
 14 15  1  0  0  0  0
 15 16  2  0  0  0  0
 17 16  1  0  0  0  0
 17 19  1  0  0  0  0
 18 17  2  0  0  0  0
 19 23  1  0  0  0  0
 20 13  1  0  0  0  0
 21 14  1  0  0  0  0
 22 19  1  0  0  0  0
M  END
>  <minimizedAffinity>
-5.35582829

$$$$

 OpenBabel03252500203D

 23 25  0  0  0  0  0  0  0  0999 V2000
   37.6390   30.2640   40.5060 C   0  0  0  0  0  0  0  0  0  0  0  0
   36.3460   30.1590   40.1750 N   0  0  0  0  0  0  0  0  0  0  0  0
   35.5260   29.2500   40.6990 C   0  0  0  0  0  3  0  0  0  0  0  0
   35.9340   28.3540   41.6140 N   0  0  0  0  0  0  0  0  0  0  0  0
   37.2190   28.3790   42.0110 C   0  0  0  0  0  0  0  0  0  0  0  0
   37.6580   27.4690   42.9470 C   0  0  0  0  0  3  0  0  0  0  0  0
   38.9650   27.4720   43.3710 C   0  0  0  0  0  0  0  0  0  0  0  0
   39.2180   26.7300   44.1010 H   0  0  0  0  0  0  0  0  0  0  0  0
   39.8170   28.4200   42.8230 C   0  0  0  0  0  0  0  0  0  0  0  0
   40.8400   28.4120   43.1640 H   0  0  0  0  0  0  0  0  0  0  0  0
   39.3270   29.3080   41.8890 C   0  0  0  0  0  3  0  0  0  0  0  0
   38.0280   29.3360   41.4410 C   0  0  0  0  0  0  0  0  0  0  0  0
   39.6450   33.3570   40.3790 C   0  0  0  0  0  0  0  0  0  0  0  0
   38.8160   32.3190   40.7920 C   0  0  0  0  0  0  0  0  0  0  0  0
   38.5120   31.2610   39.9210 C   0  0  0  0  0  0  0  0  0  0  0  0
   39.1000   31.4030   38.7320 N   0  0  0  0  0  0  0  0  0  0  0  0
   39.8870   32.3710   38.3110 C   0  0  0  0  0  0  0  0  0  0  0  0
   40.1660   33.3770   39.1620 N   0  0  0  0  0  0  0  0  0  0  0  0
   40.4340   32.3770   37.0120 N   0  0  0  0  0  0  0  0  0  0  0  0
   39.8770   34.1720   41.0500 H   0  0  0  0  0  0  0  0  0  0  0  0
   38.4380   32.3810   41.7880 H   0  0  0  0  0  0  0  0  0  0  0  0
   39.8590   31.9080   36.2610 H   0  0  0  0  0  0  0  0  0  0  0  0
   41.3600   32.8380   36.8780 H   0  0  0  0  0  0  0  0  0  0  0  0
  1 12  1  0  0  0  0
  2  1  2  0  0  0  0
  2  3  1  0  0  0  0
  3  4  2  0  0  0  0
  4  5  1  0  0  0  0
  5  6  1  0  0  0  0
  6  7  2  0  0  0  0
  7  8  1  0  0  0  0
  9 10  1  0  0  0  0
  9  7  1  0  0  0  0
 11  9  2  0  0  0  0
 12 11  1  0  0  0  0
 12  5  2  0  0  0  0
 13 14  1  0  0  0  0
 13 20  1  0  0  0  0
 14 21  1  0  0  0  0
 15  1  1  0  0  0  0
 15 14  2  0  0  0  0
 16 15  1  0  0  0  0
 17 16  2  0  0  0  0
 17 18  1  0  0  0  0
 18 13  2  0  0  0  0
 19 17  1  0  0  0  0
 22 19  1  0  0  0  0
 23 19  1  0  0  0  0
M  END
>  <minimizedAffinity>
-5.21728325

$$$$

 OpenBabel03252500203D

 23 25  0  0  0  0  0  0  0  0999 V2000
   37.5800   29.1050   41.5410 C   0  0  0  0  0  0  0  0  0  0  0  0
   36.5320   28.4140   42.0040 N   0  0  0  0  0  0  0  0  0  0  0  0
   36.6320   27.4480   42.9160 C   0  0  0  0  0  3  0  0  0  0  0  0
   37.8100   27.0840   43.4520 N   0  0  0  0  0  0  0  0  0  0  0  0
   38.9260   27.7210   43.0490 C   0  0  0  0  0  0  0  0  0  0  0  0
   40.1420   27.3630   43.5860 C   0  0  0  0  0  3  0  0  0  0  0  0
   41.2960   27.9970   43.1930 C   0  0  0  0  0  0  0  0  0  0  0  0
   42.1960   27.6550   43.6630 H   0  0  0  0  0  0  0  0  0  0  0  0
   41.1870   29.0020   42.2440 C   0  0  0  0  0  0  0  0  0  0  0  0
   42.1000   29.4920   41.9440 H   0  0  0  0  0  0  0  0  0  0  0  0
   39.9450   29.3210   41.7390 C   0  0  0  0  0  3  0  0  0  0  0  0
   38.7690   28.7110   42.1060 C   0  0  0  0  0  0  0  0  0  0  0  0
   37.3510   30.5590   38.1600 C   0  0  0  0  0  0  0  0  0  0  0  0
   37.4710   29.6760   39.2280 C   0  0  0  0  0  0  0  0  0  0  0  0
   37.4450   30.1510   40.5480 C   0  0  0  0  0  0  0  0  0  0  0  0
   37.2990   31.4760   40.6050 N   0  0  0  0  0  0  0  0  0  0  0  0
   37.1850   32.3370   39.6150 C   0  0  0  0  0  0  0  0  0  0  0  0
   37.2120   31.8610   38.3560 N   0  0  0  0  0  0  0  0  0  0  0  0
   37.0370   33.7190   39.8420 N   0  0  0  0  0  0  0  0  0  0  0  0
   37.3730   30.1920   37.1420 H   0  0  0  0  0  0  0  0  0  0  0  0
   37.5800   28.6450   38.9820 H   0  0  0  0  0  0  0  0  0  0  0  0
   37.4880   34.1010   40.7170 H   0  0  0  0  0  0  0  0  0  0  0  0
   36.4970   34.2710   39.1390 H   0  0  0  0  0  0  0  0  0  0  0  0
  1  2  2  0  0  0  0
  1 12  1  0  0  0  0
  2  3  1  0  0  0  0
  3  4  2  0  0  0  0
  5  4  1  0  0  0  0
  5  6  1  0  0  0  0
  7  6  2  0  0  0  0
  7  8  1  0  0  0  0
  9  7  1  0  0  0  0
 10  9  1  0  0  0  0
 11 12  1  0  0  0  0
 11  9  2  0  0  0  0
 12  5  2  0  0  0  0
 13 18  2  0  0  0  0
 13 14  1  0  0  0  0
 14 15  2  0  0  0  0
 15 16  1  0  0  0  0
 15  1  1  0  0  0  0
 17 19  1  0  0  0  0
 17 16  2  0  0  0  0
 18 17  1  0  0  0  0
 19 22  1  0  0  0  0
 20 13  1  0  0  0  0
 21 14  1  0  0  0  0
 23 19  1  0  0  0  0
M  END
>  <minimizedAffinity>
-5.16038752

$$$$

 OpenBabel03252500203D

 23 25  0  0  0  0  0  0  0  0999 V2000
   37.8860   29.2590   39.9720 C   0  0  0  0  0  0  0  0  0  0  0  0
   37.8340   28.4370   38.9180 N   0  0  0  0  0  0  0  0  0  0  0  0
   37.5450   27.1390   39.0100 C   0  0  0  0  0  3  0  0  0  0  0  0
   37.2780   26.5440   40.1850 N   0  0  0  0  0  0  0  0  0  0  0  0
   37.3050   27.2880   41.3060 C   0  0  0  0  0  0  0  0  0  0  0  0
   37.0350   26.6970   42.5200 C   0  0  0  0  0  3  0  0  0  0  0  0
   37.0570   27.4330   43.6800 C   0  0  0  0  0  0  0  0  0  0  0  0
   36.8340   26.8930   44.5770 H   0  0  0  0  0  0  0  0  0  0  0  0
   37.3580   28.7840   43.5790 C   0  0  0  0  0  0  0  0  0  0  0  0
   37.3710   29.3510   44.4970 H   0  0  0  0  0  0  0  0  0  0  0  0
   37.6210   29.3260   42.3400 C   0  0  0  0  0  3  0  0  0  0  0  0
   37.6090   28.6230   41.1580 C   0  0  0  0  0  0  0  0  0  0  0  0
   40.0490   32.2320   39.6870 C   0  0  0  0  0  0  0  0  0  0  0  0
   39.5820   30.9270   39.8070 C   0  0  0  0  0  0  0  0  0  0  0  0
   38.2040   30.6660   39.8460 C   0  0  0  0  0  0  0  0  0  0  0  0
   37.4770   31.7810   39.7560 N   0  0  0  0  0  0  0  0  0  0  0  0
   37.8880   33.0270   39.6430 C   0  0  0  0  0  0  0  0  0  0  0  0
   39.2140   33.2560   39.6070 N   0  0  0  0  0  0  0  0  0  0  0  0
   36.9850   34.1050   39.5590 N   0  0  0  0  0  0  0  0  0  0  0  0
   41.1120   32.4320   39.6580 H   0  0  0  0  0  0  0  0  0  0  0  0
   40.3220   30.1620   39.8650 H   0  0  0  0  0  0  0  0  0  0  0  0
   36.0610   33.9820   40.0550 H   0  0  0  0  0  0  0  0  0  0  0  0
   37.2830   34.9470   39.0180 H   0  0  0  0  0  0  0  0  0  0  0  0
  1 12  1  0  0  0  0
  2  3  1  0  0  0  0
  2  1  2  0  0  0  0
  3  4  2  0  0  0  0
  4  5  1  0  0  0  0
  5  6  1  0  0  0  0
  6  7  2  0  0  0  0
  7  8  1  0  0  0  0
  9  7  1  0  0  0  0
  9 10  1  0  0  0  0
 11  9  2  0  0  0  0
 12  5  2  0  0  0  0
 12 11  1  0  0  0  0
 13 14  1  0  0  0  0
 14 15  2  0  0  0  0
 14 21  1  0  0  0  0
 15  1  1  0  0  0  0
 16 15  1  0  0  0  0
 17 16  2  0  0  0  0
 18 17  1  0  0  0  0
 18 13  2  0  0  0  0
 19 17  1  0  0  0  0
 19 22  1  0  0  0  0
 20 13  1  0  0  0  0
 23 19  1  0  0  0  0
M  END
>  <minimizedAffinity>
-5.07553911

$$$$

 OpenBabel03252500203D

 23 25  0  0  0  0  0  0  0  0999 V2000
   39.2420   29.9910   41.1810 C   0  0  0  0  0  0  0  0  0  0  0  0
   40.5550   30.0280   41.4370 N   0  0  0  0  0  0  0  0  0  0  0  0
   41.1520   29.2440   42.3330 C   0  0  0  0  0  3  0  0  0  0  0  0
   40.4750   28.3410   43.0630 N   0  0  0  0  0  0  0  0  0  0  0  0
   39.1460   28.2280   42.8780 C   0  0  0  0  0  0  0  0  0  0  0  0
   38.4340   27.3090   43.6150 C   0  0  0  0  0  3  0  0  0  0  0  0
   37.0780   27.1730   43.4470 C   0  0  0  0  0  0  0  0  0  0  0  0
   36.6050   26.4340   44.0610 H   0  0  0  0  0  0  0  0  0  0  0  0
   36.4600   27.9910   42.5120 C   0  0  0  0  0  0  0  0  0  0  0  0
   35.3950   27.8750   42.3890 H   0  0  0  0  0  0  0  0  0  0  0  0
   37.2190   28.8950   41.8000 C   0  0  0  0  0  3  0  0  0  0  0  0
   38.5770   29.0600   41.9410 C   0  0  0  0  0  0  0  0  0  0  0  0
   38.0260   31.0190   37.8540 C   0  0  0  0  0  0  0  0  0  0  0  0
   38.5950   30.3110   38.9080 C   0  0  0  0  0  0  0  0  0  0  0  0
   38.6170   30.8560   40.2010 C   0  0  0  0  0  0  0  0  0  0  0  0
   38.0500   32.0620   40.2490 N   0  0  0  0  0  0  0  0  0  0  0  0
   37.5050   32.7580   39.2730 C   0  0  0  0  0  0  0  0  0  0  0  0
   37.4950   32.2180   38.0400 N   0  0  0  0  0  0  0  0  0  0  0  0
   36.9430   34.0320   39.4880 N   0  0  0  0  0  0  0  0  0  0  0  0
   38.0110   30.6000   36.8580 H   0  0  0  0  0  0  0  0  0  0  0  0
   39.0010   29.3540   38.6720 H   0  0  0  0  0  0  0  0  0  0  0  0
   37.3720   34.6070   40.2640 H   0  0  0  0  0  0  0  0  0  0  0  0
   36.1500   34.3220   38.8760 H   0  0  0  0  0  0  0  0  0  0  0  0
  1  2  2  0  0  0  0
  1 12  1  0  0  0  0
  2  3  1  0  0  0  0
  3  4  2  0  0  0  0
  5  4  1  0  0  0  0
  5  6  1  0  0  0  0
  7  6  2  0  0  0  0
  7  8  1  0  0  0  0
  9  7  1  0  0  0  0
 10  9  1  0  0  0  0
 11 12  1  0  0  0  0
 11  9  2  0  0  0  0
 12  5  2  0  0  0  0
 13 18  2  0  0  0  0
 13 14  1  0  0  0  0
 14 15  2  0  0  0  0
 15 16  1  0  0  0  0
 15  1  1  0  0  0  0
 17 19  1  0  0  0  0
 17 16  2  0  0  0  0
 18 17  1  0  0  0  0
 19 22  1  0  0  0  0
 20 13  1  0  0  0  0
 21 14  1  0  0  0  0
 23 19  1  0  0  0  0
M  END
>  <minimizedAffinity>
-5.04452658

$$$$

 OpenBabel03252500203D

 23 25  0  0  0  0  0  0  0  0999 V2000
   36.1760   29.3690   39.2080 C   0  0  0  0  0  0  0  0  0  0  0  0
   36.1570   30.5630   39.8120 N   0  0  0  0  0  0  0  0  0  0  0  0
   36.4240   30.7370   41.1050 C   0  0  0  0  0  3  0  0  0  0  0  0
   36.7390   29.7150   41.9180 N   0  0  0  0  0  0  0  0  0  0  0  0
   36.7850   28.4720   41.4040 C   0  0  0  0  0  0  0  0  0  0  0  0
   37.1050   27.4110   42.2200 C   0  0  0  0  0  3  0  0  0  0  0  0
   37.1580   26.1320   41.7210 C   0  0  0  0  0  0  0  0  0  0  0  0
   37.4160   25.3680   42.4270 H   0  0  0  0  0  0  0  0  0  0  0  0
   36.8790   25.9550   40.3740 C   0  0  0  0  0  0  0  0  0  0  0  0
   36.9250   24.9460   39.9940 H   0  0  0  0  0  0  0  0  0  0  0  0
   36.5640   27.0510   39.6010 C   0  0  0  0  0  3  0  0  0  0  0  0
   36.5000   28.3440   40.0630 C   0  0  0  0  0  0  0  0  0  0  0  0
   34.0640   28.9210   36.2180 C   0  0  0  0  0  0  0  0  0  0  0  0
   34.5100   29.0840   37.5250 C   0  0  0  0  0  0  0  0  0  0  0  0
   35.8810   29.2060   37.7990 C   0  0  0  0  0  0  0  0  0  0  0  0
   36.6230   29.1460   36.6930 N   0  0  0  0  0  0  0  0  0  0  0  0
   36.2320   28.9920   35.4440 C   0  0  0  0  0  0  0  0  0  0  0  0
   34.9130   28.8760   35.2030 N   0  0  0  0  0  0  0  0  0  0  0  0
   37.1500   28.9470   34.3760 N   0  0  0  0  0  0  0  0  0  0  0  0
   33.0070   28.8250   36.0080 H   0  0  0  0  0  0  0  0  0  0  0  0
   33.7600   29.1080   38.2830 H   0  0  0  0  0  0  0  0  0  0  0  0
   38.1070   28.5590   34.5970 H   0  0  0  0  0  0  0  0  0  0  0  0
   36.8290   29.2960   33.4460 H   0  0  0  0  0  0  0  0  0  0  0  0
  1  2  2  0  0  0  0
  1 12  1  0  0  0  0
  2  3  1  0  0  0  0
  3  4  2  0  0  0  0
  5  4  1  0  0  0  0
  5  6  1  0  0  0  0
  7  6  2  0  0  0  0
  7  8  1  0  0  0  0
  9  7  1  0  0  0  0
 10  9  1  0  0  0  0
 11 12  1  0  0  0  0
 11  9  2  0  0  0  0
 12  5  2  0  0  0  0
 13 14  1  0  0  0  0
 14 15  2  0  0  0  0
 14 21  1  0  0  0  0
 15  1  1  0  0  0  0
 16 15  1  0  0  0  0
 17 16  2  0  0  0  0
 18 17  1  0  0  0  0
 18 13  2  0  0  0  0
 19 22  1  0  0  0  0
 19 17  1  0  0  0  0
 20 13  1  0  0  0  0
 23 19  1  0  0  0  0
M  END
>  <minimizedAffinity>
-4.96724749

$$$$

 OpenBabel03252500203D

 23 25  0  0  0  0  0  0  0  0999 V2000
   37.7460   30.3560   40.5240 C   0  0  0  0  0  0  0  0  0  0  0  0
   36.5990   30.4790   39.8450 N   0  0  0  0  0  0  0  0  0  0  0  0
   35.5230   29.7280   40.0770 C   0  0  0  0  0  3  0  0  0  0  0  0
   35.5020   28.7740   41.0230 N   0  0  0  0  0  0  0  0  0  0  0  0
   36.6090   28.5730   41.7620 C   0  0  0  0  0  0  0  0  0  0  0  0
   36.6080   27.6010   42.7360 C   0  0  0  0  0  3  0  0  0  0  0  0
   37.7250   27.3750   43.5040 C   0  0  0  0  0  0  0  0  0  0  0  0
   37.6350   26.6000   44.2380 H   0  0  0  0  0  0  0  0  0  0  0  0
   38.8430   28.1590   43.2600 C   0  0  0  0  0  0  0  0  0  0  0  0
   39.7130   27.9720   43.8690 H   0  0  0  0  0  0  0  0  0  0  0  0
   38.7920   29.1180   42.2720 C   0  0  0  0  0  3  0  0  0  0  0  0
   37.6940   29.3740   41.4840 C   0  0  0  0  0  0  0  0  0  0  0  0
   40.8430   31.3960   38.8140 C   0  0  0  0  0  0  0  0  0  0  0  0
   39.6960   30.7090   39.1970 C   0  0  0  0  0  0  0  0  0  0  0  0
   38.9030   31.1840   40.2530 C   0  0  0  0  0  0  0  0  0  0  0  0
   39.3890   32.3070   40.7830 N   0  0  0  0  0  0  0  0  0  0  0  0
   40.4700   32.9790   40.4450 C   0  0  0  0  0  0  0  0  0  0  0  0
   41.2180   32.5060   39.4300 N   0  0  0  0  0  0  0  0  0  0  0  0
   40.8530   34.1600   41.1100 N   0  0  0  0  0  0  0  0  0  0  0  0
   41.4550   31.0280   38.0010 H   0  0  0  0  0  0  0  0  0  0  0  0
   39.4670   29.8230   38.6500 H   0  0  0  0  0  0  0  0  0  0  0  0
   40.5810   34.2330   42.1280 H   0  0  0  0  0  0  0  0  0  0  0  0
   41.3750   34.8790   40.5620 H   0  0  0  0  0  0  0  0  0  0  0  0
  1 12  1  0  0  0  0
  2  3  1  0  0  0  0
  2  1  2  0  0  0  0
  3  4  2  0  0  0  0
  4  5  1  0  0  0  0
  5  6  1  0  0  0  0
  6  7  2  0  0  0  0
  7  8  1  0  0  0  0
  9  7  1  0  0  0  0
  9 10  1  0  0  0  0
 11  9  2  0  0  0  0
 12  5  2  0  0  0  0
 12 11  1  0  0  0  0
 13 14  2  0  0  0  0
 13 18  1  0  0  0  0
 14 15  1  0  0  0  0
 15  1  1  0  0  0  0
 15 16  2  0  0  0  0
 17 16  1  0  0  0  0
 17 19  1  0  0  0  0
 18 17  2  0  0  0  0
 19 22  1  0  0  0  0
 20 13  1  0  0  0  0
 21 14  1  0  0  0  0
 23 19  1  0  0  0  0
M  END
>  <minimizedAffinity>
-4.91416168

$$$$

 OpenBabel03252500203D

 23 25  0  0  0  0  0  0  0  0999 V2000
   37.6820   27.9730   41.5940 C   0  0  0  0  0  0  0  0  0  0  0  0
   36.5390   28.5470   41.2000 N   0  0  0  0  0  0  0  0  0  0  0  0
   36.3750   29.8660   41.1030 C   0  0  0  0  0  3  0  0  0  0  0  0
   37.3550   30.7370   41.3960 N   0  0  0  0  0  0  0  0  0  0  0  0
   38.5440   30.2560   41.8030 C   0  0  0  0  0  0  0  0  0  0  0  0
   39.5620   31.1320   42.1080 C   0  0  0  0  0  3  0  0  0  0  0  0
   40.7860   30.6680   42.5260 C   0  0  0  0  0  0  0  0  0  0  0  0
   41.5180   31.4200   42.7410 H   0  0  0  0  0  0  0  0  0  0  0  0
   40.9540   29.2950   42.6260 C   0  0  0  0  0  0  0  0  0  0  0  0
   41.9190   28.9430   42.9540 H   0  0  0  0  0  0  0  0  0  0  0  0
   39.9020   28.4620   42.3080 C   0  0  0  0  0  3  0  0  0  0  0  0
   38.6650   28.8870   41.8870 C   0  0  0  0  0  0  0  0  0  0  0  0
   37.0100   24.4310   40.8170 C   0  0  0  0  0  0  0  0  0  0  0  0
   36.9820   25.8220   40.8400 C   0  0  0  0  0  0  0  0  0  0  0  0
   37.8360   26.5360   41.6930 C   0  0  0  0  0  0  0  0  0  0  0  0
   38.6150   25.7310   42.4160 N   0  0  0  0  0  0  0  0  0  0  0  0
   38.6650   24.4150   42.4190 C   0  0  0  0  0  0  0  0  0  0  0  0
   37.8360   23.7480   41.5930 N   0  0  0  0  0  0  0  0  0  0  0  0
   39.5520   23.7030   43.2510 N   0  0  0  0  0  0  0  0  0  0  0  0
   36.3500   23.8820   40.1600 H   0  0  0  0  0  0  0  0  0  0  0  0
   36.2850   26.2930   40.1840 H   0  0  0  0  0  0  0  0  0  0  0  0
   39.8030   24.1620   44.1680 H   0  0  0  0  0  0  0  0  0  0  0  0
   39.9000   22.7790   42.9110 H   0  0  0  0  0  0  0  0  0  0  0  0
  1 15  1  0  0  0  0
  1 12  1  0  0  0  0
  2  1  2  0  0  0  0
  3  2  1  0  0  0  0
  3  4  2  0  0  0  0
  4  5  1  0  0  0  0
  5 12  2  0  0  0  0
  5  6  1  0  0  0  0
  6  7  2  0  0  0  0
  7  9  1  0  0  0  0
  7  8  1  0  0  0  0
  9 10  1  0  0  0  0
 11  9  2  0  0  0  0
 12 11  1  0  0  0  0
 13 14  2  0  0  0  0
 13 18  1  0  0  0  0
 14 15  1  0  0  0  0
 15 16  2  0  0  0  0
 16 17  1  0  0  0  0
 17 19  1  0  0  0  0
 18 17  2  0  0  0  0
 19 22  1  0  0  0  0
 20 13  1  0  0  0  0
 21 14  1  0  0  0  0
 23 19  1  0  0  0  0
M  END
>  <minimizedAffinity>
-4.89012384

$$$$

 OpenBabel03252500203D

 23 25  0  0  0  0  0  0  0  0999 V2000
   37.7260   28.9020   41.2240 C   0  0  0  0  0  0  0  0  0  0  0  0
   37.7790   29.4140   42.4590 N   0  0  0  0  0  0  0  0  0  0  0  0
   37.5770   28.6950   43.5620 C   0  0  0  0  0  3  0  0  0  0  0  0
   37.2990   27.3810   43.5230 N   0  0  0  0  0  0  0  0  0  0  0  0
   37.2240   26.7730   42.3250 C   0  0  0  0  0  0  0  0  0  0  0  0
   36.9410   25.4270   42.2630 C   0  0  0  0  0  3  0  0  0  0  0  0
   36.8570   24.7810   41.0530 C   0  0  0  0  0  0  0  0  0  0  0  0
   36.6330   23.7350   41.0990 H   0  0  0  0  0  0  0  0  0  0  0  0
   37.0690   25.5330   39.9070 C   0  0  0  0  0  0  0  0  0  0  0  0
   37.0010   25.0150   38.9630 H   0  0  0  0  0  0  0  0  0  0  0  0
   37.3490   26.8780   40.0240 C   0  0  0  0  0  3  0  0  0  0  0  0
   37.4410   27.5580   41.2150 C   0  0  0  0  0  0  0  0  0  0  0  0
   36.9340   31.3840   38.6130 C   0  0  0  0  0  0  0  0  0  0  0  0
   36.8730   30.5480   39.7230 C   0  0  0  0  0  0  0  0  0  0  0  0
   37.9490   29.7050   40.0390 C   0  0  0  0  0  0  0  0  0  0  0  0
   38.9560   29.8280   39.1730 N   0  0  0  0  0  0  0  0  0  0  0  0
   39.0450   30.6060   38.1150 C   0  0  0  0  0  0  0  0  0  0  0  0
   38.0010   31.4070   37.8290 N   0  0  0  0  0  0  0  0  0  0  0  0
   40.1880   30.6190   37.2910 N   0  0  0  0  0  0  0  0  0  0  0  0
   36.1030   32.0320   38.3690 H   0  0  0  0  0  0  0  0  0  0  0  0
   35.9770   30.5910   40.3010 H   0  0  0  0  0  0  0  0  0  0  0  0
   40.7290   29.7150   37.2280 H   0  0  0  0  0  0  0  0  0  0  0  0
   40.4240   31.5110   36.8030 H   0  0  0  0  0  0  0  0  0  0  0  0
  1  2  1  0  0  0  0
  2  3  2  0  0  0  0
  4  3  1  0  0  0  0
  5  4  2  0  0  0  0
  6  5  1  0  0  0  0
  7  8  1  0  0  0  0
  7  6  2  0  0  0  0
  9 11  2  0  0  0  0
  9  7  1  0  0  0  0
 10  9  1  0  0  0  0
 11 12  1  0  0  0  0
 12  1  2  0  0  0  0
 12  5  1  0  0  0  0
 13 14  1  0  0  0  0
 14 15  2  0  0  0  0
 14 21  1  0  0  0  0
 15  1  1  0  0  0  0
 16 15  1  0  0  0  0
 17 16  2  0  0  0  0
 18 17  1  0  0  0  0
 18 13  2  0  0  0  0
 19 17  1  0  0  0  0
 20 13  1  0  0  0  0
 22 19  1  0  0  0  0
 23 19  1  0  0  0  0
M  END
>  <minimizedAffinity>
-4.8696785

$$$$
