
 OpenBabel03252509233D

 30 33  0  0  1  0  0  0  0  0999 V2000
   46.4220   34.9750   41.9810 C   0  0  1  0  0  0  0  0  0  0  0  0
   47.9570   35.1470   41.8440 C   0  0  0  0  0  0  0  0  0  0  0  0
   47.1070   33.9820   41.2410 C   0  0  2  0  0  0  0  0  0  0  0  0
   45.8490   35.8050   41.5310 H   0  0  0  0  0  0  0  0  0  0  0  0
   48.6030   34.9010   42.6800 H   0  0  0  0  0  0  0  0  0  0  0  0
   48.2670   35.9270   41.1540 H   0  0  0  0  0  0  0  0  0  0  0  0
   47.3170   32.9940   41.7440 H   0  0  0  0  0  0  0  0  0  0  0  0
   47.2080   33.8980   39.7830 C   0  0  0  0  0  0  0  0  0  0  0  0
   48.2670   34.4940   39.1830 N   0  0  0  0  0  0  0  0  0  0  0  0
   48.3730   34.4270   37.8400 C   0  0  0  0  0  3  0  0  0  0  0  0
   47.4800   33.7950   37.0340 N   0  0  0  0  0  0  0  0  0  0  0  0
   46.4070   33.1860   37.5950 C   0  0  0  0  0  0  0  0  0  0  0  0
   45.4440   32.5180   36.8670 C   0  0  0  0  0  3  0  0  0  0  0  0
   44.3610   31.9060   37.4620 C   0  0  0  0  0  0  0  0  0  0  0  0
   43.6040   31.3820   36.8980 H   0  0  0  0  0  0  0  0  0  0  0  0
   44.2420   31.9680   38.8420 C   0  0  0  0  0  0  0  0  0  0  0  0
   43.3950   31.4900   39.3060 H   0  0  0  0  0  0  0  0  0  0  0  0
   45.2150   32.6400   39.5390 C   0  0  0  0  0  3  0  0  0  0  0  0
   46.3030   33.2570   38.9620 C   0  0  0  0  0  0  0  0  0  0  0  0
   44.7670   35.1070   45.3560 C   0  0  0  0  0  0  0  0  0  0  0  0
   45.0980   35.4740   44.0260 C   0  0  0  0  0  0  0  0  0  0  0  0
   46.0600   34.7000   43.4240 C   0  0  0  0  0  0  0  0  0  0  0  0
   46.6500   33.6390   44.0980 N   0  0  0  0  0  0  0  0  0  0  0  0
   46.3020   33.3310   45.3550 C   0  0  0  0  0  0  0  0  0  0  0  0
   45.3520   34.0760   45.9830 N   0  0  0  0  0  0  0  0  0  0  0  0
   44.0070   35.7020   45.8570 H   0  0  0  0  0  0  0  0  0  0  0  0
   46.8280   32.4970   45.7570 H   0  0  0  0  0  0  0  0  0  0  0  0
   44.5070   36.5850   43.3470 N   0  0  0  0  0  0  0  0  0  0  0  0
   45.2370   37.3010   43.5890 H   0  0  0  0  0  0  0  0  0  0  0  0
   43.6180   36.5910   42.8000 H   0  0  0  0  0  0  0  0  0  0  0  0
  1  4  1  6  0  0  0
  1 22  1  0  0  0  0
  2  1  1  0  0  0  0
  2  5  1  0  0  0  0
  3  7  1  1  0  0  0
  3  2  1  0  0  0  0
  3  1  1  0  0  0  0
  6  2  1  0  0  0  0
  8  3  1  0  0  0  0
  9  8  1  0  0  0  0
 10  9  2  0  0  0  0
 11 12  2  0  0  0  0
 11 10  1  0  0  0  0
 12 19  1  0  0  0  0
 13 14  2  0  0  0  0
 13 12  1  0  0  0  0
 14 16  1  0  0  0  0
 15 14  1  0  0  0  0
 16 17  1  0  0  0  0
 16 18  2  0  0  0  0
 19 18  1  0  0  0  0
 19  8  2  0  0  0  0
 20 26  1  0  0  0  0
 20 25  1  0  0  0  0
 21 20  2  0  0  0  0
 22 21  1  0  0  0  0
 22 23  2  0  0  0  0
 23 24  1  0  0  0  0
 24 27  1  0  0  0  0
 24 25  2  0  0  0  0
 28 29  1  0  0  0  0
 28 21  1  0  0  0  0
 30 28  1  0  0  0  0
M  END
>  <minimizedAffinity>
-5.72317696

>  <minimizedRMSD>
0.590202332

$$$$
