
 OpenBabel03252506563D

 41 46  0  0  0  0  0  0  0  0999 V2000
   47.3650   31.4370   45.1430 C   0  0  0  0  0  0  0  0  0  0  0  0
   46.9420   32.7490   45.0620 C   0  0  0  0  0  0  0  0  0  0  0  0
   46.2550   33.3690   46.0890 C   0  0  0  0  0  0  0  0  0  0  0  0
   45.9630   32.6620   47.2650 C   0  0  0  0  0  0  0  0  0  0  0  0
   45.3310   32.9300   48.4390 N   0  0  0  0  0  0  0  0  0  0  0  0
   45.3710   31.8110   49.2100 C   0  0  0  0  0  0  0  0  0  0  0  0
   46.0270   30.8700   48.4970 N   0  0  0  0  0  0  0  0  0  0  0  0
   46.4010   31.3600   47.3060 C   0  0  0  0  0  0  0  0  0  0  0  0
   47.0770   30.7240   46.3150 C   0  0  0  0  0  0  0  0  0  0  0  0
   47.9080   30.9460   44.3310 H   0  0  0  0  0  0  0  0  0  0  0  0
   45.9190   34.3920   46.0390 H   0  0  0  0  0  0  0  0  0  0  0  0
   44.9410   33.8730   48.5720 H   0  0  0  0  0  0  0  0  0  0  0  0
   44.9310   31.7920   50.1870 H   0  0  0  0  0  0  0  0  0  0  0  0
   46.6120   35.1780   42.3190 C   0  0  0  0  0  0  0  0  0  0  0  0
   47.7920   34.9870   41.6050 C   0  0  0  0  0  0  0  0  0  0  0  0
   48.7060   34.0210   42.0660 C   0  0  0  0  0  0  0  0  0  0  0  0
   48.3830   33.3180   43.1960 N   0  0  0  0  0  0  0  0  0  0  0  0
   47.2180   33.5320   43.8680 C   0  0  0  0  0  0  0  0  0  0  0  0
   46.3370   34.4550   43.4350 N   0  0  0  0  0  0  0  0  0  0  0  0
   45.9530   35.9290   41.9200 H   0  0  0  0  0  0  0  0  0  0  0  0
   48.0880   35.5080   40.7230 H   0  0  0  0  0  0  0  0  0  0  0  0
   49.6560   33.7630   41.6220 H   0  0  0  0  0  0  0  0  0  0  0  0
   47.5060   29.3240   46.4520 C   0  0  0  0  0  0  0  0  0  0  0  0
   48.7130   28.9070   46.9480 C   0  0  0  0  0  0  0  0  0  0  0  0
   48.6130   27.5090   46.8620 C   0  0  0  0  0  0  0  0  0  0  0  0
   47.4050   27.1520   46.3400 C   0  0  0  0  0  0  0  0  0  0  0  0
   46.8050   28.2970   46.1240 O   0  0  0  0  0  0  0  0  0  0  0  0
   49.5490   29.4800   47.3170 H   0  0  0  0  0  0  0  0  0  0  0  0
   49.3950   26.9000   47.2070 H   0  0  0  0  0  0  0  0  0  0  0  0
   46.6860   25.9400   46.0060 C   0  0  0  0  0  0  0  0  0  0  0  0
   47.2900   24.9800   45.2520 N   0  0  0  0  0  0  0  0  0  0  0  0
   46.6810   23.8980   44.8150 C   0  0  0  0  0  3  0  0  0  0  0  0
   45.3890   23.6260   45.0700 N   0  0  0  0  0  0  0  0  0  0  0  0
   44.6810   24.5200   45.8220 C   0  0  0  0  0  0  0  0  0  0  0  0
   43.3800   24.2930   46.1390 C   0  0  0  0  0  3  0  0  0  0  0  0
   42.6510   25.1640   46.9230 C   0  0  0  0  0  0  0  0  0  0  0  0
   41.6350   24.8700   47.0990 H   0  0  0  0  0  0  0  0  0  0  0  0
   43.3450   26.2900   47.3640 C   0  0  0  0  0  0  0  0  0  0  0  0
   42.7360   26.9580   47.9840 H   0  0  0  0  0  0  0  0  0  0  0  0
   44.6600   26.4840   47.0200 C   0  0  0  0  0  3  0  0  0  0  0  0
   45.3780   25.6230   46.2420 C   0  0  0  0  0  0  0  0  0  0  0  0
  1  9  1  0  0  0  0
  2  1  2  0  0  0  0
  2  3  1  0  0  0  0
  3  4  2  0  0  0  0
  4  8  1  0  0  0  0
  4  5  1  0  0  0  0
  5 12  1  0  0  0  0
  5  6  1  0  0  0  0
  6 13  1  0  0  0  0
  7  6  2  0  0  0  0
  8  7  1  0  0  0  0
  9 23  1  0  0  0  0
  9  8  2  0  0  0  0
 10  1  1  0  0  0  0
 11  3  1  0  0  0  0
 14 19  1  0  0  0  0
 15 16  1  0  0  0  0
 15 14  2  0  0  0  0
 16 17  2  0  0  0  0
 17 18  1  0  0  0  0
 18  2  1  0  0  0  0
 19 18  2  0  0  0  0
 20 14  1  0  0  0  0
 21 15  1  0  0  0  0
 22 16  1  0  0  0  0
 23 24  2  0  0  0  0
 24 28  1  0  0  0  0
 25 24  1  0  0  0  0
 25 29  1  0  0  0  0
 26 25  2  0  0  0  0
 27 26  1  0  0  0  0
 27 23  1  0  0  0  0
 30 41  1  0  0  0  0
 30 26  1  0  0  0  0
 31 30  2  0  0  0  0
 32 33  2  0  0  0  0
 32 31  1  0  0  0  0
 33 34  1  0  0  0  0
 34 35  2  0  0  0  0
 34 41  1  0  0  0  0
 35 36  1  0  0  0  0
 36 37  1  0  0  0  0
 36 38  2  0  0  0  0
 38 39  1  0  0  0  0
 40 38  1  0  0  0  0
 41 40  2  0  0  0  0
M  END
>  <minimizedAffinity>
-6.01723576

>  <minimizedRMSD>
0.444905847

$$$$
