
 OpenBabel03252507383D

 41 46  0  0  0  0  0  0  0  0999 V2000
   45.7550   34.7060   43.7260 C   0  0  0  0  0  0  0  0  0  0  0  0
   46.4980   33.6600   44.3290 C   0  0  0  0  0  0  0  0  0  0  0  0
   46.2290   33.3950   45.6650 C   0  0  0  0  0  0  0  0  0  0  0  0
   45.2940   34.1320   46.3080 N   0  0  0  0  0  0  0  0  0  0  0  0
   44.6010   35.1250   45.7010 C   0  0  0  0  0  0  0  0  0  0  0  0
   44.8310   35.4050   44.4290 N   0  0  0  0  0  0  0  0  0  0  0  0
   47.2320   33.0800   43.8320 H   0  0  0  0  0  0  0  0  0  0  0  0
   43.8910   35.6120   46.3560 H   0  0  0  0  0  0  0  0  0  0  0  0
   47.2000   32.6360   47.7620 C   0  0  0  0  0  0  0  0  0  0  0  0
   46.9020   32.3480   46.4330 C   0  0  0  0  0  0  0  0  0  0  0  0
   47.2490   31.1260   45.9320 C   0  0  0  0  0  0  0  0  0  0  0  0
   47.8810   30.1620   46.6840 C   0  0  0  0  0  0  0  0  0  0  0  0
   48.3070   28.9130   46.4010 N   0  0  0  0  0  0  0  0  0  0  0  0
   48.8790   28.4040   47.5580 C   0  0  0  0  0  0  0  0  0  0  0  0
   48.7820   29.3600   48.5120 N   0  0  0  0  0  0  0  0  0  0  0  0
   48.1800   30.4310   47.9950 C   0  0  0  0  0  0  0  0  0  0  0  0
   47.8420   31.6560   48.5280 C   0  0  0  0  0  0  0  0  0  0  0  0
   46.9870   33.5540   48.2870 H   0  0  0  0  0  0  0  0  0  0  0  0
   46.9900   30.9510   44.8800 H   0  0  0  0  0  0  0  0  0  0  0  0
   48.1960   28.4630   45.4530 H   0  0  0  0  0  0  0  0  0  0  0  0
   49.3100   27.4220   47.6430 H   0  0  0  0  0  0  0  0  0  0  0  0
   48.1100   31.8160   49.5830 H   0  0  0  0  0  0  0  0  0  0  0  0
   46.0230   34.9770   42.3770 O   0  0  0  0  0  0  0  0  0  0  0  0
   45.0490   34.7150   41.4150 C   0  0  0  0  0  0  0  0  0  0  0  0
   45.6770   33.7410   40.7330 C   0  0  0  0  0  0  0  0  0  0  0  0
   44.3880   33.3310   39.3950 S   0  0  0  0  0  0  0  0  0  0  0  0
   43.2460   34.6470   40.1200 C   0  0  0  0  0  0  0  0  0  0  0  0
   43.8490   35.0230   40.9530 N   0  0  0  0  0  0  0  0  0  0  0  0
   46.5690   32.9410   40.4370 H   0  0  0  0  0  0  0  0  0  0  0  0
   41.9430   34.7340   39.3670 C   0  0  0  0  0  0  0  0  0  0  0  0
   41.7930   35.3690   38.2280 N   0  0  0  0  0  0  0  0  0  0  0  0
   40.6580   35.4550   37.5430 C   0  0  0  0  0  3  0  0  0  0  0  0
   39.5810   34.8860   37.9870 N   0  0  0  0  0  0  0  0  0  0  0  0
   39.5640   34.1800   39.1690 C   0  0  0  0  0  0  0  0  0  0  0  0
   38.4600   33.5530   39.7030 C   0  0  0  0  0  3  0  0  0  0  0  0
   38.6040   32.8840   40.8990 C   0  0  0  0  0  0  0  0  0  0  0  0
   37.6350   32.4470   41.1810 H   0  0  0  0  0  0  0  0  0  0  0  0
   39.8310   32.8240   41.5790 C   0  0  0  0  0  0  0  0  0  0  0  0
   39.7580   32.2590   42.4930 H   0  0  0  0  0  0  0  0  0  0  0  0
   40.9150   33.4580   41.0260 C   0  0  0  0  0  3  0  0  0  0  0  0
   40.8100   34.1460   39.8200 C   0  0  0  0  0  0  0  0  0  0  0  0
  1  2  2  0  0  0  0
  1  6  1  0  0  0  0
  2  3  1  0  0  0  0
  3  4  2  0  0  0  0
  3 10  1  0  0  0  0
  5  4  1  0  0  0  0
  5  8  1  0  0  0  0
  6  5  2  0  0  0  0
  7  2  1  0  0  0  0
  9 18  1  0  0  0  0
  9 17  1  0  0  0  0
 10  9  2  0  0  0  0
 11 10  1  0  0  0  0
 11 12  2  0  0  0  0
 12 16  1  0  0  0  0
 13 12  1  0  0  0  0
 13 14  1  0  0  0  0
 14 21  1  0  0  0  0
 14 15  2  0  0  0  0
 16 15  1  0  0  0  0
 16 17  2  0  0  0  0
 17 22  1  0  0  0  0
 19 11  1  0  0  0  0
 20 13  1  0  0  0  0
 23  1  1  0  0  0  0
 24 23  1  0  0  0  0
 25 24  2  0  0  0  0
 26 27  1  0  0  0  0
 26 25  1  0  0  0  0
 27 28  2  0  0  0  0
 28 24  1  0  0  0  0
 29 25  1  0  0  0  0
 30 41  1  0  0  0  0
 30 27  1  0  0  0  0
 31 30  2  0  0  0  0
 32 33  2  0  0  0  0
 32 31  1  0  0  0  0
 33 34  1  0  0  0  0
 34 35  2  0  0  0  0
 34 41  1  0  0  0  0
 35 36  1  0  0  0  0
 36 37  1  0  0  0  0
 36 38  2  0  0  0  0
 38 39  1  0  0  0  0
 40 38  1  0  0  0  0
 41 40  2  0  0  0  0
M  END
>  <minimizedAffinity>
-7.71493435

>  <minimizedRMSD>
1.43704581

$$$$
