
 OpenBabel03252509233D

 30 33  0  0  1  0  0  0  0  0999 V2000
   46.4620   35.0540   41.8870 C   0  0  1  0  0  0  0  0  0  0  0  0
   48.0100   35.0550   41.7930 C   0  0  0  0  0  0  0  0  0  0  0  0
   47.0540   33.9920   41.1620 C   0  0  2  0  0  0  0  0  0  0  0  0
   45.9980   35.9430   41.4250 H   0  0  0  0  0  0  0  0  0  0  0  0
   48.6010   34.7380   42.6460 H   0  0  0  0  0  0  0  0  0  0  0  0
   48.4240   35.7960   41.1150 H   0  0  0  0  0  0  0  0  0  0  0  0
   47.1380   32.9860   41.6670 H   0  0  0  0  0  0  0  0  0  0  0  0
   47.1850   33.8990   39.7070 C   0  0  0  0  0  0  0  0  0  0  0  0
   48.2560   34.4920   39.1260 N   0  0  0  0  0  0  0  0  0  0  0  0
   48.3910   34.4170   37.7860 C   0  0  0  0  0  3  0  0  0  0  0  0
   47.5170   33.7790   36.9650 N   0  0  0  0  0  0  0  0  0  0  0  0
   46.4320   33.1730   37.5080 C   0  0  0  0  0  0  0  0  0  0  0  0
   45.4850   32.4990   36.7630 C   0  0  0  0  0  3  0  0  0  0  0  0
   44.3900   31.8890   37.3390 C   0  0  0  0  0  0  0  0  0  0  0  0
   43.6470   31.3610   36.7620 H   0  0  0  0  0  0  0  0  0  0  0  0
   44.2430   31.9610   38.7150 C   0  0  0  0  0  0  0  0  0  0  0  0
   43.3870   31.4840   39.1640 H   0  0  0  0  0  0  0  0  0  0  0  0
   45.1990   32.6370   39.4290 C   0  0  0  0  0  3  0  0  0  0  0  0
   46.3000   33.2520   38.8710 C   0  0  0  0  0  0  0  0  0  0  0  0
   44.7080   35.3400   45.2020 C   0  0  0  0  0  0  0  0  0  0  0  0
   45.1120   35.6690   43.8820 C   0  0  0  0  0  0  0  0  0  0  0  0
   46.0320   34.8200   43.3180 C   0  0  0  0  0  0  0  0  0  0  0  0
   46.5150   33.7220   44.0180 N   0  0  0  0  0  0  0  0  0  0  0  0
   46.1030   33.4520   45.2640 C   0  0  0  0  0  0  0  0  0  0  0  0
   45.1910   34.2720   45.8550 N   0  0  0  0  0  0  0  0  0  0  0  0
   43.9800   35.9950   45.6720 H   0  0  0  0  0  0  0  0  0  0  0  0
   46.5500   32.5840   45.6890 H   0  0  0  0  0  0  0  0  0  0  0  0
   44.6310   36.8160   43.1760 N   0  0  0  0  0  0  0  0  0  0  0  0
   45.4040   37.4770   43.4400 H   0  0  0  0  0  0  0  0  0  0  0  0
   43.7630   36.8850   42.5990 H   0  0  0  0  0  0  0  0  0  0  0  0
  1  4  1  6  0  0  0
  1 22  1  0  0  0  0
  2  1  1  0  0  0  0
  2  5  1  0  0  0  0
  3  7  1  1  0  0  0
  3  2  1  0  0  0  0
  3  1  1  0  0  0  0
  6  2  1  0  0  0  0
  8  3  1  0  0  0  0
  9  8  1  0  0  0  0
 10  9  2  0  0  0  0
 11 12  2  0  0  0  0
 11 10  1  0  0  0  0
 12 19  1  0  0  0  0
 13 14  2  0  0  0  0
 13 12  1  0  0  0  0
 14 16  1  0  0  0  0
 15 14  1  0  0  0  0
 16 17  1  0  0  0  0
 16 18  2  0  0  0  0
 19 18  1  0  0  0  0
 19  8  2  0  0  0  0
 20 26  1  0  0  0  0
 20 25  1  0  0  0  0
 21 20  2  0  0  0  0
 22 21  1  0  0  0  0
 22 23  2  0  0  0  0
 23 24  1  0  0  0  0
 24 27  1  0  0  0  0
 24 25  2  0  0  0  0
 28 29  1  0  0  0  0
 28 21  1  0  0  0  0
 30 28  1  0  0  0  0
M  END
>  <minimizedAffinity>
-5.74620342

>  <minimizedRMSD>
0.819554448

$$$$
