
 OpenBabel03252509333D

 43 46  0  0  1  0  0  0  0  0999 V2000
   46.3410   32.7520   42.1660 C   0  0  1  0  0  0  0  0  0  0  0  0
   46.1090   34.2290   41.9880 C   0  0  0  0  0  0  0  0  0  0  0  0
   47.3260   34.8230   42.6440 C   0  0  0  0  0  0  0  0  0  0  0  0
   47.7580   33.8310   43.6900 C   0  0  0  0  0  0  0  0  0  0  0  0
   46.7300   32.6940   43.6470 C   0  0  1  0  0  0  0  0  0  0  0  0
   47.2420   32.4350   41.6080 H   0  0  0  0  0  0  0  0  0  0  0  0
   46.1840   34.4700   40.8960 H   0  0  0  0  0  0  0  0  0  0  0  0
   45.1720   34.5600   42.4330 H   0  0  0  0  0  0  0  0  0  0  0  0
   48.1680   34.9610   41.9160 H   0  0  0  0  0  0  0  0  0  0  0  0
   47.0990   35.8260   43.0610 H   0  0  0  0  0  0  0  0  0  0  0  0
   47.7160   34.3430   44.6830 H   0  0  0  0  0  0  0  0  0  0  0  0
   48.7900   33.4750   43.5610 H   0  0  0  0  0  0  0  0  0  0  0  0
   47.2790   31.7570   43.7940 H   0  0  0  0  0  0  0  0  0  0  0  0
   45.6050   32.9360   44.5500 C   0  0  0  0  0  0  0  0  0  0  0  0
   45.0120   31.9200   45.2050 N   0  0  0  0  0  0  0  0  0  0  0  0
   43.9640   32.1080   46.0530 C   0  0  0  0  0  3  0  0  0  0  0  0
   43.4510   33.3230   46.2900 N   0  0  0  0  0  0  0  0  0  0  0  0
   43.9890   34.3890   45.6710 C   0  0  0  0  0  0  0  0  0  0  0  0
   43.4990   35.6760   45.8780 C   0  0  0  0  0  3  0  0  0  0  0  0
   44.0640   36.7570   45.2350 C   0  0  0  0  0  0  0  0  0  0  0  0
   43.6640   37.7430   45.4130 H   0  0  0  0  0  0  0  0  0  0  0  0
   45.1420   36.5790   44.3620 C   0  0  0  0  0  0  0  0  0  0  0  0
   45.5930   37.4220   43.8520 H   0  0  0  0  0  0  0  0  0  0  0  0
   45.5920   35.2830   44.1900 C   0  0  0  0  0  3  0  0  0  0  0  0
   45.0590   34.1740   44.8110 C   0  0  0  0  0  0  0  0  0  0  0  0
   45.2410   31.9650   41.9070 O   0  0  0  0  0  0  0  0  0  0  0  0
   44.4820   29.8460   40.6170 O   0  0  0  0  0  0  0  0  0  0  0  0
   45.6830   30.6900   40.9050 P   0  0  1  0  0  0  0  0  0  0  0  0
   46.4320   31.2260   39.5050 O   0  0  0  0  0  0  0  0  0  0  0  0
   45.7660   31.2360   38.7720 H   0  0  0  0  0  0  0  0  0  0  0  0
   46.8480   29.7670   41.7240 O   0  0  0  0  0  0  0  0  0  0  0  0
   47.9170   29.5970   40.8950 C   0  0  0  0  0  0  0  0  0  0  0  0
   47.9490   30.1290   39.9570 H   0  0  0  0  0  0  0  0  0  0  0  0
   48.8100   29.9720   41.4790 H   0  0  0  0  0  0  0  0  0  0  0  0
   47.7010   25.8830   41.0090 C   0  0  0  0  0  0  0  0  0  0  0  0
   47.4250   27.2300   41.2670 C   0  0  0  0  0  0  0  0  0  0  0  0
   48.2000   28.1820   40.6290 C   0  0  0  0  0  0  0  0  0  0  0  0
   49.1950   27.7670   39.7810 N   0  0  0  0  0  0  0  0  0  0  0  0
   49.4310   26.4520   39.5560 C   0  0  0  0  0  0  0  0  0  0  0  0
   48.6930   25.5340   40.1640 N   0  0  0  0  0  0  0  0  0  0  0  0
   47.0690   25.1850   41.5300 H   0  0  0  0  0  0  0  0  0  0  0  0
   46.6390   27.5370   41.9370 H   0  0  0  0  0  0  0  0  0  0  0  0
   50.2260   26.1460   38.8780 H   0  0  0  0  0  0  0  0  0  0  0  0
  1  6  1  6  0  0  0
  1  5  1  0  0  0  0
  2  1  1  0  0  0  0
  2  8  1  0  0  0  0
  2  3  1  0  0  0  0
  3 10  1  0  0  0  0
  3  4  1  0  0  0  0
  4 11  1  0  0  0  0
  5  4  1  0  0  0  0
  5 13  1  1  0  0  0
  5 14  1  0  0  0  0
  7  2  1  0  0  0  0
  9  3  1  0  0  0  0
 12  4  1  0  0  0  0
 14 25  2  0  0  0  0
 14 15  1  0  0  0  0
 15 16  2  0  0  0  0
 16 17  1  0  0  0  0
 18 19  1  0  0  0  0
 18 17  2  0  0  0  0
 20 21  1  0  0  0  0
 20 19  2  0  0  0  0
 22 20  1  0  0  0  0
 23 22  1  0  0  0  0
 24 22  2  0  0  0  0
 24 25  1  0  0  0  0
 25 18  1  0  0  0  0
 26  1  1  0  0  0  0
 28 27  2  6  0  0  0
 28 31  1  0  0  0  0
 28 26  1  0  0  0  0
 29 28  1  0  0  0  0
 30 29  1  0  0  0  0
 32 34  1  0  0  0  0
 32 31  1  0  0  0  0
 33 32  1  0  0  0  0
 35 36  1  0  0  0  0
 35 41  1  0  0  0  0
 36 42  1  0  0  0  0
 37 32  1  0  0  0  0
 37 36  2  0  0  0  0
 38 37  1  0  0  0  0
 39 38  2  0  0  0  0
 39 40  1  0  0  0  0
 40 35  2  0  0  0  0
 43 39  1  0  0  0  0
M  END
>  <minimizedAffinity>
9.33989811

>  <minimizedRMSD>
6.91518021

$$$$
