
 OpenBabel03242515413D

 39 43  0  0  0  0  0  0  0  0999 V2000
   34.3940   29.0660   36.2370 C   0  0  0  0  0  0  0  0  0  0  0  0
   35.2250   29.1360   37.3240 C   0  0  0  0  0  0  0  0  0  0  0  0
   36.5690   29.5300   37.1000 C   0  0  0  0  0  0  0  0  0  0  0  0
   36.9060   29.8040   35.8110 N   0  0  0  0  0  0  0  0  0  0  0  0
   36.0730   29.7250   34.7850 C   0  0  0  0  0  0  0  0  0  0  0  0
   34.8300   29.3560   35.0280 N   0  0  0  0  0  0  0  0  0  0  0  0
   34.8560   28.8990   38.2920 H   0  0  0  0  0  0  0  0  0  0  0  0
   37.3580   29.5740   38.3120 C   0  0  0  0  0  0  0  0  0  0  0  0
   37.9200   28.4690   38.8510 N   0  0  0  0  0  0  0  0  0  0  0  0
   38.6520   28.4690   39.9640 C   0  0  0  0  0  3  0  0  0  0  0  0
   38.9080   29.5820   40.6730 N   0  0  0  0  0  0  0  0  0  0  0  0
   38.3940   30.7280   40.2190 C   0  0  0  0  0  0  0  0  0  0  0  0
   38.6270   31.8940   40.9110 C   0  0  0  0  0  3  0  0  0  0  0  0
   38.1140   33.0980   40.4780 C   0  0  0  0  0  0  0  0  0  0  0  0
   38.3480   33.9610   41.0850 H   0  0  0  0  0  0  0  0  0  0  0  0
   37.3450   33.0880   39.3080 C   0  0  0  0  0  0  0  0  0  0  0  0
   36.9550   34.0350   38.9860 H   0  0  0  0  0  0  0  0  0  0  0  0
   37.1430   31.8960   38.6540 C   0  0  0  0  0  3  0  0  0  0  0  0
   37.6430   30.6850   39.0660 C   0  0  0  0  0  0  0  0  0  0  0  0
   32.6840   28.5570   36.5850 S   0  0  0  0  0  0  0  0  0  0  0  0
   30.8560   30.4380   37.2470 C   0  0  0  0  0  0  0  0  0  0  0  0
   31.5470   29.8840   36.1710 C   0  0  0  0  0  0  0  0  0  0  0  0
   31.3460   30.3470   34.9050 C   0  0  0  0  0  0  0  0  0  0  0  0
   30.4550   31.3730   34.6450 C   0  0  0  0  0  0  0  0  0  0  0  0
   29.7570   31.9310   35.7350 C   0  0  0  0  0  0  0  0  0  0  0  0
   29.9490   31.4730   37.0360 C   0  0  0  0  0  0  0  0  0  0  0  0
   28.9270   32.9430   35.2030 O   0  0  0  0  0  0  0  0  0  0  0  0
   28.8820   32.7500   33.8240 C   0  0  0  0  0  0  0  0  0  0  0  0
   30.0550   32.0350   33.4800 O   0  0  0  0  0  0  0  0  0  0  0  0
   30.9600   30.1280   38.2770 H   0  0  0  0  0  0  0  0  0  0  0  0
   31.9090   29.8830   34.1070 H   0  0  0  0  0  0  0  0  0  0  0  0
   29.4030   31.9170   37.8490 H   0  0  0  0  0  0  0  0  0  0  0  0
   27.9560   32.2400   33.4980 H   0  0  0  0  0  0  0  0  0  0  0  0
   28.9860   33.7430   33.3310 H   0  0  0  0  0  0  0  0  0  0  0  0
   36.4290   30.0030   33.5010 O   0  0  0  0  0  0  0  0  0  0  0  0
   36.2950   31.3070   32.9930 C   0  0  0  0  0  0  0  0  0  0  0  0
   35.0770   31.8580   33.3140 F   0  0  0  0  0  0  0  0  0  0  0  0
   37.3760   32.0170   33.5070 F   0  0  0  0  0  0  0  0  0  0  0  0
   36.3690   31.2210   31.6010 F   0  0  0  0  0  0  0  0  0  0  0  0
  1 20  1  0  0  0  0
  1  2  1  0  0  0  0
  2  7  1  0  0  0  0
  3  2  2  0  0  0  0
  3  8  1  0  0  0  0
  4  3  1  0  0  0  0
  5  6  1  0  0  0  0
  5  4  2  0  0  0  0
  6  1  2  0  0  0  0
  8  9  2  0  0  0  0
  8 19  1  0  0  0  0
  9 10  1  0  0  0  0
 10 11  2  0  0  0  0
 12 11  1  0  0  0  0
 12 13  1  0  0  0  0
 14 13  2  0  0  0  0
 14 15  1  0  0  0  0
 16 14  1  0  0  0  0
 17 16  1  0  0  0  0
 18 19  1  0  0  0  0
 18 16  2  0  0  0  0
 19 12  2  0  0  0  0
 21 30  1  0  0  0  0
 22 20  1  0  0  0  0
 22 21  2  0  0  0  0
 23 22  1  0  0  0  0
 24 23  2  0  0  0  0
 24 25  1  0  0  0  0
 25 26  2  0  0  0  0
 26 21  1  0  0  0  0
 26 32  1  0  0  0  0
 27 25  1  0  0  0  0
 28 27  1  0  0  0  0
 29 28  1  0  0  0  0
 29 24  1  0  0  0  0
 31 23  1  0  0  0  0
 33 28  1  0  0  0  0
 34 28  1  0  0  0  0
 35  5  1  0  0  0  0
 36 37  1  0  0  0  0
 36 35  1  0  0  0  0
 36 38  1  0  0  0  0
 39 36  1  0  0  0  0
M  END
>  <minimizedAffinity>
-6.85889339

$$$$

 OpenBabel03242515413D

 39 43  0  0  0  0  0  0  0  0999 V2000
   33.6690   29.0890   36.4230 C   0  0  0  0  0  0  0  0  0  0  0  0
   34.1850   29.0190   37.6900 C   0  0  0  0  0  0  0  0  0  0  0  0
   35.5780   29.2280   37.8460 C   0  0  0  0  0  0  0  0  0  0  0  0
   36.2770   29.4820   36.7060 N   0  0  0  0  0  0  0  0  0  0  0  0
   35.7430   29.5420   35.4960 C   0  0  0  0  0  0  0  0  0  0  0  0
   34.4430   29.3430   35.3870 N   0  0  0  0  0  0  0  0  0  0  0  0
   33.5450   28.8140   38.5140 H   0  0  0  0  0  0  0  0  0  0  0  0
   36.0180   29.1360   39.2210 C   0  0  0  0  0  0  0  0  0  0  0  0
   36.1190   30.2180   40.0240 N   0  0  0  0  0  0  0  0  0  0  0  0
   36.5200   30.1720   41.2940 C   0  0  0  0  0  3  0  0  0  0  0  0
   36.8710   29.0310   41.9110 N   0  0  0  0  0  0  0  0  0  0  0  0
   36.8050   27.9050   41.1970 C   0  0  0  0  0  0  0  0  0  0  0  0
   37.1560   26.7110   41.7860 C   0  0  0  0  0  3  0  0  0  0  0  0
   37.1040   25.5250   41.0840 C   0  0  0  0  0  0  0  0  0  0  0  0
   37.3980   24.6380   41.6280 H   0  0  0  0  0  0  0  0  0  0  0  0
   36.6810   25.5820   39.7510 C   0  0  0  0  0  0  0  0  0  0  0  0
   36.6470   24.6490   39.2220 H   0  0  0  0  0  0  0  0  0  0  0  0
   36.3420   26.8000   39.2120 C   0  0  0  0  0  3  0  0  0  0  0  0
   36.3860   27.9940   39.8890 C   0  0  0  0  0  0  0  0  0  0  0  0
   31.8770   28.8130   36.2850 S   0  0  0  0  0  0  0  0  0  0  0  0
   30.9770   31.2650   35.5830 C   0  0  0  0  0  0  0  0  0  0  0  0
   31.1630   29.9680   35.1100 C   0  0  0  0  0  0  0  0  0  0  0  0
   30.8120   29.6370   33.8350 C   0  0  0  0  0  0  0  0  0  0  0  0
   30.2630   30.5690   32.9730 C   0  0  0  0  0  0  0  0  0  0  0  0
   30.0760   31.8810   33.4540 C   0  0  0  0  0  0  0  0  0  0  0  0
   30.4290   32.2390   34.7520 C   0  0  0  0  0  0  0  0  0  0  0  0
   29.5110   32.6200   32.3910 O   0  0  0  0  0  0  0  0  0  0  0  0
   29.0640   31.6990   31.4460 C   0  0  0  0  0  0  0  0  0  0  0  0
   29.8200   30.5180   31.6480 O   0  0  0  0  0  0  0  0  0  0  0  0
   31.2290   31.6060   36.5770 H   0  0  0  0  0  0  0  0  0  0  0  0
   30.9780   28.6170   33.5190 H   0  0  0  0  0  0  0  0  0  0  0  0
   30.2750   33.2470   35.0940 H   0  0  0  0  0  0  0  0  0  0  0  0
   27.9730   31.5260   31.5070 H   0  0  0  0  0  0  0  0  0  0  0  0
   29.3550   32.0680   30.4360 H   0  0  0  0  0  0  0  0  0  0  0  0
   36.4580   29.7970   34.3660 O   0  0  0  0  0  0  0  0  0  0  0  0
   36.3980   31.0620   33.7580 C   0  0  0  0  0  0  0  0  0  0  0  0
   35.1100   31.4080   33.4230 F   0  0  0  0  0  0  0  0  0  0  0  0
   36.9870   31.9380   34.6660 F   0  0  0  0  0  0  0  0  0  0  0  0
   37.1400   30.9920   32.5780 F   0  0  0  0  0  0  0  0  0  0  0  0
  1  2  1  0  0  0  0
  2  3  2  0  0  0  0
  2  7  1  0  0  0  0
  3  8  1  0  0  0  0
  4  3  1  0  0  0  0
  5  4  2  0  0  0  0
  6  5  1  0  0  0  0
  6  1  2  0  0  0  0
  8 19  2  0  0  0  0
  8  9  1  0  0  0  0
  9 10  2  0  0  0  0
 10 11  1  0  0  0  0
 12 13  1  0  0  0  0
 12 11  2  0  0  0  0
 14 15  1  0  0  0  0
 14 13  2  0  0  0  0
 16 14  1  0  0  0  0
 17 16  1  0  0  0  0
 18 16  2  0  0  0  0
 18 19  1  0  0  0  0
 19 12  1  0  0  0  0
 20  1  1  0  0  0  0
 21 30  1  0  0  0  0
 22 21  1  0  0  0  0
 22 20  1  0  0  0  0
 23 22  2  0  0  0  0
 24 25  2  0  0  0  0
 24 23  1  0  0  0  0
 25 26  1  0  0  0  0
 26 32  1  0  0  0  0
 26 21  2  0  0  0  0
 27 25  1  0  0  0  0
 28 33  1  0  0  0  0
 28 29  1  0  0  0  0
 28 27  1  0  0  0  0
 29 24  1  0  0  0  0
 31 23  1  0  0  0  0
 34 28  1  0  0  0  0
 35  5  1  0  0  0  0
 36 35  1  0  0  0  0
 36 38  1  0  0  0  0
 37 36  1  0  0  0  0
 39 36  1  0  0  0  0
M  END
>  <minimizedAffinity>
-6.79247904

$$$$

 OpenBabel03242515413D

 39 43  0  0  0  0  0  0  0  0999 V2000
   35.7580   28.4070   38.2940 C   0  0  0  0  0  0  0  0  0  0  0  0
   36.2600   27.3820   39.0520 C   0  0  0  0  0  0  0  0  0  0  0  0
   36.8660   27.7150   40.2890 C   0  0  0  0  0  0  0  0  0  0  0  0
   36.8920   29.0380   40.6080 N   0  0  0  0  0  0  0  0  0  0  0  0
   36.3950   30.0020   39.8480 C   0  0  0  0  0  0  0  0  0  0  0  0
   35.8380   29.6580   38.7030 N   0  0  0  0  0  0  0  0  0  0  0  0
   36.1870   26.3800   38.7060 H   0  0  0  0  0  0  0  0  0  0  0  0
   37.3590   26.5620   41.0100 C   0  0  0  0  0  0  0  0  0  0  0  0
   36.8040   25.3370   40.8830 N   0  0  0  0  0  0  0  0  0  0  0  0
   37.2290   24.2520   41.5300 C   0  0  0  0  0  3  0  0  0  0  0  0
   38.2640   24.2690   42.3870 N   0  0  0  0  0  0  0  0  0  0  0  0
   38.8790   25.4380   42.5810 C   0  0  0  0  0  0  0  0  0  0  0  0
   39.9440   25.5050   43.4500 C   0  0  0  0  0  3  0  0  0  0  0  0
   40.6060   26.6930   43.6800 C   0  0  0  0  0  0  0  0  0  0  0  0
   41.4300   26.6500   44.3780 H   0  0  0  0  0  0  0  0  0  0  0  0
   40.1530   27.8270   42.9950 C   0  0  0  0  0  0  0  0  0  0  0  0
   40.6810   28.7410   43.1870 H   0  0  0  0  0  0  0  0  0  0  0  0
   39.0850   27.7050   42.1390 C   0  0  0  0  0  3  0  0  0  0  0  0
   38.4100   26.5340   41.8930 C   0  0  0  0  0  0  0  0  0  0  0  0
   34.9920   27.9200   36.7180 S   0  0  0  0  0  0  0  0  0  0  0  0
   33.3330   29.3330   35.1160 C   0  0  0  0  0  0  0  0  0  0  0  0
   33.5100   28.8910   36.4260 C   0  0  0  0  0  0  0  0  0  0  0  0
   32.5970   29.1960   37.3910 C   0  0  0  0  0  0  0  0  0  0  0  0
   31.4720   29.9510   37.1080 C   0  0  0  0  0  0  0  0  0  0  0  0
   31.2960   30.3980   35.7830 C   0  0  0  0  0  0  0  0  0  0  0  0
   32.2160   30.0960   34.7830 C   0  0  0  0  0  0  0  0  0  0  0  0
   30.0900   31.1320   35.7660 O   0  0  0  0  0  0  0  0  0  0  0  0
   29.7560   31.3990   37.0910 C   0  0  0  0  0  0  0  0  0  0  0  0
   30.3950   30.4070   37.8740 O   0  0  0  0  0  0  0  0  0  0  0  0
   34.0080   29.1350   34.2970 H   0  0  0  0  0  0  0  0  0  0  0  0
   32.7820   28.8270   38.3900 H   0  0  0  0  0  0  0  0  0  0  0  0
   32.0570   30.4500   33.7790 H   0  0  0  0  0  0  0  0  0  0  0  0
   30.0260   32.4270   37.3980 H   0  0  0  0  0  0  0  0  0  0  0  0
   28.6640   31.2180   37.2180 H   0  0  0  0  0  0  0  0  0  0  0  0
   36.4300   31.3210   40.1820 O   0  0  0  0  0  0  0  0  0  0  0  0
   37.4570   32.1500   39.7000 C   0  0  0  0  0  0  0  0  0  0  0  0
   38.6440   31.4680   39.5670 F   0  0  0  0  0  0  0  0  0  0  0  0
   36.9800   32.6680   38.4980 F   0  0  0  0  0  0  0  0  0  0  0  0
   37.6500   33.1630   40.6400 F   0  0  0  0  0  0  0  0  0  0  0  0
  1  6  2  0  0  0  0
  1  2  1  0  0  0  0
  2  3  2  0  0  0  0
  3  4  1  0  0  0  0
  3  8  1  0  0  0  0
  5 35  1  0  0  0  0
  5  4  2  0  0  0  0
  6  5  1  0  0  0  0
  7  2  1  0  0  0  0
  8 19  1  0  0  0  0
  9  8  2  0  0  0  0
  9 10  1  0  0  0  0
 10 11  2  0  0  0  0
 11 12  1  0  0  0  0
 12 13  1  0  0  0  0
 13 14  2  0  0  0  0
 14 15  1  0  0  0  0
 16 17  1  0  0  0  0
 16 14  1  0  0  0  0
 18 16  2  0  0  0  0
 19 18  1  0  0  0  0
 19 12  2  0  0  0  0
 20  1  1  0  0  0  0
 21 22  1  0  0  0  0
 22 20  1  0  0  0  0
 22 23  2  0  0  0  0
 23 31  1  0  0  0  0
 24 23  1  0  0  0  0
 24 29  1  0  0  0  0
 25 24  2  0  0  0  0
 26 21  2  0  0  0  0
 26 25  1  0  0  0  0
 27 25  1  0  0  0  0
 27 28  1  0  0  0  0
 28 34  1  0  0  0  0
 28 33  1  0  0  0  0
 28 29  1  0  0  0  0
 30 21  1  0  0  0  0
 32 26  1  0  0  0  0
 36 35  1  0  0  0  0
 36 39  1  0  0  0  0
 37 36  1  0  0  0  0
 38 36  1  0  0  0  0
M  END
>  <minimizedAffinity>
-6.45411682

$$$$

 OpenBabel03242515413D

 39 43  0  0  0  0  0  0  0  0999 V2000
   36.4670   29.6770   39.4740 C   0  0  0  0  0  0  0  0  0  0  0  0
   37.4400   30.6170   39.6870 C   0  0  0  0  0  0  0  0  0  0  0  0
   38.0220   31.2310   38.5500 C   0  0  0  0  0  0  0  0  0  0  0  0
   37.5510   30.8210   37.3400 N   0  0  0  0  0  0  0  0  0  0  0  0
   36.6080   29.9070   37.1740 C   0  0  0  0  0  0  0  0  0  0  0  0
   36.0860   29.3560   38.2530 N   0  0  0  0  0  0  0  0  0  0  0  0
   37.7330   30.8630   40.6790 H   0  0  0  0  0  0  0  0  0  0  0  0
   39.0340   32.2080   38.8860 C   0  0  0  0  0  0  0  0  0  0  0  0
   38.7940   33.2400   39.7250 N   0  0  0  0  0  0  0  0  0  0  0  0
   39.7000   34.1600   40.0570 C   0  0  0  0  0  3  0  0  0  0  0  0
   40.9580   34.1550   39.5840 N   0  0  0  0  0  0  0  0  0  0  0  0
   41.2910   33.1720   38.7440 C   0  0  0  0  0  0  0  0  0  0  0  0
   42.5680   33.1250   38.2320 C   0  0  0  0  0  3  0  0  0  0  0  0
   42.9520   32.1270   37.3610 C   0  0  0  0  0  0  0  0  0  0  0  0
   43.9740   32.1710   37.0100 H   0  0  0  0  0  0  0  0  0  0  0  0
   41.9950   31.1660   37.0170 C   0  0  0  0  0  0  0  0  0  0  0  0
   42.3140   30.3980   36.3380 H   0  0  0  0  0  0  0  0  0  0  0  0
   40.7340   31.2590   37.5570 C   0  0  0  0  0  3  0  0  0  0  0  0
   40.3270   32.2410   38.4260 C   0  0  0  0  0  0  0  0  0  0  0  0
   35.7560   28.9250   40.9690 S   0  0  0  0  0  0  0  0  0  0  0  0
   37.5970   28.4620   42.8960 C   0  0  0  0  0  0  0  0  0  0  0  0
   36.9790   27.8940   41.7840 C   0  0  0  0  0  0  0  0  0  0  0  0
   37.3090   26.6360   41.3740 C   0  0  0  0  0  0  0  0  0  0  0  0
   38.2610   25.8860   42.0410 C   0  0  0  0  0  0  0  0  0  0  0  0
   38.8860   26.4640   43.1650 C   0  0  0  0  0  0  0  0  0  0  0  0
   38.5620   27.7470   43.5990 C   0  0  0  0  0  0  0  0  0  0  0  0
   39.8000   25.5040   43.6510 O   0  0  0  0  0  0  0  0  0  0  0  0
   39.9570   24.5460   42.6530 C   0  0  0  0  0  0  0  0  0  0  0  0
   38.7890   24.6050   41.8540 O   0  0  0  0  0  0  0  0  0  0  0  0
   37.3920   29.4490   43.2830 H   0  0  0  0  0  0  0  0  0  0  0  0
   36.7980   26.2420   40.5060 H   0  0  0  0  0  0  0  0  0  0  0  0
   39.0540   28.1640   44.4610 H   0  0  0  0  0  0  0  0  0  0  0  0
   40.8850   24.6920   42.0680 H   0  0  0  0  0  0  0  0  0  0  0  0
   39.9390   23.5400   43.1300 H   0  0  0  0  0  0  0  0  0  0  0  0
   36.1490   29.5090   35.9560 O   0  0  0  0  0  0  0  0  0  0  0  0
   36.8820   28.5890   35.1870 C   0  0  0  0  0  0  0  0  0  0  0  0
   38.0980   28.2980   35.7590 F   0  0  0  0  0  0  0  0  0  0  0  0
   36.0550   27.4780   35.0510 F   0  0  0  0  0  0  0  0  0  0  0  0
   37.1260   29.1840   33.9480 F   0  0  0  0  0  0  0  0  0  0  0  0
  1  2  1  0  0  0  0
  1 20  1  0  0  0  0
  2  7  1  0  0  0  0
  3  8  1  0  0  0  0
  3  2  2  0  0  0  0
  4  3  1  0  0  0  0
  5  4  2  0  0  0  0
  5  6  1  0  0  0  0
  6  1  2  0  0  0  0
  8  9  1  0  0  0  0
  9 10  2  0  0  0  0
 11 10  1  0  0  0  0
 12 11  2  0  0  0  0
 13 12  1  0  0  0  0
 14 13  2  0  0  0  0
 15 14  1  0  0  0  0
 16 14  1  0  0  0  0
 16 18  2  0  0  0  0
 17 16  1  0  0  0  0
 18 19  1  0  0  0  0
 19 12  1  0  0  0  0
 19  8  2  0  0  0  0
 20 22  1  0  0  0  0
 21 30  1  0  0  0  0
 21 26  1  0  0  0  0
 22 21  2  0  0  0  0
 23 22  1  0  0  0  0
 23 24  2  0  0  0  0
 24 25  1  0  0  0  0
 25 26  2  0  0  0  0
 25 27  1  0  0  0  0
 26 32  1  0  0  0  0
 28 34  1  0  0  0  0
 28 27  1  0  0  0  0
 29 24  1  0  0  0  0
 29 28  1  0  0  0  0
 31 23  1  0  0  0  0
 33 28  1  0  0  0  0
 35  5  1  0  0  0  0
 36 37  1  0  0  0  0
 36 35  1  0  0  0  0
 38 36  1  0  0  0  0
 39 36  1  0  0  0  0
M  END
>  <minimizedAffinity>
-6.41450357

$$$$

 OpenBabel03242515413D

 39 43  0  0  0  0  0  0  0  0999 V2000
   36.2160   29.3990   37.1680 C   0  0  0  0  0  0  0  0  0  0  0  0
   36.6840   28.6420   38.2100 C   0  0  0  0  0  0  0  0  0  0  0  0
   35.8100   27.6730   38.7620 C   0  0  0  0  0  0  0  0  0  0  0  0
   34.5740   27.5870   38.1980 N   0  0  0  0  0  0  0  0  0  0  0  0
   34.1570   28.3380   37.1900 C   0  0  0  0  0  0  0  0  0  0  0  0
   34.9960   29.2300   36.6980 N   0  0  0  0  0  0  0  0  0  0  0  0
   37.6700   28.7920   38.5750 H   0  0  0  0  0  0  0  0  0  0  0  0
   36.4020   26.9280   39.8520 C   0  0  0  0  0  0  0  0  0  0  0  0
   36.5620   25.5870   39.8100 N   0  0  0  0  0  0  0  0  0  0  0  0
   37.1020   24.8670   40.7930 C   0  0  0  0  0  3  0  0  0  0  0  0
   37.5450   25.4090   41.9410 N   0  0  0  0  0  0  0  0  0  0  0  0
   37.4290   26.7320   42.0760 C   0  0  0  0  0  0  0  0  0  0  0  0
   37.8680   27.3320   43.2340 C   0  0  0  0  0  3  0  0  0  0  0  0
   37.7660   28.6960   43.4160 C   0  0  0  0  0  0  0  0  0  0  0  0
   38.1360   29.0780   44.3570 H   0  0  0  0  0  0  0  0  0  0  0  0
   37.1970   29.4440   42.3780 C   0  0  0  0  0  0  0  0  0  0  0  0
   37.1270   30.5030   42.5390 H   0  0  0  0  0  0  0  0  0  0  0  0
   36.7750   28.7940   41.2430 C   0  0  0  0  0  3  0  0  0  0  0  0
   36.8660   27.4390   41.0390 C   0  0  0  0  0  0  0  0  0  0  0  0
   37.3810   30.6250   36.4990 S   0  0  0  0  0  0  0  0  0  0  0  0
   37.1130   32.1760   38.6990 C   0  0  0  0  0  0  0  0  0  0  0  0
   38.0530   31.6290   37.8270 C   0  0  0  0  0  0  0  0  0  0  0  0
   39.3840   31.8640   38.0050 C   0  0  0  0  0  0  0  0  0  0  0  0
   39.8450   32.6480   39.0470 C   0  0  0  0  0  0  0  0  0  0  0  0
   38.8930   33.2010   39.9270 C   0  0  0  0  0  0  0  0  0  0  0  0
   37.5290   32.9720   39.7630 C   0  0  0  0  0  0  0  0  0  0  0  0
   39.6170   33.9450   40.8840 O   0  0  0  0  0  0  0  0  0  0  0  0
   40.9060   34.1070   40.3840 C   0  0  0  0  0  0  0  0  0  0  0  0
   41.1170   33.0510   39.4650 O   0  0  0  0  0  0  0  0  0  0  0  0
   36.0450   32.0370   38.6260 H   0  0  0  0  0  0  0  0  0  0  0  0
   40.0700   31.4140   37.3010 H   0  0  0  0  0  0  0  0  0  0  0  0
   36.8230   33.4060   40.4490 H   0  0  0  0  0  0  0  0  0  0  0  0
   41.0630   35.1060   39.9330 H   0  0  0  0  0  0  0  0  0  0  0  0
   41.6270   33.9260   41.2140 H   0  0  0  0  0  0  0  0  0  0  0  0
   32.9180   28.2390   36.6370 O   0  0  0  0  0  0  0  0  0  0  0  0
   31.9350   29.2040   36.9180 C   0  0  0  0  0  0  0  0  0  0  0  0
   32.1040   30.3400   36.1620 F   0  0  0  0  0  0  0  0  0  0  0  0
   30.7170   28.5680   36.6960 F   0  0  0  0  0  0  0  0  0  0  0  0
   32.0750   29.5610   38.2600 F   0  0  0  0  0  0  0  0  0  0  0  0
  1  2  1  0  0  0  0
  2  7  1  0  0  0  0
  2  3  2  0  0  0  0
  3  8  1  0  0  0  0
  4  3  1  0  0  0  0
  5  4  2  0  0  0  0
  6  1  2  0  0  0  0
  6  5  1  0  0  0  0
  8 19  1  0  0  0  0
  9  8  2  0  0  0  0
  9 10  1  0  0  0  0
 10 11  2  0  0  0  0
 11 12  1  0  0  0  0
 12 13  1  0  0  0  0
 13 14  2  0  0  0  0
 14 15  1  0  0  0  0
 16 17  1  0  0  0  0
 16 14  1  0  0  0  0
 18 16  2  0  0  0  0
 19 18  1  0  0  0  0
 19 12  2  0  0  0  0
 20  1  1  0  0  0  0
 20 22  1  0  0  0  0
 21 26  1  0  0  0  0
 22 23  1  0  0  0  0
 22 21  2  0  0  0  0
 23 24  2  0  0  0  0
 24 29  1  0  0  0  0
 24 25  1  0  0  0  0
 25 27  1  0  0  0  0
 26 25  2  0  0  0  0
 26 32  1  0  0  0  0
 28 27  1  0  0  0  0
 28 34  1  0  0  0  0
 29 28  1  0  0  0  0
 30 21  1  0  0  0  0
 31 23  1  0  0  0  0
 33 28  1  0  0  0  0
 35 36  1  0  0  0  0
 35  5  1  0  0  0  0
 36 39  1  0  0  0  0
 37 36  1  0  0  0  0
 38 36  1  0  0  0  0
M  END
>  <minimizedAffinity>
-6.30482578

$$$$

 OpenBabel03242515413D

 39 43  0  0  0  0  0  0  0  0999 V2000
   35.0240   28.0560   36.8710 C   0  0  0  0  0  0  0  0  0  0  0  0
   35.2870   27.3290   38.0020 C   0  0  0  0  0  0  0  0  0  0  0  0
   36.4990   27.5970   38.6880 C   0  0  0  0  0  0  0  0  0  0  0  0
   37.2930   28.5620   38.1490 N   0  0  0  0  0  0  0  0  0  0  0  0
   37.0040   29.2440   37.0520 C   0  0  0  0  0  0  0  0  0  0  0  0
   35.8680   28.9710   36.4380 N   0  0  0  0  0  0  0  0  0  0  0  0
   34.5950   26.5960   38.3360 H   0  0  0  0  0  0  0  0  0  0  0  0
   36.6770   26.7780   39.8670 C   0  0  0  0  0  0  0  0  0  0  0  0
   36.5790   25.4310   39.8360 N   0  0  0  0  0  0  0  0  0  0  0  0
   36.7360   24.6440   40.9000 C   0  0  0  0  0  3  0  0  0  0  0  0
   37.0100   25.1180   42.1280 N   0  0  0  0  0  0  0  0  0  0  0  0
   37.1260   26.4420   42.2600 C   0  0  0  0  0  0  0  0  0  0  0  0
   37.4050   26.9740   43.4990 C   0  0  0  0  0  3  0  0  0  0  0  0
   37.5320   28.3360   43.6790 C   0  0  0  0  0  0  0  0  0  0  0  0
   37.7510   28.6630   44.6860 H   0  0  0  0  0  0  0  0  0  0  0  0
   37.3640   29.1540   42.5560 C   0  0  0  0  0  0  0  0  0  0  0  0
   37.4670   30.2110   42.7170 H   0  0  0  0  0  0  0  0  0  0  0  0
   37.0870   28.5710   41.3430 C   0  0  0  0  0  3  0  0  0  0  0  0
   36.9570   27.2190   41.1370 C   0  0  0  0  0  0  0  0  0  0  0  0
   33.4560   27.6710   36.0340 S   0  0  0  0  0  0  0  0  0  0  0  0
   32.1920   29.8040   34.9550 C   0  0  0  0  0  0  0  0  0  0  0  0
   32.3420   29.0750   36.1320 C   0  0  0  0  0  0  0  0  0  0  0  0
   31.6690   29.4350   37.2620 C   0  0  0  0  0  0  0  0  0  0  0  0
   30.8230   30.5300   37.2800 C   0  0  0  0  0  0  0  0  0  0  0  0
   30.6740   31.2670   36.0880 C   0  0  0  0  0  0  0  0  0  0  0  0
   31.3510   30.9140   34.9230 C   0  0  0  0  0  0  0  0  0  0  0  0
   29.7700   32.3130   36.3750 O   0  0  0  0  0  0  0  0  0  0  0  0
   29.6650   32.3930   37.7610 C   0  0  0  0  0  0  0  0  0  0  0  0
   30.0250   31.1200   38.2650 O   0  0  0  0  0  0  0  0  0  0  0  0
   32.6880   29.5840   34.0210 H   0  0  0  0  0  0  0  0  0  0  0  0
   31.8210   28.8340   38.1480 H   0  0  0  0  0  0  0  0  0  0  0  0
   31.2190   31.4940   34.0270 H   0  0  0  0  0  0  0  0  0  0  0  0
   30.2770   33.2120   38.1860 H   0  0  0  0  0  0  0  0  0  0  0  0
   28.5900   32.5220   38.0220 H   0  0  0  0  0  0  0  0  0  0  0  0
   37.8100   30.2070   36.5270 O   0  0  0  0  0  0  0  0  0  0  0  0
   37.8160   31.5030   37.0700 C   0  0  0  0  0  0  0  0  0  0  0  0
   39.0320   31.8170   37.6310 F   0  0  0  0  0  0  0  0  0  0  0  0
   37.4560   32.3460   36.0220 F   0  0  0  0  0  0  0  0  0  0  0  0
   36.8580   31.5330   38.0860 F   0  0  0  0  0  0  0  0  0  0  0  0
  1  2  1  0  0  0  0
  2  7  1  0  0  0  0
  2  3  2  0  0  0  0
  3  8  1  0  0  0  0
  4  3  1  0  0  0  0
  5  4  2  0  0  0  0
  6  1  2  0  0  0  0
  6  5  1  0  0  0  0
  8 19  1  0  0  0  0
  9  8  2  0  0  0  0
  9 10  1  0  0  0  0
 10 11  2  0  0  0  0
 11 12  1  0  0  0  0
 12 13  1  0  0  0  0
 13 14  2  0  0  0  0
 14 15  1  0  0  0  0
 16 17  1  0  0  0  0
 16 14  1  0  0  0  0
 18 16  2  0  0  0  0
 19 18  1  0  0  0  0
 19 12  2  0  0  0  0
 20 22  1  0  0  0  0
 20  1  1  0  0  0  0
 21 22  1  0  0  0  0
 22 23  2  0  0  0  0
 23 24  1  0  0  0  0
 23 31  1  0  0  0  0
 24 29  1  0  0  0  0
 25 27  1  0  0  0  0
 25 24  2  0  0  0  0
 26 21  2  0  0  0  0
 26 25  1  0  0  0  0
 27 28  1  0  0  0  0
 28 34  1  0  0  0  0
 28 33  1  0  0  0  0
 28 29  1  0  0  0  0
 30 21  1  0  0  0  0
 32 26  1  0  0  0  0
 35  5  1  0  0  0  0
 35 36  1  0  0  0  0
 36 37  1  0  0  0  0
 36 39  1  0  0  0  0
 38 36  1  0  0  0  0
M  END
>  <minimizedAffinity>
-6.28069925

$$$$

 OpenBabel03242515413D

 39 43  0  0  0  0  0  0  0  0999 V2000
   40.7160   30.5140   40.7160 C   0  0  0  0  0  0  0  0  0  0  0  0
   41.5500   30.2700   39.6560 C   0  0  0  0  0  0  0  0  0  0  0  0
   41.4070   31.0850   38.5050 C   0  0  0  0  0  0  0  0  0  0  0  0
   40.4430   32.0440   38.5650 N   0  0  0  0  0  0  0  0  0  0  0  0
   39.6550   32.2500   39.6090 C   0  0  0  0  0  0  0  0  0  0  0  0
   39.8150   31.4740   40.6640 N   0  0  0  0  0  0  0  0  0  0  0  0
   42.2720   29.4920   39.7160 H   0  0  0  0  0  0  0  0  0  0  0  0
   42.3350   30.7460   37.4490 C   0  0  0  0  0  0  0  0  0  0  0  0
   42.1130   29.7280   36.5880 N   0  0  0  0  0  0  0  0  0  0  0  0
   42.9440   29.3860   35.6040 C   0  0  0  0  0  3  0  0  0  0  0  0
   44.1020   30.0250   35.3670 N   0  0  0  0  0  0  0  0  0  0  0  0
   44.4110   31.0480   36.1670 C   0  0  0  0  0  0  0  0  0  0  0  0
   45.5870   31.7330   35.9640 C   0  0  0  0  0  3  0  0  0  0  0  0
   45.9450   32.7950   36.7690 C   0  0  0  0  0  0  0  0  0  0  0  0
   46.8860   33.2720   36.5340 H   0  0  0  0  0  0  0  0  0  0  0  0
   45.0660   33.1470   37.8000 C   0  0  0  0  0  0  0  0  0  0  0  0
   45.3620   33.9760   38.4150 H   0  0  0  0  0  0  0  0  0  0  0  0
   43.9040   32.4300   37.9590 C   0  0  0  0  0  3  0  0  0  0  0  0
   43.5260   31.3700   37.1720 C   0  0  0  0  0  0  0  0  0  0  0  0
   40.9460   29.4390   42.1640 S   0  0  0  0  0  0  0  0  0  0  0  0
   38.6270   28.5390   43.2240 C   0  0  0  0  0  0  0  0  0  0  0  0
   39.6030   28.2520   42.2720 C   0  0  0  0  0  0  0  0  0  0  0  0
   39.5090   27.1360   41.4950 C   0  0  0  0  0  0  0  0  0  0  0  0
   38.4500   26.2550   41.6240 C   0  0  0  0  0  0  0  0  0  0  0  0
   37.4640   26.5460   42.5880 C   0  0  0  0  0  0  0  0  0  0  0  0
   37.5420   27.6820   43.3900 C   0  0  0  0  0  0  0  0  0  0  0  0
   36.5130   25.5050   42.5140 O   0  0  0  0  0  0  0  0  0  0  0  0
   37.0950   24.4710   41.7850 C   0  0  0  0  0  0  0  0  0  0  0  0
   38.1010   25.0630   40.9820 O   0  0  0  0  0  0  0  0  0  0  0  0
   38.6290   29.4000   43.8760 H   0  0  0  0  0  0  0  0  0  0  0  0
   40.2930   26.9620   40.7720 H   0  0  0  0  0  0  0  0  0  0  0  0
   36.7750   27.8800   44.1180 H   0  0  0  0  0  0  0  0  0  0  0  0
   37.4830   23.6620   42.4330 H   0  0  0  0  0  0  0  0  0  0  0  0
   36.3360   24.0800   41.0690 H   0  0  0  0  0  0  0  0  0  0  0  0
   38.6950   33.2140   39.6520 O   0  0  0  0  0  0  0  0  0  0  0  0
   37.3540   32.8940   39.3770 C   0  0  0  0  0  0  0  0  0  0  0  0
   36.8350   32.0240   40.3070 F   0  0  0  0  0  0  0  0  0  0  0  0
   36.6850   34.1140   39.3280 F   0  0  0  0  0  0  0  0  0  0  0  0
   37.3250   32.2580   38.1350 F   0  0  0  0  0  0  0  0  0  0  0  0
  1 20  1  0  0  0  0
  2  7  1  0  0  0  0
  2  1  2  0  0  0  0
  3  4  2  0  0  0  0
  3  2  1  0  0  0  0
  4  5  1  0  0  0  0
  5 35  1  0  0  0  0
  5  6  2  0  0  0  0
  6  1  1  0  0  0  0
  8  3  1  0  0  0  0
  9  8  2  0  0  0  0
 10  9  1  0  0  0  0
 11 10  2  0  0  0  0
 11 12  1  0  0  0  0
 12 19  1  0  0  0  0
 13 12  2  0  0  0  0
 13 14  1  0  0  0  0
 14 16  2  0  0  0  0
 15 14  1  0  0  0  0
 16 18  1  0  0  0  0
 16 17  1  0  0  0  0
 19  8  1  0  0  0  0
 19 18  2  0  0  0  0
 20 22  1  0  0  0  0
 21 26  1  0  0  0  0
 21 30  1  0  0  0  0
 22 21  2  0  0  0  0
 23 24  2  0  0  0  0
 23 22  1  0  0  0  0
 24 25  1  0  0  0  0
 25 26  2  0  0  0  0
 26 32  1  0  0  0  0
 27 25  1  0  0  0  0
 28 33  1  0  0  0  0
 28 27  1  0  0  0  0
 29 24  1  0  0  0  0
 29 28  1  0  0  0  0
 31 23  1  0  0  0  0
 34 28  1  0  0  0  0
 36 35  1  0  0  0  0
 36 37  1  0  0  0  0
 38 36  1  0  0  0  0
 39 36  1  0  0  0  0
M  END
>  <minimizedAffinity>
-6.27528238

$$$$

 OpenBabel03242515413D

 39 43  0  0  0  0  0  0  0  0999 V2000
   34.3550   28.6740   35.6450 C   0  0  0  0  0  0  0  0  0  0  0  0
   35.0520   28.6140   36.8230 C   0  0  0  0  0  0  0  0  0  0  0  0
   36.3810   29.1080   36.8270 C   0  0  0  0  0  0  0  0  0  0  0  0
   36.8420   29.5980   35.6440 N   0  0  0  0  0  0  0  0  0  0  0  0
   36.1370   29.6390   34.5240 C   0  0  0  0  0  0  0  0  0  0  0  0
   34.9030   29.1730   34.5550 N   0  0  0  0  0  0  0  0  0  0  0  0
   34.5930   28.2090   37.6920 H   0  0  0  0  0  0  0  0  0  0  0  0
   37.0240   29.0010   38.1180 C   0  0  0  0  0  0  0  0  0  0  0  0
   37.4250   27.8170   38.6320 N   0  0  0  0  0  0  0  0  0  0  0  0
   38.0200   27.6790   39.8170 C   0  0  0  0  0  3  0  0  0  0  0  0
   38.2820   28.7160   40.6310 N   0  0  0  0  0  0  0  0  0  0  0  0
   37.9210   29.9300   40.2100 C   0  0  0  0  0  0  0  0  0  0  0  0
   38.1680   31.0230   41.0090 C   0  0  0  0  0  3  0  0  0  0  0  0
   37.8090   32.2950   40.6120 C   0  0  0  0  0  0  0  0  0  0  0  0
   38.0420   33.0920   41.3050 H   0  0  0  0  0  0  0  0  0  0  0  0
   37.1850   32.4310   39.3660 C   0  0  0  0  0  0  0  0  0  0  0  0
   36.9150   33.4280   39.0760 H   0  0  0  0  0  0  0  0  0  0  0  0
   36.9630   31.3060   38.6080 C   0  0  0  0  0  3  0  0  0  0  0  0
   37.3100   30.0310   38.9800 C   0  0  0  0  0  0  0  0  0  0  0  0
   32.6560   28.0280   35.7010 S   0  0  0  0  0  0  0  0  0  0  0  0
   31.4600   30.4390   35.4310 C   0  0  0  0  0  0  0  0  0  0  0  0
   31.5250   29.3110   36.2470 C   0  0  0  0  0  0  0  0  0  0  0  0
   30.7650   29.2260   37.3760 C   0  0  0  0  0  0  0  0  0  0  0  0
   29.9110   30.2480   37.7490 C   0  0  0  0  0  0  0  0  0  0  0  0
   29.8470   31.3880   36.9230 C   0  0  0  0  0  0  0  0  0  0  0  0
   30.6140   31.4930   35.7650 C   0  0  0  0  0  0  0  0  0  0  0  0
   28.9140   32.2640   37.5210 O   0  0  0  0  0  0  0  0  0  0  0  0
   28.7030   31.8100   38.8200 C   0  0  0  0  0  0  0  0  0  0  0  0
   29.0350   30.4330   38.8230 O   0  0  0  0  0  0  0  0  0  0  0  0
   32.0270   30.5820   34.5230 H   0  0  0  0  0  0  0  0  0  0  0  0
   30.8540   28.3290   37.9720 H   0  0  0  0  0  0  0  0  0  0  0  0
   30.5460   32.3750   35.1520 H   0  0  0  0  0  0  0  0  0  0  0  0
   29.2740   32.3910   39.5700 H   0  0  0  0  0  0  0  0  0  0  0  0
   27.6100   31.8510   39.0300 H   0  0  0  0  0  0  0  0  0  0  0  0
   36.6140   30.1340   33.3490 O   0  0  0  0  0  0  0  0  0  0  0  0
   36.6100   31.5180   33.1070 C   0  0  0  0  0  0  0  0  0  0  0  0
   37.4360   31.8570   32.0610 F   0  0  0  0  0  0  0  0  0  0  0  0
   35.2760   31.8520   32.8900 F   0  0  0  0  0  0  0  0  0  0  0  0
   37.1010   32.1420   34.2560 F   0  0  0  0  0  0  0  0  0  0  0  0
  1 20  1  0  0  0  0
  1  2  1  0  0  0  0
  2  3  2  0  0  0  0
  2  7  1  0  0  0  0
  3  8  1  0  0  0  0
  4  3  1  0  0  0  0
  5  6  1  0  0  0  0
  5  4  2  0  0  0  0
  6  1  2  0  0  0  0
  8  9  2  0  0  0  0
  8 19  1  0  0  0  0
  9 10  1  0  0  0  0
 10 11  2  0  0  0  0
 12 11  1  0  0  0  0
 12 13  1  0  0  0  0
 14 13  2  0  0  0  0
 14 15  1  0  0  0  0
 16 14  1  0  0  0  0
 17 16  1  0  0  0  0
 18 19  1  0  0  0  0
 18 16  2  0  0  0  0
 19 12  2  0  0  0  0
 20 22  1  0  0  0  0
 21 26  2  0  0  0  0
 21 22  1  0  0  0  0
 22 23  2  0  0  0  0
 23 24  1  0  0  0  0
 23 31  1  0  0  0  0
 24 29  1  0  0  0  0
 25 27  1  0  0  0  0
 25 24  2  0  0  0  0
 26 25  1  0  0  0  0
 27 28  1  0  0  0  0
 28 29  1  0  0  0  0
 28 34  1  0  0  0  0
 28 33  1  0  0  0  0
 30 21  1  0  0  0  0
 32 26  1  0  0  0  0
 35  5  1  0  0  0  0
 36 35  1  0  0  0  0
 36 39  1  0  0  0  0
 37 36  1  0  0  0  0
 38 36  1  0  0  0  0
M  END
>  <minimizedAffinity>
-6.21719933

$$$$

 OpenBabel03242515413D

 39 43  0  0  0  0  0  0  0  0999 V2000
   38.1120   31.2650   38.8460 C   0  0  0  0  0  0  0  0  0  0  0  0
   38.0270   30.4510   39.9450 C   0  0  0  0  0  0  0  0  0  0  0  0
   37.2400   29.2780   39.8350 C   0  0  0  0  0  0  0  0  0  0  0  0
   36.6360   29.0710   38.6330 N   0  0  0  0  0  0  0  0  0  0  0  0
   36.7410   29.8820   37.5920 C   0  0  0  0  0  0  0  0  0  0  0  0
   37.4820   30.9650   37.7280 N   0  0  0  0  0  0  0  0  0  0  0  0
   38.5420   30.7090   40.8380 H   0  0  0  0  0  0  0  0  0  0  0  0
   37.2200   28.4890   41.0480 C   0  0  0  0  0  0  0  0  0  0  0  0
   37.3340   29.0450   42.2750 N   0  0  0  0  0  0  0  0  0  0  0  0
   37.3210   28.3520   43.4130 C   0  0  0  0  0  3  0  0  0  0  0  0
   37.1940   27.0150   43.4560 N   0  0  0  0  0  0  0  0  0  0  0  0
   37.0750   26.3740   42.2910 C   0  0  0  0  0  0  0  0  0  0  0  0
   36.9430   25.0040   42.2850 C   0  0  0  0  0  3  0  0  0  0  0  0
   36.8190   24.3030   41.1030 C   0  0  0  0  0  0  0  0  0  0  0  0
   36.7200   23.2310   41.1960 H   0  0  0  0  0  0  0  0  0  0  0  0
   36.8340   25.0390   39.9120 C   0  0  0  0  0  0  0  0  0  0  0  0
   36.7360   24.4750   39.0040 H   0  0  0  0  0  0  0  0  0  0  0  0
   36.9680   26.4050   39.9750 C   0  0  0  0  0  3  0  0  0  0  0  0
   37.0930   27.1250   41.1380 C   0  0  0  0  0  0  0  0  0  0  0  0
   39.1360   32.7540   39.0450 S   0  0  0  0  0  0  0  0  0  0  0  0
   40.9260   31.2780   37.6560 C   0  0  0  0  0  0  0  0  0  0  0  0
   40.7570   32.4910   38.3190 C   0  0  0  0  0  0  0  0  0  0  0  0
   41.7780   33.3920   38.3900 C   0  0  0  0  0  0  0  0  0  0  0  0
   43.0090   33.1340   37.8120 C   0  0  0  0  0  0  0  0  0  0  0  0
   43.1780   31.9060   37.1430 C   0  0  0  0  0  0  0  0  0  0  0  0
   42.1460   30.9740   37.0580 C   0  0  0  0  0  0  0  0  0  0  0  0
   44.5020   31.8970   36.6520 O   0  0  0  0  0  0  0  0  0  0  0  0
   45.1860   32.9200   37.3040 C   0  0  0  0  0  0  0  0  0  0  0  0
   44.2060   33.8510   37.7280 O   0  0  0  0  0  0  0  0  0  0  0  0
   40.1690   30.5140   37.5550 H   0  0  0  0  0  0  0  0  0  0  0  0
   41.5930   34.3180   38.9160 H   0  0  0  0  0  0  0  0  0  0  0  0
   42.3020   30.0430   36.5400 H   0  0  0  0  0  0  0  0  0  0  0  0
   45.8120   32.5470   38.1370 H   0  0  0  0  0  0  0  0  0  0  0  0
   45.8030   33.4610   36.5510 H   0  0  0  0  0  0  0  0  0  0  0  0
   36.1300   29.6600   36.3960 O   0  0  0  0  0  0  0  0  0  0  0  0
   36.7110   28.7990   35.4500 C   0  0  0  0  0  0  0  0  0  0  0  0
   38.0130   28.4910   35.7710 F   0  0  0  0  0  0  0  0  0  0  0  0
   35.8770   27.6850   35.4010 F   0  0  0  0  0  0  0  0  0  0  0  0
   36.7210   29.4710   34.2270 F   0  0  0  0  0  0  0  0  0  0  0  0
  1 20  1  0  0  0  0
  1  2  1  0  0  0  0
  2  7  1  0  0  0  0
  3  2  2  0  0  0  0
  3  8  1  0  0  0  0
  4  3  1  0  0  0  0
  5  6  1  0  0  0  0
  5  4  2  0  0  0  0
  6  1  2  0  0  0  0
  8 19  2  0  0  0  0
  8  9  1  0  0  0  0
  9 10  2  0  0  0  0
 10 11  1  0  0  0  0
 12 11  2  0  0  0  0
 13 12  1  0  0  0  0
 14 15  1  0  0  0  0
 14 13  2  0  0  0  0
 16 18  2  0  0  0  0
 16 14  1  0  0  0  0
 17 16  1  0  0  0  0
 18 19  1  0  0  0  0
 19 12  1  0  0  0  0
 21 22  1  0  0  0  0
 22 23  2  0  0  0  0
 22 20  1  0  0  0  0
 23 31  1  0  0  0  0
 24 23  1  0  0  0  0
 25 24  2  0  0  0  0
 26 25  1  0  0  0  0
 26 21  2  0  0  0  0
 27 25  1  0  0  0  0
 27 28  1  0  0  0  0
 28 29  1  0  0  0  0
 28 33  1  0  0  0  0
 29 24  1  0  0  0  0
 30 21  1  0  0  0  0
 32 26  1  0  0  0  0
 34 28  1  0  0  0  0
 35  5  1  0  0  0  0
 36 37  1  0  0  0  0
 36 35  1  0  0  0  0
 38 36  1  0  0  0  0
 39 36  1  0  0  0  0
M  END
>  <minimizedAffinity>
-6.20149326

$$$$
