
 OpenBabel03252506093D

 33 36  0  0  0  0  0  0  0  0999 V2000
   45.2780   33.2260   41.1330 F   0  0  0  0  0  0  0  0  0  0  0  0
   46.4120   33.9130   40.9570 C   0  0  0  0  0  0  0  0  0  0  0  0
   46.8710   34.7450   41.9560 C   0  0  0  0  0  0  0  0  0  0  0  0
   48.0330   35.4930   41.8560 C   0  0  0  0  0  0  0  0  0  0  0  0
   48.7900   35.4100   40.6890 C   0  0  0  0  0  0  0  0  0  0  0  0
   48.2980   34.5650   39.7070 C   0  0  0  0  0  0  0  0  0  0  0  0
   47.1490   33.8180   39.7910 C   0  0  0  0  0  0  0  0  0  0  0  0
   48.3350   36.1270   42.6800 H   0  0  0  0  0  0  0  0  0  0  0  0
   49.7040   35.9780   40.5750 H   0  0  0  0  0  0  0  0  0  0  0  0
   48.9360   34.5380   38.8180 H   0  0  0  0  0  0  0  0  0  0  0  0
   46.7120   32.9440   38.7020 C   0  0  0  0  0  0  0  0  0  0  0  0
   45.8000   33.5170   37.8700 N   0  0  0  0  0  0  0  0  0  0  0  0
   45.3130   32.8110   36.8160 C   0  0  0  0  0  3  0  0  0  0  0  0
   45.7350   31.5360   36.5910 N   0  0  0  0  0  0  0  0  0  0  0  0
   46.6320   30.9410   37.3920 C   0  0  0  0  0  0  0  0  0  0  0  0
   47.0850   29.6510   37.1910 C   0  0  0  0  0  3  0  0  0  0  0  0
   48.0160   29.0720   38.0360 C   0  0  0  0  0  0  0  0  0  0  0  0
   48.4030   28.0840   37.9340 H   0  0  0  0  0  0  0  0  0  0  0  0
   48.4730   29.8410   39.0900 C   0  0  0  0  0  0  0  0  0  0  0  0
   49.2100   29.4120   39.7770 H   0  0  0  0  0  0  0  0  0  0  0  0
   48.0650   31.1480   39.3590 C   0  0  0  0  0  3  0  0  0  0  0  0
   47.1400   31.6350   38.4660 C   0  0  0  0  0  0  0  0  0  0  0  0
   45.4920   33.9990   45.2980 C   0  0  0  0  0  0  0  0  0  0  0  0
   44.6640   35.1150   45.5180 C   0  0  0  0  0  0  0  0  0  0  0  0
   44.5820   36.1220   44.5200 C   0  0  0  0  0  0  0  0  0  0  0  0
   45.3260   35.9290   43.3940 N   0  0  0  0  0  0  0  0  0  0  0  0
   46.1020   34.8650   43.2100 C   0  0  0  0  0  0  0  0  0  0  0  0
   46.1800   33.9160   44.1540 N   0  0  0  0  0  0  0  0  0  0  0  0
   44.0990   35.2030   46.4360 H   0  0  0  0  0  0  0  0  0  0  0  0
   43.9630   36.9810   44.6580 H   0  0  0  0  0  0  0  0  0  0  0  0
   45.5740   33.0030   46.2880 N   0  0  0  0  0  0  0  0  0  0  0  0
   46.4080   32.4470   46.5940 H   0  0  0  0  0  0  0  0  0  0  0  0
   44.8240   32.6250   46.9070 H   0  0  0  0  0  0  0  0  0  0  0  0
  2  1  1  0  0  0  0
  2  3  1  0  0  0  0
  3 27  1  0  0  0  0
  4  3  2  0  0  0  0
  4  8  1  0  0  0  0
  5  4  1  0  0  0  0
  6  7  1  0  0  0  0
  6  5  2  0  0  0  0
  7  2  2  0  0  0  0
  9  5  1  0  0  0  0
 10  6  1  0  0  0  0
 11  7  1  0  0  0  0
 12 11  2  0  0  0  0
 13 12  1  0  0  0  0
 14 13  2  0  0  0  0
 14 15  1  0  0  0  0
 15 22  1  0  0  0  0
 16 15  2  0  0  0  0
 16 17  1  0  0  0  0
 17 19  2  0  0  0  0
 18 17  1  0  0  0  0
 19 21  1  0  0  0  0
 19 20  1  0  0  0  0
 22 11  1  0  0  0  0
 22 21  2  0  0  0  0
 23 24  1  0  0  0  0
 23 31  1  0  0  0  0
 24 29  1  0  0  0  0
 25 30  1  0  0  0  0
 25 24  2  0  0  0  0
 26 25  1  0  0  0  0
 27 26  2  0  0  0  0
 27 28  1  0  0  0  0
 28 23  2  0  0  0  0
 31 32  1  0  0  0  0
 31 33  1  0  0  0  0
M  END
>  <minimizedAffinity>
-6.01540184

>  <minimizedRMSD>
0.477106959

$$$$
