
 OpenBabel03252505073D

 46 50  0  0  1  0  0  0  0  0999 V2000
   44.5960   35.5930   44.6440 C   0  0  0  0  0  0  0  0  0  0  0  0
   45.2310   35.5810   43.3810 C   0  0  0  0  0  0  0  0  0  0  0  0
   46.2870   34.6530   43.1790 C   0  0  0  0  0  0  0  0  0  0  0  0
   46.6280   33.8330   44.2090 N   0  0  0  0  0  0  0  0  0  0  0  0
   46.0010   33.8730   45.3960 C   0  0  0  0  0  0  0  0  0  0  0  0
   44.9780   34.7570   45.6190 N   0  0  0  0  0  0  0  0  0  0  0  0
   43.8040   36.3140   44.7390 H   0  0  0  0  0  0  0  0  0  0  0  0
   44.9720   36.2220   42.5630 H   0  0  0  0  0  0  0  0  0  0  0  0
   46.4240   32.9600   46.4780 C   0  0  2  0  0  0  0  0  0  0  0  0
   46.9770   31.7400   45.7940 C   0  0  0  0  0  0  0  0  0  0  0  0
   46.0930   30.5540   45.8220 C   0  0  0  0  0  0  0  0  0  0  0  0
   45.8120   30.2900   47.2940 C   0  0  0  0  0  0  0  0  0  0  0  0
   45.0270   31.3590   47.8960 C   0  0  0  0  0  0  0  0  0  0  0  0
   45.3760   32.7310   47.4450 C   0  0  0  0  0  0  0  0  0  0  0  0
   47.2760   33.4970   46.9870 H   0  0  0  0  0  0  0  0  0  0  0  0
   47.2690   31.9370   44.7330 H   0  0  0  0  0  0  0  0  0  0  0  0
   47.9260   31.4620   46.2970 H   0  0  0  0  0  0  0  0  0  0  0  0
   45.1120   30.7400   45.3600 H   0  0  0  0  0  0  0  0  0  0  0  0
   46.6560   29.7020   45.4010 H   0  0  0  0  0  0  0  0  0  0  0  0
   45.1350   29.4000   47.2840 H   0  0  0  0  0  0  0  0  0  0  0  0
   46.7130   29.9810   47.8500 H   0  0  0  0  0  0  0  0  0  0  0  0
   44.2370   31.4480   48.5990 H   0  0  0  0  0  0  0  0  0  0  0  0
   44.6870   33.8580   47.9540 N   0  0  0  0  0  0  0  0  0  0  0  0
   45.1140   34.5270   48.6340 H   0  0  0  0  0  0  0  0  0  0  0  0
   43.7030   33.9880   47.6060 H   0  0  0  0  0  0  0  0  0  0  0  0
   46.9700   34.6160   41.8990 C   0  0  0  0  0  0  0  0  0  0  0  0
   48.0800   35.3740   41.7310 C   0  0  0  0  0  0  0  0  0  0  0  0
   48.6970   35.2850   40.4640 C   0  0  0  0  0  0  0  0  0  0  0  0
   48.1020   34.4460   39.5490 C   0  0  0  0  0  0  0  0  0  0  0  0
   46.9870   33.6850   39.7100 C   0  0  0  0  0  0  0  0  0  0  0  0
   46.4850   33.8470   40.9570 N   0  0  0  0  0  0  0  0  0  0  0  0
   48.4770   36.0020   42.4970 H   0  0  0  0  0  0  0  0  0  0  0  0
   49.5690   35.8640   40.2930 H   0  0  0  0  0  0  0  0  0  0  0  0
   48.6510   34.4450   38.6030 H   0  0  0  0  0  0  0  0  0  0  0  0
   46.5520   32.8780   38.5950 C   0  0  0  0  0  0  0  0  0  0  0  0
   47.4620   32.4010   37.7330 N   0  0  0  0  0  0  0  0  0  0  0  0
   47.1510   31.6470   36.6720 C   0  0  0  0  0  3  0  0  0  0  0  0
   45.8690   31.3040   36.3870 N   0  0  0  0  0  0  0  0  0  0  0  0
   44.8760   31.7470   37.2120 C   0  0  0  0  0  0  0  0  0  0  0  0
   43.5550   31.4310   36.9740 C   0  0  0  0  0  3  0  0  0  0  0  0
   42.5430   31.8730   37.8010 C   0  0  0  0  0  0  0  0  0  0  0  0
   41.5500   31.5610   37.5110 H   0  0  0  0  0  0  0  0  0  0  0  0
   42.9230   32.6580   38.8960 C   0  0  0  0  0  0  0  0  0  0  0  0
   42.1020   32.9840   39.5180 H   0  0  0  0  0  0  0  0  0  0  0  0
   44.2540   32.9460   39.0910 C   0  0  0  0  0  3  0  0  0  0  0  0
   45.2660   32.5150   38.2810 C   0  0  0  0  0  0  0  0  0  0  0  0
  1  7  1  0  0  0  0
  1  6  1  0  0  0  0
  2  1  2  0  0  0  0
  3  2  1  0  0  0  0
  3  4  2  0  0  0  0
  4  5  1  0  0  0  0
  5  6  2  0  0  0  0
  5  9  1  0  0  0  0
  8  2  1  0  0  0  0
  9 15  1  1  0  0  0
  9 14  1  0  0  0  0
 10 11  1  0  0  0  0
 10 17  1  0  0  0  0
 10  9  1  0  0  0  0
 11 12  1  0  0  0  0
 12 21  1  0  0  0  0
 12 13  1  0  0  0  0
 13 22  1  0  0  0  0
 14 13  2  0  0  0  0
 14 23  1  0  0  0  0
 16 10  1  0  0  0  0
 18 11  1  0  0  0  0
 19 11  1  0  0  0  0
 20 12  1  0  0  0  0
 23 24  1  0  0  0  0
 25 23  1  0  0  0  0
 26  3  1  0  0  0  0
 27 26  1  0  0  0  0
 27 32  1  0  0  0  0
 28 27  2  0  0  0  0
 29 30  2  0  0  0  0
 29 28  1  0  0  0  0
 30 31  1  0  0  0  0
 31 26  2  0  0  0  0
 33 28  1  0  0  0  0
 34 29  1  0  0  0  0
 35 30  1  0  0  0  0
 36 35  2  0  0  0  0
 37 36  1  0  0  0  0
 38 37  2  0  0  0  0
 38 39  1  0  0  0  0
 39 46  1  0  0  0  0
 40 39  2  0  0  0  0
 40 41  1  0  0  0  0
 41 43  2  0  0  0  0
 42 41  1  0  0  0  0
 43 45  1  0  0  0  0
 43 44  1  0  0  0  0
 46 35  1  0  0  0  0
 46 45  2  0  0  0  0
M  END
>  <minimizedAffinity>
-7.80918312

>  <minimizedRMSD>
0.427609384

$$$$
