
 OpenBabel03252507323D

 52 56  0  0  1  0  0  0  0  0999 V2000
   47.0730   32.4550   45.3190 C   0  0  0  0  0  0  0  0  0  0  0  0
   46.0070   33.1270   45.9010 C   0  0  0  0  0  0  0  0  0  0  0  0
   45.3730   34.1770   45.1950 C   0  0  0  0  0  0  0  0  0  0  0  0
   45.8850   34.4680   43.9320 N   0  0  0  0  0  0  0  0  0  0  0  0
   46.9290   33.7740   43.4260 C   0  0  0  0  0  0  0  0  0  0  0  0
   47.5060   32.7930   44.1040 N   0  0  0  0  0  0  0  0  0  0  0  0
   45.4910   33.1000   46.8350 H   0  0  0  0  0  0  0  0  0  0  0  0
   44.5570   34.7910   45.4710 H   0  0  0  0  0  0  0  0  0  0  0  0
   47.6710   31.3730   46.0730 C   0  0  2  0  0  0  0  0  0  0  0  0
   47.2620   29.9810   45.4970 C   0  0  0  0  0  0  0  0  0  0  0  0
   48.0250   28.9130   46.1990 C   0  0  0  0  0  0  0  0  0  0  0  0
   48.1180   29.0400   47.6810 C   0  0  0  0  0  0  0  0  0  0  0  0
   48.2690   30.3930   48.1570 C   0  0  0  0  0  0  0  0  0  0  0  0
   47.3180   31.4030   47.4790 C   0  0  2  0  0  0  0  0  0  0  0  0
   48.7740   31.3690   45.9000 H   0  0  0  0  0  0  0  0  0  0  0  0
   46.1750   29.8710   45.5100 H   0  0  0  0  0  0  0  0  0  0  0  0
   47.5670   30.0440   44.4320 H   0  0  0  0  0  0  0  0  0  0  0  0
   47.4760   27.9480   46.0000 H   0  0  0  0  0  0  0  0  0  0  0  0
   48.9770   28.7940   45.6480 H   0  0  0  0  0  0  0  0  0  0  0  0
   49.2130   28.6720   47.8240 H   0  0  0  0  0  0  0  0  0  0  0  0
   47.7080   28.2360   48.2960 H   0  0  0  0  0  0  0  0  0  0  0  0
   48.0160   30.4350   49.2570 H   0  0  0  0  0  0  0  0  0  0  0  0
   49.2690   30.8810   48.0950 H   0  0  0  0  0  0  0  0  0  0  0  0
   47.5520   32.3160   48.0270 H   0  0  0  0  0  0  0  0  0  0  0  0
   45.9400   30.9350   47.6580 N   0  0  0  0  0  0  0  0  0  0  0  0
   45.2140   30.5900   48.8100 C   0  0  0  0  0  0  0  0  0  0  0  0
   44.7230   31.4620   49.6140 O   0  0  0  0  0  0  0  0  0  0  0  0
   45.0540   29.1840   49.0130 N   0  0  0  0  0  0  0  0  0  0  0  0
   45.2890   30.7220   46.8120 H   0  0  0  0  0  0  0  0  0  0  0  0
   44.5190   28.6030   48.3140 H   0  0  0  0  0  0  0  0  0  0  0  0
   45.2390   28.3430   49.6050 H   0  0  0  0  0  0  0  0  0  0  0  0
   47.4340   34.1600   42.1120 C   0  0  0  0  0  0  0  0  0  0  0  0
   48.2700   35.2080   41.9320 C   0  0  0  0  0  0  0  0  0  0  0  0
   48.7580   35.5930   40.7000 C   0  0  0  0  0  0  0  0  0  0  0  0
   48.3410   34.8360   39.6270 C   0  0  0  0  0  0  0  0  0  0  0  0
   47.4800   33.7480   39.7750 C   0  0  0  0  0  0  0  0  0  0  0  0
   47.0810   33.4830   41.0330 N   0  0  0  0  0  0  0  0  0  0  0  0
   48.5840   35.7890   42.7860 H   0  0  0  0  0  0  0  0  0  0  0  0
   49.4250   36.4310   40.5560 H   0  0  0  0  0  0  0  0  0  0  0  0
   48.7210   35.1340   38.6660 H   0  0  0  0  0  0  0  0  0  0  0  0
   47.1490   33.0660   38.5380 C   0  0  0  0  0  0  0  0  0  0  0  0
   46.0790   33.4230   37.8070 N   0  0  0  0  0  0  0  0  0  0  0  0
   45.6810   32.8790   36.6730 C   0  0  0  0  0  3  0  0  0  0  0  0
   46.3720   31.8580   36.1360 N   0  0  0  0  0  0  0  0  0  0  0  0
   47.4820   31.4010   36.7840 C   0  0  0  0  0  0  0  0  0  0  0  0
   48.2050   30.3560   36.2540 C   0  0  0  0  0  3  0  0  0  0  0  0
   49.3460   29.8730   36.8980 C   0  0  0  0  0  0  0  0  0  0  0  0
   49.8240   29.0530   36.3830 H   0  0  0  0  0  0  0  0  0  0  0  0
   49.6960   30.5070   38.0960 C   0  0  0  0  0  0  0  0  0  0  0  0
   50.5890   30.0880   38.5500 H   0  0  0  0  0  0  0  0  0  0  0  0
   48.9330   31.5420   38.5680 C   0  0  0  0  0  3  0  0  0  0  0  0
   47.8230   32.0230   37.9550 C   0  0  0  0  0  0  0  0  0  0  0  0
  1  2  1  0  0  0  0
  1  9  1  0  0  0  0
  2  7  1  0  0  0  0
  3  8  1  0  0  0  0
  3  2  2  0  0  0  0
  4  3  1  0  0  0  0
  5  4  2  0  0  0  0
  5  6  1  0  0  0  0
  6  1  2  0  0  0  0
  9 15  1  6  0  0  0
  9 14  1  0  0  0  0
 10 16  1  0  0  0  0
 10  9  1  0  0  0  0
 10 11  1  0  0  0  0
 11 12  1  0  0  0  0
 12 20  1  0  0  0  0
 12 13  1  0  0  0  0
 12 21  1  0  0  0  0
 13 22  1  0  0  0  0
 14 25  1  0  0  0  0
 14 24  1  1  0  0  0
 14 13  1  0  0  0  0
 17 10  1  0  0  0  0
 18 11  1  0  0  0  0
 19 11  1  0  0  0  0
 23 13  1  0  0  0  0
 25 26  1  0  0  0  0
 26 28  1  0  0  0  0
 26 27  2  0  0  0  0
 28 31  1  0  0  0  0
 29 25  1  0  0  0  0
 30 28  1  0  0  0  0
 32  5  1  0  0  0  0
 33 32  1  0  0  0  0
 33 38  1  0  0  0  0
 34 33  2  0  0  0  0
 35 36  2  0  0  0  0
 35 34  1  0  0  0  0
 36 37  1  0  0  0  0
 37 32  2  0  0  0  0
 39 34  1  0  0  0  0
 40 35  1  0  0  0  0
 41 36  1  0  0  0  0
 42 41  2  0  0  0  0
 43 42  1  0  0  0  0
 44 43  2  0  0  0  0
 44 45  1  0  0  0  0
 45 52  1  0  0  0  0
 46 45  2  0  0  0  0
 46 47  1  0  0  0  0
 47 49  2  0  0  0  0
 48 47  1  0  0  0  0
 49 50  1  0  0  0  0
 49 51  1  0  0  0  0
 52 41  1  0  0  0  0
 52 51  2  0  0  0  0
M  END
>  <minimizedAffinity>
-6.55195999

>  <minimizedRMSD>
1.51329696

$$$$
