
 OpenBabel03252507383D

 41 46  0  0  0  0  0  0  0  0999 V2000
   45.7550   34.7060   43.7270 C   0  0  0  0  0  0  0  0  0  0  0  0
   46.4980   33.6600   44.3290 C   0  0  0  0  0  0  0  0  0  0  0  0
   46.2290   33.3950   45.6650 C   0  0  0  0  0  0  0  0  0  0  0  0
   45.2940   34.1310   46.3080 N   0  0  0  0  0  0  0  0  0  0  0  0
   44.6010   35.1240   45.7010 C   0  0  0  0  0  0  0  0  0  0  0  0
   44.8310   35.4050   44.4290 N   0  0  0  0  0  0  0  0  0  0  0  0
   47.2320   33.0800   43.8320 H   0  0  0  0  0  0  0  0  0  0  0  0
   43.8910   35.6120   46.3560 H   0  0  0  0  0  0  0  0  0  0  0  0
   47.2000   32.6360   47.7620 C   0  0  0  0  0  0  0  0  0  0  0  0
   46.9020   32.3480   46.4330 C   0  0  0  0  0  0  0  0  0  0  0  0
   47.2480   31.1260   45.9320 C   0  0  0  0  0  0  0  0  0  0  0  0
   47.8800   30.1620   46.6840 C   0  0  0  0  0  0  0  0  0  0  0  0
   48.3060   28.9130   46.4010 N   0  0  0  0  0  0  0  0  0  0  0  0
   48.8780   28.4040   47.5580 C   0  0  0  0  0  0  0  0  0  0  0  0
   48.7820   29.3600   48.5120 N   0  0  0  0  0  0  0  0  0  0  0  0
   48.1790   30.4310   47.9950 C   0  0  0  0  0  0  0  0  0  0  0  0
   47.8420   31.6560   48.5280 C   0  0  0  0  0  0  0  0  0  0  0  0
   46.9880   33.5550   48.2870 H   0  0  0  0  0  0  0  0  0  0  0  0
   46.9900   30.9510   44.8800 H   0  0  0  0  0  0  0  0  0  0  0  0
   48.1960   28.4620   45.4540 H   0  0  0  0  0  0  0  0  0  0  0  0
   49.3100   27.4220   47.6430 H   0  0  0  0  0  0  0  0  0  0  0  0
   48.1100   31.8160   49.5820 H   0  0  0  0  0  0  0  0  0  0  0  0
   46.0230   34.9770   42.3770 O   0  0  0  0  0  0  0  0  0  0  0  0
   45.0490   34.7150   41.4150 C   0  0  0  0  0  0  0  0  0  0  0  0
   45.6770   33.7410   40.7330 C   0  0  0  0  0  0  0  0  0  0  0  0
   44.3880   33.3310   39.3950 S   0  0  0  0  0  0  0  0  0  0  0  0
   43.2460   34.6470   40.1200 C   0  0  0  0  0  0  0  0  0  0  0  0
   43.8490   35.0230   40.9530 N   0  0  0  0  0  0  0  0  0  0  0  0
   46.5690   32.9410   40.4380 H   0  0  0  0  0  0  0  0  0  0  0  0
   41.9430   34.7340   39.3670 C   0  0  0  0  0  0  0  0  0  0  0  0
   41.7920   35.3690   38.2270 N   0  0  0  0  0  0  0  0  0  0  0  0
   40.6580   35.4540   37.5440 C   0  0  0  0  0  0  0  0  0  0  0  0
   39.5800   34.8850   37.9880 N   0  0  0  0  0  0  0  0  0  0  0  0
   39.5640   34.1800   39.1710 C   0  0  0  0  0  0  0  0  0  0  0  0
   38.4610   33.5520   39.7040 C   0  0  0  0  0  0  0  0  0  0  0  0
   38.6040   32.8830   40.9010 C   0  0  0  0  0  0  0  0  0  0  0  0
   37.6370   32.4470   41.1830 H   0  0  0  0  0  0  0  0  0  0  0  0
   39.8310   32.8240   41.5790 C   0  0  0  0  0  0  0  0  0  0  0  0
   39.7600   32.2580   42.4950 H   0  0  0  0  0  0  0  0  0  0  0  0
   40.9160   33.4570   41.0260 C   0  0  0  0  0  0  0  0  0  0  0  0
   40.8110   34.1460   39.8200 C   0  0  0  0  0  0  0  0  0  0  0  0
  1  2  2  0  0  0  0
  1  6  1  0  0  0  0
  2  3  1  0  0  0  0
  3  4  2  0  0  0  0
  3 10  1  0  0  0  0
  5  4  1  0  0  0  0
  5  8  1  0  0  0  0
  6  5  2  0  0  0  0
  7  2  1  0  0  0  0
  9 18  1  0  0  0  0
  9 17  1  0  0  0  0
 10  9  2  0  0  0  0
 11 10  1  0  0  0  0
 11 12  2  0  0  0  0
 12 16  1  0  0  0  0
 13 12  1  0  0  0  0
 13 14  1  0  0  0  0
 14 21  1  0  0  0  0
 14 15  2  0  0  0  0
 16 15  1  0  0  0  0
 16 17  2  0  0  0  0
 17 22  1  0  0  0  0
 19 11  1  0  0  0  0
 20 13  1  0  0  0  0
 23  1  1  0  0  0  0
 24 23  1  0  0  0  0
 25 24  2  0  0  0  0
 26 27  1  0  0  0  0
 26 25  1  0  0  0  0
 27 28  2  0  0  0  0
 28 24  1  0  0  0  0
 29 25  1  0  0  0  0
 30 41  1  0  0  0  0
 30 27  1  0  0  0  0
 31 30  2  0  0  0  0
 32 33  2  0  0  0  0
 32 31  1  0  0  0  0
 33 34  1  0  0  0  0
 34 35  2  0  0  0  0
 34 41  1  0  0  0  0
 35 36  1  0  0  0  0
 36 37  1  0  0  0  0
 36 38  2  0  0  0  0
 38 39  1  0  0  0  0
 40 38  1  0  0  0  0
 41 40  2  0  0  0  0
M  END
>  <minimizedAffinity>
-7.71737337

>  <minimizedRMSD>
0.759895146

$$$$
