
 OpenBabel03252508173D

 50 55  0  0  1  0  0  0  0  0999 V2000
   46.9280   31.7320   48.2820 C   0  0  1  0  0  0  0  0  0  0  0  0
   46.2450   30.8410   49.2610 C   0  0  0  0  0  0  0  0  0  0  0  0
   47.6470   31.1980   49.4520 C   0  0  1  0  0  0  0  0  0  0  0  0
   46.4100   32.7360   48.2720 H   0  0  0  0  0  0  0  0  0  0  0  0
   46.0320   29.7880   48.9570 H   0  0  0  0  0  0  0  0  0  0  0  0
   45.4970   31.2190   49.9860 H   0  0  0  0  0  0  0  0  0  0  0  0
   47.8680   31.9310   50.2560 H   0  0  0  0  0  0  0  0  0  0  0  0
   48.7540   30.2180   49.2140 C   0  0  2  0  0  0  0  0  0  0  0  0
   49.7120   30.0900   50.4260 C   0  0  0  0  0  0  0  0  0  0  0  0
   50.1820   30.7550   49.1920 C   0  0  1  0  0  0  0  0  0  0  0  0
   48.5530   29.2190   48.7890 H   0  0  0  0  0  0  0  0  0  0  0  0
   49.5600   30.7660   51.2880 H   0  0  0  0  0  0  0  0  0  0  0  0
   50.0980   29.1180   50.7170 H   0  0  0  0  0  0  0  0  0  0  0  0
   50.2730   31.8640   49.1680 H   0  0  0  0  0  0  0  0  0  0  0  0
   51.1990   29.9870   48.4270 C   0  0  0  0  0  0  0  0  0  0  0  0
   52.4930   29.9200   48.7930 N   0  0  0  0  0  0  0  0  0  0  0  0
   53.4400   29.2430   48.1380 C   0  0  0  0  0  3  0  0  0  0  0  0
   53.1230   28.5530   47.0060 N   0  0  0  0  0  0  0  0  0  0  0  0
   51.8310   28.5850   46.5890 C   0  0  0  0  0  0  0  0  0  0  0  0
   51.5600   27.8720   45.4390 C   0  0  0  0  0  3  0  0  0  0  0  0
   50.2360   27.8870   44.9860 C   0  0  0  0  0  0  0  0  0  0  0  0
   50.0600   27.3160   44.0800 H   0  0  0  0  0  0  0  0  0  0  0  0
   49.2510   28.5840   45.6570 C   0  0  0  0  0  0  0  0  0  0  0  0
   48.2340   28.5490   45.2400 H   0  0  0  0  0  0  0  0  0  0  0  0
   49.5430   29.2940   46.8090 C   0  0  0  0  0  3  0  0  0  0  0  0
   50.8610   29.2890   47.2760 C   0  0  0  0  0  0  0  0  0  0  0  0
   47.1590   31.1430   46.9300 C   0  0  0  0  0  0  0  0  0  0  0  0
   48.1550   30.7940   46.6960 H   0  0  0  0  0  0  0  0  0  0  0  0
   46.4790   30.2590   46.7500 H   0  0  0  0  0  0  0  0  0  0  0  0
   46.0690   33.0930   46.1710 C   0  0  0  0  0  3  0  0  0  0  0  0
   46.8710   32.1670   45.8540 C   0  0  0  0  0  3  0  0  0  0  0  0
   44.5250   35.9290   44.3870 C   0  0  0  0  0  0  0  0  0  0  0  0
   45.1610   35.9000   43.1490 C   0  0  0  0  0  0  0  0  0  0  0  0
   46.0790   34.9250   42.9720 C   0  0  0  0  0  0  0  0  0  0  0  0
   46.3490   34.0310   43.9660 N   0  0  0  0  0  0  0  0  0  0  0  0
   45.7120   34.0880   45.1550 C   0  0  0  0  0  0  0  0  0  0  0  0
   44.8160   35.0400   45.3300 N   0  0  0  0  0  0  0  0  0  0  0  0
   43.7810   36.7040   44.5570 H   0  0  0  0  0  0  0  0  0  0  0  0
   44.9600   36.5930   42.3640 H   0  0  0  0  0  0  0  0  0  0  0  0
   46.8280   34.7670   41.7260 C   0  0  0  0  0  0  0  0  0  0  0  0
   48.0400   35.3480   41.4650 C   0  0  0  0  0  0  0  0  0  0  0  0
   48.7390   35.1910   40.2850 C   0  0  0  0  0  0  0  0  0  0  0  0
   48.2080   34.4040   39.2810 C   0  0  0  0  0  0  0  0  0  0  0  0
   46.9970   33.7990   39.4870 C   0  0  0  0  0  0  0  0  0  0  0  0
   46.3320   33.9850   40.6880 C   0  0  0  0  0  0  0  0  0  0  0  0
   48.4780   35.9770   42.2510 H   0  0  0  0  0  0  0  0  0  0  0  0
   49.6900   35.6920   40.1780 H   0  0  0  0  0  0  0  0  0  0  0  0
   48.7780   34.3020   38.3730 H   0  0  0  0  0  0  0  0  0  0  0  0
   46.5870   33.1850   38.6980 H   0  0  0  0  0  0  0  0  0  0  0  0
   45.3820   33.4750   40.7740 H   0  0  0  0  0  0  0  0  0  0  0  0
  1  4  1  1  0  0  0
  1  2  1  0  0  0  0
  1  3  1  0  0  0  0
  2  3  1  0  0  0  0
  2  6  1  0  0  0  0
  3  7  1  1  0  0  0
  5  2  1  0  0  0  0
  8 11  1  6  0  0  0
  8  3  1  0  0  0  0
  8  9  1  0  0  0  0
  9 13  1  0  0  0  0
  9 12  1  0  0  0  0
 10 14  1  1  0  0  0
 10  8  1  0  0  0  0
 10  9  1  0  0  0  0
 15 16  1  0  0  0  0
 15 10  1  0  0  0  0
 17 16  2  0  0  0  0
 18 17  1  0  0  0  0
 19 18  2  0  0  0  0
 19 26  1  0  0  0  0
 20 19  1  0  0  0  0
 21 20  2  0  0  0  0
 21 23  1  0  0  0  0
 22 21  1  0  0  0  0
 23 25  2  0  0  0  0
 24 23  1  0  0  0  0
 25 26  1  0  0  0  0
 26 15  2  0  0  0  0
 27  1  1  0  0  0  0
 28 27  1  0  0  0  0
 29 27  1  0  0  0  0
 31 30  2  0  0  0  0
 31 27  1  0  0  0  0
 32 38  1  0  0  0  0
 32 37  1  0  0  0  0
 33 32  2  0  0  0  0
 34 33  1  0  0  0  0
 34 35  2  0  0  0  0
 35 36  1  0  0  0  0
 36 37  2  0  0  0  0
 36 30  1  0  0  0  0
 39 33  1  0  0  0  0
 40 34  1  0  0  0  0
 41 40  1  0  0  0  0
 41 46  1  0  0  0  0
 42 41  2  0  0  0  0
 43 44  2  0  0  0  0
 43 42  1  0  0  0  0
 44 45  1  0  0  0  0
 45 50  1  0  0  0  0
 45 40  2  0  0  0  0
 47 42  1  0  0  0  0
 48 43  1  0  0  0  0
 49 44  1  0  0  0  0
M  END
>  <minimizedAffinity>
-6.59326982

>  <minimizedRMSD>
1.09713972

$$$$
