
 OpenBabel03252506563D

 41 46  0  0  0  0  0  0  0  0999 V2000
   47.3190   31.4000   45.2680 C   0  0  0  0  0  0  0  0  0  0  0  0
   46.8620   32.7010   45.2000 C   0  0  0  0  0  0  0  0  0  0  0  0
   46.1870   33.3030   46.2440 C   0  0  0  0  0  0  0  0  0  0  0  0
   45.9440   32.5890   47.4270 C   0  0  0  0  0  0  0  0  0  0  0  0
   45.3370   32.8400   48.6180 N   0  0  0  0  0  0  0  0  0  0  0  0
   45.4240   31.7220   49.3860 C   0  0  0  0  0  0  0  0  0  0  0  0
   46.0840   30.7980   48.6540 N   0  0  0  0  0  0  0  0  0  0  0  0
   46.4140   31.2980   47.4550 C   0  0  0  0  0  0  0  0  0  0  0  0
   47.0800   30.6790   46.4460 C   0  0  0  0  0  0  0  0  0  0  0  0
   47.8520   30.9230   44.4410 H   0  0  0  0  0  0  0  0  0  0  0  0
   45.8250   34.3170   46.2050 H   0  0  0  0  0  0  0  0  0  0  0  0
   44.9270   33.7730   48.7630 H   0  0  0  0  0  0  0  0  0  0  0  0
   45.0110   31.6920   50.3740 H   0  0  0  0  0  0  0  0  0  0  0  0
   46.4240   35.1590   42.4980 C   0  0  0  0  0  0  0  0  0  0  0  0
   47.5640   34.9600   41.7230 C   0  0  0  0  0  0  0  0  0  0  0  0
   48.4870   33.9770   42.1280 C   0  0  0  0  0  0  0  0  0  0  0  0
   48.2130   33.2690   43.2670 N   0  0  0  0  0  0  0  0  0  0  0  0
   47.0870   33.4920   44.0000 C   0  0  0  0  0  0  0  0  0  0  0  0
   46.1970   34.4300   43.6200 N   0  0  0  0  0  0  0  0  0  0  0  0
   45.7560   35.9220   42.1390 H   0  0  0  0  0  0  0  0  0  0  0  0
   47.8210   35.4850   40.8310 H   0  0  0  0  0  0  0  0  0  0  0  0
   49.4100   33.7110   41.6330 H   0  0  0  0  0  0  0  0  0  0  0  0
   47.5460   29.2900   46.5700 C   0  0  0  0  0  0  0  0  0  0  0  0
   48.7990   28.8400   46.2460 C   0  0  0  0  0  0  0  0  0  0  0  0
   48.7200   27.4710   46.5460 C   0  0  0  0  0  0  0  0  0  0  0  0
   47.4780   27.1600   47.0170 C   0  0  0  0  0  0  0  0  0  0  0  0
   46.8400   28.3050   47.0000 O   0  0  0  0  0  0  0  0  0  0  0  0
   49.6510   29.3740   45.8570 H   0  0  0  0  0  0  0  0  0  0  0  0
   49.5590   26.8530   46.4260 H   0  0  0  0  0  0  0  0  0  0  0  0
   46.7610   25.9950   47.4930 C   0  0  0  0  0  0  0  0  0  0  0  0
   46.9850   25.5300   48.7540 N   0  0  0  0  0  0  0  0  0  0  0  0
   46.4570   24.4230   49.2310 C   0  0  0  0  0  3  0  0  0  0  0  0
   45.6350   23.6310   48.5210 N   0  0  0  0  0  0  0  0  0  0  0  0
   45.3360   24.0010   47.2400 C   0  0  0  0  0  0  0  0  0  0  0  0
   44.4910   23.2610   46.4770 C   0  0  0  0  0  3  0  0  0  0  0  0
   44.1460   23.6290   45.1910 C   0  0  0  0  0  0  0  0  0  0  0  0
   43.4720   22.9600   44.6960 H   0  0  0  0  0  0  0  0  0  0  0  0
   44.7290   24.8130   44.7360 C   0  0  0  0  0  0  0  0  0  0  0  0
   44.4330   25.0750   43.7140 H   0  0  0  0  0  0  0  0  0  0  0  0
   45.5780   25.5310   45.5400 C   0  0  0  0  0  3  0  0  0  0  0  0
   45.9200   25.1640   46.8080 C   0  0  0  0  0  0  0  0  0  0  0  0
  1  9  1  0  0  0  0
  2  1  2  0  0  0  0
  2  3  1  0  0  0  0
  3  4  2  0  0  0  0
  4  8  1  0  0  0  0
  4  5  1  0  0  0  0
  5 12  1  0  0  0  0
  5  6  1  0  0  0  0
  6 13  1  0  0  0  0
  7  6  2  0  0  0  0
  8  7  1  0  0  0  0
  9 23  1  0  0  0  0
  9  8  2  0  0  0  0
 10  1  1  0  0  0  0
 11  3  1  0  0  0  0
 14 19  1  0  0  0  0
 15 16  1  0  0  0  0
 15 14  2  0  0  0  0
 16 17  2  0  0  0  0
 17 18  1  0  0  0  0
 18  2  1  0  0  0  0
 19 18  2  0  0  0  0
 20 14  1  0  0  0  0
 21 15  1  0  0  0  0
 22 16  1  0  0  0  0
 23 27  1  0  0  0  0
 24 25  1  0  0  0  0
 24 23  2  0  0  0  0
 25 26  2  0  0  0  0
 26 30  1  0  0  0  0
 27 26  1  0  0  0  0
 28 24  1  0  0  0  0
 29 25  1  0  0  0  0
 30 31  1  0  0  0  0
 31 32  2  0  0  0  0
 33 32  1  0  0  0  0
 34 33  2  0  0  0  0
 35 34  1  0  0  0  0
 36 35  2  0  0  0  0
 37 36  1  0  0  0  0
 38 36  1  0  0  0  0
 38 40  2  0  0  0  0
 39 38  1  0  0  0  0
 40 41  1  0  0  0  0
 41 34  1  0  0  0  0
 41 30  2  0  0  0  0
M  END
>  <minimizedAffinity>
-6.11027098

>  <minimizedRMSD>
1.22143602

$$$$
