
 OpenBabel03242518013D

 40 43  0  0  0  0  0  0  0  0999 V2000
   46.3270   31.5460   45.9730 C   0  0  0  0  0  0  0  0  0  0  0  0
   45.3330   31.8760   46.3040 H   0  0  0  0  0  0  0  0  0  0  0  0
   46.1060   30.6060   45.3830 H   0  0  0  0  0  0  0  0  0  0  0  0
   47.2990   31.8600   48.2330 C   0  0  0  0  0  0  0  0  0  0  0  0
   47.2800   31.1840   47.0070 C   0  0  0  0  0  0  0  0  0  0  0  0
   48.2160   30.1760   46.8620 C   0  0  0  0  0  0  0  0  0  0  0  0
   49.0650   29.9040   47.8650 N   0  0  0  0  0  0  0  0  0  0  0  0
   49.0780   30.5460   49.0220 C   0  0  0  0  0  0  0  0  0  0  0  0
   48.1900   31.5080   49.1680 N   0  0  0  0  0  0  0  0  0  0  0  0
   46.5910   32.6710   48.4250 H   0  0  0  0  0  0  0  0  0  0  0  0
   48.2800   29.6050   45.9650 H   0  0  0  0  0  0  0  0  0  0  0  0
   49.9190   30.4020   50.2370 C   0  0  0  0  0  0  0  0  0  0  0  0
   49.9750   29.2780   50.9720 N   0  0  0  0  0  0  0  0  0  0  0  0
   50.7380   29.1790   52.0570 C   0  0  0  0  0  0  0  0  0  0  0  0
   51.5110   30.1950   52.5010 N   0  0  0  0  0  0  0  0  0  0  0  0
   51.5190   31.3770   51.8160 C   0  0  0  0  0  0  0  0  0  0  0  0
   52.3080   32.3960   52.2790 C   0  0  0  0  0  0  0  0  0  0  0  0
   52.3290   33.5940   51.6030 C   0  0  0  0  0  0  0  0  0  0  0  0
   52.9780   34.3350   52.0410 H   0  0  0  0  0  0  0  0  0  0  0  0
   51.5420   33.7180   50.4730 C   0  0  0  0  0  0  0  0  0  0  0  0
   51.5960   34.6670   49.9870 H   0  0  0  0  0  0  0  0  0  0  0  0
   50.7780   32.6440   50.0750 C   0  0  0  0  0  0  0  0  0  0  0  0
   50.7140   31.4230   50.7060 C   0  0  0  0  0  0  0  0  0  0  0  0
   47.0170   32.5050   45.0250 C   0  0  0  0  0  0  0  0  0  0  0  0
   47.3810   31.9720   44.1170 H   0  0  0  0  0  0  0  0  0  0  0  0
   47.9740   32.9070   45.4750 H   0  0  0  0  0  0  0  0  0  0  0  0
   46.3980   34.3510   43.5040 C   0  0  0  0  0  0  0  0  0  0  0  0
   46.2240   33.7180   44.7230 C   0  0  0  0  0  0  0  0  0  0  0  0
   45.3450   34.1690   45.6760 C   0  0  0  0  0  0  0  0  0  0  0  0
   44.6070   35.3020   45.4050 C   0  0  0  0  0  0  0  0  0  0  0  0
   44.7140   35.9840   44.2350 C   0  0  0  0  0  0  0  0  0  0  0  0
   45.6210   35.4740   43.3160 C   0  0  0  0  0  0  0  0  0  0  0  0
   45.1510   33.7460   46.6250 H   0  0  0  0  0  0  0  0  0  0  0  0
   43.8870   35.7190   46.1160 H   0  0  0  0  0  0  0  0  0  0  0  0
   44.1380   36.8740   44.0140 H   0  0  0  0  0  0  0  0  0  0  0  0
   45.7350   35.9990   42.3620 H   0  0  0  0  0  0  0  0  0  0  0  0
   47.5080   33.8050   42.2680 S   0  0  0  0  0  0  0  0  0  0  0  0
   48.9320   34.2320   42.5610 O   0  0  0  0  0  0  0  0  0  0  0  0
   47.1740   34.5350   40.9840 O   0  0  0  0  0  0  0  0  0  0  0  0
   47.3990   32.4900   41.9700 H   0  0  0  0  0  0  0  0  0  0  0  0
  1  2  1  0  0  0  0
  1  5  1  0  0  0  0
  3  1  1  0  0  0  0
  4 10  1  0  0  0  0
  4  9  1  0  0  0  0
  5  4  2  0  0  0  0
  6  5  1  0  0  0  0
  6  7  2  0  0  0  0
  7  8  1  0  0  0  0
  8  9  2  0  0  0  0
  8 12  1  0  0  0  0
 11  6  1  0  0  0  0
 12 23  2  0  0  0  0
 12 13  1  0  0  0  0
 13 14  2  0  0  0  0
 14 15  1  0  0  0  0
 16 17  1  0  0  0  0
 16 15  2  0  0  0  0
 18 19  1  0  0  0  0
 18 17  2  0  0  0  0
 20 18  1  0  0  0  0
 21 20  1  0  0  0  0
 22 20  2  0  0  0  0
 22 23  1  0  0  0  0
 23 16  1  0  0  0  0
 24 26  1  0  0  0  0
 24  1  1  0  0  0  0
 25 24  1  0  0  0  0
 27 28  1  0  0  0  0
 28 24  1  0  0  0  0
 28 29  2  0  0  0  0
 29 33  1  0  0  0  0
 30 29  1  0  0  0  0
 30 34  1  0  0  0  0
 31 30  2  0  0  0  0
 32 27  2  0  0  0  0
 32 31  1  0  0  0  0
 35 31  1  0  0  0  0
 36 32  1  0  0  0  0
 37 38  2  0  0  0  0
 37 27  1  0  0  0  0
 39 37  2  0  0  0  0
 40 37  1  0  0  0  0
M  END
>  <minimizedAffinity>
-6.71824121

>  <minimizedRMSD>
0.401738018

$$$$
