
 OpenBabel03242523333D

 40 44  0  0  0  0  0  0  0  0999 V2000
   45.7180   33.0320   46.9170 C   0  0  0  0  0  0  0  0  0  0  0  0
   44.8140   32.7450   47.5040 H   0  0  0  0  0  0  0  0  0  0  0  0
   46.3290   33.6480   47.6020 H   0  0  0  0  0  0  0  0  0  0  0  0
   44.4070   35.8150   44.8460 C   0  0  0  0  0  0  0  0  0  0  0  0
   44.7400   35.3620   43.5770 C   0  0  0  0  0  0  0  0  0  0  0  0
   45.4070   34.1180   43.4130 C   0  0  0  0  0  0  0  0  0  0  0  0
   45.6870   33.4250   44.5620 N   0  0  0  0  0  0  0  0  0  0  0  0
   45.3500   33.8950   45.7790 C   0  0  0  0  0  0  0  0  0  0  0  0
   44.7240   35.0670   45.8920 N   0  0  0  0  0  0  0  0  0  0  0  0
   43.9050   36.7490   44.9850 H   0  0  0  0  0  0  0  0  0  0  0  0
   44.4600   36.0030   42.7780 H   0  0  0  0  0  0  0  0  0  0  0  0
   45.6680   33.8300   42.0220 C   0  0  0  0  0  0  0  0  0  0  0  0
   44.8630   33.0600   41.2710 N   0  0  0  0  0  0  0  0  0  0  0  0
   45.0150   32.7450   40.0040 C   0  0  0  0  0  3  0  0  0  0  0  0
   46.0630   33.2060   39.3280 N   0  0  0  0  0  0  0  0  0  0  0  0
   46.9850   34.0060   39.9410 C   0  0  0  0  0  0  0  0  0  0  0  0
   48.0780   34.4990   39.2650 C   0  0  0  0  0  3  0  0  0  0  0  0
   48.9940   35.3080   39.9030 C   0  0  0  0  0  0  0  0  0  0  0  0
   49.8230   35.6530   39.3030 H   0  0  0  0  0  0  0  0  0  0  0  0
   48.7740   35.6060   41.2470 C   0  0  0  0  0  0  0  0  0  0  0  0
   49.4960   36.2380   41.7350 H   0  0  0  0  0  0  0  0  0  0  0  0
   47.6620   35.0780   41.8570 C   0  0  0  0  0  3  0  0  0  0  0  0
   46.7240   34.2700   41.2630 C   0  0  0  0  0  0  0  0  0  0  0  0
   46.6140   31.6050   46.2930 S   0  0  0  0  0  0  0  0  0  0  0  0
   47.7060   30.9520   47.5350 C   0  0  0  0  0  0  0  0  0  0  0  0
   48.0840   31.7950   48.5500 C   0  0  0  0  0  0  0  0  0  0  0  0
   48.9190   31.3050   49.5290 C   0  0  0  0  0  0  0  0  0  0  0  0
   49.3820   29.9850   49.5080 C   0  0  0  0  0  0  0  0  0  0  0  0
   50.1890   29.5380   50.4820 N   0  0  0  0  0  0  0  0  0  0  0  0
   50.6440   28.2740   50.4920 C   0  0  0  0  0  0  0  0  0  0  0  0
   50.2700   27.4260   49.4790 C   0  0  0  0  0  0  0  0  0  0  0  0
   49.4330   27.8840   48.4670 C   0  0  0  0  0  0  0  0  0  0  0  0
   48.9520   29.1950   48.4430 C   0  0  0  0  0  0  0  0  0  0  0  0
   48.1200   29.6510   47.4510 C   0  0  0  0  0  0  0  0  0  0  0  0
   47.8270   32.8280   48.7200 H   0  0  0  0  0  0  0  0  0  0  0  0
   49.2750   31.8960   50.3760 H   0  0  0  0  0  0  0  0  0  0  0  0
   51.2940   27.9200   51.2810 H   0  0  0  0  0  0  0  0  0  0  0  0
   50.6460   26.4140   49.5060 H   0  0  0  0  0  0  0  0  0  0  0  0
   49.1410   27.2050   47.6680 H   0  0  0  0  0  0  0  0  0  0  0  0
   47.8180   29.0110   46.6580 H   0  0  0  0  0  0  0  0  0  0  0  0
  1  2  1  0  0  0  0
  1  3  1  0  0  0  0
  4 10  1  0  0  0  0
  4  9  1  0  0  0  0
  5  4  2  0  0  0  0
  6  5  1  0  0  0  0
  6  7  2  0  0  0  0
  7  8  1  0  0  0  0
  8  9  2  0  0  0  0
  8  1  1  0  0  0  0
 11  5  1  0  0  0  0
 12  6  1  0  0  0  0
 13 12  1  0  0  0  0
 14 13  2  0  0  0  0
 15 16  2  0  0  0  0
 15 14  1  0  0  0  0
 16 23  1  0  0  0  0
 17 18  2  0  0  0  0
 17 16  1  0  0  0  0
 18 20  1  0  0  0  0
 19 18  1  0  0  0  0
 20 21  1  0  0  0  0
 20 22  2  0  0  0  0
 23 22  1  0  0  0  0
 23 12  2  0  0  0  0
 24  1  1  0  0  0  0
 24 25  1  0  0  0  0
 25 26  1  0  0  0  0
 26 35  1  0  0  0  0
 26 27  2  0  0  0  0
 27 36  1  0  0  0  0
 28 27  1  0  0  0  0
 28 29  1  0  0  0  0
 29 30  2  0  0  0  0
 30 37  1  0  0  0  0
 31 38  1  0  0  0  0
 31 30  1  0  0  0  0
 32 31  2  0  0  0  0
 33 32  1  0  0  0  0
 33 28  2  0  0  0  0
 34 25  2  0  0  0  0
 34 33  1  0  0  0  0
 39 32  1  0  0  0  0
 40 34  1  0  0  0  0
M  END
>  <minimizedAffinity>
-6.79043341

>  <minimizedRMSD>
1.24801481

$$$$
