
 OpenBabel03242522503D

 29 31  0  0  0  0  0  0  0  0999 V2000
   47.4970   32.0060   48.2410 O   0  0  0  0  0  0  0  0  0  0  0  0
   45.3340   30.7000   47.6220 O   0  0  0  0  0  0  0  0  0  0  0  0
   45.8410   31.9880   48.3270 P   0  0  1  0  0  0  0  0  0  0  0  0
   45.2750   31.8650   49.9050 O   0  0  0  0  0  0  0  0  0  0  0  0
   45.2220   30.9190   50.1950 H   0  0  0  0  0  0  0  0  0  0  0  0
   45.1390   33.3030   47.5470 O   0  0  0  0  0  0  0  0  0  0  0  0
   46.9570   33.2810   44.4000 C   0  0  0  0  0  0  0  0  0  0  0  0
   46.5470   32.9390   45.7070 C   0  0  0  0  0  0  0  0  0  0  0  0
   45.5180   33.6550   46.2710 C   0  0  0  0  0  0  0  0  0  0  0  0
   44.9400   34.6600   45.5460 N   0  0  0  0  0  0  0  0  0  0  0  0
   45.3550   34.9580   44.3070 C   0  0  0  0  0  0  0  0  0  0  0  0
   46.3520   34.2830   43.7260 N   0  0  0  0  0  0  0  0  0  0  0  0
   47.7550   32.7780   43.8710 H   0  0  0  0  0  0  0  0  0  0  0  0
   47.1160   32.1330   46.0940 H   0  0  0  0  0  0  0  0  0  0  0  0
   44.8850   35.7510   43.7590 H   0  0  0  0  0  0  0  0  0  0  0  0
   48.4660   31.1520   48.6250 C   0  0  0  0  0  0  0  0  0  0  0  0
   49.1390   31.6080   49.6680 O   0  0  0  0  0  0  0  0  0  0  0  0
   49.0530   29.8010   48.2270 C   0  0  0  0  0  0  0  0  0  0  0  0
   48.2850   28.7860   47.8370 N   0  0  0  0  0  0  0  0  0  0  0  0
   48.7350   27.6040   47.5020 C   0  0  0  0  0  3  0  0  0  0  0  0
   50.0350   27.3400   47.5310 N   0  0  0  0  0  0  0  0  0  0  0  0
   50.8600   28.3190   47.9160 C   0  0  0  0  0  0  0  0  0  0  0  0
   52.1890   28.0180   47.9510 C   0  0  0  0  0  3  0  0  0  0  0  0
   53.1580   28.9350   48.3430 C   0  0  0  0  0  0  0  0  0  0  0  0
   54.1870   28.6440   48.3510 H   0  0  0  0  0  0  0  0  0  0  0  0
   52.6490   30.1870   48.6980 C   0  0  0  0  0  0  0  0  0  0  0  0
   53.4520   30.8800   49.0020 H   0  0  0  0  0  0  0  0  0  0  0  0
   51.2990   30.4390   48.6450 C   0  0  0  0  0  3  0  0  0  0  0  0
   50.3700   29.5330   48.2590 C   0  0  0  0  0  0  0  0  0  0  0  0
  1  3  1  0  0  0  0
  1 16  1  0  0  0  0
  3  2  2  6  0  0  0
  3  4  1  0  0  0  0
  4  5  1  0  0  0  0
  6  3  1  0  0  0  0
  7  8  1  0  0  0  0
  8 14  1  0  0  0  0
  8  9  2  0  0  0  0
  9  6  1  0  0  0  0
 10  9  1  0  0  0  0
 11 10  2  0  0  0  0
 12 11  1  0  0  0  0
 12  7  2  0  0  0  0
 13  7  1  0  0  0  0
 15 11  1  0  0  0  0
 16 17  2  0  0  0  0
 18 29  1  0  0  0  0
 18 16  1  0  0  0  0
 19 18  2  0  0  0  0
 20 21  2  0  0  0  0
 20 19  1  0  0  0  0
 21 22  1  0  0  0  0
 22 23  2  0  0  0  0
 22 29  1  0  0  0  0
 23 24  1  0  0  0  0
 24 25  1  0  0  0  0
 24 26  2  0  0  0  0
 26 27  1  0  0  0  0
 28 26  1  0  0  0  0
 29 28  2  0  0  0  0
M  END
>  <minimizedAffinity>
-4.88092232

>  <minimizedRMSD>
0.857503533

$$$$
