
 OpenBabel03242522503D

 29 31  0  0  0  0  0  0  0  0999 V2000
   47.4690   32.0470   48.1240 O   0  0  0  0  0  0  0  0  0  0  0  0
   45.2800   30.7690   47.5380 O   0  0  0  0  0  0  0  0  0  0  0  0
   45.8160   32.0360   48.2590 P   0  0  1  0  0  0  0  0  0  0  0  0
   45.2970   31.8760   49.8500 O   0  0  0  0  0  0  0  0  0  0  0  0
   45.2470   30.9240   50.1180 H   0  0  0  0  0  0  0  0  0  0  0  0
   45.1000   33.3740   47.5340 O   0  0  0  0  0  0  0  0  0  0  0  0
   46.8270   33.4250   44.3360 C   0  0  0  0  0  0  0  0  0  0  0  0
   46.4560   33.0550   45.6470 C   0  0  0  0  0  0  0  0  0  0  0  0
   45.4400   33.7530   46.2550 C   0  0  0  0  0  0  0  0  0  0  0  0
   44.8370   34.7700   45.5670 N   0  0  0  0  0  0  0  0  0  0  0  0
   45.2140   35.0950   44.3230 C   0  0  0  0  0  0  0  0  0  0  0  0
   46.1980   34.4370   43.7000 N   0  0  0  0  0  0  0  0  0  0  0  0
   47.6110   32.9370   43.7750 H   0  0  0  0  0  0  0  0  0  0  0  0
   47.0400   32.2440   46.0010 H   0  0  0  0  0  0  0  0  0  0  0  0
   44.7250   35.8970   43.8050 H   0  0  0  0  0  0  0  0  0  0  0  0
   48.4530   31.2420   48.5740 C   0  0  0  0  0  0  0  0  0  0  0  0
   49.1220   31.7960   49.5710 O   0  0  0  0  0  0  0  0  0  0  0  0
   49.0590   29.8720   48.2890 C   0  0  0  0  0  0  0  0  0  0  0  0
   48.3140   28.8370   47.9080 N   0  0  0  0  0  0  0  0  0  0  0  0
   48.7820   27.6390   47.6670 C   0  0  0  0  0  3  0  0  0  0  0  0
   50.0750   27.3760   47.7940 N   0  0  0  0  0  0  0  0  0  0  0  0
   50.8780   28.3760   48.1770 C   0  0  0  0  0  0  0  0  0  0  0  0
   52.2010   28.0770   48.3120 C   0  0  0  0  0  3  0  0  0  0  0  0
   53.1450   29.0150   48.7160 C   0  0  0  0  0  0  0  0  0  0  0  0
   54.1710   28.7240   48.8060 H   0  0  0  0  0  0  0  0  0  0  0  0
   52.6190   30.2840   48.9690 C   0  0  0  0  0  0  0  0  0  0  0  0
   53.4040   30.9920   49.2850 H   0  0  0  0  0  0  0  0  0  0  0  0
   51.2750   30.5330   48.8150 C   0  0  0  0  0  3  0  0  0  0  0  0
   50.3710   29.6060   48.4210 C   0  0  0  0  0  0  0  0  0  0  0  0
  1  3  1  0  0  0  0
  1 16  1  0  0  0  0
  3  2  2  6  0  0  0
  3  4  1  0  0  0  0
  4  5  1  0  0  0  0
  6  3  1  0  0  0  0
  7  8  1  0  0  0  0
  8 14  1  0  0  0  0
  8  9  2  0  0  0  0
  9  6  1  0  0  0  0
 10  9  1  0  0  0  0
 11 10  2  0  0  0  0
 12 11  1  0  0  0  0
 12  7  2  0  0  0  0
 13  7  1  0  0  0  0
 15 11  1  0  0  0  0
 16 17  2  0  0  0  0
 18 29  1  0  0  0  0
 18 16  1  0  0  0  0
 19 18  2  0  0  0  0
 20 21  2  0  0  0  0
 20 19  1  0  0  0  0
 21 22  1  0  0  0  0
 22 23  2  0  0  0  0
 22 29  1  0  0  0  0
 23 24  1  0  0  0  0
 24 25  1  0  0  0  0
 24 26  2  0  0  0  0
 26 27  1  0  0  0  0
 28 26  1  0  0  0  0
 29 28  2  0  0  0  0
M  END
>  <minimizedAffinity>
-4.9174962

>  <minimizedRMSD>
0.31234929

$$$$
