
 OpenBabel03242522523D

 29 31  0  0  0  0  0  0  0  0999 V2000
   37.8640   29.4760   40.8780 O   0  0  0  0  0  0  0  0  0  0  0  0
   35.6300   29.2300   39.5680 O   0  0  0  0  0  0  0  0  0  0  0  0
   36.5600   30.2770   40.2380 P   0  0  1  0  0  0  0  0  0  0  0  0
   35.6070   31.0070   41.4150 O   0  0  0  0  0  0  0  0  0  0  0  0
   34.9400   30.3740   41.7810 H   0  0  0  0  0  0  0  0  0  0  0  0
   37.0030   31.3920   39.0580 O   0  0  0  0  0  0  0  0  0  0  0  0
   38.7920   34.3300   40.2300 C   0  0  0  0  0  0  0  0  0  0  0  0
   37.7500   33.4050   39.9990 C   0  0  0  0  0  0  0  0  0  0  0  0
   38.0360   32.2760   39.2710 C   0  0  0  0  0  0  0  0  0  0  0  0
   39.3100   32.0980   38.8040 N   0  0  0  0  0  0  0  0  0  0  0  0
   40.2750   32.9970   39.0420 C   0  0  0  0  0  0  0  0  0  0  0  0
   40.0340   34.1070   39.7470 N   0  0  0  0  0  0  0  0  0  0  0  0
   38.6670   35.2460   40.7910 H   0  0  0  0  0  0  0  0  0  0  0  0
   36.8430   33.7240   40.4460 H   0  0  0  0  0  0  0  0  0  0  0  0
   41.2660   32.8340   38.6650 H   0  0  0  0  0  0  0  0  0  0  0  0
   38.0660   28.7560   42.0000 C   0  0  0  0  0  0  0  0  0  0  0  0
   37.6580   29.4030   43.0780 O   0  0  0  0  0  0  0  0  0  0  0  0
   38.6350   27.4090   42.4330 C   0  0  0  0  0  0  0  0  0  0  0  0
   39.6490   27.3150   43.2890 N   0  0  0  0  0  0  0  0  0  0  0  0
   40.1840   26.1850   43.6790 C   0  0  0  0  0  3  0  0  0  0  0  0
   39.7270   25.0250   43.2260 N   0  0  0  0  0  0  0  0  0  0  0  0
   38.7080   25.0540   42.3600 C   0  0  0  0  0  0  0  0  0  0  0  0
   38.2660   23.8490   41.9000 C   0  0  0  0  0  3  0  0  0  0  0  0
   37.2240   23.7310   40.9870 C   0  0  0  0  0  0  0  0  0  0  0  0
   36.9180   22.7580   40.6600 H   0  0  0  0  0  0  0  0  0  0  0  0
   36.6740   24.9510   40.5860 C   0  0  0  0  0  0  0  0  0  0  0  0
   35.8530   24.8060   39.8630 H   0  0  0  0  0  0  0  0  0  0  0  0
   37.1570   26.1390   41.0810 C   0  0  0  0  0  3  0  0  0  0  0  0
   38.1720   26.2340   41.9720 C   0  0  0  0  0  0  0  0  0  0  0  0
  1 16  1  0  0  0  0
  3  2  2  6  0  0  0
  3  1  1  0  0  0  0
  3  4  1  0  0  0  0
  4  5  1  0  0  0  0
  6  9  1  0  0  0  0
  6  3  1  0  0  0  0
  7 13  1  0  0  0  0
  8  7  1  0  0  0  0
  8 14  1  0  0  0  0
  9  8  2  0  0  0  0
 10 11  2  0  0  0  0
 10  9  1  0  0  0  0
 11 12  1  0  0  0  0
 12  7  2  0  0  0  0
 15 11  1  0  0  0  0
 16 18  1  0  0  0  0
 16 17  2  0  0  0  0
 18 19  1  0  0  0  0
 19 20  2  0  0  0  0
 21 20  1  0  0  0  0
 22 21  2  0  0  0  0
 23 22  1  0  0  0  0
 24 23  2  0  0  0  0
 25 24  1  0  0  0  0
 26 24  1  0  0  0  0
 26 28  2  0  0  0  0
 27 26  1  0  0  0  0
 28 29  1  0  0  0  0
 29 22  1  0  0  0  0
 29 18  2  0  0  0  0
M  END
>  <minimizedAffinity>
-6.02876759

$$$$

 OpenBabel03242522523D

 29 31  0  0  0  0  0  0  0  0999 V2000
   35.9980   28.2220   41.6830 O   0  0  0  0  0  0  0  0  0  0  0  0
   34.3840   29.2310   39.9090 O   0  0  0  0  0  0  0  0  0  0  0  0
   35.7720   29.4370   40.5760 P   0  0  1  0  0  0  0  0  0  0  0  0
   35.6840   30.9560   41.2910 O   0  0  0  0  0  0  0  0  0  0  0  0
   34.7610   31.1610   41.5870 H   0  0  0  0  0  0  0  0  0  0  0  0
   36.9290   29.4220   39.3550 O   0  0  0  0  0  0  0  0  0  0  0  0
   40.2370   30.8820   38.9950 C   0  0  0  0  0  0  0  0  0  0  0  0
   39.1970   29.9290   39.0430 C   0  0  0  0  0  0  0  0  0  0  0  0
   37.9240   30.3720   39.3120 C   0  0  0  0  0  0  0  0  0  0  0  0
   37.7230   31.7090   39.5200 N   0  0  0  0  0  0  0  0  0  0  0  0
   38.7340   32.5860   39.4660 C   0  0  0  0  0  0  0  0  0  0  0  0
   39.9850   32.1920   39.2070 N   0  0  0  0  0  0  0  0  0  0  0  0
   41.2690   30.6330   38.7910 H   0  0  0  0  0  0  0  0  0  0  0  0
   39.5580   28.9510   38.8520 H   0  0  0  0  0  0  0  0  0  0  0  0
   38.5490   33.6300   39.6320 H   0  0  0  0  0  0  0  0  0  0  0  0
   37.0290   27.8460   42.4660 C   0  0  0  0  0  0  0  0  0  0  0  0
   36.6260   27.5090   43.6800 O   0  0  0  0  0  0  0  0  0  0  0  0
   38.5450   27.6910   42.4010 C   0  0  0  0  0  0  0  0  0  0  0  0
   39.1260   26.5020   42.2660 N   0  0  0  0  0  0  0  0  0  0  0  0
   40.4210   26.3120   42.2220 C   0  0  0  0  0  3  0  0  0  0  0  0
   41.2600   27.3360   42.3120 N   0  0  0  0  0  0  0  0  0  0  0  0
   40.7360   28.5580   42.4510 C   0  0  0  0  0  0  0  0  0  0  0  0
   41.6200   29.5910   42.5540 C   0  0  0  0  0  3  0  0  0  0  0  0
   41.2160   30.9120   42.7160 C   0  0  0  0  0  0  0  0  0  0  0  0
   41.9550   31.6830   42.7910 H   0  0  0  0  0  0  0  0  0  0  0  0
   39.8300   31.0850   42.7620 C   0  0  0  0  0  0  0  0  0  0  0  0
   39.5590   32.1460   42.8910 H   0  0  0  0  0  0  0  0  0  0  0  0
   38.9820   30.0080   42.6520 C   0  0  0  0  0  3  0  0  0  0  0  0
   39.3950   28.7290   42.4940 C   0  0  0  0  0  0  0  0  0  0  0  0
  1 16  1  0  0  0  0
  3  2  2  6  0  0  0
  3  4  1  0  0  0  0
  3  1  1  0  0  0  0
  4  5  1  0  0  0  0
  6  3  1  0  0  0  0
  7  8  2  0  0  0  0
  7 12  1  0  0  0  0
  8  9  1  0  0  0  0
  9  6  1  0  0  0  0
  9 10  2  0  0  0  0
 11 10  1  0  0  0  0
 11 15  1  0  0  0  0
 12 11  2  0  0  0  0
 13  7  1  0  0  0  0
 14  8  1  0  0  0  0
 16 17  2  0  0  0  0
 18 16  1  0  0  0  0
 18 29  1  0  0  0  0
 19 18  2  0  0  0  0
 20 19  1  0  0  0  0
 20 21  2  0  0  0  0
 21 22  1  0  0  0  0
 22 29  2  0  0  0  0
 22 23  1  0  0  0  0
 23 24  2  0  0  0  0
 24 26  1  0  0  0  0
 24 25  1  0  0  0  0
 26 27  1  0  0  0  0
 28 26  2  0  0  0  0
 29 28  1  0  0  0  0
M  END
>  <minimizedAffinity>
-5.43780947

$$$$

 OpenBabel03242522523D

 29 31  0  0  0  0  0  0  0  0999 V2000
   38.2610   30.3370   39.1400 O   0  0  0  0  0  0  0  0  0  0  0  0
   37.3470   30.9290   36.7770 O   0  0  0  0  0  0  0  0  0  0  0  0
   38.1970   31.4900   37.9490 P   0  0  1  0  0  0  0  0  0  0  0  0
   37.3890   32.8810   38.4380 O   0  0  0  0  0  0  0  0  0  0  0  0
   36.4120   32.7970   38.2990 H   0  0  0  0  0  0  0  0  0  0  0  0
   39.7170   31.8710   37.3370 O   0  0  0  0  0  0  0  0  0  0  0  0
   42.6540   33.8690   38.1040 C   0  0  0  0  0  0  0  0  0  0  0  0
   41.7580   33.0230   37.4150 C   0  0  0  0  0  0  0  0  0  0  0  0
   40.5720   32.6990   38.0290 C   0  0  0  0  0  0  0  0  0  0  0  0
   40.3140   33.2060   39.2730 N   0  0  0  0  0  0  0  0  0  0  0  0
   41.1880   34.0070   39.8980 C   0  0  0  0  0  0  0  0  0  0  0  0
   42.3510   34.3440   39.3320 N   0  0  0  0  0  0  0  0  0  0  0  0
   43.6090   34.1810   37.7060 H   0  0  0  0  0  0  0  0  0  0  0  0
   42.1410   32.7420   36.4680 H   0  0  0  0  0  0  0  0  0  0  0  0
   40.9610   34.3920   40.8730 H   0  0  0  0  0  0  0  0  0  0  0  0
   37.4220   29.9560   40.1240 C   0  0  0  0  0  0  0  0  0  0  0  0
   36.2670   30.5970   40.0600 O   0  0  0  0  0  0  0  0  0  0  0  0
   37.3810   29.0080   41.3180 C   0  0  0  0  0  0  0  0  0  0  0  0
   37.5430   29.4400   42.5660 N   0  0  0  0  0  0  0  0  0  0  0  0
   37.5330   28.6660   43.6230 C   0  0  0  0  0  3  0  0  0  0  0  0
   37.3540   27.3570   43.5040 N   0  0  0  0  0  0  0  0  0  0  0  0
   37.1860   26.8620   42.2740 C   0  0  0  0  0  0  0  0  0  0  0  0
   37.0170   25.5130   42.1790 C   0  0  0  0  0  3  0  0  0  0  0  0
   36.8450   24.8610   40.9620 C   0  0  0  0  0  0  0  0  0  0  0  0
   36.7160   23.7990   40.9470 H   0  0  0  0  0  0  0  0  0  0  0  0
   36.8620   25.7090   39.8510 C   0  0  0  0  0  0  0  0  0  0  0  0
   36.7220   25.1490   38.9120 H   0  0  0  0  0  0  0  0  0  0  0  0
   37.0360   27.0650   40.0030 C   0  0  0  0  0  3  0  0  0  0  0  0
   37.2000   27.6810   41.1970 C   0  0  0  0  0  0  0  0  0  0  0  0
  1 16  1  0  0  0  0
  3  2  2  6  0  0  0
  3  4  1  0  0  0  0
  3  1  1  0  0  0  0
  5  4  1  0  0  0  0
  6  3  1  0  0  0  0
  6  9  1  0  0  0  0
  7 12  1  0  0  0  0
  8  9  1  0  0  0  0
  8  7  2  0  0  0  0
  9 10  2  0  0  0  0
 10 11  1  0  0  0  0
 11 15  1  0  0  0  0
 12 11  2  0  0  0  0
 13  7  1  0  0  0  0
 14  8  1  0  0  0  0
 16 18  1  0  0  0  0
 17 16  2  0  0  0  0
 18 19  1  0  0  0  0
 19 20  2  0  0  0  0
 21 20  1  0  0  0  0
 22 21  2  0  0  0  0
 23 22  1  0  0  0  0
 24 23  2  0  0  0  0
 25 24  1  0  0  0  0
 26 28  2  0  0  0  0
 26 24  1  0  0  0  0
 27 26  1  0  0  0  0
 28 29  1  0  0  0  0
 29 18  2  0  0  0  0
 29 22  1  0  0  0  0
M  END
>  <minimizedAffinity>
-5.38885307

$$$$

 OpenBabel03242522523D

 29 31  0  0  0  0  0  0  0  0999 V2000
   37.4680   29.2540   40.4680 O   0  0  0  0  0  0  0  0  0  0  0  0
   36.6960   31.3240   39.0940 O   0  0  0  0  0  0  0  0  0  0  0  0
   37.0220   30.8500   40.5360 P   0  0  1  0  0  0  0  0  0  0  0  0
   35.5990   31.0890   41.3990 O   0  0  0  0  0  0  0  0  0  0  0  0
   34.8040   30.9730   40.8200 H   0  0  0  0  0  0  0  0  0  0  0  0
   38.2480   31.8380   41.1300 O   0  0  0  0  0  0  0  0  0  0  0  0
   41.2980   30.4140   42.5010 C   0  0  0  0  0  0  0  0  0  0  0  0
   39.9680   30.8780   42.4020 C   0  0  0  0  0  0  0  0  0  0  0  0
   39.5480   31.3900   41.1980 C   0  0  0  0  0  0  0  0  0  0  0  0
   40.4310   31.4270   40.1540 N   0  0  0  0  0  0  0  0  0  0  0  0
   41.6870   30.9770   40.2830 C   0  0  0  0  0  0  0  0  0  0  0  0
   42.1310   30.4720   41.4390 N   0  0  0  0  0  0  0  0  0  0  0  0
   41.7210   29.9950   43.4030 H   0  0  0  0  0  0  0  0  0  0  0  0
   39.4470   30.7600   43.3180 H   0  0  0  0  0  0  0  0  0  0  0  0
   42.3600   31.0170   39.4490 H   0  0  0  0  0  0  0  0  0  0  0  0
   36.9930   28.1220   41.0260 C   0  0  0  0  0  0  0  0  0  0  0  0
   35.8080   28.3080   41.5820 O   0  0  0  0  0  0  0  0  0  0  0  0
   37.3990   26.6660   41.2320 C   0  0  0  0  0  0  0  0  0  0  0  0
   36.7360   25.6630   40.6620 N   0  0  0  0  0  0  0  0  0  0  0  0
   37.0320   24.3970   40.8200 C   0  0  0  0  0  3  0  0  0  0  0  0
   38.0510   24.0290   41.5860 N   0  0  0  0  0  0  0  0  0  0  0  0
   38.7560   24.9920   42.1880 C   0  0  0  0  0  0  0  0  0  0  0  0
   39.7890   24.5870   42.9800 C   0  0  0  0  0  3  0  0  0  0  0  0
   40.5970   25.4790   43.6760 C   0  0  0  0  0  0  0  0  0  0  0  0
   41.3950   25.1040   44.2830 H   0  0  0  0  0  0  0  0  0  0  0  0
   40.2570   26.8220   43.4910 C   0  0  0  0  0  0  0  0  0  0  0  0
   40.9240   27.4900   44.0610 H   0  0  0  0  0  0  0  0  0  0  0  0
   39.2050   27.1780   42.6810 C   0  0  0  0  0  3  0  0  0  0  0  0
   38.4300   26.2940   42.0090 C   0  0  0  0  0  0  0  0  0  0  0  0
  1  3  1  0  0  0  0
  1 16  1  0  0  0  0
  3  2  2  6  0  0  0
  3  6  1  0  0  0  0
  3  4  1  0  0  0  0
  5  4  1  0  0  0  0
  6  9  1  0  0  0  0
  7 13  1  0  0  0  0
  8  7  1  0  0  0  0
  8 14  1  0  0  0  0
  9  8  2  0  0  0  0
 10 11  2  0  0  0  0
 10  9  1  0  0  0  0
 11 12  1  0  0  0  0
 12  7  2  0  0  0  0
 15 11  1  0  0  0  0
 16 18  1  0  0  0  0
 16 17  2  0  0  0  0
 18 29  1  0  0  0  0
 19 20  1  0  0  0  0
 19 18  2  0  0  0  0
 20 21  2  0  0  0  0
 21 22  1  0  0  0  0
 22 23  1  0  0  0  0
 23 24  2  0  0  0  0
 24 25  1  0  0  0  0
 26 24  1  0  0  0  0
 26 27  1  0  0  0  0
 28 26  2  0  0  0  0
 29 22  2  0  0  0  0
 29 28  1  0  0  0  0
M  END
>  <minimizedAffinity>
-5.36709785

$$$$

 OpenBabel03242522523D

 29 31  0  0  0  0  0  0  0  0999 V2000
   38.0720   30.9420   40.0060 O   0  0  0  0  0  0  0  0  0  0  0  0
   37.3330   32.3780   37.9660 O   0  0  0  0  0  0  0  0  0  0  0  0
   37.9800   32.4730   39.3750 P   0  0  1  0  0  0  0  0  0  0  0  0
   36.9530   33.4750   40.2520 O   0  0  0  0  0  0  0  0  0  0  0  0
   36.0140   33.3790   39.9510 H   0  0  0  0  0  0  0  0  0  0  0  0
   39.4920   33.1880   39.1930 O   0  0  0  0  0  0  0  0  0  0  0  0
   42.0430   31.7030   37.0720 C   0  0  0  0  0  0  0  0  0  0  0  0
   40.9250   32.4610   37.4850 C   0  0  0  0  0  0  0  0  0  0  0  0
   40.5870   32.4440   38.8170 C   0  0  0  0  0  0  0  0  0  0  0  0
   41.3430   31.6980   39.6790 N   0  0  0  0  0  0  0  0  0  0  0  0
   42.3980   30.9900   39.2520 C   0  0  0  0  0  0  0  0  0  0  0  0
   42.7580   30.9840   37.9640 N   0  0  0  0  0  0  0  0  0  0  0  0
   42.3880   31.6540   36.0490 H   0  0  0  0  0  0  0  0  0  0  0  0
   40.4780   32.9690   36.6690 H   0  0  0  0  0  0  0  0  0  0  0  0
   42.9760   30.4130   39.9480 H   0  0  0  0  0  0  0  0  0  0  0  0
   37.3260   30.2420   40.8840 C   0  0  0  0  0  0  0  0  0  0  0  0
   36.1970   30.8650   41.1760 O   0  0  0  0  0  0  0  0  0  0  0  0
   37.3720   28.9360   41.6710 C   0  0  0  0  0  0  0  0  0  0  0  0
   37.6880   28.9040   42.9630 N   0  0  0  0  0  0  0  0  0  0  0  0
   37.7580   27.8100   43.6800 C   0  0  0  0  0  3  0  0  0  0  0  0
   37.5080   26.6250   43.1370 N   0  0  0  0  0  0  0  0  0  0  0  0
   37.1860   26.5920   41.8390 C   0  0  0  0  0  0  0  0  0  0  0  0
   36.9470   25.3620   41.3030 C   0  0  0  0  0  3  0  0  0  0  0  0
   36.6150   25.1780   39.9650 C   0  0  0  0  0  0  0  0  0  0  0  0
   36.4370   24.1880   39.5980 H   0  0  0  0  0  0  0  0  0  0  0  0
   36.5500   26.3610   39.2240 C   0  0  0  0  0  0  0  0  0  0  0  0
   36.2840   26.1650   38.1710 H   0  0  0  0  0  0  0  0  0  0  0  0
   36.8000   27.5770   39.8140 C   0  0  0  0  0  3  0  0  0  0  0  0
   37.1200   27.7360   41.1200 C   0  0  0  0  0  0  0  0  0  0  0  0
  1 16  1  0  0  0  0
  3  2  2  6  0  0  0
  3  1  1  0  0  0  0
  3  4  1  0  0  0  0
  5  4  1  0  0  0  0
  6  3  1  0  0  0  0
  7  8  2  0  0  0  0
  7 12  1  0  0  0  0
  8  9  1  0  0  0  0
  9  6  1  0  0  0  0
  9 10  2  0  0  0  0
 11 10  1  0  0  0  0
 11 15  1  0  0  0  0
 12 11  2  0  0  0  0
 13  7  1  0  0  0  0
 14  8  1  0  0  0  0
 16 17  2  0  0  0  0
 16 18  1  0  0  0  0
 18 19  1  0  0  0  0
 19 20  2  0  0  0  0
 21 20  1  0  0  0  0
 22 21  2  0  0  0  0
 23 22  1  0  0  0  0
 24 23  2  0  0  0  0
 25 24  1  0  0  0  0
 26 28  2  0  0  0  0
 26 24  1  0  0  0  0
 27 26  1  0  0  0  0
 28 29  1  0  0  0  0
 29 18  2  0  0  0  0
 29 22  1  0  0  0  0
M  END
>  <minimizedAffinity>
-5.35079908

$$$$

 OpenBabel03242522523D

 29 31  0  0  0  0  0  0  0  0999 V2000
   36.1190   28.3330   41.6000 O   0  0  0  0  0  0  0  0  0  0  0  0
   34.2720   29.1920   39.9810 O   0  0  0  0  0  0  0  0  0  0  0  0
   35.7040   29.5000   40.4970 P   0  0  1  0  0  0  0  0  0  0  0  0
   35.5940   31.0310   41.1830 O   0  0  0  0  0  0  0  0  0  0  0  0
   34.6950   31.1880   41.5690 H   0  0  0  0  0  0  0  0  0  0  0  0
   36.7300   29.5210   39.1630 O   0  0  0  0  0  0  0  0  0  0  0  0
   40.3440   29.8910   39.0620 C   0  0  0  0  0  0  0  0  0  0  0  0
   39.0590   29.3100   38.9940 C   0  0  0  0  0  0  0  0  0  0  0  0
   37.9710   30.1130   39.2340 C   0  0  0  0  0  0  0  0  0  0  0  0
   38.1790   31.4330   39.5260 N   0  0  0  0  0  0  0  0  0  0  0  0
   39.4130   31.9520   39.5830 C   0  0  0  0  0  0  0  0  0  0  0  0
   40.4950   31.2010   39.3550 N   0  0  0  0  0  0  0  0  0  0  0  0
   41.2600   29.3440   38.8890 H   0  0  0  0  0  0  0  0  0  0  0  0
   39.1130   28.2790   38.7510 H   0  0  0  0  0  0  0  0  0  0  0  0
   39.5490   32.9910   39.8140 H   0  0  0  0  0  0  0  0  0  0  0  0
   37.0880   28.2240   42.5310 C   0  0  0  0  0  0  0  0  0  0  0  0
   36.6160   27.7680   43.6790 O   0  0  0  0  0  0  0  0  0  0  0  0
   38.5850   28.4710   42.6900 C   0  0  0  0  0  0  0  0  0  0  0  0
   39.1060   29.6940   42.6340 N   0  0  0  0  0  0  0  0  0  0  0  0
   40.3830   29.9590   42.7470 C   0  0  0  0  0  3  0  0  0  0  0  0
   41.2650   28.9850   42.9320 N   0  0  0  0  0  0  0  0  0  0  0  0
   40.8020   27.7320   42.9960 C   0  0  0  0  0  0  0  0  0  0  0  0
   41.7290   26.7480   43.1730 C   0  0  0  0  0  3  0  0  0  0  0  0
   41.3910   25.4010   43.2440 C   0  0  0  0  0  0  0  0  0  0  0  0
   42.1620   24.6720   43.3850 H   0  0  0  0  0  0  0  0  0  0  0  0
   40.0230   25.1470   43.1180 C   0  0  0  0  0  0  0  0  0  0  0  0
   39.8040   24.0680   43.1800 H   0  0  0  0  0  0  0  0  0  0  0  0
   39.1290   26.1770   42.9410 C   0  0  0  0  0  3  0  0  0  0  0  0
   39.4770   27.4830   42.8760 C   0  0  0  0  0  0  0  0  0  0  0  0
  1 16  1  0  0  0  0
  3  2  2  6  0  0  0
  3  4  1  0  0  0  0
  3  1  1  0  0  0  0
  4  5  1  0  0  0  0
  6  9  1  0  0  0  0
  6  3  1  0  0  0  0
  7 12  1  0  0  0  0
  8  7  2  0  0  0  0
  8  9  1  0  0  0  0
  9 10  2  0  0  0  0
 10 11  1  0  0  0  0
 11 15  1  0  0  0  0
 12 11  2  0  0  0  0
 13  7  1  0  0  0  0
 14  8  1  0  0  0  0
 16 18  1  0  0  0  0
 16 17  2  0  0  0  0
 18 29  1  0  0  0  0
 19 18  2  0  0  0  0
 19 20  1  0  0  0  0
 20 21  2  0  0  0  0
 21 22  1  0  0  0  0
 22 23  1  0  0  0  0
 23 24  2  0  0  0  0
 24 25  1  0  0  0  0
 26 27  1  0  0  0  0
 26 24  1  0  0  0  0
 28 26  2  0  0  0  0
 29 28  1  0  0  0  0
 29 22  2  0  0  0  0
M  END
>  <minimizedAffinity>
-5.2940793

$$$$

 OpenBabel03242522523D

 29 31  0  0  0  0  0  0  0  0999 V2000
   39.8900   30.1310   38.2880 O   0  0  0  0  0  0  0  0  0  0  0  0
   39.5930   32.5640   39.1620 O   0  0  0  0  0  0  0  0  0  0  0  0
   39.2370   31.6240   37.9780 P   0  0  1  0  0  0  0  0  0  0  0  0
   39.9140   32.3600   36.6260 O   0  0  0  0  0  0  0  0  0  0  0  0
   40.7380   32.8570   36.8630 H   0  0  0  0  0  0  0  0  0  0  0  0
   37.5600   31.5810   37.8520 O   0  0  0  0  0  0  0  0  0  0  0  0
   35.4160   28.9660   39.1850 C   0  0  0  0  0  0  0  0  0  0  0  0
   36.2040   29.7180   38.2850 C   0  0  0  0  0  0  0  0  0  0  0  0
   36.8000   30.8660   38.7490 C   0  0  0  0  0  0  0  0  0  0  0  0
   36.6050   31.2270   40.0540 N   0  0  0  0  0  0  0  0  0  0  0  0
   35.8520   30.4900   40.8810 C   0  0  0  0  0  0  0  0  0  0  0  0
   35.2570   29.3670   40.4650 N   0  0  0  0  0  0  0  0  0  0  0  0
   34.9080   28.0510   38.9160 H   0  0  0  0  0  0  0  0  0  0  0  0
   36.2310   29.2690   37.3260 H   0  0  0  0  0  0  0  0  0  0  0  0
   35.7150   30.7950   41.9000 H   0  0  0  0  0  0  0  0  0  0  0  0
   40.0850   29.4060   39.4070 C   0  0  0  0  0  0  0  0  0  0  0  0
   41.2470   28.7760   39.3880 O   0  0  0  0  0  0  0  0  0  0  0  0
   39.3750   29.0660   40.7140 C   0  0  0  0  0  0  0  0  0  0  0  0
   39.4760   29.8390   41.7920 N   0  0  0  0  0  0  0  0  0  0  0  0
   38.9000   29.5830   42.9400 C   0  0  0  0  0  3  0  0  0  0  0  0
   38.1550   28.4980   43.1000 N   0  0  0  0  0  0  0  0  0  0  0  0
   38.0160   27.6800   42.0510 C   0  0  0  0  0  0  0  0  0  0  0  0
   37.2560   26.5650   42.2450 C   0  0  0  0  0  3  0  0  0  0  0  0
   37.0380   25.6210   41.2470 C   0  0  0  0  0  0  0  0  0  0  0  0
   36.4310   24.7640   41.4560 H   0  0  0  0  0  0  0  0  0  0  0  0
   37.6650   25.9170   40.0340 C   0  0  0  0  0  0  0  0  0  0  0  0
   37.4640   25.1420   39.2750 H   0  0  0  0  0  0  0  0  0  0  0  0
   38.4210   27.0560   39.8910 C   0  0  0  0  0  3  0  0  0  0  0  0
   38.6200   27.9650   40.8740 C   0  0  0  0  0  0  0  0  0  0  0  0
  1 16  1  0  0  0  0
  3  1  1  0  0  0  0
  3  2  2  1  0  0  0
  4  5  1  0  0  0  0
  4  3  1  0  0  0  0
  6  3  1  0  0  0  0
  6  9  1  0  0  0  0
  7 12  1  0  0  0  0
  8  9  1  0  0  0  0
  8  7  2  0  0  0  0
  9 10  2  0  0  0  0
 10 11  1  0  0  0  0
 11 15  1  0  0  0  0
 12 11  2  0  0  0  0
 13  7  1  0  0  0  0
 14  8  1  0  0  0  0
 16 18  1  0  0  0  0
 17 16  2  0  0  0  0
 18 29  2  0  0  0  0
 18 19  1  0  0  0  0
 19 20  2  0  0  0  0
 20 21  1  0  0  0  0
 22 23  1  0  0  0  0
 22 21  2  0  0  0  0
 24 25  1  0  0  0  0
 24 23  2  0  0  0  0
 26 24  1  0  0  0  0
 27 26  1  0  0  0  0
 28 26  2  0  0  0  0
 28 29  1  0  0  0  0
 29 22  1  0  0  0  0
M  END
>  <minimizedAffinity>
-5.24354839

$$$$

 OpenBabel03242522523D

 29 31  0  0  0  0  0  0  0  0999 V2000
   39.7640   29.8780   37.8140 O   0  0  0  0  0  0  0  0  0  0  0  0
   39.8680   32.0110   39.3000 O   0  0  0  0  0  0  0  0  0  0  0  0
   39.3470   31.4790   37.9380 P   0  0  1  0  0  0  0  0  0  0  0  0
   40.1060   32.4370   36.7830 O   0  0  0  0  0  0  0  0  0  0  0  0
   41.0020   32.7280   37.0900 H   0  0  0  0  0  0  0  0  0  0  0  0
   37.6820   31.7160   37.9030 O   0  0  0  0  0  0  0  0  0  0  0  0
   35.3440   29.1270   38.9220 C   0  0  0  0  0  0  0  0  0  0  0  0
   36.2120   29.9030   38.1230 C   0  0  0  0  0  0  0  0  0  0  0  0
   36.8440   30.9750   38.7040 C   0  0  0  0  0  0  0  0  0  0  0  0
   36.6050   31.2430   40.0250 N   0  0  0  0  0  0  0  0  0  0  0  0
   35.7760   30.4850   40.7540 C   0  0  0  0  0  0  0  0  0  0  0  0
   35.1440   29.4330   40.2220 N   0  0  0  0  0  0  0  0  0  0  0  0
   34.8040   28.2650   38.5570 H   0  0  0  0  0  0  0  0  0  0  0  0
   36.2630   29.5300   37.1310 H   0  0  0  0  0  0  0  0  0  0  0  0
   35.6060   30.7160   41.7880 H   0  0  0  0  0  0  0  0  0  0  0  0
   39.8350   28.8560   38.6910 C   0  0  0  0  0  0  0  0  0  0  0  0
   41.0840   28.4920   38.9210 O   0  0  0  0  0  0  0  0  0  0  0  0
   38.9130   27.9610   39.5130 C   0  0  0  0  0  0  0  0  0  0  0  0
   38.3260   26.8870   38.9910 N   0  0  0  0  0  0  0  0  0  0  0  0
   37.5150   26.0960   39.6480 C   0  0  0  0  0  3  0  0  0  0  0  0
   37.2200   26.3300   40.9200 N   0  0  0  0  0  0  0  0  0  0  0  0
   37.7790   27.3970   41.5010 C   0  0  0  0  0  0  0  0  0  0  0  0
   37.4500   27.6230   42.8050 C   0  0  0  0  0  3  0  0  0  0  0  0
   37.9460   28.7020   43.5280 C   0  0  0  0  0  0  0  0  0  0  0  0
   37.6540   28.8300   44.5500 H   0  0  0  0  0  0  0  0  0  0  0  0
   38.8070   29.5300   42.8030 C   0  0  0  0  0  0  0  0  0  0  0  0
   39.1730   30.3700   43.4170 H   0  0  0  0  0  0  0  0  0  0  0  0
   39.1060   29.2570   41.4890 C   0  0  0  0  0  3  0  0  0  0  0  0
   38.6150   28.2000   40.8020 C   0  0  0  0  0  0  0  0  0  0  0  0
  1  3  1  0  0  0  0
  1 16  1  0  0  0  0
  3  2  2  1  0  0  0
  4  5  1  0  0  0  0
  4  3  1  0  0  0  0
  6  3  1  0  0  0  0
  6  9  1  0  0  0  0
  7 12  1  0  0  0  0
  8  9  1  0  0  0  0
  8  7  2  0  0  0  0
  9 10  2  0  0  0  0
 10 11  1  0  0  0  0
 11 15  1  0  0  0  0
 12 11  2  0  0  0  0
 13  7  1  0  0  0  0
 14  8  1  0  0  0  0
 16 17  2  0  0  0  0
 16 18  1  0  0  0  0
 18 29  1  0  0  0  0
 19 18  2  0  0  0  0
 19 20  1  0  0  0  0
 20 21  2  0  0  0  0
 21 22  1  0  0  0  0
 22 23  1  0  0  0  0
 23 24  2  0  0  0  0
 24 25  1  0  0  0  0
 26 27  1  0  0  0  0
 26 24  1  0  0  0  0
 28 26  2  0  0  0  0
 29 28  1  0  0  0  0
 29 22  2  0  0  0  0
M  END
>  <minimizedAffinity>
-5.12414217

$$$$

 OpenBabel03242522523D

 29 31  0  0  0  0  0  0  0  0999 V2000
   36.3610   29.8210   38.0950 O   0  0  0  0  0  0  0  0  0  0  0  0
   38.5470   29.0890   36.8900 O   0  0  0  0  0  0  0  0  0  0  0  0
   37.9070   30.2600   37.6830 P   0  0  1  0  0  0  0  0  0  0  0  0
   37.9490   31.5680   36.6270 O   0  0  0  0  0  0  0  0  0  0  0  0
   37.8660   31.2720   35.6860 H   0  0  0  0  0  0  0  0  0  0  0  0
   38.8750   30.5520   39.0270 O   0  0  0  0  0  0  0  0  0  0  0  0
   40.4290   33.4390   40.5950 C   0  0  0  0  0  0  0  0  0  0  0  0
   40.2480   32.1400   40.0710 C   0  0  0  0  0  0  0  0  0  0  0  0
   39.0260   31.8250   39.5280 C   0  0  0  0  0  0  0  0  0  0  0  0
   38.0450   32.7780   39.5180 N   0  0  0  0  0  0  0  0  0  0  0  0
   38.2520   34.0020   40.0230 C   0  0  0  0  0  0  0  0  0  0  0  0
   39.4280   34.3440   40.5590 N   0  0  0  0  0  0  0  0  0  0  0  0
   41.3520   33.7820   41.0410 H   0  0  0  0  0  0  0  0  0  0  0  0
   41.1270   31.5560   40.1720 H   0  0  0  0  0  0  0  0  0  0  0  0
   37.4650   34.7320   40.0030 H   0  0  0  0  0  0  0  0  0  0  0  0
   35.8320   28.8070   38.8080 C   0  0  0  0  0  0  0  0  0  0  0  0
   34.5110   28.8300   38.7900 O   0  0  0  0  0  0  0  0  0  0  0  0
   36.2810   27.6200   39.6550 C   0  0  0  0  0  0  0  0  0  0  0  0
   36.2190   26.3700   39.2050 N   0  0  0  0  0  0  0  0  0  0  0  0
   36.5750   25.3160   39.8960 C   0  0  0  0  0  3  0  0  0  0  0  0
   37.0370   25.4410   41.1340 N   0  0  0  0  0  0  0  0  0  0  0  0
   37.1220   26.6740   41.6440 C   0  0  0  0  0  0  0  0  0  0  0  0
   37.5870   26.7730   42.9210 C   0  0  0  0  0  3  0  0  0  0  0  0
   37.7150   27.9900   43.5820 C   0  0  0  0  0  0  0  0  0  0  0  0
   38.0870   28.0080   44.5850 H   0  0  0  0  0  0  0  0  0  0  0  0
   37.3260   29.0970   42.8220 C   0  0  0  0  0  0  0  0  0  0  0  0
   37.4450   30.0370   43.3860 H   0  0  0  0  0  0  0  0  0  0  0  0
   36.8640   28.9410   41.5360 C   0  0  0  0  0  3  0  0  0  0  0  0
   36.7480   27.7470   40.9100 C   0  0  0  0  0  0  0  0  0  0  0  0
  1 16  1  0  0  0  0
  3  2  2  6  0  0  0
  3  1  1  0  0  0  0
  3  6  1  0  0  0  0
  4  3  1  0  0  0  0
  5  4  1  0  0  0  0
  6  9  1  0  0  0  0
  7 13  1  0  0  0  0
  8 14  1  0  0  0  0
  8  7  2  0  0  0  0
  9  8  1  0  0  0  0
 10  9  2  0  0  0  0
 10 11  1  0  0  0  0
 11 12  2  0  0  0  0
 12  7  1  0  0  0  0
 15 11  1  0  0  0  0
 16 18  1  0  0  0  0
 17 16  2  0  0  0  0
 18 29  1  0  0  0  0
 19 18  2  0  0  0  0
 19 20  1  0  0  0  0
 20 21  2  0  0  0  0
 21 22  1  0  0  0  0
 22 23  1  0  0  0  0
 23 24  2  0  0  0  0
 24 25  1  0  0  0  0
 26 27  1  0  0  0  0
 26 24  1  0  0  0  0
 28 26  2  0  0  0  0
 29 28  1  0  0  0  0
 29 22  2  0  0  0  0
M  END
>  <minimizedAffinity>
-5.09785128

$$$$
