
 OpenBabel03242522503D

 29 31  0  0  0  0  0  0  0  0999 V2000
   47.2990   31.7270   47.8640 O   0  0  0  0  0  0  0  0  0  0  0  0
   44.8670   30.8200   47.6890 O   0  0  0  0  0  0  0  0  0  0  0  0
   45.7080   32.0010   48.2450 P   0  0  1  0  0  0  0  0  0  0  0  0
   45.4270   31.9840   49.9030 O   0  0  0  0  0  0  0  0  0  0  0  0
   45.2660   31.0630   50.2310 H   0  0  0  0  0  0  0  0  0  0  0  0
   45.1140   33.4170   47.5580 O   0  0  0  0  0  0  0  0  0  0  0  0
   46.8020   33.3980   44.3400 C   0  0  0  0  0  0  0  0  0  0  0  0
   46.4450   33.0550   45.6630 C   0  0  0  0  0  0  0  0  0  0  0  0
   45.4400   33.7700   46.2690 C   0  0  0  0  0  0  0  0  0  0  0  0
   44.8340   34.7760   45.5690 N   0  0  0  0  0  0  0  0  0  0  0  0
   45.1980   35.0750   44.3140 C   0  0  0  0  0  0  0  0  0  0  0  0
   46.1710   34.4010   43.6920 N   0  0  0  0  0  0  0  0  0  0  0  0
   47.5770   32.8950   43.7790 H   0  0  0  0  0  0  0  0  0  0  0  0
   47.0300   32.2480   46.0250 H   0  0  0  0  0  0  0  0  0  0  0  0
   44.7070   35.8690   43.7870 H   0  0  0  0  0  0  0  0  0  0  0  0
   48.2630   30.9340   48.3730 C   0  0  0  0  0  0  0  0  0  0  0  0
   48.5790   31.2770   49.6100 O   0  0  0  0  0  0  0  0  0  0  0  0
   49.1320   29.7480   47.9650 C   0  0  0  0  0  0  0  0  0  0  0  0
   50.4610   29.7940   48.0260 N   0  0  0  0  0  0  0  0  0  0  0  0
   51.2520   28.8130   47.6750 C   0  0  0  0  0  3  0  0  0  0  0  0
   50.7540   27.6720   47.2180 N   0  0  0  0  0  0  0  0  0  0  0  0
   49.4230   27.5630   47.1320 C   0  0  0  0  0  0  0  0  0  0  0  0
   48.9390   26.3840   46.6480 C   0  0  0  0  0  3  0  0  0  0  0  0
   47.5780   26.1400   46.4920 C   0  0  0  0  0  0  0  0  0  0  0  0
   47.2550   25.1940   46.1080 H   0  0  0  0  0  0  0  0  0  0  0  0
   46.7580   27.2040   46.8730 C   0  0  0  0  0  0  0  0  0  0  0  0
   45.6910   26.9640   46.7310 H   0  0  0  0  0  0  0  0  0  0  0  0
   47.2990   28.3720   47.3550 C   0  0  0  0  0  3  0  0  0  0  0  0
   48.6260   28.5930   47.5010 C   0  0  0  0  0  0  0  0  0  0  0  0
  1  3  1  0  0  0  0
  1 16  1  0  0  0  0
  3  2  2  6  0  0  0
  3  4  1  0  0  0  0
  4  5  1  0  0  0  0
  6  3  1  0  0  0  0
  7  8  1  0  0  0  0
  8 14  1  0  0  0  0
  8  9  2  0  0  0  0
  9  6  1  0  0  0  0
 10  9  1  0  0  0  0
 11 10  2  0  0  0  0
 12 11  1  0  0  0  0
 12  7  2  0  0  0  0
 13  7  1  0  0  0  0
 15 11  1  0  0  0  0
 16 17  2  0  0  0  0
 18 19  1  0  0  0  0
 18 16  1  0  0  0  0
 20 19  2  0  0  0  0
 21 20  1  0  0  0  0
 22 21  2  0  0  0  0
 22 29  1  0  0  0  0
 23 22  1  0  0  0  0
 24 23  2  0  0  0  0
 24 26  1  0  0  0  0
 25 24  1  0  0  0  0
 26 28  2  0  0  0  0
 27 26  1  0  0  0  0
 28 29  1  0  0  0  0
 29 18  2  0  0  0  0
M  END
>  <minimizedAffinity>
-4.63398266

>  <minimizedRMSD>
0.608684659

$$$$
