
 OpenBabel03242522503D

 29 31  0  0  0  0  0  0  0  0999 V2000
   47.7360   32.2190   48.5320 O   0  0  0  0  0  0  0  0  0  0  0  0
   45.9240   30.3880   48.1680 O   0  0  0  0  0  0  0  0  0  0  0  0
   46.1160   31.8710   48.5900 P   0  0  1  0  0  0  0  0  0  0  0  0
   45.4890   31.9580   50.1480 O   0  0  0  0  0  0  0  0  0  0  0  0
   45.6100   31.1030   50.6320 H   0  0  0  0  0  0  0  0  0  0  0  0
   45.2140   32.8200   47.5340 O   0  0  0  0  0  0  0  0  0  0  0  0
   47.2040   32.6910   44.4960 C   0  0  0  0  0  0  0  0  0  0  0  0
   46.6790   32.3560   45.7630 C   0  0  0  0  0  0  0  0  0  0  0  0
   45.7070   33.1670   46.2960 C   0  0  0  0  0  0  0  0  0  0  0  0
   45.2930   34.2570   45.5800 N   0  0  0  0  0  0  0  0  0  0  0  0
   45.8130   34.5450   44.3800 C   0  0  0  0  0  0  0  0  0  0  0  0
   46.7600   33.7780   43.8290 N   0  0  0  0  0  0  0  0  0  0  0  0
   47.9690   32.1160   43.9930 H   0  0  0  0  0  0  0  0  0  0  0  0
   47.1280   31.4760   46.1490 H   0  0  0  0  0  0  0  0  0  0  0  0
   45.4710   35.4050   43.8380 H   0  0  0  0  0  0  0  0  0  0  0  0
   48.8380   31.6490   49.0600 C   0  0  0  0  0  0  0  0  0  0  0  0
   49.7330   32.5520   49.4230 O   0  0  0  0  0  0  0  0  0  0  0  0
   49.3980   30.2640   49.3700 C   0  0  0  0  0  0  0  0  0  0  0  0
   49.8450   29.9410   50.5800 N   0  0  0  0  0  0  0  0  0  0  0  0
   50.3490   28.7740   50.8960 C   0  0  0  0  0  3  0  0  0  0  0  0
   50.4480   27.8100   49.9900 N   0  0  0  0  0  0  0  0  0  0  0  0
   50.0160   28.0750   48.7510 C   0  0  0  0  0  0  0  0  0  0  0  0
   50.1400   27.0730   47.8370 C   0  0  0  0  0  3  0  0  0  0  0  0
   49.7450   27.2130   46.5100 C   0  0  0  0  0  0  0  0  0  0  0  0
   49.8670   26.3910   45.8350 H   0  0  0  0  0  0  0  0  0  0  0  0
   49.2140   28.4680   46.2020 C   0  0  0  0  0  0  0  0  0  0  0  0
   48.9170   28.5300   45.1420 H   0  0  0  0  0  0  0  0  0  0  0  0
   49.1110   29.4450   47.1630 C   0  0  0  0  0  3  0  0  0  0  0  0
   49.4990   29.2890   48.4500 C   0  0  0  0  0  0  0  0  0  0  0  0
  1  3  1  0  0  0  0
  1 16  1  0  0  0  0
  3  2  2  6  0  0  0
  3  4  1  0  0  0  0
  4  5  1  0  0  0  0
  6  3  1  0  0  0  0
  7  8  1  0  0  0  0
  8 14  1  0  0  0  0
  8  9  2  0  0  0  0
  9  6  1  0  0  0  0
 10  9  1  0  0  0  0
 11 10  2  0  0  0  0
 12 11  1  0  0  0  0
 12  7  2  0  0  0  0
 13  7  1  0  0  0  0
 15 11  1  0  0  0  0
 16 18  1  0  0  0  0
 16 17  2  0  0  0  0
 18 19  1  0  0  0  0
 19 20  2  0  0  0  0
 21 20  1  0  0  0  0
 22 21  2  0  0  0  0
 23 22  1  0  0  0  0
 24 23  2  0  0  0  0
 25 24  1  0  0  0  0
 26 24  1  0  0  0  0
 26 28  2  0  0  0  0
 27 26  1  0  0  0  0
 28 29  1  0  0  0  0
 29 22  1  0  0  0  0
 29 18  2  0  0  0  0
M  END
>  <minimizedAffinity>
-4.93425417

>  <minimizedRMSD>
1.38212335

$$$$
