
 OpenBabel03242519413D

 32 35  0  0  1  0  0  0  0  0999 V2000
   48.1290   32.8560   41.5970 O   0  0  0  0  0  0  0  0  0  0  0  0
   47.2380   34.0570   41.2440 P   0  0  2  0  0  0  0  0  0  0  0  0
   45.6570   33.8170   41.8750 O   0  0  0  0  0  0  0  0  0  0  0  0
   44.3990   35.8790   44.5650 C   0  0  0  0  0  0  0  0  0  0  0  0
   44.7010   35.4370   43.2590 C   0  0  0  0  0  0  0  0  0  0  0  0
   45.3740   34.2180   43.1450 C   0  0  0  0  0  0  0  0  0  0  0  0
   45.6990   33.5290   44.2670 N   0  0  0  0  0  0  0  0  0  0  0  0
   45.3940   33.9850   45.4940 C   0  0  0  0  0  0  0  0  0  0  0  0
   44.7450   35.1580   45.6500 N   0  0  0  0  0  0  0  0  0  0  0  0
   43.8790   36.8230   44.6710 H   0  0  0  0  0  0  0  0  0  0  0  0
   44.4260   36.0120   42.3920 H   0  0  0  0  0  0  0  0  0  0  0  0
   45.6970   33.3610   46.3310 H   0  0  0  0  0  0  0  0  0  0  0  0
   47.0710   34.1450   39.6070 O   0  0  0  0  0  0  0  0  0  0  0  0
   46.6730   33.3150   38.6710 C   0  0  1  0  0  3  0  0  0  0  0  0
   46.9950   33.6770   37.4150 O   0  0  0  0  0  0  0  0  0  0  0  0
   46.1410   32.2780   37.9040 C   0  0  2  0  0  0  0  0  0  0  0  0
   45.1200   32.3660   37.0310 N   0  0  0  0  0  2  0  0  0  0  0  0
   44.6120   31.3640   36.2850 C   0  0  0  0  0  3  0  0  0  0  0  0
   45.1690   30.1890   36.4220 N   0  0  0  0  0  0  0  0  0  0  0  0
   46.1800   29.8740   37.2160 C   0  0  0  0  0  0  0  0  0  0  0  0
   46.6560   28.5900   37.2420 C   0  0  0  0  0  3  0  0  0  0  0  0
   47.7120   28.3410   38.0860 C   0  0  0  0  0  0  0  0  0  0  0  0
   48.0890   27.3330   38.1100 H   0  0  0  0  0  0  0  0  0  0  0  0
   48.2440   29.3510   38.8550 C   0  0  0  0  0  0  0  0  0  0  0  0
   49.0710   29.1150   39.5030 H   0  0  0  0  0  0  0  0  0  0  0  0
   47.6860   30.6050   38.7480 C   0  0  0  0  0  3  0  0  0  0  0  0
   46.6210   30.9600   37.9290 C   0  0  0  0  0  0  0  0  0  0  0  0
   47.8330   35.4100   41.9770 O   0  0  0  0  0  0  0  0  0  0  0  0
   49.0700   35.7550   41.4510 C   0  0  0  0  0  0  0  0  0  0  0  0
   49.4200   37.0550   41.7980 F   0  0  0  0  0  0  0  0  0  0  0  0
   50.0230   34.8490   41.7930 F   0  0  0  0  0  0  0  0  0  0  0  0
   48.9180   35.7500   40.0760 F   0  0  0  0  0  0  0  0  0  0  0  0
  2  1  2  1  0  0  0
  2  3  1  0  0  0  0
  2 28  1  0  0  0  0
  3  6  1  0  0  0  0
  4 10  1  0  0  0  0
  4  9  1  0  0  0  0
  5  4  2  0  0  0  0
  6  5  1  0  0  0  0
  6  7  2  0  0  0  0
  7  8  1  0  0  0  0
  8  9  2  0  0  0  0
  8 12  1  0  0  0  0
 11  5  1  0  0  0  0
 13  2  1  0  0  0  0
 14 13  1  1  0  0  0
 15 16  1  0  0  0  0
 15 14  1  0  0  0  0
 16 17  1  6  0  0  0
 16 27  1  0  0  0  0
 16 14  1  0  0  0  0
 18 19  2  0  0  0  0
 18 17  1  0  0  0  0
 19 20  1  0  0  0  0
 20 21  2  0  0  0  0
 20 27  1  0  0  0  0
 21 22  1  0  0  0  0
 22 23  1  0  0  0  0
 22 24  2  0  0  0  0
 24 25  1  0  0  0  0
 26 24  1  0  0  0  0
 27 26  2  0  0  0  0
 29 31  1  0  0  0  0
 29 30  1  0  0  0  0
 29 28  1  0  0  0  0
 32 29  1  0  0  0  0
M  END
>  <minimizedAffinity>
-5.12714052

>  <minimizedRMSD>
0.548971295

$$$$
