
 OpenBabel03242519413D

 32 35  0  0  1  0  0  0  0  0999 V2000
   48.0120   32.8420   41.9810 O   0  0  0  0  0  0  0  0  0  0  0  0
   47.1210   33.9400   41.3780 P   0  0  2  0  0  0  0  0  0  0  0  0
   45.5260   33.8080   42.0070 O   0  0  0  0  0  0  0  0  0  0  0  0
   44.3750   35.9540   44.6800 C   0  0  0  0  0  0  0  0  0  0  0  0
   44.6500   35.4850   43.3770 C   0  0  0  0  0  0  0  0  0  0  0  0
   45.2680   34.2350   43.2740 C   0  0  0  0  0  0  0  0  0  0  0  0
   45.5680   33.5450   44.4020 N   0  0  0  0  0  0  0  0  0  0  0  0
   45.2890   34.0280   45.6250 C   0  0  0  0  0  0  0  0  0  0  0  0
   44.6940   35.2300   45.7710 N   0  0  0  0  0  0  0  0  0  0  0  0
   43.8980   36.9210   44.7770 H   0  0  0  0  0  0  0  0  0  0  0  0
   44.3970   36.0610   42.5050 H   0  0  0  0  0  0  0  0  0  0  0  0
   45.5690   33.4000   46.4680 H   0  0  0  0  0  0  0  0  0  0  0  0
   46.9940   33.7040   39.7520 O   0  0  0  0  0  0  0  0  0  0  0  0
   47.5380   32.8740   38.8920 C   0  0  1  0  0  3  0  0  0  0  0  0
   48.8510   33.0670   38.6670 O   0  0  0  0  0  0  0  0  0  0  0  0
   47.8430   31.8770   37.9640 C   0  0  1  0  0  0  0  0  0  0  0  0
   48.7940   30.9320   38.0830 N   0  0  0  0  0  2  0  0  0  0  0  0
   49.0800   29.9650   37.1880 C   0  0  0  0  0  3  0  0  0  0  0  0
   48.3630   29.9440   36.0950 N   0  0  0  0  0  0  0  0  0  0  0  0
   47.3800   30.7700   35.7700 C   0  0  0  0  0  0  0  0  0  0  0  0
   46.7170   30.6110   34.5840 C   0  0  0  0  0  3  0  0  0  0  0  0
   45.7060   31.5030   34.3180 C   0  0  0  0  0  0  0  0  0  0  0  0
   45.1810   31.3820   33.3860 H   0  0  0  0  0  0  0  0  0  0  0  0
   45.3970   32.4960   35.2200 C   0  0  0  0  0  0  0  0  0  0  0  0
   44.5980   33.1740   34.9760 H   0  0  0  0  0  0  0  0  0  0  0  0
   46.1310   32.5610   36.3830 C   0  0  0  0  0  3  0  0  0  0  0  0
   47.1700   31.7120   36.7440 C   0  0  0  0  0  0  0  0  0  0  0  0
   47.6860   35.4170   41.8450 O   0  0  0  0  0  0  0  0  0  0  0  0
   48.9530   35.6480   41.3290 C   0  0  0  0  0  0  0  0  0  0  0  0
   49.4830   36.8410   41.8090 F   0  0  0  0  0  0  0  0  0  0  0  0
   49.7760   34.5890   41.5430 F   0  0  0  0  0  0  0  0  0  0  0  0
   48.7880   35.8200   39.9660 F   0  0  0  0  0  0  0  0  0  0  0  0
  2 28  1  0  0  0  0
  2  1  2  1  0  0  0
  2  3  1  0  0  0  0
  3  6  1  0  0  0  0
  4 10  1  0  0  0  0
  4  9  1  0  0  0  0
  5  4  2  0  0  0  0
  6  5  1  0  0  0  0
  6  7  2  0  0  0  0
  7  8  1  0  0  0  0
  8  9  2  0  0  0  0
  8 12  1  0  0  0  0
 11  5  1  0  0  0  0
 13  2  1  0  0  0  0
 14 13  1  1  0  0  0
 15 14  1  0  0  0  0
 16 27  1  6  0  0  0
 16 17  1  0  0  0  0
 16 15  1  0  0  0  0
 16 14  1  0  0  0  0
 18 17  1  0  0  0  0
 19 18  2  0  0  0  0
 20 19  1  0  0  0  0
 20 27  1  0  0  0  0
 21 20  2  0  0  0  0
 22 21  1  0  0  0  0
 22 24  2  0  0  0  0
 23 22  1  0  0  0  0
 24 26  1  0  0  0  0
 25 24  1  0  0  0  0
 26 27  2  0  0  0  0
 29 31  1  0  0  0  0
 29 30  1  0  0  0  0
 29 28  1  0  0  0  0
 32 29  1  0  0  0  0
M  END
>  <minimizedAffinity>
-5.39320087

>  <minimizedRMSD>
1.8683064

$$$$
