
 OpenBabel03242519433D

 32 35  0  0  1  0  0  0  0  0999 V2000
   37.7630   28.9420   38.0400 O   0  0  0  0  0  0  0  0  0  0  0  0
   36.7240   29.9160   38.6190 P   0  0  2  0  0  0  0  0  0  0  0  0
   37.1420   31.5310   38.2030 O   0  0  0  0  0  0  0  0  0  0  0  0
   38.4910   34.0230   40.4500 C   0  0  0  0  0  0  0  0  0  0  0  0
   37.5640   33.3050   39.6620 C   0  0  0  0  0  0  0  0  0  0  0  0
   38.0560   32.2030   38.9580 C   0  0  0  0  0  0  0  0  0  0  0  0
   39.3680   31.8770   39.0600 N   0  0  0  0  0  0  0  0  0  0  0  0
   40.2180   32.5870   39.8210 C   0  0  0  0  0  0  0  0  0  0  0  0
   39.7870   33.6600   40.5180 N   0  0  0  0  0  0  0  0  0  0  0  0
   38.1270   34.8810   41.0010 H   0  0  0  0  0  0  0  0  0  0  0  0
   36.5290   33.5930   39.6070 H   0  0  0  0  0  0  0  0  0  0  0  0
   41.2510   32.2470   39.8380 H   0  0  0  0  0  0  0  0  0  0  0  0
   36.7670   29.8390   40.2650 O   0  0  0  0  0  0  0  0  0  0  0  0
   37.4660   29.1560   41.1420 C   0  0  1  0  0  3  0  0  0  0  0  0
   37.2620   29.5020   42.4260 O   0  0  0  0  0  0  0  0  0  0  0  0
   38.3130   28.2900   41.8340 C   0  0  2  0  0  0  0  0  0  0  0  0
   39.3720   28.6350   42.5890 N   0  0  0  0  0  2  0  0  0  0  0  0
   40.1850   27.7980   43.2650 C   0  0  0  0  0  3  0  0  0  0  0  0
   39.9170   26.5220   43.1770 N   0  0  0  0  0  0  0  0  0  0  0  0
   38.9310   25.9590   42.4950 C   0  0  0  0  0  0  0  0  0  0  0  0
   38.7800   24.5980   42.5080 C   0  0  0  0  0  3  0  0  0  0  0  0
   37.7300   24.0890   41.7830 C   0  0  0  0  0  0  0  0  0  0  0  0
   37.6070   23.0180   41.7900 H   0  0  0  0  0  0  0  0  0  0  0  0
   36.8890   24.9270   41.0890 C   0  0  0  0  0  0  0  0  0  0  0  0
   36.0780   24.4880   40.5330 H   0  0  0  0  0  0  0  0  0  0  0  0
   37.1360   26.2800   41.1470 C   0  0  0  0  0  3  0  0  0  0  0  0
   38.1660   26.8940   41.8470 C   0  0  0  0  0  0  0  0  0  0  0  0
   35.2570   29.6210   37.9260 O   0  0  0  0  0  0  0  0  0  0  0  0
   34.5480   28.6740   38.6530 C   0  0  0  0  0  0  0  0  0  0  0  0
   35.3070   27.5280   38.8630 F   0  0  0  0  0  0  0  0  0  0  0  0
   34.0640   29.1980   39.8090 F   0  0  0  0  0  0  0  0  0  0  0  0
   33.4860   28.2930   37.8530 F   0  0  0  0  0  0  0  0  0  0  0  0
  2  1  2  6  0  0  0
  2 13  1  0  0  0  0
  3  2  1  0  0  0  0
  3  6  1  0  0  0  0
  4  9  1  0  0  0  0
  4 10  1  0  0  0  0
  5  4  2  0  0  0  0
  6  7  2  0  0  0  0
  6  5  1  0  0  0  0
  7  8  1  0  0  0  0
  8 12  1  0  0  0  0
  8  9  2  0  0  0  0
 11  5  1  0  0  0  0
 14 13  1  1  0  0  0
 14 16  1  0  0  0  0
 14 15  1  0  0  0  0
 16 27  1  1  0  0  0
 16 15  1  0  0  0  0
 16 17  1  0  0  0  0
 17 18  1  0  0  0  0
 19 18  2  0  0  0  0
 20 21  1  0  0  0  0
 20 19  1  0  0  0  0
 22 23  1  0  0  0  0
 22 21  2  0  0  0  0
 24 26  2  0  0  0  0
 24 22  1  0  0  0  0
 25 24  1  0  0  0  0
 26 27  1  0  0  0  0
 27 20  2  0  0  0  0
 28  2  1  0  0  0  0
 28 29  1  0  0  0  0
 29 30  1  0  0  0  0
 29 31  1  0  0  0  0
 32 29  1  0  0  0  0
M  END
>  <minimizedAffinity>
-5.63315153

$$$$

 OpenBabel03242519433D

 32 35  0  0  1  0  0  0  0  0999 V2000
   39.2150   29.9420   38.5390 O   0  0  0  0  0  0  0  0  0  0  0  0
   39.1040   30.9850   39.6630 P   0  0  2  0  0  0  0  0  0  0  0  0
   40.6730   31.5100   40.1300 O   0  0  0  0  0  0  0  0  0  0  0  0
   42.8390   34.1610   38.9680 C   0  0  0  0  0  0  0  0  0  0  0  0
   42.0710   33.3580   39.8380 C   0  0  0  0  0  0  0  0  0  0  0  0
   41.4100   32.2650   39.2700 C   0  0  0  0  0  0  0  0  0  0  0  0
   41.5340   32.0290   37.9400 N   0  0  0  0  0  0  0  0  0  0  0  0
   42.2760   32.8190   37.1450 C   0  0  0  0  0  0  0  0  0  0  0  0
   42.9300   33.8860   37.6510 N   0  0  0  0  0  0  0  0  0  0  0  0
   43.3560   35.0130   39.3920 H   0  0  0  0  0  0  0  0  0  0  0  0
   41.9970   33.5760   40.8890 H   0  0  0  0  0  0  0  0  0  0  0  0
   42.3130   32.5480   36.0920 H   0  0  0  0  0  0  0  0  0  0  0  0
   38.4400   30.2780   40.9950 O   0  0  0  0  0  0  0  0  0  0  0  0
   38.7480   29.2450   41.7460 C   0  0  1  0  0  3  0  0  0  0  0  0
   38.5130   29.4070   43.0610 O   0  0  0  0  0  0  0  0  0  0  0  0
   39.1550   28.0240   42.2850 C   0  0  2  0  0  0  0  0  0  0  0  0
   40.1680   27.8250   43.1490 N   0  0  0  0  0  2  0  0  0  0  0  0
   40.5550   26.6460   43.6760 C   0  0  0  0  0  3  0  0  0  0  0  0
   39.8780   25.5890   43.3110 N   0  0  0  0  0  0  0  0  0  0  0  0
   38.8500   25.5490   42.4770 C   0  0  0  0  0  0  0  0  0  0  0  0
   38.2410   24.3560   42.1990 C   0  0  0  0  0  3  0  0  0  0  0  0
   37.1760   24.3960   41.3310 C   0  0  0  0  0  0  0  0  0  0  0  0
   36.6940   23.4580   41.1090 H   0  0  0  0  0  0  0  0  0  0  0  0
   36.7660   25.5890   40.7840 C   0  0  0  0  0  0  0  0  0  0  0  0
   35.9280   25.5770   40.1080 H   0  0  0  0  0  0  0  0  0  0  0  0
   37.4530   26.7290   41.1350 C   0  0  0  0  0  3  0  0  0  0  0  0
   38.5380   26.7960   42.0000 C   0  0  0  0  0  0  0  0  0  0  0  0
   38.3160   32.3170   39.0930 O   0  0  0  0  0  0  0  0  0  0  0  0
   37.5940   32.9360   40.1030 C   0  0  0  0  0  0  0  0  0  0  0  0
   36.6380   32.0790   40.6370 F   0  0  0  0  0  0  0  0  0  0  0  0
   38.4160   33.4560   41.0520 F   0  0  0  0  0  0  0  0  0  0  0  0
   36.8960   33.9670   39.5000 F   0  0  0  0  0  0  0  0  0  0  0  0
  2  1  2  6  0  0  0
  2  3  1  0  0  0  0
  2 13  1  0  0  0  0
  4 10  1  0  0  0  0
  4  5  1  0  0  0  0
  5 11  1  0  0  0  0
  6  5  2  0  0  0  0
  6  3  1  0  0  0  0
  7  6  1  0  0  0  0
  8  9  1  0  0  0  0
  8  7  2  0  0  0  0
  9  4  2  0  0  0  0
 12  8  1  0  0  0  0
 14 13  1  6  0  0  0
 14 16  1  0  0  0  0
 14 15  1  0  0  0  0
 16 27  1  6  0  0  0
 16 15  1  0  0  0  0
 16 17  1  0  0  0  0
 17 18  1  0  0  0  0
 19 18  2  0  0  0  0
 20 19  1  0  0  0  0
 21 20  1  0  0  0  0
 22 21  2  0  0  0  0
 23 22  1  0  0  0  0
 24 26  2  0  0  0  0
 24 22  1  0  0  0  0
 25 24  1  0  0  0  0
 26 27  1  0  0  0  0
 27 20  2  0  0  0  0
 28  2  1  0  0  0  0
 28 29  1  0  0  0  0
 29 30  1  0  0  0  0
 29 31  1  0  0  0  0
 32 29  1  0  0  0  0
M  END
>  <minimizedAffinity>
-5.39207125

$$$$

 OpenBabel03242519433D

 32 35  0  0  1  0  0  0  0  0999 V2000
   37.9710   29.2450   39.4440 O   0  0  0  0  0  0  0  0  0  0  0  0
   37.2120   30.0170   40.5360 P   0  0  2  0  0  0  0  0  0  0  0  0
   37.9480   31.5510   40.7840 O   0  0  0  0  0  0  0  0  0  0  0  0
   40.5260   32.6920   38.5200 C   0  0  0  0  0  0  0  0  0  0  0  0
   39.2440   32.4420   39.0580 C   0  0  0  0  0  0  0  0  0  0  0  0
   39.1950   31.7840   40.2900 C   0  0  0  0  0  0  0  0  0  0  0  0
   40.3510   31.4260   40.9010 N   0  0  0  0  0  0  0  0  0  0  0  0
   41.5530   31.6830   40.3550 C   0  0  0  0  0  0  0  0  0  0  0  0
   41.6470   32.3140   39.1660 N   0  0  0  0  0  0  0  0  0  0  0  0
   40.5810   33.1990   37.5650 H   0  0  0  0  0  0  0  0  0  0  0  0
   38.3480   32.7420   38.5440 H   0  0  0  0  0  0  0  0  0  0  0  0
   42.4210   31.3560   40.9210 H   0  0  0  0  0  0  0  0  0  0  0  0
   37.3450   29.2070   41.9650 O   0  0  0  0  0  0  0  0  0  0  0  0
   37.9100   28.0830   42.3430 C   0  0  1  0  0  3  0  0  0  0  0  0
   37.9720   27.8990   43.6750 O   0  0  0  0  0  0  0  0  0  0  0  0
   38.5390   26.8430   42.4540 C   0  0  2  0  0  0  0  0  0  0  0  0
   39.5970   26.5450   43.2320 N   0  0  0  0  0  2  0  0  0  0  0  0
   40.1990   25.3440   43.3440 C   0  0  0  0  0  3  0  0  0  0  0  0
   39.7060   24.3710   42.6240 N   0  0  0  0  0  0  0  0  0  0  0  0
   38.6760   24.4350   41.7940 C   0  0  0  0  0  0  0  0  0  0  0  0
   38.2770   23.3170   41.1130 C   0  0  0  0  0  3  0  0  0  0  0  0
   37.1960   23.4600   40.2750 C   0  0  0  0  0  0  0  0  0  0  0  0
   36.8780   22.5830   39.7370 H   0  0  0  0  0  0  0  0  0  0  0  0
   36.5680   24.6770   40.1490 C   0  0  0  0  0  0  0  0  0  0  0  0
   35.7250   24.7470   39.4830 H   0  0  0  0  0  0  0  0  0  0  0  0
   37.0560   25.7340   40.8830 C   0  0  0  0  0  3  0  0  0  0  0  0
   38.1380   25.6950   41.7540 C   0  0  0  0  0  0  0  0  0  0  0  0
   35.6740   30.3150   40.0220 O   0  0  0  0  0  0  0  0  0  0  0  0
   35.0910   29.1640   39.5110 C   0  0  0  0  0  0  0  0  0  0  0  0
   33.7030   29.2540   39.5240 F   0  0  0  0  0  0  0  0  0  0  0  0
   35.5820   28.8630   38.2810 F   0  0  0  0  0  0  0  0  0  0  0  0
   35.4190   28.1450   40.3870 F   0  0  0  0  0  0  0  0  0  0  0  0
  2  1  2  6  0  0  0
  2  3  1  0  0  0  0
  2 13  1  0  0  0  0
  4  5  2  0  0  0  0
  4  9  1  0  0  0  0
  5  6  1  0  0  0  0
  6  3  1  0  0  0  0
  6  7  2  0  0  0  0
  8  7  1  0  0  0  0
  8 12  1  0  0  0  0
  9  8  2  0  0  0  0
 10  4  1  0  0  0  0
 11  5  1  0  0  0  0
 14 13  1  6  0  0  0
 14 16  1  0  0  0  0
 14 15  1  0  0  0  0
 16 27  1  6  0  0  0
 16 17  1  0  0  0  0
 16 15  1  0  0  0  0
 17 18  1  0  0  0  0
 19 18  2  0  0  0  0
 20 19  1  0  0  0  0
 21 20  2  0  0  0  0
 22 21  1  0  0  0  0
 23 22  1  0  0  0  0
 24 22  2  0  0  0  0
 24 26  1  0  0  0  0
 25 24  1  0  0  0  0
 26 27  2  0  0  0  0
 27 20  1  0  0  0  0
 28  2  1  0  0  0  0
 29 30  1  0  0  0  0
 29 28  1  0  0  0  0
 29 32  1  0  0  0  0
 31 29  1  0  0  0  0
M  END
>  <minimizedAffinity>
-5.21142769

$$$$

 OpenBabel03242519433D

 32 35  0  0  1  0  0  0  0  0999 V2000
   40.1890   32.2610   37.5230 O   0  0  0  0  0  0  0  0  0  0  0  0
   39.5460   31.5120   38.7020 P   0  0  2  0  0  0  0  0  0  0  0  0
   40.7650   30.9830   39.7920 O   0  0  0  0  0  0  0  0  0  0  0  0
   42.9340   33.5830   41.0600 C   0  0  0  0  0  0  0  0  0  0  0  0
   41.7850   32.7840   40.8730 C   0  0  0  0  0  0  0  0  0  0  0  0
   41.8880   31.7340   39.9570 C   0  0  0  0  0  0  0  0  0  0  0  0
   43.0600   31.5320   39.3050 N   0  0  0  0  0  0  0  0  0  0  0  0
   44.1320   32.3160   39.5110 C   0  0  0  0  0  0  0  0  0  0  0  0
   44.0760   33.3420   40.3860 N   0  0  0  0  0  0  0  0  0  0  0  0
   42.8700   34.4010   41.7660 H   0  0  0  0  0  0  0  0  0  0  0  0
   40.8720   32.9750   41.4100 H   0  0  0  0  0  0  0  0  0  0  0  0
   45.0250   32.0740   38.9400 H   0  0  0  0  0  0  0  0  0  0  0  0
   38.8080   30.1490   38.1400 O   0  0  0  0  0  0  0  0  0  0  0  0
   38.1560   29.1540   38.6950 C   0  0  1  0  0  3  0  0  0  0  0  0
   36.9140   28.9510   38.2170 O   0  0  0  0  0  0  0  0  0  0  0  0
   37.7110   28.0640   39.4430 C   0  0  1  0  0  0  0  0  0  0  0  0
   37.3350   26.8620   38.9670 N   0  0  0  0  0  2  0  0  0  0  0  0
   36.9130   25.8070   39.6930 C   0  0  0  0  0  3  0  0  0  0  0  0
   36.8630   25.9670   40.9890 N   0  0  0  0  0  0  0  0  0  0  0  0
   37.1830   27.0570   41.6700 C   0  0  0  0  0  0  0  0  0  0  0  0
   37.0800   27.0640   43.0350 C   0  0  0  0  0  3  0  0  0  0  0  0
   37.4370   28.2290   43.6730 C   0  0  0  0  0  0  0  0  0  0  0  0
   37.3580   28.2390   44.7470 H   0  0  0  0  0  0  0  0  0  0  0  0
   37.8720   29.3150   42.9500 C   0  0  0  0  0  0  0  0  0  0  0  0
   38.1420   30.2080   43.4880 H   0  0  0  0  0  0  0  0  0  0  0  0
   37.9350   29.1940   41.5800 C   0  0  0  0  0  3  0  0  0  0  0  0
   37.5980   28.0670   40.8420 C   0  0  0  0  0  0  0  0  0  0  0  0
   38.5830   32.5510   39.5450 O   0  0  0  0  0  0  0  0  0  0  0  0
   37.3010   32.5820   39.0140 C   0  0  0  0  0  0  0  0  0  0  0  0
   37.3210   32.3740   37.6390 F   0  0  0  0  0  0  0  0  0  0  0  0
   36.4760   31.7170   39.6590 F   0  0  0  0  0  0  0  0  0  0  0  0
   36.8380   33.8710   39.2030 F   0  0  0  0  0  0  0  0  0  0  0  0
  2  1  2  6  0  0  0
  2 28  1  0  0  0  0
  2  3  1  0  0  0  0
  3  6  1  0  0  0  0
  4 10  1  0  0  0  0
  5  4  1  0  0  0  0
  5 11  1  0  0  0  0
  6  5  2  0  0  0  0
  7  8  2  0  0  0  0
  7  6  1  0  0  0  0
  8  9  1  0  0  0  0
  9  4  2  0  0  0  0
 12  8  1  0  0  0  0
 13  2  1  0  0  0  0
 14 13  1  6  0  0  0
 14 16  1  0  0  0  0
 15 14  1  0  0  0  0
 16 15  1  6  0  0  0
 16 27  1  0  0  0  0
 17 16  1  0  0  0  0
 17 18  1  0  0  0  0
 18 19  2  0  0  0  0
 19 20  1  0  0  0  0
 20 21  1  0  0  0  0
 21 22  2  0  0  0  0
 22 23  1  0  0  0  0
 24 25  1  0  0  0  0
 24 22  1  0  0  0  0
 26 24  2  0  0  0  0
 27 26  1  0  0  0  0
 27 20  2  0  0  0  0
 29 32  1  0  0  0  0
 29 28  1  0  0  0  0
 29 31  1  0  0  0  0
 30 29  1  0  0  0  0
M  END
>  <minimizedAffinity>
-5.20939779

$$$$

 OpenBabel03242519433D

 32 35  0  0  1  0  0  0  0  0999 V2000
   37.1520   27.2690   39.5180 O   0  0  0  0  0  0  0  0  0  0  0  0
   36.9670   28.5250   40.3850 P   0  0  2  0  0  0  0  0  0  0  0  0
   36.0610   29.7030   39.5190 O   0  0  0  0  0  0  0  0  0  0  0  0
   36.6770   29.8730   35.9600 C   0  0  0  0  0  0  0  0  0  0  0  0
   36.8680   30.0240   37.3510 C   0  0  0  0  0  0  0  0  0  0  0  0
   35.8540   29.5410   38.1830 C   0  0  0  0  0  0  0  0  0  0  0  0
   34.7600   28.9610   37.6330 N   0  0  0  0  0  0  0  0  0  0  0  0
   34.6160   28.8360   36.3020 C   0  0  0  0  0  0  0  0  0  0  0  0
   35.5690   29.2890   35.4610 N   0  0  0  0  0  0  0  0  0  0  0  0
   37.4520   30.2430   35.3010 H   0  0  0  0  0  0  0  0  0  0  0  0
   37.7510   30.4900   37.7520 H   0  0  0  0  0  0  0  0  0  0  0  0
   33.7020   28.3560   35.9570 H   0  0  0  0  0  0  0  0  0  0  0  0
   38.4400   29.2020   40.6800 O   0  0  0  0  0  0  0  0  0  0  0  0
   38.9280   30.4200   40.6200 C   0  0  1  0  0  3  0  0  0  0  0  0
   39.4030   30.9000   41.7840 O   0  0  0  0  0  0  0  0  0  0  0  0
   39.3720   31.6950   40.2700 C   0  0  2  0  0  0  0  0  0  0  0  0
   39.0330   32.8550   40.8630 N   0  0  0  0  0  2  0  0  0  0  0  0
   39.4700   34.0860   40.5290 C   0  0  0  0  0  3  0  0  0  0  0  0
   40.3080   34.1610   39.5280 N   0  0  0  0  0  0  0  0  0  0  0  0
   40.7760   33.1560   38.8030 C   0  0  0  0  0  0  0  0  0  0  0  0
   41.6570   33.4000   37.7840 C   0  0  0  0  0  3  0  0  0  0  0  0
   42.1040   32.3060   37.0820 C   0  0  0  0  0  0  0  0  0  0  0  0
   42.7970   32.4930   36.2800 H   0  0  0  0  0  0  0  0  0  0  0  0
   41.6710   31.0420   37.4100 C   0  0  0  0  0  0  0  0  0  0  0  0
   42.0450   30.2120   36.8350 H   0  0  0  0  0  0  0  0  0  0  0  0
   40.7830   30.9150   38.4540 C   0  0  0  0  0  3  0  0  0  0  0  0
   40.2720   31.9520   39.2230 C   0  0  0  0  0  0  0  0  0  0  0  0
   36.0760   28.1390   41.7180 O   0  0  0  0  0  0  0  0  0  0  0  0
   36.8990   27.8090   42.7850 C   0  0  0  0  0  0  0  0  0  0  0  0
   37.9170   26.9490   42.3890 F   0  0  0  0  0  0  0  0  0  0  0  0
   37.3690   28.9200   43.4100 F   0  0  0  0  0  0  0  0  0  0  0  0
   36.1130   27.0940   43.6700 F   0  0  0  0  0  0  0  0  0  0  0  0
  2  1  2  6  0  0  0
  2 13  1  0  0  0  0
  2 28  1  0  0  0  0
  3  2  1  0  0  0  0
  4  5  1  0  0  0  0
  5 11  1  0  0  0  0
  5  6  2  0  0  0  0
  6  3  1  0  0  0  0
  7  6  1  0  0  0  0
  8  7  2  0  0  0  0
  9  4  2  0  0  0  0
  9  8  1  0  0  0  0
 10  4  1  0  0  0  0
 12  8  1  0  0  0  0
 14 13  1  6  0  0  0
 14 15  1  0  0  0  0
 16 27  1  6  0  0  0
 16 14  1  0  0  0  0
 16 17  1  0  0  0  0
 16 15  1  0  0  0  0
 18 17  1  0  0  0  0
 19 18  2  0  0  0  0
 20 27  1  0  0  0  0
 20 19  1  0  0  0  0
 21 20  2  0  0  0  0
 22 24  2  0  0  0  0
 22 21  1  0  0  0  0
 23 22  1  0  0  0  0
 24 26  1  0  0  0  0
 25 24  1  0  0  0  0
 26 27  2  0  0  0  0
 28 29  1  0  0  0  0
 29 31  1  0  0  0  0
 29 32  1  0  0  0  0
 30 29  1  0  0  0  0
M  END
>  <minimizedAffinity>
-5.15061903

$$$$

 OpenBabel03242519433D

 32 35  0  0  1  0  0  0  0  0999 V2000
   36.1950   23.9720   40.3220 O   0  0  0  0  0  0  0  0  0  0  0  0
   37.1000   25.2140   40.3650 P   0  0  2  0  0  0  0  0  0  0  0  0
   37.6690   25.4660   41.9680 O   0  0  0  0  0  0  0  0  0  0  0  0
   37.4220   28.6510   43.6600 C   0  0  0  0  0  0  0  0  0  0  0  0
   37.1000   27.3440   43.2320 C   0  0  0  0  0  0  0  0  0  0  0  0
   38.0060   26.7220   42.3690 C   0  0  0  0  0  0  0  0  0  0  0  0
   39.1280   27.3830   41.9920 N   0  0  0  0  0  0  0  0  0  0  0  0
   39.3980   28.6270   42.4230 C   0  0  0  0  0  0  0  0  0  0  0  0
   38.5500   29.2660   43.2560 N   0  0  0  0  0  0  0  0  0  0  0  0
   36.7290   29.1470   44.3280 H   0  0  0  0  0  0  0  0  0  0  0  0
   36.1990   26.8510   43.5530 H   0  0  0  0  0  0  0  0  0  0  0  0
   40.3230   29.0730   42.0640 H   0  0  0  0  0  0  0  0  0  0  0  0
   36.2110   26.5460   39.9780 O   0  0  0  0  0  0  0  0  0  0  0  0
   36.3010   27.4870   39.0660 C   0  0  1  0  0  3  0  0  0  0  0  0
   35.4150   27.3890   38.0580 O   0  0  0  0  0  0  0  0  0  0  0  0
   36.6180   28.5860   38.2680 C   0  0  2  0  0  0  0  0  0  0  0  0
   36.7600   28.5940   36.9290 N   0  0  0  0  0  2  0  0  0  0  0  0
   37.0580   29.6590   36.1590 C   0  0  0  0  0  3  0  0  0  0  0  0
   37.2270   30.8000   36.7740 N   0  0  0  0  0  0  0  0  0  0  0  0
   37.1370   31.0250   38.0760 C   0  0  0  0  0  0  0  0  0  0  0  0
   37.3370   32.2870   38.5670 C   0  0  0  0  0  3  0  0  0  0  0  0
   37.2200   32.4440   39.9280 C   0  0  0  0  0  0  0  0  0  0  0  0
   37.3770   33.4350   40.3190 H   0  0  0  0  0  0  0  0  0  0  0  0
   36.9140   31.3690   40.7300 C   0  0  0  0  0  0  0  0  0  0  0  0
   36.8310   31.5340   41.7910 H   0  0  0  0  0  0  0  0  0  0  0  0
   36.7340   30.1450   40.1270 C   0  0  0  0  0  3  0  0  0  0  0  0
   36.8300   29.8810   38.7670 C   0  0  0  0  0  0  0  0  0  0  0  0
   38.4330   24.9470   39.4320 O   0  0  0  0  0  0  0  0  0  0  0  0
   39.2390   23.9640   39.9890 C   0  0  0  0  0  0  0  0  0  0  0  0
   38.5330   23.1930   40.9050 F   0  0  0  0  0  0  0  0  0  0  0  0
   39.8400   23.2140   39.0290 F   0  0  0  0  0  0  0  0  0  0  0  0
   40.2120   24.6300   40.7130 F   0  0  0  0  0  0  0  0  0  0  0  0
  2  1  2  6  0  0  0
  2  3  1  0  0  0  0
  3  6  1  0  0  0  0
  4 10  1  0  0  0  0
  5 11  1  0  0  0  0
  5  4  2  0  0  0  0
  6  5  1  0  0  0  0
  7  6  2  0  0  0  0
  7  8  1  0  0  0  0
  8  9  2  0  0  0  0
  9  4  1  0  0  0  0
 12  8  1  0  0  0  0
 13  2  1  0  0  0  0
 14 13  1  1  0  0  0
 15 16  1  0  0  0  0
 15 14  1  0  0  0  0
 16 17  1  6  0  0  0
 16 27  1  0  0  0  0
 16 14  1  0  0  0  0
 18 19  2  0  0  0  0
 18 17  1  0  0  0  0
 19 20  1  0  0  0  0
 20 21  2  0  0  0  0
 20 27  1  0  0  0  0
 21 22  1  0  0  0  0
 22 23  1  0  0  0  0
 22 24  2  0  0  0  0
 24 25  1  0  0  0  0
 26 24  1  0  0  0  0
 27 26  2  0  0  0  0
 28 29  1  0  0  0  0
 28  2  1  0  0  0  0
 29 32  1  0  0  0  0
 29 30  1  0  0  0  0
 31 29  1  0  0  0  0
M  END
>  <minimizedAffinity>
-5.13830996

$$$$

 OpenBabel03242519433D

 32 35  0  0  1  0  0  0  0  0999 V2000
   39.7480   29.7210   39.5330 O   0  0  0  0  0  0  0  0  0  0  0  0
   38.6790   30.4480   40.3660 P   0  0  2  0  0  0  0  0  0  0  0  0
   39.0870   30.3730   42.0340 O   0  0  0  0  0  0  0  0  0  0  0  0
   41.1550   27.6300   43.1620 C   0  0  0  0  0  0  0  0  0  0  0  0
   40.7830   28.8690   42.5960 C   0  0  0  0  0  0  0  0  0  0  0  0
   39.4190   29.1750   42.5900 C   0  0  0  0  0  0  0  0  0  0  0  0
   38.5350   28.2920   43.1160 N   0  0  0  0  0  0  0  0  0  0  0  0
   38.9310   27.1220   43.6460 C   0  0  0  0  0  0  0  0  0  0  0  0
   40.2370   26.7850   43.6720 N   0  0  0  0  0  0  0  0  0  0  0  0
   42.2080   27.3770   43.1740 H   0  0  0  0  0  0  0  0  0  0  0  0
   41.5140   29.5450   42.1880 H   0  0  0  0  0  0  0  0  0  0  0  0
   38.1470   26.4810   44.0430 H   0  0  0  0  0  0  0  0  0  0  0  0
   37.2400   29.6600   40.2080 O   0  0  0  0  0  0  0  0  0  0  0  0
   36.7840   28.7160   39.4180 C   0  0  1  0  0  3  0  0  0  0  0  0
   36.5760   29.0930   38.1420 O   0  0  0  0  0  0  0  0  0  0  0  0
   36.3130   27.5450   38.8220 C   0  0  2  0  0  0  0  0  0  0  0  0
   35.7490   27.4340   37.6040 N   0  0  0  0  0  2  0  0  0  0  0  0
   35.3020   26.3010   37.0270 C   0  0  0  0  0  3  0  0  0  0  0  0
   35.4280   25.1990   37.7190 N   0  0  0  0  0  0  0  0  0  0  0  0
   35.9490   25.0740   38.9300 C   0  0  0  0  0  0  0  0  0  0  0  0
   36.0140   23.8410   39.5220 C   0  0  0  0  0  3  0  0  0  0  0  0
   36.5750   23.7900   40.7760 C   0  0  0  0  0  0  0  0  0  0  0  0
   36.6280   22.8220   41.2460 H   0  0  0  0  0  0  0  0  0  0  0  0
   37.0380   24.9340   41.3810 C   0  0  0  0  0  0  0  0  0  0  0  0
   37.4710   24.8510   42.3640 H   0  0  0  0  0  0  0  0  0  0  0  0
   36.9210   26.1210   40.6920 C   0  0  0  0  0  3  0  0  0  0  0  0
   36.3720   26.2800   39.4260 C   0  0  0  0  0  0  0  0  0  0  0  0
   38.6680   32.0460   39.9590 O   0  0  0  0  0  0  0  0  0  0  0  0
   37.3700   32.5290   39.8810 C   0  0  0  0  0  0  0  0  0  0  0  0
   36.5530   31.9360   40.8380 F   0  0  0  0  0  0  0  0  0  0  0  0
   37.3410   33.8860   39.9400 F   0  0  0  0  0  0  0  0  0  0  0  0
   36.8810   32.1220   38.6520 F   0  0  0  0  0  0  0  0  0  0  0  0
  2  1  2  6  0  0  0
  2  3  1  0  0  0  0
  3  6  1  0  0  0  0
  4 10  1  0  0  0  0
  4  9  1  0  0  0  0
  5  4  2  0  0  0  0
  6  5  1  0  0  0  0
  6  7  2  0  0  0  0
  7  8  1  0  0  0  0
  8  9  2  0  0  0  0
  8 12  1  0  0  0  0
 11  5  1  0  0  0  0
 13  2  1  0  0  0  0
 14 13  1  6  0  0  0
 15 16  1  0  0  0  0
 15 14  1  0  0  0  0
 16 17  1  1  0  0  0
 16 14  1  0  0  0  0
 16 27  1  0  0  0  0
 18 17  1  0  0  0  0
 18 19  2  0  0  0  0
 19 20  1  0  0  0  0
 20 27  2  0  0  0  0
 20 21  1  0  0  0  0
 21 22  2  0  0  0  0
 22 23  1  0  0  0  0
 22 24  1  0  0  0  0
 24 25  1  0  0  0  0
 26 24  2  0  0  0  0
 27 26  1  0  0  0  0
 28  2  1  0  0  0  0
 29 31  1  0  0  0  0
 29 28  1  0  0  0  0
 29 30  1  0  0  0  0
 32 29  1  0  0  0  0
M  END
>  <minimizedAffinity>
-5.10035276

$$$$

 OpenBabel03242519433D

 32 35  0  0  1  0  0  0  0  0999 V2000
   36.2030   27.4270   36.1580 O   0  0  0  0  0  0  0  0  0  0  0  0
   35.9990   28.2350   37.4500 P   0  0  2  0  0  0  0  0  0  0  0  0
   37.3920   29.1920   37.7660 O   0  0  0  0  0  0  0  0  0  0  0  0
   37.6260   32.6090   38.9240 C   0  0  0  0  0  0  0  0  0  0  0  0
   37.7120   31.4850   38.0750 C   0  0  0  0  0  0  0  0  0  0  0  0
   37.2940   30.2610   38.6040 C   0  0  0  0  0  0  0  0  0  0  0  0
   36.8350   30.2080   39.8790 N   0  0  0  0  0  0  0  0  0  0  0  0
   36.7690   31.3020   40.6560 C   0  0  0  0  0  0  0  0  0  0  0  0
   37.1630   32.5050   40.1860 N   0  0  0  0  0  0  0  0  0  0  0  0
   37.9460   33.5650   38.5300 H   0  0  0  0  0  0  0  0  0  0  0  0
   38.0810   31.5660   37.0680 H   0  0  0  0  0  0  0  0  0  0  0  0
   36.3870   31.1580   41.6640 H   0  0  0  0  0  0  0  0  0  0  0  0
   35.8560   27.1970   38.7220 O   0  0  0  0  0  0  0  0  0  0  0  0
   36.6770   26.3940   39.3590 C   0  0  1  0  0  3  0  0  0  0  0  0
   37.6730   25.8870   38.6090 O   0  0  0  0  0  0  0  0  0  0  0  0
   37.3760   25.6000   40.2680 C   0  0  2  0  0  0  0  0  0  0  0  0
   37.5210   24.2620   40.2220 N   0  0  0  0  0  2  0  0  0  0  0  0
   38.2030   23.4970   41.0970 C   0  0  0  0  0  3  0  0  0  0  0  0
   38.7830   24.1170   42.0920 N   0  0  0  0  0  0  0  0  0  0  0  0
   38.7730   25.4180   42.3350 C   0  0  0  0  0  0  0  0  0  0  0  0
   39.4370   25.9160   43.4230 C   0  0  0  0  0  3  0  0  0  0  0  0
   39.3870   27.2780   43.6050 C   0  0  0  0  0  0  0  0  0  0  0  0
   39.9090   27.6740   44.4600 H   0  0  0  0  0  0  0  0  0  0  0  0
   38.6980   28.0750   42.7210 C   0  0  0  0  0  0  0  0  0  0  0  0
   38.6840   29.1370   42.9000 H   0  0  0  0  0  0  0  0  0  0  0  0
   38.0660   27.4650   41.6610 C   0  0  0  0  0  3  0  0  0  0  0  0
   38.0550   26.1040   41.3890 C   0  0  0  0  0  0  0  0  0  0  0  0
   34.7470   29.2870   37.2400 O   0  0  0  0  0  0  0  0  0  0  0  0
   33.5820   28.7910   37.8070 C   0  0  0  0  0  0  0  0  0  0  0  0
   33.3740   27.4630   37.4500 F   0  0  0  0  0  0  0  0  0  0  0  0
   33.5680   28.9770   39.1530 F   0  0  0  0  0  0  0  0  0  0  0  0
   32.5430   29.5090   37.2440 F   0  0  0  0  0  0  0  0  0  0  0  0
  2  1  2  6  0  0  0
  2  3  1  0  0  0  0
  2 13  1  0  0  0  0
  3  6  1  0  0  0  0
  4  9  1  0  0  0  0
  5  6  1  0  0  0  0
  5  4  2  0  0  0  0
  6  7  2  0  0  0  0
  7  8  1  0  0  0  0
  8 12  1  0  0  0  0
  9  8  2  0  0  0  0
 10  4  1  0  0  0  0
 11  5  1  0  0  0  0
 14 13  1  1  0  0  0
 14 16  1  0  0  0  0
 15 14  1  0  0  0  0
 16 15  1  6  0  0  0
 16 27  1  0  0  0  0
 17 16  1  0  0  0  0
 17 18  1  0  0  0  0
 18 19  2  0  0  0  0
 19 20  1  0  0  0  0
 20 21  1  0  0  0  0
 21 22  2  0  0  0  0
 22 23  1  0  0  0  0
 24 25  1  0  0  0  0
 24 22  1  0  0  0  0
 26 24  2  0  0  0  0
 27 26  1  0  0  0  0
 27 20  2  0  0  0  0
 28  2  1  0  0  0  0
 28 29  1  0  0  0  0
 29 31  1  0  0  0  0
 30 29  1  0  0  0  0
 32 29  1  0  0  0  0
M  END
>  <minimizedAffinity>
-5.00427485

$$$$

 OpenBabel03242519433D

 32 35  0  0  1  0  0  0  0  0999 V2000
   38.5110   27.0100   39.4070 O   0  0  0  0  0  0  0  0  0  0  0  0
   37.1870   27.0930   40.1850 P   0  0  2  0  0  0  0  0  0  0  0  0
   35.9080   27.5140   39.1170 O   0  0  0  0  0  0  0  0  0  0  0  0
   36.7830   29.9300   36.5740 C   0  0  0  0  0  0  0  0  0  0  0  0
   36.4810   29.3830   37.8400 C   0  0  0  0  0  0  0  0  0  0  0  0
   36.2010   28.0150   37.8850 C   0  0  0  0  0  0  0  0  0  0  0  0
   36.2330   27.2900   36.7400 N   0  0  0  0  0  0  0  0  0  0  0  0
   36.5250   27.8490   35.5530 C   0  0  0  0  0  0  0  0  0  0  0  0
   36.8010   29.1680   35.4630 N   0  0  0  0  0  0  0  0  0  0  0  0
   37.0010   30.9900   36.5220 H   0  0  0  0  0  0  0  0  0  0  0  0
   36.4660   29.9910   38.7280 H   0  0  0  0  0  0  0  0  0  0  0  0
   36.5250   27.1850   34.6920 H   0  0  0  0  0  0  0  0  0  0  0  0
   37.2840   28.3110   41.2900 O   0  0  0  0  0  0  0  0  0  0  0  0
   38.1180   29.3020   41.5060 C   0  0  1  0  0  3  0  0  0  0  0  0
   38.2860   29.6330   42.8000 O   0  0  0  0  0  0  0  0  0  0  0  0
   39.0320   30.3530   41.4410 C   0  0  1  0  0  0  0  0  0  0  0  0
   40.3070   30.3390   41.8750 N   0  0  0  0  0  2  0  0  0  0  0  0
   41.1920   31.3530   41.8030 C   0  0  0  0  0  3  0  0  0  0  0  0
   40.7690   32.4640   41.2570 N   0  0  0  0  0  0  0  0  0  0  0  0
   39.5640   32.7020   40.7650 C   0  0  0  0  0  0  0  0  0  0  0  0
   39.2780   33.9240   40.2180 C   0  0  0  0  0  3  0  0  0  0  0  0
   38.0070   34.0930   39.7210 C   0  0  0  0  0  0  0  0  0  0  0  0
   37.7770   35.0530   39.2900 H   0  0  0  0  0  0  0  0  0  0  0  0
   37.0910   33.0690   39.7830 C   0  0  0  0  0  0  0  0  0  0  0  0
   36.1070   33.2430   39.3830 H   0  0  0  0  0  0  0  0  0  0  0  0
   37.4890   31.8820   40.3560 C   0  0  0  0  0  3  0  0  0  0  0  0
   38.7430   31.6100   40.8860 C   0  0  0  0  0  0  0  0  0  0  0  0
   36.8190   25.6040   40.7910 O   0  0  0  0  0  0  0  0  0  0  0  0
   37.2610   25.4780   42.1000 C   0  0  0  0  0  0  0  0  0  0  0  0
   38.6040   25.8210   42.2140 F   0  0  0  0  0  0  0  0  0  0  0  0
   36.4710   26.1750   42.9580 F   0  0  0  0  0  0  0  0  0  0  0  0
   37.1790   24.1320   42.4060 F   0  0  0  0  0  0  0  0  0  0  0  0
  2  1  2  6  0  0  0
  2 28  1  0  0  0  0
  2 13  1  0  0  0  0
  3  2  1  0  0  0  0
  4  5  1  0  0  0  0
  5  6  2  0  0  0  0
  5 11  1  0  0  0  0
  6  3  1  0  0  0  0
  7  6  1  0  0  0  0
  8  7  2  0  0  0  0
  9  8  1  0  0  0  0
  9  4  2  0  0  0  0
 10  4  1  0  0  0  0
 12  8  1  0  0  0  0
 14 13  1  1  0  0  0
 14 15  1  0  0  0  0
 16 27  1  6  0  0  0
 16 14  1  0  0  0  0
 16 17  1  0  0  0  0
 16 15  1  0  0  0  0
 18 17  1  0  0  0  0
 19 18  2  0  0  0  0
 20 27  1  0  0  0  0
 20 19  1  0  0  0  0
 21 20  2  0  0  0  0
 22 24  2  0  0  0  0
 22 21  1  0  0  0  0
 23 22  1  0  0  0  0
 24 26  1  0  0  0  0
 25 24  1  0  0  0  0
 26 27  2  0  0  0  0
 28 29  1  0  0  0  0
 29 30  1  0  0  0  0
 29 32  1  0  0  0  0
 29 31  1  0  0  0  0
M  END
>  <minimizedAffinity>
-4.99128771

$$$$
