
 OpenBabel03242519413D

 32 35  0  0  1  0  0  0  0  0999 V2000
   47.9930   32.8590   41.5520 O   0  0  0  0  0  0  0  0  0  0  0  0
   47.1120   34.0710   41.2090 P   0  0  2  0  0  0  0  0  0  0  0  0
   45.5430   33.8610   41.8800 O   0  0  0  0  0  0  0  0  0  0  0  0
   44.4090   35.8940   44.6460 C   0  0  0  0  0  0  0  0  0  0  0  0
   44.6610   35.4710   43.3230 C   0  0  0  0  0  0  0  0  0  0  0  0
   45.3080   34.2430   43.1660 C   0  0  0  0  0  0  0  0  0  0  0  0
   45.6550   33.5270   44.2630 N   0  0  0  0  0  0  0  0  0  0  0  0
   45.3960   33.9640   45.5080 C   0  0  0  0  0  0  0  0  0  0  0  0
   44.7750   35.1460   45.7060 N   0  0  0  0  0  0  0  0  0  0  0  0
   43.9090   36.8440   44.7860 H   0  0  0  0  0  0  0  0  0  0  0  0
   44.3700   36.0670   42.4760 H   0  0  0  0  0  0  0  0  0  0  0  0
   45.7140   33.3190   46.3230 H   0  0  0  0  0  0  0  0  0  0  0  0
   46.9070   34.1480   39.5750 O   0  0  0  0  0  0  0  0  0  0  0  0
   47.2890   33.4100   38.5590 C   0  0  1  0  0  3  0  0  0  0  0  0
   47.5260   34.0880   37.4200 O   0  0  0  0  0  0  0  0  0  0  0  0
   47.6700   32.4020   37.6720 C   0  0  2  0  0  0  0  0  0  0  0  0
   46.9810   31.9750   36.5960 N   0  0  0  0  0  2  0  0  0  0  0  0
   47.3560   31.0060   35.7360 C   0  0  0  0  0  3  0  0  0  0  0  0
   48.5020   30.4240   35.9700 N   0  0  0  0  0  0  0  0  0  0  0  0
   49.3400   30.6810   36.9630 C   0  0  0  0  0  0  0  0  0  0  0  0
   50.5120   29.9820   37.0670 C   0  0  0  0  0  3  0  0  0  0  0  0
   51.3330   30.3110   38.1190 C   0  0  0  0  0  0  0  0  0  0  0  0
   52.2570   29.7630   38.2070 H   0  0  0  0  0  0  0  0  0  0  0  0
   50.9700   31.2970   39.0080 C   0  0  0  0  0  0  0  0  0  0  0  0
   51.6410   31.5250   39.8180 H   0  0  0  0  0  0  0  0  0  0  0  0
   49.7670   31.9350   38.8050 C   0  0  0  0  0  3  0  0  0  0  0  0
   48.8680   31.6780   37.7770 C   0  0  0  0  0  0  0  0  0  0  0  0
   47.7450   35.4200   41.9150 O   0  0  0  0  0  0  0  0  0  0  0  0
   49.0060   35.7000   41.4070 C   0  0  0  0  0  0  0  0  0  0  0  0
   49.4390   36.9610   41.8010 F   0  0  0  0  0  0  0  0  0  0  0  0
   49.8950   34.7220   41.7200 F   0  0  0  0  0  0  0  0  0  0  0  0
   48.8630   35.7540   40.0320 F   0  0  0  0  0  0  0  0  0  0  0  0
  2  1  2  1  0  0  0
  2  3  1  0  0  0  0
  2 28  1  0  0  0  0
  3  6  1  0  0  0  0
  4 10  1  0  0  0  0
  4  9  1  0  0  0  0
  5  4  2  0  0  0  0
  6  5  1  0  0  0  0
  6  7  2  0  0  0  0
  7  8  1  0  0  0  0
  8  9  2  0  0  0  0
  8 12  1  0  0  0  0
 11  5  1  0  0  0  0
 13  2  1  0  0  0  0
 14 13  1  1  0  0  0
 15 16  1  0  0  0  0
 15 14  1  0  0  0  0
 16 17  1  6  0  0  0
 16 27  1  0  0  0  0
 16 14  1  0  0  0  0
 18 19  2  0  0  0  0
 18 17  1  0  0  0  0
 19 20  1  0  0  0  0
 20 21  2  0  0  0  0
 20 27  1  0  0  0  0
 21 22  1  0  0  0  0
 22 23  1  0  0  0  0
 22 24  2  0  0  0  0
 24 25  1  0  0  0  0
 26 24  1  0  0  0  0
 27 26  2  0  0  0  0
 29 31  1  0  0  0  0
 29 30  1  0  0  0  0
 29 28  1  0  0  0  0
 32 29  1  0  0  0  0
M  END
>  <minimizedAffinity>
-5.49253988

>  <minimizedRMSD>
3.17807913

$$$$
