
 OpenBabel03242519413D

 32 35  0  0  1  0  0  0  0  0999 V2000
   48.0380   32.8740   41.6400 O   0  0  0  0  0  0  0  0  0  0  0  0
   47.1950   34.1060   41.2700 P   0  0  2  0  0  0  0  0  0  0  0  0
   45.6000   33.9280   41.8850 O   0  0  0  0  0  0  0  0  0  0  0  0
   44.3930   35.8990   44.6660 C   0  0  0  0  0  0  0  0  0  0  0  0
   44.6760   35.5040   43.3400 C   0  0  0  0  0  0  0  0  0  0  0  0
   45.3350   34.2830   43.1730 C   0  0  0  0  0  0  0  0  0  0  0  0
   45.6630   33.5480   44.2640 N   0  0  0  0  0  0  0  0  0  0  0  0
   45.3750   33.9600   45.5110 C   0  0  0  0  0  0  0  0  0  0  0  0
   44.7420   35.1330   45.7190 N   0  0  0  0  0  0  0  0  0  0  0  0
   43.8850   36.8440   44.8130 H   0  0  0  0  0  0  0  0  0  0  0  0
   44.3990   36.1140   42.4980 H   0  0  0  0  0  0  0  0  0  0  0  0
   45.6800   33.3000   46.3200 H   0  0  0  0  0  0  0  0  0  0  0  0
   47.0500   34.1910   39.6310 O   0  0  0  0  0  0  0  0  0  0  0  0
   46.6710   33.3560   38.6900 C   0  0  1  0  0  3  0  0  0  0  0  0
   47.1740   33.6110   37.4680 O   0  0  0  0  0  0  0  0  0  0  0  0
   46.1180   32.3400   37.9110 C   0  0  2  0  0  0  0  0  0  0  0  0
   45.3160   32.4930   36.8410 N   0  0  0  0  0  2  0  0  0  0  0  0
   44.7900   31.5100   36.0840 C   0  0  0  0  0  3  0  0  0  0  0  0
   45.0880   30.2820   36.4240 N   0  0  0  0  0  0  0  0  0  0  0  0
   45.8530   29.9000   37.4340 C   0  0  0  0  0  0  0  0  0  0  0  0
   46.0740   28.5670   37.6570 C   0  0  0  0  0  3  0  0  0  0  0  0
   46.8860   28.2470   38.7200 C   0  0  0  0  0  0  0  0  0  0  0  0
   47.0640   27.1990   38.9000 H   0  0  0  0  0  0  0  0  0  0  0  0
   47.4340   29.2370   39.5030 C   0  0  0  0  0  0  0  0  0  0  0  0
   48.0640   28.9450   40.3250 H   0  0  0  0  0  0  0  0  0  0  0  0
   47.1420   30.5450   39.1860 C   0  0  0  0  0  3  0  0  0  0  0  0
   46.3370   30.9720   38.1380 C   0  0  0  0  0  0  0  0  0  0  0  0
   47.8320   35.4390   42.0020 O   0  0  0  0  0  0  0  0  0  0  0  0
   49.0680   35.7600   41.4590 C   0  0  0  0  0  0  0  0  0  0  0  0
   49.4450   37.0560   41.7950 F   0  0  0  0  0  0  0  0  0  0  0  0
   50.0100   34.8400   41.7940 F   0  0  0  0  0  0  0  0  0  0  0  0
   48.8990   35.7510   40.0860 F   0  0  0  0  0  0  0  0  0  0  0  0
  2  1  2  1  0  0  0
  2  3  1  0  0  0  0
  2 28  1  0  0  0  0
  3  6  1  0  0  0  0
  4 10  1  0  0  0  0
  4  9  1  0  0  0  0
  5  4  2  0  0  0  0
  6  5  1  0  0  0  0
  6  7  2  0  0  0  0
  7  8  1  0  0  0  0
  8  9  2  0  0  0  0
  8 12  1  0  0  0  0
 11  5  1  0  0  0  0
 13  2  1  0  0  0  0
 14 13  1  1  0  0  0
 15 16  1  0  0  0  0
 15 14  1  0  0  0  0
 16 17  1  6  0  0  0
 16 27  1  0  0  0  0
 16 14  1  0  0  0  0
 18 19  2  0  0  0  0
 18 17  1  0  0  0  0
 19 20  1  0  0  0  0
 20 21  2  0  0  0  0
 20 27  1  0  0  0  0
 21 22  1  0  0  0  0
 22 23  1  0  0  0  0
 22 24  2  0  0  0  0
 24 25  1  0  0  0  0
 26 24  1  0  0  0  0
 27 26  2  0  0  0  0
 29 31  1  0  0  0  0
 29 30  1  0  0  0  0
 29 28  1  0  0  0  0
 32 29  1  0  0  0  0
M  END
>  <minimizedAffinity>
-5.09166145

>  <minimizedRMSD>
2.16476083

$$$$
