
 OpenBabel03242519413D

 32 35  0  0  1  0  0  0  0  0999 V2000
   48.0310   32.9300   41.7130 O   0  0  0  0  0  0  0  0  0  0  0  0
   47.1430   34.0920   41.2410 P   0  0  2  0  0  0  0  0  0  0  0  0
   45.5580   33.9140   41.8820 O   0  0  0  0  0  0  0  0  0  0  0  0
   44.4000   35.9020   44.6710 C   0  0  0  0  0  0  0  0  0  0  0  0
   44.6630   35.5000   43.3430 C   0  0  0  0  0  0  0  0  0  0  0  0
   45.3120   34.2750   43.1720 C   0  0  0  0  0  0  0  0  0  0  0  0
   45.6510   33.5420   44.2600 N   0  0  0  0  0  0  0  0  0  0  0  0
   45.3820   33.9590   45.5100 C   0  0  0  0  0  0  0  0  0  0  0  0
   44.7580   35.1370   45.7220 N   0  0  0  0  0  0  0  0  0  0  0  0
   43.8990   36.8500   44.8220 H   0  0  0  0  0  0  0  0  0  0  0  0
   44.3790   36.1090   42.5030 H   0  0  0  0  0  0  0  0  0  0  0  0
   45.6930   33.3010   46.3170 H   0  0  0  0  0  0  0  0  0  0  0  0
   46.9870   34.0250   39.6020 O   0  0  0  0  0  0  0  0  0  0  0  0
   47.7200   33.5500   38.6200 C   0  0  1  0  0  3  0  0  0  0  0  0
   48.0310   34.4410   37.6610 O   0  0  0  0  0  0  0  0  0  0  0  0
   48.4830   32.7930   37.7310 C   0  0  2  0  0  0  0  0  0  0  0  0
   48.2750   32.6550   36.4090 N   0  0  0  0  0  2  0  0  0  0  0  0
   49.0180   31.9300   35.5500 C   0  0  0  0  0  3  0  0  0  0  0  0
   50.0470   31.2960   36.0520 N   0  0  0  0  0  0  0  0  0  0  0  0
   50.4380   31.2900   37.3170 C   0  0  0  0  0  0  0  0  0  0  0  0
   51.5460   30.5770   37.6850 C   0  0  0  0  0  3  0  0  0  0  0  0
   51.8950   30.6230   39.0140 C   0  0  0  0  0  0  0  0  0  0  0  0
   52.7670   30.0630   39.3090 H   0  0  0  0  0  0  0  0  0  0  0  0
   51.1500   31.3600   39.9060 C   0  0  0  0  0  0  0  0  0  0  0  0
   51.4570   31.3710   40.9380 H   0  0  0  0  0  0  0  0  0  0  0  0
   50.0540   32.0380   39.4230 C   0  0  0  0  0  3  0  0  0  0  0  0
   49.6180   32.0550   38.1040 C   0  0  0  0  0  0  0  0  0  0  0  0
   47.7350   35.5080   41.8450 O   0  0  0  0  0  0  0  0  0  0  0  0
   49.0300   35.7340   41.4010 C   0  0  0  0  0  0  0  0  0  0  0  0
   49.5570   36.8960   41.9540 F   0  0  0  0  0  0  0  0  0  0  0  0
   49.8220   34.6500   41.6130 F   0  0  0  0  0  0  0  0  0  0  0  0
   48.9350   35.9620   40.0410 F   0  0  0  0  0  0  0  0  0  0  0  0
  2  1  2  1  0  0  0
  2 28  1  0  0  0  0
  2  3  1  0  0  0  0
  3  6  1  0  0  0  0
  4 10  1  0  0  0  0
  4  9  1  0  0  0  0
  5  4  2  0  0  0  0
  6  5  1  0  0  0  0
  6  7  2  0  0  0  0
  7  8  1  0  0  0  0
  8  9  2  0  0  0  0
  8 12  1  0  0  0  0
 11  5  1  0  0  0  0
 13  2  1  0  0  0  0
 14 13  1  1  0  0  0
 15 16  1  0  0  0  0
 15 14  1  0  0  0  0
 16 17  1  6  0  0  0
 16 27  1  0  0  0  0
 16 14  1  0  0  0  0
 18 19  2  0  0  0  0
 18 17  1  0  0  0  0
 19 20  1  0  0  0  0
 20 21  2  0  0  0  0
 20 27  1  0  0  0  0
 21 22  1  0  0  0  0
 22 23  1  0  0  0  0
 22 24  2  0  0  0  0
 24 25  1  0  0  0  0
 26 24  1  0  0  0  0
 27 26  2  0  0  0  0
 29 31  1  0  0  0  0
 29 28  1  0  0  0  0
 29 30  1  0  0  0  0
 32 29  1  0  0  0  0
M  END
>  <minimizedAffinity>
-5.72869968

>  <minimizedRMSD>
2.90140629

$$$$
