
 OpenBabel03242519413D

 32 35  0  0  1  0  0  0  0  0999 V2000
   48.0540   32.6990   41.8530 O   0  0  0  0  0  0  0  0  0  0  0  0
   47.0730   33.7780   41.3680 P   0  0  2  0  0  0  0  0  0  0  0  0
   45.5330   33.5390   42.0950 O   0  0  0  0  0  0  0  0  0  0  0  0
   44.3580   35.9000   44.5690 C   0  0  0  0  0  0  0  0  0  0  0  0
   44.6300   35.3150   43.3130 C   0  0  0  0  0  0  0  0  0  0  0  0
   45.2800   34.0780   43.3200 C   0  0  0  0  0  0  0  0  0  0  0  0
   45.6120   33.5070   44.5030 N   0  0  0  0  0  0  0  0  0  0  0  0
   45.3360   34.0970   45.6790 C   0  0  0  0  0  0  0  0  0  0  0  0
   44.7110   35.2920   45.7190 N   0  0  0  0  0  0  0  0  0  0  0  0
   43.8560   36.8590   44.5810 H   0  0  0  0  0  0  0  0  0  0  0  0
   44.3490   35.7990   42.3930 H   0  0  0  0  0  0  0  0  0  0  0  0
   45.6430   33.5600   46.5740 H   0  0  0  0  0  0  0  0  0  0  0  0
   46.8450   33.6120   39.7440 O   0  0  0  0  0  0  0  0  0  0  0  0
   45.8560   33.1990   38.9850 C   0  0  1  0  0  3  0  0  0  0  0  0
   46.0970   33.2440   37.6620 O   0  0  0  0  0  0  0  0  0  0  0  0
   44.6680   32.7130   38.4380 C   0  0  1  0  0  0  0  0  0  0  0  0
   44.5370   31.6660   37.6030 N   0  0  0  0  0  2  0  0  0  0  0  0
   43.3870   31.1950   37.0800 C   0  0  0  0  0  3  0  0  0  0  0  0
   42.2880   31.8170   37.4190 N   0  0  0  0  0  0  0  0  0  0  0  0
   42.1820   32.8640   38.2220 C   0  0  0  0  0  0  0  0  0  0  0  0
   40.9500   33.4020   38.4840 C   0  0  0  0  0  3  0  0  0  0  0  0
   40.9180   34.4830   39.3320 C   0  0  0  0  0  0  0  0  0  0  0  0
   39.9510   34.9090   39.5410 H   0  0  0  0  0  0  0  0  0  0  0  0
   42.0810   34.9780   39.8770 C   0  0  0  0  0  0  0  0  0  0  0  0
   42.0130   35.8250   40.5370 H   0  0  0  0  0  0  0  0  0  0  0  0
   43.2640   34.3570   39.5430 C   0  0  0  0  0  3  0  0  0  0  0  0
   43.4040   33.2640   38.6980 C   0  0  0  0  0  0  0  0  0  0  0  0
   47.6010   35.2580   41.8690 O   0  0  0  0  0  0  0  0  0  0  0  0
   48.8570   35.5370   41.3500 C   0  0  0  0  0  0  0  0  0  0  0  0
   49.3010   36.7920   41.7530 F   0  0  0  0  0  0  0  0  0  0  0  0
   49.7450   34.5510   41.6440 F   0  0  0  0  0  0  0  0  0  0  0  0
   48.7000   35.6060   39.9780 F   0  0  0  0  0  0  0  0  0  0  0  0
  2  1  2  1  0  0  0
  2 28  1  0  0  0  0
  2  3  1  0  0  0  0
  3  6  1  0  0  0  0
  4 10  1  0  0  0  0
  4  9  1  0  0  0  0
  5  6  1  0  0  0  0
  5  4  2  0  0  0  0
  6  7  2  0  0  0  0
  7  8  1  0  0  0  0
  8  9  2  0  0  0  0
  8 12  1  0  0  0  0
 11  5  1  0  0  0  0
 13  2  1  0  0  0  0
 14 13  1  1  0  0  0
 15 16  1  0  0  0  0
 15 14  1  0  0  0  0
 16 17  1  1  0  0  0
 16 27  1  0  0  0  0
 16 14  1  0  0  0  0
 18 19  2  0  0  0  0
 18 17  1  0  0  0  0
 19 20  1  0  0  0  0
 20 21  2  0  0  0  0
 20 27  1  0  0  0  0
 21 22  1  0  0  0  0
 22 23  1  0  0  0  0
 22 24  2  0  0  0  0
 24 25  1  0  0  0  0
 26 24  1  0  0  0  0
 27 26  2  0  0  0  0
 29 31  1  0  0  0  0
 29 30  1  0  0  0  0
 29 28  1  0  0  0  0
 32 29  1  0  0  0  0
M  END
>  <minimizedAffinity>
-5.97068882

>  <minimizedRMSD>
1.40885615

$$$$
