
 OpenBabel03242510223D

 41 45  0  0  1  0  0  0  0  0999 V2000
   49.2020   33.9380   41.0620 C   0  0  2  0  0  0  0  0  0  0  0  0
   48.6830   35.4240   40.9930 C   0  0  0  0  0  0  0  0  0  0  0  0
   47.9360   34.2760   40.4020 C   0  0  1  0  0  0  0  0  0  0  0  0
   50.1150   33.8500   40.4400 H   0  0  0  0  0  0  0  0  0  0  0  0
   48.3290   35.8500   41.9570 H   0  0  0  0  0  0  0  0  0  0  0  0
   49.1490   36.0920   40.2750 H   0  0  0  0  0  0  0  0  0  0  0  0
   47.0450   33.8880   40.9570 H   0  0  0  0  0  0  0  0  0  0  0  0
   48.0550   33.2490   43.1880 N   0  0  0  0  0  0  0  0  0  0  0  0
   49.2320   33.3060   42.4420 C   0  0  0  0  0  0  0  0  0  0  0  0
   50.3920   32.9030   42.7120 O   0  0  0  0  0  0  0  0  0  0  0  0
   47.5140   34.1590   43.1180 H   0  0  0  0  0  0  0  0  0  0  0  0
   46.2940   32.1120   44.4900 C   0  0  1  0  0  0  0  0  0  0  0  0
   46.4440   31.3620   43.3190 C   0  0  0  0  0  0  0  0  0  0  0  0
   47.6670   32.1020   43.9330 C   0  0  1  0  0  0  0  0  0  0  0  0
   46.1130   31.6350   45.4880 H   0  0  0  0  0  0  0  0  0  0  0  0
   46.2320   31.5980   42.2620 H   0  0  0  0  0  0  0  0  0  0  0  0
   46.4670   30.2330   43.4310 H   0  0  0  0  0  0  0  0  0  0  0  0
   48.4650   31.3900   44.1970 H   0  0  0  0  0  0  0  0  0  0  0  0
   45.0580   33.9840   43.1770 C   0  0  0  0  0  0  0  0  0  0  0  0
   45.5480   33.4460   44.4100 C   0  0  0  0  0  0  0  0  0  0  0  0
   45.3450   34.1930   45.5550 C   0  0  0  0  0  0  0  0  0  0  0  0
   44.7010   35.3790   45.4580 N   0  0  0  0  0  0  0  0  0  0  0  0
   44.2430   35.8740   44.2760 C   0  0  0  0  0  0  0  0  0  0  0  0
   44.4330   35.1420   43.0980 N   0  0  0  0  0  0  0  0  0  0  0  0
   45.2370   33.3440   42.3630 H   0  0  0  0  0  0  0  0  0  0  0  0
   45.7010   33.8160   46.5030 H   0  0  0  0  0  0  0  0  0  0  0  0
   43.7300   36.8300   44.2270 H   0  0  0  0  0  0  0  0  0  0  0  0
   47.8830   34.1320   38.8880 C   0  0  0  0  0  0  0  0  0  0  0  0
   48.5670   34.9250   38.2130 O   0  0  0  0  0  0  0  0  0  0  0  0
   46.9870   33.0200   38.4610 C   0  0  0  0  0  0  0  0  0  0  0  0
   45.6460   33.1160   38.5240 N   0  0  0  0  0  0  0  0  0  0  0  0
   44.8400   32.1210   38.1410 C   0  0  0  0  0  3  0  0  0  0  0  0
   45.2820   30.9440   37.6670 N   0  0  0  0  0  0  0  0  0  0  0  0
   46.6100   30.7770   37.5770 C   0  0  0  0  0  0  0  0  0  0  0  0
   47.0950   29.5980   37.1000 C   0  0  0  0  0  3  0  0  0  0  0  0
   48.4490   29.3670   36.9850 C   0  0  0  0  0  0  0  0  0  0  0  0
   48.7950   28.4170   36.6010 H   0  0  0  0  0  0  0  0  0  0  0  0
   49.3010   30.4030   37.3820 C   0  0  0  0  0  0  0  0  0  0  0  0
   50.3460   30.1920   37.2810 H   0  0  0  0  0  0  0  0  0  0  0  0
   48.7710   31.5710   37.8550 C   0  0  0  0  0  3  0  0  0  0  0  0
   47.4250   31.8120   37.9740 C   0  0  0  0  0  0  0  0  0  0  0  0
  1  4  1  6  0  0  0
  1  9  1  0  0  0  0
  2  1  1  0  0  0  0
  2  5  1  0  0  0  0
  3  7  1  1  0  0  0
  3  2  1  0  0  0  0
  3  1  1  0  0  0  0
  6  2  1  0  0  0  0
  8 14  1  0  0  0  0
  9 10  2  0  0  0  0
  9  8  1  0  0  0  0
 11  8  1  0  0  0  0
 12 15  1  1  0  0  0
 13 17  1  0  0  0  0
 13 14  1  0  0  0  0
 13 12  1  0  0  0  0
 14 18  1  1  0  0  0
 14 12  1  0  0  0  0
 16 13  1  0  0  0  0
 19 20  1  0  0  0  0
 20 12  1  0  0  0  0
 20 21  2  0  0  0  0
 21 26  1  0  0  0  0
 22 21  1  0  0  0  0
 23 22  2  0  0  0  0
 24 19  2  0  0  0  0
 24 23  1  0  0  0  0
 25 19  1  0  0  0  0
 27 23  1  0  0  0  0
 28  3  1  0  0  0  0
 29 28  2  0  0  0  0
 30 31  1  0  0  0  0
 30 28  1  0  0  0  0
 32 31  2  0  0  0  0
 33 32  1  0  0  0  0
 34 33  2  0  0  0  0
 34 41  1  0  0  0  0
 35 34  1  0  0  0  0
 36 35  2  0  0  0  0
 36 38  1  0  0  0  0
 37 36  1  0  0  0  0
 38 40  2  0  0  0  0
 39 38  1  0  0  0  0
 40 41  1  0  0  0  0
 41 30  2  0  0  0  0
M  END
>  <minimizedAffinity>
-4.95159245

>  <minimizedRMSD>
1.45921576

$$$$
