
 OpenBabel03242510223D

 41 45  0  0  1  0  0  0  0  0999 V2000
   49.2150   33.9080   41.1620 C   0  0  2  0  0  0  0  0  0  0  0  0
   48.6020   35.3560   41.2660 C   0  0  0  0  0  0  0  0  0  0  0  0
   47.9680   34.2620   40.4750 C   0  0  1  0  0  0  0  0  0  0  0  0
   50.1650   33.9630   40.5950 H   0  0  0  0  0  0  0  0  0  0  0  0
   48.1670   35.6180   42.2550 H   0  0  0  0  0  0  0  0  0  0  0  0
   49.0600   36.1460   40.6800 H   0  0  0  0  0  0  0  0  0  0  0  0
   47.0760   33.7460   40.9110 H   0  0  0  0  0  0  0  0  0  0  0  0
   48.0690   33.0900   43.2430 N   0  0  0  0  0  0  0  0  0  0  0  0
   49.2110   33.0890   42.4400 C   0  0  0  0  0  0  0  0  0  0  0  0
   50.3090   32.4950   42.5810 O   0  0  0  0  0  0  0  0  0  0  0  0
   47.6650   34.0660   43.3290 H   0  0  0  0  0  0  0  0  0  0  0  0
   46.1350   31.9680   44.2870 C   0  0  1  0  0  0  0  0  0  0  0  0
   46.3460   31.3090   43.0720 C   0  0  0  0  0  0  0  0  0  0  0  0
   47.5510   31.9130   43.8490 C   0  0  1  0  0  0  0  0  0  0  0  0
   45.8390   31.4240   45.2200 H   0  0  0  0  0  0  0  0  0  0  0  0
   46.2440   31.6440   42.0250 H   0  0  0  0  0  0  0  0  0  0  0  0
   46.2940   30.1750   43.0850 H   0  0  0  0  0  0  0  0  0  0  0  0
   48.2780   31.1310   44.1150 H   0  0  0  0  0  0  0  0  0  0  0  0
   44.9760   33.9440   43.0600 C   0  0  0  0  0  0  0  0  0  0  0  0
   45.4800   33.3510   44.2620 C   0  0  0  0  0  0  0  0  0  0  0  0
   45.3750   34.0860   45.4270 C   0  0  0  0  0  0  0  0  0  0  0  0
   44.8090   35.3140   45.3770 N   0  0  0  0  0  0  0  0  0  0  0  0
   44.3370   35.8620   44.2250 C   0  0  0  0  0  0  0  0  0  0  0  0
   44.4280   35.1430   43.0270 N   0  0  0  0  0  0  0  0  0  0  0  0
   45.0770   33.3100   42.2280 H   0  0  0  0  0  0  0  0  0  0  0  0
   45.7440   33.6680   46.3520 H   0  0  0  0  0  0  0  0  0  0  0  0
   43.8890   36.8510   44.2150 H   0  0  0  0  0  0  0  0  0  0  0  0
   48.0100   34.3320   38.9550 C   0  0  0  0  0  0  0  0  0  0  0  0
   48.8460   35.1000   38.4400 O   0  0  0  0  0  0  0  0  0  0  0  0
   47.0040   33.4320   38.3240 C   0  0  0  0  0  0  0  0  0  0  0  0
   45.8560   33.0950   38.9410 N   0  0  0  0  0  0  0  0  0  0  0  0
   44.9510   32.2890   38.3780 C   0  0  0  0  0  3  0  0  0  0  0  0
   45.0960   31.7440   37.1590 N   0  0  0  0  0  0  0  0  0  0  0  0
   46.2180   32.0380   36.4840 C   0  0  0  0  0  0  0  0  0  0  0  0
   46.4000   31.5020   35.2450 C   0  0  0  0  0  3  0  0  0  0  0  0
   47.5310   31.7660   34.5020 C   0  0  0  0  0  0  0  0  0  0  0  0
   47.6400   31.3220   33.5210 H   0  0  0  0  0  0  0  0  0  0  0  0
   48.4850   32.6090   35.0840 C   0  0  0  0  0  0  0  0  0  0  0  0
   49.3510   32.7940   34.4830 H   0  0  0  0  0  0  0  0  0  0  0  0
   48.2610   33.1240   36.3310 C   0  0  0  0  0  3  0  0  0  0  0  0
   47.1380   32.8690   37.0790 C   0  0  0  0  0  0  0  0  0  0  0  0
  1  4  1  6  0  0  0
  1  2  1  0  0  0  0
  1  9  1  0  0  0  0
  2  5  1  0  0  0  0
  3  7  1  1  0  0  0
  3  1  1  0  0  0  0
  3  2  1  0  0  0  0
  6  2  1  0  0  0  0
  8 11  1  0  0  0  0
  8 14  1  0  0  0  0
  9 10  2  0  0  0  0
  9  8  1  0  0  0  0
 12 15  1  1  0  0  0
 13 17  1  0  0  0  0
 13 14  1  0  0  0  0
 13 12  1  0  0  0  0
 14 18  1  1  0  0  0
 14 12  1  0  0  0  0
 16 13  1  0  0  0  0
 19 20  1  0  0  0  0
 20 12  1  0  0  0  0
 20 21  2  0  0  0  0
 21 26  1  0  0  0  0
 22 21  1  0  0  0  0
 23 22  2  0  0  0  0
 24 19  2  0  0  0  0
 24 23  1  0  0  0  0
 25 19  1  0  0  0  0
 27 23  1  0  0  0  0
 28  3  1  0  0  0  0
 29 28  2  0  0  0  0
 30 31  1  0  0  0  0
 30 28  1  0  0  0  0
 32 31  2  0  0  0  0
 33 32  1  0  0  0  0
 34 41  1  0  0  0  0
 34 33  2  0  0  0  0
 35 34  1  0  0  0  0
 36 38  1  0  0  0  0
 36 35  2  0  0  0  0
 37 36  1  0  0  0  0
 38 40  2  0  0  0  0
 39 38  1  0  0  0  0
 40 41  1  0  0  0  0
 41 30  2  0  0  0  0
M  END
>  <minimizedAffinity>
-5.3949852

>  <minimizedRMSD>
0.624415696

$$$$
