
 OpenBabel03242510223D

 41 45  0  0  1  0  0  0  0  0999 V2000
   49.2020   33.9360   41.0380 C   0  0  2  0  0  0  0  0  0  0  0  0
   48.6240   35.4020   41.0060 C   0  0  0  0  0  0  0  0  0  0  0  0
   47.9380   34.2460   40.3590 C   0  0  1  0  0  0  0  0  0  0  0  0
   50.1320   33.9060   40.4350 H   0  0  0  0  0  0  0  0  0  0  0  0
   48.2320   35.7780   41.9760 H   0  0  0  0  0  0  0  0  0  0  0  0
   49.0780   36.1130   40.3240 H   0  0  0  0  0  0  0  0  0  0  0  0
   47.0520   33.8020   40.8790 H   0  0  0  0  0  0  0  0  0  0  0  0
   48.0550   33.2080   43.1510 N   0  0  0  0  0  0  0  0  0  0  0  0
   49.2270   33.2580   42.3960 C   0  0  0  0  0  0  0  0  0  0  0  0
   50.3780   32.8160   42.6410 O   0  0  0  0  0  0  0  0  0  0  0  0
   47.5390   34.1330   43.1160 H   0  0  0  0  0  0  0  0  0  0  0  0
   46.2650   32.0650   44.4070 C   0  0  1  0  0  0  0  0  0  0  0  0
   46.4130   31.3440   43.2180 C   0  0  0  0  0  0  0  0  0  0  0  0
   47.6430   32.0470   43.8610 C   0  0  1  0  0  0  0  0  0  0  0  0
   46.0700   31.5640   45.3900 H   0  0  0  0  0  0  0  0  0  0  0  0
   46.2130   31.6130   42.1660 H   0  0  0  0  0  0  0  0  0  0  0  0
   46.4170   30.2120   43.2980 H   0  0  0  0  0  0  0  0  0  0  0  0
   48.4270   31.3150   44.1100 H   0  0  0  0  0  0  0  0  0  0  0  0
   45.0480   33.9800   43.1400 C   0  0  0  0  0  0  0  0  0  0  0  0
   45.5430   33.4130   44.3590 C   0  0  0  0  0  0  0  0  0  0  0  0
   45.3650   34.1420   45.5180 C   0  0  0  0  0  0  0  0  0  0  0  0
   44.7410   35.3410   45.4490 N   0  0  0  0  0  0  0  0  0  0  0  0
   44.2780   35.8640   44.2810 C   0  0  0  0  0  0  0  0  0  0  0  0
   44.4430   35.1490   43.0890 N   0  0  0  0  0  0  0  0  0  0  0  0
   45.2070   33.3500   42.3140 H   0  0  0  0  0  0  0  0  0  0  0  0
   45.7250   33.7440   46.4560 H   0  0  0  0  0  0  0  0  0  0  0  0
   43.7820   36.8300   44.2550 H   0  0  0  0  0  0  0  0  0  0  0  0
   47.9270   34.1520   38.8400 C   0  0  0  0  0  0  0  0  0  0  0  0
   48.6280   34.9680   38.2100 O   0  0  0  0  0  0  0  0  0  0  0  0
   47.0420   33.0560   38.3530 C   0  0  0  0  0  0  0  0  0  0  0  0
   45.7000   33.1620   38.3590 N   0  0  0  0  0  0  0  0  0  0  0  0
   44.9040   32.1800   37.9230 C   0  0  0  0  0  3  0  0  0  0  0  0
   45.3580   31.0110   37.4430 N   0  0  0  0  0  0  0  0  0  0  0  0
   46.6880   30.8350   37.4070 C   0  0  0  0  0  0  0  0  0  0  0  0
   47.1850   29.6620   36.9280 C   0  0  0  0  0  3  0  0  0  0  0  0
   48.5400   29.4220   36.8660 C   0  0  0  0  0  0  0  0  0  0  0  0
   48.8970   28.4770   36.4780 H   0  0  0  0  0  0  0  0  0  0  0  0
   49.3820   30.4440   37.3200 C   0  0  0  0  0  0  0  0  0  0  0  0
   50.4300   30.2270   37.2590 H   0  0  0  0  0  0  0  0  0  0  0  0
   48.8410   31.6060   37.7940 C   0  0  0  0  0  3  0  0  0  0  0  0
   47.4920   31.8560   37.8600 C   0  0  0  0  0  0  0  0  0  0  0  0
  1  4  1  6  0  0  0
  1  9  1  0  0  0  0
  2  1  1  0  0  0  0
  2  5  1  0  0  0  0
  3  7  1  1  0  0  0
  3  2  1  0  0  0  0
  3  1  1  0  0  0  0
  6  2  1  0  0  0  0
  8 14  1  0  0  0  0
  9 10  2  0  0  0  0
  9  8  1  0  0  0  0
 11  8  1  0  0  0  0
 12 15  1  1  0  0  0
 13 17  1  0  0  0  0
 13 14  1  0  0  0  0
 13 12  1  0  0  0  0
 14 18  1  1  0  0  0
 14 12  1  0  0  0  0
 16 13  1  0  0  0  0
 19 20  1  0  0  0  0
 20 12  1  0  0  0  0
 20 21  2  0  0  0  0
 21 26  1  0  0  0  0
 22 21  1  0  0  0  0
 23 22  2  0  0  0  0
 24 19  2  0  0  0  0
 24 23  1  0  0  0  0
 25 19  1  0  0  0  0
 27 23  1  0  0  0  0
 28  3  1  0  0  0  0
 29 28  2  0  0  0  0
 30 31  1  0  0  0  0
 30 28  1  0  0  0  0
 32 31  2  0  0  0  0
 33 32  1  0  0  0  0
 34 33  2  0  0  0  0
 34 41  1  0  0  0  0
 35 34  1  0  0  0  0
 36 35  2  0  0  0  0
 36 38  1  0  0  0  0
 37 36  1  0  0  0  0
 38 40  2  0  0  0  0
 39 38  1  0  0  0  0
 40 41  1  0  0  0  0
 41 30  2  0  0  0  0
M  END
>  <minimizedAffinity>
-4.94328976

>  <minimizedRMSD>
1.77973044

$$$$
