
 OpenBabel03242510223D

 41 45  0  0  1  0  0  0  0  0999 V2000
   49.0460   33.6560   41.1330 C   0  0  2  0  0  0  0  0  0  0  0  0
   48.5250   35.1430   41.1260 C   0  0  0  0  0  0  0  0  0  0  0  0
   47.7500   34.0100   40.5410 C   0  0  1  0  0  0  0  0  0  0  0  0
   49.9290   33.5850   40.4670 H   0  0  0  0  0  0  0  0  0  0  0  0
   48.2160   35.5420   42.1170 H   0  0  0  0  0  0  0  0  0  0  0  0
   48.9560   35.8300   40.4060 H   0  0  0  0  0  0  0  0  0  0  0  0
   46.8860   33.6060   41.1270 H   0  0  0  0  0  0  0  0  0  0  0  0
   48.0360   33.0250   43.3440 N   0  0  0  0  0  0  0  0  0  0  0  0
   49.1400   32.9880   42.4930 C   0  0  0  0  0  0  0  0  0  0  0  0
   50.2740   32.4690   42.6460 O   0  0  0  0  0  0  0  0  0  0  0  0
   47.5830   33.9830   43.3410 H   0  0  0  0  0  0  0  0  0  0  0  0
   46.2400   31.9720   44.6690 C   0  0  1  0  0  0  0  0  0  0  0  0
   46.3500   31.2060   43.5040 C   0  0  0  0  0  0  0  0  0  0  0  0
   47.6070   31.9010   44.1030 C   0  0  1  0  0  0  0  0  0  0  0  0
   46.0480   31.5120   45.6720 H   0  0  0  0  0  0  0  0  0  0  0  0
   46.1400   31.4420   42.4460 H   0  0  0  0  0  0  0  0  0  0  0  0
   46.3280   30.0780   43.6250 H   0  0  0  0  0  0  0  0  0  0  0  0
   48.3770   31.1590   44.3660 H   0  0  0  0  0  0  0  0  0  0  0  0
   45.1190   33.9050   43.3420 C   0  0  0  0  0  0  0  0  0  0  0  0
   45.5490   33.3350   44.5830 C   0  0  0  0  0  0  0  0  0  0  0  0
   45.3390   34.0750   45.7300 C   0  0  0  0  0  0  0  0  0  0  0  0
   44.7440   35.2870   45.6280 N   0  0  0  0  0  0  0  0  0  0  0  0
   44.3430   35.8130   44.4390 C   0  0  0  0  0  0  0  0  0  0  0  0
   44.5420   35.0870   43.2580 N   0  0  0  0  0  0  0  0  0  0  0  0
   45.2990   33.2680   42.5260 H   0  0  0  0  0  0  0  0  0  0  0  0
   45.6500   33.6750   46.6840 H   0  0  0  0  0  0  0  0  0  0  0  0
   43.8690   36.7880   44.3860 H   0  0  0  0  0  0  0  0  0  0  0  0
   47.6280   33.9050   39.0280 C   0  0  0  0  0  0  0  0  0  0  0  0
   48.3010   34.6990   38.3420 O   0  0  0  0  0  0  0  0  0  0  0  0
   46.6860   32.8260   38.6150 C   0  0  0  0  0  0  0  0  0  0  0  0
   47.0880   31.7580   37.9040 N   0  0  0  0  0  0  0  0  0  0  0  0
   46.2470   30.7880   37.5320 C   0  0  0  0  0  3  0  0  0  0  0  0
   44.9360   30.7860   37.8260 N   0  0  0  0  0  0  0  0  0  0  0  0
   44.4640   31.8240   38.5340 C   0  0  0  0  0  0  0  0  0  0  0  0
   43.1400   31.8560   38.8510 C   0  0  0  0  0  3  0  0  0  0  0  0
   42.5950   32.8950   39.5740 C   0  0  0  0  0  0  0  0  0  0  0  0
   41.5390   32.8850   39.8070 H   0  0  0  0  0  0  0  0  0  0  0  0
   43.4680   33.9140   39.9690 C   0  0  0  0  0  0  0  0  0  0  0  0
   43.0150   34.7070   40.5300 H   0  0  0  0  0  0  0  0  0  0  0  0
   44.7910   33.8410   39.6300 C   0  0  0  0  0  3  0  0  0  0  0  0
   45.3450   32.8120   38.9080 C   0  0  0  0  0  0  0  0  0  0  0  0
  1  4  1  6  0  0  0
  1  9  1  0  0  0  0
  2  1  1  0  0  0  0
  2  5  1  0  0  0  0
  3  2  1  0  0  0  0
  3  7  1  1  0  0  0
  3  1  1  0  0  0  0
  6  2  1  0  0  0  0
  8 14  1  0  0  0  0
  9 10  2  0  0  0  0
  9  8  1  0  0  0  0
 11  8  1  0  0  0  0
 12 15  1  1  0  0  0
 13 17  1  0  0  0  0
 13 14  1  0  0  0  0
 13 12  1  0  0  0  0
 14 18  1  1  0  0  0
 14 12  1  0  0  0  0
 16 13  1  0  0  0  0
 19 20  1  0  0  0  0
 20 12  1  0  0  0  0
 20 21  2  0  0  0  0
 21 26  1  0  0  0  0
 22 21  1  0  0  0  0
 23 22  2  0  0  0  0
 24 19  2  0  0  0  0
 24 23  1  0  0  0  0
 25 19  1  0  0  0  0
 27 23  1  0  0  0  0
 28  3  1  0  0  0  0
 29 28  2  0  0  0  0
 30 41  1  0  0  0  0
 30 28  1  0  0  0  0
 31 30  2  0  0  0  0
 32 33  2  0  0  0  0
 32 31  1  0  0  0  0
 33 34  1  0  0  0  0
 34 35  2  0  0  0  0
 34 41  1  0  0  0  0
 35 36  1  0  0  0  0
 36 37  1  0  0  0  0
 36 38  2  0  0  0  0
 38 39  1  0  0  0  0
 40 38  1  0  0  0  0
 41 40  2  0  0  0  0
M  END
>  <minimizedAffinity>
-5.09618473

>  <minimizedRMSD>
1.12625813

$$$$
