
 OpenBabel03242510223D

 41 45  0  0  1  0  0  0  0  0999 V2000
   49.2140   33.9100   41.1610 C   0  0  2  0  0  0  0  0  0  0  0  0
   48.5970   35.3550   41.2650 C   0  0  0  0  0  0  0  0  0  0  0  0
   47.9660   34.2600   40.4720 C   0  0  1  0  0  0  0  0  0  0  0  0
   50.1650   33.9680   40.5940 H   0  0  0  0  0  0  0  0  0  0  0  0
   48.1600   35.6160   42.2540 H   0  0  0  0  0  0  0  0  0  0  0  0
   49.0530   36.1470   40.6800 H   0  0  0  0  0  0  0  0  0  0  0  0
   47.0760   33.7410   40.9080 H   0  0  0  0  0  0  0  0  0  0  0  0
   48.0710   33.0900   43.2420 N   0  0  0  0  0  0  0  0  0  0  0  0
   49.2110   33.0900   42.4390 C   0  0  0  0  0  0  0  0  0  0  0  0
   50.3100   32.4970   42.5780 O   0  0  0  0  0  0  0  0  0  0  0  0
   47.6660   34.0660   43.3290 H   0  0  0  0  0  0  0  0  0  0  0  0
   46.1380   31.9680   44.2880 C   0  0  1  0  0  0  0  0  0  0  0  0
   46.3480   31.3080   43.0720 C   0  0  0  0  0  0  0  0  0  0  0  0
   47.5530   31.9130   43.8490 C   0  0  1  0  0  0  0  0  0  0  0  0
   45.8430   31.4230   45.2210 H   0  0  0  0  0  0  0  0  0  0  0  0
   46.2440   31.6450   42.0260 H   0  0  0  0  0  0  0  0  0  0  0  0
   46.2950   30.1750   43.0850 H   0  0  0  0  0  0  0  0  0  0  0  0
   48.2810   31.1310   44.1130 H   0  0  0  0  0  0  0  0  0  0  0  0
   44.9800   33.9450   43.0620 C   0  0  0  0  0  0  0  0  0  0  0  0
   45.4820   33.3500   44.2640 C   0  0  0  0  0  0  0  0  0  0  0  0
   45.3750   34.0830   45.4300 C   0  0  0  0  0  0  0  0  0  0  0  0
   44.8100   35.3110   45.3810 N   0  0  0  0  0  0  0  0  0  0  0  0
   44.3380   35.8610   44.2290 C   0  0  0  0  0  0  0  0  0  0  0  0
   44.4310   35.1430   43.0310 N   0  0  0  0  0  0  0  0  0  0  0  0
   45.0820   33.3120   42.2300 H   0  0  0  0  0  0  0  0  0  0  0  0
   45.7440   33.6640   46.3550 H   0  0  0  0  0  0  0  0  0  0  0  0
   43.8900   36.8500   44.2200 H   0  0  0  0  0  0  0  0  0  0  0  0
   48.0100   34.3310   38.9530 C   0  0  0  0  0  0  0  0  0  0  0  0
   48.8470   35.0980   38.4390 O   0  0  0  0  0  0  0  0  0  0  0  0
   47.0030   33.4320   38.3200 C   0  0  0  0  0  0  0  0  0  0  0  0
   45.8550   33.0950   38.9370 N   0  0  0  0  0  0  0  0  0  0  0  0
   44.9500   32.2890   38.3720 C   0  0  0  0  0  3  0  0  0  0  0  0
   45.0960   31.7450   37.1530 N   0  0  0  0  0  0  0  0  0  0  0  0
   46.2190   32.0370   36.4790 C   0  0  0  0  0  0  0  0  0  0  0  0
   46.4010   31.5030   35.2400 C   0  0  0  0  0  3  0  0  0  0  0  0
   47.5340   31.7650   34.4990 C   0  0  0  0  0  0  0  0  0  0  0  0
   47.6430   31.3220   33.5190 H   0  0  0  0  0  0  0  0  0  0  0  0
   48.4870   32.6080   35.0810 C   0  0  0  0  0  0  0  0  0  0  0  0
   49.3540   32.7930   34.4810 H   0  0  0  0  0  0  0  0  0  0  0  0
   48.2630   33.1240   36.3290 C   0  0  0  0  0  3  0  0  0  0  0  0
   47.1390   32.8690   37.0760 C   0  0  0  0  0  0  0  0  0  0  0  0
  1  4  1  6  0  0  0
  1  2  1  0  0  0  0
  1  9  1  0  0  0  0
  2  5  1  0  0  0  0
  3  7  1  1  0  0  0
  3  1  1  0  0  0  0
  3  2  1  0  0  0  0
  6  2  1  0  0  0  0
  8 11  1  0  0  0  0
  8 14  1  0  0  0  0
  9 10  2  0  0  0  0
  9  8  1  0  0  0  0
 12 15  1  1  0  0  0
 13 17  1  0  0  0  0
 13 14  1  0  0  0  0
 13 12  1  0  0  0  0
 14 18  1  1  0  0  0
 14 12  1  0  0  0  0
 16 13  1  0  0  0  0
 19 20  1  0  0  0  0
 20 12  1  0  0  0  0
 20 21  2  0  0  0  0
 21 26  1  0  0  0  0
 22 21  1  0  0  0  0
 23 22  2  0  0  0  0
 24 19  2  0  0  0  0
 24 23  1  0  0  0  0
 25 19  1  0  0  0  0
 27 23  1  0  0  0  0
 28  3  1  0  0  0  0
 29 28  2  0  0  0  0
 30 31  1  0  0  0  0
 30 28  1  0  0  0  0
 32 31  2  0  0  0  0
 33 32  1  0  0  0  0
 34 41  1  0  0  0  0
 34 33  2  0  0  0  0
 35 34  1  0  0  0  0
 36 38  1  0  0  0  0
 36 35  2  0  0  0  0
 37 36  1  0  0  0  0
 38 40  2  0  0  0  0
 39 38  1  0  0  0  0
 40 41  1  0  0  0  0
 41 30  2  0  0  0  0
M  END
>  <minimizedAffinity>
-5.39942122

>  <minimizedRMSD>
1.00571895

$$$$
