
 OpenBabel03242520443D

 25 27  0  0  1  0  0  0  0  0999 V2000
   47.4100   34.5440   41.8000 C   0  0  1  0  0  3  0  0  0  0  0  0
   48.2600   35.4900   41.5930 O   0  0  0  0  0  1  0  0  0  0  0  0
   47.3750   33.8790   40.4910 C   0  0  0  0  0  0  0  0  0  0  0  0
   48.5270   33.5070   39.9110 N   0  0  0  0  0  0  0  0  0  0  0  0
   48.5800   32.8850   38.6880 C   0  0  0  0  0  3  0  0  0  0  0  0
   47.4600   32.6140   38.0060 N   0  0  0  0  0  0  0  0  0  0  0  0
   46.2460   32.9520   38.5120 C   0  0  0  0  0  0  0  0  0  0  0  0
   45.0930   32.6750   37.8220 C   0  0  0  0  0  3  0  0  0  0  0  0
   43.8650   33.0100   38.3370 C   0  0  0  0  0  0  0  0  0  0  0  0
   43.0350   32.7460   37.7140 H   0  0  0  0  0  0  0  0  0  0  0  0
   43.8530   33.6410   39.5810 C   0  0  0  0  0  0  0  0  0  0  0  0
   42.8770   33.8900   39.9550 H   0  0  0  0  0  0  0  0  0  0  0  0
   45.0360   33.8880   40.2130 C   0  0  0  0  0  3  0  0  0  0  0  0
   46.2850   33.5720   39.7400 C   0  0  0  0  0  0  0  0  0  0  0  0
   44.9390   35.0640   44.5110 C   0  0  0  0  0  0  0  0  0  0  0  0
   45.6400   35.1810   43.3090 C   0  0  0  0  0  0  0  0  0  0  0  0
   46.7800   34.3730   43.0710 C   0  0  0  0  0  0  0  0  0  0  0  0
   47.1140   33.5120   44.0770 N   0  0  0  0  0  0  0  0  0  0  0  0
   46.4200   33.4220   45.2220 C   0  0  0  0  0  0  0  0  0  0  0  0
   45.3470   34.1960   45.4200 N   0  0  0  0  0  0  0  0  0  0  0  0
   43.8060   35.8670   44.7380 N   0  0  0  0  0  0  0  0  0  0  0  0
   45.3110   35.8830   42.5770 H   0  0  0  0  0  0  0  0  0  0  0  0
   46.7820   32.6980   45.9500 H   0  0  0  0  0  0  0  0  0  0  0  0
   44.0940   36.8220   45.0800 H   0  0  0  0  0  0  0  0  0  0  0  0
   42.8360   35.5020   44.5690 H   0  0  0  0  0  0  0  0  0  0  0  0
  1  2  1  1  0  0  0
  1 17  1  0  0  0  0
  3  1  1  0  0  0  0
  4  3  1  0  0  0  0
  5  4  2  0  0  0  0
  6  7  2  0  0  0  0
  6  5  1  0  0  0  0
  7 14  1  0  0  0  0
  8  9  2  0  0  0  0
  8  7  1  0  0  0  0
  9 11  1  0  0  0  0
 10  9  1  0  0  0  0
 11 12  1  0  0  0  0
 11 13  2  0  0  0  0
 14 13  1  0  0  0  0
 14  3  2  0  0  0  0
 15 21  1  0  0  0  0
 15 20  1  0  0  0  0
 16 15  2  0  0  0  0
 17 16  1  0  0  0  0
 17 18  2  0  0  0  0
 18 19  1  0  0  0  0
 19 20  2  0  0  0  0
 19 23  1  0  0  0  0
 21 24  1  0  0  0  0
 22 16  1  0  0  0  0
 25 21  1  0  0  0  0
M  END
>  <minimizedAffinity>
-5.13392162

>  <minimizedRMSD>
0.964217961

$$$$
