
 OpenBabel03242520443D

 25 27  0  0  1  0  0  0  0  0999 V2000
   47.7860   34.6620   41.9140 C   0  0  2  0  0  3  0  0  0  0  0  0
   48.4120   35.7680   41.7040 O   0  0  0  0  0  1  0  0  0  0  0  0
   48.1620   33.8750   40.7320 C   0  0  0  0  0  0  0  0  0  0  0  0
   47.4430   33.9980   39.6060 N   0  0  0  0  0  0  0  0  0  0  0  0
   47.7260   33.2970   38.4600 C   0  0  0  0  0  3  0  0  0  0  0  0
   48.7550   32.4410   38.4140 N   0  0  0  0  0  0  0  0  0  0  0  0
   49.5410   32.2500   39.5050 C   0  0  0  0  0  0  0  0  0  0  0  0
   50.6000   31.3790   39.4650 C   0  0  0  0  0  3  0  0  0  0  0  0
   51.3990   31.1910   40.5650 C   0  0  0  0  0  0  0  0  0  0  0  0
   52.1950   30.4890   40.4210 H   0  0  0  0  0  0  0  0  0  0  0  0
   51.0810   31.9210   41.7110 C   0  0  0  0  0  0  0  0  0  0  0  0
   51.7250   31.7500   42.5530 H   0  0  0  0  0  0  0  0  0  0  0  0
   50.0130   32.7700   41.6810 C   0  0  0  0  0  3  0  0  0  0  0  0
   49.1870   32.9920   40.6090 C   0  0  0  0  0  0  0  0  0  0  0  0
   44.9220   35.0910   44.2230 C   0  0  0  0  0  0  0  0  0  0  0  0
   45.7880   35.2320   43.1380 C   0  0  0  0  0  0  0  0  0  0  0  0
   46.9810   34.4700   43.0790 C   0  0  0  0  0  0  0  0  0  0  0  0
   47.1960   33.6270   44.1310 N   0  0  0  0  0  0  0  0  0  0  0  0
   46.3440   33.5130   45.1620 C   0  0  0  0  0  0  0  0  0  0  0  0
   45.2240   34.2440   45.1920 N   0  0  0  0  0  0  0  0  0  0  0  0
   43.7360   35.8480   44.2730 N   0  0  0  0  0  0  0  0  0  0  0  0
   45.5430   35.9170   42.3580 H   0  0  0  0  0  0  0  0  0  0  0  0
   46.6230   32.8070   45.9420 H   0  0  0  0  0  0  0  0  0  0  0  0
   43.9320   36.8140   44.6440 H   0  0  0  0  0  0  0  0  0  0  0  0
   42.8170   35.4430   43.9650 H   0  0  0  0  0  0  0  0  0  0  0  0
  1  2  1  6  0  0  0
  1 17  1  0  0  0  0
  3  1  1  0  0  0  0
  4  3  2  0  0  0  0
  5  4  1  0  0  0  0
  6  5  2  0  0  0  0
  6  7  1  0  0  0  0
  7 14  1  0  0  0  0
  8  7  2  0  0  0  0
  8  9  1  0  0  0  0
  9 11  2  0  0  0  0
 10  9  1  0  0  0  0
 11 12  1  0  0  0  0
 13 11  1  0  0  0  0
 14  3  1  0  0  0  0
 14 13  2  0  0  0  0
 15 21  1  0  0  0  0
 15 20  1  0  0  0  0
 16 15  2  0  0  0  0
 17 16  1  0  0  0  0
 17 18  2  0  0  0  0
 18 19  1  0  0  0  0
 19 20  2  0  0  0  0
 19 23  1  0  0  0  0
 21 24  1  0  0  0  0
 22 16  1  0  0  0  0
 25 21  1  0  0  0  0
M  END
>  <minimizedAffinity>
-5.38253212

>  <minimizedRMSD>
1.54024863

$$$$
