
 OpenBabel03242520463D

 25 27  0  0  1  0  0  0  0  0999 V2000
   37.1050   27.4820   42.7820 C   0  0  2  0  0  3  0  0  0  0  0  0
   36.1650   27.6100   43.6530 O   0  0  0  0  0  1  0  0  0  0  0  0
   36.8610   28.6350   41.9050 C   0  0  0  0  0  0  0  0  0  0  0  0
   35.7480   28.6660   41.1560 N   0  0  0  0  0  0  0  0  0  0  0  0
   35.4480   29.7050   40.3090 C   0  0  0  0  0  3  0  0  0  0  0  0
   36.2700   30.7560   40.1920 N   0  0  0  0  0  0  0  0  0  0  0  0
   37.4200   30.8140   40.9120 C   0  0  0  0  0  0  0  0  0  0  0  0
   38.2650   31.8900   40.8020 C   0  0  0  0  0  3  0  0  0  0  0  0
   39.4250   31.9520   41.5340 C   0  0  0  0  0  0  0  0  0  0  0  0
   40.0070   32.8360   41.3690 H   0  0  0  0  0  0  0  0  0  0  0  0
   39.6960   30.8790   42.3840 C   0  0  0  0  0  0  0  0  0  0  0  0
   40.6100   30.9580   42.9410 H   0  0  0  0  0  0  0  0  0  0  0  0
   38.8110   29.8410   42.4440 C   0  0  0  0  0  3  0  0  0  0  0  0
   37.6430   29.7330   41.7340 C   0  0  0  0  0  0  0  0  0  0  0  0
   38.5620   24.1460   42.0970 C   0  0  0  0  0  0  0  0  0  0  0  0
   37.6960   25.2400   42.1170 C   0  0  0  0  0  0  0  0  0  0  0  0
   38.0410   26.4040   42.8480 C   0  0  0  0  0  0  0  0  0  0  0  0
   39.2400   26.3590   43.5000 N   0  0  0  0  0  0  0  0  0  0  0  0
   40.0520   25.2910   43.4620 C   0  0  0  0  0  0  0  0  0  0  0  0
   39.7020   24.2050   42.7630 N   0  0  0  0  0  0  0  0  0  0  0  0
   38.2150   22.9950   41.3650 N   0  0  0  0  0  0  0  0  0  0  0  0
   36.7760   25.1900   41.5800 H   0  0  0  0  0  0  0  0  0  0  0  0
   40.9830   25.3730   44.0210 H   0  0  0  0  0  0  0  0  0  0  0  0
   37.5670   22.3830   41.9280 H   0  0  0  0  0  0  0  0  0  0  0  0
   38.5850   22.8310   40.3960 H   0  0  0  0  0  0  0  0  0  0  0  0
  1 17  1  0  0  0  0
  1  2  1  6  0  0  0
  3  1  1  0  0  0  0
  4  3  2  0  0  0  0
  5  4  1  0  0  0  0
  6  5  2  0  0  0  0
  6  7  1  0  0  0  0
  7 14  1  0  0  0  0
  8  7  2  0  0  0  0
  8  9  1  0  0  0  0
  9 11  2  0  0  0  0
 10  9  1  0  0  0  0
 11 13  1  0  0  0  0
 11 12  1  0  0  0  0
 14  3  1  0  0  0  0
 14 13  2  0  0  0  0
 15 16  2  0  0  0  0
 15 20  1  0  0  0  0
 16 17  1  0  0  0  0
 17 18  2  0  0  0  0
 19 18  1  0  0  0  0
 19 23  1  0  0  0  0
 20 19  2  0  0  0  0
 21 24  1  0  0  0  0
 21 15  1  0  0  0  0
 22 16  1  0  0  0  0
 25 21  1  0  0  0  0
M  END
>  <minimizedAffinity>
-5.69036198

$$$$

 OpenBabel03242520463D

 25 27  0  0  1  0  0  0  0  0999 V2000
   37.4170   30.6570   41.0340 C   0  0  2  0  0  3  0  0  0  0  0  0
   36.1880   31.0330   41.1200 O   0  0  0  0  0  1  0  0  0  0  0  0
   37.3690   29.3260   41.6530 C   0  0  0  0  0  0  0  0  0  0  0  0
   37.5300   29.2140   42.9800 N   0  0  0  0  0  0  0  0  0  0  0  0
   37.5020   28.0070   43.6360 C   0  0  0  0  0  3  0  0  0  0  0  0
   37.3070   26.8640   42.9640 N   0  0  0  0  0  0  0  0  0  0  0  0
   37.1330   26.8790   41.6180 C   0  0  0  0  0  0  0  0  0  0  0  0
   36.9270   25.7130   40.9230 C   0  0  0  0  0  3  0  0  0  0  0  0
   36.7450   25.7270   39.5620 C   0  0  0  0  0  0  0  0  0  0  0  0
   36.5930   24.7620   39.1240 H   0  0  0  0  0  0  0  0  0  0  0  0
   36.7790   26.9720   38.9310 C   0  0  0  0  0  0  0  0  0  0  0  0
   36.6330   26.9480   37.8680 H   0  0  0  0  0  0  0  0  0  0  0  0
   36.9880   28.0910   39.6840 C   0  0  0  0  0  3  0  0  0  0  0  0
   37.1760   28.1280   41.0420 C   0  0  0  0  0  0  0  0  0  0  0  0
   39.4250   32.2480   38.3580 C   0  0  0  0  0  0  0  0  0  0  0  0
   38.5030   31.4440   39.0290 C   0  0  0  0  0  0  0  0  0  0  0  0
   38.4130   31.4940   40.4420 C   0  0  0  0  0  0  0  0  0  0  0  0
   39.2700   32.3600   41.0580 N   0  0  0  0  0  0  0  0  0  0  0  0
   40.1470   33.1220   40.3850 C   0  0  0  0  0  0  0  0  0  0  0  0
   40.2110   33.0550   39.0510 N   0  0  0  0  0  0  0  0  0  0  0  0
   39.5060   32.1950   36.9540 N   0  0  0  0  0  0  0  0  0  0  0  0
   37.8710   30.7930   38.4680 H   0  0  0  0  0  0  0  0  0  0  0  0
   40.7790   33.7750   40.9860 H   0  0  0  0  0  0  0  0  0  0  0  0
   40.1010   31.3810   36.6500 H   0  0  0  0  0  0  0  0  0  0  0  0
   39.0140   32.9030   36.3520 H   0  0  0  0  0  0  0  0  0  0  0  0
  1  2  1  1  0  0  0
  1  3  1  0  0  0  0
  3  4  1  0  0  0  0
  4  5  2  0  0  0  0
  6  5  1  0  0  0  0
  7  6  2  0  0  0  0
  8  7  1  0  0  0  0
  9  8  2  0  0  0  0
 10  9  1  0  0  0  0
 11  9  1  0  0  0  0
 11 13  2  0  0  0  0
 12 11  1  0  0  0  0
 13 14  1  0  0  0  0
 14  7  1  0  0  0  0
 14  3  2  0  0  0  0
 15 16  2  0  0  0  0
 15 20  1  0  0  0  0
 16 17  1  0  0  0  0
 17  1  1  0  0  0  0
 17 18  2  0  0  0  0
 19 23  1  0  0  0  0
 19 18  1  0  0  0  0
 20 19  2  0  0  0  0
 21 15  1  0  0  0  0
 22 16  1  0  0  0  0
 24 21  1  0  0  0  0
 25 21  1  0  0  0  0
M  END
>  <minimizedAffinity>
-5.54601002

$$$$

 OpenBabel03242520463D

 25 27  0  0  1  0  0  0  0  0999 V2000
   39.6170   31.7710   40.0750 C   0  0  2  0  0  3  0  0  0  0  0  0
   39.3800   32.9050   40.6390 O   0  0  0  0  0  1  0  0  0  0  0  0
   38.8070   30.8550   40.8880 C   0  0  0  0  0  0  0  0  0  0  0  0
   39.2270   30.5240   42.1190 N   0  0  0  0  0  0  0  0  0  0  0  0
   38.5300   29.6730   42.9420 C   0  0  0  0  0  3  0  0  0  0  0  0
   37.3750   29.1240   42.5430 N   0  0  0  0  0  0  0  0  0  0  0  0
   36.8690   29.4020   41.3140 C   0  0  0  0  0  0  0  0  0  0  0  0
   35.6830   28.8480   40.9000 C   0  0  0  0  0  3  0  0  0  0  0  0
   35.1690   29.1330   39.6590 C   0  0  0  0  0  0  0  0  0  0  0  0
   34.2390   28.6470   39.4420 H   0  0  0  0  0  0  0  0  0  0  0  0
   35.9040   30.0020   38.8520 C   0  0  0  0  0  0  0  0  0  0  0  0
   35.4740   30.2040   37.8900 H   0  0  0  0  0  0  0  0  0  0  0  0
   37.0760   30.5160   39.3280 C   0  0  0  0  0  3  0  0  0  0  0  0
   37.6300   30.2620   40.5560 C   0  0  0  0  0  0  0  0  0  0  0  0
   41.8700   32.8900   37.3560 C   0  0  0  0  0  0  0  0  0  0  0  0
   40.9870   32.8910   38.4370 C   0  0  0  0  0  0  0  0  0  0  0  0
   40.4890   31.6670   38.9480 C   0  0  0  0  0  0  0  0  0  0  0  0
   40.9300   30.5400   38.3150 N   0  0  0  0  0  0  0  0  0  0  0  0
   41.7800   30.5710   37.2770 C   0  0  0  0  0  0  0  0  0  0  0  0
   42.2350   31.7410   36.8150 N   0  0  0  0  0  0  0  0  0  0  0  0
   42.3640   34.1100   36.8570 N   0  0  0  0  0  0  0  0  0  0  0  0
   40.6930   33.8200   38.8720 H   0  0  0  0  0  0  0  0  0  0  0  0
   42.0600   29.6070   36.8550 H   0  0  0  0  0  0  0  0  0  0  0  0
   41.6680   34.5470   36.1980 H   0  0  0  0  0  0  0  0  0  0  0  0
   43.3060   34.4760   37.1450 H   0  0  0  0  0  0  0  0  0  0  0  0
  1  2  1  1  0  0  0
  1  3  1  0  0  0  0
  3  4  1  0  0  0  0
  4  5  2  0  0  0  0
  6  5  1  0  0  0  0
  7  6  2  0  0  0  0
  8  7  1  0  0  0  0
  9  8  2  0  0  0  0
 10  9  1  0  0  0  0
 11 13  2  0  0  0  0
 11  9  1  0  0  0  0
 12 11  1  0  0  0  0
 13 14  1  0  0  0  0
 14  3  2  0  0  0  0
 14  7  1  0  0  0  0
 15 16  1  0  0  0  0
 16 22  1  0  0  0  0
 16 17  2  0  0  0  0
 17  1  1  0  0  0  0
 18 17  1  0  0  0  0
 19 18  2  0  0  0  0
 20 19  1  0  0  0  0
 20 15  2  0  0  0  0
 21 25  1  0  0  0  0
 21 15  1  0  0  0  0
 23 19  1  0  0  0  0
 24 21  1  0  0  0  0
M  END
>  <minimizedAffinity>
-5.45432425

$$$$

 OpenBabel03242520463D

 25 27  0  0  1  0  0  0  0  0999 V2000
   36.5530   29.9540   40.2530 C   0  0  2  0  0  3  0  0  0  0  0  0
   35.7690   30.7100   40.9420 O   0  0  0  0  0  1  0  0  0  0  0  0
   37.1220   29.0850   41.2920 C   0  0  0  0  0  0  0  0  0  0  0  0
   37.6700   29.6400   42.3840 N   0  0  0  0  0  0  0  0  0  0  0  0
   38.2250   28.8990   43.3980 C   0  0  0  0  0  3  0  0  0  0  0  0
   38.2430   27.5610   43.3420 N   0  0  0  0  0  0  0  0  0  0  0  0
   37.7100   26.9100   42.2760 C   0  0  0  0  0  0  0  0  0  0  0  0
   37.7200   25.5390   42.2120 C   0  0  0  0  0  3  0  0  0  0  0  0
   37.1760   24.8800   41.1380 C   0  0  0  0  0  0  0  0  0  0  0  0
   37.2380   23.8120   41.1940 H   0  0  0  0  0  0  0  0  0  0  0  0
   36.6200   25.6660   40.1270 C   0  0  0  0  0  0  0  0  0  0  0  0
   36.2040   25.1200   39.3020 H   0  0  0  0  0  0  0  0  0  0  0  0
   36.6450   27.0250   40.2560 C   0  0  0  0  0  3  0  0  0  0  0  0
   37.1760   27.7280   41.3070 C   0  0  0  0  0  0  0  0  0  0  0  0
   37.8180   31.2870   37.0370 C   0  0  0  0  0  0  0  0  0  0  0  0
   37.6030   31.0880   38.4010 C   0  0  0  0  0  0  0  0  0  0  0  0
   36.6800   30.1050   38.8380 C   0  0  0  0  0  0  0  0  0  0  0  0
   36.0500   29.4060   37.8490 N   0  0  0  0  0  0  0  0  0  0  0  0
   36.2780   29.6210   36.5430 C   0  0  0  0  0  0  0  0  0  0  0  0
   37.1550   30.5540   36.1590 N   0  0  0  0  0  0  0  0  0  0  0  0
   38.7400   32.2620   36.6110 N   0  0  0  0  0  0  0  0  0  0  0  0
   38.1390   31.6800   39.1080 H   0  0  0  0  0  0  0  0  0  0  0  0
   35.7150   29.0000   35.8480 H   0  0  0  0  0  0  0  0  0  0  0  0
   38.2920   33.2160   36.6090 H   0  0  0  0  0  0  0  0  0  0  0  0
   39.7240   32.0040   36.3480 H   0  0  0  0  0  0  0  0  0  0  0  0
  1  2  1  1  0  0  0
  1  3  1  0  0  0  0
  3 14  2  0  0  0  0
  3  4  1  0  0  0  0
  4  5  2  0  0  0  0
  6  5  1  0  0  0  0
  7  6  2  0  0  0  0
  8  7  1  0  0  0  0
  9 10  1  0  0  0  0
  9  8  2  0  0  0  0
 11 13  2  0  0  0  0
 11  9  1  0  0  0  0
 12 11  1  0  0  0  0
 13 14  1  0  0  0  0
 14  7  1  0  0  0  0
 15 16  1  0  0  0  0
 16 17  2  0  0  0  0
 16 22  1  0  0  0  0
 17  1  1  0  0  0  0
 18 17  1  0  0  0  0
 19 18  2  0  0  0  0
 20 19  1  0  0  0  0
 20 15  2  0  0  0  0
 21 15  1  0  0  0  0
 23 19  1  0  0  0  0
 24 21  1  0  0  0  0
 25 21  1  0  0  0  0
M  END
>  <minimizedAffinity>
-5.44597912

$$$$

 OpenBabel03242520463D

 25 27  0  0  1  0  0  0  0  0999 V2000
   37.3130   30.7490   40.4850 C   0  0  2  0  0  3  0  0  0  0  0  0
   36.2210   31.1430   41.0440 O   0  0  0  0  0  1  0  0  0  0  0  0
   37.1070   29.2970   40.4140 C   0  0  0  0  0  0  0  0  0  0  0  0
   36.3790   28.7850   39.4090 N   0  0  0  0  0  0  0  0  0  0  0  0
   36.1370   27.4400   39.2730 C   0  0  0  0  0  3  0  0  0  0  0  0
   36.6280   26.5600   40.1550 N   0  0  0  0  0  0  0  0  0  0  0  0
   37.3790   26.9840   41.2040 C   0  0  0  0  0  0  0  0  0  0  0  0
   37.8910   26.0880   42.1090 C   0  0  0  0  0  3  0  0  0  0  0  0
   38.6550   26.5150   43.1670 C   0  0  0  0  0  0  0  0  0  0  0  0
   39.0010   25.7310   43.8100 H   0  0  0  0  0  0  0  0  0  0  0  0
   38.8800   27.8890   43.2730 C   0  0  0  0  0  0  0  0  0  0  0  0
   39.4800   28.1890   44.1100 H   0  0  0  0  0  0  0  0  0  0  0  0
   38.3400   28.7220   42.3360 C   0  0  0  0  0  3  0  0  0  0  0  0
   37.5710   28.3450   41.2650 C   0  0  0  0  0  0  0  0  0  0  0  0
   39.7730   32.4630   38.3100 C   0  0  0  0  0  0  0  0  0  0  0  0
   38.7970   31.5820   38.7750 C   0  0  0  0  0  0  0  0  0  0  0  0
   38.3360   31.6740   40.1120 C   0  0  0  0  0  0  0  0  0  0  0  0
   38.9090   32.6570   40.8670 N   0  0  0  0  0  0  0  0  0  0  0  0
   39.8470   33.4910   40.3910 C   0  0  0  0  0  0  0  0  0  0  0  0
   40.2630   33.3820   39.1250 N   0  0  0  0  0  0  0  0  0  0  0  0
   40.2220   32.3680   36.9790 N   0  0  0  0  0  0  0  0  0  0  0  0
   38.4030   30.8410   38.1170 H   0  0  0  0  0  0  0  0  0  0  0  0
   40.2290   34.2350   41.0880 H   0  0  0  0  0  0  0  0  0  0  0  0
   40.9570   31.6170   36.8920 H   0  0  0  0  0  0  0  0  0  0  0  0
   39.8340   32.9890   36.2260 H   0  0  0  0  0  0  0  0  0  0  0  0
  1  2  1  1  0  0  0
  3  1  1  0  0  0  0
  3 14  1  0  0  0  0
  4  3  2  0  0  0  0
  5  4  1  0  0  0  0
  5  6  2  0  0  0  0
  6  7  1  0  0  0  0
  7 14  2  0  0  0  0
  7  8  1  0  0  0  0
  8  9  2  0  0  0  0
  9 11  1  0  0  0  0
  9 10  1  0  0  0  0
 11 12  1  0  0  0  0
 13 11  2  0  0  0  0
 14 13  1  0  0  0  0
 15 16  2  0  0  0  0
 15 20  1  0  0  0  0
 16 17  1  0  0  0  0
 17  1  1  0  0  0  0
 17 18  2  0  0  0  0
 19 18  1  0  0  0  0
 19 23  1  0  0  0  0
 20 19  2  0  0  0  0
 21 15  1  0  0  0  0
 22 16  1  0  0  0  0
 24 21  1  0  0  0  0
 25 21  1  0  0  0  0
M  END
>  <minimizedAffinity>
-5.31087446

$$$$

 OpenBabel03242520463D

 25 27  0  0  1  0  0  0  0  0999 V2000
   36.2920   29.5040   40.1570 C   0  0  1  0  0  3  0  0  0  0  0  0
   35.0270   29.7080   40.2940 O   0  0  0  0  0  1  0  0  0  0  0  0
   36.3220   28.1160   39.6770 C   0  0  0  0  0  0  0  0  0  0  0  0
   36.0440   27.8600   38.3890 N   0  0  0  0  0  0  0  0  0  0  0  0
   36.0480   26.5910   37.8630 C   0  0  0  0  0  3  0  0  0  0  0  0
   36.3360   25.5300   38.6290 N   0  0  0  0  0  0  0  0  0  0  0  0
   36.6320   25.6910   39.9440 C   0  0  0  0  0  0  0  0  0  0  0  0
   36.9340   24.6100   40.7340 C   0  0  0  0  0  3  0  0  0  0  0  0
   37.2390   24.7720   42.0630 C   0  0  0  0  0  0  0  0  0  0  0  0
   37.4590   23.8620   42.5820 H   0  0  0  0  0  0  0  0  0  0  0  0
   37.2260   26.0760   42.5620 C   0  0  0  0  0  0  0  0  0  0  0  0
   37.4690   26.1680   43.6030 H   0  0  0  0  0  0  0  0  0  0  0  0
   36.9170   27.1040   41.7190 C   0  0  0  0  0  3  0  0  0  0  0  0
   36.6050   26.9930   40.3880 C   0  0  0  0  0  0  0  0  0  0  0  0
   37.8170   32.8790   40.2160 C   0  0  0  0  0  0  0  0  0  0  0  0
   36.9570   31.8130   39.9490 C   0  0  0  0  0  0  0  0  0  0  0  0
   37.2480   30.5220   40.4570 C   0  0  0  0  0  0  0  0  0  0  0  0
   38.3920   30.4220   41.1950 N   0  0  0  0  0  0  0  0  0  0  0  0
   39.2000   31.4670   41.4350 C   0  0  0  0  0  0  0  0  0  0  0  0
   38.9010   32.6750   40.9440 N   0  0  0  0  0  0  0  0  0  0  0  0
   37.5180   34.1590   39.7110 N   0  0  0  0  0  0  0  0  0  0  0  0
   36.0830   31.9790   39.3610 H   0  0  0  0  0  0  0  0  0  0  0  0
   40.0840   31.2650   42.0370 H   0  0  0  0  0  0  0  0  0  0  0  0
   37.8370   34.2430   38.7100 H   0  0  0  0  0  0  0  0  0  0  0  0
   37.0410   34.8820   40.3060 H   0  0  0  0  0  0  0  0  0  0  0  0
  1  2  1  6  0  0  0
  1 17  1  0  0  0  0
  3  1  1  0  0  0  0
  3 14  1  0  0  0  0
  4  3  2  0  0  0  0
  5  4  1  0  0  0  0
  5  6  2  0  0  0  0
  6  7  1  0  0  0  0
  7 14  2  0  0  0  0
  7  8  1  0  0  0  0
  8  9  2  0  0  0  0
  9 11  1  0  0  0  0
  9 10  1  0  0  0  0
 11 12  1  0  0  0  0
 13 11  2  0  0  0  0
 14 13  1  0  0  0  0
 15 20  1  0  0  0  0
 16 15  2  0  0  0  0
 16 17  1  0  0  0  0
 17 18  2  0  0  0  0
 18 19  1  0  0  0  0
 19 23  1  0  0  0  0
 20 19  2  0  0  0  0
 21 15  1  0  0  0  0
 21 25  1  0  0  0  0
 22 16  1  0  0  0  0
 24 21  1  0  0  0  0
M  END
>  <minimizedAffinity>
-5.30178452

$$$$

 OpenBabel03242520463D

 25 27  0  0  1  0  0  0  0  0999 V2000
   36.7180   30.0330   40.4270 C   0  0  2  0  0  3  0  0  0  0  0  0
   36.2070   30.9680   41.1500 O   0  0  0  0  0  1  0  0  0  0  0  0
   37.1810   29.0820   41.4460 C   0  0  0  0  0  0  0  0  0  0  0  0
   36.2950   28.2560   42.0240 N   0  0  0  0  0  0  0  0  0  0  0  0
   36.6450   27.3420   42.9870 C   0  0  0  0  0  3  0  0  0  0  0  0
   37.9140   27.2310   43.4010 N   0  0  0  0  0  0  0  0  0  0  0  0
   38.8820   28.0240   42.8720 C   0  0  0  0  0  0  0  0  0  0  0  0
   40.1860   27.9130   43.2870 C   0  0  0  0  0  3  0  0  0  0  0  0
   41.1660   28.7100   42.7480 C   0  0  0  0  0  0  0  0  0  0  0  0
   42.1460   28.5380   43.1450 H   0  0  0  0  0  0  0  0  0  0  0  0
   40.7720   29.6260   41.7720 C   0  0  0  0  0  0  0  0  0  0  0  0
   41.5620   30.2340   41.3720 H   0  0  0  0  0  0  0  0  0  0  0  0
   39.4580   29.6830   41.4080 C   0  0  0  0  0  3  0  0  0  0  0  0
   38.4440   28.9110   41.9150 C   0  0  0  0  0  0  0  0  0  0  0  0
   37.6490   31.2510   37.0540 C   0  0  0  0  0  0  0  0  0  0  0  0
   37.5540   31.1150   38.4400 C   0  0  0  0  0  0  0  0  0  0  0  0
   36.7240   30.1130   39.0000 C   0  0  0  0  0  0  0  0  0  0  0  0
   36.0550   29.3300   38.1020 N   0  0  0  0  0  0  0  0  0  0  0  0
   36.1660   29.4850   36.7740 C   0  0  0  0  0  0  0  0  0  0  0  0
   36.9580   30.4400   36.2720 N   0  0  0  0  0  0  0  0  0  0  0  0
   38.4790   32.2460   36.5060 N   0  0  0  0  0  0  0  0  0  0  0  0
   38.1110   31.7710   39.0700 H   0  0  0  0  0  0  0  0  0  0  0  0
   35.5840   28.8010   36.1580 H   0  0  0  0  0  0  0  0  0  0  0  0
   37.9810   33.1750   36.4930 H   0  0  0  0  0  0  0  0  0  0  0  0
   39.4520   32.0240   36.1760 H   0  0  0  0  0  0  0  0  0  0  0  0
  1  2  1  1  0  0  0
  1  3  1  0  0  0  0
  3 14  2  0  0  0  0
  3  4  1  0  0  0  0
  4  5  2  0  0  0  0
  5  6  1  0  0  0  0
  7  8  1  0  0  0  0
  7  6  2  0  0  0  0
  9 10  1  0  0  0  0
  9  8  2  0  0  0  0
 11  9  1  0  0  0  0
 12 11  1  0  0  0  0
 13 11  2  0  0  0  0
 13 14  1  0  0  0  0
 14  7  1  0  0  0  0
 15 16  1  0  0  0  0
 16 17  2  0  0  0  0
 16 22  1  0  0  0  0
 17  1  1  0  0  0  0
 18 17  1  0  0  0  0
 19 18  2  0  0  0  0
 20 19  1  0  0  0  0
 20 15  2  0  0  0  0
 21 15  1  0  0  0  0
 23 19  1  0  0  0  0
 24 21  1  0  0  0  0
 25 21  1  0  0  0  0
M  END
>  <minimizedAffinity>
-5.27602959

$$$$

 OpenBabel03242520463D

 25 27  0  0  1  0  0  0  0  0999 V2000
   37.8820   28.2660   42.6130 C   0  0  2  0  0  3  0  0  0  0  0  0
   37.2710   28.6540   43.6800 O   0  0  0  0  0  1  0  0  0  0  0  0
   38.4740   29.5210   42.1330 C   0  0  0  0  0  0  0  0  0  0  0  0
   39.5440   30.0270   42.7650 N   0  0  0  0  0  0  0  0  0  0  0  0
   40.1540   31.1960   42.3810 C   0  0  0  0  0  3  0  0  0  0  0  0
   39.6990   31.8980   41.3350 N   0  0  0  0  0  0  0  0  0  0  0  0
   38.6210   31.4640   40.6320 C   0  0  0  0  0  0  0  0  0  0  0  0
   38.1520   32.1740   39.5550 C   0  0  0  0  0  3  0  0  0  0  0  0
   37.0660   31.7320   38.8400 C   0  0  0  0  0  0  0  0  0  0  0  0
   36.7870   32.3640   38.0210 H   0  0  0  0  0  0  0  0  0  0  0  0
   36.4730   30.5400   39.2590 C   0  0  0  0  0  0  0  0  0  0  0  0
   35.6270   30.2230   38.6790 H   0  0  0  0  0  0  0  0  0  0  0  0
   36.9930   29.8860   40.3390 C   0  0  0  0  0  3  0  0  0  0  0  0
   38.0720   30.2860   41.0840 C   0  0  0  0  0  0  0  0  0  0  0  0
   38.7910   24.6760   42.5220 C   0  0  0  0  0  0  0  0  0  0  0  0
   38.7650   26.0340   42.8450 C   0  0  0  0  0  0  0  0  0  0  0  0
   37.8530   26.9010   42.1930 C   0  0  0  0  0  0  0  0  0  0  0  0
   37.0410   26.3140   41.2650 N   0  0  0  0  0  0  0  0  0  0  0  0
   37.0890   25.0040   40.9760 C   0  0  0  0  0  0  0  0  0  0  0  0
   37.9590   24.2080   41.6070 N   0  0  0  0  0  0  0  0  0  0  0  0
   39.6960   23.8200   43.1770 N   0  0  0  0  0  0  0  0  0  0  0  0
   39.4370   26.4090   43.5820 H   0  0  0  0  0  0  0  0  0  0  0  0
   36.3910   24.6520   40.2180 H   0  0  0  0  0  0  0  0  0  0  0  0
   40.6460   23.8740   42.7240 H   0  0  0  0  0  0  0  0  0  0  0  0
   39.3990   23.2370   43.9990 H   0  0  0  0  0  0  0  0  0  0  0  0
  1  2  1  6  0  0  0
  3  1  1  0  0  0  0
  3  4  1  0  0  0  0
  5  4  2  0  0  0  0
  6  5  1  0  0  0  0
  7 14  1  0  0  0  0
  7  6  2  0  0  0  0
  8  7  1  0  0  0  0
  9 11  1  0  0  0  0
  9  8  2  0  0  0  0
 10  9  1  0  0  0  0
 11 13  2  0  0  0  0
 12 11  1  0  0  0  0
 13 14  1  0  0  0  0
 14  3  2  0  0  0  0
 15 16  1  0  0  0  0
 15 21  1  0  0  0  0
 16 22  1  0  0  0  0
 17  1  1  0  0  0  0
 17 16  2  0  0  0  0
 18 17  1  0  0  0  0
 19 18  2  0  0  0  0
 19 20  1  0  0  0  0
 20 15  2  0  0  0  0
 21 25  1  0  0  0  0
 23 19  1  0  0  0  0
 24 21  1  0  0  0  0
M  END
>  <minimizedAffinity>
-5.2539525

$$$$

 OpenBabel03242520463D

 25 27  0  0  1  0  0  0  0  0999 V2000
   36.0000   28.6870   38.4380 C   0  0  1  0  0  3  0  0  0  0  0  0
   34.9110   28.4660   37.7850 O   0  0  0  0  0  1  0  0  0  0  0  0
   36.3500   27.3380   38.9030 C   0  0  0  0  0  0  0  0  0  0  0  0
   36.4530   26.3420   38.0090 N   0  0  0  0  0  0  0  0  0  0  0  0
   36.7730   25.0540   38.3620 C   0  0  0  0  0  3  0  0  0  0  0  0
   37.0030   24.7280   39.6410 N   0  0  0  0  0  0  0  0  0  0  0  0
   36.9240   25.6700   40.6160 C   0  0  0  0  0  0  0  0  0  0  0  0
   37.1630   25.3460   41.9280 C   0  0  0  0  0  3  0  0  0  0  0  0
   37.0880   26.2990   42.9130 C   0  0  0  0  0  0  0  0  0  0  0  0
   37.2940   25.9350   43.9000 H   0  0  0  0  0  0  0  0  0  0  0  0
   36.7620   27.5960   42.5170 C   0  0  0  0  0  0  0  0  0  0  0  0
   36.7120   28.3170   43.3110 H   0  0  0  0  0  0  0  0  0  0  0  0
   36.5370   27.8480   41.1940 C   0  0  0  0  0  3  0  0  0  0  0  0
   36.5980   26.9320   40.1750 C   0  0  0  0  0  0  0  0  0  0  0  0
   37.7760   31.7720   37.4120 C   0  0  0  0  0  0  0  0  0  0  0  0
   37.2320   30.4860   37.4080 C   0  0  0  0  0  0  0  0  0  0  0  0
   36.5480   30.0010   38.5500 C   0  0  0  0  0  0  0  0  0  0  0  0
   36.4730   30.8660   39.6050 N   0  0  0  0  0  0  0  0  0  0  0  0
   37.0060   32.0970   39.5790 C   0  0  0  0  0  0  0  0  0  0  0  0
   37.6470   32.5290   38.4870 N   0  0  0  0  0  0  0  0  0  0  0  0
   38.4510   32.2470   36.2720 N   0  0  0  0  0  0  0  0  0  0  0  0
   37.3380   29.8750   36.5400 H   0  0  0  0  0  0  0  0  0  0  0  0
   36.8820   32.6950   40.4810 H   0  0  0  0  0  0  0  0  0  0  0  0
   39.4460   31.9020   36.2630 H   0  0  0  0  0  0  0  0  0  0  0  0
   37.9670   32.8580   35.5670 H   0  0  0  0  0  0  0  0  0  0  0  0
  1  2  1  6  0  0  0
  1 17  1  0  0  0  0
  1  3  1  0  0  0  0
  3 14  1  0  0  0  0
  4  5  1  0  0  0  0
  4  3  2  0  0  0  0
  5  6  2  0  0  0  0
  6  7  1  0  0  0  0
  7  8  1  0  0  0  0
  8  9  2  0  0  0  0
  9 10  1  0  0  0  0
 11  9  1  0  0  0  0
 11 12  1  0  0  0  0
 13 11  2  0  0  0  0
 14  7  2  0  0  0  0
 14 13  1  0  0  0  0
 15 20  1  0  0  0  0
 16 15  2  0  0  0  0
 16 17  1  0  0  0  0
 17 18  2  0  0  0  0
 19 18  1  0  0  0  0
 19 23  1  0  0  0  0
 20 19  2  0  0  0  0
 21 15  1  0  0  0  0
 22 16  1  0  0  0  0
 24 21  1  0  0  0  0
 25 21  1  0  0  0  0
M  END
>  <minimizedAffinity>
-5.228724

$$$$
