
 OpenBabel03252500593D

 37 38  0  0  0  0  0  0  0  0999 V2000
   34.5070   29.1170   40.0340 O   0  0  0  0  0  0  0  0  0  0  0  0
   35.8780   29.5390   40.5480 P   0  0  1  0  0  0  0  0  0  0  0  0
   35.7270   31.0140   41.3550 O   0  0  0  0  0  0  0  0  0  0  0  0
   36.3270   31.7140   41.0380 H   0  0  0  0  0  0  0  0  0  0  0  0
   36.4290   28.3880   41.6600 O   0  0  0  0  0  0  0  0  0  0  0  0
   37.8760   26.6200   42.2460 C   0  0  0  0  0  0  0  0  0  0  0  0
   36.9620   27.1410   41.3520 C   0  0  0  0  0  0  0  0  0  0  0  0
   36.6470   26.3800   40.2190 C   0  0  0  0  0  0  0  0  0  0  0  0
   37.2580   25.1830   40.0720 N   0  0  0  0  0  0  0  0  0  0  0  0
   38.1400   24.6990   40.9510 C   0  0  0  0  0  0  0  0  0  0  0  0
   38.4500   25.4180   42.0400 N   0  0  0  0  0  0  0  0  0  0  0  0
   35.9360   26.8380   39.5730 H   0  0  0  0  0  0  0  0  0  0  0  0
   38.5910   23.7260   40.7640 H   0  0  0  0  0  0  0  0  0  0  0  0
   38.2540   27.3580   43.4500 C   0  0  0  0  0  0  0  0  0  0  0  0
   37.6610   28.2910   43.6130 H   0  0  0  0  0  0  0  0  0  0  0  0
   38.0840   26.7310   44.3550 H   0  0  0  0  0  0  0  0  0  0  0  0
   39.7110   27.7220   43.3710 C   0  0  0  0  0  0  0  0  0  0  0  0
   39.8540   28.3220   42.4430 H   0  0  0  0  0  0  0  0  0  0  0  0
   40.0620   28.2810   44.2610 H   0  0  0  0  0  0  0  0  0  0  0  0
   40.2900   26.7880   43.2280 H   0  0  0  0  0  0  0  0  0  0  0  0
   36.9470   29.7690   39.2490 O   0  0  0  0  0  0  0  0  0  0  0  0
   38.1220   30.4600   39.4830 C   0  0  0  0  0  0  0  0  0  0  0  0
   38.8260   30.1680   40.6400 C   0  0  0  0  0  0  0  0  0  0  0  0
   40.0100   30.8010   40.9670 C   0  0  0  0  0  0  0  0  0  0  0  0
   40.4870   31.7390   40.1140 N   0  0  0  0  0  0  0  0  0  0  0  0
   39.8100   32.0310   38.9860 C   0  0  0  0  0  0  0  0  0  0  0  0
   38.6680   31.3980   38.7020 N   0  0  0  0  0  0  0  0  0  0  0  0
   38.4730   29.4300   41.3320 H   0  0  0  0  0  0  0  0  0  0  0  0
   40.5450   30.5650   41.8640 H   0  0  0  0  0  0  0  0  0  0  0  0
   41.5000   31.5320   36.7870 N   0  0  0  0  0  0  0  0  0  0  0  0
   41.4120   32.7640   37.2070 C   0  0  0  0  0  0  0  0  0  0  0  0
   40.3060   33.0270   38.0690 N   0  0  0  0  0  0  0  0  0  0  0  0
   42.2630   33.8950   36.9330 N   0  0  0  0  0  0  0  0  0  0  0  0
   41.9400   34.7180   36.4090 H   0  0  0  0  0  0  0  0  0  0  0  0
   42.2300   31.1680   36.1630 H   0  0  0  0  0  0  0  0  0  0  0  0
   39.8170   33.9710   38.0570 H   0  0  0  0  0  0  0  0  0  0  0  0
   43.2270   33.7610   37.3310 H   0  0  0  0  0  0  0  0  0  0  0  0
  2  1  2  6  0  0  0
  2  3  1  0  0  0  0
  2  5  1  0  0  0  0
  4  3  1  0  0  0  0
  6 14  1  0  0  0  0
  7  5  1  0  0  0  0
  7  6  2  0  0  0  0
  8  7  1  0  0  0  0
  9  8  2  0  0  0  0
  9 10  1  0  0  0  0
 10 11  2  0  0  0  0
 11  6  1  0  0  0  0
 12  8  1  0  0  0  0
 13 10  1  0  0  0  0
 14 15  1  0  0  0  0
 14 16  1  0  0  0  0
 17 14  1  0  0  0  0
 17 19  1  0  0  0  0
 18 17  1  0  0  0  0
 20 17  1  0  0  0  0
 21 22  1  0  0  0  0
 21  2  1  0  0  0  0
 22 23  1  0  0  0  0
 23 24  2  0  0  0  0
 23 28  1  0  0  0  0
 24 29  1  0  0  0  0
 25 24  1  0  0  0  0
 26 25  2  0  0  0  0
 27 26  1  0  0  0  0
 27 22  2  0  0  0  0
 30 31  2  0  0  0  0
 31 32  1  0  0  0  0
 32 26  1  0  0  0  0
 33 31  1  0  0  0  0
 33 37  1  0  0  0  0
 34 33  1  0  0  0  0
 35 30  1  0  0  0  0
 36 32  1  0  0  0  0
M  END
>  <minimizedAffinity>
-6.1802063

$$$$

 OpenBabel03252500593D

 37 38  0  0  0  0  0  0  0  0999 V2000
   37.3020   29.9400   39.5740 O   0  0  0  0  0  0  0  0  0  0  0  0
   37.0960   30.5950   40.9340 P   0  0  1  0  0  0  0  0  0  0  0  0
   35.4450   30.6190   41.2820 O   0  0  0  0  0  0  0  0  0  0  0  0
   35.0890   31.4980   41.5070 H   0  0  0  0  0  0  0  0  0  0  0  0
   37.8670   29.6630   42.1180 O   0  0  0  0  0  0  0  0  0  0  0  0
   39.0400   27.6740   42.6000 C   0  0  0  0  0  0  0  0  0  0  0  0
   37.8640   28.2750   42.2000 C   0  0  0  0  0  0  0  0  0  0  0  0
   36.7710   27.4470   41.9100 C   0  0  0  0  0  0  0  0  0  0  0  0
   36.9380   26.1120   42.0420 N   0  0  0  0  0  0  0  0  0  0  0  0
   38.0880   25.5530   42.4310 C   0  0  0  0  0  0  0  0  0  0  0  0
   39.1410   26.3350   42.7120 N   0  0  0  0  0  0  0  0  0  0  0  0
   35.8970   27.9730   41.6080 H   0  0  0  0  0  0  0  0  0  0  0  0
   38.1450   24.4690   42.5140 H   0  0  0  0  0  0  0  0  0  0  0  0
   40.2220   28.4740   42.9180 C   0  0  0  0  0  0  0  0  0  0  0  0
   40.0070   29.5620   43.0580 H   0  0  0  0  0  0  0  0  0  0  0  0
   40.6720   28.1310   43.8770 H   0  0  0  0  0  0  0  0  0  0  0  0
   41.2340   28.3220   41.8160 C   0  0  0  0  0  0  0  0  0  0  0  0
   40.7460   28.6450   40.8680 H   0  0  0  0  0  0  0  0  0  0  0  0
   42.1600   28.9020   42.0020 H   0  0  0  0  0  0  0  0  0  0  0  0
   41.4530   27.2420   41.7000 H   0  0  0  0  0  0  0  0  0  0  0  0
   37.6400   32.2030   40.9010 O   0  0  0  0  0  0  0  0  0  0  0  0
   38.9880   32.4340   40.6960 C   0  0  0  0  0  0  0  0  0  0  0  0
   39.8850   31.8630   41.5830 C   0  0  0  0  0  0  0  0  0  0  0  0
   41.2520   32.0320   41.4670 C   0  0  0  0  0  0  0  0  0  0  0  0
   41.7150   32.7880   40.4430 N   0  0  0  0  0  0  0  0  0  0  0  0
   40.8510   33.3480   39.5750 C   0  0  0  0  0  0  0  0  0  0  0  0
   39.5350   33.1630   39.7180 N   0  0  0  0  0  0  0  0  0  0  0  0
   39.5480   31.2600   42.4020 H   0  0  0  0  0  0  0  0  0  0  0  0
   41.9350   31.5840   42.1600 H   0  0  0  0  0  0  0  0  0  0  0  0
   41.4560   32.4030   36.9900 N   0  0  0  0  0  0  0  0  0  0  0  0
   41.9350   33.5680   37.3290 C   0  0  0  0  0  0  0  0  0  0  0  0
   41.3300   34.1550   38.4800 N   0  0  0  0  0  0  0  0  0  0  0  0
   42.9820   34.3480   36.7170 N   0  0  0  0  0  0  0  0  0  0  0  0
   42.8070   35.2560   36.2690 H   0  0  0  0  0  0  0  0  0  0  0  0
   41.7720   31.8390   36.1920 H   0  0  0  0  0  0  0  0  0  0  0  0
   41.2160   35.2090   38.5590 H   0  0  0  0  0  0  0  0  0  0  0  0
   43.9160   33.8710   36.7930 H   0  0  0  0  0  0  0  0  0  0  0  0
  2  1  2  6  0  0  0
  2  3  1  0  0  0  0
  2  5  1  0  0  0  0
  3  4  1  0  0  0  0
  5  7  1  0  0  0  0
  6 11  1  0  0  0  0
  6 14  1  0  0  0  0
  7  6  2  0  0  0  0
  8  9  2  0  0  0  0
  8  7  1  0  0  0  0
  9 10  1  0  0  0  0
 10 13  1  0  0  0  0
 10 11  2  0  0  0  0
 12  8  1  0  0  0  0
 14 15  1  0  0  0  0
 14 16  1  0  0  0  0
 17 19  1  0  0  0  0
 17 14  1  0  0  0  0
 18 17  1  0  0  0  0
 20 17  1  0  0  0  0
 21  2  1  0  0  0  0
 22 21  1  0  0  0  0
 22 23  1  0  0  0  0
 23 28  1  0  0  0  0
 24 23  2  0  0  0  0
 24 29  1  0  0  0  0
 25 24  1  0  0  0  0
 26 27  1  0  0  0  0
 26 25  2  0  0  0  0
 27 22  2  0  0  0  0
 30 31  2  0  0  0  0
 31 32  1  0  0  0  0
 32 36  1  0  0  0  0
 32 26  1  0  0  0  0
 33 37  1  0  0  0  0
 33 31  1  0  0  0  0
 34 33  1  0  0  0  0
 35 30  1  0  0  0  0
M  END
>  <minimizedAffinity>
-6.05242634

$$$$

 OpenBabel03252500593D

 37 38  0  0  0  0  0  0  0  0999 V2000
   34.1780   28.9790   40.2230 O   0  0  0  0  0  0  0  0  0  0  0  0
   35.6290   29.2610   40.5940 P   0  0  1  0  0  0  0  0  0  0  0  0
   35.7580   30.8620   41.1120 O   0  0  0  0  0  0  0  0  0  0  0  0
   36.4320   31.3890   40.6460 H   0  0  0  0  0  0  0  0  0  0  0  0
   36.0760   28.2570   41.8810 O   0  0  0  0  0  0  0  0  0  0  0  0
   37.7920   26.7130   42.3670 C   0  0  0  0  0  0  0  0  0  0  0  0
   37.3710   28.0280   42.3310 C   0  0  0  0  0  0  0  0  0  0  0  0
   38.2730   29.0160   42.7460 C   0  0  0  0  0  0  0  0  0  0  0  0
   39.4990   28.6200   43.1560 N   0  0  0  0  0  0  0  0  0  0  0  0
   39.8840   27.3410   43.1820 C   0  0  0  0  0  0  0  0  0  0  0  0
   39.0300   26.3860   42.7870 N   0  0  0  0  0  0  0  0  0  0  0  0
   37.8860   30.0060   42.6940 H   0  0  0  0  0  0  0  0  0  0  0  0
   40.8880   27.1000   43.5250 H   0  0  0  0  0  0  0  0  0  0  0  0
   36.9050   25.6290   41.9490 C   0  0  0  0  0  0  0  0  0  0  0  0
   35.9450   25.5850   42.5210 H   0  0  0  0  0  0  0  0  0  0  0  0
   36.6150   25.7590   40.8820 H   0  0  0  0  0  0  0  0  0  0  0  0
   37.6200   24.3150   42.1090 C   0  0  0  0  0  0  0  0  0  0  0  0
   37.9220   24.2280   43.1780 H   0  0  0  0  0  0  0  0  0  0  0  0
   37.0000   23.4500   41.8020 H   0  0  0  0  0  0  0  0  0  0  0  0
   38.5600   24.3650   41.5240 H   0  0  0  0  0  0  0  0  0  0  0  0
   36.6290   29.0780   39.2340 O   0  0  0  0  0  0  0  0  0  0  0  0
   37.4520   30.1320   38.8800 C   0  0  0  0  0  0  0  0  0  0  0  0
   37.2850   30.6900   37.6240 C   0  0  0  0  0  0  0  0  0  0  0  0
   38.0550   31.7460   37.1740 C   0  0  0  0  0  0  0  0  0  0  0  0
   39.0040   32.2410   38.0040 N   0  0  0  0  0  0  0  0  0  0  0  0
   39.1760   31.7040   39.2280 C   0  0  0  0  0  0  0  0  0  0  0  0
   38.4120   30.6830   39.6300 N   0  0  0  0  0  0  0  0  0  0  0  0
   36.5410   30.3210   36.9470 H   0  0  0  0  0  0  0  0  0  0  0  0
   37.9150   32.1700   36.2000 H   0  0  0  0  0  0  0  0  0  0  0  0
   38.7760   33.7290   41.1460 N   0  0  0  0  0  0  0  0  0  0  0  0
   40.0070   33.4570   40.8090 C   0  0  0  0  0  0  0  0  0  0  0  0
   40.1830   32.2200   40.1210 N   0  0  0  0  0  0  0  0  0  0  0  0
   41.2120   34.2190   41.0270 N   0  0  0  0  0  0  0  0  0  0  0  0
   41.9730   33.8910   41.6330 H   0  0  0  0  0  0  0  0  0  0  0  0
   38.4680   34.5730   41.6430 H   0  0  0  0  0  0  0  0  0  0  0  0
   41.0670   31.6440   40.2520 H   0  0  0  0  0  0  0  0  0  0  0  0
   41.1990   35.1250   40.4950 H   0  0  0  0  0  0  0  0  0  0  0  0
  2  1  2  6  0  0  0
  2  3  1  0  0  0  0
  2  5  1  0  0  0  0
  4  3  1  0  0  0  0
  5  7  1  0  0  0  0
  6 11  1  0  0  0  0
  7  6  2  0  0  0  0
  7  8  1  0  0  0  0
  8  9  2  0  0  0  0
  9 10  1  0  0  0  0
 10 13  1  0  0  0  0
 11 10  2  0  0  0  0
 12  8  1  0  0  0  0
 14 17  1  0  0  0  0
 14  6  1  0  0  0  0
 14 15  1  0  0  0  0
 16 14  1  0  0  0  0
 17 18  1  0  0  0  0
 19 17  1  0  0  0  0
 20 17  1  0  0  0  0
 21  2  1  0  0  0  0
 22 21  1  0  0  0  0
 22 27  1  0  0  0  0
 23 22  2  0  0  0  0
 24 23  1  0  0  0  0
 24 25  2  0  0  0  0
 25 26  1  0  0  0  0
 26 27  2  0  0  0  0
 26 32  1  0  0  0  0
 28 23  1  0  0  0  0
 29 24  1  0  0  0  0
 30 35  1  0  0  0  0
 31 33  1  0  0  0  0
 31 30  2  0  0  0  0
 32 36  1  0  0  0  0
 32 31  1  0  0  0  0
 33 34  1  0  0  0  0
 37 33  1  0  0  0  0
M  END
>  <minimizedAffinity>
-5.80107641

$$$$

 OpenBabel03252500593D

 37 38  0  0  0  0  0  0  0  0999 V2000
   37.2870   31.4380   38.7700 O   0  0  0  0  0  0  0  0  0  0  0  0
   37.6310   31.9400   40.1670 P   0  0  1  0  0  0  0  0  0  0  0  0
   37.1730   33.5600   40.2920 O   0  0  0  0  0  0  0  0  0  0  0  0
   37.8820   34.1620   40.5840 H   0  0  0  0  0  0  0  0  0  0  0  0
   36.7430   31.0560   41.3050 O   0  0  0  0  0  0  0  0  0  0  0  0
   36.3170   28.7360   41.3420 C   0  0  0  0  0  0  0  0  0  0  0  0
   37.0680   29.7990   41.8020 C   0  0  0  0  0  0  0  0  0  0  0  0
   38.0880   29.5290   42.7230 C   0  0  0  0  0  0  0  0  0  0  0  0
   38.2730   28.2450   43.1030 N   0  0  0  0  0  0  0  0  0  0  0  0
   37.5320   27.2320   42.6440 C   0  0  0  0  0  0  0  0  0  0  0  0
   36.5530   27.4780   41.7610 N   0  0  0  0  0  0  0  0  0  0  0  0
   38.6280   30.3910   43.0370 H   0  0  0  0  0  0  0  0  0  0  0  0
   37.7410   26.2250   42.9970 H   0  0  0  0  0  0  0  0  0  0  0  0
   35.2350   28.9420   40.3790 C   0  0  0  0  0  0  0  0  0  0  0  0
   34.2520   28.5250   40.7090 H   0  0  0  0  0  0  0  0  0  0  0  0
   35.0640   30.0310   40.2210 H   0  0  0  0  0  0  0  0  0  0  0  0
   35.6120   28.3070   39.0690 C   0  0  0  0  0  0  0  0  0  0  0  0
   35.8050   27.2270   39.2650 H   0  0  0  0  0  0  0  0  0  0  0  0
   34.8320   28.4340   38.2920 H   0  0  0  0  0  0  0  0  0  0  0  0
   36.5780   28.7410   38.7440 H   0  0  0  0  0  0  0  0  0  0  0  0
   39.3070   31.8560   40.4260 O   0  0  0  0  0  0  0  0  0  0  0  0
   40.1480   32.1340   39.3630 C   0  0  0  0  0  0  0  0  0  0  0  0
   40.6660   33.4140   39.2650 C   0  0  0  0  0  0  0  0  0  0  0  0
   41.5140   33.7940   38.2410 C   0  0  0  0  0  0  0  0  0  0  0  0
   41.8410   32.8680   37.3090 N   0  0  0  0  0  0  0  0  0  0  0  0
   41.3420   31.6190   37.3960 C   0  0  0  0  0  0  0  0  0  0  0  0
   40.5240   31.2870   38.3990 N   0  0  0  0  0  0  0  0  0  0  0  0
   40.4250   34.1680   39.9880 H   0  0  0  0  0  0  0  0  0  0  0  0
   41.9090   34.7880   38.1770 H   0  0  0  0  0  0  0  0  0  0  0  0
   43.5000   29.8150   37.5710 N   0  0  0  0  0  0  0  0  0  0  0  0
   42.9620   29.9920   36.3960 C   0  0  0  0  0  0  0  0  0  0  0  0
   41.6820   30.6230   36.4100 N   0  0  0  0  0  0  0  0  0  0  0  0
   43.4660   29.6490   35.0890 N   0  0  0  0  0  0  0  0  0  0  0  0
   43.0180   28.9460   34.4890 H   0  0  0  0  0  0  0  0  0  0  0  0
   44.4130   29.3790   37.7480 H   0  0  0  0  0  0  0  0  0  0  0  0
   40.9420   30.3720   35.6900 H   0  0  0  0  0  0  0  0  0  0  0  0
   44.3280   30.2010   34.8490 H   0  0  0  0  0  0  0  0  0  0  0  0
  2  1  2  6  0  0  0
  2  3  1  0  0  0  0
  2 21  1  0  0  0  0
  2  5  1  0  0  0  0
  3  4  1  0  0  0  0
  5  7  1  0  0  0  0
  6 11  2  0  0  0  0
  6  7  1  0  0  0  0
  7  8  2  0  0  0  0
  8 12  1  0  0  0  0
  8  9  1  0  0  0  0
 10 13  1  0  0  0  0
 10  9  2  0  0  0  0
 11 10  1  0  0  0  0
 14 15  1  0  0  0  0
 14  6  1  0  0  0  0
 16 14  1  0  0  0  0
 17 18  1  0  0  0  0
 17 14  1  0  0  0  0
 19 17  1  0  0  0  0
 20 17  1  0  0  0  0
 22 21  1  0  0  0  0
 23 22  1  0  0  0  0
 23 28  1  0  0  0  0
 24 23  2  0  0  0  0
 25 26  2  0  0  0  0
 25 24  1  0  0  0  0
 26 27  1  0  0  0  0
 27 22  2  0  0  0  0
 29 24  1  0  0  0  0
 30 35  1  0  0  0  0
 31 32  1  0  0  0  0
 31 30  2  0  0  0  0
 32 26  1  0  0  0  0
 33 31  1  0  0  0  0
 34 33  1  0  0  0  0
 36 32  1  0  0  0  0
 37 33  1  0  0  0  0
M  END
>  <minimizedAffinity>
-5.77870464

$$$$

 OpenBabel03252500593D

 37 38  0  0  0  0  0  0  0  0999 V2000
   37.0750   29.6840   39.7390 O   0  0  0  0  0  0  0  0  0  0  0  0
   37.0620   30.8930   40.6670 P   0  0  1  0  0  0  0  0  0  0  0  0
   35.5480   30.9960   41.4060 O   0  0  0  0  0  0  0  0  0  0  0  0
   35.1030   31.8580   41.3050 H   0  0  0  0  0  0  0  0  0  0  0  0
   38.2230   30.6730   41.8790 O   0  0  0  0  0  0  0  0  0  0  0  0
   38.9850   28.6280   42.7750 C   0  0  0  0  0  0  0  0  0  0  0  0
   39.1980   29.6830   41.9090 C   0  0  0  0  0  0  0  0  0  0  0  0
   40.3680   29.6720   41.1380 C   0  0  0  0  0  0  0  0  0  0  0  0
   41.2140   28.6280   41.2900 N   0  0  0  0  0  0  0  0  0  0  0  0
   40.9870   27.6180   42.1350 C   0  0  0  0  0  0  0  0  0  0  0  0
   39.8700   27.6180   42.8780 N   0  0  0  0  0  0  0  0  0  0  0  0
   40.4700   30.5110   40.4930 H   0  0  0  0  0  0  0  0  0  0  0  0
   41.7160   26.8140   42.2020 H   0  0  0  0  0  0  0  0  0  0  0  0
   37.7870   28.5730   43.6110 C   0  0  0  0  0  0  0  0  0  0  0  0
   37.9870   28.2660   44.6670 H   0  0  0  0  0  0  0  0  0  0  0  0
   37.3150   29.5800   43.6740 H   0  0  0  0  0  0  0  0  0  0  0  0
   36.8060   27.6070   43.0060 C   0  0  0  0  0  0  0  0  0  0  0  0
   37.3150   26.6190   42.9290 H   0  0  0  0  0  0  0  0  0  0  0  0
   35.8690   27.5240   43.5930 H   0  0  0  0  0  0  0  0  0  0  0  0
   36.6020   27.9320   41.9670 H   0  0  0  0  0  0  0  0  0  0  0  0
   37.2980   32.3190   39.7760 O   0  0  0  0  0  0  0  0  0  0  0  0
   38.5720   32.5990   39.3130 C   0  0  0  0  0  0  0  0  0  0  0  0
   39.2750   33.6190   39.9300 C   0  0  0  0  0  0  0  0  0  0  0  0
   40.5540   33.9770   39.5440 C   0  0  0  0  0  0  0  0  0  0  0  0
   41.1240   33.2950   38.5230 N   0  0  0  0  0  0  0  0  0  0  0  0
   40.4480   32.3000   37.9160 C   0  0  0  0  0  0  0  0  0  0  0  0
   39.2140   31.9810   38.3160 N   0  0  0  0  0  0  0  0  0  0  0  0
   38.8500   34.1760   40.7410 H   0  0  0  0  0  0  0  0  0  0  0  0
   41.0870   34.7680   40.0300 H   0  0  0  0  0  0  0  0  0  0  0  0
   41.9460   29.9270   38.1720 N   0  0  0  0  0  0  0  0  0  0  0  0
   42.0590   30.5880   37.0530 C   0  0  0  0  0  0  0  0  0  0  0  0
   41.0440   31.5640   36.8280 N   0  0  0  0  0  0  0  0  0  0  0  0
   43.0540   30.4810   36.0150 N   0  0  0  0  0  0  0  0  0  0  0  0
   42.8330   30.1570   35.0660 H   0  0  0  0  0  0  0  0  0  0  0  0
   42.5850   29.1910   38.4950 H   0  0  0  0  0  0  0  0  0  0  0  0
   40.6990   31.7760   35.8450 H   0  0  0  0  0  0  0  0  0  0  0  0
   44.0040   30.7720   36.3570 H   0  0  0  0  0  0  0  0  0  0  0  0
  2  1  2  6  0  0  0
  2  3  1  0  0  0  0
  2  5  1  0  0  0  0
  4  3  1  0  0  0  0
  5  7  1  0  0  0  0
  6 11  1  0  0  0  0
  6 14  1  0  0  0  0
  7  6  2  0  0  0  0
  8  9  2  0  0  0  0
  8  7  1  0  0  0  0
  9 10  1  0  0  0  0
 10 13  1  0  0  0  0
 10 11  2  0  0  0  0
 12  8  1  0  0  0  0
 14 16  1  0  0  0  0
 14 15  1  0  0  0  0
 17 19  1  0  0  0  0
 17 14  1  0  0  0  0
 18 17  1  0  0  0  0
 20 17  1  0  0  0  0
 21  2  1  0  0  0  0
 22 21  1  0  0  0  0
 22 23  1  0  0  0  0
 23 28  1  0  0  0  0
 24 23  2  0  0  0  0
 24 29  1  0  0  0  0
 25 24  1  0  0  0  0
 26 27  1  0  0  0  0
 26 25  2  0  0  0  0
 27 22  2  0  0  0  0
 30 35  1  0  0  0  0
 31 30  2  0  0  0  0
 32 31  1  0  0  0  0
 32 26  1  0  0  0  0
 33 37  1  0  0  0  0
 33 31  1  0  0  0  0
 34 33  1  0  0  0  0
 36 32  1  0  0  0  0
M  END
>  <minimizedAffinity>
-5.63044167

$$$$

 OpenBabel03252500593D

 37 38  0  0  0  0  0  0  0  0999 V2000
   38.3670   27.7640   38.9630 O   0  0  0  0  0  0  0  0  0  0  0  0
   36.9160   27.9120   39.4040 P   0  0  1  0  0  0  0  0  0  0  0  0
   36.0170   26.6410   38.7520 O   0  0  0  0  0  0  0  0  0  0  0  0
   35.2320   26.9160   38.2430 H   0  0  0  0  0  0  0  0  0  0  0  0
   36.8370   27.7970   41.0910 O   0  0  0  0  0  0  0  0  0  0  0  0
   38.4340   27.9620   42.8190 C   0  0  0  0  0  0  0  0  0  0  0  0
   37.7620   27.1650   41.9130 C   0  0  0  0  0  0  0  0  0  0  0  0
   38.0630   25.7970   41.8960 C   0  0  0  0  0  0  0  0  0  0  0  0
   38.9920   25.3430   42.7680 N   0  0  0  0  0  0  0  0  0  0  0  0
   39.6300   26.1350   43.6350 C   0  0  0  0  0  0  0  0  0  0  0  0
   39.3500   27.4460   43.6620 N   0  0  0  0  0  0  0  0  0  0  0  0
   37.5110   25.2410   41.1760 H   0  0  0  0  0  0  0  0  0  0  0  0
   40.3660   25.6960   44.3050 H   0  0  0  0  0  0  0  0  0  0  0  0
   38.1720   29.3990   42.8940 C   0  0  0  0  0  0  0  0  0  0  0  0
   37.3530   29.7440   42.2160 H   0  0  0  0  0  0  0  0  0  0  0  0
   37.8490   29.6770   43.9230 H   0  0  0  0  0  0  0  0  0  0  0  0
   39.4300   30.1490   42.5520 C   0  0  0  0  0  0  0  0  0  0  0  0
   39.7420   29.8280   41.5320 H   0  0  0  0  0  0  0  0  0  0  0  0
   39.2970   31.2490   42.5960 H   0  0  0  0  0  0  0  0  0  0  0  0
   40.2280   29.8110   43.2420 H   0  0  0  0  0  0  0  0  0  0  0  0
   36.2650   29.3630   38.8080 O   0  0  0  0  0  0  0  0  0  0  0  0
   37.0360   30.5080   38.8900 C   0  0  0  0  0  0  0  0  0  0  0  0
   36.8270   31.3540   39.9660 C   0  0  0  0  0  0  0  0  0  0  0  0
   37.5440   32.5230   40.1410 C   0  0  0  0  0  0  0  0  0  0  0  0
   38.4820   32.8380   39.2170 N   0  0  0  0  0  0  0  0  0  0  0  0
   38.6940   32.0220   38.1660 C   0  0  0  0  0  0  0  0  0  0  0  0
   37.9810   30.8990   38.0290 N   0  0  0  0  0  0  0  0  0  0  0  0
   36.0920   31.1300   40.7140 H   0  0  0  0  0  0  0  0  0  0  0  0
   37.3730   33.1680   40.9790 H   0  0  0  0  0  0  0  0  0  0  0  0
   41.3850   31.1890   38.2200 N   0  0  0  0  0  0  0  0  0  0  0  0
   41.0830   32.1880   37.4360 C   0  0  0  0  0  0  0  0  0  0  0  0
   39.6900   32.3450   37.1740 N   0  0  0  0  0  0  0  0  0  0  0  0
   41.9430   33.1530   36.7980 N   0  0  0  0  0  0  0  0  0  0  0  0
   42.0540   33.2100   35.7790 H   0  0  0  0  0  0  0  0  0  0  0  0
   42.3340   30.9300   38.5130 H   0  0  0  0  0  0  0  0  0  0  0  0
   39.3480   32.7070   36.2340 H   0  0  0  0  0  0  0  0  0  0  0  0
   42.4240   33.7680   37.5020 H   0  0  0  0  0  0  0  0  0  0  0  0
  2  1  2  6  0  0  0
  2  5  1  0  0  0  0
  3  2  1  0  0  0  0
  4  3  1  0  0  0  0
  5  7  1  0  0  0  0
  6 14  1  0  0  0  0
  6 11  1  0  0  0  0
  7  6  2  0  0  0  0
  8  7  1  0  0  0  0
  8  9  2  0  0  0  0
  9 10  1  0  0  0  0
 10 11  2  0  0  0  0
 10 13  1  0  0  0  0
 12  8  1  0  0  0  0
 14 16  1  0  0  0  0
 15 14  1  0  0  0  0
 17 19  1  0  0  0  0
 17 14  1  0  0  0  0
 17 20  1  0  0  0  0
 18 17  1  0  0  0  0
 21 22  1  0  0  0  0
 21  2  1  0  0  0  0
 22 23  1  0  0  0  0
 23 24  2  0  0  0  0
 23 28  1  0  0  0  0
 24 29  1  0  0  0  0
 25 24  1  0  0  0  0
 26 25  2  0  0  0  0
 27 26  1  0  0  0  0
 27 22  2  0  0  0  0
 30 35  1  0  0  0  0
 31 30  2  0  0  0  0
 32 31  1  0  0  0  0
 32 26  1  0  0  0  0
 33 31  1  0  0  0  0
 33 37  1  0  0  0  0
 34 33  1  0  0  0  0
 36 32  1  0  0  0  0
M  END
>  <minimizedAffinity>
-5.45802355

$$$$

 OpenBabel03252500593D

 37 38  0  0  0  0  0  0  0  0999 V2000
   38.2410   27.2470   38.5900 O   0  0  0  0  0  0  0  0  0  0  0  0
   36.7920   27.5410   38.9570 P   0  0  1  0  0  0  0  0  0  0  0  0
   35.8260   26.2590   38.4370 O   0  0  0  0  0  0  0  0  0  0  0  0
   35.0770   26.5170   37.8700 H   0  0  0  0  0  0  0  0  0  0  0  0
   36.6600   27.6460   40.6420 O   0  0  0  0  0  0  0  0  0  0  0  0
   37.9060   26.5370   42.3100 C   0  0  0  0  0  0  0  0  0  0  0  0
   37.7140   27.6720   41.5470 C   0  0  0  0  0  0  0  0  0  0  0  0
   38.5900   28.7480   41.7430 C   0  0  0  0  0  0  0  0  0  0  0  0
   39.5680   28.6070   42.6670 N   0  0  0  0  0  0  0  0  0  0  0  0
   39.7330   27.4980   43.3940 C   0  0  0  0  0  0  0  0  0  0  0  0
   38.9010   26.4610   43.2150 N   0  0  0  0  0  0  0  0  0  0  0  0
   38.3890   29.5890   41.1240 H   0  0  0  0  0  0  0  0  0  0  0  0
   40.5430   27.4600   44.1190 H   0  0  0  0  0  0  0  0  0  0  0  0
   37.0310   25.3750   42.1600 C   0  0  0  0  0  0  0  0  0  0  0  0
   36.4850   25.0980   43.0950 H   0  0  0  0  0  0  0  0  0  0  0  0
   36.2430   25.5830   41.4010 H   0  0  0  0  0  0  0  0  0  0  0  0
   37.8480   24.1950   41.7110 C   0  0  0  0  0  0  0  0  0  0  0  0
   38.6430   24.0310   42.4750 H   0  0  0  0  0  0  0  0  0  0  0  0
   37.2380   23.2800   41.5740 H   0  0  0  0  0  0  0  0  0  0  0  0
   38.3700   24.4760   40.7750 H   0  0  0  0  0  0  0  0  0  0  0  0
   36.2580   28.9440   38.1630 O   0  0  0  0  0  0  0  0  0  0  0  0
   36.9510   30.1210   38.3780 C   0  0  0  0  0  0  0  0  0  0  0  0
   36.6140   30.8790   39.4860 C   0  0  0  0  0  0  0  0  0  0  0  0
   37.2460   32.0710   39.7900 C   0  0  0  0  0  0  0  0  0  0  0  0
   38.2290   32.4990   38.9620 N   0  0  0  0  0  0  0  0  0  0  0  0
   38.5640   31.7690   37.8800 C   0  0  0  0  0  0  0  0  0  0  0  0
   37.9320   30.6220   37.6180 N   0  0  0  0  0  0  0  0  0  0  0  0
   35.8420   30.5650   40.1600 H   0  0  0  0  0  0  0  0  0  0  0  0
   36.9760   32.6470   40.6510 H   0  0  0  0  0  0  0  0  0  0  0  0
   41.2890   31.0830   38.0860 N   0  0  0  0  0  0  0  0  0  0  0  0
   40.9860   32.1150   37.3470 C   0  0  0  0  0  0  0  0  0  0  0  0
   39.6080   32.2130   36.9900 N   0  0  0  0  0  0  0  0  0  0  0  0
   41.8310   33.1670   36.8400 N   0  0  0  0  0  0  0  0  0  0  0  0
   42.0120   33.2990   35.8380 H   0  0  0  0  0  0  0  0  0  0  0  0
   42.2280   30.8570   38.4340 H   0  0  0  0  0  0  0  0  0  0  0  0
   39.3150   32.6190   36.0520 H   0  0  0  0  0  0  0  0  0  0  0  0
   42.2220   33.7580   37.6170 H   0  0  0  0  0  0  0  0  0  0  0  0
  2  1  2  6  0  0  0
  2  5  1  0  0  0  0
  3  2  1  0  0  0  0
  4  3  1  0  0  0  0
  5  7  1  0  0  0  0
  6 11  1  0  0  0  0
  7  8  1  0  0  0  0
  7  6  2  0  0  0  0
  8  9  2  0  0  0  0
  9 10  1  0  0  0  0
 10 13  1  0  0  0  0
 11 10  2  0  0  0  0
 12  8  1  0  0  0  0
 14  6  1  0  0  0  0
 14 15  1  0  0  0  0
 16 14  1  0  0  0  0
 17 14  1  0  0  0  0
 17 18  1  0  0  0  0
 19 17  1  0  0  0  0
 20 17  1  0  0  0  0
 21 22  1  0  0  0  0
 21  2  1  0  0  0  0
 22 23  1  0  0  0  0
 23 24  2  0  0  0  0
 23 28  1  0  0  0  0
 24 29  1  0  0  0  0
 25 24  1  0  0  0  0
 26 25  2  0  0  0  0
 27 26  1  0  0  0  0
 27 22  2  0  0  0  0
 30 35  1  0  0  0  0
 31 30  2  0  0  0  0
 32 31  1  0  0  0  0
 32 26  1  0  0  0  0
 33 31  1  0  0  0  0
 33 37  1  0  0  0  0
 34 33  1  0  0  0  0
 36 32  1  0  0  0  0
M  END
>  <minimizedAffinity>
-5.44412041

$$$$

 OpenBabel03252500593D

 37 38  0  0  0  0  0  0  0  0999 V2000
   38.6560   27.6570   38.3420 O   0  0  0  0  0  0  0  0  0  0  0  0
   37.1470   27.5300   38.1660 P   0  0  1  0  0  0  0  0  0  0  0  0
   36.8360   26.5570   36.8220 O   0  0  0  0  0  0  0  0  0  0  0  0
   36.2470   26.9580   36.1570 H   0  0  0  0  0  0  0  0  0  0  0  0
   36.4950   26.7650   39.5280 O   0  0  0  0  0  0  0  0  0  0  0  0
   37.3880   26.2580   41.6520 C   0  0  0  0  0  0  0  0  0  0  0  0
   37.1510   25.8580   40.3510 C   0  0  0  0  0  0  0  0  0  0  0  0
   37.5860   24.5820   39.9700 C   0  0  0  0  0  0  0  0  0  0  0  0
   38.2100   23.8230   40.8990 N   0  0  0  0  0  0  0  0  0  0  0  0
   38.4290   24.2330   42.1520 C   0  0  0  0  0  0  0  0  0  0  0  0
   38.0160   25.4520   42.5290 N   0  0  0  0  0  0  0  0  0  0  0  0
   37.3720   24.3360   38.9570 H   0  0  0  0  0  0  0  0  0  0  0  0
   38.9380   23.5650   42.8430 H   0  0  0  0  0  0  0  0  0  0  0  0
   36.9620   27.5760   42.1200 C   0  0  0  0  0  0  0  0  0  0  0  0
   37.6030   28.4150   41.7530 H   0  0  0  0  0  0  0  0  0  0  0  0
   35.9340   27.8000   41.7570 H   0  0  0  0  0  0  0  0  0  0  0  0
   36.9670   27.5910   43.6250 C   0  0  0  0  0  0  0  0  0  0  0  0
   37.9990   27.3350   43.9570 H   0  0  0  0  0  0  0  0  0  0  0  0
   36.6470   28.5660   44.0440 H   0  0  0  0  0  0  0  0  0  0  0  0
   36.3140   26.7680   43.9760 H   0  0  0  0  0  0  0  0  0  0  0  0
   36.4600   29.0540   37.8700 O   0  0  0  0  0  0  0  0  0  0  0  0
   37.1920   30.1780   38.2050 C   0  0  0  0  0  0  0  0  0  0  0  0
   36.9360   30.7780   39.4270 C   0  0  0  0  0  0  0  0  0  0  0  0
   37.6130   31.9050   39.8550 C   0  0  0  0  0  0  0  0  0  0  0  0
   38.5570   32.4290   39.0390 N   0  0  0  0  0  0  0  0  0  0  0  0
   38.8140   31.8540   37.8480 C   0  0  0  0  0  0  0  0  0  0  0  0
   38.1400   30.7650   37.4660 N   0  0  0  0  0  0  0  0  0  0  0  0
   36.1950   30.3850   40.0940 H   0  0  0  0  0  0  0  0  0  0  0  0
   37.4050   32.3590   40.8030 H   0  0  0  0  0  0  0  0  0  0  0  0
   41.5290   31.1020   37.7970 N   0  0  0  0  0  0  0  0  0  0  0  0
   41.2100   32.2320   37.2270 C   0  0  0  0  0  0  0  0  0  0  0  0
   39.8170   32.4020   36.9690 N   0  0  0  0  0  0  0  0  0  0  0  0
   42.0510   33.3310   36.8240 N   0  0  0  0  0  0  0  0  0  0  0  0
   42.1780   33.6000   35.8400 H   0  0  0  0  0  0  0  0  0  0  0  0
   42.4810   30.8140   38.0540 H   0  0  0  0  0  0  0  0  0  0  0  0
   39.4820   32.9400   36.1160 H   0  0  0  0  0  0  0  0  0  0  0  0
   42.4990   33.8010   37.6500 H   0  0  0  0  0  0  0  0  0  0  0  0
  2  1  2  1  0  0  0
  2  5  1  0  0  0  0
  3  2  1  0  0  0  0
  4  3  1  0  0  0  0
  5  7  1  0  0  0  0
  6 14  1  0  0  0  0
  6 11  1  0  0  0  0
  7  6  2  0  0  0  0
  8  7  1  0  0  0  0
  8  9  2  0  0  0  0
  9 10  1  0  0  0  0
 10 11  2  0  0  0  0
 10 13  1  0  0  0  0
 12  8  1  0  0  0  0
 14 17  1  0  0  0  0
 15 14  1  0  0  0  0
 16 14  1  0  0  0  0
 17 18  1  0  0  0  0
 17 20  1  0  0  0  0
 17 19  1  0  0  0  0
 21  2  1  0  0  0  0
 21 22  1  0  0  0  0
 22 23  1  0  0  0  0
 23 24  2  0  0  0  0
 23 28  1  0  0  0  0
 24 29  1  0  0  0  0
 25 24  1  0  0  0  0
 26 25  2  0  0  0  0
 27 26  1  0  0  0  0
 27 22  2  0  0  0  0
 30 35  1  0  0  0  0
 31 30  2  0  0  0  0
 32 31  1  0  0  0  0
 32 26  1  0  0  0  0
 33 31  1  0  0  0  0
 33 37  1  0  0  0  0
 34 33  1  0  0  0  0
 36 32  1  0  0  0  0
M  END
>  <minimizedAffinity>
-5.34684896

$$$$

 OpenBabel03252500593D

 37 38  0  0  0  0  0  0  0  0999 V2000
   36.3130   29.2580   39.5690 O   0  0  0  0  0  0  0  0  0  0  0  0
   36.6730   29.6120   41.0060 P   0  0  1  0  0  0  0  0  0  0  0  0
   35.5520   30.7310   41.5890 O   0  0  0  0  0  0  0  0  0  0  0  0
   35.9420   31.5460   41.9550 H   0  0  0  0  0  0  0  0  0  0  0  0
   36.5670   28.2180   41.9620 O   0  0  0  0  0  0  0  0  0  0  0  0
   37.7610   26.1900   41.8050 C   0  0  0  0  0  0  0  0  0  0  0  0
   37.6330   27.4350   42.3890 C   0  0  0  0  0  0  0  0  0  0  0  0
   38.5780   27.8050   43.3540 C   0  0  0  0  0  0  0  0  0  0  0  0
   39.5550   26.9200   43.6540 N   0  0  0  0  0  0  0  0  0  0  0  0
   39.6590   25.7200   43.0750 C   0  0  0  0  0  0  0  0  0  0  0  0
   38.7600   25.3550   42.1490 N   0  0  0  0  0  0  0  0  0  0  0  0
   38.4220   28.7750   43.7640 H   0  0  0  0  0  0  0  0  0  0  0  0
   40.4740   25.0630   43.3690 H   0  0  0  0  0  0  0  0  0  0  0  0
   36.8120   25.7360   40.7890 C   0  0  0  0  0  0  0  0  0  0  0  0
   35.8290   26.2670   40.8200 H   0  0  0  0  0  0  0  0  0  0  0  0
   37.2220   25.9190   39.7710 H   0  0  0  0  0  0  0  0  0  0  0  0
   36.5680   24.2620   40.9650 C   0  0  0  0  0  0  0  0  0  0  0  0
   36.1870   24.1080   42.0010 H   0  0  0  0  0  0  0  0  0  0  0  0
   35.8580   23.8540   40.2180 H   0  0  0  0  0  0  0  0  0  0  0  0
   37.5470   23.7450   40.9140 H   0  0  0  0  0  0  0  0  0  0  0  0
   38.2060   30.3400   41.0650 O   0  0  0  0  0  0  0  0  0  0  0  0
   39.1390   29.9790   40.1100 C   0  0  0  0  0  0  0  0  0  0  0  0
   38.9980   28.7430   39.5010 C   0  0  0  0  0  0  0  0  0  0  0  0
   39.8760   28.2890   38.5350 C   0  0  0  0  0  0  0  0  0  0  0  0
   40.9060   29.0930   38.1810 N   0  0  0  0  0  0  0  0  0  0  0  0
   41.0520   30.2980   38.7670 C   0  0  0  0  0  0  0  0  0  0  0  0
   40.1840   30.7050   39.6980 N   0  0  0  0  0  0  0  0  0  0  0  0
   38.1930   28.0850   39.7600 H   0  0  0  0  0  0  0  0  0  0  0  0
   39.7550   27.3300   38.0710 H   0  0  0  0  0  0  0  0  0  0  0  0
   40.9680   32.2740   36.7600 N   0  0  0  0  0  0  0  0  0  0  0  0
   42.1450   31.8860   37.1700 C   0  0  0  0  0  0  0  0  0  0  0  0
   42.1450   31.1650   38.4010 N   0  0  0  0  0  0  0  0  0  0  0  0
   43.4400   32.0760   36.5660 N   0  0  0  0  0  0  0  0  0  0  0  0
   44.1760   32.6460   37.0000 H   0  0  0  0  0  0  0  0  0  0  0  0
   40.7820   32.8020   35.9000 H   0  0  0  0  0  0  0  0  0  0  0  0
   42.9550   31.2490   39.0830 H   0  0  0  0  0  0  0  0  0  0  0  0
   43.5200   31.5650   35.6510 H   0  0  0  0  0  0  0  0  0  0  0  0
  2  1  2  6  0  0  0
  2 21  1  0  0  0  0
  2  3  1  0  0  0  0
  2  5  1  0  0  0  0
  3  4  1  0  0  0  0
  5  7  1  0  0  0  0
  6 11  2  0  0  0  0
  6  7  1  0  0  0  0
  7  8  2  0  0  0  0
  8  9  1  0  0  0  0
  8 12  1  0  0  0  0
 10 13  1  0  0  0  0
 10  9  2  0  0  0  0
 11 10  1  0  0  0  0
 14 15  1  0  0  0  0
 14 17  1  0  0  0  0
 14  6  1  0  0  0  0
 16 14  1  0  0  0  0
 17 18  1  0  0  0  0
 19 17  1  0  0  0  0
 20 17  1  0  0  0  0
 22 21  1  0  0  0  0
 23 28  1  0  0  0  0
 23 22  2  0  0  0  0
 24 23  1  0  0  0  0
 25 24  2  0  0  0  0
 25 26  1  0  0  0  0
 26 27  2  0  0  0  0
 27 22  1  0  0  0  0
 29 24  1  0  0  0  0
 30 31  2  0  0  0  0
 31 32  1  0  0  0  0
 32 26  1  0  0  0  0
 32 36  1  0  0  0  0
 33 34  1  0  0  0  0
 33 31  1  0  0  0  0
 35 30  1  0  0  0  0
 37 33  1  0  0  0  0
M  END
>  <minimizedAffinity>
-5.31150484

$$$$
