
 OpenBabel03242521223D

 35 37  0  0  0  0  0  0  0  0999 V2000
   41.2960   32.9890   40.1270 C   0  0  0  0  0  0  0  0  0  0  0  0
   42.0620   32.9450   41.2610 C   0  0  0  0  0  0  0  0  0  0  0  0
   43.4260   33.1950   41.2670 C   0  0  0  0  0  0  0  0  0  0  0  0
   44.0320   33.5020   40.0570 C   0  0  0  0  0  0  0  0  0  0  0  0
   43.2430   33.5390   38.9370 C   0  0  0  0  0  0  0  0  0  0  0  0
   41.8940   33.2960   38.9090 C   0  0  0  0  0  0  0  0  0  0  0  0
   41.6220   32.7070   42.2270 H   0  0  0  0  0  0  0  0  0  0  0  0
   43.9830   33.1480   42.1860 H   0  0  0  0  0  0  0  0  0  0  0  0
   45.0930   33.6960   40.0640 H   0  0  0  0  0  0  0  0  0  0  0  0
   43.7800   33.7800   38.0340 H   0  0  0  0  0  0  0  0  0  0  0  0
   38.1560   31.2930   40.9550 C   0  0  0  0  0  0  0  0  0  0  0  0
   37.2690   32.1640   40.4390 C   0  0  0  0  0  0  0  0  0  0  0  0
   37.6250   33.3280   39.8050 C   0  0  0  0  0  0  0  0  0  0  0  0
   38.9480   33.5710   39.7180 N   0  0  0  0  0  0  0  0  0  0  0  0
   39.8350   32.7030   40.2310 C   0  0  0  0  0  0  0  0  0  0  0  0
   39.4830   31.5640   40.8510 N   0  0  0  0  0  0  0  0  0  0  0  0
   36.2170   31.9330   40.5300 H   0  0  0  0  0  0  0  0  0  0  0  0
   36.9040   34.0240   39.3940 H   0  0  0  0  0  0  0  0  0  0  0  0
   36.3340   28.1850   41.6930 C   0  0  0  0  0  0  0  0  0  0  0  0
   36.9410   27.7620   42.8700 C   0  0  0  0  0  0  0  0  0  0  0  0
   37.9700   28.5280   43.4190 C   0  0  0  0  0  0  0  0  0  0  0  0
   38.3390   29.6730   42.7670 N   0  0  0  0  0  0  0  0  0  0  0  0
   37.7340   30.0600   41.6250 C   0  0  0  0  0  0  0  0  0  0  0  0
   36.7570   29.3280   41.1080 N   0  0  0  0  0  0  0  0  0  0  0  0
   35.5430   27.5750   41.2900 H   0  0  0  0  0  0  0  0  0  0  0  0
   36.6940   26.8790   43.4220 H   0  0  0  0  0  0  0  0  0  0  0  0
   38.5280   28.3280   44.3180 H   0  0  0  0  0  0  0  0  0  0  0  0
   41.4500   31.2150   36.9370 N   0  0  0  0  0  0  0  0  0  0  0  0
   40.5920   32.2000   37.0760 C   0  0  0  0  0  0  0  0  0  0  0  0
   41.0990   33.3350   37.7320 N   0  0  0  0  0  0  0  0  0  0  0  0
   39.2210   32.2070   36.6210 N   0  0  0  0  0  0  0  0  0  0  0  0
   38.8590   33.1250   36.2840 H   0  0  0  0  0  0  0  0  0  0  0  0
   41.1310   30.3510   36.4590 H   0  0  0  0  0  0  0  0  0  0  0  0
   40.8680   34.2900   37.3230 H   0  0  0  0  0  0  0  0  0  0  0  0
   38.8030   31.2330   36.7130 H   0  0  0  0  0  0  0  0  0  0  0  0
  1 15  1  0  0  0  0
  1  2  1  0  0  0  0
  2  3  2  0  0  0  0
  2  7  1  0  0  0  0
  3  8  1  0  0  0  0
  4  9  1  0  0  0  0
  4  3  1  0  0  0  0
  5  4  2  0  0  0  0
  6  5  1  0  0  0  0
  6  1  2  0  0  0  0
 10  5  1  0  0  0  0
 11 23  1  0  0  0  0
 12 17  1  0  0  0  0
 12 11  2  0  0  0  0
 13 12  1  0  0  0  0
 14 13  2  0  0  0  0
 14 15  1  0  0  0  0
 15 16  2  0  0  0  0
 16 11  1  0  0  0  0
 18 13  1  0  0  0  0
 19 20  1  0  0  0  0
 20 21  2  0  0  0  0
 20 26  1  0  0  0  0
 21 27  1  0  0  0  0
 22 21  1  0  0  0  0
 23 22  2  0  0  0  0
 24 23  1  0  0  0  0
 24 19  2  0  0  0  0
 25 19  1  0  0  0  0
 28 29  2  0  0  0  0
 29 30  1  0  0  0  0
 30  6  1  0  0  0  0
 31 35  1  0  0  0  0
 31 29  1  0  0  0  0
 32 31  1  0  0  0  0
 33 28  1  0  0  0  0
 34 30  1  0  0  0  0
M  END
>  <minimizedAffinity>
-6.16732407

$$$$

 OpenBabel03242521223D

 35 37  0  0  0  0  0  0  0  0999 V2000
   37.6400   30.8930   38.4050 C   0  0  0  0  0  0  0  0  0  0  0  0
   37.3600   30.9000   37.0650 C   0  0  0  0  0  0  0  0  0  0  0  0
   36.7370   29.8460   36.4130 C   0  0  0  0  0  0  0  0  0  0  0  0
   36.3870   28.7360   37.1680 C   0  0  0  0  0  0  0  0  0  0  0  0
   36.6790   28.7530   38.5070 C   0  0  0  0  0  0  0  0  0  0  0  0
   37.2920   29.7840   39.1700 C   0  0  0  0  0  0  0  0  0  0  0  0
   37.6200   31.7530   36.4420 H   0  0  0  0  0  0  0  0  0  0  0  0
   36.5400   29.9020   35.3570 H   0  0  0  0  0  0  0  0  0  0  0  0
   35.9030   27.9170   36.6580 H   0  0  0  0  0  0  0  0  0  0  0  0
   36.3820   27.8580   39.0290 H   0  0  0  0  0  0  0  0  0  0  0  0
   40.2470   33.3100   39.2880 C   0  0  0  0  0  0  0  0  0  0  0  0
   39.5370   34.1610   40.0510 C   0  0  0  0  0  0  0  0  0  0  0  0
   38.2000   34.0080   40.3220 C   0  0  0  0  0  0  0  0  0  0  0  0
   37.6070   32.9320   39.7710 N   0  0  0  0  0  0  0  0  0  0  0  0
   38.3130   32.0800   39.0090 C   0  0  0  0  0  0  0  0  0  0  0  0
   39.6220   32.2330   38.7460 N   0  0  0  0  0  0  0  0  0  0  0  0
   40.0490   35.0140   40.4740 H   0  0  0  0  0  0  0  0  0  0  0  0
   37.6370   34.6990   40.9370 H   0  0  0  0  0  0  0  0  0  0  0  0
   43.4150   33.7850   37.4830 C   0  0  0  0  0  0  0  0  0  0  0  0
   44.3330   33.8820   38.5230 C   0  0  0  0  0  0  0  0  0  0  0  0
   43.8830   33.7870   39.8390 C   0  0  0  0  0  0  0  0  0  0  0  0
   42.5440   33.6000   40.0500 N   0  0  0  0  0  0  0  0  0  0  0  0
   41.6740   33.5100   39.0230 C   0  0  0  0  0  0  0  0  0  0  0  0
   42.1080   33.6020   37.7730 N   0  0  0  0  0  0  0  0  0  0  0  0
   43.7900   33.8620   36.4750 H   0  0  0  0  0  0  0  0  0  0  0  0
   45.3890   34.0270   38.4170 H   0  0  0  0  0  0  0  0  0  0  0  0
   44.4720   33.8430   40.7390 H   0  0  0  0  0  0  0  0  0  0  0  0
   35.7380   30.8490   41.3760 N   0  0  0  0  0  0  0  0  0  0  0  0
   36.6320   29.9090   41.5800 C   0  0  0  0  0  0  0  0  0  0  0  0
   37.5900   29.7750   40.5600 N   0  0  0  0  0  0  0  0  0  0  0  0
   36.7050   29.0370   42.7290 N   0  0  0  0  0  0  0  0  0  0  0  0
   37.6660   28.7750   43.0400 H   0  0  0  0  0  0  0  0  0  0  0  0
   35.0060   30.9930   42.0970 H   0  0  0  0  0  0  0  0  0  0  0  0
   38.6080   29.6550   40.8470 H   0  0  0  0  0  0  0  0  0  0  0  0
   35.7260   28.8040   43.0720 H   0  0  0  0  0  0  0  0  0  0  0  0
  1 15  1  0  0  0  0
  1  6  1  0  0  0  0
  2  1  2  0  0  0  0
  3  2  1  0  0  0  0
  3  4  2  0  0  0  0
  4  5  1  0  0  0  0
  5 10  1  0  0  0  0
  5  6  2  0  0  0  0
  6 30  1  0  0  0  0
  7  2  1  0  0  0  0
  8  3  1  0  0  0  0
  9  4  1  0  0  0  0
 11 12  1  0  0  0  0
 12 13  2  0  0  0  0
 12 17  1  0  0  0  0
 13 18  1  0  0  0  0
 14 13  1  0  0  0  0
 15 14  2  0  0  0  0
 16 15  1  0  0  0  0
 16 11  2  0  0  0  0
 19 24  2  0  0  0  0
 19 20  1  0  0  0  0
 20 21  2  0  0  0  0
 21 22  1  0  0  0  0
 21 27  1  0  0  0  0
 23 11  1  0  0  0  0
 23 22  2  0  0  0  0
 24 23  1  0  0  0  0
 25 19  1  0  0  0  0
 26 20  1  0  0  0  0
 28 29  2  0  0  0  0
 28 33  1  0  0  0  0
 29 31  1  0  0  0  0
 30 34  1  0  0  0  0
 30 29  1  0  0  0  0
 31 32  1  0  0  0  0
 31 35  1  0  0  0  0
M  END
>  <minimizedAffinity>
-5.90276337

$$$$

 OpenBabel03242521223D

 35 37  0  0  0  0  0  0  0  0999 V2000
   39.8620   30.6900   41.3740 C   0  0  0  0  0  0  0  0  0  0  0  0
   40.4000   30.7580   42.6310 C   0  0  0  0  0  0  0  0  0  0  0  0
   41.6690   31.2530   42.8890 C   0  0  0  0  0  0  0  0  0  0  0  0
   42.4210   31.6970   41.8100 C   0  0  0  0  0  0  0  0  0  0  0  0
   41.8600   31.6180   40.5620 C   0  0  0  0  0  0  0  0  0  0  0  0
   40.6080   31.1330   40.2860 C   0  0  0  0  0  0  0  0  0  0  0  0
   39.8400   30.4190   43.5000 H   0  0  0  0  0  0  0  0  0  0  0  0
   42.0460   31.2840   43.8960 H   0  0  0  0  0  0  0  0  0  0  0  0
   43.4090   32.0820   42.0130 H   0  0  0  0  0  0  0  0  0  0  0  0
   42.5010   31.9770   39.7730 H   0  0  0  0  0  0  0  0  0  0  0  0
   37.1190   28.2870   41.0280 C   0  0  0  0  0  0  0  0  0  0  0  0
   36.0750   29.1290   40.9140 C   0  0  0  0  0  0  0  0  0  0  0  0
   36.1920   30.4960   40.9410 C   0  0  0  0  0  0  0  0  0  0  0  0
   37.4410   30.9770   41.0930 N   0  0  0  0  0  0  0  0  0  0  0  0
   38.4850   30.1400   41.2060 C   0  0  0  0  0  0  0  0  0  0  0  0
   38.3670   28.8010   41.1790 N   0  0  0  0  0  0  0  0  0  0  0  0
   35.0890   28.7030   40.7960 H   0  0  0  0  0  0  0  0  0  0  0  0
   35.3460   31.1650   40.8500 H   0  0  0  0  0  0  0  0  0  0  0  0
   36.4380   24.8930   39.7880 C   0  0  0  0  0  0  0  0  0  0  0  0
   36.6340   24.1200   40.9280 C   0  0  0  0  0  0  0  0  0  0  0  0
   36.9970   24.7450   42.1200 C   0  0  0  0  0  0  0  0  0  0  0  0
   37.1460   26.1060   42.1150 N   0  0  0  0  0  0  0  0  0  0  0  0
   36.9510   26.8320   40.9950 C   0  0  0  0  0  0  0  0  0  0  0  0
   36.6050   26.2320   39.8650 N   0  0  0  0  0  0  0  0  0  0  0  0
   36.1570   24.3850   38.8800 H   0  0  0  0  0  0  0  0  0  0  0  0
   36.5310   23.0560   40.9900 H   0  0  0  0  0  0  0  0  0  0  0  0
   37.1810   24.2810   43.0740 H   0  0  0  0  0  0  0  0  0  0  0  0
   38.8360   32.9980   38.9440 N   0  0  0  0  0  0  0  0  0  0  0  0
   39.5720   32.1590   38.2530 C   0  0  0  0  0  0  0  0  0  0  0  0
   40.0510   31.0560   38.9810 N   0  0  0  0  0  0  0  0  0  0  0  0
   39.9140   32.2770   36.8540 N   0  0  0  0  0  0  0  0  0  0  0  0
   39.9820   31.3800   36.3260 H   0  0  0  0  0  0  0  0  0  0  0  0
   38.4550   33.8320   38.4570 H   0  0  0  0  0  0  0  0  0  0  0  0
   39.9970   30.0970   38.5230 H   0  0  0  0  0  0  0  0  0  0  0  0
   40.0400   33.3000   36.5960 H   0  0  0  0  0  0  0  0  0  0  0  0
  1  2  1  0  0  0  0
  2  3  2  0  0  0  0
  2  7  1  0  0  0  0
  3  8  1  0  0  0  0
  4  9  1  0  0  0  0
  4  3  1  0  0  0  0
  5  4  2  0  0  0  0
  6  5  1  0  0  0  0
  6  1  2  0  0  0  0
 10  5  1  0  0  0  0
 11 16  1  0  0  0  0
 12 13  1  0  0  0  0
 12 11  2  0  0  0  0
 13 14  2  0  0  0  0
 14 15  1  0  0  0  0
 15  1  1  0  0  0  0
 16 15  2  0  0  0  0
 17 12  1  0  0  0  0
 18 13  1  0  0  0  0
 19 24  2  0  0  0  0
 19 20  1  0  0  0  0
 20 26  1  0  0  0  0
 20 21  2  0  0  0  0
 21 27  1  0  0  0  0
 22 21  1  0  0  0  0
 23 11  1  0  0  0  0
 23 22  2  0  0  0  0
 24 23  1  0  0  0  0
 25 19  1  0  0  0  0
 29 28  2  0  0  0  0
 29 30  1  0  0  0  0
 30  6  1  0  0  0  0
 31 29  1  0  0  0  0
 32 31  1  0  0  0  0
 33 28  1  0  0  0  0
 34 30  1  0  0  0  0
 35 31  1  0  0  0  0
M  END
>  <minimizedAffinity>
-5.80356598

$$$$

 OpenBabel03242521223D

 35 37  0  0  0  0  0  0  0  0999 V2000
   37.2390   26.1570   40.3050 C   0  0  0  0  0  0  0  0  0  0  0  0
   37.7100   25.1690   39.4850 C   0  0  0  0  0  0  0  0  0  0  0  0
   38.2210   23.9690   39.9570 C   0  0  0  0  0  0  0  0  0  0  0  0
   38.2500   23.7750   41.3300 C   0  0  0  0  0  0  0  0  0  0  0  0
   37.7720   24.7800   42.1300 C   0  0  0  0  0  0  0  0  0  0  0  0
   37.2630   25.9720   41.6840 C   0  0  0  0  0  0  0  0  0  0  0  0
   37.7030   25.2860   38.4030 H   0  0  0  0  0  0  0  0  0  0  0  0
   38.5800   23.2240   39.2690 H   0  0  0  0  0  0  0  0  0  0  0  0
   38.6480   22.8410   41.6950 H   0  0  0  0  0  0  0  0  0  0  0  0
   37.8290   24.5630   43.1840 H   0  0  0  0  0  0  0  0  0  0  0  0
   36.8350   29.7100   39.5060 C   0  0  0  0  0  0  0  0  0  0  0  0
   35.8090   29.6450   38.6380 C   0  0  0  0  0  0  0  0  0  0  0  0
   35.1970   28.4750   38.2660 C   0  0  0  0  0  0  0  0  0  0  0  0
   35.6860   27.3510   38.8270 N   0  0  0  0  0  0  0  0  0  0  0  0
   36.7090   27.4120   39.6940 C   0  0  0  0  0  0  0  0  0  0  0  0
   37.3060   28.5610   40.0560 N   0  0  0  0  0  0  0  0  0  0  0  0
   35.4470   30.5690   38.2090 H   0  0  0  0  0  0  0  0  0  0  0  0
   34.3720   28.4330   37.5660 H   0  0  0  0  0  0  0  0  0  0  0  0
   37.5420   33.3140   39.6890 C   0  0  0  0  0  0  0  0  0  0  0  0
   38.6240   33.3560   40.5610 C   0  0  0  0  0  0  0  0  0  0  0  0
   39.1190   32.1640   41.0900 C   0  0  0  0  0  0  0  0  0  0  0  0
   38.5110   30.9950   40.7230 N   0  0  0  0  0  0  0  0  0  0  0  0
   37.4610   30.9820   39.8760 C   0  0  0  0  0  0  0  0  0  0  0  0
   36.9950   32.1180   39.3760 N   0  0  0  0  0  0  0  0  0  0  0  0
   37.1800   34.2490   39.2950 H   0  0  0  0  0  0  0  0  0  0  0  0
   39.1390   34.2390   40.8810 H   0  0  0  0  0  0  0  0  0  0  0  0
   39.9450   32.0420   41.7710 H   0  0  0  0  0  0  0  0  0  0  0  0
   38.6980   27.5200   43.6750 N   0  0  0  0  0  0  0  0  0  0  0  0
   37.5880   27.9780   43.1440 C   0  0  0  0  0  0  0  0  0  0  0  0
   36.7790   27.0030   42.5350 N   0  0  0  0  0  0  0  0  0  0  0  0
   37.1490   29.3540   43.1380 N   0  0  0  0  0  0  0  0  0  0  0  0
   36.1200   29.5040   43.2190 H   0  0  0  0  0  0  0  0  0  0  0  0
   39.3340   28.1960   44.1390 H   0  0  0  0  0  0  0  0  0  0  0  0
   35.7310   27.0400   42.7190 H   0  0  0  0  0  0  0  0  0  0  0  0
   37.9870   30.0020   43.0510 H   0  0  0  0  0  0  0  0  0  0  0  0
  1  6  1  0  0  0  0
  2  3  1  0  0  0  0
  2  1  2  0  0  0  0
  3  4  2  0  0  0  0
  4  9  1  0  0  0  0
  4  5  1  0  0  0  0
  5 10  1  0  0  0  0
  6  5  2  0  0  0  0
  6 30  1  0  0  0  0
  7  2  1  0  0  0  0
  8  3  1  0  0  0  0
 11 23  1  0  0  0  0
 11 16  1  0  0  0  0
 12 11  2  0  0  0  0
 13 12  1  0  0  0  0
 13 14  2  0  0  0  0
 14 15  1  0  0  0  0
 15 16  2  0  0  0  0
 15  1  1  0  0  0  0
 17 12  1  0  0  0  0
 18 13  1  0  0  0  0
 19 20  1  0  0  0  0
 20 26  1  0  0  0  0
 20 21  2  0  0  0  0
 21 27  1  0  0  0  0
 22 21  1  0  0  0  0
 23 22  2  0  0  0  0
 24 19  2  0  0  0  0
 24 23  1  0  0  0  0
 25 19  1  0  0  0  0
 28 33  1  0  0  0  0
 29 28  2  0  0  0  0
 30 34  1  0  0  0  0
 30 29  1  0  0  0  0
 31 29  1  0  0  0  0
 31 32  1  0  0  0  0
 35 31  1  0  0  0  0
M  END
>  <minimizedAffinity>
-5.69013691

$$$$

 OpenBabel03242521223D

 35 37  0  0  0  0  0  0  0  0999 V2000
   38.0200   27.6860   39.7540 C   0  0  0  0  0  0  0  0  0  0  0  0
   38.9970   26.7630   39.4970 C   0  0  0  0  0  0  0  0  0  0  0  0
   39.1910   25.6270   40.2690 C   0  0  0  0  0  0  0  0  0  0  0  0
   38.3480   25.4300   41.3530 C   0  0  0  0  0  0  0  0  0  0  0  0
   37.3780   26.3690   41.5890 C   0  0  0  0  0  0  0  0  0  0  0  0
   37.1680   27.4970   40.8380 C   0  0  0  0  0  0  0  0  0  0  0  0
   39.6770   26.8840   38.6570 H   0  0  0  0  0  0  0  0  0  0  0  0
   39.9750   24.9320   40.0250 H   0  0  0  0  0  0  0  0  0  0  0  0
   38.5010   24.5460   41.9520 H   0  0  0  0  0  0  0  0  0  0  0  0
   36.7620   26.1540   42.4470 H   0  0  0  0  0  0  0  0  0  0  0  0
   38.7550   30.8960   38.1500 C   0  0  0  0  0  0  0  0  0  0  0  0
   37.7160   30.9830   37.2990 C   0  0  0  0  0  0  0  0  0  0  0  0
   36.7350   30.0290   37.1950 C   0  0  0  0  0  0  0  0  0  0  0  0
   36.8600   28.9630   38.0090 N   0  0  0  0  0  0  0  0  0  0  0  0
   37.8950   28.8740   38.8600 C   0  0  0  0  0  0  0  0  0  0  0  0
   38.8550   29.8100   38.9600 N   0  0  0  0  0  0  0  0  0  0  0  0
   37.6520   31.8530   36.6620 H   0  0  0  0  0  0  0  0  0  0  0  0
   35.9020   30.1070   36.5060 H   0  0  0  0  0  0  0  0  0  0  0  0
   41.6930   32.9520   37.3350 C   0  0  0  0  0  0  0  0  0  0  0  0
   41.7010   33.8750   38.3740 C   0  0  0  0  0  0  0  0  0  0  0  0
   40.7120   33.8060   39.3550 C   0  0  0  0  0  0  0  0  0  0  0  0
   39.7680   32.8210   39.2490 N   0  0  0  0  0  0  0  0  0  0  0  0
   39.7820   31.9370   38.2300 C   0  0  0  0  0  0  0  0  0  0  0  0
   40.7250   32.0080   37.3010 N   0  0  0  0  0  0  0  0  0  0  0  0
   42.4690   33.0280   36.5910 H   0  0  0  0  0  0  0  0  0  0  0  0
   42.4130   34.6640   38.5070 H   0  0  0  0  0  0  0  0  0  0  0  0
   40.5920   34.4480   40.2110 H   0  0  0  0  0  0  0  0  0  0  0  0
   37.1500   29.6200   42.8160 N   0  0  0  0  0  0  0  0  0  0  0  0
   36.3800   29.6880   41.7540 C   0  0  0  0  0  0  0  0  0  0  0  0
   36.1580   28.4600   41.1070 N   0  0  0  0  0  0  0  0  0  0  0  0
   35.7670   30.8820   41.2200 N   0  0  0  0  0  0  0  0  0  0  0  0
   34.8210   30.7570   40.7980 H   0  0  0  0  0  0  0  0  0  0  0  0
   37.3490   30.4970   43.3340 H   0  0  0  0  0  0  0  0  0  0  0  0
   35.1660   28.2360   40.7930 H   0  0  0  0  0  0  0  0  0  0  0  0
   36.4130   31.7150   41.3590 H   0  0  0  0  0  0  0  0  0  0  0  0
  1  6  1  0  0  0  0
  2  1  2  0  0  0  0
  2  3  1  0  0  0  0
  3  4  2  0  0  0  0
  4  5  1  0  0  0  0
  4  9  1  0  0  0  0
  5 10  1  0  0  0  0
  6 30  1  0  0  0  0
  6  5  2  0  0  0  0
  7  2  1  0  0  0  0
  8  3  1  0  0  0  0
 11 23  1  0  0  0  0
 11 16  1  0  0  0  0
 12 11  2  0  0  0  0
 13 12  1  0  0  0  0
 13 14  2  0  0  0  0
 14 15  1  0  0  0  0
 15 16  2  0  0  0  0
 15  1  1  0  0  0  0
 17 12  1  0  0  0  0
 18 13  1  0  0  0  0
 19 20  1  0  0  0  0
 20 26  1  0  0  0  0
 20 21  2  0  0  0  0
 21 27  1  0  0  0  0
 22 21  1  0  0  0  0
 23 22  2  0  0  0  0
 24 19  2  0  0  0  0
 24 23  1  0  0  0  0
 25 19  1  0  0  0  0
 28 33  1  0  0  0  0
 29 28  2  0  0  0  0
 30 29  1  0  0  0  0
 31 35  1  0  0  0  0
 31 29  1  0  0  0  0
 32 31  1  0  0  0  0
 34 30  1  0  0  0  0
M  END
>  <minimizedAffinity>
-5.67747498

$$$$

 OpenBabel03242521223D

 35 37  0  0  0  0  0  0  0  0999 V2000
   36.1330   29.4560   37.8620 C   0  0  0  0  0  0  0  0  0  0  0  0
   34.8820   29.0120   37.5300 C   0  0  0  0  0  0  0  0  0  0  0  0
   34.4650   28.8230   36.2200 C   0  0  0  0  0  0  0  0  0  0  0  0
   35.3710   29.1030   35.2070 C   0  0  0  0  0  0  0  0  0  0  0  0
   36.6170   29.5460   35.5670 C   0  0  0  0  0  0  0  0  0  0  0  0
   37.0490   29.7380   36.8530 C   0  0  0  0  0  0  0  0  0  0  0  0
   34.1450   28.7830   38.2970 H   0  0  0  0  0  0  0  0  0  0  0  0
   33.4700   28.4730   36.0130 H   0  0  0  0  0  0  0  0  0  0  0  0
   35.0450   28.9560   34.1900 H   0  0  0  0  0  0  0  0  0  0  0  0
   37.2660   29.7460   34.7300 H   0  0  0  0  0  0  0  0  0  0  0  0
   37.4460   28.7430   41.2070 C   0  0  0  0  0  0  0  0  0  0  0  0
   37.1140   29.8820   41.8430 C   0  0  0  0  0  0  0  0  0  0  0  0
   36.4590   30.9270   41.2420 C   0  0  0  0  0  0  0  0  0  0  0  0
   36.1510   30.7600   39.9410 N   0  0  0  0  0  0  0  0  0  0  0  0
   36.4800   29.6250   39.3030 C   0  0  0  0  0  0  0  0  0  0  0  0
   37.1220   28.6020   39.8960 N   0  0  0  0  0  0  0  0  0  0  0  0
   37.3800   29.9780   42.8860 H   0  0  0  0  0  0  0  0  0  0  0  0
   36.1960   31.8400   41.7620 H   0  0  0  0  0  0  0  0  0  0  0  0
   39.4610   26.9070   43.6760 C   0  0  0  0  0  0  0  0  0  0  0  0
   39.4570   25.6180   43.1560 C   0  0  0  0  0  0  0  0  0  0  0  0
   38.7720   25.3650   41.9670 C   0  0  0  0  0  0  0  0  0  0  0  0
   38.1280   26.4090   41.3600 N   0  0  0  0  0  0  0  0  0  0  0  0
   38.1470   27.6510   41.8860 C   0  0  0  0  0  0  0  0  0  0  0  0
   38.8000   27.8850   43.0160 N   0  0  0  0  0  0  0  0  0  0  0  0
   39.9970   27.0750   44.5950 H   0  0  0  0  0  0  0  0  0  0  0  0
   39.9420   24.7660   43.5860 H   0  0  0  0  0  0  0  0  0  0  0  0
   38.6820   24.4250   41.4500 H   0  0  0  0  0  0  0  0  0  0  0  0
   38.2770   32.3060   36.2900 N   0  0  0  0  0  0  0  0  0  0  0  0
   38.7100   31.5600   37.2800 C   0  0  0  0  0  0  0  0  0  0  0  0
   38.3460   30.2050   37.2000 N   0  0  0  0  0  0  0  0  0  0  0  0
   39.5020   32.0080   38.4010 N   0  0  0  0  0  0  0  0  0  0  0  0
   40.2070   31.3270   38.7600 H   0  0  0  0  0  0  0  0  0  0  0  0
   38.5150   33.3160   36.2960 H   0  0  0  0  0  0  0  0  0  0  0  0
   39.0910   29.4760   37.4180 H   0  0  0  0  0  0  0  0  0  0  0  0
   39.2180   32.9950   38.6760 H   0  0  0  0  0  0  0  0  0  0  0  0
  1 15  1  0  0  0  0
  2  1  1  0  0  0  0
  2  7  1  0  0  0  0
  3  2  2  0  0  0  0
  4  5  2  0  0  0  0
  4  3  1  0  0  0  0
  5  6  1  0  0  0  0
  6 30  1  0  0  0  0
  6  1  2  0  0  0  0
  8  3  1  0  0  0  0
  9  4  1  0  0  0  0
 10  5  1  0  0  0  0
 11 12  1  0  0  0  0
 11 23  1  0  0  0  0
 12 17  1  0  0  0  0
 13 18  1  0  0  0  0
 13 12  2  0  0  0  0
 14 13  1  0  0  0  0
 15 16  1  0  0  0  0
 15 14  2  0  0  0  0
 16 11  2  0  0  0  0
 19 25  1  0  0  0  0
 20 26  1  0  0  0  0
 20 19  1  0  0  0  0
 21 20  2  0  0  0  0
 22 23  2  0  0  0  0
 22 21  1  0  0  0  0
 23 24  1  0  0  0  0
 24 19  2  0  0  0  0
 27 21  1  0  0  0  0
 28 33  1  0  0  0  0
 28 29  2  0  0  0  0
 29 31  1  0  0  0  0
 30 29  1  0  0  0  0
 30 34  1  0  0  0  0
 31 35  1  0  0  0  0
 31 32  1  0  0  0  0
M  END
>  <minimizedAffinity>
-5.66108465

$$$$

 OpenBabel03242521223D

 35 37  0  0  0  0  0  0  0  0999 V2000
   36.6560   30.5580   39.4140 C   0  0  0  0  0  0  0  0  0  0  0  0
   36.3820   30.3750   38.0860 C   0  0  0  0  0  0  0  0  0  0  0  0
   35.5730   29.3540   37.6110 C   0  0  0  0  0  0  0  0  0  0  0  0
   35.0200   28.4820   38.5380 C   0  0  0  0  0  0  0  0  0  0  0  0
   35.3100   28.6870   39.8620 C   0  0  0  0  0  0  0  0  0  0  0  0
   36.1070   29.6890   40.3530 C   0  0  0  0  0  0  0  0  0  0  0  0
   36.7970   31.0380   37.3300 H   0  0  0  0  0  0  0  0  0  0  0  0
   35.3890   29.2530   36.5560 H   0  0  0  0  0  0  0  0  0  0  0  0
   34.3910   27.6890   38.1660 H   0  0  0  0  0  0  0  0  0  0  0  0
   34.8510   27.9720   40.5240 H   0  0  0  0  0  0  0  0  0  0  0  0
   39.5030   32.3890   40.8160 C   0  0  0  0  0  0  0  0  0  0  0  0
   39.1300   33.6540   40.5490 C   0  0  0  0  0  0  0  0  0  0  0  0
   37.9600   33.9850   39.9140 C   0  0  0  0  0  0  0  0  0  0  0  0
   37.1710   32.9530   39.5550 N   0  0  0  0  0  0  0  0  0  0  0  0
   37.5400   31.6900   39.8200 C   0  0  0  0  0  0  0  0  0  0  0  0
   38.6880   31.3680   40.4430 N   0  0  0  0  0  0  0  0  0  0  0  0
   39.7900   34.4540   40.8530 H   0  0  0  0  0  0  0  0  0  0  0  0
   37.6670   35.0070   39.7030 H   0  0  0  0  0  0  0  0  0  0  0  0
   43.0410   32.5150   41.8120 C   0  0  0  0  0  0  0  0  0  0  0  0
   43.1140   31.5010   42.7610 C   0  0  0  0  0  0  0  0  0  0  0  0
   41.9660   30.7710   43.0670 C   0  0  0  0  0  0  0  0  0  0  0  0
   40.8070   31.0880   42.4130 N   0  0  0  0  0  0  0  0  0  0  0  0
   40.7630   32.0780   41.4960 C   0  0  0  0  0  0  0  0  0  0  0  0
   41.8570   32.7680   41.2090 N   0  0  0  0  0  0  0  0  0  0  0  0
   43.9420   33.0640   41.5940 H   0  0  0  0  0  0  0  0  0  0  0  0
   43.9910   31.2100   43.3010 H   0  0  0  0  0  0  0  0  0  0  0  0
   41.8720   29.9640   43.7740 H   0  0  0  0  0  0  0  0  0  0  0  0
   37.1490   27.7820   42.2750 N   0  0  0  0  0  0  0  0  0  0  0  0
   37.2780   29.0740   42.4760 C   0  0  0  0  0  0  0  0  0  0  0  0
   36.3980   29.8770   41.7310 N   0  0  0  0  0  0  0  0  0  0  0  0
   38.2180   29.7080   43.3700 N   0  0  0  0  0  0  0  0  0  0  0  0
   37.8800   30.5720   43.8470 H   0  0  0  0  0  0  0  0  0  0  0  0
   37.7740   27.1410   42.7990 H   0  0  0  0  0  0  0  0  0  0  0  0
   35.9180   30.6850   42.2310 H   0  0  0  0  0  0  0  0  0  0  0  0
   39.1290   29.1590   43.3890 H   0  0  0  0  0  0  0  0  0  0  0  0
  1 15  1  0  0  0  0
  1  6  1  0  0  0  0
  2  1  2  0  0  0  0
  3  2  1  0  0  0  0
  3  4  2  0  0  0  0
  4  5  1  0  0  0  0
  5  6  2  0  0  0  0
  5 10  1  0  0  0  0
  6 30  1  0  0  0  0
  7  2  1  0  0  0  0
  8  3  1  0  0  0  0
  9  4  1  0  0  0  0
 11 23  1  0  0  0  0
 12 11  1  0  0  0  0
 12 17  1  0  0  0  0
 13 12  2  0  0  0  0
 14 15  2  0  0  0  0
 14 13  1  0  0  0  0
 15 16  1  0  0  0  0
 16 11  2  0  0  0  0
 18 13  1  0  0  0  0
 19 20  1  0  0  0  0
 20 21  2  0  0  0  0
 20 26  1  0  0  0  0
 21 27  1  0  0  0  0
 22 21  1  0  0  0  0
 23 22  2  0  0  0  0
 24 23  1  0  0  0  0
 24 19  2  0  0  0  0
 25 19  1  0  0  0  0
 28 29  2  0  0  0  0
 28 33  1  0  0  0  0
 29 31  1  0  0  0  0
 30 34  1  0  0  0  0
 30 29  1  0  0  0  0
 31 35  1  0  0  0  0
 31 32  1  0  0  0  0
M  END
>  <minimizedAffinity>
-5.65382433

$$$$

 OpenBabel03242521223D

 35 37  0  0  0  0  0  0  0  0999 V2000
   37.4190   30.2060   38.0390 C   0  0  0  0  0  0  0  0  0  0  0  0
   36.9170   30.1070   36.7700 C   0  0  0  0  0  0  0  0  0  0  0  0
   35.8310   29.3100   36.4420 C   0  0  0  0  0  0  0  0  0  0  0  0
   35.2350   28.5800   37.4600 C   0  0  0  0  0  0  0  0  0  0  0  0
   35.7560   28.6960   38.7220 C   0  0  0  0  0  0  0  0  0  0  0  0
   36.8270   29.4790   39.0670 C   0  0  0  0  0  0  0  0  0  0  0  0
   37.3590   30.6640   35.9460 H   0  0  0  0  0  0  0  0  0  0  0  0
   35.4760   29.2670   35.4280 H   0  0  0  0  0  0  0  0  0  0  0  0
   34.3900   27.9600   37.2020 H   0  0  0  0  0  0  0  0  0  0  0  0
   35.2460   28.1000   39.4610 H   0  0  0  0  0  0  0  0  0  0  0  0
   40.8130   31.5740   37.8740 C   0  0  0  0  0  0  0  0  0  0  0  0
   40.6830   32.6380   38.6890 C   0  0  0  0  0  0  0  0  0  0  0  0
   39.5150   32.9700   39.3270 C   0  0  0  0  0  0  0  0  0  0  0  0
   38.4650   32.1580   39.0970 N   0  0  0  0  0  0  0  0  0  0  0  0
   38.5920   31.0950   38.2850 C   0  0  0  0  0  0  0  0  0  0  0  0
   39.7380   30.7720   37.6610 N   0  0  0  0  0  0  0  0  0  0  0  0
   41.5490   33.2660   38.8470 H   0  0  0  0  0  0  0  0  0  0  0  0
   39.4200   33.8290   39.9810 H   0  0  0  0  0  0  0  0  0  0  0  0
   44.3320   31.7610   36.8230 C   0  0  0  0  0  0  0  0  0  0  0  0
   44.4420   30.6650   35.9740 C   0  0  0  0  0  0  0  0  0  0  0  0
   43.3260   29.8590   35.7540 C   0  0  0  0  0  0  0  0  0  0  0  0
   42.1590   30.1860   36.3900 N   0  0  0  0  0  0  0  0  0  0  0  0
   42.0790   31.2550   37.2100 C   0  0  0  0  0  0  0  0  0  0  0  0
   43.1440   32.0180   37.4150 N   0  0  0  0  0  0  0  0  0  0  0  0
   45.2100   32.3670   36.9750 H   0  0  0  0  0  0  0  0  0  0  0  0
   45.3260   30.3630   35.4500 H   0  0  0  0  0  0  0  0  0  0  0  0
   43.2610   28.9850   35.1280 H   0  0  0  0  0  0  0  0  0  0  0  0
   35.9550   31.1660   41.2610 N   0  0  0  0  0  0  0  0  0  0  0  0
   36.6430   30.0710   41.4910 C   0  0  0  0  0  0  0  0  0  0  0  0
   37.3540   29.5770   40.3840 N   0  0  0  0  0  0  0  0  0  0  0  0
   36.7230   29.3620   42.7470 N   0  0  0  0  0  0  0  0  0  0  0  0
   37.6420   28.9170   42.9600 H   0  0  0  0  0  0  0  0  0  0  0  0
   35.4110   31.5760   42.0430 H   0  0  0  0  0  0  0  0  0  0  0  0
   38.3550   29.2500   40.5410 H   0  0  0  0  0  0  0  0  0  0  0  0
   35.7920   29.4220   43.2570 H   0  0  0  0  0  0  0  0  0  0  0  0
  1 15  1  0  0  0  0
  1  6  1  0  0  0  0
  2  1  2  0  0  0  0
  3  2  1  0  0  0  0
  3  4  2  0  0  0  0
  4  5  1  0  0  0  0
  5  6  2  0  0  0  0
  5 10  1  0  0  0  0
  6 30  1  0  0  0  0
  7  2  1  0  0  0  0
  8  3  1  0  0  0  0
  9  4  1  0  0  0  0
 11 12  1  0  0  0  0
 12 17  1  0  0  0  0
 12 13  2  0  0  0  0
 13 18  1  0  0  0  0
 14 13  1  0  0  0  0
 15 14  2  0  0  0  0
 16 11  2  0  0  0  0
 16 15  1  0  0  0  0
 19 25  1  0  0  0  0
 19 24  1  0  0  0  0
 20 19  2  0  0  0  0
 21 20  1  0  0  0  0
 21 22  2  0  0  0  0
 22 23  1  0  0  0  0
 23 24  2  0  0  0  0
 23 11  1  0  0  0  0
 26 20  1  0  0  0  0
 27 21  1  0  0  0  0
 28 29  2  0  0  0  0
 28 33  1  0  0  0  0
 29 31  1  0  0  0  0
 30 34  1  0  0  0  0
 30 29  1  0  0  0  0
 31 32  1  0  0  0  0
 31 35  1  0  0  0  0
M  END
>  <minimizedAffinity>
-5.6106739

$$$$

 OpenBabel03242521223D

 35 37  0  0  0  0  0  0  0  0999 V2000
   37.7330   25.4350   41.0510 C   0  0  0  0  0  0  0  0  0  0  0  0
   36.5710   24.8730   40.5970 C   0  0  0  0  0  0  0  0  0  0  0  0
   36.5050   23.6000   40.0510 C   0  0  0  0  0  0  0  0  0  0  0  0
   37.6840   22.8720   39.9660 C   0  0  0  0  0  0  0  0  0  0  0  0
   38.8340   23.4580   40.4260 C   0  0  0  0  0  0  0  0  0  0  0  0
   38.9200   24.7140   40.9700 C   0  0  0  0  0  0  0  0  0  0  0  0
   35.6280   25.4130   40.6480 H   0  0  0  0  0  0  0  0  0  0  0  0
   35.5660   23.2040   39.7080 H   0  0  0  0  0  0  0  0  0  0  0  0
   37.6300   21.8820   39.5400 H   0  0  0  0  0  0  0  0  0  0  0  0
   39.7090   22.8380   40.3260 H   0  0  0  0  0  0  0  0  0  0  0  0
   37.5690   29.0900   41.2530 C   0  0  0  0  0  0  0  0  0  0  0  0
   37.6180   29.2590   42.5870 C   0  0  0  0  0  0  0  0  0  0  0  0
   37.7060   28.2240   43.4840 C   0  0  0  0  0  0  0  0  0  0  0  0
   37.7420   26.9860   42.9530 N   0  0  0  0  0  0  0  0  0  0  0  0
   37.6940   26.8140   41.6220 C   0  0  0  0  0  0  0  0  0  0  0  0
   37.6080   27.8300   40.7460 N   0  0  0  0  0  0  0  0  0  0  0  0
   37.5860   30.2680   42.9740 H   0  0  0  0  0  0  0  0  0  0  0  0
   37.7440   28.3700   44.5560 H   0  0  0  0  0  0  0  0  0  0  0  0
   37.3000   32.5330   39.9900 C   0  0  0  0  0  0  0  0  0  0  0  0
   37.2980   32.3400   38.6130 C   0  0  0  0  0  0  0  0  0  0  0  0
   37.3880   31.0430   38.1060 C   0  0  0  0  0  0  0  0  0  0  0  0
   37.4750   30.0080   38.9980 N   0  0  0  0  0  0  0  0  0  0  0  0
   37.4750   30.2230   40.3290 C   0  0  0  0  0  0  0  0  0  0  0  0
   37.3890   31.4580   40.8050 N   0  0  0  0  0  0  0  0  0  0  0  0
   37.2300   33.5440   40.3540 H   0  0  0  0  0  0  0  0  0  0  0  0
   37.2320   33.1090   37.8710 H   0  0  0  0  0  0  0  0  0  0  0  0
   37.3980   30.7420   37.0720 H   0  0  0  0  0  0  0  0  0  0  0  0
   39.9450   24.8760   43.6790 N   0  0  0  0  0  0  0  0  0  0  0  0
   40.7550   24.9760   42.6500 C   0  0  0  0  0  0  0  0  0  0  0  0
   40.1270   25.3020   41.4360 N   0  0  0  0  0  0  0  0  0  0  0  0
   42.1860   24.7870   42.6700 N   0  0  0  0  0  0  0  0  0  0  0  0
   42.7350   25.3970   42.0260 H   0  0  0  0  0  0  0  0  0  0  0  0
   40.3540   24.6380   44.6030 H   0  0  0  0  0  0  0  0  0  0  0  0
   40.5890   26.0370   40.8180 H   0  0  0  0  0  0  0  0  0  0  0  0
   42.4430   24.0270   43.3680 H   0  0  0  0  0  0  0  0  0  0  0  0
  1 15  1  0  0  0  0
  2  7  1  0  0  0  0
  2  1  2  0  0  0  0
  3  2  1  0  0  0  0
  4  3  2  0  0  0  0
  4  5  1  0  0  0  0
  5  6  2  0  0  0  0
  6  1  1  0  0  0  0
  6 30  1  0  0  0  0
  8  3  1  0  0  0  0
  9  4  1  0  0  0  0
 10  5  1  0  0  0  0
 11 12  1  0  0  0  0
 12 17  1  0  0  0  0
 12 13  2  0  0  0  0
 13 18  1  0  0  0  0
 14 13  1  0  0  0  0
 15 14  2  0  0  0  0
 16 11  2  0  0  0  0
 16 15  1  0  0  0  0
 19 25  1  0  0  0  0
 19 24  1  0  0  0  0
 20 19  2  0  0  0  0
 21 20  1  0  0  0  0
 21 22  2  0  0  0  0
 22 23  1  0  0  0  0
 23 24  2  0  0  0  0
 23 11  1  0  0  0  0
 26 20  1  0  0  0  0
 27 21  1  0  0  0  0
 28 33  1  0  0  0  0
 29 31  1  0  0  0  0
 29 28  2  0  0  0  0
 30 29  1  0  0  0  0
 31 35  1  0  0  0  0
 32 31  1  0  0  0  0
 34 30  1  0  0  0  0
M  END
>  <minimizedAffinity>
-5.57165384

$$$$
