
 OpenBabel03242521213D

 35 37  0  0  0  0  0  0  0  0999 V2000
   45.9420   34.3320   41.2110 C   0  0  0  0  0  0  0  0  0  0  0  0
   47.1360   34.3260   40.5430 C   0  0  0  0  0  0  0  0  0  0  0  0
   48.3650   34.3860   41.1820 C   0  0  0  0  0  0  0  0  0  0  0  0
   48.3700   34.4550   42.5680 C   0  0  0  0  0  0  0  0  0  0  0  0
   47.1610   34.4590   43.2130 C   0  0  0  0  0  0  0  0  0  0  0  0
   45.9360   34.4000   42.6010 C   0  0  0  0  0  0  0  0  0  0  0  0
   47.1710   34.2730   39.4560 H   0  0  0  0  0  0  0  0  0  0  0  0
   49.2760   34.3790   40.6100 H   0  0  0  0  0  0  0  0  0  0  0  0
   49.3270   34.5010   43.0630 H   0  0  0  0  0  0  0  0  0  0  0  0
   47.2400   34.5180   44.2860 H   0  0  0  0  0  0  0  0  0  0  0  0
   43.4160   33.1860   38.8170 C   0  0  0  0  0  0  0  0  0  0  0  0
   42.4550   34.1060   39.0240 C   0  0  0  0  0  0  0  0  0  0  0  0
   42.5630   35.1310   39.9290 C   0  0  0  0  0  0  0  0  0  0  0  0
   43.7130   35.1800   40.6300 N   0  0  0  0  0  0  0  0  0  0  0  0
   44.6740   34.2640   40.4260 C   0  0  0  0  0  0  0  0  0  0  0  0
   44.5650   33.2610   39.5370 N   0  0  0  0  0  0  0  0  0  0  0  0
   41.5470   34.0310   38.4420 H   0  0  0  0  0  0  0  0  0  0  0  0
   41.7840   35.8660   40.0890 H   0  0  0  0  0  0  0  0  0  0  0  0
   44.2000   30.7260   36.1990 C   0  0  0  0  0  0  0  0  0  0  0  0
   42.9760   30.0940   36.0150 C   0  0  0  0  0  0  0  0  0  0  0  0
   41.8790   30.4980   36.7770 C   0  0  0  0  0  0  0  0  0  0  0  0
   42.0600   31.5100   37.6810 N   0  0  0  0  0  0  0  0  0  0  0  0
   43.2600   32.1060   37.8400 C   0  0  0  0  0  0  0  0  0  0  0  0
   44.2980   31.7180   37.1130 N   0  0  0  0  0  0  0  0  0  0  0  0
   45.0310   30.3940   35.5980 H   0  0  0  0  0  0  0  0  0  0  0  0
   42.7760   29.3000   35.3250 H   0  0  0  0  0  0  0  0  0  0  0  0
   40.8780   30.1040   36.7450 H   0  0  0  0  0  0  0  0  0  0  0  0
   44.7780   36.5000   44.2350 N   0  0  0  0  0  0  0  0  0  0  0  0
   44.0170   35.5780   43.6920 C   0  0  0  0  0  0  0  0  0  0  0  0
   44.6940   34.4130   43.2930 N   0  0  0  0  0  0  0  0  0  0  0  0
   42.5910   35.6650   43.4830 N   0  0  0  0  0  0  0  0  0  0  0  0
   42.0600   34.7730   43.5890 H   0  0  0  0  0  0  0  0  0  0  0  0
   44.3320   37.3820   44.5480 H   0  0  0  0  0  0  0  0  0  0  0  0
   44.2470   33.4740   43.5210 H   0  0  0  0  0  0  0  0  0  0  0  0
   42.3180   36.6660   43.2480 H   0  0  0  0  0  0  0  0  0  0  0  0
  1  6  1  0  0  0  0
  2  3  1  0  0  0  0
  2  1  2  0  0  0  0
  3  4  2  0  0  0  0
  4  9  1  0  0  0  0
  4  5  1  0  0  0  0
  5 10  1  0  0  0  0
  6  5  2  0  0  0  0
  6 30  1  0  0  0  0
  7  2  1  0  0  0  0
  8  3  1  0  0  0  0
 11 12  2  0  0  0  0
 11 16  1  0  0  0  0
 12 13  1  0  0  0  0
 13 18  1  0  0  0  0
 13 14  2  0  0  0  0
 15 14  1  0  0  0  0
 15  1  1  0  0  0  0
 16 15  2  0  0  0  0
 17 12  1  0  0  0  0
 19 24  1  0  0  0  0
 20 19  2  0  0  0  0
 20 21  1  0  0  0  0
 21 22  2  0  0  0  0
 22 23  1  0  0  0  0
 23 11  1  0  0  0  0
 24 23  2  0  0  0  0
 25 19  1  0  0  0  0
 26 20  1  0  0  0  0
 27 21  1  0  0  0  0
 28 33  1  0  0  0  0
 29 28  2  0  0  0  0
 30 34  1  0  0  0  0
 30 29  1  0  0  0  0
 31 32  1  0  0  0  0
 31 29  1  0  0  0  0
 35 31  1  0  0  0  0
M  END
>  <minimizedAffinity>
-5.25862503

>  <minimizedRMSD>
7.13195038

$$$$
