
 OpenBabel03252500563D

 37 38  0  0  0  0  0  0  0  0999 V2000
   43.8030   34.5360   40.0510 O   0  0  0  0  0  0  0  0  0  0  0  0
   43.2910   34.6110   41.4840 P   0  0  1  0  0  0  0  0  0  0  0  0
   43.0330   33.0430   42.0530 O   0  0  0  0  0  0  0  0  0  0  0  0
   42.1390   32.8800   42.4080 H   0  0  0  0  0  0  0  0  0  0  0  0
   44.4730   35.3320   42.4570 O   0  0  0  0  0  0  0  0  0  0  0  0
   46.5710   34.3500   42.8990 C   0  0  0  0  0  0  0  0  0  0  0  0
   45.3090   34.6770   43.3530 C   0  0  0  0  0  0  0  0  0  0  0  0
   44.9750   34.3270   44.6680 C   0  0  0  0  0  0  0  0  0  0  0  0
   45.9090   33.6900   45.4090 N   0  0  0  0  0  0  0  0  0  0  0  0
   47.1250   33.3830   44.9480 C   0  0  0  0  0  0  0  0  0  0  0  0
   47.4570   33.7140   43.6910 N   0  0  0  0  0  0  0  0  0  0  0  0
   43.9890   34.6070   44.9540 H   0  0  0  0  0  0  0  0  0  0  0  0
   47.8230   32.8690   45.6050 H   0  0  0  0  0  0  0  0  0  0  0  0
   46.9900   34.6840   41.5390 C   0  0  0  0  0  0  0  0  0  0  0  0
   47.0300   33.8050   40.8500 H   0  0  0  0  0  0  0  0  0  0  0  0
   46.2680   35.3950   41.0780 H   0  0  0  0  0  0  0  0  0  0  0  0
   48.3510   35.3230   41.5830 C   0  0  0  0  0  0  0  0  0  0  0  0
   49.0430   34.6000   42.0750 H   0  0  0  0  0  0  0  0  0  0  0  0
   48.7240   35.6050   40.5790 H   0  0  0  0  0  0  0  0  0  0  0  0
   48.2940   36.2020   42.2540 H   0  0  0  0  0  0  0  0  0  0  0  0
   41.8030   35.4280   41.5340 O   0  0  0  0  0  0  0  0  0  0  0  0
   40.6920   34.7990   41.0040 C   0  0  0  0  0  0  0  0  0  0  0  0
   40.1720   35.2910   39.8190 C   0  0  0  0  0  0  0  0  0  0  0  0
   39.0650   34.7340   39.2070 C   0  0  0  0  0  0  0  0  0  0  0  0
   38.4790   33.6680   39.8010 N   0  0  0  0  0  0  0  0  0  0  0  0
   38.9760   33.1810   40.9540 C   0  0  0  0  0  0  0  0  0  0  0  0
   40.0490   33.7450   41.5180 N   0  0  0  0  0  0  0  0  0  0  0  0
   40.6150   36.1330   39.3260 H   0  0  0  0  0  0  0  0  0  0  0  0
   38.6730   35.1250   38.2890 H   0  0  0  0  0  0  0  0  0  0  0  0
   38.1940   30.7970   39.6680 N   0  0  0  0  0  0  0  0  0  0  0  0
   37.6880   31.0370   40.8470 C   0  0  0  0  0  0  0  0  0  0  0  0
   38.3620   32.0450   41.5970 N   0  0  0  0  0  0  0  0  0  0  0  0
   36.5530   30.4350   41.5020 N   0  0  0  0  0  0  0  0  0  0  0  0
   36.6400   29.8660   42.3520 H   0  0  0  0  0  0  0  0  0  0  0  0
   37.8390   30.1070   38.9980 H   0  0  0  0  0  0  0  0  0  0  0  0
   38.4270   31.9860   42.6570 H   0  0  0  0  0  0  0  0  0  0  0  0
   35.6550   30.6550   41.0020 H   0  0  0  0  0  0  0  0  0  0  0  0
  2  1  2  6  0  0  0
  2 21  1  0  0  0  0
  2  3  1  0  0  0  0
  2  5  1  0  0  0  0
  3  4  1  0  0  0  0
  5  7  1  0  0  0  0
  6  7  2  0  0  0  0
  6 11  1  0  0  0  0
  7  8  1  0  0  0  0
  8 12  1  0  0  0  0
  8  9  2  0  0  0  0
 10  9  1  0  0  0  0
 10 13  1  0  0  0  0
 11 10  2  0  0  0  0
 14 17  1  0  0  0  0
 14  6  1  0  0  0  0
 15 14  1  0  0  0  0
 16 14  1  0  0  0  0
 17 18  1  0  0  0  0
 17 20  1  0  0  0  0
 19 17  1  0  0  0  0
 22 27  1  0  0  0  0
 22 21  1  0  0  0  0
 23 22  2  0  0  0  0
 24 25  2  0  0  0  0
 24 23  1  0  0  0  0
 25 26  1  0  0  0  0
 26 27  2  0  0  0  0
 26 32  1  0  0  0  0
 28 23  1  0  0  0  0
 29 24  1  0  0  0  0
 30 31  2  0  0  0  0
 31 33  1  0  0  0  0
 31 32  1  0  0  0  0
 32 36  1  0  0  0  0
 33 34  1  0  0  0  0
 35 30  1  0  0  0  0
 37 33  1  0  0  0  0
M  END
>  <minimizedAffinity>
-6.25069857

>  <minimizedRMSD>
0.277982563

$$$$
