
 OpenBabel03242517343D

 22 22  0  0  0  0  0  0  0  0999 V2000
   44.0270   35.3300   41.7820 C   0  0  0  0  0  3  0  0  0  0  0  0
   43.0760   34.7070   41.0930 C   0  0  0  0  0  3  0  0  0  0  0  0
   44.3120   35.7770   44.2370 C   0  0  0  0  0  0  0  0  0  0  0  0
   44.4850   34.9310   43.1180 C   0  0  0  0  0  0  0  0  0  0  0  0
   45.1010   33.7050   43.2980 C   0  0  0  0  0  0  0  0  0  0  0  0
   45.5170   33.3640   44.5610 N   0  0  0  0  0  0  0  0  0  0  0  0
   45.3340   34.1950   45.5960 C   0  0  0  0  0  0  0  0  0  0  0  0
   44.7430   35.3730   45.4240 N   0  0  0  0  0  0  0  0  0  0  0  0
   43.8250   36.7220   44.0390 H   0  0  0  0  0  0  0  0  0  0  0  0
   45.2640   33.0110   42.4820 H   0  0  0  0  0  0  0  0  0  0  0  0
   45.6940   33.8430   46.5580 H   0  0  0  0  0  0  0  0  0  0  0  0
   42.6590   35.1690   39.7350 C   0  0  0  0  0  0  0  0  0  0  0  0
   42.9070   34.4340   38.9490 H   0  0  0  0  0  0  0  0  0  0  0  0
   43.2230   36.1010   39.5240 H   0  0  0  0  0  0  0  0  0  0  0  0
   40.6820   33.8490   38.2370 N   0  0  0  0  0  0  0  0  0  0  0  0
   40.3160   34.6580   39.1530 C   0  0  0  0  0  0  0  0  0  0  0  0
   41.2590   35.5410   39.7490 N   0  0  0  0  0  0  0  0  0  0  0  0
   38.9580   34.7250   39.6260 N   0  0  0  0  0  0  0  0  0  0  0  0
   38.7420   34.7970   40.6460 H   0  0  0  0  0  0  0  0  0  0  0  0
   39.9430   33.2160   37.8290 H   0  0  0  0  0  0  0  0  0  0  0  0
   40.9120   36.4400   40.1830 H   0  0  0  0  0  0  0  0  0  0  0  0
   37.9960   34.7280   39.2730 H   0  0  0  0  0  0  0  0  0  0  0  0
  1  4  1  0  0  0  0
  2  1  2  0  0  0  0
  3  8  1  0  0  0  0
  4  5  1  0  0  0  0
  4  3  2  0  0  0  0
  5  6  2  0  0  0  0
  6  7  1  0  0  0  0
  7 11  1  0  0  0  0
  8  7  2  0  0  0  0
  9  3  1  0  0  0  0
 10  5  1  0  0  0  0
 12 17  1  0  0  0  0
 12  2  1  0  0  0  0
 13 12  1  0  0  0  0
 14 12  1  0  0  0  0
 15 16  2  0  0  0  0
 16 18  1  0  0  0  0
 16 17  1  0  0  0  0
 17 21  1  0  0  0  0
 18 19  1  0  0  0  0
 20 15  1  0  0  0  0
 22 18  1  0  0  0  0
M  END
>  <minimizedAffinity>
-3.93123722

>  <minimizedRMSD>
0.178297713

$$$$
