
 OpenBabel03252500563D

 37 38  0  0  0  0  0  0  0  0999 V2000
   43.5950   35.4260   40.3260 O   0  0  0  0  0  0  0  0  0  0  0  0
   43.1480   35.0180   41.7250 P   0  0  1  0  0  0  0  0  0  0  0  0
   43.2350   33.3380   41.8570 O   0  0  0  0  0  0  0  0  0  0  0  0
   42.4100   32.9090   42.1510 H   0  0  0  0  0  0  0  0  0  0  0  0
   44.2110   35.6870   42.8610 O   0  0  0  0  0  0  0  0  0  0  0  0
   46.2030   34.4970   43.2850 C   0  0  0  0  0  0  0  0  0  0  0  0
   45.0000   34.9810   43.7610 C   0  0  0  0  0  0  0  0  0  0  0  0
   44.6740   34.7230   45.0990 C   0  0  0  0  0  0  0  0  0  0  0  0
   45.5580   34.0180   45.8400 N   0  0  0  0  0  0  0  0  0  0  0  0
   46.7160   33.5600   45.3580 C   0  0  0  0  0  0  0  0  0  0  0  0
   47.0400   33.8000   44.0780 N   0  0  0  0  0  0  0  0  0  0  0  0
   43.7350   35.1230   45.4010 H   0  0  0  0  0  0  0  0  0  0  0  0
   47.3760   32.9990   46.0160 H   0  0  0  0  0  0  0  0  0  0  0  0
   46.6090   34.7270   41.9000 C   0  0  0  0  0  0  0  0  0  0  0  0
   46.5600   33.8140   41.2570 H   0  0  0  0  0  0  0  0  0  0  0  0
   45.9340   35.4710   41.4200 H   0  0  0  0  0  0  0  0  0  0  0  0
   48.0180   35.2550   41.8790 C   0  0  0  0  0  0  0  0  0  0  0  0
   48.6630   34.5040   42.3910 H   0  0  0  0  0  0  0  0  0  0  0  0
   48.3850   35.4560   40.8530 H   0  0  0  0  0  0  0  0  0  0  0  0
   48.0500   36.1690   42.5040 H   0  0  0  0  0  0  0  0  0  0  0  0
   41.5330   35.4740   41.9830 O   0  0  0  0  0  0  0  0  0  0  0  0
   40.5400   34.7430   41.3560 C   0  0  0  0  0  0  0  0  0  0  0  0
   39.9810   35.2660   40.2020 C   0  0  0  0  0  0  0  0  0  0  0  0
   38.9820   34.6150   39.5010 C   0  0  0  0  0  0  0  0  0  0  0  0
   38.5460   33.4240   39.9740 N   0  0  0  0  0  0  0  0  0  0  0  0
   39.0830   32.9060   41.0960 C   0  0  0  0  0  0  0  0  0  0  0  0
   40.0470   33.5630   41.7480 N   0  0  0  0  0  0  0  0  0  0  0  0
   40.3060   36.2060   39.8040 H   0  0  0  0  0  0  0  0  0  0  0  0
   38.5590   35.0310   38.6090 H   0  0  0  0  0  0  0  0  0  0  0  0
   37.5870   30.9980   39.6570 N   0  0  0  0  0  0  0  0  0  0  0  0
   37.6020   30.8930   40.9570 C   0  0  0  0  0  0  0  0  0  0  0  0
   38.6280   31.6380   41.6100 N   0  0  0  0  0  0  0  0  0  0  0  0
   36.7390   30.1360   41.8290 N   0  0  0  0  0  0  0  0  0  0  0  0
   37.0730   29.3450   42.3930 H   0  0  0  0  0  0  0  0  0  0  0  0
   36.9220   30.5340   39.0290 H   0  0  0  0  0  0  0  0  0  0  0  0
   39.0840   31.2750   42.5000 H   0  0  0  0  0  0  0  0  0  0  0  0
   35.7520   30.4970   41.8060 H   0  0  0  0  0  0  0  0  0  0  0  0
  2  1  2  6  0  0  0
  2  3  1  0  0  0  0
  2 21  1  0  0  0  0
  2  5  1  0  0  0  0
  3  4  1  0  0  0  0
  5  7  1  0  0  0  0
  6  7  2  0  0  0  0
  6 11  1  0  0  0  0
  7  8  1  0  0  0  0
  8 12  1  0  0  0  0
  8  9  2  0  0  0  0
 10  9  1  0  0  0  0
 10 13  1  0  0  0  0
 11 10  2  0  0  0  0
 14  6  1  0  0  0  0
 15 14  1  0  0  0  0
 16 14  1  0  0  0  0
 17 14  1  0  0  0  0
 17 18  1  0  0  0  0
 17 20  1  0  0  0  0
 19 17  1  0  0  0  0
 22 27  1  0  0  0  0
 22 21  1  0  0  0  0
 23 22  2  0  0  0  0
 24 25  2  0  0  0  0
 24 23  1  0  0  0  0
 25 26  1  0  0  0  0
 26 32  1  0  0  0  0
 26 27  2  0  0  0  0
 28 23  1  0  0  0  0
 29 24  1  0  0  0  0
 30 31  2  0  0  0  0
 31 32  1  0  0  0  0
 31 33  1  0  0  0  0
 32 36  1  0  0  0  0
 33 34  1  0  0  0  0
 35 30  1  0  0  0  0
 37 33  1  0  0  0  0
M  END
>  <minimizedAffinity>
-5.94804668

>  <minimizedRMSD>
0.374598622

$$$$
