
 OpenBabel03252506283D

 46 49  0  0  0  0  0  0  0  0999 V2000
   49.2360   26.6230   47.7650 C   0  0  0  0  0  0  0  0  0  0  0  0
   50.0150   26.9130   48.5000 H   0  0  0  0  0  0  0  0  0  0  0  0
   49.6570   25.9760   46.9970 H   0  0  0  0  0  0  0  0  0  0  0  0
   47.5970   29.7040   47.0110 C   0  0  0  0  0  0  0  0  0  0  0  0
   48.1900   29.3780   45.7660 C   0  0  0  0  0  0  0  0  0  0  0  0
   48.8550   28.2150   45.9030 C   0  0  0  0  0  0  0  0  0  0  0  0
   48.6850   27.8330   47.1770 N   0  0  0  0  0  0  0  0  0  0  0  0
   47.9360   28.7140   47.8430 N   0  0  0  0  0  0  0  0  0  0  0  0
   48.1530   29.9320   44.8150 H   0  0  0  0  0  0  0  0  0  0  0  0
   49.4280   27.6700   45.1420 H   0  0  0  0  0  0  0  0  0  0  0  0
   45.8040   32.3570   48.7560 C   0  0  0  0  0  0  0  0  0  0  0  0
   45.2890   33.1450   47.7390 C   0  0  0  0  0  0  0  0  0  0  0  0
   45.5710   32.7440   46.4290 C   0  0  0  0  0  0  0  0  0  0  0  0
   46.3140   31.6350   46.2490 N   0  0  0  0  0  0  0  0  0  0  0  0
   46.8020   30.8900   47.2410 C   0  0  0  0  0  0  0  0  0  0  0  0
   46.5350   31.2680   48.5120 N   0  0  0  0  0  0  0  0  0  0  0  0
   45.5740   32.6850   49.7610 H   0  0  0  0  0  0  0  0  0  0  0  0
   44.6880   34.0400   47.8450 H   0  0  0  0  0  0  0  0  0  0  0  0
   44.4290   35.3460   46.4290 N   0  0  0  0  0  0  0  0  0  0  0  0
   44.8910   34.8880   45.2940 C   0  0  0  0  0  0  0  0  0  0  0  0
   45.1020   33.4620   45.2800 N   0  0  0  0  0  0  0  0  0  0  0  0
   45.2180   35.5750   44.0690 N   0  0  0  0  0  0  0  0  0  0  0  0
   45.7640   36.4380   44.3030 H   0  0  0  0  0  0  0  0  0  0  0  0
   44.2270   36.3660   46.5860 H   0  0  0  0  0  0  0  0  0  0  0  0
   44.9190   32.8780   44.4100 H   0  0  0  0  0  0  0  0  0  0  0  0
   44.8620   35.1070   43.1830 H   0  0  0  0  0  0  0  0  0  0  0  0
   48.1830   25.8840   48.5140 C   0  0  0  0  0  0  0  0  0  0  0  0
   48.6410   24.9710   48.9500 H   0  0  0  0  0  0  0  0  0  0  0  0
   47.8920   26.5180   49.3970 H   0  0  0  0  0  0  0  0  0  0  0  0
   46.9090   24.7340   46.6100 C   0  0  0  0  0  0  0  0  0  0  0  0
   46.9980   25.4800   47.7570 C   0  0  0  0  0  0  0  0  0  0  0  0
   45.7860   25.9290   48.2950 C   0  0  0  0  0  0  0  0  0  0  0  0
   44.5860   25.6400   47.7100 C   0  0  0  0  0  0  0  0  0  0  0  0
   43.2970   25.9300   47.9980 N   0  0  0  0  0  0  0  0  0  0  0  0
   42.4680   25.3970   47.0850 C   0  0  0  0  0  0  0  0  0  0  0  0
   43.2190   24.7200   46.1450 C   0  0  0  0  0  0  0  0  0  0  0  0
   44.5150   24.8950   46.5690 C   0  0  0  0  0  0  0  0  0  0  0  0
   45.7010   24.4490   46.0310 C   0  0  0  0  0  0  0  0  0  0  0  0
   47.8680   24.4040   46.2230 H   0  0  0  0  0  0  0  0  0  0  0  0
   45.7130   26.5250   49.1950 H   0  0  0  0  0  0  0  0  0  0  0  0
   42.9800   26.4950   48.8200 H   0  0  0  0  0  0  0  0  0  0  0  0
   41.3900   25.4930   47.1020 H   0  0  0  0  0  0  0  0  0  0  0  0
   42.8030   24.1930   45.2920 H   0  0  0  0  0  0  0  0  0  0  0  0
   45.6760   23.6460   44.8050 C   0  0  0  0  0  0  0  0  0  0  0  0
   46.7420   23.2120   44.2800 O   0  0  0  0  0  0  0  0  0  0  0  0
   44.7460   23.4000   44.3110 H   0  0  0  0  0  0  0  0  0  0  0  0
  1  2  1  0  0  0  0
  1 27  1  0  0  0  0
  3  1  1  0  0  0  0
  4 15  1  0  0  0  0
  4  8  2  0  0  0  0
  5  6  2  0  0  0  0
  5  4  1  0  0  0  0
  6  7  1  0  0  0  0
  7  1  1  0  0  0  0
  7  8  1  0  0  0  0
  9  5  1  0  0  0  0
 10  6  1  0  0  0  0
 11 17  1  0  0  0  0
 12 18  1  0  0  0  0
 12 11  2  0  0  0  0
 13 12  1  0  0  0  0
 14 13  2  0  0  0  0
 14 15  1  0  0  0  0
 15 16  2  0  0  0  0
 16 11  1  0  0  0  0
 19 24  1  0  0  0  0
 20 19  2  0  0  0  0
 21 20  1  0  0  0  0
 21 13  1  0  0  0  0
 22 23  1  0  0  0  0
 22 20  1  0  0  0  0
 25 21  1  0  0  0  0
 26 22  1  0  0  0  0
 27 28  1  0  0  0  0
 27 29  1  0  0  0  0
 30 31  1  0  0  0  0
 31 32  2  0  0  0  0
 31 27  1  0  0  0  0
 32 40  1  0  0  0  0
 33 34  1  0  0  0  0
 33 32  1  0  0  0  0
 34 41  1  0  0  0  0
 35 42  1  0  0  0  0
 35 34  1  0  0  0  0
 36 37  1  0  0  0  0
 36 35  2  0  0  0  0
 37 33  2  0  0  0  0
 38 37  1  0  0  0  0
 38 30  2  0  0  0  0
 39 30  1  0  0  0  0
 43 36  1  0  0  0  0
 44 38  1  0  0  0  0
 45 44  2  0  0  0  0
 46 44  1  0  0  0  0
M  END
>  <minimizedAffinity>
-4.78253078

>  <minimizedRMSD>
4.15934277

$$$$
