
 OpenBabel03242517343D

 22 22  0  0  0  0  0  0  0  0999 V2000
   44.1350   35.2020   41.6460 C   0  0  0  0  0  0  0  0  0  0  0  0
   42.9880   34.8350   41.0810 C   0  0  0  0  0  0  0  0  0  0  0  0
   44.2830   35.8550   44.0670 C   0  0  0  0  0  0  0  0  0  0  0  0
   44.5090   34.9150   43.0360 C   0  0  0  0  0  0  0  0  0  0  0  0
   45.0960   33.7030   43.3560 C   0  0  0  0  0  0  0  0  0  0  0  0
   45.4330   33.4680   44.6650 N   0  0  0  0  0  0  0  0  0  0  0  0
   45.2020   34.3860   45.6140 C   0  0  0  0  0  0  0  0  0  0  0  0
   44.6390   35.5500   45.3080 N   0  0  0  0  0  0  0  0  0  0  0  0
   43.8220   36.7850   43.7610 H   0  0  0  0  0  0  0  0  0  0  0  0
   45.2960   32.9410   42.6130 H   0  0  0  0  0  0  0  0  0  0  0  0
   45.5010   34.1150   46.6220 H   0  0  0  0  0  0  0  0  0  0  0  0
   42.6740   35.1620   39.6590 C   0  0  0  0  0  0  0  0  0  0  0  0
   43.3280   34.6230   38.9520 H   0  0  0  0  0  0  0  0  0  0  0  0
   42.8510   36.2490   39.5300 H   0  0  0  0  0  0  0  0  0  0  0  0
   41.3710   36.0040   37.3160 N   0  0  0  0  0  0  0  0  0  0  0  0
   40.7660   35.1940   38.0940 C   0  0  0  0  0  0  0  0  0  0  0  0
   41.2630   34.9520   39.4050 N   0  0  0  0  0  0  0  0  0  0  0  0
   39.5710   34.4940   37.7020 N   0  0  0  0  0  0  0  0  0  0  0  0
   39.4390   33.4800   37.9210 H   0  0  0  0  0  0  0  0  0  0  0  0
   40.9600   36.1470   36.3550 H   0  0  0  0  0  0  0  0  0  0  0  0
   40.5910   34.6270   40.1530 H   0  0  0  0  0  0  0  0  0  0  0  0
   38.6810   34.6540   37.2180 H   0  0  0  0  0  0  0  0  0  0  0  0
  1  4  1  0  0  0  0
  2  1  2  0  0  0  0
  3  8  1  0  0  0  0
  4  5  1  0  0  0  0
  4  3  2  0  0  0  0
  5  6  2  0  0  0  0
  6  7  1  0  0  0  0
  7 11  1  0  0  0  0
  8  7  2  0  0  0  0
  9  3  1  0  0  0  0
 10  5  1  0  0  0  0
 12  2  1  0  0  0  0
 13 12  1  0  0  0  0
 14 12  1  0  0  0  0
 15 16  2  0  0  0  0
 16 17  1  0  0  0  0
 17 12  1  0  0  0  0
 17 21  1  0  0  0  0
 18 19  1  0  0  0  0
 18 16  1  0  0  0  0
 20 15  1  0  0  0  0
 22 18  1  0  0  0  0
M  END
>  <minimizedAffinity>
-4.18583393

>  <minimizedRMSD>
0.571996093

$$$$
