
 OpenBabel03252506303D

 46 49  0  0  0  0  0  0  0  0999 V2000
   35.8740   29.3070   40.1300 C   0  0  0  0  0  0  0  0  0  0  0  0
   36.1090   28.3500   39.6220 H   0  0  0  0  0  0  0  0  0  0  0  0
   34.8100   29.5250   40.0610 H   0  0  0  0  0  0  0  0  0  0  0  0
   37.9910   32.0650   39.3230 C   0  0  0  0  0  0  0  0  0  0  0  0
   37.5640   31.6420   38.0400 C   0  0  0  0  0  0  0  0  0  0  0  0
   36.7420   30.5860   38.1930 C   0  0  0  0  0  0  0  0  0  0  0  0
   36.6600   30.3610   39.5130 N   0  0  0  0  0  0  0  0  0  0  0  0
   37.4010   31.2390   40.1920 N   0  0  0  0  0  0  0  0  0  0  0  0
   37.8190   32.0570   37.0530 H   0  0  0  0  0  0  0  0  0  0  0  0
   36.2300   30.0100   37.4120 H   0  0  0  0  0  0  0  0  0  0  0  0
   39.1800   35.3950   40.2200 C   0  0  0  0  0  0  0  0  0  0  0  0
   40.5470   35.3380   39.9990 C   0  0  0  0  0  0  0  0  0  0  0  0
   41.0590   34.1230   39.5320 C   0  0  0  0  0  0  0  0  0  0  0  0
   40.1990   33.1060   39.3310 N   0  0  0  0  0  0  0  0  0  0  0  0
   38.8860   33.1790   39.5490 C   0  0  0  0  0  0  0  0  0  0  0  0
   38.3800   34.3500   40.0020 N   0  0  0  0  0  0  0  0  0  0  0  0
   38.8060   36.3430   40.5820 H   0  0  0  0  0  0  0  0  0  0  0  0
   41.2680   36.1330   40.1490 H   0  0  0  0  0  0  0  0  0  0  0  0
   42.2770   34.0990   36.9660 N   0  0  0  0  0  0  0  0  0  0  0  0
   43.0540   34.2890   38.0030 C   0  0  0  0  0  0  0  0  0  0  0  0
   42.4520   33.9210   39.2590 N   0  0  0  0  0  0  0  0  0  0  0  0
   44.3990   34.8010   38.0850 N   0  0  0  0  0  0  0  0  0  0  0  0
   44.4730   35.6540   37.4790 H   0  0  0  0  0  0  0  0  0  0  0  0
   42.5840   34.3230   35.9840 H   0  0  0  0  0  0  0  0  0  0  0  0
   43.0200   33.4820   40.0430 H   0  0  0  0  0  0  0  0  0  0  0  0
   45.0510   34.2490   38.7180 H   0  0  0  0  0  0  0  0  0  0  0  0
   36.2540   29.1470   41.5610 C   0  0  0  0  0  0  0  0  0  0  0  0
   36.8070   30.0560   41.8790 H   0  0  0  0  0  0  0  0  0  0  0  0
   35.3040   29.1530   42.1630 H   0  0  0  0  0  0  0  0  0  0  0  0
   36.8860   26.6610   41.5640 C   0  0  0  0  0  0  0  0  0  0  0  0
   37.0700   27.9790   41.8970 C   0  0  0  0  0  0  0  0  0  0  0  0
   38.1990   28.2660   42.6740 C   0  0  0  0  0  0  0  0  0  0  0  0
   39.0660   27.2890   43.0740 C   0  0  0  0  0  0  0  0  0  0  0  0
   40.2040   27.2730   43.8050 N   0  0  0  0  0  0  0  0  0  0  0  0
   40.6880   26.0250   43.9150 C   0  0  0  0  0  0  0  0  0  0  0  0
   39.8510   25.1630   43.2350 C   0  0  0  0  0  0  0  0  0  0  0  0
   38.8690   25.9830   42.7340 C   0  0  0  0  0  0  0  0  0  0  0  0
   37.7610   25.6900   41.9710 C   0  0  0  0  0  0  0  0  0  0  0  0
   36.0010   26.4790   40.9630 H   0  0  0  0  0  0  0  0  0  0  0  0
   38.4630   29.2620   43.0050 H   0  0  0  0  0  0  0  0  0  0  0  0
   40.6530   28.1170   44.2330 H   0  0  0  0  0  0  0  0  0  0  0  0
   41.5890   25.7590   44.4540 H   0  0  0  0  0  0  0  0  0  0  0  0
   40.0060   24.0910   43.1600 H   0  0  0  0  0  0  0  0  0  0  0  0
   37.5060   24.3010   41.5810 C   0  0  0  0  0  0  0  0  0  0  0  0
   36.3650   23.9270   41.1820 O   0  0  0  0  0  0  0  0  0  0  0  0
   38.2840   23.5510   41.6210 H   0  0  0  0  0  0  0  0  0  0  0  0
  1 27  1  0  0  0  0
  2  1  1  0  0  0  0
  3  1  1  0  0  0  0
  4 15  1  0  0  0  0
  4  8  2  0  0  0  0
  5  6  2  0  0  0  0
  5  4  1  0  0  0  0
  6  7  1  0  0  0  0
  7  1  1  0  0  0  0
  7  8  1  0  0  0  0
  9  5  1  0  0  0  0
 10  6  1  0  0  0  0
 11 17  1  0  0  0  0
 12 18  1  0  0  0  0
 12 11  2  0  0  0  0
 13 12  1  0  0  0  0
 14 13  2  0  0  0  0
 14 15  1  0  0  0  0
 15 16  2  0  0  0  0
 16 11  1  0  0  0  0
 19 20  2  0  0  0  0
 20 22  1  0  0  0  0
 20 21  1  0  0  0  0
 21 13  1  0  0  0  0
 21 25  1  0  0  0  0
 22 26  1  0  0  0  0
 23 22  1  0  0  0  0
 24 19  1  0  0  0  0
 27 28  1  0  0  0  0
 27 31  1  0  0  0  0
 27 29  1  0  0  0  0
 30 31  2  0  0  0  0
 30 38  1  0  0  0  0
 31 32  1  0  0  0  0
 32 40  1  0  0  0  0
 32 33  2  0  0  0  0
 33 34  1  0  0  0  0
 34 35  1  0  0  0  0
 34 41  1  0  0  0  0
 35 42  1  0  0  0  0
 36 35  2  0  0  0  0
 37 33  1  0  0  0  0
 37 36  1  0  0  0  0
 38 37  2  0  0  0  0
 39 30  1  0  0  0  0
 43 36  1  0  0  0  0
 44 46  1  0  0  0  0
 44 38  1  0  0  0  0
 45 44  2  0  0  0  0
M  END
>  <minimizedAffinity>
-7.2654562

$$$$

 OpenBabel03252506303D

 46 49  0  0  0  0  0  0  0  0999 V2000
   37.9040   28.6470   42.8030 C   0  0  0  0  0  0  0  0  0  0  0  0
   37.8880   28.9110   43.8810 H   0  0  0  0  0  0  0  0  0  0  0  0
   38.8220   28.1190   42.5530 H   0  0  0  0  0  0  0  0  0  0  0  0
   38.3110   31.7720   41.1260 C   0  0  0  0  0  0  0  0  0  0  0  0
   36.9840   31.4240   40.7740 C   0  0  0  0  0  0  0  0  0  0  0  0
   36.6880   30.2430   41.3480 C   0  0  0  0  0  0  0  0  0  0  0  0
   37.7820   29.8700   42.0280 N   0  0  0  0  0  0  0  0  0  0  0  0
   38.7530   30.7760   41.9010 N   0  0  0  0  0  0  0  0  0  0  0  0
   36.2660   31.9750   40.1460 H   0  0  0  0  0  0  0  0  0  0  0  0
   35.7480   29.6780   41.2880 H   0  0  0  0  0  0  0  0  0  0  0  0
   38.9990   35.3130   40.5870 C   0  0  0  0  0  0  0  0  0  0  0  0
   40.1900   35.3230   39.8770 C   0  0  0  0  0  0  0  0  0  0  0  0
   40.7580   34.0800   39.5840 C   0  0  0  0  0  0  0  0  0  0  0  0
   40.1170   32.9720   40.0060 N   0  0  0  0  0  0  0  0  0  0  0  0
   38.9720   32.9820   40.6880 C   0  0  0  0  0  0  0  0  0  0  0  0
   38.4130   34.1800   40.9770 N   0  0  0  0  0  0  0  0  0  0  0  0
   38.5770   36.2850   40.8030 H   0  0  0  0  0  0  0  0  0  0  0  0
   40.7320   36.1910   39.5220 H   0  0  0  0  0  0  0  0  0  0  0  0
   41.0540   32.9280   37.0040 N   0  0  0  0  0  0  0  0  0  0  0  0
   42.0180   33.7020   37.4360 C   0  0  0  0  0  0  0  0  0  0  0  0
   41.9850   33.9390   38.8570 N   0  0  0  0  0  0  0  0  0  0  0  0
   43.0930   34.3450   36.7230 N   0  0  0  0  0  0  0  0  0  0  0  0
   42.7060   34.7840   35.8530 H   0  0  0  0  0  0  0  0  0  0  0  0
   40.9520   32.6680   35.9900 H   0  0  0  0  0  0  0  0  0  0  0  0
   42.8770   34.0210   39.4290 H   0  0  0  0  0  0  0  0  0  0  0  0
   44.0480   34.2660   37.1840 H   0  0  0  0  0  0  0  0  0  0  0  0
   36.7360   27.7570   42.5550 C   0  0  0  0  0  0  0  0  0  0  0  0
   36.4460   27.2850   43.5180 H   0  0  0  0  0  0  0  0  0  0  0  0
   35.8670   28.4140   42.2750 H   0  0  0  0  0  0  0  0  0  0  0  0
   36.6980   26.7160   40.2120 C   0  0  0  0  0  0  0  0  0  0  0  0
   36.9180   26.6940   41.5660 C   0  0  0  0  0  0  0  0  0  0  0  0
   37.3850   25.4850   42.0950 C   0  0  0  0  0  0  0  0  0  0  0  0
   37.6080   24.3910   41.3060 C   0  0  0  0  0  0  0  0  0  0  0  0
   38.0440   23.1320   41.5340 N   0  0  0  0  0  0  0  0  0  0  0  0
   38.0890   22.4240   40.3930 C   0  0  0  0  0  0  0  0  0  0  0  0
   37.6700   23.2300   39.3540 C   0  0  0  0  0  0  0  0  0  0  0  0
   37.3850   24.4300   39.9610 C   0  0  0  0  0  0  0  0  0  0  0  0
   36.9250   25.6140   39.4310 C   0  0  0  0  0  0  0  0  0  0  0  0
   36.3370   27.6690   39.8400 H   0  0  0  0  0  0  0  0  0  0  0  0
   37.5990   25.3310   43.1440 H   0  0  0  0  0  0  0  0  0  0  0  0
   38.3130   22.7520   42.4720 H   0  0  0  0  0  0  0  0  0  0  0  0
   38.4060   21.3910   40.3220 H   0  0  0  0  0  0  0  0  0  0  0  0
   37.6080   22.9120   38.3180 H   0  0  0  0  0  0  0  0  0  0  0  0
   36.6700   25.7050   37.9910 C   0  0  0  0  0  0  0  0  0  0  0  0
   36.3410   26.7990   37.4470 O   0  0  0  0  0  0  0  0  0  0  0  0
   36.7530   24.8390   37.3480 H   0  0  0  0  0  0  0  0  0  0  0  0
  1  2  1  0  0  0  0
  3  1  1  0  0  0  0
  4  8  2  0  0  0  0
  5  4  1  0  0  0  0
  5  6  2  0  0  0  0
  6  7  1  0  0  0  0
  7  1  1  0  0  0  0
  8  7  1  0  0  0  0
  9  5  1  0  0  0  0
 10  6  1  0  0  0  0
 11 17  1  0  0  0  0
 11 16  1  0  0  0  0
 12 11  2  0  0  0  0
 13 12  1  0  0  0  0
 13 14  2  0  0  0  0
 14 15  1  0  0  0  0
 15 16  2  0  0  0  0
 15  4  1  0  0  0  0
 18 12  1  0  0  0  0
 19 20  2  0  0  0  0
 20 21  1  0  0  0  0
 21 25  1  0  0  0  0
 21 13  1  0  0  0  0
 22 26  1  0  0  0  0
 22 20  1  0  0  0  0
 23 22  1  0  0  0  0
 24 19  1  0  0  0  0
 27  1  1  0  0  0  0
 27 28  1  0  0  0  0
 29 27  1  0  0  0  0
 30 31  1  0  0  0  0
 31 32  2  0  0  0  0
 31 27  1  0  0  0  0
 32 40  1  0  0  0  0
 33 34  1  0  0  0  0
 33 32  1  0  0  0  0
 34 41  1  0  0  0  0
 35 34  1  0  0  0  0
 36 37  1  0  0  0  0
 36 35  2  0  0  0  0
 37 33  2  0  0  0  0
 38 37  1  0  0  0  0
 38 30  2  0  0  0  0
 39 30  1  0  0  0  0
 42 35  1  0  0  0  0
 43 36  1  0  0  0  0
 44 38  1  0  0  0  0
 45 44  2  0  0  0  0
 46 44  1  0  0  0  0
M  END
>  <minimizedAffinity>
-7.2017808

$$$$

 OpenBabel03252506303D

 46 49  0  0  0  0  0  0  0  0999 V2000
   35.5760   29.4350   37.4630 C   0  0  0  0  0  0  0  0  0  0  0  0
   35.6730   28.4780   36.9100 H   0  0  0  0  0  0  0  0  0  0  0  0
   34.9730   30.1430   36.9000 H   0  0  0  0  0  0  0  0  0  0  0  0
   38.4770   31.3100   38.3650 C   0  0  0  0  0  0  0  0  0  0  0  0
   39.0490   30.1690   37.7510 C   0  0  0  0  0  0  0  0  0  0  0  0
   38.0510   29.3560   37.3530 C   0  0  0  0  0  0  0  0  0  0  0  0
   36.9080   29.9640   37.7030 N   0  0  0  0  0  0  0  0  0  0  0  0
   37.1540   31.1290   38.3060 N   0  0  0  0  0  0  0  0  0  0  0  0
   40.1110   29.9250   37.5940 H   0  0  0  0  0  0  0  0  0  0  0  0
   38.1310   28.3870   36.8430 H   0  0  0  0  0  0  0  0  0  0  0  0
   39.3000   34.3830   40.1500 C   0  0  0  0  0  0  0  0  0  0  0  0
   40.6710   34.5100   39.9910 C   0  0  0  0  0  0  0  0  0  0  0  0
   41.3140   33.5130   39.2520 C   0  0  0  0  0  0  0  0  0  0  0  0
   40.5670   32.5090   38.7520 N   0  0  0  0  0  0  0  0  0  0  0  0
   39.2490   32.4030   38.9160 C   0  0  0  0  0  0  0  0  0  0  0  0
   38.6160   33.3630   39.6290 N   0  0  0  0  0  0  0  0  0  0  0  0
   38.8230   35.1650   40.7240 H   0  0  0  0  0  0  0  0  0  0  0  0
   41.3040   35.3010   40.3760 H   0  0  0  0  0  0  0  0  0  0  0  0
   42.5970   34.3460   36.8580 N   0  0  0  0  0  0  0  0  0  0  0  0
   43.3240   34.2870   37.9450 C   0  0  0  0  0  0  0  0  0  0  0  0
   42.7270   33.5170   39.0070 N   0  0  0  0  0  0  0  0  0  0  0  0
   44.6120   34.8630   38.2440 N   0  0  0  0  0  0  0  0  0  0  0  0
   44.6190   35.8590   37.9170 H   0  0  0  0  0  0  0  0  0  0  0  0
   42.9060   34.8730   36.0010 H   0  0  0  0  0  0  0  0  0  0  0  0
   43.3140   32.9150   39.6580 H   0  0  0  0  0  0  0  0  0  0  0  0
   45.2970   34.2060   38.7220 H   0  0  0  0  0  0  0  0  0  0  0  0
   34.9010   29.1250   38.7540 C   0  0  0  0  0  0  0  0  0  0  0  0
   34.5620   30.0800   39.2080 H   0  0  0  0  0  0  0  0  0  0  0  0
   33.9580   28.5620   38.5120 H   0  0  0  0  0  0  0  0  0  0  0  0
   36.2530   27.1550   39.6830 C   0  0  0  0  0  0  0  0  0  0  0  0
   35.6900   28.4040   39.7530 C   0  0  0  0  0  0  0  0  0  0  0  0
   35.8910   29.1040   40.9480 C   0  0  0  0  0  0  0  0  0  0  0  0
   36.6070   28.5720   41.9840 C   0  0  0  0  0  0  0  0  0  0  0  0
   36.9520   29.0050   43.2180 N   0  0  0  0  0  0  0  0  0  0  0  0
   37.6810   28.0800   43.8660 C   0  0  0  0  0  0  0  0  0  0  0  0
   37.8370   26.9820   43.0430 C   0  0  0  0  0  0  0  0  0  0  0  0
   37.1610   27.3280   41.8980 C   0  0  0  0  0  0  0  0  0  0  0  0
   36.9690   26.6310   40.7270 C   0  0  0  0  0  0  0  0  0  0  0  0
   36.0760   26.6440   38.7420 H   0  0  0  0  0  0  0  0  0  0  0  0
   35.5030   30.0960   41.1360 H   0  0  0  0  0  0  0  0  0  0  0  0
   36.6900   29.9350   43.6210 H   0  0  0  0  0  0  0  0  0  0  0  0
   38.0730   28.1970   44.8680 H   0  0  0  0  0  0  0  0  0  0  0  0
   38.3850   26.0860   43.3160 H   0  0  0  0  0  0  0  0  0  0  0  0
   37.5440   25.2910   40.5870 C   0  0  0  0  0  0  0  0  0  0  0  0
   38.7580   25.1240   40.2740 O   0  0  0  0  0  0  0  0  0  0  0  0
   36.9490   24.4020   40.7460 H   0  0  0  0  0  0  0  0  0  0  0  0
  1  7  1  0  0  0  0
  1 27  1  0  0  0  0
  2  1  1  0  0  0  0
  3  1  1  0  0  0  0
  4 15  1  0  0  0  0
  5  4  1  0  0  0  0
  6  7  1  0  0  0  0
  6  5  2  0  0  0  0
  7  8  1  0  0  0  0
  8  4  2  0  0  0  0
  9  5  1  0  0  0  0
 10  6  1  0  0  0  0
 11 17  1  0  0  0  0
 12 11  1  0  0  0  0
 12 18  1  0  0  0  0
 13 12  2  0  0  0  0
 14 15  2  0  0  0  0
 14 13  1  0  0  0  0
 15 16  1  0  0  0  0
 16 11  2  0  0  0  0
 19 20  2  0  0  0  0
 20 22  1  0  0  0  0
 20 21  1  0  0  0  0
 21 13  1  0  0  0  0
 21 25  1  0  0  0  0
 22 26  1  0  0  0  0
 23 22  1  0  0  0  0
 24 19  1  0  0  0  0
 27 28  1  0  0  0  0
 27 31  1  0  0  0  0
 29 27  1  0  0  0  0
 30 31  2  0  0  0  0
 30 38  1  0  0  0  0
 31 32  1  0  0  0  0
 32 40  1  0  0  0  0
 32 33  2  0  0  0  0
 33 34  1  0  0  0  0
 34 41  1  0  0  0  0
 34 35  1  0  0  0  0
 35 42  1  0  0  0  0
 36 43  1  0  0  0  0
 36 35  2  0  0  0  0
 37 33  1  0  0  0  0
 37 36  1  0  0  0  0
 38 37  2  0  0  0  0
 39 30  1  0  0  0  0
 44 38  1  0  0  0  0
 44 46  1  0  0  0  0
 45 44  2  0  0  0  0
M  END
>  <minimizedAffinity>
-7.18223238

$$$$

 OpenBabel03252506303D

 46 49  0  0  0  0  0  0  0  0999 V2000
   36.7850   29.2940   38.0120 C   0  0  0  0  0  0  0  0  0  0  0  0
   37.6940   28.6620   37.9380 H   0  0  0  0  0  0  0  0  0  0  0  0
   36.4070   29.5380   37.0220 H   0  0  0  0  0  0  0  0  0  0  0  0
   38.2400   32.2440   39.4020 C   0  0  0  0  0  0  0  0  0  0  0  0
   37.0250   32.1510   40.1250 C   0  0  0  0  0  0  0  0  0  0  0  0
   36.3580   31.0620   39.6970 C   0  0  0  0  0  0  0  0  0  0  0  0
   37.1230   30.5000   38.7500 N   0  0  0  0  0  0  0  0  0  0  0  0
   38.2460   31.1980   38.5690 N   0  0  0  0  0  0  0  0  0  0  0  0
   36.6330   32.8160   40.9100 H   0  0  0  0  0  0  0  0  0  0  0  0
   35.3840   30.6880   40.0380 H   0  0  0  0  0  0  0  0  0  0  0  0
   39.6890   35.4730   40.2800 C   0  0  0  0  0  0  0  0  0  0  0  0
   41.0370   35.3320   39.9870 C   0  0  0  0  0  0  0  0  0  0  0  0
   41.4430   34.0940   39.4770 C   0  0  0  0  0  0  0  0  0  0  0  0
   40.5080   33.1380   39.3080 N   0  0  0  0  0  0  0  0  0  0  0  0
   39.2170   33.2930   39.5960 C   0  0  0  0  0  0  0  0  0  0  0  0
   38.8130   34.4860   40.0900 N   0  0  0  0  0  0  0  0  0  0  0  0
   39.3970   36.4380   40.6730 H   0  0  0  0  0  0  0  0  0  0  0  0
   41.8150   36.0750   40.1080 H   0  0  0  0  0  0  0  0  0  0  0  0
   42.6050   34.3600   36.8980 N   0  0  0  0  0  0  0  0  0  0  0  0
   43.4150   34.3090   37.9250 C   0  0  0  0  0  0  0  0  0  0  0  0
   42.8040   33.8060   39.1300 N   0  0  0  0  0  0  0  0  0  0  0  0
   44.8060   34.6720   38.0400 N   0  0  0  0  0  0  0  0  0  0  0  0
   44.9520   35.5990   37.5720 H   0  0  0  0  0  0  0  0  0  0  0  0
   42.9130   34.7050   35.9540 H   0  0  0  0  0  0  0  0  0  0  0  0
   43.3400   33.1970   39.8160 H   0  0  0  0  0  0  0  0  0  0  0  0
   45.4120   33.9680   38.5570 H   0  0  0  0  0  0  0  0  0  0  0  0
   35.7630   28.5030   38.7530 C   0  0  0  0  0  0  0  0  0  0  0  0
   35.0680   29.2120   39.2510 H   0  0  0  0  0  0  0  0  0  0  0  0
   35.1380   27.9650   37.9890 H   0  0  0  0  0  0  0  0  0  0  0  0
   36.5750   27.7930   41.0790 C   0  0  0  0  0  0  0  0  0  0  0  0
   36.2600   27.5690   39.7630 C   0  0  0  0  0  0  0  0  0  0  0  0
   36.4360   26.2580   39.3030 C   0  0  0  0  0  0  0  0  0  0  0  0
   36.8940   25.2630   40.1190 C   0  0  0  0  0  0  0  0  0  0  0  0
   37.1520   23.9460   39.9540 N   0  0  0  0  0  0  0  0  0  0  0  0
   37.5980   23.3950   41.0960 C   0  0  0  0  0  0  0  0  0  0  0  0
   37.6420   24.3720   42.0710 C   0  0  0  0  0  0  0  0  0  0  0  0
   37.2010   25.5030   41.4260 C   0  0  0  0  0  0  0  0  0  0  0  0
   37.0320   26.7880   41.8890 C   0  0  0  0  0  0  0  0  0  0  0  0
   36.4260   28.8200   41.3990 H   0  0  0  0  0  0  0  0  0  0  0  0
   36.2260   25.9450   38.2890 H   0  0  0  0  0  0  0  0  0  0  0  0
   37.0250   23.4180   39.0580 H   0  0  0  0  0  0  0  0  0  0  0  0
   37.8710   22.3540   41.2110 H   0  0  0  0  0  0  0  0  0  0  0  0
   37.9660   24.2020   43.0930 H   0  0  0  0  0  0  0  0  0  0  0  0
   37.3500   27.0960   43.2860 C   0  0  0  0  0  0  0  0  0  0  0  0
   38.5100   27.4600   43.6340 O   0  0  0  0  0  0  0  0  0  0  0  0
   36.6020   27.0200   44.0640 H   0  0  0  0  0  0  0  0  0  0  0  0
  1  7  1  0  0  0  0
  1 27  1  0  0  0  0
  2  1  1  0  0  0  0
  3  1  1  0  0  0  0
  4 15  1  0  0  0  0
  4  5  1  0  0  0  0
  5  9  1  0  0  0  0
  6 10  1  0  0  0  0
  6  5  2  0  0  0  0
  7  6  1  0  0  0  0
  8  7  1  0  0  0  0
  8  4  2  0  0  0  0
 11 17  1  0  0  0  0
 12 18  1  0  0  0  0
 12 11  2  0  0  0  0
 13 12  1  0  0  0  0
 14 13  2  0  0  0  0
 14 15  1  0  0  0  0
 15 16  2  0  0  0  0
 16 11  1  0  0  0  0
 19 20  2  0  0  0  0
 20 22  1  0  0  0  0
 20 21  1  0  0  0  0
 21 13  1  0  0  0  0
 21 25  1  0  0  0  0
 22 26  1  0  0  0  0
 23 22  1  0  0  0  0
 24 19  1  0  0  0  0
 27 28  1  0  0  0  0
 27 31  1  0  0  0  0
 29 27  1  0  0  0  0
 30 39  1  0  0  0  0
 30 38  1  0  0  0  0
 31 30  2  0  0  0  0
 32 31  1  0  0  0  0
 32 33  2  0  0  0  0
 33 37  1  0  0  0  0
 34 33  1  0  0  0  0
 34 35  1  0  0  0  0
 35 42  1  0  0  0  0
 35 36  2  0  0  0  0
 36 43  1  0  0  0  0
 37 38  2  0  0  0  0
 37 36  1  0  0  0  0
 38 44  1  0  0  0  0
 40 32  1  0  0  0  0
 41 34  1  0  0  0  0
 44 45  2  0  0  0  0
 44 46  1  0  0  0  0
M  END
>  <minimizedAffinity>
-7.08933687

$$$$

 OpenBabel03252506303D

 46 49  0  0  0  0  0  0  0  0999 V2000
   36.4890   29.1230   37.4790 C   0  0  0  0  0  0  0  0  0  0  0  0
   37.1410   28.2310   37.3700 H   0  0  0  0  0  0  0  0  0  0  0  0
   35.9260   29.2980   36.5650 H   0  0  0  0  0  0  0  0  0  0  0  0
   39.0910   31.5190   37.9610 C   0  0  0  0  0  0  0  0  0  0  0  0
   37.9720   32.1910   38.5110 C   0  0  0  0  0  0  0  0  0  0  0  0
   36.8960   31.3890   38.3950 C   0  0  0  0  0  0  0  0  0  0  0  0
   37.3260   30.2670   37.8000 N   0  0  0  0  0  0  0  0  0  0  0  0
   38.6320   30.3370   37.5380 N   0  0  0  0  0  0  0  0  0  0  0  0
   37.9200   33.1920   38.9670 H   0  0  0  0  0  0  0  0  0  0  0  0
   35.8660   31.5900   38.7160 H   0  0  0  0  0  0  0  0  0  0  0  0
   42.5710   32.0310   36.9970 C   0  0  0  0  0  0  0  0  0  0  0  0
   42.9830   33.1050   37.7710 C   0  0  0  0  0  0  0  0  0  0  0  0
   42.0350   33.6550   38.6400 C   0  0  0  0  0  0  0  0  0  0  0  0
   40.8030   33.1110   38.6630 N   0  0  0  0  0  0  0  0  0  0  0  0
   40.4250   32.0790   37.9100 C   0  0  0  0  0  0  0  0  0  0  0  0
   41.3340   31.5380   37.0660 N   0  0  0  0  0  0  0  0  0  0  0  0
   43.3210   31.6220   36.3330 H   0  0  0  0  0  0  0  0  0  0  0  0
   43.9630   33.5670   37.7800 H   0  0  0  0  0  0  0  0  0  0  0  0
   41.7390   33.7060   41.4650 N   0  0  0  0  0  0  0  0  0  0  0  0
   42.5100   34.6130   40.9200 C   0  0  0  0  0  0  0  0  0  0  0  0
   42.3220   34.7660   39.5000 N   0  0  0  0  0  0  0  0  0  0  0  0
   43.5060   35.4740   41.5100 N   0  0  0  0  0  0  0  0  0  0  0  0
   44.1020   34.9040   42.1570 H   0  0  0  0  0  0  0  0  0  0  0  0
   41.7670   33.4870   42.4930 H   0  0  0  0  0  0  0  0  0  0  0  0
   42.3890   35.7150   39.0260 H   0  0  0  0  0  0  0  0  0  0  0  0
   43.4630   36.4890   41.1980 H   0  0  0  0  0  0  0  0  0  0  0  0
   35.5460   28.8390   38.5960 C   0  0  0  0  0  0  0  0  0  0  0  0
   35.0960   29.8000   38.9240 H   0  0  0  0  0  0  0  0  0  0  0  0
   34.6930   28.2430   38.1710 H   0  0  0  0  0  0  0  0  0  0  0  0
   36.5720   26.8920   39.9120 C   0  0  0  0  0  0  0  0  0  0  0  0
   36.1030   28.1740   39.7740 C   0  0  0  0  0  0  0  0  0  0  0  0
   36.1590   28.9770   40.9200 C   0  0  0  0  0  0  0  0  0  0  0  0
   36.6520   28.5080   42.1060 C   0  0  0  0  0  0  0  0  0  0  0  0
   36.8230   29.0400   43.3370 N   0  0  0  0  0  0  0  0  0  0  0  0
   37.3620   28.1420   44.1790 C   0  0  0  0  0  0  0  0  0  0  0  0
   37.5650   26.9600   43.4950 C   0  0  0  0  0  0  0  0  0  0  0  0
   37.1150   27.2310   42.2250 C   0  0  0  0  0  0  0  0  0  0  0  0
   37.0640   26.4330   41.1050 C   0  0  0  0  0  0  0  0  0  0  0  0
   36.5130   26.3020   39.0030 H   0  0  0  0  0  0  0  0  0  0  0  0
   35.8230   30.0040   40.9500 H   0  0  0  0  0  0  0  0  0  0  0  0
   36.5700   30.0200   43.6060 H   0  0  0  0  0  0  0  0  0  0  0  0
   37.5920   28.3350   45.2190 H   0  0  0  0  0  0  0  0  0  0  0  0
   37.9910   26.0640   43.9350 H   0  0  0  0  0  0  0  0  0  0  0  0
   37.5500   25.0530   41.1840 C   0  0  0  0  0  0  0  0  0  0  0  0
   36.8050   24.1140   41.5880 O   0  0  0  0  0  0  0  0  0  0  0  0
   38.5610   24.7930   40.9000 H   0  0  0  0  0  0  0  0  0  0  0  0
  1  7  1  0  0  0  0
  1 27  1  0  0  0  0
  2  1  1  0  0  0  0
  3  1  1  0  0  0  0
  4  5  1  0  0  0  0
  5  9  1  0  0  0  0
  6  5  2  0  0  0  0
  6 10  1  0  0  0  0
  7  6  1  0  0  0  0
  8  7  1  0  0  0  0
  8  4  2  0  0  0  0
 11 16  2  0  0  0  0
 11 12  1  0  0  0  0
 12 18  1  0  0  0  0
 12 13  2  0  0  0  0
 13 14  1  0  0  0  0
 13 21  1  0  0  0  0
 15  4  1  0  0  0  0
 15 14  2  0  0  0  0
 16 15  1  0  0  0  0
 17 11  1  0  0  0  0
 19 24  1  0  0  0  0
 20 19  2  0  0  0  0
 20 22  1  0  0  0  0
 21 20  1  0  0  0  0
 22 23  1  0  0  0  0
 25 21  1  0  0  0  0
 26 22  1  0  0  0  0
 27 28  1  0  0  0  0
 27 31  1  0  0  0  0
 29 27  1  0  0  0  0
 30 38  1  0  0  0  0
 31 30  2  0  0  0  0
 31 32  1  0  0  0  0
 32 40  1  0  0  0  0
 32 33  2  0  0  0  0
 33 37  1  0  0  0  0
 33 34  1  0  0  0  0
 34 41  1  0  0  0  0
 34 35  1  0  0  0  0
 35 42  1  0  0  0  0
 36 43  1  0  0  0  0
 36 35  2  0  0  0  0
 37 36  1  0  0  0  0
 38 44  1  0  0  0  0
 38 37  2  0  0  0  0
 39 30  1  0  0  0  0
 44 45  2  0  0  0  0
 46 44  1  0  0  0  0
M  END
>  <minimizedAffinity>
-6.71182442

$$$$

 OpenBabel03252506303D

 46 49  0  0  0  0  0  0  0  0999 V2000
   36.4230   30.6330   39.4570 C   0  0  0  0  0  0  0  0  0  0  0  0
   35.9630   31.3090   38.7080 H   0  0  0  0  0  0  0  0  0  0  0  0
   36.0370   30.8450   40.4520 H   0  0  0  0  0  0  0  0  0  0  0  0
   39.8930   30.8260   38.6370 C   0  0  0  0  0  0  0  0  0  0  0  0
   39.8870   31.2690   39.9830 C   0  0  0  0  0  0  0  0  0  0  0  0
   38.6180   31.2480   40.4320 C   0  0  0  0  0  0  0  0  0  0  0  0
   37.8650   30.8100   39.4120 N   0  0  0  0  0  0  0  0  0  0  0  0
   38.6180   30.5570   38.3400 N   0  0  0  0  0  0  0  0  0  0  0  0
   40.7340   31.5890   40.6110 H   0  0  0  0  0  0  0  0  0  0  0  0
   38.2480   31.5260   41.4280 H   0  0  0  0  0  0  0  0  0  0  0  0
   42.3370   29.5060   36.2740 C   0  0  0  0  0  0  0  0  0  0  0  0
   43.3440   30.4590   36.2600 C   0  0  0  0  0  0  0  0  0  0  0  0
   43.1670   31.5730   37.0860 C   0  0  0  0  0  0  0  0  0  0  0  0
   42.0450   31.6440   37.8280 N   0  0  0  0  0  0  0  0  0  0  0  0
   41.0870   30.7180   37.8270 C   0  0  0  0  0  0  0  0  0  0  0  0
   41.2470   29.6350   37.0320 N   0  0  0  0  0  0  0  0  0  0  0  0
   42.4940   28.6530   35.6280 H   0  0  0  0  0  0  0  0  0  0  0  0
   44.2580   30.4360   35.6790 H   0  0  0  0  0  0  0  0  0  0  0  0
   42.6210   34.3490   36.8310 N   0  0  0  0  0  0  0  0  0  0  0  0
   43.7430   34.0040   37.4100 C   0  0  0  0  0  0  0  0  0  0  0  0
   44.1270   32.6350   37.1730 N   0  0  0  0  0  0  0  0  0  0  0  0
   44.6450   34.7680   38.2360 N   0  0  0  0  0  0  0  0  0  0  0  0
   44.0840   35.3060   38.9390 H   0  0  0  0  0  0  0  0  0  0  0  0
   42.2180   35.3170   36.9160 H   0  0  0  0  0  0  0  0  0  0  0  0
   45.1450   32.3530   37.0530 H   0  0  0  0  0  0  0  0  0  0  0  0
   45.6750   34.6550   37.9990 H   0  0  0  0  0  0  0  0  0  0  0  0
   36.0600   29.2420   39.0700 C   0  0  0  0  0  0  0  0  0  0  0  0
   34.9660   29.2070   38.8800 H   0  0  0  0  0  0  0  0  0  0  0  0
   36.5390   29.0350   38.0740 H   0  0  0  0  0  0  0  0  0  0  0  0
   36.5630   28.2650   41.3870 C   0  0  0  0  0  0  0  0  0  0  0  0
   36.3870   28.1860   40.0290 C   0  0  0  0  0  0  0  0  0  0  0  0
   36.5390   26.9150   39.4610 C   0  0  0  0  0  0  0  0  0  0  0  0
   36.8460   25.8190   40.2170 C   0  0  0  0  0  0  0  0  0  0  0  0
   37.0470   24.5090   39.9490 N   0  0  0  0  0  0  0  0  0  0  0  0
   37.3300   23.8260   41.0720 C   0  0  0  0  0  0  0  0  0  0  0  0
   37.3190   24.7020   42.1390 C   0  0  0  0  0  0  0  0  0  0  0  0
   37.0170   25.9150   41.5670 C   0  0  0  0  0  0  0  0  0  0  0  0
   36.8700   27.1600   42.1360 C   0  0  0  0  0  0  0  0  0  0  0  0
   36.4370   29.2650   41.7900 H   0  0  0  0  0  0  0  0  0  0  0  0
   36.4280   26.7130   38.4040 H   0  0  0  0  0  0  0  0  0  0  0  0
   36.9920   24.0770   38.9970 H   0  0  0  0  0  0  0  0  0  0  0  0
   37.5290   22.7630   41.1110 H   0  0  0  0  0  0  0  0  0  0  0  0
   37.5160   24.4170   43.1670 H   0  0  0  0  0  0  0  0  0  0  0  0
   37.0450   27.3140   43.5830 C   0  0  0  0  0  0  0  0  0  0  0  0
   36.0590   27.5220   44.3470 O   0  0  0  0  0  0  0  0  0  0  0  0
   38.0220   27.2550   44.0420 H   0  0  0  0  0  0  0  0  0  0  0  0
  1  3  1  0  0  0  0
  2  1  1  0  0  0  0
  4  5  1  0  0  0  0
  5  6  2  0  0  0  0
  5  9  1  0  0  0  0
  6 10  1  0  0  0  0
  7  1  1  0  0  0  0
  7  6  1  0  0  0  0
  8  4  2  0  0  0  0
  8  7  1  0  0  0  0
 11 16  1  0  0  0  0
 12 11  2  0  0  0  0
 12 13  1  0  0  0  0
 13 21  1  0  0  0  0
 13 14  2  0  0  0  0
 15 14  1  0  0  0  0
 15  4  1  0  0  0  0
 16 15  2  0  0  0  0
 17 11  1  0  0  0  0
 18 12  1  0  0  0  0
 19 24  1  0  0  0  0
 19 20  2  0  0  0  0
 20 22  1  0  0  0  0
 21 20  1  0  0  0  0
 22 23  1  0  0  0  0
 25 21  1  0  0  0  0
 26 22  1  0  0  0  0
 27  1  1  0  0  0  0
 27 31  1  0  0  0  0
 28 27  1  0  0  0  0
 29 27  1  0  0  0  0
 30 39  1  0  0  0  0
 30 38  1  0  0  0  0
 31 30  2  0  0  0  0
 32 31  1  0  0  0  0
 32 33  2  0  0  0  0
 33 37  1  0  0  0  0
 34 33  1  0  0  0  0
 34 35  1  0  0  0  0
 35 42  1  0  0  0  0
 35 36  2  0  0  0  0
 36 43  1  0  0  0  0
 37 38  2  0  0  0  0
 37 36  1  0  0  0  0
 38 44  1  0  0  0  0
 40 32  1  0  0  0  0
 41 34  1  0  0  0  0
 44 46  1  0  0  0  0
 44 45  2  0  0  0  0
M  END
>  <minimizedAffinity>
-6.56813097

$$$$

 OpenBabel03252506303D

 46 49  0  0  0  0  0  0  0  0999 V2000
   37.4210   32.6280   39.9900 C   0  0  0  0  0  0  0  0  0  0  0  0
   36.6900   33.1120   39.3110 H   0  0  0  0  0  0  0  0  0  0  0  0
   36.9730   32.4450   40.9650 H   0  0  0  0  0  0  0  0  0  0  0  0
   40.6600   34.1030   40.2640 C   0  0  0  0  0  0  0  0  0  0  0  0
   39.8200   35.2430   40.2780 C   0  0  0  0  0  0  0  0  0  0  0  0
   38.5410   34.8300   40.1800 C   0  0  0  0  0  0  0  0  0  0  0  0
   38.5830   33.4920   40.1080 N   0  0  0  0  0  0  0  0  0  0  0  0
   39.8420   33.0520   40.1570 N   0  0  0  0  0  0  0  0  0  0  0  0
   40.0950   36.3070   40.3540 H   0  0  0  0  0  0  0  0  0  0  0  0
   37.6320   35.4440   40.1610 H   0  0  0  0  0  0  0  0  0  0  0  0
   44.0020   34.7240   41.5860 C   0  0  0  0  0  0  0  0  0  0  0  0
   44.8510   34.2990   40.5760 C   0  0  0  0  0  0  0  0  0  0  0  0
   44.2490   33.7910   39.4210 C   0  0  0  0  0  0  0  0  0  0  0  0
   42.9030   33.7500   39.3700 N   0  0  0  0  0  0  0  0  0  0  0  0
   42.1030   34.1630   40.3520 C   0  0  0  0  0  0  0  0  0  0  0  0
   42.6750   34.6570   41.4750 N   0  0  0  0  0  0  0  0  0  0  0  0
   44.4890   35.1140   42.4700 H   0  0  0  0  0  0  0  0  0  0  0  0
   45.9340   34.3170   40.5810 H   0  0  0  0  0  0  0  0  0  0  0  0
   44.3660   31.1080   38.4950 N   0  0  0  0  0  0  0  0  0  0  0  0
   44.7290   32.0510   37.6640 C   0  0  0  0  0  0  0  0  0  0  0  0
   45.0030   33.3160   38.2970 N   0  0  0  0  0  0  0  0  0  0  0  0
   44.8980   32.0250   36.2320 N   0  0  0  0  0  0  0  0  0  0  0  0
   44.0770   31.5310   35.8050 H   0  0  0  0  0  0  0  0  0  0  0  0
   44.1350   30.1330   38.1750 H   0  0  0  0  0  0  0  0  0  0  0  0
   45.7800   33.9550   37.9550 H   0  0  0  0  0  0  0  0  0  0  0  0
   45.7850   32.4900   35.8760 H   0  0  0  0  0  0  0  0  0  0  0  0
   37.8010   31.3290   39.3680 C   0  0  0  0  0  0  0  0  0  0  0  0
   37.2760   31.2420   38.3940 H   0  0  0  0  0  0  0  0  0  0  0  0
   38.8940   31.3880   39.1100 H   0  0  0  0  0  0  0  0  0  0  0  0
   37.2390   28.8510   39.7090 C   0  0  0  0  0  0  0  0  0  0  0  0
   37.5200   30.1210   40.1440 C   0  0  0  0  0  0  0  0  0  0  0  0
   37.5450   30.3050   41.5320 C   0  0  0  0  0  0  0  0  0  0  0  0
   37.3030   29.2780   42.4000 C   0  0  0  0  0  0  0  0  0  0  0  0
   37.2620   29.1660   43.7470 N   0  0  0  0  0  0  0  0  0  0  0  0
   36.9740   27.9070   44.1170 C   0  0  0  0  0  0  0  0  0  0  0  0
   36.8140   27.1370   42.9820 C   0  0  0  0  0  0  0  0  0  0  0  0
   37.0250   28.0210   41.9510 C   0  0  0  0  0  0  0  0  0  0  0  0
   36.9980   27.8290   40.5880 C   0  0  0  0  0  0  0  0  0  0  0  0
   37.2280   28.7470   38.6290 H   0  0  0  0  0  0  0  0  0  0  0  0
   37.7540   31.2540   42.0080 H   0  0  0  0  0  0  0  0  0  0  0  0
   37.4320   29.9520   44.4190 H   0  0  0  0  0  0  0  0  0  0  0  0
   36.8860   27.5720   45.1430 H   0  0  0  0  0  0  0  0  0  0  0  0
   36.5750   26.0780   42.9900 H   0  0  0  0  0  0  0  0  0  0  0  0
   36.7030   26.4950   40.0570 C   0  0  0  0  0  0  0  0  0  0  0  0
   37.6170   25.6360   39.8890 O   0  0  0  0  0  0  0  0  0  0  0  0
   35.6960   26.2030   39.7920 H   0  0  0  0  0  0  0  0  0  0  0  0
  1  7  1  0  0  0  0
  1  3  1  0  0  0  0
  2  1  1  0  0  0  0
  4  5  1  0  0  0  0
  4 15  1  0  0  0  0
  5  9  1  0  0  0  0
  6  5  2  0  0  0  0
  7  8  1  0  0  0  0
  7  6  1  0  0  0  0
  8  4  2  0  0  0  0
 10  6  1  0  0  0  0
 11 17  1  0  0  0  0
 12 18  1  0  0  0  0
 12 11  2  0  0  0  0
 13 12  1  0  0  0  0
 14 13  2  0  0  0  0
 14 15  1  0  0  0  0
 15 16  2  0  0  0  0
 16 11  1  0  0  0  0
 20 21  1  0  0  0  0
 20 19  2  0  0  0  0
 21 13  1  0  0  0  0
 22 20  1  0  0  0  0
 23 22  1  0  0  0  0
 24 19  1  0  0  0  0
 25 21  1  0  0  0  0
 26 22  1  0  0  0  0
 27  1  1  0  0  0  0
 27 31  1  0  0  0  0
 28 27  1  0  0  0  0
 29 27  1  0  0  0  0
 30 31  2  0  0  0  0
 30 38  1  0  0  0  0
 31 32  1  0  0  0  0
 32 40  1  0  0  0  0
 32 33  2  0  0  0  0
 33 34  1  0  0  0  0
 34 35  1  0  0  0  0
 34 41  1  0  0  0  0
 35 42  1  0  0  0  0
 36 43  1  0  0  0  0
 36 35  2  0  0  0  0
 37 33  1  0  0  0  0
 37 36  1  0  0  0  0
 38 37  2  0  0  0  0
 39 30  1  0  0  0  0
 44 38  1  0  0  0  0
 45 44  2  0  0  0  0
 46 44  1  0  0  0  0
M  END
>  <minimizedAffinity>
-6.56676483

$$$$

 OpenBabel03252506303D

 46 49  0  0  0  0  0  0  0  0999 V2000
   37.2720   30.7410   37.8470 C   0  0  0  0  0  0  0  0  0  0  0  0
   37.8030   29.7850   37.6630 H   0  0  0  0  0  0  0  0  0  0  0  0
   36.8400   31.1220   36.9240 H   0  0  0  0  0  0  0  0  0  0  0  0
   40.0920   32.7220   38.7810 C   0  0  0  0  0  0  0  0  0  0  0  0
   39.0590   33.3010   39.5590 C   0  0  0  0  0  0  0  0  0  0  0  0
   37.9130   32.6410   39.3030 C   0  0  0  0  0  0  0  0  0  0  0  0
   38.2180   31.6920   38.4060 N   0  0  0  0  0  0  0  0  0  0  0  0
   39.5140   31.7340   38.0910 N   0  0  0  0  0  0  0  0  0  0  0  0
   39.1130   34.1430   40.2670 H   0  0  0  0  0  0  0  0  0  0  0  0
   36.9180   32.8230   39.7300 H   0  0  0  0  0  0  0  0  0  0  0  0
   43.2600   34.1330   37.6540 C   0  0  0  0  0  0  0  0  0  0  0  0
   44.0810   34.0560   38.7680 C   0  0  0  0  0  0  0  0  0  0  0  0
   43.5220   33.5050   39.9250 C   0  0  0  0  0  0  0  0  0  0  0  0
   42.2400   33.0930   39.8780 N   0  0  0  0  0  0  0  0  0  0  0  0
   41.4660   33.1750   38.7970 C   0  0  0  0  0  0  0  0  0  0  0  0
   41.9970   33.7060   37.6710 N   0  0  0  0  0  0  0  0  0  0  0  0
   43.7140   34.5620   36.7700 H   0  0  0  0  0  0  0  0  0  0  0  0
   45.1140   34.3760   38.8440 H   0  0  0  0  0  0  0  0  0  0  0  0
   42.9240   34.7820   42.3910 N   0  0  0  0  0  0  0  0  0  0  0  0
   43.6960   33.7250   42.4280 C   0  0  0  0  0  0  0  0  0  0  0  0
   44.2540   33.3630   41.1500 N   0  0  0  0  0  0  0  0  0  0  0  0
   44.0720   32.8780   43.5330 N   0  0  0  0  0  0  0  0  0  0  0  0
   43.2160   32.6590   44.0960 H   0  0  0  0  0  0  0  0  0  0  0  0
   42.4480   35.1620   43.2490 H   0  0  0  0  0  0  0  0  0  0  0  0
   45.2380   32.9720   41.0610 H   0  0  0  0  0  0  0  0  0  0  0  0
   45.1060   32.6340   43.5790 H   0  0  0  0  0  0  0  0  0  0  0  0
   36.1850   30.4550   38.8230 C   0  0  0  0  0  0  0  0  0  0  0  0
   35.9650   31.3890   39.3830 H   0  0  0  0  0  0  0  0  0  0  0  0
   35.2520   30.2380   38.2320 H   0  0  0  0  0  0  0  0  0  0  0  0
   36.5360   28.0370   39.6010 C   0  0  0  0  0  0  0  0  0  0  0  0
   36.4370   29.3920   39.7960 C   0  0  0  0  0  0  0  0  0  0  0  0
   36.5990   29.8380   41.1130 C   0  0  0  0  0  0  0  0  0  0  0  0
   36.8410   28.9730   42.1430 C   0  0  0  0  0  0  0  0  0  0  0  0
   37.0350   29.1150   43.4740 N   0  0  0  0  0  0  0  0  0  0  0  0
   37.2390   27.9240   44.0600 C   0  0  0  0  0  0  0  0  0  0  0  0
   37.1830   26.9390   43.0940 C   0  0  0  0  0  0  0  0  0  0  0  0
   36.9370   27.6290   41.9320 C   0  0  0  0  0  0  0  0  0  0  0  0
   36.7790   27.1800   40.6410 C   0  0  0  0  0  0  0  0  0  0  0  0
   36.4050   27.7300   38.5680 H   0  0  0  0  0  0  0  0  0  0  0  0
   36.5460   30.8780   41.4050 H   0  0  0  0  0  0  0  0  0  0  0  0
   37.0270   30.0290   43.9860 H   0  0  0  0  0  0  0  0  0  0  0  0
   37.4170   27.7810   45.1180 H   0  0  0  0  0  0  0  0  0  0  0  0
   37.3150   25.8800   43.2920 H   0  0  0  0  0  0  0  0  0  0  0  0
   36.8730   25.7430   40.3640 C   0  0  0  0  0  0  0  0  0  0  0  0
   37.9910   25.1760   40.1950 O   0  0  0  0  0  0  0  0  0  0  0  0
   35.9900   25.1240   40.2940 H   0  0  0  0  0  0  0  0  0  0  0  0
  1  7  1  0  0  0  0
  1 27  1  0  0  0  0
  2  1  1  0  0  0  0
  3  1  1  0  0  0  0
  4 15  1  0  0  0  0
  4  5  1  0  0  0  0
  5  9  1  0  0  0  0
  6  5  2  0  0  0  0
  6 10  1  0  0  0  0
  7  6  1  0  0  0  0
  8  7  1  0  0  0  0
  8  4  2  0  0  0  0
 11 16  2  0  0  0  0
 11 12  1  0  0  0  0
 12 18  1  0  0  0  0
 12 13  2  0  0  0  0
 13 21  1  0  0  0  0
 14 13  1  0  0  0  0
 15 14  2  0  0  0  0
 16 15  1  0  0  0  0
 17 11  1  0  0  0  0
 19 20  2  0  0  0  0
 19 24  1  0  0  0  0
 20 22  1  0  0  0  0
 21 20  1  0  0  0  0
 22 26  1  0  0  0  0
 22 23  1  0  0  0  0
 25 21  1  0  0  0  0
 27 28  1  0  0  0  0
 27 31  1  0  0  0  0
 29 27  1  0  0  0  0
 30 31  2  0  0  0  0
 30 38  1  0  0  0  0
 31 32  1  0  0  0  0
 32 40  1  0  0  0  0
 32 33  2  0  0  0  0
 33 34  1  0  0  0  0
 34 41  1  0  0  0  0
 34 35  1  0  0  0  0
 35 42  1  0  0  0  0
 36 43  1  0  0  0  0
 36 35  2  0  0  0  0
 37 33  1  0  0  0  0
 37 36  1  0  0  0  0
 38 37  2  0  0  0  0
 39 30  1  0  0  0  0
 44 38  1  0  0  0  0
 45 44  2  0  0  0  0
 46 44  1  0  0  0  0
M  END
>  <minimizedAffinity>
-6.47847462

$$$$

 OpenBabel03252506303D

 46 49  0  0  0  0  0  0  0  0999 V2000
   36.3960   29.7940   37.5980 C   0  0  0  0  0  0  0  0  0  0  0  0
   36.9920   28.8890   37.3630 H   0  0  0  0  0  0  0  0  0  0  0  0
   35.8210   30.1100   36.7300 H   0  0  0  0  0  0  0  0  0  0  0  0
   39.1330   31.9930   38.2480 C   0  0  0  0  0  0  0  0  0  0  0  0
   38.0850   32.6110   38.9730 C   0  0  0  0  0  0  0  0  0  0  0  0
   36.9680   31.8760   38.8170 C   0  0  0  0  0  0  0  0  0  0  0  0
   37.3040   30.8450   38.0280 N   0  0  0  0  0  0  0  0  0  0  0  0
   38.5920   30.9080   37.6850 N   0  0  0  0  0  0  0  0  0  0  0  0
   38.1100   33.5310   39.5800 H   0  0  0  0  0  0  0  0  0  0  0  0
   35.9710   32.0610   39.2390 H   0  0  0  0  0  0  0  0  0  0  0  0
   42.0620   34.0570   38.9240 C   0  0  0  0  0  0  0  0  0  0  0  0
   43.0480   33.5250   38.1090 C   0  0  0  0  0  0  0  0  0  0  0  0
   42.6850   32.4330   37.3130 C   0  0  0  0  0  0  0  0  0  0  0  0
   41.4190   31.9810   37.3940 N   0  0  0  0  0  0  0  0  0  0  0  0
   40.4840   32.5050   38.1860 C   0  0  0  0  0  0  0  0  0  0  0  0
   40.8240   33.5620   38.9590 N   0  0  0  0  0  0  0  0  0  0  0  0
   42.3650   34.9010   39.5310 H   0  0  0  0  0  0  0  0  0  0  0  0
   44.0740   33.8610   38.0170 H   0  0  0  0  0  0  0  0  0  0  0  0
   43.3220   29.6650   37.2930 N   0  0  0  0  0  0  0  0  0  0  0  0
   43.5960   30.3570   36.2160 C   0  0  0  0  0  0  0  0  0  0  0  0
   43.6010   31.7830   36.4220 N   0  0  0  0  0  0  0  0  0  0  0  0
   43.8890   29.9230   34.8720 N   0  0  0  0  0  0  0  0  0  0  0  0
   43.2010   29.1810   34.6000 H   0  0  0  0  0  0  0  0  0  0  0  0
   43.2840   28.6140   37.2920 H   0  0  0  0  0  0  0  0  0  0  0  0
   44.2890   32.4180   35.9180 H   0  0  0  0  0  0  0  0  0  0  0  0
   44.7150   30.4110   34.4140 H   0  0  0  0  0  0  0  0  0  0  0  0
   35.4660   29.4290   38.7030 C   0  0  0  0  0  0  0  0  0  0  0  0
   35.0780   30.3660   39.1560 H   0  0  0  0  0  0  0  0  0  0  0  0
   34.5700   28.9340   38.2370 H   0  0  0  0  0  0  0  0  0  0  0  0
   36.4010   27.2830   39.7490 C   0  0  0  0  0  0  0  0  0  0  0  0
   36.0130   28.5990   39.7760 C   0  0  0  0  0  0  0  0  0  0  0  0
   36.1550   29.2580   41.0030 C   0  0  0  0  0  0  0  0  0  0  0  0
   36.6520   28.6260   42.1080 C   0  0  0  0  0  0  0  0  0  0  0  0
   36.8940   29.0000   43.3850 N   0  0  0  0  0  0  0  0  0  0  0  0
   37.3990   27.9790   44.0980 C   0  0  0  0  0  0  0  0  0  0  0  0
   37.5040   26.8740   43.2770 C   0  0  0  0  0  0  0  0  0  0  0  0
   37.0340   27.3170   42.0640 C   0  0  0  0  0  0  0  0  0  0  0  0
   36.8980   26.6600   40.8630 C   0  0  0  0  0  0  0  0  0  0  0  0
   36.2760   26.8070   38.7820 H   0  0  0  0  0  0  0  0  0  0  0  0
   35.8880   30.2940   41.1620 H   0  0  0  0  0  0  0  0  0  0  0  0
   36.7150   29.9560   43.7730 H   0  0  0  0  0  0  0  0  0  0  0  0
   37.6720   28.0350   45.1440 H   0  0  0  0  0  0  0  0  0  0  0  0
   37.8830   25.9080   43.5960 H   0  0  0  0  0  0  0  0  0  0  0  0
   37.2940   25.2520   40.7660 C   0  0  0  0  0  0  0  0  0  0  0  0
   36.5570   24.3970   40.1950 O   0  0  0  0  0  0  0  0  0  0  0  0
   38.2290   24.9000   41.1790 H   0  0  0  0  0  0  0  0  0  0  0  0
  1  7  1  0  0  0  0
  1 27  1  0  0  0  0
  2  1  1  0  0  0  0
  3  1  1  0  0  0  0
  4  5  1  0  0  0  0
  5  9  1  0  0  0  0
  6  5  2  0  0  0  0
  6 10  1  0  0  0  0
  7  6  1  0  0  0  0
  8  7  1  0  0  0  0
  8  4  2  0  0  0  0
 11 16  1  0  0  0  0
 11 17  1  0  0  0  0
 12 11  2  0  0  0  0
 13 14  2  0  0  0  0
 13 12  1  0  0  0  0
 14 15  1  0  0  0  0
 15  4  1  0  0  0  0
 15 16  2  0  0  0  0
 18 12  1  0  0  0  0
 20 21  1  0  0  0  0
 20 19  2  0  0  0  0
 21 13  1  0  0  0  0
 22 20  1  0  0  0  0
 23 22  1  0  0  0  0
 24 19  1  0  0  0  0
 25 21  1  0  0  0  0
 26 22  1  0  0  0  0
 27 28  1  0  0  0  0
 27 31  1  0  0  0  0
 29 27  1  0  0  0  0
 30 31  2  0  0  0  0
 30 38  1  0  0  0  0
 31 32  1  0  0  0  0
 32 40  1  0  0  0  0
 32 33  2  0  0  0  0
 33 34  1  0  0  0  0
 34 41  1  0  0  0  0
 34 35  1  0  0  0  0
 35 42  1  0  0  0  0
 36 43  1  0  0  0  0
 36 35  2  0  0  0  0
 37 33  1  0  0  0  0
 37 36  1  0  0  0  0
 38 37  2  0  0  0  0
 39 30  1  0  0  0  0
 44 38  1  0  0  0  0
 44 46  1  0  0  0  0
 45 44  2  0  0  0  0
M  END
>  <minimizedAffinity>
-6.40769815

$$$$
