
 OpenBabel03252507533D

 37 39  0  0  1  0  0  0  0  0999 V2000
   46.1600   34.5810   41.6430 C   0  0  2  0  0  0  0  0  0  0  0  0
   45.1510   33.9470   40.7230 C   0  0  0  0  0  0  0  0  0  0  0  0
   46.0920   33.6220   39.5460 C   0  0  0  0  0  0  0  0  0  0  0  0
   47.4020   33.2480   40.1970 C   0  0  1  0  0  0  0  0  0  0  0  0
   47.1990   33.4540   41.6580 C   0  0  0  0  0  0  0  0  0  0  0  0
   46.5260   35.4940   41.1820 H   0  0  0  0  0  0  0  0  0  0  0  0
   44.3280   34.6110   40.4190 H   0  0  0  0  0  0  0  0  0  0  0  0
   44.8470   32.9810   41.1340 H   0  0  0  0  0  0  0  0  0  0  0  0
   45.6660   32.7480   39.0040 H   0  0  0  0  0  0  0  0  0  0  0  0
   46.2100   34.5230   38.9240 H   0  0  0  0  0  0  0  0  0  0  0  0
   48.1940   33.9080   39.8420 H   0  0  0  0  0  0  0  0  0  0  0  0
   48.0640   33.7600   42.2420 H   0  0  0  0  0  0  0  0  0  0  0  0
   46.5640   32.6930   42.1490 H   0  0  0  0  0  0  0  0  0  0  0  0
   44.5200   36.1560   44.6540 C   0  0  0  0  0  0  0  0  0  0  0  0
   44.9590   36.0140   43.3240 C   0  0  0  0  0  0  0  0  0  0  0  0
   45.6410   34.8250   43.0090 C   0  0  0  0  0  0  0  0  0  0  0  0
   45.8540   33.8590   43.9860 N   0  0  0  0  0  0  0  0  0  0  0  0
   45.4010   34.0680   45.2460 C   0  0  0  0  0  0  0  0  0  0  0  0
   44.7470   35.1950   45.5760 N   0  0  0  0  0  0  0  0  0  0  0  0
   43.9910   37.0600   44.9340 H   0  0  0  0  0  0  0  0  0  0  0  0
   44.7950   36.7600   42.5700 H   0  0  0  0  0  0  0  0  0  0  0  0
   45.6250   33.2490   45.9190 H   0  0  0  0  0  0  0  0  0  0  0  0
   47.7950   31.8170   40.0220 C   0  0  2  0  0  0  0  0  0  0  0  0
   48.1700   31.0550   41.2050 C   0  0  0  0  0  0  0  0  0  0  0  0
   49.1350   31.2970   40.0620 C   0  0  2  0  0  0  0  0  0  0  0  0
   47.0740   31.3180   39.3160 H   0  0  0  0  0  0  0  0  0  0  0  0
   47.7880   29.9870   41.2420 H   0  0  0  0  0  0  0  0  0  0  0  0
   48.6620   31.2640   42.1190 H   0  0  0  0  0  0  0  0  0  0  0  0
   49.3730   30.4200   39.3890 H   0  0  0  0  0  0  0  0  0  0  0  0
   51.7660   30.1750   40.2450 N   0  0  0  0  0  0  0  0  0  0  0  0
   51.5860   31.4690   40.2710 C   0  0  0  0  0  0  0  0  0  0  0  0
   50.3050   32.1320   40.2160 N   0  0  0  0  0  0  0  0  0  0  0  0
   52.8950   32.0040   40.3640 N   0  0  0  0  0  0  0  0  0  0  0  0
   53.6400   31.8830   39.6680 H   0  0  0  0  0  0  0  0  0  0  0  0
   50.9820   29.4900   40.1790 H   0  0  0  0  0  0  0  0  0  0  0  0
   50.5730   33.1460   40.3040 H   0  0  0  0  0  0  0  0  0  0  0  0
   53.2760   32.5870   41.1470 H   0  0  0  0  0  0  0  0  0  0  0  0
  1  6  1  6  0  0  0
  1  5  1  0  0  0  0
  1 16  1  0  0  0  0
  2  8  1  0  0  0  0
  2  1  1  0  0  0  0
  3  4  1  0  0  0  0
  3  2  1  0  0  0  0
  4 11  1  6  0  0  0
  4  5  1  0  0  0  0
  5 13  1  0  0  0  0
  5 12  1  0  0  0  0
  7  2  1  0  0  0  0
  9  3  1  0  0  0  0
 10  3  1  0  0  0  0
 14 20  1  0  0  0  0
 14 19  1  0  0  0  0
 15 14  2  0  0  0  0
 16 15  1  0  0  0  0
 16 17  2  0  0  0  0
 17 18  1  0  0  0  0
 18 19  2  0  0  0  0
 18 22  1  0  0  0  0
 21 15  1  0  0  0  0
 23 26  1  6  0  0  0
 23 25  1  0  0  0  0
 23  4  1  0  0  0  0
 23 24  1  0  0  0  0
 24 27  1  0  0  0  0
 24 28  1  0  0  0  0
 25 29  1  6  0  0  0
 25 32  1  0  0  0  0
 25 24  1  0  0  0  0
 30 31  2  0  0  0  0
 31 33  1  0  0  0  0
 32 31  1  0  0  0  0
 32 36  1  0  0  0  0
 33 37  1  0  0  0  0
 34 33  1  0  0  0  0
 35 30  1  0  0  0  0
M  END
>  <minimizedAffinity>
-4.68200445

>  <minimizedRMSD>
2.7498219

$$$$
