
 OpenBabel03242521213D

 35 37  0  0  0  0  0  0  0  0999 V2000
   45.2420   34.3710   41.9030 C   0  0  0  0  0  0  0  0  0  0  0  0
   46.1160   34.3970   40.8510 C   0  0  0  0  0  0  0  0  0  0  0  0
   47.4940   34.3980   41.0080 C   0  0  0  0  0  0  0  0  0  0  0  0
   47.9970   34.3730   42.3010 C   0  0  0  0  0  0  0  0  0  0  0  0
   47.1000   34.3470   43.3360 C   0  0  0  0  0  0  0  0  0  0  0  0
   45.7360   34.3440   43.2030 C   0  0  0  0  0  0  0  0  0  0  0  0
   45.7590   34.4180   39.8230 H   0  0  0  0  0  0  0  0  0  0  0  0
   48.1390   34.4200   40.1470 H   0  0  0  0  0  0  0  0  0  0  0  0
   49.0690   34.3740   42.4210 H   0  0  0  0  0  0  0  0  0  0  0  0
   47.5600   34.3310   44.3110 H   0  0  0  0  0  0  0  0  0  0  0  0
   41.8260   33.1610   41.3600 C   0  0  0  0  0  0  0  0  0  0  0  0
   41.1910   34.3270   41.1380 C   0  0  0  0  0  0  0  0  0  0  0  0
   41.8150   35.5490   41.1490 C   0  0  0  0  0  0  0  0  0  0  0  0
   43.1390   35.5320   41.4020 N   0  0  0  0  0  0  0  0  0  0  0  0
   43.7760   34.3710   41.6230 C   0  0  0  0  0  0  0  0  0  0  0  0
   43.1610   33.1750   41.6110 N   0  0  0  0  0  0  0  0  0  0  0  0
   40.1290   34.2970   40.9400 H   0  0  0  0  0  0  0  0  0  0  0  0
   41.2960   36.4820   40.9690 H   0  0  0  0  0  0  0  0  0  0  0  0
   40.1780   30.1180   40.1160 C   0  0  0  0  0  0  0  0  0  0  0  0
   39.8080   29.4830   41.2960 C   0  0  0  0  0  0  0  0  0  0  0  0
   40.1140   30.0820   42.5180 C   0  0  0  0  0  0  0  0  0  0  0  0
   40.7730   31.2820   42.4990 N   0  0  0  0  0  0  0  0  0  0  0  0
   41.1220   31.8770   41.3400 C   0  0  0  0  0  0  0  0  0  0  0  0
   40.8270   31.3020   40.1820 N   0  0  0  0  0  0  0  0  0  0  0  0
   39.9290   29.6340   39.1860 H   0  0  0  0  0  0  0  0  0  0  0  0
   39.2920   28.5470   41.3700 H   0  0  0  0  0  0  0  0  0  0  0  0
   39.8930   29.7110   43.5040 H   0  0  0  0  0  0  0  0  0  0  0  0
   46.2500   33.7590   45.9980 N   0  0  0  0  0  0  0  0  0  0  0  0
   45.1970   34.4590   45.6430 C   0  0  0  0  0  0  0  0  0  0  0  0
   44.8260   34.3230   44.2940 N   0  0  0  0  0  0  0  0  0  0  0  0
   44.4190   35.3230   46.5000 N   0  0  0  0  0  0  0  0  0  0  0  0
   43.3940   35.3510   46.3070 H   0  0  0  0  0  0  0  0  0  0  0  0
   46.5700   33.8210   46.9830 H   0  0  0  0  0  0  0  0  0  0  0  0
   43.7920   34.2010   44.0730 H   0  0  0  0  0  0  0  0  0  0  0  0
   45.0520   35.7970   47.2100 H   0  0  0  0  0  0  0  0  0  0  0  0
  1  6  1  0  0  0  0
  2  3  1  0  0  0  0
  2  1  2  0  0  0  0
  3  4  2  0  0  0  0
  4  9  1  0  0  0  0
  4  5  1  0  0  0  0
  5 10  1  0  0  0  0
  6  5  2  0  0  0  0
  6 30  1  0  0  0  0
  7  2  1  0  0  0  0
  8  3  1  0  0  0  0
 11 16  1  0  0  0  0
 12 13  1  0  0  0  0
 12 11  2  0  0  0  0
 13 14  2  0  0  0  0
 14 15  1  0  0  0  0
 15  1  1  0  0  0  0
 16 15  2  0  0  0  0
 17 12  1  0  0  0  0
 18 13  1  0  0  0  0
 19 24  2  0  0  0  0
 19 20  1  0  0  0  0
 20 26  1  0  0  0  0
 20 21  2  0  0  0  0
 21 27  1  0  0  0  0
 22 21  1  0  0  0  0
 23 11  1  0  0  0  0
 23 22  2  0  0  0  0
 24 23  1  0  0  0  0
 25 19  1  0  0  0  0
 28 33  1  0  0  0  0
 29 28  2  0  0  0  0
 29 31  1  0  0  0  0
 30 29  1  0  0  0  0
 31 35  1  0  0  0  0
 32 31  1  0  0  0  0
 34 30  1  0  0  0  0
M  END
>  <minimizedAffinity>
-6.32617712

>  <minimizedRMSD>
5.91923094

$$$$
