
 OpenBabel03252509193D

 42 44  0  0  1  0  0  0  0  0999 V2000
   46.7890   30.9390   47.0200 C   0  0  1  0  0  0  0  0  0  0  0  0
   47.0460   32.0300   47.9840 C   0  0  0  0  0  0  0  0  0  0  0  0
   45.9130   32.2960   48.9410 C   0  0  0  0  0  0  0  0  0  0  0  0
   45.2980   31.0520   49.5080 C   0  0  0  0  0  0  0  0  0  0  0  0
   45.1210   29.9670   48.4780 C   0  0  0  0  0  0  0  0  0  0  0  0
   45.2930   30.5520   47.0720 C   0  0  2  0  0  0  0  0  0  0  0  0
   47.3090   30.0050   47.3540 H   0  0  0  0  0  0  0  0  0  0  0  0
   47.2840   32.9670   47.4670 H   0  0  0  0  0  0  0  0  0  0  0  0
   47.9330   31.7860   48.6120 H   0  0  0  0  0  0  0  0  0  0  0  0
   46.3330   32.8630   49.7870 H   0  0  0  0  0  0  0  0  0  0  0  0
   45.1790   32.9320   48.4020 H   0  0  0  0  0  0  0  0  0  0  0  0
   44.2800   31.3220   49.8700 H   0  0  0  0  0  0  0  0  0  0  0  0
   45.8660   30.6950   50.3980 H   0  0  0  0  0  0  0  0  0  0  0  0
   44.1910   29.3880   48.5750 H   0  0  0  0  0  0  0  0  0  0  0  0
   46.0060   29.2850   48.6110 H   0  0  0  0  0  0  0  0  0  0  0  0
   44.6680   31.4620   46.9510 H   0  0  0  0  0  0  0  0  0  0  0  0
   45.0100   29.5190   46.0780 C   0  0  0  0  0  0  0  0  0  0  0  0
   45.4630   28.3560   46.1730 O   0  0  0  0  0  0  0  0  0  0  0  0
   44.5060   27.3420   44.0660 N   0  0  0  0  0  0  0  0  0  0  0  0
   44.0500   28.4840   43.9960 C   0  0  0  0  0  0  0  0  0  0  0  0
   44.2550   29.5350   44.9010 N   0  0  0  0  0  0  0  0  0  0  0  0
   43.2310   28.6430   42.8140 N   0  0  0  0  0  0  0  0  0  0  0  0
   42.3030   28.1870   42.6400 H   0  0  0  0  0  0  0  0  0  0  0  0
   45.0910   26.8740   44.7130 H   0  0  0  0  0  0  0  0  0  0  0  0
   43.7630   30.3970   44.6440 H   0  0  0  0  0  0  0  0  0  0  0  0
   43.5500   29.2550   42.0390 H   0  0  0  0  0  0  0  0  0  0  0  0
   47.7200   32.4530   43.3370 C   0  0  0  0  0  0  0  0  0  0  0  0
   48.1930   31.1550   43.5090 C   0  0  0  0  0  0  0  0  0  0  0  0
   47.9560   30.5530   44.6760 C   0  0  0  0  0  0  0  0  0  0  0  0
   47.2430   31.2220   45.6980 C   0  0  0  0  0  0  0  0  0  0  0  0
   46.8850   32.8380   44.9390 S   0  0  0  0  0  0  0  0  0  0  0  0
   48.7360   30.6500   42.7240 H   0  0  0  0  0  0  0  0  0  0  0  0
   48.2410   29.5660   44.9920 H   0  0  0  0  0  0  0  0  0  0  0  0
   48.4490   35.1300   40.8570 C   0  0  0  0  0  0  0  0  0  0  0  0
   48.0470   34.5010   39.6800 C   0  0  0  0  0  0  0  0  0  0  0  0
   47.5440   33.1980   39.7690 C   0  0  0  0  0  0  0  0  0  0  0  0
   47.4750   32.6120   41.0150 N   0  0  0  0  0  0  0  0  0  0  0  0
   47.8770   33.2660   42.1160 C   0  0  0  0  0  0  0  0  0  0  0  0
   48.3680   34.5340   42.0360 N   0  0  0  0  0  0  0  0  0  0  0  0
   48.8440   36.1220   40.8750 H   0  0  0  0  0  0  0  0  0  0  0  0
   48.1200   34.9940   38.7410 H   0  0  0  0  0  0  0  0  0  0  0  0
   47.2150   32.6480   38.9130 H   0  0  0  0  0  0  0  0  0  0  0  0
  1  6  1  0  0  0  0
  1  7  1  1  0  0  0
  1  2  1  0  0  0  0
  2  9  1  0  0  0  0
  2  3  1  0  0  0  0
  3  4  1  0  0  0  0
  3 10  1  0  0  0  0
  4 12  1  0  0  0  0
  4 13  1  0  0  0  0
  5 14  1  0  0  0  0
  5 15  1  0  0  0  0
  5  4  1  0  0  0  0
  6 16  1  6  0  0  0
  6  5  1  0  0  0  0
  8  2  1  0  0  0  0
 11  3  1  0  0  0  0
 17 18  2  0  0  0  0
 17  6  1  0  0  0  0
 19 24  1  0  0  0  0
 20 19  2  0  0  0  0
 20 21  1  0  0  0  0
 21 17  1  0  0  0  0
 22 20  1  0  0  0  0
 23 22  1  0  0  0  0
 25 21  1  0  0  0  0
 26 22  1  0  0  0  0
 27 28  2  0  0  0  0
 27 31  1  0  0  0  0
 28 29  1  0  0  0  0
 29 33  1  0  0  0  0
 29 30  2  0  0  0  0
 30  1  1  0  0  0  0
 31 30  1  0  0  0  0
 32 28  1  0  0  0  0
 34 40  1  0  0  0  0
 34 39  1  0  0  0  0
 35 36  1  0  0  0  0
 35 34  2  0  0  0  0
 36 37  2  0  0  0  0
 37 38  1  0  0  0  0
 38 27  1  0  0  0  0
 39 38  2  0  0  0  0
 41 35  1  0  0  0  0
 42 36  1  0  0  0  0
M  END
>  <minimizedAffinity>
-5.19953537

>  <minimizedRMSD>
5.7258749

$$$$
