
 OpenBabel03242523553D

 44 46  0  0  1  0  0  0  0  0999 V2000
   42.8140   34.5090   38.7470 C   0  0  1  0  0  0  0  0  0  0  0  0
   42.9630   35.1770   40.1050 C   0  0  1  0  0  0  0  0  0  0  0  0
   41.6690   35.4000   40.6280 O   0  0  0  0  0  0  0  0  0  0  0  0
   40.7400   35.7420   39.6360 C   0  0  0  0  0  0  0  0  0  0  0  0
   40.4350   34.5690   38.7270 C   0  0  2  0  0  0  0  0  0  0  0  0
   41.6460   33.5900   38.8620 C   0  0  1  0  0  0  0  0  0  0  0  0
   43.7610   33.9670   38.5550 H   0  0  0  0  0  0  0  0  0  0  0  0
   43.5350   36.1130   40.0680 H   0  0  0  0  0  0  0  0  0  0  0  0
   39.8230   35.9970   40.1640 H   0  0  0  0  0  0  0  0  0  0  0  0
   41.0350   36.6510   39.0730 H   0  0  0  0  0  0  0  0  0  0  0  0
   39.4970   34.0550   39.0140 H   0  0  0  0  0  0  0  0  0  0  0  0
   41.4360   33.3110   39.9480 H   0  0  0  0  0  0  0  0  0  0  0  0
   42.5970   35.4740   37.7440 O   0  0  0  0  0  0  0  0  0  0  0  0
   43.4440   35.6080   37.2880 H   0  0  0  0  0  0  0  0  0  0  0  0
   40.4500   34.9840   37.4040 O   0  0  0  0  0  0  0  0  0  0  0  0
   39.7270   34.5090   36.9060 H   0  0  0  0  0  0  0  0  0  0  0  0
   43.4980   34.1920   40.9440 O   0  0  0  0  0  0  0  0  0  0  0  0
   44.6010   34.3340   41.6890 C   0  0  0  0  0  0  0  0  0  0  0  0
   45.8600   34.4400   41.1000 C   0  0  0  0  0  0  0  0  0  0  0  0
   46.9760   34.5860   41.8990 C   0  0  0  0  0  0  0  0  0  0  0  0
   46.8090   34.6240   43.2750 N   0  0  0  0  0  0  0  0  0  0  0  0
   45.5750   34.5190   43.8160 C   0  0  0  0  0  0  0  0  0  0  0  0
   44.4790   34.3750   43.0270 N   0  0  0  0  0  0  0  0  0  0  0  0
   45.9630   34.4070   40.0240 H   0  0  0  0  0  0  0  0  0  0  0  0
   45.4430   34.5490   44.8970 H   0  0  0  0  0  0  0  0  0  0  0  0
   48.3580   34.6860   41.3310 C   0  0  0  0  0  0  0  0  0  0  0  0
   49.0750   36.0220   41.5090 C   0  0  0  0  0  0  0  0  0  0  0  0
   49.5040   34.7060   42.1880 C   0  0  0  0  0  0  0  0  0  0  0  0
   48.3990   34.2960   40.2910 H   0  0  0  0  0  0  0  0  0  0  0  0
   48.5650   36.7820   42.1000 H   0  0  0  0  0  0  0  0  0  0  0  0
   49.6990   36.3580   40.6840 H   0  0  0  0  0  0  0  0  0  0  0  0
   49.3580   34.7420   43.2940 H   0  0  0  0  0  0  0  0  0  0  0  0
   50.4960   34.2860   41.9260 H   0  0  0  0  0  0  0  0  0  0  0  0
   41.5170   32.6430   37.9110 O   0  0  0  0  0  0  0  0  0  0  0  0
   40.8540   31.4900   37.8840 C   0  0  0  0  0  0  0  0  0  0  0  0
   39.5930   31.4190   37.4730 O   0  0  0  0  0  0  0  0  0  0  0  0
   39.1340   29.0680   38.4000 N   0  0  0  0  0  0  0  0  0  0  0  0
   40.3600   29.0850   38.4560 C   0  0  0  0  0  0  0  0  0  0  0  0
   41.2710   30.1320   38.2470 N   0  0  0  0  0  0  0  0  0  0  0  0
   40.8600   27.7740   38.7980 N   0  0  0  0  0  0  0  0  0  0  0  0
   41.5990   27.2410   38.2900 H   0  0  0  0  0  0  0  0  0  0  0  0
   38.4300   29.7360   38.2030 H   0  0  0  0  0  0  0  0  0  0  0  0
   42.2720   29.9030   38.3480 H   0  0  0  0  0  0  0  0  0  0  0  0
   40.5960   27.1330   39.5780 H   0  0  0  0  0  0  0  0  0  0  0  0
  1  7  1  6  0  0  0
  1  6  1  0  0  0  0
  1  2  1  0  0  0  0
  2  8  1  6  0  0  0
  2  3  1  0  0  0  0
  2 17  1  0  0  0  0
  4  9  1  0  0  0  0
  4  3  1  0  0  0  0
  5  6  1  0  0  0  0
  5 11  1  1  0  0  0
  5  4  1  0  0  0  0
  6 12  1  1  0  0  0
 10  4  1  0  0  0  0
 13  1  1  0  0  0  0
 14 13  1  0  0  0  0
 15  5  1  0  0  0  0
 16 15  1  0  0  0  0
 17 18  1  0  0  0  0
 18 23  1  0  0  0  0
 19 18  2  0  0  0  0
 19 20  1  0  0  0  0
 20 21  2  0  0  0  0
 21 22  1  0  0  0  0
 22 25  1  0  0  0  0
 23 22  2  0  0  0  0
 24 19  1  0  0  0  0
 26 27  1  0  0  0  0
 26 20  1  0  0  0  0
 26 28  1  0  0  0  0
 27 30  1  0  0  0  0
 27 28  1  0  0  0  0
 28 32  1  0  0  0  0
 29 26  1  0  0  0  0
 31 27  1  0  0  0  0
 33 28  1  0  0  0  0
 34  6  1  0  0  0  0
 35 34  1  0  0  0  0
 35 39  1  0  0  0  0
 36 35  2  0  0  0  0
 37 38  2  0  0  0  0
 38 40  1  0  0  0  0
 39 43  1  0  0  0  0
 39 38  1  0  0  0  0
 40 44  1  0  0  0  0
 41 40  1  0  0  0  0
 42 37  1  0  0  0  0
M  END
>  <minimizedAffinity>
-5.88035822

>  <minimizedRMSD>
0.127519399

$$$$
