
 OpenBabel03242520453D

 21 21  0  0  0  0  0  0  0  0999 V2000
   44.9030   35.0100   44.4900 C   0  0  0  0  0  0  0  0  0  0  0  0
   45.8550   35.0320   43.4650 C   0  0  0  0  0  0  0  0  0  0  0  0
   46.9870   34.2020   43.5680 C   0  0  0  0  0  0  0  0  0  0  0  0
   47.0870   33.4270   44.6620 N   0  0  0  0  0  0  0  0  0  0  0  0
   46.1540   33.4290   45.6320 C   0  0  0  0  0  0  0  0  0  0  0  0
   45.0820   34.2150   45.5330 N   0  0  0  0  0  0  0  0  0  0  0  0
   43.7640   35.8440   44.3850 N   0  0  0  0  0  0  0  0  0  0  0  0
   45.6920   35.6860   42.6210 H   0  0  0  0  0  0  0  0  0  0  0  0
   46.3020   32.7730   46.4920 H   0  0  0  0  0  0  0  0  0  0  0  0
   44.0970   36.7180   44.8740 H   0  0  0  0  0  0  0  0  0  0  0  0
   43.1500   35.1770   43.8700 H   0  0  0  0  0  0  0  0  0  0  0  0
   47.9060   34.3050   42.4520 C   0  0  0  0  0  0  0  0  0  0  0  0
   49.0960   34.7000   42.5700 O   0  0  0  0  0  0  0  0  0  0  0  0
   48.9260   35.4670   40.1610 N   0  0  0  0  0  0  0  0  0  0  0  0
   48.0260   34.5630   39.9520 C   0  0  0  0  0  0  0  0  0  0  0  0
   47.4840   33.9500   41.1180 N   0  0  0  0  0  0  0  0  0  0  0  0
   47.4930   34.0920   38.7290 N   0  0  0  0  0  0  0  0  0  0  0  0
   47.5500   33.0370   38.6000 H   0  0  0  0  0  0  0  0  0  0  0  0
   49.3830   35.9700   39.3930 H   0  0  0  0  0  0  0  0  0  0  0  0
   46.7470   33.2060   41.0740 H   0  0  0  0  0  0  0  0  0  0  0  0
   47.0450   34.5380   37.8960 H   0  0  0  0  0  0  0  0  0  0  0  0
  1  6  1  0  0  0  0
  2  3  1  0  0  0  0
  2  1  2  0  0  0  0
  3  4  2  0  0  0  0
  4  5  1  0  0  0  0
  5  9  1  0  0  0  0
  6  5  2  0  0  0  0
  7  1  1  0  0  0  0
  7 10  1  0  0  0  0
  8  2  1  0  0  0  0
 11  7  1  0  0  0  0
 12 13  2  0  0  0  0
 12  3  1  0  0  0  0
 15 14  2  0  0  0  0
 15 16  1  0  0  0  0
 16 12  1  0  0  0  0
 17 15  1  0  0  0  0
 18 17  1  0  0  0  0
 19 14  1  0  0  0  0
 20 16  1  0  0  0  0
 21 17  1  0  0  0  0
M  END
>  <minimizedAffinity>
-5.07349777

>  <minimizedRMSD>
0.930505991

$$$$
