
 OpenBabel03242523173D

 26 27  0  0  0  0  0  0  0  0999 V2000
   46.1490   34.6060   43.7640 C   0  0  0  0  0  0  0  0  0  0  0  0
   47.2010   33.9210   43.2510 C   0  0  0  0  0  0  0  0  0  0  0  0
   47.6300   32.8330   43.9860 C   0  0  0  0  0  0  0  0  0  0  0  0
   46.9570   32.5410   45.1700 N   0  0  0  0  0  0  0  0  0  0  0  0
   45.9380   33.2400   45.6280 C   0  0  0  0  0  0  0  0  0  0  0  0
   45.4910   34.3260   44.9190 N   0  0  0  0  0  0  0  0  0  0  0  0
   48.4610   32.2170   43.6670 H   0  0  0  0  0  0  0  0  0  0  0  0
   45.5560   32.8500   46.5620 H   0  0  0  0  0  0  0  0  0  0  0  0
   45.4310   35.7110   43.1500 C   0  0  0  0  0  0  0  0  0  0  0  0
   45.1000   36.8870   43.1800 O   0  0  0  0  0  0  0  0  0  0  0  0
   44.0030   32.9960   42.9050 N   0  0  0  0  0  0  0  0  0  0  0  0
   44.2250   33.8310   41.9920 C   0  0  0  0  0  0  0  0  0  0  0  0
   44.8580   35.0930   41.9600 N   0  0  0  0  0  0  0  0  0  0  0  0
   43.6070   33.0710   40.9280 N   0  0  0  0  0  0  0  0  0  0  0  0
   42.6810   33.2160   40.4340 H   0  0  0  0  0  0  0  0  0  0  0  0
   44.2290   33.0170   43.8870 H   0  0  0  0  0  0  0  0  0  0  0  0
   44.7850   35.3870   40.9350 H   0  0  0  0  0  0  0  0  0  0  0  0
   43.9510   32.2150   40.4240 H   0  0  0  0  0  0  0  0  0  0  0  0
   47.9170   34.2690   42.0810 C   0  0  0  0  0  0  0  0  0  0  0  0
   48.4380   35.4500   41.6680 C   0  0  0  0  0  0  0  0  0  0  0  0
   49.4900   34.4590   42.1660 C   0  0  0  0  0  0  0  0  0  0  0  0
   47.9280   33.3220   41.3790 H   0  0  0  0  0  0  0  0  0  0  0  0
   48.6050   35.7180   40.5890 H   0  0  0  0  0  0  0  0  0  0  0  0
   48.3970   36.3870   42.2890 H   0  0  0  0  0  0  0  0  0  0  0  0
   49.8730   34.5530   43.2010 H   0  0  0  0  0  0  0  0  0  0  0  0
   50.1320   33.9750   41.4540 H   0  0  0  0  0  0  0  0  0  0  0  0
  1  6  1  0  0  0  0
  2  1  2  0  0  0  0
  2  3  1  0  0  0  0
  3  4  2  0  0  0  0
  4  5  1  0  0  0  0
  5  8  1  0  0  0  0
  6  5  2  0  0  0  0
  7  3  1  0  0  0  0
  9 10  2  0  0  0  0
  9  1  1  0  0  0  0
 11 16  1  0  0  0  0
 12 11  2  0  0  0  0
 13 12  1  0  0  0  0
 13  9  1  0  0  0  0
 14 12  1  0  0  0  0
 15 14  1  0  0  0  0
 17 13  1  0  0  0  0
 18 14  1  0  0  0  0
 19 21  1  0  0  0  0
 19  2  1  0  0  0  0
 20 19  1  0  0  0  0
 20 21  1  0  0  0  0
 20 24  1  0  0  0  0
 21 25  1  0  0  0  0
 22 19  1  0  0  0  0
 23 20  1  0  0  0  0
 26 21  1  0  0  0  0
M  END
>  <minimizedAffinity>
-4.76246834

>  <minimizedRMSD>
0.333390415

$$$$
