
 OpenBabel03242523553D

 44 46  0  0  1  0  0  0  0  0999 V2000
   42.8080   34.5420   38.7290 C   0  0  1  0  0  0  0  0  0  0  0  0
   42.9400   35.1840   40.1010 C   0  0  1  0  0  0  0  0  0  0  0  0
   41.6400   35.3680   40.6250 O   0  0  0  0  0  0  0  0  0  0  0  0
   40.7070   35.7130   39.6380 C   0  0  0  0  0  0  0  0  0  0  0  0
   40.4280   34.5530   38.7030 C   0  0  2  0  0  0  0  0  0  0  0  0
   41.6590   33.5970   38.8200 C   0  0  1  0  0  0  0  0  0  0  0  0
   43.7660   34.0230   38.5280 H   0  0  0  0  0  0  0  0  0  0  0  0
   43.4930   36.1310   40.0860 H   0  0  0  0  0  0  0  0  0  0  0  0
   39.7830   35.9370   40.1690 H   0  0  0  0  0  0  0  0  0  0  0  0
   40.9850   36.6400   39.0950 H   0  0  0  0  0  0  0  0  0  0  0  0
   39.5000   34.0140   38.9760 H   0  0  0  0  0  0  0  0  0  0  0  0
   41.4520   33.2900   39.8990 H   0  0  0  0  0  0  0  0  0  0  0  0
   42.5740   35.5230   37.7460 O   0  0  0  0  0  0  0  0  0  0  0  0
   43.4190   35.6850   37.2950 H   0  0  0  0  0  0  0  0  0  0  0  0
   40.4380   34.9970   37.3900 O   0  0  0  0  0  0  0  0  0  0  0  0
   39.7260   34.5190   36.8790 H   0  0  0  0  0  0  0  0  0  0  0  0
   43.4930   34.1920   40.9210 O   0  0  0  0  0  0  0  0  0  0  0  0
   44.5920   34.3390   41.6700 C   0  0  0  0  0  0  0  0  0  0  0  0
   45.8540   34.4390   41.0870 C   0  0  0  0  0  0  0  0  0  0  0  0
   46.9670   34.5910   41.8900 C   0  0  0  0  0  0  0  0  0  0  0  0
   46.7920   34.6420   43.2640 N   0  0  0  0  0  0  0  0  0  0  0  0
   45.5560   34.5430   43.8000 C   0  0  0  0  0  0  0  0  0  0  0  0
   44.4630   34.3940   43.0070 N   0  0  0  0  0  0  0  0  0  0  0  0
   45.9630   34.3950   40.0110 H   0  0  0  0  0  0  0  0  0  0  0  0
   45.4180   34.5840   44.8790 H   0  0  0  0  0  0  0  0  0  0  0  0
   48.3520   34.6840   41.3280 C   0  0  0  0  0  0  0  0  0  0  0  0
   49.0770   36.0140   41.5160 C   0  0  0  0  0  0  0  0  0  0  0  0
   49.4940   34.6920   42.1900 C   0  0  0  0  0  0  0  0  0  0  0  0
   48.3940   34.2980   40.2870 H   0  0  0  0  0  0  0  0  0  0  0  0
   48.5690   36.7740   42.1080 H   0  0  0  0  0  0  0  0  0  0  0  0
   49.7060   36.3500   40.6950 H   0  0  0  0  0  0  0  0  0  0  0  0
   49.3440   34.7240   43.2950 H   0  0  0  0  0  0  0  0  0  0  0  0
   50.4840   34.2660   41.9310 H   0  0  0  0  0  0  0  0  0  0  0  0
   41.5510   32.6680   37.8490 O   0  0  0  0  0  0  0  0  0  0  0  0
   41.0390   31.4410   37.8400 C   0  0  0  0  0  0  0  0  0  0  0  0
   39.7770   31.2140   37.4920 O   0  0  0  0  0  0  0  0  0  0  0  0
   43.9580   30.7350   38.1000 N   0  0  0  0  0  0  0  0  0  0  0  0
   43.0270   29.9500   38.2590 C   0  0  0  0  0  0  0  0  0  0  0  0
   41.6410   30.1440   38.1630 N   0  0  0  0  0  0  0  0  0  0  0  0
   43.5340   28.6410   38.5950 N   0  0  0  0  0  0  0  0  0  0  0  0
   43.2370   28.0500   39.4010 H   0  0  0  0  0  0  0  0  0  0  0  0
   44.0370   31.6950   37.8690 H   0  0  0  0  0  0  0  0  0  0  0  0
   41.0440   29.3220   38.3470 H   0  0  0  0  0  0  0  0  0  0  0  0
   44.2600   28.0560   38.1260 H   0  0  0  0  0  0  0  0  0  0  0  0
  1  7  1  6  0  0  0
  1  6  1  0  0  0  0
  1  2  1  0  0  0  0
  2  8  1  6  0  0  0
  2  3  1  0  0  0  0
  2 17  1  0  0  0  0
  4  9  1  0  0  0  0
  4  3  1  0  0  0  0
  5  6  1  0  0  0  0
  5 11  1  1  0  0  0
  5  4  1  0  0  0  0
  6 12  1  1  0  0  0
 10  4  1  0  0  0  0
 13  1  1  0  0  0  0
 14 13  1  0  0  0  0
 15  5  1  0  0  0  0
 16 15  1  0  0  0  0
 17 18  1  0  0  0  0
 18 23  1  0  0  0  0
 19 18  2  0  0  0  0
 19 20  1  0  0  0  0
 20 21  2  0  0  0  0
 21 22  1  0  0  0  0
 22 25  1  0  0  0  0
 23 22  2  0  0  0  0
 24 19  1  0  0  0  0
 26 27  1  0  0  0  0
 26 20  1  0  0  0  0
 26 28  1  0  0  0  0
 27 30  1  0  0  0  0
 27 28  1  0  0  0  0
 28 32  1  0  0  0  0
 29 26  1  0  0  0  0
 31 27  1  0  0  0  0
 33 28  1  0  0  0  0
 34  6  1  0  0  0  0
 35 34  1  0  0  0  0
 35 39  1  0  0  0  0
 36 35  2  0  0  0  0
 37 38  2  0  0  0  0
 38 40  1  0  0  0  0
 39 38  1  0  0  0  0
 39 43  1  0  0  0  0
 40 41  1  0  0  0  0
 42 37  1  0  0  0  0
 44 40  1  0  0  0  0
M  END
>  <minimizedAffinity>
-5.81450796

>  <minimizedRMSD>
0.138625294

$$$$
