
 OpenBabel03242523553D

 44 46  0  0  1  0  0  0  0  0999 V2000
   42.8100   34.5070   38.7440 C   0  0  1  0  0  0  0  0  0  0  0  0
   42.9580   35.1710   40.1040 C   0  0  1  0  0  0  0  0  0  0  0  0
   41.6630   35.3890   40.6280 O   0  0  0  0  0  0  0  0  0  0  0  0
   40.7330   35.7310   39.6380 C   0  0  0  0  0  0  0  0  0  0  0  0
   40.4310   34.5600   38.7260 C   0  0  2  0  0  0  0  0  0  0  0  0
   41.6450   33.5840   38.8560 C   0  0  1  0  0  0  0  0  0  0  0  0
   43.7590   33.9680   38.5500 H   0  0  0  0  0  0  0  0  0  0  0  0
   43.5270   36.1090   40.0700 H   0  0  0  0  0  0  0  0  0  0  0  0
   39.8150   35.9820   40.1670 H   0  0  0  0  0  0  0  0  0  0  0  0
   41.0260   36.6430   39.0770 H   0  0  0  0  0  0  0  0  0  0  0  0
   39.4940   34.0420   39.0100 H   0  0  0  0  0  0  0  0  0  0  0  0
   41.4360   33.3010   39.9410 H   0  0  0  0  0  0  0  0  0  0  0  0
   42.5910   35.4740   37.7440 O   0  0  0  0  0  0  0  0  0  0  0  0
   43.4370   35.6120   37.2880 H   0  0  0  0  0  0  0  0  0  0  0  0
   40.4450   34.9790   37.4040 O   0  0  0  0  0  0  0  0  0  0  0  0
   39.7220   34.5050   36.9040 H   0  0  0  0  0  0  0  0  0  0  0  0
   43.4960   34.1850   40.9400 O   0  0  0  0  0  0  0  0  0  0  0  0
   44.5980   34.3270   41.6860 C   0  0  0  0  0  0  0  0  0  0  0  0
   45.8580   34.4350   41.0980 C   0  0  0  0  0  0  0  0  0  0  0  0
   46.9730   34.5830   41.8980 C   0  0  0  0  0  0  0  0  0  0  0  0
   46.8050   34.6200   43.2730 N   0  0  0  0  0  0  0  0  0  0  0  0
   45.5710   34.5140   43.8130 C   0  0  0  0  0  0  0  0  0  0  0  0
   44.4750   34.3690   43.0240 N   0  0  0  0  0  0  0  0  0  0  0  0
   45.9620   34.4020   40.0220 H   0  0  0  0  0  0  0  0  0  0  0  0
   45.4380   34.5440   44.8940 H   0  0  0  0  0  0  0  0  0  0  0  0
   48.3550   34.6840   41.3300 C   0  0  0  0  0  0  0  0  0  0  0  0
   49.0720   36.0200   41.5100 C   0  0  0  0  0  0  0  0  0  0  0  0
   49.5010   34.7030   42.1880 C   0  0  0  0  0  0  0  0  0  0  0  0
   48.3970   34.2940   40.2900 H   0  0  0  0  0  0  0  0  0  0  0  0
   48.5600   36.7790   42.1020 H   0  0  0  0  0  0  0  0  0  0  0  0
   49.6950   36.3570   40.6860 H   0  0  0  0  0  0  0  0  0  0  0  0
   49.3540   34.7390   43.2940 H   0  0  0  0  0  0  0  0  0  0  0  0
   50.4930   34.2840   41.9270 H   0  0  0  0  0  0  0  0  0  0  0  0
   41.5180   32.6400   37.9020 O   0  0  0  0  0  0  0  0  0  0  0  0
   40.8790   31.4740   37.8800 C   0  0  0  0  0  0  0  0  0  0  0  0
   39.6160   31.3780   37.4820 O   0  0  0  0  0  0  0  0  0  0  0  0
   39.9470   28.8280   36.7740 N   0  0  0  0  0  0  0  0  0  0  0  0
   40.8100   28.9660   37.6370 C   0  0  0  0  0  0  0  0  0  0  0  0
   41.3270   30.1240   38.2370 N   0  0  0  0  0  0  0  0  0  0  0  0
   41.3200   27.6760   38.0400 N   0  0  0  0  0  0  0  0  0  0  0  0
   42.3220   27.3940   38.0890 H   0  0  0  0  0  0  0  0  0  0  0  0
   39.3710   29.4410   36.2530 H   0  0  0  0  0  0  0  0  0  0  0  0
   42.0620   29.9890   38.9480 H   0  0  0  0  0  0  0  0  0  0  0  0
   40.8140   26.8160   38.3450 H   0  0  0  0  0  0  0  0  0  0  0  0
  1  7  1  6  0  0  0
  1  6  1  0  0  0  0
  1  2  1  0  0  0  0
  2  8  1  6  0  0  0
  2  3  1  0  0  0  0
  2 17  1  0  0  0  0
  4  9  1  0  0  0  0
  4  3  1  0  0  0  0
  5  6  1  0  0  0  0
  5 11  1  1  0  0  0
  5  4  1  0  0  0  0
  6 12  1  1  0  0  0
 10  4  1  0  0  0  0
 13  1  1  0  0  0  0
 14 13  1  0  0  0  0
 15  5  1  0  0  0  0
 16 15  1  0  0  0  0
 17 18  1  0  0  0  0
 18 23  1  0  0  0  0
 19 18  2  0  0  0  0
 19 20  1  0  0  0  0
 20 21  2  0  0  0  0
 21 22  1  0  0  0  0
 22 25  1  0  0  0  0
 23 22  2  0  0  0  0
 24 19  1  0  0  0  0
 26 27  1  0  0  0  0
 26 20  1  0  0  0  0
 26 28  1  0  0  0  0
 27 30  1  0  0  0  0
 27 28  1  0  0  0  0
 28 32  1  0  0  0  0
 29 26  1  0  0  0  0
 31 27  1  0  0  0  0
 33 28  1  0  0  0  0
 34  6  1  0  0  0  0
 35 34  1  0  0  0  0
 35 39  1  0  0  0  0
 36 35  2  0  0  0  0
 37 38  2  0  0  0  0
 38 40  1  0  0  0  0
 38 39  1  0  0  0  0
 39 43  1  0  0  0  0
 40 41  1  0  0  0  0
 40 44  1  0  0  0  0
 42 37  1  0  0  0  0
M  END
>  <minimizedAffinity>
-5.83558512

>  <minimizedRMSD>
0.0792531371

$$$$
