
 OpenBabel03242523173D

 26 27  0  0  0  0  0  0  0  0999 V2000
   46.4150   34.3220   43.5050 C   0  0  0  0  0  0  0  0  0  0  0  0
   47.5870   33.8260   43.0360 C   0  0  0  0  0  0  0  0  0  0  0  0
   48.0430   32.6730   43.6450 C   0  0  0  0  0  0  0  0  0  0  0  0
   47.2720   32.1300   44.6710 N   0  0  0  0  0  0  0  0  0  0  0  0
   46.1370   32.6520   45.0920 C   0  0  0  0  0  0  0  0  0  0  0  0
   45.6610   33.7970   44.5060 N   0  0  0  0  0  0  0  0  0  0  0  0
   48.9660   32.1940   43.3470 H   0  0  0  0  0  0  0  0  0  0  0  0
   45.6930   32.0800   45.8960 H   0  0  0  0  0  0  0  0  0  0  0  0
   45.6590   35.4470   42.9800 C   0  0  0  0  0  0  0  0  0  0  0  0
   45.2840   36.6040   43.1050 O   0  0  0  0  0  0  0  0  0  0  0  0
   43.0270   36.1860   41.5690 N   0  0  0  0  0  0  0  0  0  0  0  0
   43.8850   35.3460   41.2000 C   0  0  0  0  0  0  0  0  0  0  0  0
   45.1170   34.9100   41.7380 N   0  0  0  0  0  0  0  0  0  0  0  0
   43.1980   34.9360   39.9950 N   0  0  0  0  0  0  0  0  0  0  0  0
   43.4060   35.1590   38.9800 H   0  0  0  0  0  0  0  0  0  0  0  0
   42.9980   36.7880   42.3780 H   0  0  0  0  0  0  0  0  0  0  0  0
   45.4540   34.1780   41.0370 H   0  0  0  0  0  0  0  0  0  0  0  0
   42.3470   34.3290   39.8790 H   0  0  0  0  0  0  0  0  0  0  0  0
   48.3930   34.4250   42.0390 C   0  0  0  0  0  0  0  0  0  0  0  0
   48.6870   35.7240   41.7860 C   0  0  0  0  0  0  0  0  0  0  0  0
   49.8400   34.9500   42.4260 C   0  0  0  0  0  0  0  0  0  0  0  0
   48.7450   33.5700   41.3080 H   0  0  0  0  0  0  0  0  0  0  0  0
   48.9710   36.1160   40.7710 H   0  0  0  0  0  0  0  0  0  0  0  0
   48.3230   36.5710   42.4310 H   0  0  0  0  0  0  0  0  0  0  0  0
   50.0070   35.0340   43.5180 H   0  0  0  0  0  0  0  0  0  0  0  0
   50.6890   34.6840   41.8260 H   0  0  0  0  0  0  0  0  0  0  0  0
  1  6  1  0  0  0  0
  2  1  2  0  0  0  0
  2  3  1  0  0  0  0
  3  4  2  0  0  0  0
  4  5  1  0  0  0  0
  5  8  1  0  0  0  0
  6  5  2  0  0  0  0
  7  3  1  0  0  0  0
  9 10  2  0  0  0  0
  9  1  1  0  0  0  0
 11 16  1  0  0  0  0
 12 11  2  0  0  0  0
 12 13  1  0  0  0  0
 13  9  1  0  0  0  0
 14 12  1  0  0  0  0
 15 14  1  0  0  0  0
 17 13  1  0  0  0  0
 18 14  1  0  0  0  0
 19 21  1  0  0  0  0
 19  2  1  0  0  0  0
 20 19  1  0  0  0  0
 20 21  1  0  0  0  0
 20 24  1  0  0  0  0
 21 25  1  0  0  0  0
 22 19  1  0  0  0  0
 23 20  1  0  0  0  0
 26 21  1  0  0  0  0
M  END
>  <minimizedAffinity>
-4.90678406

>  <minimizedRMSD>
0.282219559

$$$$
