
 OpenBabel03242516553D

 44 46  0  0  1  0  0  0  0  0999 V2000
   38.8780   24.9180   40.8330 C   0  0  1  0  0  0  0  0  0  0  0  0
   38.2880   23.7660   41.5140 C   0  0  0  0  0  0  0  0  0  0  0  0
   37.3810   23.0900   40.4900 C   0  0  0  0  0  0  0  0  0  0  0  0
   36.2000   24.0250   40.2700 C   0  0  0  0  0  0  0  0  0  0  0  0
   36.5850   25.4190   39.8790 C   0  0  0  0  0  0  0  0  0  0  0  0
   37.8250   25.9640   40.4480 C   0  0  1  0  0  0  0  0  0  0  0  0
   39.2550   24.5770   39.8190 H   0  0  0  0  0  0  0  0  0  0  0  0
   39.0530   23.0550   41.8220 H   0  0  0  0  0  0  0  0  0  0  0  0
   37.5960   24.0380   42.3530 H   0  0  0  0  0  0  0  0  0  0  0  0
   37.9290   22.8820   39.5400 H   0  0  0  0  0  0  0  0  0  0  0  0
   36.9740   22.1740   40.9440 H   0  0  0  0  0  0  0  0  0  0  0  0
   35.5570   23.5800   39.4920 H   0  0  0  0  0  0  0  0  0  0  0  0
   35.6490   24.0580   41.2360 H   0  0  0  0  0  0  0  0  0  0  0  0
   36.5810   25.4520   38.7630 H   0  0  0  0  0  0  0  0  0  0  0  0
   35.7380   26.0710   40.1820 H   0  0  0  0  0  0  0  0  0  0  0  0
   38.3330   26.5830   39.6470 H   0  0  0  0  0  0  0  0  0  0  0  0
   41.3290   25.8990   43.5410 C   0  0  0  0  0  0  0  0  0  0  0  0
   40.2770   25.3050   42.8270 C   0  0  0  0  0  0  0  0  0  0  0  0
   39.9900   25.5740   41.4860 C   0  0  0  0  0  0  0  0  0  0  0  0
   40.7940   26.4570   40.8930 N   0  0  0  0  0  0  0  0  0  0  0  0
   41.8200   27.0440   41.5660 C   0  0  0  0  0  0  0  0  0  0  0  0
   42.0870   26.7820   42.8420 N   0  0  0  0  0  0  0  0  0  0  0  0
   41.4270   25.5900   44.5740 H   0  0  0  0  0  0  0  0  0  0  0  0
   39.6320   24.5860   43.3310 H   0  0  0  0  0  0  0  0  0  0  0  0
   42.4810   27.7700   41.0790 H   0  0  0  0  0  0  0  0  0  0  0  0
   37.5790   26.9070   41.5380 C   0  0  0  0  0  0  0  0  0  0  0  0
   37.0210   26.5940   42.7870 C   0  0  0  0  0  0  0  0  0  0  0  0
   36.8970   27.6610   43.6800 C   0  0  0  0  0  0  0  0  0  0  0  0
   37.3240   28.9080   43.2690 C   0  0  0  0  0  0  0  0  0  0  0  0
   37.8710   29.1920   42.0360 C   0  0  0  0  0  0  0  0  0  0  0  0
   37.9890   28.1440   41.1690 N   0  0  0  0  0  0  0  0  0  0  0  0
   36.7410   25.5850   42.9490 H   0  0  0  0  0  0  0  0  0  0  0  0
   36.4730   27.4440   44.6400 H   0  0  0  0  0  0  0  0  0  0  0  0
   37.1960   29.6830   44.0180 H   0  0  0  0  0  0  0  0  0  0  0  0
   38.3050   30.5500   41.6850 C   0  0  0  0  0  0  0  0  0  0  0  0
   39.4470   30.9200   42.0680 O   0  0  0  0  0  0  0  0  0  0  0  0
   39.2780   33.1330   41.0870 N   0  0  0  0  0  0  0  0  0  0  0  0
   38.1030   32.7910   40.6770 C   0  0  0  0  0  0  0  0  0  0  0  0
   37.5410   31.5090   40.9370 N   0  0  0  0  0  0  0  0  0  0  0  0
   37.3250   33.7250   39.9320 N   0  0  0  0  0  0  0  0  0  0  0  0
   36.7690   34.5920   39.9700 H   0  0  0  0  0  0  0  0  0  0  0  0
   39.6600   34.0970   40.8720 H   0  0  0  0  0  0  0  0  0  0  0  0
   36.5980   31.1880   40.6260 H   0  0  0  0  0  0  0  0  0  0  0  0
   37.2960   33.4150   38.9280 H   0  0  0  0  0  0  0  0  0  0  0  0
  1  7  1  6  0  0  0
  1 19  1  0  0  0  0
  1  2  1  0  0  0  0
  2  8  1  0  0  0  0
  2  9  1  0  0  0  0
  3 11  1  0  0  0  0
  3  2  1  0  0  0  0
  4  3  1  0  0  0  0
  4 13  1  0  0  0  0
  5 15  1  0  0  0  0
  5  4  1  0  0  0  0
  5  6  1  0  0  0  0
  6 16  1  6  0  0  0
  6  1  1  0  0  0  0
  6 26  1  0  0  0  0
 10  3  1  0  0  0  0
 12  4  1  0  0  0  0
 14  5  1  0  0  0  0
 17 23  1  0  0  0  0
 18 24  1  0  0  0  0
 18 17  2  0  0  0  0
 19 18  1  0  0  0  0
 20 19  2  0  0  0  0
 20 21  1  0  0  0  0
 21 22  2  0  0  0  0
 22 17  1  0  0  0  0
 25 21  1  0  0  0  0
 26 27  1  0  0  0  0
 27 32  1  0  0  0  0
 27 28  2  0  0  0  0
 28 33  1  0  0  0  0
 29 28  1  0  0  0  0
 29 34  1  0  0  0  0
 30 29  2  0  0  0  0
 31 26  2  0  0  0  0
 31 30  1  0  0  0  0
 35 30  1  0  0  0  0
 35 36  2  0  0  0  0
 38 39  1  0  0  0  0
 38 37  2  0  0  0  0
 39 35  1  0  0  0  0
 40 41  1  0  0  0  0
 40 38  1  0  0  0  0
 42 37  1  0  0  0  0
 43 39  1  0  0  0  0
 44 40  1  0  0  0  0
M  END
>  <minimizedAffinity>
-6.39220572

$$$$

 OpenBabel03242516553D

 44 46  0  0  1  0  0  0  0  0999 V2000
   36.6330   30.5120   39.1340 C   0  0  1  0  0  0  0  0  0  0  0  0
   36.8490   29.5460   38.0570 C   0  0  0  0  0  0  0  0  0  0  0  0
   35.4690   29.2400   37.4840 C   0  0  0  0  0  0  0  0  0  0  0  0
   34.7230   28.4420   38.5440 C   0  0  0  0  0  0  0  0  0  0  0  0
   34.6640   29.1080   39.8840 C   0  0  0  0  0  0  0  0  0  0  0  0
   35.8190   29.9200   40.2890 C   0  0  1  0  0  0  0  0  0  0  0  0
   35.9420   31.3250   38.7490 H   0  0  0  0  0  0  0  0  0  0  0  0
   37.4680   29.9670   37.2670 H   0  0  0  0  0  0  0  0  0  0  0  0
   37.2250   28.5500   38.4090 H   0  0  0  0  0  0  0  0  0  0  0  0
   34.9270   30.1760   37.2110 H   0  0  0  0  0  0  0  0  0  0  0  0
   35.5980   28.5690   36.6200 H   0  0  0  0  0  0  0  0  0  0  0  0
   33.7020   28.2550   38.1700 H   0  0  0  0  0  0  0  0  0  0  0  0
   35.2680   27.4760   38.6430 H   0  0  0  0  0  0  0  0  0  0  0  0
   33.7090   29.6850   39.9130 H   0  0  0  0  0  0  0  0  0  0  0  0
   34.5220   28.2940   40.6290 H   0  0  0  0  0  0  0  0  0  0  0  0
   35.4290   30.8270   40.8450 H   0  0  0  0  0  0  0  0  0  0  0  0
   38.7550   33.1700   40.7880 C   0  0  0  0  0  0  0  0  0  0  0  0
   37.6780   32.4440   40.2560 C   0  0  0  0  0  0  0  0  0  0  0  0
   37.8010   31.1840   39.6630 C   0  0  0  0  0  0  0  0  0  0  0  0
   39.0360   30.6840   39.6250 N   0  0  0  0  0  0  0  0  0  0  0  0
   40.0930   31.3710   40.1360 C   0  0  0  0  0  0  0  0  0  0  0  0
   39.9700   32.5690   40.6990 N   0  0  0  0  0  0  0  0  0  0  0  0
   38.5040   34.1330   41.2160 H   0  0  0  0  0  0  0  0  0  0  0  0
   36.6770   32.8700   40.2970 H   0  0  0  0  0  0  0  0  0  0  0  0
   41.1090   30.9610   40.1050 H   0  0  0  0  0  0  0  0  0  0  0  0
   36.6760   29.2380   41.2590 C   0  0  0  0  0  0  0  0  0  0  0  0
   37.3060   29.8340   42.3620 C   0  0  0  0  0  0  0  0  0  0  0  0
   38.0650   28.9780   43.1620 C   0  0  0  0  0  0  0  0  0  0  0  0
   38.1310   27.6440   42.8100 C   0  0  0  0  0  0  0  0  0  0  0  0
   37.5020   27.0800   41.7200 C   0  0  0  0  0  0  0  0  0  0  0  0
   36.7630   27.9240   40.9430 N   0  0  0  0  0  0  0  0  0  0  0  0
   37.1570   30.8750   42.4960 H   0  0  0  0  0  0  0  0  0  0  0  0
   38.5550   29.4120   44.0100 H   0  0  0  0  0  0  0  0  0  0  0  0
   38.7380   27.0440   43.4800 H   0  0  0  0  0  0  0  0  0  0  0  0
   37.6220   25.6470   41.4230 C   0  0  0  0  0  0  0  0  0  0  0  0
   36.9730   24.8410   42.1410 O   0  0  0  0  0  0  0  0  0  0  0  0
   37.7540   22.8630   40.9730 N   0  0  0  0  0  0  0  0  0  0  0  0
   38.4340   23.6560   40.2160 C   0  0  0  0  0  0  0  0  0  0  0  0
   38.4220   25.0700   40.3780 N   0  0  0  0  0  0  0  0  0  0  0  0
   39.2350   23.1080   39.1720 N   0  0  0  0  0  0  0  0  0  0  0  0
   40.0920   22.5840   38.9420 H   0  0  0  0  0  0  0  0  0  0  0  0
   37.7900   21.8150   40.8200 H   0  0  0  0  0  0  0  0  0  0  0  0
   38.9540   25.7510   39.7920 H   0  0  0  0  0  0  0  0  0  0  0  0
   38.7760   23.3180   38.2500 H   0  0  0  0  0  0  0  0  0  0  0  0
  1  7  1  6  0  0  0
  1 19  1  0  0  0  0
  1  6  1  0  0  0  0
  2  9  1  0  0  0  0
  2  1  1  0  0  0  0
  3  2  1  0  0  0  0
  3  4  1  0  0  0  0
  4 13  1  0  0  0  0
  4  5  1  0  0  0  0
  5 14  1  0  0  0  0
  5  6  1  0  0  0  0
  5 15  1  0  0  0  0
  6 16  1  1  0  0  0
  6 26  1  0  0  0  0
  8  2  1  0  0  0  0
 10  3  1  0  0  0  0
 11  3  1  0  0  0  0
 12  4  1  0  0  0  0
 17 23  1  0  0  0  0
 18 24  1  0  0  0  0
 18 17  2  0  0  0  0
 19 18  1  0  0  0  0
 20 19  2  0  0  0  0
 20 21  1  0  0  0  0
 21 22  2  0  0  0  0
 22 17  1  0  0  0  0
 25 21  1  0  0  0  0
 26 27  1  0  0  0  0
 27 32  1  0  0  0  0
 27 28  2  0  0  0  0
 28 33  1  0  0  0  0
 29 28  1  0  0  0  0
 29 34  1  0  0  0  0
 30 29  2  0  0  0  0
 31 26  2  0  0  0  0
 31 30  1  0  0  0  0
 35 30  1  0  0  0  0
 35 36  2  0  0  0  0
 38 39  1  0  0  0  0
 38 37  2  0  0  0  0
 39 35  1  0  0  0  0
 40 38  1  0  0  0  0
 41 40  1  0  0  0  0
 42 37  1  0  0  0  0
 43 39  1  0  0  0  0
 44 40  1  0  0  0  0
M  END
>  <minimizedAffinity>
-6.23433828

$$$$

 OpenBabel03242516553D

 44 46  0  0  1  0  0  0  0  0999 V2000
   37.3180   26.3140   41.7490 C   0  0  1  0  0  0  0  0  0  0  0  0
   37.6180   25.0200   41.1360 C   0  0  0  0  0  0  0  0  0  0  0  0
   38.0010   24.0900   42.2830 C   0  0  0  0  0  0  0  0  0  0  0  0
   39.3500   24.5680   42.8000 C   0  0  0  0  0  0  0  0  0  0  0  0
   39.3810   26.0140   43.1870 C   0  0  0  0  0  0  0  0  0  0  0  0
   38.5510   26.9420   42.4070 C   0  0  1  0  0  0  0  0  0  0  0  0
   36.6380   26.1370   42.6400 H   0  0  0  0  0  0  0  0  0  0  0  0
   36.7450   24.6100   40.6330 H   0  0  0  0  0  0  0  0  0  0  0  0
   38.5250   25.0290   40.4780 H   0  0  0  0  0  0  0  0  0  0  0  0
   37.2230   24.0940   43.0840 H   0  0  0  0  0  0  0  0  0  0  0  0
   38.1630   23.0830   41.8680 H   0  0  0  0  0  0  0  0  0  0  0  0
   39.6210   23.9400   43.6660 H   0  0  0  0  0  0  0  0  0  0  0  0
   40.0750   24.3970   41.9740 H   0  0  0  0  0  0  0  0  0  0  0  0
   39.1560   26.0590   44.2790 H   0  0  0  0  0  0  0  0  0  0  0  0
   40.4430   26.3330   43.1070 H   0  0  0  0  0  0  0  0  0  0  0  0
   38.1210   27.7090   43.1220 H   0  0  0  0  0  0  0  0  0  0  0  0
   36.0870   28.0980   38.6500 C   0  0  0  0  0  0  0  0  0  0  0  0
   36.6910   27.1850   39.5280 C   0  0  0  0  0  0  0  0  0  0  0  0
   36.6600   27.3020   40.9210 C   0  0  0  0  0  0  0  0  0  0  0  0
   36.0060   28.3630   41.3940 N   0  0  0  0  0  0  0  0  0  0  0  0
   35.4150   29.2590   40.5600 C   0  0  0  0  0  0  0  0  0  0  0  0
   35.4470   29.1420   39.2360 N   0  0  0  0  0  0  0  0  0  0  0  0
   36.1950   27.8740   37.5960 H   0  0  0  0  0  0  0  0  0  0  0  0
   37.2200   26.3250   39.1210 H   0  0  0  0  0  0  0  0  0  0  0  0
   34.8770   30.1320   40.9490 H   0  0  0  0  0  0  0  0  0  0  0  0
   39.3300   27.7300   41.4520 C   0  0  0  0  0  0  0  0  0  0  0  0
   40.2650   27.2230   40.5370 C   0  0  0  0  0  0  0  0  0  0  0  0
   40.8760   28.1670   39.7100 C   0  0  0  0  0  0  0  0  0  0  0  0
   40.5180   29.4920   39.8560 C   0  0  0  0  0  0  0  0  0  0  0  0
   39.5950   29.9680   40.7640 C   0  0  0  0  0  0  0  0  0  0  0  0
   39.0030   29.0390   41.5690 N   0  0  0  0  0  0  0  0  0  0  0  0
   40.4300   26.1760   40.5480 H   0  0  0  0  0  0  0  0  0  0  0  0
   41.5930   27.8020   39.0020 H   0  0  0  0  0  0  0  0  0  0  0  0
   41.0350   30.1640   39.1780 H   0  0  0  0  0  0  0  0  0  0  0  0
   39.2700   31.3970   40.8480 C   0  0  0  0  0  0  0  0  0  0  0  0
   39.9310   32.1050   41.6540 O   0  0  0  0  0  0  0  0  0  0  0  0
   38.7580   34.1610   41.1200 N   0  0  0  0  0  0  0  0  0  0  0  0
   38.0590   33.4700   40.2850 C   0  0  0  0  0  0  0  0  0  0  0  0
   38.2540   32.0730   40.0900 N   0  0  0  0  0  0  0  0  0  0  0  0
   37.0450   34.1170   39.5200 N   0  0  0  0  0  0  0  0  0  0  0  0
   36.1090   34.5490   39.5390 H   0  0  0  0  0  0  0  0  0  0  0  0
   38.5810   35.1990   41.2370 H   0  0  0  0  0  0  0  0  0  0  0  0
   37.7150   31.4740   39.4270 H   0  0  0  0  0  0  0  0  0  0  0  0
   37.3710   34.1930   38.5240 H   0  0  0  0  0  0  0  0  0  0  0  0
  1  6  1  0  0  0  0
  1  7  1  1  0  0  0
  2  1  1  0  0  0  0
  2  3  1  0  0  0  0
  3  4  1  0  0  0  0
  3 10  1  0  0  0  0
  4  5  1  0  0  0  0
  4 12  1  0  0  0  0
  5 14  1  0  0  0  0
  6 16  1  1  0  0  0
  6  5  1  0  0  0  0
  8  2  1  0  0  0  0
  9  2  1  0  0  0  0
 11  3  1  0  0  0  0
 13  4  1  0  0  0  0
 15  5  1  0  0  0  0
 17 22  2  0  0  0  0
 17 18  1  0  0  0  0
 18 19  2  0  0  0  0
 19 20  1  0  0  0  0
 19  1  1  0  0  0  0
 21 25  1  0  0  0  0
 21 20  2  0  0  0  0
 22 21  1  0  0  0  0
 23 17  1  0  0  0  0
 24 18  1  0  0  0  0
 26 31  1  0  0  0  0
 26  6  1  0  0  0  0
 27 32  1  0  0  0  0
 27 26  2  0  0  0  0
 28 29  2  0  0  0  0
 28 27  1  0  0  0  0
 29 30  1  0  0  0  0
 30 35  1  0  0  0  0
 30 31  2  0  0  0  0
 33 28  1  0  0  0  0
 34 29  1  0  0  0  0
 35 36  2  0  0  0  0
 37 42  1  0  0  0  0
 38 37  2  0  0  0  0
 39 38  1  0  0  0  0
 39 35  1  0  0  0  0
 40 41  1  0  0  0  0
 40 38  1  0  0  0  0
 43 39  1  0  0  0  0
 44 40  1  0  0  0  0
M  END
>  <minimizedAffinity>
-6.21796083

$$$$

 OpenBabel03242516553D

 44 46  0  0  1  0  0  0  0  0999 V2000
   38.4010   25.7290   42.1140 C   0  0  1  0  0  0  0  0  0  0  0  0
   39.3860   26.7790   42.3700 C   0  0  0  0  0  0  0  0  0  0  0  0
   38.9660   27.4400   43.6790 C   0  0  0  0  0  0  0  0  0  0  0  0
   37.6840   28.2070   43.3890 C   0  0  0  0  0  0  0  0  0  0  0  0
   36.5970   27.3770   42.7800 C   0  0  0  0  0  0  0  0  0  0  0  0
   36.9990   26.2970   41.8680 C   0  0  1  0  0  0  0  0  0  0  0  0
   38.2530   25.1380   43.0710 H   0  0  0  0  0  0  0  0  0  0  0  0
   40.3830   26.3630   42.4950 H   0  0  0  0  0  0  0  0  0  0  0  0
   39.3630   27.6160   41.6230 H   0  0  0  0  0  0  0  0  0  0  0  0
   38.8240   26.6820   44.4870 H   0  0  0  0  0  0  0  0  0  0  0  0
   39.7270   28.1900   43.9440 H   0  0  0  0  0  0  0  0  0  0  0  0
   37.3340   28.6500   44.3370 H   0  0  0  0  0  0  0  0  0  0  0  0
   37.9630   29.0170   42.6790 H   0  0  0  0  0  0  0  0  0  0  0  0
   35.9650   27.0070   43.6220 H   0  0  0  0  0  0  0  0  0  0  0  0
   35.9400   28.0830   42.2260 H   0  0  0  0  0  0  0  0  0  0  0  0
   36.3100   25.4160   42.0470 H   0  0  0  0  0  0  0  0  0  0  0  0
   38.3800   22.4980   40.1480 C   0  0  0  0  0  0  0  0  0  0  0  0
   38.1280   23.4960   41.1010 C   0  0  0  0  0  0  0  0  0  0  0  0
   38.7160   24.7640   41.0810 C   0  0  0  0  0  0  0  0  0  0  0  0
   39.5610   24.9900   40.0750 N   0  0  0  0  0  0  0  0  0  0  0  0
   39.8190   24.0360   39.1410 C   0  0  0  0  0  0  0  0  0  0  0  0
   39.2550   22.8320   39.1650 N   0  0  0  0  0  0  0  0  0  0  0  0
   37.8490   21.5660   40.2950 H   0  0  0  0  0  0  0  0  0  0  0  0
   37.4340   23.2910   41.9160 H   0  0  0  0  0  0  0  0  0  0  0  0
   40.5130   24.2210   38.3130 H   0  0  0  0  0  0  0  0  0  0  0  0
   36.7950   26.6410   40.4610 C   0  0  0  0  0  0  0  0  0  0  0  0
   36.3080   25.7790   39.4660 C   0  0  0  0  0  0  0  0  0  0  0  0
   36.1810   26.3360   38.1920 C   0  0  0  0  0  0  0  0  0  0  0  0
   36.5350   27.6600   38.0200 C   0  0  0  0  0  0  0  0  0  0  0  0
   37.0110   28.4880   39.0150 C   0  0  0  0  0  0  0  0  0  0  0  0
   37.1330   27.9360   40.2570 N   0  0  0  0  0  0  0  0  0  0  0  0
   36.0810   24.7860   39.7590 H   0  0  0  0  0  0  0  0  0  0  0  0
   35.8110   25.6960   37.4170 H   0  0  0  0  0  0  0  0  0  0  0  0
   36.4070   28.0190   37.0040 H   0  0  0  0  0  0  0  0  0  0  0  0
   37.3590   29.8880   38.7440 C   0  0  0  0  0  0  0  0  0  0  0  0
   38.0890   30.1310   37.7460 O   0  0  0  0  0  0  0  0  0  0  0  0
   38.1120   32.5320   38.0960 N   0  0  0  0  0  0  0  0  0  0  0  0
   37.3630   32.3250   39.1260 C   0  0  0  0  0  0  0  0  0  0  0  0
   36.9400   31.0230   39.5190 N   0  0  0  0  0  0  0  0  0  0  0  0
   36.9330   33.4340   39.9120 N   0  0  0  0  0  0  0  0  0  0  0  0
   37.2150   34.1550   40.5930 H   0  0  0  0  0  0  0  0  0  0  0  0
   38.4050   33.5160   37.8370 H   0  0  0  0  0  0  0  0  0  0  0  0
   36.3360   30.8060   40.3420 H   0  0  0  0  0  0  0  0  0  0  0  0
   35.9100   33.5950   39.7360 H   0  0  0  0  0  0  0  0  0  0  0  0
  1  2  1  0  0  0  0
  1  7  1  1  0  0  0
  2  8  1  0  0  0  0
  2  3  1  0  0  0  0
  3 11  1  0  0  0  0
  3 10  1  0  0  0  0
  4  3  1  0  0  0  0
  4 12  1  0  0  0  0
  5  4  1  0  0  0  0
  5 14  1  0  0  0  0
  6 16  1  1  0  0  0
  6  1  1  0  0  0  0
  6  5  1  0  0  0  0
  9  2  1  0  0  0  0
 13  4  1  0  0  0  0
 15  5  1  0  0  0  0
 17 23  1  0  0  0  0
 17 18  1  0  0  0  0
 18 24  1  0  0  0  0
 19 18  2  0  0  0  0
 19  1  1  0  0  0  0
 20 19  1  0  0  0  0
 21 22  1  0  0  0  0
 21 20  2  0  0  0  0
 22 17  2  0  0  0  0
 25 21  1  0  0  0  0
 26  6  1  0  0  0  0
 27 32  1  0  0  0  0
 27 26  2  0  0  0  0
 28 27  1  0  0  0  0
 29 28  2  0  0  0  0
 29 30  1  0  0  0  0
 30 31  2  0  0  0  0
 31 26  1  0  0  0  0
 33 28  1  0  0  0  0
 34 29  1  0  0  0  0
 35 30  1  0  0  0  0
 35 39  1  0  0  0  0
 36 35  2  0  0  0  0
 37 38  2  0  0  0  0
 38 39  1  0  0  0  0
 38 40  1  0  0  0  0
 39 43  1  0  0  0  0
 40 41  1  0  0  0  0
 42 37  1  0  0  0  0
 44 40  1  0  0  0  0
M  END
>  <minimizedAffinity>
-6.21022129

$$$$

 OpenBabel03242516553D

 44 46  0  0  1  0  0  0  0  0999 V2000
   38.2240   29.0590   41.3950 C   0  0  1  0  0  0  0  0  0  0  0  0
   37.6140   29.2210   42.7140 C   0  0  0  0  0  0  0  0  0  0  0  0
   37.9460   27.9500   43.4900 C   0  0  0  0  0  0  0  0  0  0  0  0
   37.1400   26.8280   42.8530 C   0  0  0  0  0  0  0  0  0  0  0  0
   37.3510   26.6820   41.3770 C   0  0  0  0  0  0  0  0  0  0  0  0
   37.5960   27.9070   40.6040 C   0  0  1  0  0  0  0  0  0  0  0  0
   39.2890   28.6950   41.5370 H   0  0  0  0  0  0  0  0  0  0  0  0
   38.0390   30.0720   43.2430 H   0  0  0  0  0  0  0  0  0  0  0  0
   36.4940   29.2450   42.6970 H   0  0  0  0  0  0  0  0  0  0  0  0
   39.0410   27.7380   43.4700 H   0  0  0  0  0  0  0  0  0  0  0  0
   37.5650   28.0660   44.5160 H   0  0  0  0  0  0  0  0  0  0  0  0
   37.4050   25.8880   43.3660 H   0  0  0  0  0  0  0  0  0  0  0  0
   36.0700   27.0680   43.0450 H   0  0  0  0  0  0  0  0  0  0  0  0
   38.1600   25.9260   41.2420 H   0  0  0  0  0  0  0  0  0  0  0  0
   36.4370   26.1880   40.9810 H   0  0  0  0  0  0  0  0  0  0  0  0
   38.3650   27.6670   39.8070 H   0  0  0  0  0  0  0  0  0  0  0  0
   37.4770   32.5070   40.0340 C   0  0  0  0  0  0  0  0  0  0  0  0
   37.4750   31.3330   40.8020 C   0  0  0  0  0  0  0  0  0  0  0  0
   38.3010   30.2340   40.5530 C   0  0  0  0  0  0  0  0  0  0  0  0
   39.1240   30.3570   39.5100 N   0  0  0  0  0  0  0  0  0  0  0  0
   39.1410   31.4870   38.7540 C   0  0  0  0  0  0  0  0  0  0  0  0
   38.3530   32.5300   38.9970 N   0  0  0  0  0  0  0  0  0  0  0  0
   36.7800   33.2740   40.3500 H   0  0  0  0  0  0  0  0  0  0  0  0
   36.7950   31.2530   41.6490 H   0  0  0  0  0  0  0  0  0  0  0  0
   39.8170   31.5890   37.8960 H   0  0  0  0  0  0  0  0  0  0  0  0
   36.4190   28.3460   39.8540 C   0  0  0  0  0  0  0  0  0  0  0  0
   35.2000   28.7660   40.4080 C   0  0  0  0  0  0  0  0  0  0  0  0
   34.2220   29.1580   39.4930 C   0  0  0  0  0  0  0  0  0  0  0  0
   34.5270   29.1010   38.1470 C   0  0  0  0  0  0  0  0  0  0  0  0
   35.7340   28.6840   37.6260 C   0  0  0  0  0  0  0  0  0  0  0  0
   36.6840   28.3030   38.5270 N   0  0  0  0  0  0  0  0  0  0  0  0
   35.1220   28.7510   41.4650 H   0  0  0  0  0  0  0  0  0  0  0  0
   33.2830   29.4830   39.8940 H   0  0  0  0  0  0  0  0  0  0  0  0
   33.7170   29.4220   37.5000 H   0  0  0  0  0  0  0  0  0  0  0  0
   35.9750   28.6620   36.1770 C   0  0  0  0  0  0  0  0  0  0  0  0
   35.9140   27.5500   35.5880 O   0  0  0  0  0  0  0  0  0  0  0  0
   36.4160   28.4600   33.3950 N   0  0  0  0  0  0  0  0  0  0  0  0
   36.4870   29.6170   33.9620 C   0  0  0  0  0  0  0  0  0  0  0  0
   36.2780   29.8020   35.3580 N   0  0  0  0  0  0  0  0  0  0  0  0
   36.7860   30.7650   33.1720 N   0  0  0  0  0  0  0  0  0  0  0  0
   37.5150   31.2710   32.6480 H   0  0  0  0  0  0  0  0  0  0  0  0
   36.5780   28.3640   32.3530 H   0  0  0  0  0  0  0  0  0  0  0  0
   36.3250   30.7160   35.8610 H   0  0  0  0  0  0  0  0  0  0  0  0
   35.9140   31.3430   33.0740 H   0  0  0  0  0  0  0  0  0  0  0  0
  1  7  1  1  0  0  0
  1  2  1  0  0  0  0
  2  8  1  0  0  0  0
  2  3  1  0  0  0  0
  3 11  1  0  0  0  0
  4 13  1  0  0  0  0
  4 12  1  0  0  0  0
  4  3  1  0  0  0  0
  5  4  1  0  0  0  0
  6 16  1  6  0  0  0
  6  5  1  0  0  0  0
  6  1  1  0  0  0  0
  9  2  1  0  0  0  0
 10  3  1  0  0  0  0
 14  5  1  0  0  0  0
 15  5  1  0  0  0  0
 17 23  1  0  0  0  0
 17 18  1  0  0  0  0
 18 24  1  0  0  0  0
 19 18  2  0  0  0  0
 19  1  1  0  0  0  0
 20 19  1  0  0  0  0
 21 22  1  0  0  0  0
 21 20  2  0  0  0  0
 22 17  2  0  0  0  0
 25 21  1  0  0  0  0
 26 27  1  0  0  0  0
 26  6  1  0  0  0  0
 27 32  1  0  0  0  0
 28 33  1  0  0  0  0
 28 27  2  0  0  0  0
 29 28  1  0  0  0  0
 30 29  2  0  0  0  0
 30 31  1  0  0  0  0
 31 26  2  0  0  0  0
 34 29  1  0  0  0  0
 35 30  1  0  0  0  0
 36 35  2  0  0  0  0
 37 38  2  0  0  0  0
 38 39  1  0  0  0  0
 39 43  1  0  0  0  0
 39 35  1  0  0  0  0
 40 38  1  0  0  0  0
 41 40  1  0  0  0  0
 42 37  1  0  0  0  0
 44 40  1  0  0  0  0
M  END
>  <minimizedAffinity>
-6.12562704

$$$$

 OpenBabel03242516553D

 44 46  0  0  1  0  0  0  0  0999 V2000
   36.5690   26.3790   39.9280 C   0  0  1  0  0  0  0  0  0  0  0  0
   37.1130   25.0580   39.6150 C   0  0  0  0  0  0  0  0  0  0  0  0
   36.5500   24.1090   40.6690 C   0  0  0  0  0  0  0  0  0  0  0  0
   37.2180   24.4750   41.9860 C   0  0  0  0  0  0  0  0  0  0  0  0
   37.0790   25.9170   42.3660 C   0  0  0  0  0  0  0  0  0  0  0  0
   37.0670   26.9050   41.2790 C   0  0  1  0  0  0  0  0  0  0  0  0
   35.4550   26.2700   40.1130 H   0  0  0  0  0  0  0  0  0  0  0  0
   36.7880   24.7200   38.6340 H   0  0  0  0  0  0  0  0  0  0  0  0
   38.2240   24.9820   39.7470 H   0  0  0  0  0  0  0  0  0  0  0  0
   35.4380   24.1880   40.7310 H   0  0  0  0  0  0  0  0  0  0  0  0
   36.8790   23.0890   40.4230 H   0  0  0  0  0  0  0  0  0  0  0  0
   36.7850   23.8350   42.7740 H   0  0  0  0  0  0  0  0  0  0  0  0
   38.2970   24.2350   41.8620 H   0  0  0  0  0  0  0  0  0  0  0  0
   36.1760   25.9920   43.0170 H   0  0  0  0  0  0  0  0  0  0  0  0
   37.9330   26.1430   43.0420 H   0  0  0  0  0  0  0  0  0  0  0  0
   36.3210   27.7130   41.5520 H   0  0  0  0  0  0  0  0  0  0  0  0
   35.8610   29.4980   37.9110 C   0  0  0  0  0  0  0  0  0  0  0  0
   35.7980   28.4600   38.8530 C   0  0  0  0  0  0  0  0  0  0  0  0
   36.7190   27.4110   38.9250 C   0  0  0  0  0  0  0  0  0  0  0  0
   37.6980   27.4430   38.0220 N   0  0  0  0  0  0  0  0  0  0  0  0
   37.7780   28.4400   37.1000 C   0  0  0  0  0  0  0  0  0  0  0  0
   36.8990   29.4360   37.0370 N   0  0  0  0  0  0  0  0  0  0  0  0
   35.0760   30.2410   37.9790 H   0  0  0  0  0  0  0  0  0  0  0  0
   34.9890   28.4530   39.5830 H   0  0  0  0  0  0  0  0  0  0  0  0
   38.5830   28.4670   36.3560 H   0  0  0  0  0  0  0  0  0  0  0  0
   38.3400   27.6140   41.1450 C   0  0  0  0  0  0  0  0  0  0  0  0
   39.6020   27.0170   40.9990 C   0  0  0  0  0  0  0  0  0  0  0  0
   40.6770   27.8990   40.8710 C   0  0  0  0  0  0  0  0  0  0  0  0
   40.4160   29.2540   40.8970 C   0  0  0  0  0  0  0  0  0  0  0  0
   39.1660   29.8180   41.0420 C   0  0  0  0  0  0  0  0  0  0  0  0
   38.1200   28.9500   41.1660 N   0  0  0  0  0  0  0  0  0  0  0  0
   39.6350   25.9580   40.9990 H   0  0  0  0  0  0  0  0  0  0  0  0
   41.6500   27.4650   40.7580 H   0  0  0  0  0  0  0  0  0  0  0  0
   41.3010   29.8730   40.7910 H   0  0  0  0  0  0  0  0  0  0  0  0
   38.9790   31.2740   41.0530 C   0  0  0  0  0  0  0  0  0  0  0  0
   39.6700   31.9500   41.8600 O   0  0  0  0  0  0  0  0  0  0  0  0
   38.7290   34.0840   41.1890 N   0  0  0  0  0  0  0  0  0  0  0  0
   38.0030   33.4270   40.3490 C   0  0  0  0  0  0  0  0  0  0  0  0
   38.0690   32.0110   40.2200 N   0  0  0  0  0  0  0  0  0  0  0  0
   37.0920   34.1340   39.5110 N   0  0  0  0  0  0  0  0  0  0  0  0
   36.2030   34.6540   39.4670 H   0  0  0  0  0  0  0  0  0  0  0  0
   38.6500   35.1380   41.2560 H   0  0  0  0  0  0  0  0  0  0  0  0
   37.5030   31.4370   39.5560 H   0  0  0  0  0  0  0  0  0  0  0  0
   37.4680   34.1340   38.5290 H   0  0  0  0  0  0  0  0  0  0  0  0
  1  7  1  1  0  0  0
  1  6  1  0  0  0  0
  2  9  1  0  0  0  0
  2  1  1  0  0  0  0
  2  3  1  0  0  0  0
  3 10  1  0  0  0  0
  3  4  1  0  0  0  0
  4  5  1  0  0  0  0
  4 12  1  0  0  0  0
  5 14  1  0  0  0  0
  5 15  1  0  0  0  0
  6 16  1  1  0  0  0
  6  5  1  0  0  0  0
  8  2  1  0  0  0  0
 11  3  1  0  0  0  0
 13  4  1  0  0  0  0
 17 23  1  0  0  0  0
 17 18  1  0  0  0  0
 18 19  2  0  0  0  0
 18 24  1  0  0  0  0
 19  1  1  0  0  0  0
 20 19  1  0  0  0  0
 21 20  2  0  0  0  0
 22 21  1  0  0  0  0
 22 17  2  0  0  0  0
 25 21  1  0  0  0  0
 26 31  1  0  0  0  0
 26  6  1  0  0  0  0
 27 32  1  0  0  0  0
 27 26  2  0  0  0  0
 28 29  2  0  0  0  0
 28 27  1  0  0  0  0
 29 30  1  0  0  0  0
 30 35  1  0  0  0  0
 30 31  2  0  0  0  0
 33 28  1  0  0  0  0
 34 29  1  0  0  0  0
 35 36  2  0  0  0  0
 37 42  1  0  0  0  0
 38 37  2  0  0  0  0
 39 38  1  0  0  0  0
 39 35  1  0  0  0  0
 40 38  1  0  0  0  0
 41 40  1  0  0  0  0
 43 39  1  0  0  0  0
 44 40  1  0  0  0  0
M  END
>  <minimizedAffinity>
-6.07504225

$$$$

 OpenBabel03242516553D

 44 46  0  0  1  0  0  0  0  0999 V2000
   36.5030   30.6620   39.0160 C   0  0  1  0  0  0  0  0  0  0  0  0
   36.6560   29.7540   37.8800 C   0  0  0  0  0  0  0  0  0  0  0  0
   35.2420   29.3840   37.4420 C   0  0  0  0  0  0  0  0  0  0  0  0
   34.6640   28.5000   38.5380 C   0  0  0  0  0  0  0  0  0  0  0  0
   34.7120   29.1080   39.9060 C   0  0  0  0  0  0  0  0  0  0  0  0
   35.8550   29.9750   40.2230 C   0  0  1  0  0  0  0  0  0  0  0  0
   35.7280   31.4440   38.7440 H   0  0  0  0  0  0  0  0  0  0  0  0
   37.1600   30.2430   37.0490 H   0  0  0  0  0  0  0  0  0  0  0  0
   37.1250   28.7700   38.1440 H   0  0  0  0  0  0  0  0  0  0  0  0
   34.6200   30.2950   37.2720 H   0  0  0  0  0  0  0  0  0  0  0  0
   35.3150   28.7580   36.5410 H   0  0  0  0  0  0  0  0  0  0  0  0
   33.6210   28.2640   38.2670 H   0  0  0  0  0  0  0  0  0  0  0  0
   35.2710   27.5670   38.5350 H   0  0  0  0  0  0  0  0  0  0  0  0
   33.7340   29.6230   40.0630 H   0  0  0  0  0  0  0  0  0  0  0  0
   34.7000   28.2590   40.6240 H   0  0  0  0  0  0  0  0  0  0  0  0
   35.4760   30.8330   40.8580 H   0  0  0  0  0  0  0  0  0  0  0  0
   38.6350   33.3900   40.5370 C   0  0  0  0  0  0  0  0  0  0  0  0
   37.5510   32.6190   40.0900 C   0  0  0  0  0  0  0  0  0  0  0  0
   37.6800   31.3840   39.4490 C   0  0  0  0  0  0  0  0  0  0  0  0
   38.9310   30.9560   39.2730 N   0  0  0  0  0  0  0  0  0  0  0  0
   39.9950   31.6880   39.6980 C   0  0  0  0  0  0  0  0  0  0  0  0
   39.8650   32.8620   40.3090 N   0  0  0  0  0  0  0  0  0  0  0  0
   38.3770   34.3260   41.0170 H   0  0  0  0  0  0  0  0  0  0  0  0
   36.5370   32.9870   40.2440 H   0  0  0  0  0  0  0  0  0  0  0  0
   41.0230   31.3370   39.5540 H   0  0  0  0  0  0  0  0  0  0  0  0
   36.8510   29.3110   41.0640 C   0  0  0  0  0  0  0  0  0  0  0  0
   37.3640   29.8010   42.2750 C   0  0  0  0  0  0  0  0  0  0  0  0
   38.2960   28.9820   42.9130 C   0  0  0  0  0  0  0  0  0  0  0  0
   38.6280   27.7820   42.3160 C   0  0  0  0  0  0  0  0  0  0  0  0
   38.1090   27.3200   41.1250 C   0  0  0  0  0  0  0  0  0  0  0  0
   37.1990   28.1270   40.5070 N   0  0  0  0  0  0  0  0  0  0  0  0
   37.0070   30.7440   42.6010 H   0  0  0  0  0  0  0  0  0  0  0  0
   38.7020   29.3370   43.8400 H   0  0  0  0  0  0  0  0  0  0  0  0
   39.3570   27.2020   42.8730 H   0  0  0  0  0  0  0  0  0  0  0  0
   38.5160   26.0250   40.5630 C   0  0  0  0  0  0  0  0  0  0  0  0
   39.3040   26.0320   39.5810 O   0  0  0  0  0  0  0  0  0  0  0  0
   39.3850   23.6150   39.3770 N   0  0  0  0  0  0  0  0  0  0  0  0
   38.5770   23.5670   40.3810 C   0  0  0  0  0  0  0  0  0  0  0  0
   38.0930   24.7360   41.0340 N   0  0  0  0  0  0  0  0  0  0  0  0
   38.1420   22.2990   40.8680 N   0  0  0  0  0  0  0  0  0  0  0  0
   37.5470   21.4770   40.6890 H   0  0  0  0  0  0  0  0  0  0  0  0
   39.7230   22.7220   38.9180 H   0  0  0  0  0  0  0  0  0  0  0  0
   37.4400   24.7470   41.8480 H   0  0  0  0  0  0  0  0  0  0  0  0
   38.6140   22.1120   41.7880 H   0  0  0  0  0  0  0  0  0  0  0  0
  1  7  1  6  0  0  0
  1 19  1  0  0  0  0
  1  6  1  0  0  0  0
  2  9  1  0  0  0  0
  2  1  1  0  0  0  0
  3  2  1  0  0  0  0
  3  4  1  0  0  0  0
  4  5  1  0  0  0  0
  5 14  1  0  0  0  0
  5  6  1  0  0  0  0
  5 15  1  0  0  0  0
  6 16  1  1  0  0  0
  6 26  1  0  0  0  0
  8  2  1  0  0  0  0
 10  3  1  0  0  0  0
 11  3  1  0  0  0  0
 12  4  1  0  0  0  0
 13  4  1  0  0  0  0
 17 23  1  0  0  0  0
 18 24  1  0  0  0  0
 18 17  2  0  0  0  0
 19 18  1  0  0  0  0
 20 19  2  0  0  0  0
 20 21  1  0  0  0  0
 21 22  2  0  0  0  0
 22 17  1  0  0  0  0
 25 21  1  0  0  0  0
 26 27  1  0  0  0  0
 27 32  1  0  0  0  0
 27 28  2  0  0  0  0
 28 33  1  0  0  0  0
 29 34  1  0  0  0  0
 29 28  1  0  0  0  0
 30 29  2  0  0  0  0
 31 26  2  0  0  0  0
 31 30  1  0  0  0  0
 35 39  1  0  0  0  0
 35 30  1  0  0  0  0
 36 35  2  0  0  0  0
 37 38  2  0  0  0  0
 38 40  1  0  0  0  0
 38 39  1  0  0  0  0
 39 43  1  0  0  0  0
 40 44  1  0  0  0  0
 41 40  1  0  0  0  0
 42 37  1  0  0  0  0
M  END
>  <minimizedAffinity>
-6.05536366

$$$$

 OpenBabel03242516553D

 44 46  0  0  1  0  0  0  0  0999 V2000
   36.5400   27.3930   40.2560 C   0  0  1  0  0  0  0  0  0  0  0  0
   37.7860   26.6620   40.4840 C   0  0  0  0  0  0  0  0  0  0  0  0
   37.5510   25.8060   41.7240 C   0  0  0  0  0  0  0  0  0  0  0  0
   37.4720   26.7630   42.9050 C   0  0  0  0  0  0  0  0  0  0  0  0
   36.4550   27.8510   42.7460 C   0  0  0  0  0  0  0  0  0  0  0  0
   36.2300   28.3750   41.3920 C   0  0  1  0  0  0  0  0  0  0  0  0
   35.6780   26.6610   40.3340 H   0  0  0  0  0  0  0  0  0  0  0  0
   38.0160   26.0050   39.6470 H   0  0  0  0  0  0  0  0  0  0  0  0
   38.6520   27.3160   40.7640 H   0  0  0  0  0  0  0  0  0  0  0  0
   36.6240   25.1930   41.6240 H   0  0  0  0  0  0  0  0  0  0  0  0
   38.4440   25.1830   41.8850 H   0  0  0  0  0  0  0  0  0  0  0  0
   37.2490   26.1680   43.8080 H   0  0  0  0  0  0  0  0  0  0  0  0
   38.4810   27.2210   43.0000 H   0  0  0  0  0  0  0  0  0  0  0  0
   35.5140   27.4830   43.2200 H   0  0  0  0  0  0  0  0  0  0  0  0
   36.7900   28.6860   43.3990 H   0  0  0  0  0  0  0  0  0  0  0  0
   35.1220   28.5840   41.2790 H   0  0  0  0  0  0  0  0  0  0  0  0
   34.8810   28.9510   37.2360 C   0  0  0  0  0  0  0  0  0  0  0  0
   35.1190   28.3110   38.4620 C   0  0  0  0  0  0  0  0  0  0  0  0
   36.3920   28.0680   38.9840 C   0  0  0  0  0  0  0  0  0  0  0  0
   37.4110   28.4890   38.2340 N   0  0  0  0  0  0  0  0  0  0  0  0
   37.2020   29.1110   37.0430 C   0  0  0  0  0  0  0  0  0  0  0  0
   35.9880   29.3390   36.5520 N   0  0  0  0  0  0  0  0  0  0  0  0
   33.8400   29.0680   36.9630 H   0  0  0  0  0  0  0  0  0  0  0  0
   34.2720   27.9750   39.0590 H   0  0  0  0  0  0  0  0  0  0  0  0
   38.0400   29.4570   36.4260 H   0  0  0  0  0  0  0  0  0  0  0  0
   36.8700   29.6720   41.1740 C   0  0  0  0  0  0  0  0  0  0  0  0
   36.2700   30.7990   40.5930 C   0  0  0  0  0  0  0  0  0  0  0  0
   37.0750   31.9360   40.5050 C   0  0  0  0  0  0  0  0  0  0  0  0
   38.3670   31.8600   40.9860 C   0  0  0  0  0  0  0  0  0  0  0  0
   38.9360   30.7390   41.5540 C   0  0  0  0  0  0  0  0  0  0  0  0
   38.1430   29.6330   41.6370 N   0  0  0  0  0  0  0  0  0  0  0  0
   35.2650   30.6960   40.2720 H   0  0  0  0  0  0  0  0  0  0  0  0
   36.6360   32.8090   40.0650 H   0  0  0  0  0  0  0  0  0  0  0  0
   38.9280   32.7830   40.8830 H   0  0  0  0  0  0  0  0  0  0  0  0
   40.3200   30.7490   42.0460 C   0  0  0  0  0  0  0  0  0  0  0  0
   40.8520   29.6420   42.3260 O   0  0  0  0  0  0  0  0  0  0  0  0
   42.9730   30.6090   43.0020 N   0  0  0  0  0  0  0  0  0  0  0  0
   42.4630   31.7610   42.7270 C   0  0  0  0  0  0  0  0  0  0  0  0
   41.1330   31.9170   42.2410 N   0  0  0  0  0  0  0  0  0  0  0  0
   43.2490   32.9360   42.9120 N   0  0  0  0  0  0  0  0  0  0  0  0
   43.6680   33.5800   43.5990 H   0  0  0  0  0  0  0  0  0  0  0  0
   43.9660   30.5360   43.3620 H   0  0  0  0  0  0  0  0  0  0  0  0
   40.6780   32.8260   42.0050 H   0  0  0  0  0  0  0  0  0  0  0  0
   43.5230   33.3100   41.9690 H   0  0  0  0  0  0  0  0  0  0  0  0
  1  7  1  1  0  0  0
  1  2  1  0  0  0  0
  1  6  1  0  0  0  0
  2  9  1  0  0  0  0
  2  3  1  0  0  0  0
  3 11  1  0  0  0  0
  3  4  1  0  0  0  0
  4 13  1  0  0  0  0
  4 12  1  0  0  0  0
  5  4  1  0  0  0  0
  5 14  1  0  0  0  0
  5 15  1  0  0  0  0
  6 16  1  6  0  0  0
  6  5  1  0  0  0  0
  8  2  1  0  0  0  0
 10  3  1  0  0  0  0
 17 18  1  0  0  0  0
 18 19  2  0  0  0  0
 18 24  1  0  0  0  0
 19  1  1  0  0  0  0
 20 19  1  0  0  0  0
 21 20  2  0  0  0  0
 22 21  1  0  0  0  0
 22 17  2  0  0  0  0
 23 17  1  0  0  0  0
 25 21  1  0  0  0  0
 26  6  1  0  0  0  0
 26 31  1  0  0  0  0
 27 26  2  0  0  0  0
 28 27  1  0  0  0  0
 28 29  2  0  0  0  0
 29 30  1  0  0  0  0
 30 31  2  0  0  0  0
 30 35  1  0  0  0  0
 32 27  1  0  0  0  0
 33 28  1  0  0  0  0
 34 29  1  0  0  0  0
 35 39  1  0  0  0  0
 35 36  2  0  0  0  0
 37 42  1  0  0  0  0
 38 40  1  0  0  0  0
 38 37  2  0  0  0  0
 39 38  1  0  0  0  0
 40 41  1  0  0  0  0
 43 39  1  0  0  0  0
 44 40  1  0  0  0  0
M  END
>  <minimizedAffinity>
-6.04203939

$$$$

 OpenBabel03242516553D

 44 46  0  0  1  0  0  0  0  0999 V2000
   38.5590   25.1330   41.2890 C   0  0  1  0  0  0  0  0  0  0  0  0
   37.6260   24.0110   41.3800 C   0  0  0  0  0  0  0  0  0  0  0  0
   38.3100   22.8360   40.6870 C   0  0  0  0  0  0  0  0  0  0  0  0
   38.3400   23.1640   39.2010 C   0  0  0  0  0  0  0  0  0  0  0  0
   38.9720   24.4820   38.8760 C   0  0  0  0  0  0  0  0  0  0  0  0
   38.7910   25.5760   39.8400 C   0  0  1  0  0  0  0  0  0  0  0  0
   39.5880   24.7660   41.5920 H   0  0  0  0  0  0  0  0  0  0  0  0
   37.4350   23.7390   42.4160 H   0  0  0  0  0  0  0  0  0  0  0  0
   36.6800   24.1570   40.7960 H   0  0  0  0  0  0  0  0  0  0  0  0
   39.3350   22.6670   41.0960 H   0  0  0  0  0  0  0  0  0  0  0  0
   37.6680   21.9500   40.8000 H   0  0  0  0  0  0  0  0  0  0  0  0
   38.8790   22.3500   38.6870 H   0  0  0  0  0  0  0  0  0  0  0  0
   37.2780   23.1780   38.8670 H   0  0  0  0  0  0  0  0  0  0  0  0
   40.0480   24.2780   38.6620 H   0  0  0  0  0  0  0  0  0  0  0  0
   38.5460   24.7970   37.8980 H   0  0  0  0  0  0  0  0  0  0  0  0
   39.7590   26.1640   39.8840 H   0  0  0  0  0  0  0  0  0  0  0  0
   36.6500   27.5700   43.4600 C   0  0  0  0  0  0  0  0  0  0  0  0
   37.0100   26.4740   42.6620 C   0  0  0  0  0  0  0  0  0  0  0  0
   38.2800   26.2940   42.1070 C   0  0  0  0  0  0  0  0  0  0  0  0
   39.1680   27.2500   42.3810 N   0  0  0  0  0  0  0  0  0  0  0  0
   38.8390   28.3200   43.1520 C   0  0  0  0  0  0  0  0  0  0  0  0
   37.6290   28.4850   43.6780 N   0  0  0  0  0  0  0  0  0  0  0  0
   35.6280   27.5720   43.8200 H   0  0  0  0  0  0  0  0  0  0  0  0
   36.2690   25.7040   42.4510 H   0  0  0  0  0  0  0  0  0  0  0  0
   39.5690   29.1070   43.3780 H   0  0  0  0  0  0  0  0  0  0  0  0
   37.7910   26.5510   39.4070 C   0  0  0  0  0  0  0  0  0  0  0  0
   36.4430   26.2780   39.1270 C   0  0  0  0  0  0  0  0  0  0  0  0
   35.6690   27.3760   38.7460 C   0  0  0  0  0  0  0  0  0  0  0  0
   36.2800   28.6120   38.6770 C   0  0  0  0  0  0  0  0  0  0  0  0
   37.6080   28.8570   38.9570 C   0  0  0  0  0  0  0  0  0  0  0  0
   38.3570   27.7790   39.3290 N   0  0  0  0  0  0  0  0  0  0  0  0
   36.1260   25.2720   39.2270 H   0  0  0  0  0  0  0  0  0  0  0  0
   34.6370   27.1900   38.5270 H   0  0  0  0  0  0  0  0  0  0  0  0
   35.6130   29.4140   38.3740 H   0  0  0  0  0  0  0  0  0  0  0  0
   38.1740   30.2080   38.8630 C   0  0  0  0  0  0  0  0  0  0  0  0
   37.8510   31.0440   39.7490 O   0  0  0  0  0  0  0  0  0  0  0  0
   39.1820   32.8460   38.8150 N   0  0  0  0  0  0  0  0  0  0  0  0
   39.5360   32.0190   37.8900 C   0  0  0  0  0  0  0  0  0  0  0  0
   39.0720   30.6740   37.8430 N   0  0  0  0  0  0  0  0  0  0  0  0
   40.4260   32.4560   36.8660 N   0  0  0  0  0  0  0  0  0  0  0  0
   40.5320   33.0360   36.0200 H   0  0  0  0  0  0  0  0  0  0  0  0
   39.5490   33.8390   38.8140 H   0  0  0  0  0  0  0  0  0  0  0  0
   39.3300   29.9700   37.1160 H   0  0  0  0  0  0  0  0  0  0  0  0
   41.3660   32.0130   37.0250 H   0  0  0  0  0  0  0  0  0  0  0  0
  1  2  1  0  0  0  0
  1  7  1  1  0  0  0
  1 19  1  0  0  0  0
  2  8  1  0  0  0  0
  3 11  1  0  0  0  0
  3 10  1  0  0  0  0
  3  2  1  0  0  0  0
  4  3  1  0  0  0  0
  5  4  1  0  0  0  0
  5  6  1  0  0  0  0
  6 16  1  1  0  0  0
  6  1  1  0  0  0  0
  9  2  1  0  0  0  0
 12  4  1  0  0  0  0
 13  4  1  0  0  0  0
 14  5  1  0  0  0  0
 15  5  1  0  0  0  0
 17 22  1  0  0  0  0
 17 23  1  0  0  0  0
 18 17  2  0  0  0  0
 19 20  2  0  0  0  0
 19 18  1  0  0  0  0
 20 21  1  0  0  0  0
 21 25  1  0  0  0  0
 21 22  2  0  0  0  0
 24 18  1  0  0  0  0
 26  6  1  0  0  0  0
 27 32  1  0  0  0  0
 27 26  2  0  0  0  0
 28 27  1  0  0  0  0
 29 28  2  0  0  0  0
 29 30  1  0  0  0  0
 30 31  2  0  0  0  0
 31 26  1  0  0  0  0
 33 28  1  0  0  0  0
 34 29  1  0  0  0  0
 35 30  1  0  0  0  0
 35 36  2  0  0  0  0
 38 37  2  0  0  0  0
 39 38  1  0  0  0  0
 39 35  1  0  0  0  0
 40 44  1  0  0  0  0
 40 38  1  0  0  0  0
 41 40  1  0  0  0  0
 42 37  1  0  0  0  0
 43 39  1  0  0  0  0
M  END
>  <minimizedAffinity>
-5.99841356

$$$$
