
 OpenBabel03242520463D

 21 21  0  0  0  0  0  0  0  0999 V2000
   37.6190   28.2510   43.2660 C   0  0  0  0  0  0  0  0  0  0  0  0
   37.8750   29.4630   42.6160 C   0  0  0  0  0  0  0  0  0  0  0  0
   39.2040   29.7960   42.2940 C   0  0  0  0  0  0  0  0  0  0  0  0
   40.1620   28.9170   42.6360 N   0  0  0  0  0  0  0  0  0  0  0  0
   39.8830   27.7580   43.2620 C   0  0  0  0  0  0  0  0  0  0  0  0
   38.6240   27.4430   43.5660 N   0  0  0  0  0  0  0  0  0  0  0  0
   36.2830   27.9160   43.5890 N   0  0  0  0  0  0  0  0  0  0  0  0
   37.0430   30.1100   42.3790 H   0  0  0  0  0  0  0  0  0  0  0  0
   40.7120   27.0930   43.5080 H   0  0  0  0  0  0  0  0  0  0  0  0
   36.1920   28.3190   44.5600 H   0  0  0  0  0  0  0  0  0  0  0  0
   36.0410   27.4300   42.6980 H   0  0  0  0  0  0  0  0  0  0  0  0
   39.3540   31.0730   41.6240 C   0  0  0  0  0  0  0  0  0  0  0  0
   40.3990   31.7720   41.6920 O   0  0  0  0  0  0  0  0  0  0  0  0
   38.9080   33.7800   41.2870 N   0  0  0  0  0  0  0  0  0  0  0  0
   38.0700   33.0150   40.6690 C   0  0  0  0  0  0  0  0  0  0  0  0
   38.2780   31.6140   40.8280 N   0  0  0  0  0  0  0  0  0  0  0  0
   36.9670   33.3640   39.8540 N   0  0  0  0  0  0  0  0  0  0  0  0
   36.9770   32.9220   38.8860 H   0  0  0  0  0  0  0  0  0  0  0  0
   38.8500   34.8020   41.2410 H   0  0  0  0  0  0  0  0  0  0  0  0
   37.6630   30.8970   40.3760 H   0  0  0  0  0  0  0  0  0  0  0  0
   36.1210   33.9670   39.9730 H   0  0  0  0  0  0  0  0  0  0  0  0
  1  6  1  0  0  0  0
  1  7  1  0  0  0  0
  2  1  2  0  0  0  0
  3  2  1  0  0  0  0
  3  4  2  0  0  0  0
  4  5  1  0  0  0  0
  5  9  1  0  0  0  0
  5  6  2  0  0  0  0
  7 10  1  0  0  0  0
  8  2  1  0  0  0  0
 11  7  1  0  0  0  0
 12 13  2  0  0  0  0
 12  3  1  0  0  0  0
 15 16  1  0  0  0  0
 15 14  2  0  0  0  0
 16 12  1  0  0  0  0
 17 21  1  0  0  0  0
 17 15  1  0  0  0  0
 18 17  1  0  0  0  0
 19 14  1  0  0  0  0
 20 16  1  0  0  0  0
M  END
>  <minimizedAffinity>
-4.85405302

$$$$

 OpenBabel03242520463D

 21 21  0  0  0  0  0  0  0  0999 V2000
   39.5510   25.1380   43.1290 C   0  0  0  0  0  0  0  0  0  0  0  0
   38.4720   25.7220   42.4580 C   0  0  0  0  0  0  0  0  0  0  0  0
   38.3960   27.1250   42.3830 C   0  0  0  0  0  0  0  0  0  0  0  0
   39.3790   27.8300   42.9700 N   0  0  0  0  0  0  0  0  0  0  0  0
   40.4040   27.2370   43.6090 C   0  0  0  0  0  0  0  0  0  0  0  0
   40.4760   25.9080   43.6790 N   0  0  0  0  0  0  0  0  0  0  0  0
   39.6270   23.7260   43.2040 N   0  0  0  0  0  0  0  0  0  0  0  0
   37.7270   25.0780   42.0150 H   0  0  0  0  0  0  0  0  0  0  0  0
   41.1670   27.8740   44.0620 H   0  0  0  0  0  0  0  0  0  0  0  0
   39.1160   23.5340   44.1070 H   0  0  0  0  0  0  0  0  0  0  0  0
   40.1580   23.5680   42.3200 H   0  0  0  0  0  0  0  0  0  0  0  0
   37.2380   27.6220   41.6660 C   0  0  0  0  0  0  0  0  0  0  0  0
   36.6180   26.9480   40.8020 O   0  0  0  0  0  0  0  0  0  0  0  0
   35.9550   29.1610   39.7620 N   0  0  0  0  0  0  0  0  0  0  0  0
   36.0730   29.7240   40.9200 C   0  0  0  0  0  0  0  0  0  0  0  0
   36.7320   28.9500   41.9180 N   0  0  0  0  0  0  0  0  0  0  0  0
   35.6440   31.0040   41.3450 N   0  0  0  0  0  0  0  0  0  0  0  0
   35.0290   30.9970   42.2120 H   0  0  0  0  0  0  0  0  0  0  0  0
   35.4970   29.6280   38.9720 H   0  0  0  0  0  0  0  0  0  0  0  0
   36.8870   29.3010   42.8930 H   0  0  0  0  0  0  0  0  0  0  0  0
   35.7870   31.9830   41.0040 H   0  0  0  0  0  0  0  0  0  0  0  0
  1  7  1  0  0  0  0
  1  6  1  0  0  0  0
  2  1  2  0  0  0  0
  3  2  1  0  0  0  0
  3  4  2  0  0  0  0
  4  5  1  0  0  0  0
  5  6  2  0  0  0  0
  5  9  1  0  0  0  0
  7 10  1  0  0  0  0
  8  2  1  0  0  0  0
 11  7  1  0  0  0  0
 12 16  1  0  0  0  0
 12  3  1  0  0  0  0
 13 12  2  0  0  0  0
 14 15  2  0  0  0  0
 15 17  1  0  0  0  0
 15 16  1  0  0  0  0
 16 20  1  0  0  0  0
 17 18  1  0  0  0  0
 19 14  1  0  0  0  0
 21 17  1  0  0  0  0
M  END
>  <minimizedAffinity>
-4.79066038

$$$$

 OpenBabel03242520463D

 21 21  0  0  0  0  0  0  0  0999 V2000
   38.6190   25.4430   42.5820 C   0  0  0  0  0  0  0  0  0  0  0  0
   38.0170   26.5480   41.9720 C   0  0  0  0  0  0  0  0  0  0  0  0
   38.5110   27.8360   42.2550 C   0  0  0  0  0  0  0  0  0  0  0  0
   39.5470   27.9260   43.1070 N   0  0  0  0  0  0  0  0  0  0  0  0
   40.1040   26.8430   43.6780 C   0  0  0  0  0  0  0  0  0  0  0  0
   39.6360   25.6240   43.4100 N   0  0  0  0  0  0  0  0  0  0  0  0
   38.1220   24.1490   42.2970 N   0  0  0  0  0  0  0  0  0  0  0  0
   37.1880   26.3820   41.3000 H   0  0  0  0  0  0  0  0  0  0  0  0
   40.9430   26.9940   44.3600 H   0  0  0  0  0  0  0  0  0  0  0  0
   37.4020   24.0260   43.0590 H   0  0  0  0  0  0  0  0  0  0  0  0
   38.7190   23.9500   41.4660 H   0  0  0  0  0  0  0  0  0  0  0  0
   37.8130   28.9060   41.5700 C   0  0  0  0  0  0  0  0  0  0  0  0
   38.2470   30.0870   41.5080 O   0  0  0  0  0  0  0  0  0  0  0  0
   35.8290   30.8100   41.2860 N   0  0  0  0  0  0  0  0  0  0  0  0
   35.5470   29.6560   40.7760 C   0  0  0  0  0  0  0  0  0  0  0  0
   36.5540   28.6580   40.9100 N   0  0  0  0  0  0  0  0  0  0  0  0
   34.3760   29.2350   40.1010 N   0  0  0  0  0  0  0  0  0  0  0  0
   34.5490   28.8130   39.1390 H   0  0  0  0  0  0  0  0  0  0  0  0
   35.1770   31.5990   41.2450 H   0  0  0  0  0  0  0  0  0  0  0  0
   36.4380   27.6850   40.5370 H   0  0  0  0  0  0  0  0  0  0  0  0
   33.3540   29.2370   40.3210 H   0  0  0  0  0  0  0  0  0  0  0  0
  1  6  1  0  0  0  0
  2  3  1  0  0  0  0
  2  1  2  0  0  0  0
  3  4  2  0  0  0  0
  4  5  1  0  0  0  0
  5  9  1  0  0  0  0
  6  5  2  0  0  0  0
  7  1  1  0  0  0  0
  7 10  1  0  0  0  0
  8  2  1  0  0  0  0
 11  7  1  0  0  0  0
 12  3  1  0  0  0  0
 13 12  2  0  0  0  0
 15 16  1  0  0  0  0
 15 14  2  0  0  0  0
 16 12  1  0  0  0  0
 17 21  1  0  0  0  0
 17 15  1  0  0  0  0
 18 17  1  0  0  0  0
 19 14  1  0  0  0  0
 20 16  1  0  0  0  0
M  END
>  <minimizedAffinity>
-4.61626101

$$$$

 OpenBabel03242520463D

 21 21  0  0  0  0  0  0  0  0999 V2000
   36.0740   29.0580   35.2190 C   0  0  0  0  0  0  0  0  0  0  0  0
   36.4110   29.3340   36.5480 C   0  0  0  0  0  0  0  0  0  0  0  0
   35.4030   29.2940   37.5290 C   0  0  0  0  0  0  0  0  0  0  0  0
   34.1580   28.9880   37.1230 N   0  0  0  0  0  0  0  0  0  0  0  0
   33.8660   28.7280   35.8360 C   0  0  0  0  0  0  0  0  0  0  0  0
   34.8210   28.7660   34.9070 N   0  0  0  0  0  0  0  0  0  0  0  0
   37.0890   29.0980   34.2330 N   0  0  0  0  0  0  0  0  0  0  0  0
   37.4380   29.5700   36.7840 H   0  0  0  0  0  0  0  0  0  0  0  0
   32.8320   28.4870   35.5800 H   0  0  0  0  0  0  0  0  0  0  0  0
   37.0340   30.1020   33.9130 H   0  0  0  0  0  0  0  0  0  0  0  0
   37.3950   28.1040   34.3070 H   0  0  0  0  0  0  0  0  0  0  0  0
   35.8630   29.5960   38.8700 C   0  0  0  0  0  0  0  0  0  0  0  0
   35.7060   28.8170   39.8470 O   0  0  0  0  0  0  0  0  0  0  0  0
   35.7530   30.8830   41.3140 N   0  0  0  0  0  0  0  0  0  0  0  0
   36.4690   31.4830   40.4200 C   0  0  0  0  0  0  0  0  0  0  0  0
   36.5400   30.8390   39.1520 N   0  0  0  0  0  0  0  0  0  0  0  0
   37.1950   32.6940   40.5160 N   0  0  0  0  0  0  0  0  0  0  0  0
   38.2210   32.6150   40.2460 H   0  0  0  0  0  0  0  0  0  0  0  0
   35.6340   31.2580   42.2610 H   0  0  0  0  0  0  0  0  0  0  0  0
   37.0890   31.2310   38.3490 H   0  0  0  0  0  0  0  0  0  0  0  0
   36.9630   33.6750   40.7950 H   0  0  0  0  0  0  0  0  0  0  0  0
  1  2  1  0  0  0  0
  2  8  1  0  0  0  0
  2  3  2  0  0  0  0
  3 12  1  0  0  0  0
  4  3  1  0  0  0  0
  5  4  2  0  0  0  0
  6  1  2  0  0  0  0
  6  5  1  0  0  0  0
  7 11  1  0  0  0  0
  7  1  1  0  0  0  0
  9  5  1  0  0  0  0
 10  7  1  0  0  0  0
 12 16  1  0  0  0  0
 12 13  2  0  0  0  0
 14 19  1  0  0  0  0
 15 17  1  0  0  0  0
 15 14  2  0  0  0  0
 16 15  1  0  0  0  0
 17 21  1  0  0  0  0
 18 17  1  0  0  0  0
 20 16  1  0  0  0  0
M  END
>  <minimizedAffinity>
-4.5609231

$$$$

 OpenBabel03242520463D

 21 21  0  0  0  0  0  0  0  0999 V2000
   38.5760   27.8330   42.9250 C   0  0  0  0  0  0  0  0  0  0  0  0
   38.9770   29.0900   42.4610 C   0  0  0  0  0  0  0  0  0  0  0  0
   38.0650   29.8670   41.7220 C   0  0  0  0  0  0  0  0  0  0  0  0
   36.8460   29.3450   41.5020 N   0  0  0  0  0  0  0  0  0  0  0  0
   36.4900   28.1310   41.9620 C   0  0  0  0  0  0  0  0  0  0  0  0
   37.3540   27.3970   42.6620 N   0  0  0  0  0  0  0  0  0  0  0  0
   39.4930   27.0530   43.6680 N   0  0  0  0  0  0  0  0  0  0  0  0
   39.9770   29.4300   42.6850 H   0  0  0  0  0  0  0  0  0  0  0  0
   35.4820   27.7730   41.7450 H   0  0  0  0  0  0  0  0  0  0  0  0
   39.9600   26.4910   42.9060 H   0  0  0  0  0  0  0  0  0  0  0  0
   39.2540   27.4210   44.6150 H   0  0  0  0  0  0  0  0  0  0  0  0
   38.5850   31.1500   41.2910 C   0  0  0  0  0  0  0  0  0  0  0  0
   39.7050   31.5980   41.6520 O   0  0  0  0  0  0  0  0  0  0  0  0
   38.7320   33.9100   41.2960 N   0  0  0  0  0  0  0  0  0  0  0  0
   37.9130   33.4150   40.4270 C   0  0  0  0  0  0  0  0  0  0  0  0
   37.8190   31.9940   40.4060 N   0  0  0  0  0  0  0  0  0  0  0  0
   37.0880   34.0800   39.4900 N   0  0  0  0  0  0  0  0  0  0  0  0
   37.2160   33.7590   38.4830 H   0  0  0  0  0  0  0  0  0  0  0  0
   38.8770   34.9200   41.3960 H   0  0  0  0  0  0  0  0  0  0  0  0
   37.1870   31.4790   39.7460 H   0  0  0  0  0  0  0  0  0  0  0  0
   36.3630   34.8320   39.5440 H   0  0  0  0  0  0  0  0  0  0  0  0
  1  7  1  0  0  0  0
  2  8  1  0  0  0  0
  2  1  2  0  0  0  0
  3  2  1  0  0  0  0
  4  3  2  0  0  0  0
  4  5  1  0  0  0  0
  5  6  2  0  0  0  0
  6  1  1  0  0  0  0
  7 11  1  0  0  0  0
  9  5  1  0  0  0  0
 10  7  1  0  0  0  0
 12 13  2  0  0  0  0
 12  3  1  0  0  0  0
 14 19  1  0  0  0  0
 15 14  2  0  0  0  0
 16 15  1  0  0  0  0
 16 12  1  0  0  0  0
 17 21  1  0  0  0  0
 17 15  1  0  0  0  0
 18 17  1  0  0  0  0
 20 16  1  0  0  0  0
M  END
>  <minimizedAffinity>
-4.53729868

$$$$

 OpenBabel03242520463D

 21 21  0  0  0  0  0  0  0  0999 V2000
   36.7730   30.2450   41.1920 C   0  0  0  0  0  0  0  0  0  0  0  0
   37.5720   30.9260   40.2670 C   0  0  0  0  0  0  0  0  0  0  0  0
   38.9550   31.0320   40.5100 C   0  0  0  0  0  0  0  0  0  0  0  0
   39.4300   30.4650   41.6320 N   0  0  0  0  0  0  0  0  0  0  0  0
   38.6350   29.8170   42.5030 C   0  0  0  0  0  0  0  0  0  0  0  0
   37.3260   29.7170   42.2720 N   0  0  0  0  0  0  0  0  0  0  0  0
   35.3830   30.1390   40.9470 N   0  0  0  0  0  0  0  0  0  0  0  0
   37.1050   31.3500   39.3910 H   0  0  0  0  0  0  0  0  0  0  0  0
   39.0910   29.3820   43.3940 H   0  0  0  0  0  0  0  0  0  0  0  0
   35.0150   30.9960   41.4400 H   0  0  0  0  0  0  0  0  0  0  0  0
   35.4060   29.2540   40.3950 H   0  0  0  0  0  0  0  0  0  0  0  0
   39.6860   31.7560   39.4880 C   0  0  0  0  0  0  0  0  0  0  0  0
   39.5400   32.9880   39.2760 O   0  0  0  0  0  0  0  0  0  0  0  0
   40.2520   32.5150   36.8910 N   0  0  0  0  0  0  0  0  0  0  0  0
   40.9140   31.4860   37.3090 C   0  0  0  0  0  0  0  0  0  0  0  0
   40.6390   31.0750   38.6450 N   0  0  0  0  0  0  0  0  0  0  0  0
   41.8760   30.7010   36.6300 N   0  0  0  0  0  0  0  0  0  0  0  0
   42.8050   30.6030   37.1410 H   0  0  0  0  0  0  0  0  0  0  0  0
   40.3720   32.8950   35.9470 H   0  0  0  0  0  0  0  0  0  0  0  0
   41.1130   30.2540   39.0920 H   0  0  0  0  0  0  0  0  0  0  0  0
   41.8990   30.1790   35.7240 H   0  0  0  0  0  0  0  0  0  0  0  0
  1  6  1  0  0  0  0
  2  3  1  0  0  0  0
  2  1  2  0  0  0  0
  3  4  2  0  0  0  0
  4  5  1  0  0  0  0
  5  9  1  0  0  0  0
  6  5  2  0  0  0  0
  7  1  1  0  0  0  0
  7 10  1  0  0  0  0
  8  2  1  0  0  0  0
 11  7  1  0  0  0  0
 12  3  1  0  0  0  0
 13 12  2  0  0  0  0
 14 15  2  0  0  0  0
 15 16  1  0  0  0  0
 16 20  1  0  0  0  0
 16 12  1  0  0  0  0
 17 18  1  0  0  0  0
 17 15  1  0  0  0  0
 19 14  1  0  0  0  0
 21 17  1  0  0  0  0
M  END
>  <minimizedAffinity>
-4.47182465

$$$$

 OpenBabel03242520463D

 21 21  0  0  0  0  0  0  0  0999 V2000
   39.7490   32.2830   38.3780 C   0  0  0  0  0  0  0  0  0  0  0  0
   38.9810   31.3910   39.1330 C   0  0  0  0  0  0  0  0  0  0  0  0
   39.0400   31.4610   40.5380 C   0  0  0  0  0  0  0  0  0  0  0  0
   39.8440   32.3930   41.0760 N   0  0  0  0  0  0  0  0  0  0  0  0
   40.5720   33.2370   40.3220 C   0  0  0  0  0  0  0  0  0  0  0  0
   40.5150   33.1710   38.9920 N   0  0  0  0  0  0  0  0  0  0  0  0
   39.6880   32.2120   36.9650 N   0  0  0  0  0  0  0  0  0  0  0  0
   38.3610   30.6730   38.6160 H   0  0  0  0  0  0  0  0  0  0  0  0
   41.2030   33.9690   40.8290 H   0  0  0  0  0  0  0  0  0  0  0  0
   40.4750   31.5410   36.7530 H   0  0  0  0  0  0  0  0  0  0  0  0
   38.8880   32.8660   36.8270 H   0  0  0  0  0  0  0  0  0  0  0  0
   38.2050   30.4910   41.2190 C   0  0  0  0  0  0  0  0  0  0  0  0
   36.9540   30.6010   41.3140 O   0  0  0  0  0  0  0  0  0  0  0  0
   37.1410   29.2410   43.4430 N   0  0  0  0  0  0  0  0  0  0  0  0
   38.2200   28.6970   42.9830 C   0  0  0  0  0  0  0  0  0  0  0  0
   38.7880   29.3250   41.8370 N   0  0  0  0  0  0  0  0  0  0  0  0
   38.9270   27.5650   43.4540 N   0  0  0  0  0  0  0  0  0  0  0  0
   39.0960   26.8140   42.7190 H   0  0  0  0  0  0  0  0  0  0  0  0
   36.6500   28.8700   44.2630 H   0  0  0  0  0  0  0  0  0  0  0  0
   39.6620   28.9750   41.3760 H   0  0  0  0  0  0  0  0  0  0  0  0
   39.3350   27.2770   44.3730 H   0  0  0  0  0  0  0  0  0  0  0  0
  1  6  2  0  0  0  0
  1  2  1  0  0  0  0
  2  3  2  0  0  0  0
  3  4  1  0  0  0  0
  3 12  1  0  0  0  0
  5  9  1  0  0  0  0
  5  4  2  0  0  0  0
  6  5  1  0  0  0  0
  7  1  1  0  0  0  0
  8  2  1  0  0  0  0
 10  7  1  0  0  0  0
 11  7  1  0  0  0  0
 12 13  2  0  0  0  0
 12 16  1  0  0  0  0
 14 19  1  0  0  0  0
 15 14  2  0  0  0  0
 15 17  1  0  0  0  0
 16 15  1  0  0  0  0
 17 21  1  0  0  0  0
 18 17  1  0  0  0  0
 20 16  1  0  0  0  0
M  END
>  <minimizedAffinity>
-4.42764854

$$$$

 OpenBabel03242520463D

 21 21  0  0  0  0  0  0  0  0999 V2000
   41.0050   31.1840   37.5290 C   0  0  0  0  0  0  0  0  0  0  0  0
   39.7980   30.7540   38.0890 C   0  0  0  0  0  0  0  0  0  0  0  0
   39.1130   31.6110   38.9710 C   0  0  0  0  0  0  0  0  0  0  0  0
   39.6690   32.8080   39.2250 N   0  0  0  0  0  0  0  0  0  0  0  0
   40.8320   33.1930   38.6700 C   0  0  0  0  0  0  0  0  0  0  0  0
   41.4800   32.3820   37.8340 N   0  0  0  0  0  0  0  0  0  0  0  0
   41.6940   30.3220   36.6420 N   0  0  0  0  0  0  0  0  0  0  0  0
   39.4250   29.7750   37.8280 H   0  0  0  0  0  0  0  0  0  0  0  0
   41.2230   34.1810   38.9220 H   0  0  0  0  0  0  0  0  0  0  0  0
   42.3260   29.7980   37.3040 H   0  0  0  0  0  0  0  0  0  0  0  0
   41.2330   30.6330   35.7590 H   0  0  0  0  0  0  0  0  0  0  0  0
   37.8760   31.0650   39.4920 C   0  0  0  0  0  0  0  0  0  0  0  0
   36.7590   31.2250   38.9330 O   0  0  0  0  0  0  0  0  0  0  0  0
   35.7310   30.9650   41.2340 N   0  0  0  0  0  0  0  0  0  0  0  0
   36.7510   30.2570   41.5930 C   0  0  0  0  0  0  0  0  0  0  0  0
   37.8700   30.2930   40.7120 N   0  0  0  0  0  0  0  0  0  0  0  0
   36.9230   29.4480   42.7410 N   0  0  0  0  0  0  0  0  0  0  0  0
   37.2090   28.4440   42.5350 H   0  0  0  0  0  0  0  0  0  0  0  0
   34.8740   31.0110   41.7940 H   0  0  0  0  0  0  0  0  0  0  0  0
   38.7530   29.7600   40.8980 H   0  0  0  0  0  0  0  0  0  0  0  0
   36.8350   29.5980   43.7730 H   0  0  0  0  0  0  0  0  0  0  0  0
  1  6  2  0  0  0  0
  1  2  1  0  0  0  0
  2  3  2  0  0  0  0
  3  4  1  0  0  0  0
  3 12  1  0  0  0  0
  5  9  1  0  0  0  0
  5  4  2  0  0  0  0
  6  5  1  0  0  0  0
  7 10  1  0  0  0  0
  7  1  1  0  0  0  0
  8  2  1  0  0  0  0
 11  7  1  0  0  0  0
 12 16  1  0  0  0  0
 13 12  2  0  0  0  0
 14 15  2  0  0  0  0
 14 19  1  0  0  0  0
 15 17  1  0  0  0  0
 16 20  1  0  0  0  0
 16 15  1  0  0  0  0
 17 21  1  0  0  0  0
 18 17  1  0  0  0  0
M  END
>  <minimizedAffinity>
-4.42395544

$$$$

 OpenBabel03242520463D

 21 21  0  0  0  0  0  0  0  0999 V2000
   36.8610   30.1760   41.1690 C   0  0  0  0  0  0  0  0  0  0  0  0
   37.1110   29.0140   41.9070 C   0  0  0  0  0  0  0  0  0  0  0  0
   38.3200   28.3230   41.7010 C   0  0  0  0  0  0  0  0  0  0  0  0
   39.1730   28.8280   40.7930 N   0  0  0  0  0  0  0  0  0  0  0  0
   38.9020   29.9470   40.0980 C   0  0  0  0  0  0  0  0  0  0  0  0
   37.7580   30.6020   40.2940 N   0  0  0  0  0  0  0  0  0  0  0  0
   35.6450   30.8710   41.3770 N   0  0  0  0  0  0  0  0  0  0  0  0
   36.3680   28.6810   42.6170 H   0  0  0  0  0  0  0  0  0  0  0  0
   39.6430   30.2980   39.3760 H   0  0  0  0  0  0  0  0  0  0  0  0
   35.0180   30.4210   40.6570 H   0  0  0  0  0  0  0  0  0  0  0  0
   35.9710   31.4930   42.1480 H   0  0  0  0  0  0  0  0  0  0  0  0
   38.4750   27.1360   42.5180 C   0  0  0  0  0  0  0  0  0  0  0  0
   38.9630   27.1530   43.6790 O   0  0  0  0  0  0  0  0  0  0  0  0
   39.6720   24.7570   43.2600 N   0  0  0  0  0  0  0  0  0  0  0  0
   38.6980   24.6310   42.4200 C   0  0  0  0  0  0  0  0  0  0  0  0
   38.0650   25.8440   42.0210 N   0  0  0  0  0  0  0  0  0  0  0  0
   38.1650   23.4600   41.8310 N   0  0  0  0  0  0  0  0  0  0  0  0
   37.1160   23.3390   41.9610 H   0  0  0  0  0  0  0  0  0  0  0  0
   40.1960   23.9500   43.6130 H   0  0  0  0  0  0  0  0  0  0  0  0
   37.2650   25.8680   41.3440 H   0  0  0  0  0  0  0  0  0  0  0  0
   38.5610   22.6610   41.2850 H   0  0  0  0  0  0  0  0  0  0  0  0
  1  7  1  0  0  0  0
  1  2  1  0  0  0  0
  2  8  1  0  0  0  0
  3  2  2  0  0  0  0
  3 12  1  0  0  0  0
  4  3  1  0  0  0  0
  5  6  1  0  0  0  0
  5  4  2  0  0  0  0
  6  1  2  0  0  0  0
  7 11  1  0  0  0  0
  9  5  1  0  0  0  0
 10  7  1  0  0  0  0
 12 13  2  0  0  0  0
 14 19  1  0  0  0  0
 15 14  2  0  0  0  0
 16 15  1  0  0  0  0
 16 12  1  0  0  0  0
 17 18  1  0  0  0  0
 17 15  1  0  0  0  0
 20 16  1  0  0  0  0
 21 17  1  0  0  0  0
M  END
>  <minimizedAffinity>
-4.40203857

$$$$
