
 OpenBabel03242523173D

 26 27  0  0  0  0  0  0  0  0999 V2000
   46.0340   34.3540   43.8420 C   0  0  0  0  0  0  0  0  0  0  0  0
   47.1910   33.7910   43.4130 C   0  0  0  0  0  0  0  0  0  0  0  0
   47.7280   32.8160   44.2310 C   0  0  0  0  0  0  0  0  0  0  0  0
   47.0460   32.5030   45.4050 N   0  0  0  0  0  0  0  0  0  0  0  0
   45.9220   33.0820   45.7790 C   0  0  0  0  0  0  0  0  0  0  0  0
   45.3670   34.0530   44.9860 N   0  0  0  0  0  0  0  0  0  0  0  0
   48.6480   32.3030   43.9840 H   0  0  0  0  0  0  0  0  0  0  0  0
   45.5540   32.6970   46.7200 H   0  0  0  0  0  0  0  0  0  0  0  0
   45.2040   35.3140   43.1320 C   0  0  0  0  0  0  0  0  0  0  0  0
   44.9180   36.4800   42.9030 O   0  0  0  0  0  0  0  0  0  0  0  0
   42.5870   36.0580   41.6940 N   0  0  0  0  0  0  0  0  0  0  0  0
   43.1440   34.9320   41.7400 C   0  0  0  0  0  0  0  0  0  0  0  0
   44.3240   34.4530   42.3500 N   0  0  0  0  0  0  0  0  0  0  0  0
   42.1630   34.2370   40.9360 N   0  0  0  0  0  0  0  0  0  0  0  0
   42.2170   33.8990   39.9330 H   0  0  0  0  0  0  0  0  0  0  0  0
   42.8530   36.9410   42.1010 H   0  0  0  0  0  0  0  0  0  0  0  0
   44.3460   33.4180   42.0840 H   0  0  0  0  0  0  0  0  0  0  0  0
   41.1910   33.9240   41.1830 H   0  0  0  0  0  0  0  0  0  0  0  0
   47.9080   34.1660   42.2520 C   0  0  0  0  0  0  0  0  0  0  0  0
   48.1910   35.3840   41.7290 C   0  0  0  0  0  0  0  0  0  0  0  0
   49.3890   34.7140   42.4010 C   0  0  0  0  0  0  0  0  0  0  0  0
   48.1820   33.1770   41.6710 H   0  0  0  0  0  0  0  0  0  0  0  0
   48.3830   35.5670   40.6360 H   0  0  0  0  0  0  0  0  0  0  0  0
   47.8970   36.3480   42.2280 H   0  0  0  0  0  0  0  0  0  0  0  0
   49.6570   35.0000   43.4380 H   0  0  0  0  0  0  0  0  0  0  0  0
   50.1770   34.3150   41.7900 H   0  0  0  0  0  0  0  0  0  0  0  0
  1  6  1  0  0  0  0
  2  1  2  0  0  0  0
  2  3  1  0  0  0  0
  3  4  2  0  0  0  0
  4  5  1  0  0  0  0
  5  8  1  0  0  0  0
  6  5  2  0  0  0  0
  7  3  1  0  0  0  0
  9  1  1  0  0  0  0
 10  9  2  0  0  0  0
 11 12  2  0  0  0  0
 11 16  1  0  0  0  0
 12 13  1  0  0  0  0
 13  9  1  0  0  0  0
 14 18  1  0  0  0  0
 14 12  1  0  0  0  0
 15 14  1  0  0  0  0
 17 13  1  0  0  0  0
 19 21  1  0  0  0  0
 19  2  1  0  0  0  0
 20 24  1  0  0  0  0
 20 19  1  0  0  0  0
 20 21  1  0  0  0  0
 21 25  1  0  0  0  0
 22 19  1  0  0  0  0
 23 20  1  0  0  0  0
 26 21  1  0  0  0  0
M  END
>  <minimizedAffinity>
-4.557796

>  <minimizedRMSD>
0.875415623

$$$$
