
 OpenBabel03242523553D

 44 46  0  0  1  0  0  0  0  0999 V2000
   42.7950   34.4590   38.7940 C   0  0  1  0  0  0  0  0  0  0  0  0
   42.9630   35.1780   40.1240 C   0  0  1  0  0  0  0  0  0  0  0  0
   41.6750   35.4520   40.6390 O   0  0  0  0  0  0  0  0  0  0  0  0
   40.7530   35.7760   39.6360 C   0  0  0  0  0  0  0  0  0  0  0  0
   40.4180   34.5750   38.7750 C   0  0  2  0  0  0  0  0  0  0  0  0
   41.6050   33.5730   38.9470 C   0  0  1  0  0  0  0  0  0  0  0  0
   43.7280   33.8870   38.6230 H   0  0  0  0  0  0  0  0  0  0  0  0
   43.5570   36.0970   40.0490 H   0  0  0  0  0  0  0  0  0  0  0  0
   39.8430   36.0750   40.1540 H   0  0  0  0  0  0  0  0  0  0  0  0
   41.0690   36.6550   39.0360 H   0  0  0  0  0  0  0  0  0  0  0  0
   39.4680   34.0960   39.0830 H   0  0  0  0  0  0  0  0  0  0  0  0
   41.3910   33.3440   40.0440 H   0  0  0  0  0  0  0  0  0  0  0  0
   42.5990   35.3880   37.7540 O   0  0  0  0  0  0  0  0  0  0  0  0
   43.4480   35.4830   37.2910 H   0  0  0  0  0  0  0  0  0  0  0  0
   40.4400   34.9360   37.4370 O   0  0  0  0  0  0  0  0  0  0  0  0
   39.7040   34.4600   36.9580 H   0  0  0  0  0  0  0  0  0  0  0  0
   43.4760   34.2140   41.0020 O   0  0  0  0  0  0  0  0  0  0  0  0
   44.5890   34.3550   41.7310 C   0  0  0  0  0  0  0  0  0  0  0  0
   45.8410   34.4540   41.1240 C   0  0  0  0  0  0  0  0  0  0  0  0
   46.9680   34.6000   41.9070 C   0  0  0  0  0  0  0  0  0  0  0  0
   46.8200   34.6440   43.2850 N   0  0  0  0  0  0  0  0  0  0  0  0
   45.5940   34.5450   43.8430 C   0  0  0  0  0  0  0  0  0  0  0  0
   44.4860   34.4030   43.0700 N   0  0  0  0  0  0  0  0  0  0  0  0
   45.9290   34.4160   40.0470 H   0  0  0  0  0  0  0  0  0  0  0  0
   45.4770   34.5810   44.9250 H   0  0  0  0  0  0  0  0  0  0  0  0
   48.3430   34.6920   41.3190 C   0  0  0  0  0  0  0  0  0  0  0  0
   49.0750   36.0200   41.5000 C   0  0  0  0  0  0  0  0  0  0  0  0
   49.5010   34.6930   42.1600 C   0  0  0  0  0  0  0  0  0  0  0  0
   48.3650   34.3110   40.2760 H   0  0  0  0  0  0  0  0  0  0  0  0
   48.5800   36.7780   42.1050 H   0  0  0  0  0  0  0  0  0  0  0  0
   49.6890   36.3580   40.6690 H   0  0  0  0  0  0  0  0  0  0  0  0
   49.3720   34.7210   43.2680 H   0  0  0  0  0  0  0  0  0  0  0  0
   50.4850   34.2660   41.8800 H   0  0  0  0  0  0  0  0  0  0  0  0
   41.4510   32.5920   38.0360 O   0  0  0  0  0  0  0  0  0  0  0  0
   40.7460   31.4650   38.0480 C   0  0  0  0  0  0  0  0  0  0  0  0
   39.5680   31.3720   37.4420 O   0  0  0  0  0  0  0  0  0  0  0  0
   40.6420   30.6750   40.9570 N   0  0  0  0  0  0  0  0  0  0  0  0
   40.9380   29.9220   40.0330 C   0  0  0  0  0  0  0  0  0  0  0  0
   41.0290   30.1590   38.6530 N   0  0  0  0  0  0  0  0  0  0  0  0
   41.2230   28.6000   40.5410 N   0  0  0  0  0  0  0  0  0  0  0  0
   40.8130   27.7050   40.1990 H   0  0  0  0  0  0  0  0  0  0  0  0
   40.3880   31.6280   41.0310 H   0  0  0  0  0  0  0  0  0  0  0  0
   41.2980   29.3580   38.0620 H   0  0  0  0  0  0  0  0  0  0  0  0
   41.8600   28.2960   41.3090 H   0  0  0  0  0  0  0  0  0  0  0  0
  1  7  1  6  0  0  0
  1  6  1  0  0  0  0
  1  2  1  0  0  0  0
  2  8  1  6  0  0  0
  2  3  1  0  0  0  0
  2 17  1  0  0  0  0
  4  9  1  0  0  0  0
  4  3  1  0  0  0  0
  5  6  1  0  0  0  0
  5 11  1  1  0  0  0
  5  4  1  0  0  0  0
  6 12  1  1  0  0  0
 10  4  1  0  0  0  0
 13  1  1  0  0  0  0
 14 13  1  0  0  0  0
 15  5  1  0  0  0  0
 16 15  1  0  0  0  0
 17 18  1  0  0  0  0
 18 23  1  0  0  0  0
 19 18  2  0  0  0  0
 19 20  1  0  0  0  0
 20 21  2  0  0  0  0
 21 22  1  0  0  0  0
 22 25  1  0  0  0  0
 23 22  2  0  0  0  0
 24 19  1  0  0  0  0
 26 27  1  0  0  0  0
 26 20  1  0  0  0  0
 26 28  1  0  0  0  0
 27 30  1  0  0  0  0
 27 28  1  0  0  0  0
 28 32  1  0  0  0  0
 29 26  1  0  0  0  0
 31 27  1  0  0  0  0
 33 28  1  0  0  0  0
 34 35  1  0  0  0  0
 34  6  1  0  0  0  0
 35 39  1  0  0  0  0
 36 35  2  0  0  0  0
 37 42  1  0  0  0  0
 38 40  1  0  0  0  0
 38 37  2  0  0  0  0
 39 38  1  0  0  0  0
 40 44  1  0  0  0  0
 41 40  1  0  0  0  0
 43 39  1  0  0  0  0
M  END
>  <minimizedAffinity>
-5.96679688

>  <minimizedRMSD>
0.405223966

$$$$
