
 OpenBabel03242516543D

 44 46  0  0  1  0  0  0  0  0999 V2000
   47.8580   32.9040   41.8440 C   0  0  1  0  0  0  0  0  0  0  0  0
   47.5480   32.2820   40.5570 C   0  0  0  0  0  0  0  0  0  0  0  0
   48.5790   32.8210   39.5700 C   0  0  0  0  0  0  0  0  0  0  0  0
   48.2470   34.2910   39.3530 C   0  0  0  0  0  0  0  0  0  0  0  0
   48.1700   35.0960   40.6130 C   0  0  0  0  0  0  0  0  0  0  0  0
   47.6600   34.4240   41.8160 C   0  0  1  0  0  0  0  0  0  0  0  0
   48.9750   32.8140   42.0230 H   0  0  0  0  0  0  0  0  0  0  0  0
   47.6480   31.2000   40.6080 H   0  0  0  0  0  0  0  0  0  0  0  0
   46.5640   32.6000   40.1250 H   0  0  0  0  0  0  0  0  0  0  0  0
   49.6170   32.6820   39.9530 H   0  0  0  0  0  0  0  0  0  0  0  0
   48.4230   32.3190   38.6030 H   0  0  0  0  0  0  0  0  0  0  0  0
   49.0130   34.7140   38.6810 H   0  0  0  0  0  0  0  0  0  0  0  0
   47.2550   34.3120   38.8480 H   0  0  0  0  0  0  0  0  0  0  0  0
   49.1820   35.5390   40.7730 H   0  0  0  0  0  0  0  0  0  0  0  0
   47.5150   35.9650   40.3870 H   0  0  0  0  0  0  0  0  0  0  0  0
   48.2580   34.7960   42.7030 H   0  0  0  0  0  0  0  0  0  0  0  0
   45.4340   30.9160   43.9580 C   0  0  0  0  0  0  0  0  0  0  0  0
   46.1250   31.4870   42.8790 C   0  0  0  0  0  0  0  0  0  0  0  0
   47.2100   32.3570   43.0170 C   0  0  0  0  0  0  0  0  0  0  0  0
   47.5720   32.6300   44.2710 N   0  0  0  0  0  0  0  0  0  0  0  0
   46.9150   32.0870   45.3310 C   0  0  0  0  0  0  0  0  0  0  0  0
   45.8840   31.2600   45.1920 N   0  0  0  0  0  0  0  0  0  0  0  0
   44.6140   30.2590   43.6940 H   0  0  0  0  0  0  0  0  0  0  0  0
   45.8140   31.2500   41.8620 H   0  0  0  0  0  0  0  0  0  0  0  0
   47.2110   32.3120   46.3620 H   0  0  0  0  0  0  0  0  0  0  0  0
   46.2790   34.7930   42.1260 C   0  0  0  0  0  0  0  0  0  0  0  0
   45.8350   35.3930   43.3140 C   0  0  0  0  0  0  0  0  0  0  0  0
   44.4680   35.6710   43.3780 C   0  0  0  0  0  0  0  0  0  0  0  0
   43.6830   35.3400   42.2910 C   0  0  0  0  0  0  0  0  0  0  0  0
   44.1430   34.7500   41.1330 C   0  0  0  0  0  0  0  0  0  0  0  0
   45.4790   34.4820   41.0780 N   0  0  0  0  0  0  0  0  0  0  0  0
   46.5650   35.5840   44.0580 H   0  0  0  0  0  0  0  0  0  0  0  0
   44.1070   36.1300   44.2760 H   0  0  0  0  0  0  0  0  0  0  0  0
   42.6340   35.5880   42.4170 H   0  0  0  0  0  0  0  0  0  0  0  0
   43.2360   34.4370   40.0210 C   0  0  0  0  0  0  0  0  0  0  0  0
   42.3190   35.2610   39.7600 O   0  0  0  0  0  0  0  0  0  0  0  0
   41.4150   33.9720   37.9130 N   0  0  0  0  0  0  0  0  0  0  0  0
   42.3400   33.1050   38.1490 C   0  0  0  0  0  0  0  0  0  0  0  0
   43.2960   33.2650   39.1930 N   0  0  0  0  0  0  0  0  0  0  0  0
   42.4210   31.9320   37.3420 N   0  0  0  0  0  0  0  0  0  0  0  0
   41.9930   31.0220   37.1170 H   0  0  0  0  0  0  0  0  0  0  0  0
   40.7230   33.8160   37.1270 H   0  0  0  0  0  0  0  0  0  0  0  0
   44.0600   32.5920   39.4220 H   0  0  0  0  0  0  0  0  0  0  0  0
   43.2570   32.0160   36.7100 H   0  0  0  0  0  0  0  0  0  0  0  0
  1  7  1  1  0  0  0
  1 19  1  0  0  0  0
  2  8  1  0  0  0  0
  2  1  1  0  0  0  0
  3 10  1  0  0  0  0
  3  2  1  0  0  0  0
  4  3  1  0  0  0  0
  4  5  1  0  0  0  0
  5 14  1  0  0  0  0
  5  6  1  0  0  0  0
  6  1  1  0  0  0  0
  6 26  1  0  0  0  0
  6 16  1  1  0  0  0
  9  2  1  0  0  0  0
 11  3  1  0  0  0  0
 12  4  1  0  0  0  0
 13  4  1  0  0  0  0
 15  5  1  0  0  0  0
 17 22  1  0  0  0  0
 18 19  1  0  0  0  0
 18 17  2  0  0  0  0
 19 20  2  0  0  0  0
 20 21  1  0  0  0  0
 21 25  1  0  0  0  0
 22 21  2  0  0  0  0
 23 17  1  0  0  0  0
 24 18  1  0  0  0  0
 26 27  1  0  0  0  0
 27 28  2  0  0  0  0
 27 32  1  0  0  0  0
 28 33  1  0  0  0  0
 29 34  1  0  0  0  0
 29 28  1  0  0  0  0
 30 29  2  0  0  0  0
 31 30  1  0  0  0  0
 31 26  2  0  0  0  0
 35 30  1  0  0  0  0
 36 35  2  0  0  0  0
 37 38  2  0  0  0  0
 38 39  1  0  0  0  0
 39 43  1  0  0  0  0
 39 35  1  0  0  0  0
 40 38  1  0  0  0  0
 41 40  1  0  0  0  0
 42 37  1  0  0  0  0
 44 40  1  0  0  0  0
M  END
>  <minimizedAffinity>
-5.78123569

>  <minimizedRMSD>
0.26990214

$$$$
