
 OpenBabel03242512283D

 21 21  0  0  0  0  0  0  0  0999 V2000
   45.0920   34.9540   44.4020 C   0  0  0  0  0  0  0  0  0  0  0  0
   46.1100   34.7740   43.4590 C   0  0  0  0  0  0  0  0  0  0  0  0
   47.0780   33.7950   43.7190 C   0  0  0  0  0  0  0  0  0  0  0  0
   46.9680   33.0900   44.8600 N   0  0  0  0  0  0  0  0  0  0  0  0
   45.9800   33.2870   45.7450 C   0  0  0  0  0  0  0  0  0  0  0  0
   45.0400   34.2150   45.5240 N   0  0  0  0  0  0  0  0  0  0  0  0
   44.0930   35.9470   44.1550 N   0  0  0  0  0  0  0  0  0  0  0  0
   46.1670   35.3520   42.5600 H   0  0  0  0  0  0  0  0  0  0  0  0
   47.8950   33.5990   43.0340 H   0  0  0  0  0  0  0  0  0  0  0  0
   43.0680   35.8720   44.3370 H   0  0  0  0  0  0  0  0  0  0  0  0
   44.4420   36.8350   43.7520 H   0  0  0  0  0  0  0  0  0  0  0  0
   45.8890   32.5080   46.9720 C   0  0  0  0  0  0  0  0  0  0  0  0
   45.1950   32.8710   47.9650 O   0  0  0  0  0  0  0  0  0  0  0  0
   47.8480   32.0210   48.8760 N   0  0  0  0  0  0  0  0  0  0  0  0
   47.6210   31.0530   48.0360 C   0  0  0  0  0  0  0  0  0  0  0  0
   46.6190   31.2780   47.0500 N   0  0  0  0  0  0  0  0  0  0  0  0
   48.2710   29.7750   47.9930 N   0  0  0  0  0  0  0  0  0  0  0  0
   47.5740   29.1680   48.5110 H   0  0  0  0  0  0  0  0  0  0  0  0
   48.5810   31.9070   49.6290 H   0  0  0  0  0  0  0  0  0  0  0  0
   46.3910   30.5220   46.3360 H   0  0  0  0  0  0  0  0  0  0  0  0
   49.1740   29.4490   47.5890 H   0  0  0  0  0  0  0  0  0  0  0  0
  1  6  1  0  0  0  0
  2  3  1  0  0  0  0
  2  1  2  0  0  0  0
  3  4  2  0  0  0  0
  4  5  1  0  0  0  0
  5 12  1  0  0  0  0
  6  5  2  0  0  0  0
  7 10  1  0  0  0  0
  7  1  1  0  0  0  0
  8  2  1  0  0  0  0
  9  3  1  0  0  0  0
 11  7  1  0  0  0  0
 12 16  1  0  0  0  0
 12 13  2  0  0  0  0
 14 19  1  0  0  0  0
 15 14  2  0  0  0  0
 16 15  1  0  0  0  0
 17 15  1  0  0  0  0
 17 18  1  0  0  0  0
 20 16  1  0  0  0  0
 21 17  1  0  0  0  0
M  END
>  <minimizedAffinity>
-4.35298777

>  <minimizedRMSD>
0.908548832

$$$$
