
 OpenBabel03242512273D

 21 21  0  0  0  0  0  0  0  0999 V2000
   44.9200   35.0220   44.4220 C   0  0  0  0  0  0  0  0  0  0  0  0
   45.8630   34.9560   43.3910 C   0  0  0  0  0  0  0  0  0  0  0  0
   46.9550   34.0930   43.5560 C   0  0  0  0  0  0  0  0  0  0  0  0
   47.0270   33.3830   44.6960 N   0  0  0  0  0  0  0  0  0  0  0  0
   46.1060   33.4690   45.6670 C   0  0  0  0  0  0  0  0  0  0  0  0
   45.0530   34.2840   45.5380 N   0  0  0  0  0  0  0  0  0  0  0  0
   43.7980   35.8970   44.2730 N   0  0  0  0  0  0  0  0  0  0  0  0
   45.7750   35.5350   42.4950 H   0  0  0  0  0  0  0  0  0  0  0  0
   47.7250   33.9890   42.7990 H   0  0  0  0  0  0  0  0  0  0  0  0
   42.8080   35.7070   44.5450 H   0  0  0  0  0  0  0  0  0  0  0  0
   44.0080   36.8180   43.8480 H   0  0  0  0  0  0  0  0  0  0  0  0
   46.2140   32.6870   46.8910 C   0  0  0  0  0  0  0  0  0  0  0  0
   45.4560   32.8660   47.8880 O   0  0  0  0  0  0  0  0  0  0  0  0
   46.3300   30.5360   45.1440 N   0  0  0  0  0  0  0  0  0  0  0  0
   47.2610   30.5780   46.0520 C   0  0  0  0  0  0  0  0  0  0  0  0
   47.2230   31.6740   46.9620 N   0  0  0  0  0  0  0  0  0  0  0  0
   48.3300   29.6390   46.2400 N   0  0  0  0  0  0  0  0  0  0  0  0
   49.1270   30.1270   45.7420 H   0  0  0  0  0  0  0  0  0  0  0  0
   46.3110   29.7440   44.4420 H   0  0  0  0  0  0  0  0  0  0  0  0
   47.9590   31.7610   47.7250 H   0  0  0  0  0  0  0  0  0  0  0  0
   48.3890   28.7170   46.7190 H   0  0  0  0  0  0  0  0  0  0  0  0
  1  6  1  0  0  0  0
  2  3  1  0  0  0  0
  2  1  2  0  0  0  0
  3  4  2  0  0  0  0
  4  5  1  0  0  0  0
  5 12  1  0  0  0  0
  6  5  2  0  0  0  0
  7  1  1  0  0  0  0
  7 10  1  0  0  0  0
  8  2  1  0  0  0  0
  9  3  1  0  0  0  0
 11  7  1  0  0  0  0
 12 16  1  0  0  0  0
 12 13  2  0  0  0  0
 14 15  2  0  0  0  0
 15 17  1  0  0  0  0
 15 16  1  0  0  0  0
 16 20  1  0  0  0  0
 17 21  1  0  0  0  0
 18 17  1  0  0  0  0
 19 14  1  0  0  0  0
M  END
>  <minimizedAffinity>
-4.30541039

>  <minimizedRMSD>
0.500957489

$$$$
