
 OpenBabel03242523173D

 26 27  0  0  0  0  0  0  0  0999 V2000
   37.5960   30.1910   41.1310 C   0  0  0  0  0  0  0  0  0  0  0  0
   37.0000   29.1370   41.7410 C   0  0  0  0  0  0  0  0  0  0  0  0
   35.9630   28.5450   41.0470 C   0  0  0  0  0  0  0  0  0  0  0  0
   35.6250   29.0750   39.8030 N   0  0  0  0  0  0  0  0  0  0  0  0
   36.2360   30.1040   39.2530 C   0  0  0  0  0  0  0  0  0  0  0  0
   37.2690   30.7120   39.9200 N   0  0  0  0  0  0  0  0  0  0  0  0
   35.4190   27.6970   41.4420 H   0  0  0  0  0  0  0  0  0  0  0  0
   35.8240   30.3600   38.2860 H   0  0  0  0  0  0  0  0  0  0  0  0
   38.7700   30.9230   41.5790 C   0  0  0  0  0  0  0  0  0  0  0  0
   39.5900   31.1450   42.4580 O   0  0  0  0  0  0  0  0  0  0  0  0
   38.8810   33.9940   41.4280 N   0  0  0  0  0  0  0  0  0  0  0  0
   39.0940   33.1720   40.5000 C   0  0  0  0  0  0  0  0  0  0  0  0
   39.0780   31.7620   40.4270 N   0  0  0  0  0  0  0  0  0  0  0  0
   39.3760   34.1550   39.4780 N   0  0  0  0  0  0  0  0  0  0  0  0
   40.2970   34.4420   39.0420 H   0  0  0  0  0  0  0  0  0  0  0  0
   38.6340   33.8480   42.3940 H   0  0  0  0  0  0  0  0  0  0  0  0
   39.3290   31.5590   39.4080 H   0  0  0  0  0  0  0  0  0  0  0  0
   38.7190   34.7900   38.9560 H   0  0  0  0  0  0  0  0  0  0  0  0
   37.3090   28.6520   43.0340 C   0  0  0  0  0  0  0  0  0  0  0  0
   36.9670   27.5010   43.6630 C   0  0  0  0  0  0  0  0  0  0  0  0
   38.4210   27.5310   43.1920 C   0  0  0  0  0  0  0  0  0  0  0  0
   37.8880   29.5050   43.6020 H   0  0  0  0  0  0  0  0  0  0  0  0
   36.9000   27.3940   44.7810 H   0  0  0  0  0  0  0  0  0  0  0  0
   36.3690   26.6870   43.1680 H   0  0  0  0  0  0  0  0  0  0  0  0
   38.6920   27.0320   42.2400 H   0  0  0  0  0  0  0  0  0  0  0  0
   39.2050   27.6460   43.9170 H   0  0  0  0  0  0  0  0  0  0  0  0
  1  9  1  0  0  0  0
  1  2  1  0  0  0  0
  2 19  1  0  0  0  0
  3  7  1  0  0  0  0
  3  2  2  0  0  0  0
  4  3  1  0  0  0  0
  5  4  2  0  0  0  0
  5  6  1  0  0  0  0
  6  1  2  0  0  0  0
  8  5  1  0  0  0  0
  9 10  2  0  0  0  0
 11 16  1  0  0  0  0
 12 11  2  0  0  0  0
 13 12  1  0  0  0  0
 13  9  1  0  0  0  0
 14 12  1  0  0  0  0
 15 14  1  0  0  0  0
 17 13  1  0  0  0  0
 18 14  1  0  0  0  0
 19 21  1  0  0  0  0
 19 22  1  0  0  0  0
 19 20  1  0  0  0  0
 20 23  1  0  0  0  0
 21 20  1  0  0  0  0
 21 26  1  0  0  0  0
 24 20  1  0  0  0  0
 25 21  1  0  0  0  0
M  END
>  <minimizedAffinity>
-4.8523221

$$$$

 OpenBabel03242523173D

 26 27  0  0  0  0  0  0  0  0999 V2000
   38.4710   27.5410   42.4640 C   0  0  0  0  0  0  0  0  0  0  0  0
   38.8170   26.4140   41.7940 C   0  0  0  0  0  0  0  0  0  0  0  0
   40.1720   26.1990   41.6330 C   0  0  0  0  0  0  0  0  0  0  0  0
   41.0480   27.1430   42.1620 N   0  0  0  0  0  0  0  0  0  0  0  0
   40.6610   28.2260   42.8060 C   0  0  0  0  0  0  0  0  0  0  0  0
   39.3210   28.4650   42.9800 N   0  0  0  0  0  0  0  0  0  0  0  0
   40.5570   25.3310   41.1140 H   0  0  0  0  0  0  0  0  0  0  0  0
   41.4950   28.8300   43.1380 H   0  0  0  0  0  0  0  0  0  0  0  0
   37.1360   27.9540   42.8680 C   0  0  0  0  0  0  0  0  0  0  0  0
   36.0630   27.6660   43.3770 O   0  0  0  0  0  0  0  0  0  0  0  0
   35.2290   29.3260   40.8820 N   0  0  0  0  0  0  0  0  0  0  0  0
   36.1640   29.8530   41.5350 C   0  0  0  0  0  0  0  0  0  0  0  0
   37.1030   29.3550   42.4650 N   0  0  0  0  0  0  0  0  0  0  0  0
   35.9800   31.1930   41.0240 N   0  0  0  0  0  0  0  0  0  0  0  0
   35.5640   32.0490   41.4880 H   0  0  0  0  0  0  0  0  0  0  0  0
   34.8990   28.3740   40.8530 H   0  0  0  0  0  0  0  0  0  0  0  0
   37.6810   30.2150   42.7270 H   0  0  0  0  0  0  0  0  0  0  0  0
   36.2230   31.5930   40.0820 H   0  0  0  0  0  0  0  0  0  0  0  0
   37.9140   25.4980   41.2030 C   0  0  0  0  0  0  0  0  0  0  0  0
   38.0530   24.1900   40.8780 C   0  0  0  0  0  0  0  0  0  0  0  0
   37.1940   24.4220   42.1210 C   0  0  0  0  0  0  0  0  0  0  0  0
   36.9460   26.0990   40.9050 H   0  0  0  0  0  0  0  0  0  0  0  0
   37.4660   23.6810   40.0640 H   0  0  0  0  0  0  0  0  0  0  0  0
   38.9840   23.5990   41.0980 H   0  0  0  0  0  0  0  0  0  0  0  0
   37.6540   24.3110   43.1230 H   0  0  0  0  0  0  0  0  0  0  0  0
   36.1320   24.2830   42.0580 H   0  0  0  0  0  0  0  0  0  0  0  0
  1  9  1  0  0  0  0
  1  6  1  0  0  0  0
  2  1  2  0  0  0  0
  3  2  1  0  0  0  0
  3  4  2  0  0  0  0
  4  5  1  0  0  0  0
  5  6  2  0  0  0  0
  5  8  1  0  0  0  0
  7  3  1  0  0  0  0
  9 10  2  0  0  0  0
 11 12  2  0  0  0  0
 12 13  1  0  0  0  0
 13 17  1  0  0  0  0
 13  9  1  0  0  0  0
 14 15  1  0  0  0  0
 14 12  1  0  0  0  0
 16 11  1  0  0  0  0
 18 14  1  0  0  0  0
 19  2  1  0  0  0  0
 19 21  1  0  0  0  0
 20 24  1  0  0  0  0
 20 19  1  0  0  0  0
 20 21  1  0  0  0  0
 21 25  1  0  0  0  0
 22 19  1  0  0  0  0
 23 20  1  0  0  0  0
 26 21  1  0  0  0  0
M  END
>  <minimizedAffinity>
-4.73517609

$$$$

 OpenBabel03242523173D

 26 27  0  0  0  0  0  0  0  0999 V2000
   37.2650   26.2880   40.5670 C   0  0  0  0  0  0  0  0  0  0  0  0
   37.4920   25.9050   41.8480 C   0  0  0  0  0  0  0  0  0  0  0  0
   37.4590   24.5440   42.0870 C   0  0  0  0  0  0  0  0  0  0  0  0
   37.1990   23.7000   41.0090 N   0  0  0  0  0  0  0  0  0  0  0  0
   36.9830   24.1230   39.7800 C   0  0  0  0  0  0  0  0  0  0  0  0
   37.0100   25.4690   39.5140 N   0  0  0  0  0  0  0  0  0  0  0  0
   37.6270   24.1310   43.0720 H   0  0  0  0  0  0  0  0  0  0  0  0
   36.8000   23.3100   39.0900 H   0  0  0  0  0  0  0  0  0  0  0  0
   37.3500   27.6320   40.0190 C   0  0  0  0  0  0  0  0  0  0  0  0
   38.0320   28.6110   39.7540 O   0  0  0  0  0  0  0  0  0  0  0  0
   35.4630   29.8610   40.9850 N   0  0  0  0  0  0  0  0  0  0  0  0
   35.2180   28.9630   40.1410 C   0  0  0  0  0  0  0  0  0  0  0  0
   35.9750   27.8940   39.6110 N   0  0  0  0  0  0  0  0  0  0  0  0
   33.8610   29.3730   39.8590 N   0  0  0  0  0  0  0  0  0  0  0  0
   33.4590   29.8690   39.0140 H   0  0  0  0  0  0  0  0  0  0  0  0
   36.2940   30.0550   41.5210 H   0  0  0  0  0  0  0  0  0  0  0  0
   35.3030   27.4250   38.9250 H   0  0  0  0  0  0  0  0  0  0  0  0
   32.9910   29.2620   40.4390 H   0  0  0  0  0  0  0  0  0  0  0  0
   37.6890   26.7770   42.9450 C   0  0  0  0  0  0  0  0  0  0  0  0
   37.6090   28.1260   43.0410 C   0  0  0  0  0  0  0  0  0  0  0  0
   36.4250   27.3970   43.6760 C   0  0  0  0  0  0  0  0  0  0  0  0
   38.0690   26.1250   43.8500 H   0  0  0  0  0  0  0  0  0  0  0  0
   38.1710   28.7350   43.8010 H   0  0  0  0  0  0  0  0  0  0  0  0
   37.3030   28.7840   42.1810 H   0  0  0  0  0  0  0  0  0  0  0  0
   35.4820   27.2950   43.1020 H   0  0  0  0  0  0  0  0  0  0  0  0
   36.3460   27.3580   44.7460 H   0  0  0  0  0  0  0  0  0  0  0  0
  1  2  1  0  0  0  0
  2  3  2  0  0  0  0
  2 19  1  0  0  0  0
  3  7  1  0  0  0  0
  4  3  1  0  0  0  0
  5  4  2  0  0  0  0
  6  5  1  0  0  0  0
  6  1  2  0  0  0  0
  8  5  1  0  0  0  0
  9  1  1  0  0  0  0
 10  9  2  0  0  0  0
 11 16  1  0  0  0  0
 12 11  2  0  0  0  0
 13  9  1  0  0  0  0
 13 12  1  0  0  0  0
 14 12  1  0  0  0  0
 14 18  1  0  0  0  0
 15 14  1  0  0  0  0
 17 13  1  0  0  0  0
 19 20  1  0  0  0  0
 19 21  1  0  0  0  0
 19 22  1  0  0  0  0
 20 21  1  0  0  0  0
 20 23  1  0  0  0  0
 21 26  1  0  0  0  0
 24 20  1  0  0  0  0
 25 21  1  0  0  0  0
M  END
>  <minimizedAffinity>
-4.68598366

$$$$

 OpenBabel03242523173D

 26 27  0  0  0  0  0  0  0  0999 V2000
   36.8030   28.0670   41.5800 C   0  0  0  0  0  0  0  0  0  0  0  0
   37.4340   26.9970   41.0360 C   0  0  0  0  0  0  0  0  0  0  0  0
   38.2720   26.2960   41.8820 C   0  0  0  0  0  0  0  0  0  0  0  0
   38.3920   26.7410   43.1960 N   0  0  0  0  0  0  0  0  0  0  0  0
   37.7550   27.7900   43.6780 C   0  0  0  0  0  0  0  0  0  0  0  0
   36.9180   28.5060   42.8610 N   0  0  0  0  0  0  0  0  0  0  0  0
   38.8240   25.4260   41.5500 H   0  0  0  0  0  0  0  0  0  0  0  0
   37.9850   27.9690   44.7200 H   0  0  0  0  0  0  0  0  0  0  0  0
   35.7930   28.9070   40.9570 C   0  0  0  0  0  0  0  0  0  0  0  0
   34.7760   28.9940   40.2850 O   0  0  0  0  0  0  0  0  0  0  0  0
   36.5850   31.2350   39.1080 N   0  0  0  0  0  0  0  0  0  0  0  0
   36.5620   31.2280   40.3650 C   0  0  0  0  0  0  0  0  0  0  0  0
   36.2270   30.2490   41.3270 N   0  0  0  0  0  0  0  0  0  0  0  0
   37.0040   32.5930   40.5400 N   0  0  0  0  0  0  0  0  0  0  0  0
   36.4610   33.4560   40.8260 H   0  0  0  0  0  0  0  0  0  0  0  0
   36.3610   30.5140   38.4400 H   0  0  0  0  0  0  0  0  0  0  0  0
   36.3760   30.7490   42.2590 H   0  0  0  0  0  0  0  0  0  0  0  0
   37.9620   33.0110   40.4190 H   0  0  0  0  0  0  0  0  0  0  0  0
   37.3540   26.5960   39.6820 C   0  0  0  0  0  0  0  0  0  0  0  0
   37.7540   25.4590   39.0600 C   0  0  0  0  0  0  0  0  0  0  0  0
   36.2400   25.5520   39.2500 C   0  0  0  0  0  0  0  0  0  0  0  0
   36.9370   27.5100   39.0660 H   0  0  0  0  0  0  0  0  0  0  0  0
   38.0280   25.4040   37.9710 H   0  0  0  0  0  0  0  0  0  0  0  0
   38.2060   24.5880   39.6090 H   0  0  0  0  0  0  0  0  0  0  0  0
   35.7680   25.0240   40.1020 H   0  0  0  0  0  0  0  0  0  0  0  0
   35.6160   25.7490   38.3990 H   0  0  0  0  0  0  0  0  0  0  0  0
  1  6  1  0  0  0  0
  2  1  2  0  0  0  0
  2  3  1  0  0  0  0
  3  4  2  0  0  0  0
  4  5  1  0  0  0  0
  5  8  1  0  0  0  0
  6  5  2  0  0  0  0
  7  3  1  0  0  0  0
  9 13  1  0  0  0  0
  9  1  1  0  0  0  0
 10  9  2  0  0  0  0
 11 12  2  0  0  0  0
 12 14  1  0  0  0  0
 12 13  1  0  0  0  0
 13 17  1  0  0  0  0
 14 15  1  0  0  0  0
 16 11  1  0  0  0  0
 18 14  1  0  0  0  0
 19  2  1  0  0  0  0
 20 21  1  0  0  0  0
 20 24  1  0  0  0  0
 20 19  1  0  0  0  0
 21 19  1  0  0  0  0
 21 25  1  0  0  0  0
 22 19  1  0  0  0  0
 23 20  1  0  0  0  0
 26 21  1  0  0  0  0
M  END
>  <minimizedAffinity>
-4.65245295

$$$$

 OpenBabel03242523173D

 26 27  0  0  0  0  0  0  0  0999 V2000
   37.8880   28.8230   40.3840 C   0  0  0  0  0  0  0  0  0  0  0  0
   37.2240   27.9260   41.1540 C   0  0  0  0  0  0  0  0  0  0  0  0
   36.8940   26.7320   40.5420 C   0  0  0  0  0  0  0  0  0  0  0  0
   37.2640   26.5590   39.2100 N   0  0  0  0  0  0  0  0  0  0  0  0
   37.9090   27.4650   38.5030 C   0  0  0  0  0  0  0  0  0  0  0  0
   38.2500   28.6600   39.0850 N   0  0  0  0  0  0  0  0  0  0  0  0
   36.3650   25.9470   41.0660 H   0  0  0  0  0  0  0  0  0  0  0  0
   38.1020   27.1370   37.4900 H   0  0  0  0  0  0  0  0  0  0  0  0
   38.4490   30.0990   40.7990 C   0  0  0  0  0  0  0  0  0  0  0  0
   38.9620   30.7800   41.6750 O   0  0  0  0  0  0  0  0  0  0  0  0
   36.8870   32.7220   40.4080 N   0  0  0  0  0  0  0  0  0  0  0  0
   37.5680   32.1000   39.5530 C   0  0  0  0  0  0  0  0  0  0  0  0
   38.3230   30.9070   39.5910 N   0  0  0  0  0  0  0  0  0  0  0  0
   37.3340   33.0210   38.4630 N   0  0  0  0  0  0  0  0  0  0  0  0
   37.9780   33.7380   38.0260 H   0  0  0  0  0  0  0  0  0  0  0  0
   36.7000   32.5180   41.3770 H   0  0  0  0  0  0  0  0  0  0  0  0
   38.7060   30.8180   38.5970 H   0  0  0  0  0  0  0  0  0  0  0  0
   36.4730   33.1660   37.8790 H   0  0  0  0  0  0  0  0  0  0  0  0
   36.7960   28.1420   42.4860 C   0  0  0  0  0  0  0  0  0  0  0  0
   36.3980   27.2750   43.4490 C   0  0  0  0  0  0  0  0  0  0  0  0
   37.7990   27.8420   43.6780 C   0  0  0  0  0  0  0  0  0  0  0  0
   36.7270   29.3060   42.6500 H   0  0  0  0  0  0  0  0  0  0  0  0
   35.7030   27.5490   44.2890 H   0  0  0  0  0  0  0  0  0  0  0  0
   36.4000   26.1600   43.3080 H   0  0  0  0  0  0  0  0  0  0  0  0
   38.6810   27.2400   43.3790 H   0  0  0  0  0  0  0  0  0  0  0  0
   37.9510   28.5700   44.4530 H   0  0  0  0  0  0  0  0  0  0  0  0
  1  9  1  0  0  0  0
  1  2  1  0  0  0  0
  2 19  1  0  0  0  0
  3  7  1  0  0  0  0
  3  2  2  0  0  0  0
  4  3  1  0  0  0  0
  5  6  1  0  0  0  0
  5  4  2  0  0  0  0
  6  1  2  0  0  0  0
  8  5  1  0  0  0  0
  9 10  2  0  0  0  0
 11 16  1  0  0  0  0
 12 13  1  0  0  0  0
 12 11  2  0  0  0  0
 13  9  1  0  0  0  0
 14 12  1  0  0  0  0
 15 14  1  0  0  0  0
 17 13  1  0  0  0  0
 18 14  1  0  0  0  0
 19 22  1  0  0  0  0
 19 20  1  0  0  0  0
 19 21  1  0  0  0  0
 20 21  1  0  0  0  0
 20 23  1  0  0  0  0
 21 26  1  0  0  0  0
 24 20  1  0  0  0  0
 25 21  1  0  0  0  0
M  END
>  <minimizedAffinity>
-4.62525272

$$$$

 OpenBabel03242523173D

 26 27  0  0  0  0  0  0  0  0999 V2000
   38.7440   32.3020   39.2590 C   0  0  0  0  0  0  0  0  0  0  0  0
   39.9700   32.2520   38.6830 C   0  0  0  0  0  0  0  0  0  0  0  0
   40.8670   33.2240   39.0840 C   0  0  0  0  0  0  0  0  0  0  0  0
   40.4380   34.1550   40.0280 N   0  0  0  0  0  0  0  0  0  0  0  0
   39.2320   34.1610   40.5590 C   0  0  0  0  0  0  0  0  0  0  0  0
   38.3210   33.2080   40.1790 N   0  0  0  0  0  0  0  0  0  0  0  0
   41.8720   33.2750   38.6870 H   0  0  0  0  0  0  0  0  0  0  0  0
   39.0990   34.9650   41.2710 H   0  0  0  0  0  0  0  0  0  0  0  0
   37.6570   31.3480   39.1070 C   0  0  0  0  0  0  0  0  0  0  0  0
   36.7060   30.9430   38.4550 O   0  0  0  0  0  0  0  0  0  0  0  0
   35.6310   30.8750   41.3730 N   0  0  0  0  0  0  0  0  0  0  0  0
   36.7830   30.3840   41.2600 C   0  0  0  0  0  0  0  0  0  0  0  0
   37.8030   30.5110   40.2920 N   0  0  0  0  0  0  0  0  0  0  0  0
   36.7470   29.6090   42.4800 N   0  0  0  0  0  0  0  0  0  0  0  0
   36.6340   28.5660   42.6240 H   0  0  0  0  0  0  0  0  0  0  0  0
   35.1230   31.5100   40.7780 H   0  0  0  0  0  0  0  0  0  0  0  0
   38.5850   29.8860   40.6650 H   0  0  0  0  0  0  0  0  0  0  0  0
   36.8270   29.9260   43.4800 H   0  0  0  0  0  0  0  0  0  0  0  0
   40.3700   31.3410   37.6760 C   0  0  0  0  0  0  0  0  0  0  0  0
   41.5960   31.0160   37.2000 C   0  0  0  0  0  0  0  0  0  0  0  0
   40.9870   29.9420   38.1000 C   0  0  0  0  0  0  0  0  0  0  0  0
   39.3920   30.9170   37.1750 H   0  0  0  0  0  0  0  0  0  0  0  0
   41.7820   30.6240   36.1620 H   0  0  0  0  0  0  0  0  0  0  0  0
   42.5490   31.4430   37.6180 H   0  0  0  0  0  0  0  0  0  0  0  0
   41.2910   29.8920   39.1650 H   0  0  0  0  0  0  0  0  0  0  0  0
   40.6200   29.0340   37.6600 H   0  0  0  0  0  0  0  0  0  0  0  0
  1  6  1  0  0  0  0
  2  3  1  0  0  0  0
  2  1  2  0  0  0  0
  3  4  2  0  0  0  0
  4  5  1  0  0  0  0
  5  8  1  0  0  0  0
  6  5  2  0  0  0  0
  7  3  1  0  0  0  0
  9  1  1  0  0  0  0
  9 13  1  0  0  0  0
 10  9  2  0  0  0  0
 12 11  2  0  0  0  0
 12 14  1  0  0  0  0
 13 17  1  0  0  0  0
 13 12  1  0  0  0  0
 14 15  1  0  0  0  0
 14 18  1  0  0  0  0
 16 11  1  0  0  0  0
 19 21  1  0  0  0  0
 19  2  1  0  0  0  0
 20 24  1  0  0  0  0
 20 19  1  0  0  0  0
 20 21  1  0  0  0  0
 21 25  1  0  0  0  0
 22 19  1  0  0  0  0
 23 20  1  0  0  0  0
 26 21  1  0  0  0  0
M  END
>  <minimizedAffinity>
-4.6202445

$$$$

 OpenBabel03242523173D

 26 27  0  0  0  0  0  0  0  0999 V2000
   38.8820   30.7640   38.8080 C   0  0  0  0  0  0  0  0  0  0  0  0
   39.3050   31.9700   39.2610 C   0  0  0  0  0  0  0  0  0  0  0  0
   40.5740   32.3510   38.8710 C   0  0  0  0  0  0  0  0  0  0  0  0
   41.2960   31.4760   38.0620 N   0  0  0  0  0  0  0  0  0  0  0  0
   40.8390   30.3110   37.6480 C   0  0  0  0  0  0  0  0  0  0  0  0
   39.5820   29.9070   38.0200 N   0  0  0  0  0  0  0  0  0  0  0  0
   41.0090   33.2930   39.1750 H   0  0  0  0  0  0  0  0  0  0  0  0
   41.5540   29.7830   37.0300 H   0  0  0  0  0  0  0  0  0  0  0  0
   37.5630   30.1730   38.9710 C   0  0  0  0  0  0  0  0  0  0  0  0
   36.4500   29.9590   38.5130 O   0  0  0  0  0  0  0  0  0  0  0  0
   35.8510   30.7700   41.4560 N   0  0  0  0  0  0  0  0  0  0  0  0
   36.7920   29.9420   41.3540 C   0  0  0  0  0  0  0  0  0  0  0  0
   37.6490   29.5700   40.2950 N   0  0  0  0  0  0  0  0  0  0  0  0
   36.7280   29.4590   42.7150 N   0  0  0  0  0  0  0  0  0  0  0  0
   36.3540   28.5460   43.0990 H   0  0  0  0  0  0  0  0  0  0  0  0
   35.4550   31.4050   40.7810 H   0  0  0  0  0  0  0  0  0  0  0  0
   38.2750   28.8200   40.7290 H   0  0  0  0  0  0  0  0  0  0  0  0
   37.0420   29.9190   43.6070 H   0  0  0  0  0  0  0  0  0  0  0  0
   38.5860   32.8190   40.1360 C   0  0  0  0  0  0  0  0  0  0  0  0
   38.6320   34.1610   40.3190 C   0  0  0  0  0  0  0  0  0  0  0  0
   37.3910   33.6890   39.5610 C   0  0  0  0  0  0  0  0  0  0  0  0
   37.9350   32.1320   40.8380 H   0  0  0  0  0  0  0  0  0  0  0  0
   38.3550   34.6720   41.2820 H   0  0  0  0  0  0  0  0  0  0  0  0
   39.2830   34.8410   39.7040 H   0  0  0  0  0  0  0  0  0  0  0  0
   37.3770   33.7530   38.4550 H   0  0  0  0  0  0  0  0  0  0  0  0
   36.4390   33.6960   40.0580 H   0  0  0  0  0  0  0  0  0  0  0  0
  1  9  1  0  0  0  0
  1  2  1  0  0  0  0
  2 19  1  0  0  0  0
  3  7  1  0  0  0  0
  3  2  2  0  0  0  0
  4  3  1  0  0  0  0
  5  6  1  0  0  0  0
  5  4  2  0  0  0  0
  6  1  2  0  0  0  0
  8  5  1  0  0  0  0
  9 13  1  0  0  0  0
 10  9  2  0  0  0  0
 12 11  2  0  0  0  0
 12 14  1  0  0  0  0
 13 17  1  0  0  0  0
 13 12  1  0  0  0  0
 14 15  1  0  0  0  0
 14 18  1  0  0  0  0
 16 11  1  0  0  0  0
 19 20  1  0  0  0  0
 19 22  1  0  0  0  0
 20 23  1  0  0  0  0
 21 26  1  0  0  0  0
 21 19  1  0  0  0  0
 21 20  1  0  0  0  0
 24 20  1  0  0  0  0
 25 21  1  0  0  0  0
M  END
>  <minimizedAffinity>
-4.58328056

$$$$

 OpenBabel03242523173D

 26 27  0  0  0  0  0  0  0  0999 V2000
   38.2750   31.0310   40.7930 C   0  0  0  0  0  0  0  0  0  0  0  0
   37.7270   29.7940   40.8950 C   0  0  0  0  0  0  0  0  0  0  0  0
   38.1940   29.0100   41.9320 C   0  0  0  0  0  0  0  0  0  0  0  0
   39.1710   29.5490   42.7670 N   0  0  0  0  0  0  0  0  0  0  0  0
   39.6720   30.7600   42.6250 C   0  0  0  0  0  0  0  0  0  0  0  0
   39.2280   31.5600   41.6040 N   0  0  0  0  0  0  0  0  0  0  0  0
   37.8250   28.0080   42.1040 H   0  0  0  0  0  0  0  0  0  0  0  0
   40.4180   30.9880   43.3750 H   0  0  0  0  0  0  0  0  0  0  0  0
   37.8940   32.0920   39.8750 C   0  0  0  0  0  0  0  0  0  0  0  0
   37.0340   32.8530   39.4560 O   0  0  0  0  0  0  0  0  0  0  0  0
   38.3880   31.8270   36.8500 N   0  0  0  0  0  0  0  0  0  0  0  0
   39.2140   32.1660   37.7340 C   0  0  0  0  0  0  0  0  0  0  0  0
   39.1290   32.3270   39.1350 N   0  0  0  0  0  0  0  0  0  0  0  0
   40.3360   32.3530   36.8420 N   0  0  0  0  0  0  0  0  0  0  0  0
   40.7880   33.2440   36.4910 H   0  0  0  0  0  0  0  0  0  0  0  0
   37.4150   31.5720   36.9180 H   0  0  0  0  0  0  0  0  0  0  0  0
   40.1140   32.6300   39.4150 H   0  0  0  0  0  0  0  0  0  0  0  0
   40.9350   31.6380   36.3560 H   0  0  0  0  0  0  0  0  0  0  0  0
   36.7850   29.2360   39.9990 C   0  0  0  0  0  0  0  0  0  0  0  0
   36.0170   28.1220   40.0890 C   0  0  0  0  0  0  0  0  0  0  0  0
   35.2360   29.4210   40.2920 C   0  0  0  0  0  0  0  0  0  0  0  0
   36.8170   29.8730   39.0090 H   0  0  0  0  0  0  0  0  0  0  0  0
   35.6360   27.5510   39.1980 H   0  0  0  0  0  0  0  0  0  0  0  0
   36.0010   27.4600   40.9980 H   0  0  0  0  0  0  0  0  0  0  0  0
   35.0140   29.7620   41.3230 H   0  0  0  0  0  0  0  0  0  0  0  0
   34.5770   29.7640   39.5170 H   0  0  0  0  0  0  0  0  0  0  0  0
  1  2  2  0  0  0  0
  1  6  1  0  0  0  0
  2  3  1  0  0  0  0
  3  7  1  0  0  0  0
  3  4  2  0  0  0  0
  5  4  1  0  0  0  0
  5  8  1  0  0  0  0
  6  5  2  0  0  0  0
  9  1  1  0  0  0  0
 10  9  2  0  0  0  0
 11 16  1  0  0  0  0
 11 12  2  0  0  0  0
 12 13  1  0  0  0  0
 13 17  1  0  0  0  0
 13  9  1  0  0  0  0
 14 12  1  0  0  0  0
 15 14  1  0  0  0  0
 18 14  1  0  0  0  0
 19 20  1  0  0  0  0
 19 21  1  0  0  0  0
 19  2  1  0  0  0  0
 20 21  1  0  0  0  0
 20 24  1  0  0  0  0
 21 25  1  0  0  0  0
 22 19  1  0  0  0  0
 23 20  1  0  0  0  0
 26 21  1  0  0  0  0
M  END
>  <minimizedAffinity>
-4.57271242

$$$$

 OpenBabel03242523173D

 26 27  0  0  0  0  0  0  0  0999 V2000
   39.3880   28.6690   42.6920 C   0  0  0  0  0  0  0  0  0  0  0  0
   40.2270   27.6570   42.3570 C   0  0  0  0  0  0  0  0  0  0  0  0
   41.5340   28.0170   42.0950 C   0  0  0  0  0  0  0  0  0  0  0  0
   41.8700   29.3660   42.1950 N   0  0  0  0  0  0  0  0  0  0  0  0
   41.0160   30.3140   42.5240 C   0  0  0  0  0  0  0  0  0  0  0  0
   39.7110   29.9850   42.7890 N   0  0  0  0  0  0  0  0  0  0  0  0
   42.2850   27.2890   41.8200 H   0  0  0  0  0  0  0  0  0  0  0  0
   41.4750   31.2930   42.5450 H   0  0  0  0  0  0  0  0  0  0  0  0
   38.0030   28.5620   43.1210 C   0  0  0  0  0  0  0  0  0  0  0  0
   37.1290   27.9160   43.6800 O   0  0  0  0  0  0  0  0  0  0  0  0
   35.6900   28.9850   41.1370 N   0  0  0  0  0  0  0  0  0  0  0  0
   36.3600   29.8660   41.7320 C   0  0  0  0  0  0  0  0  0  0  0  0
   37.4300   29.8190   42.6530 N   0  0  0  0  0  0  0  0  0  0  0  0
   35.6690   31.0020   41.1640 N   0  0  0  0  0  0  0  0  0  0  0  0
   34.9630   31.6600   41.6000 H   0  0  0  0  0  0  0  0  0  0  0  0
   35.7490   27.9790   41.1660 H   0  0  0  0  0  0  0  0  0  0  0  0
   37.6380   30.8480   42.8530 H   0  0  0  0  0  0  0  0  0  0  0  0
   35.7290   31.4100   40.1970 H   0  0  0  0  0  0  0  0  0  0  0  0
   39.8560   26.3010   42.1950 C   0  0  0  0  0  0  0  0  0  0  0  0
   40.6050   25.1780   42.0690 C   0  0  0  0  0  0  0  0  0  0  0  0
   39.9450   25.3210   43.4400 C   0  0  0  0  0  0  0  0  0  0  0  0
   38.6850   26.2670   42.0730 H   0  0  0  0  0  0  0  0  0  0  0  0
   40.2550   24.2480   41.5410 H   0  0  0  0  0  0  0  0  0  0  0  0
   41.7280   25.1810   42.1260 H   0  0  0  0  0  0  0  0  0  0  0  0
   40.5370   25.7250   44.2850 H   0  0  0  0  0  0  0  0  0  0  0  0
   39.1140   24.6890   43.6910 H   0  0  0  0  0  0  0  0  0  0  0  0
  1  6  1  0  0  0  0
  1  9  1  0  0  0  0
  2  1  2  0  0  0  0
  3  4  2  0  0  0  0
  3  2  1  0  0  0  0
  4  5  1  0  0  0  0
  5  8  1  0  0  0  0
  5  6  2  0  0  0  0
  7  3  1  0  0  0  0
  9 10  2  0  0  0  0
 11 16  1  0  0  0  0
 11 12  2  0  0  0  0
 12 13  1  0  0  0  0
 13 17  1  0  0  0  0
 13  9  1  0  0  0  0
 14 15  1  0  0  0  0
 14 12  1  0  0  0  0
 18 14  1  0  0  0  0
 19  2  1  0  0  0  0
 19 21  1  0  0  0  0
 20 24  1  0  0  0  0
 20 19  1  0  0  0  0
 20 21  1  0  0  0  0
 21 26  1  0  0  0  0
 21 25  1  0  0  0  0
 22 19  1  0  0  0  0
 23 20  1  0  0  0  0
M  END
>  <minimizedAffinity>
-4.51495695

$$$$
