
 OpenBabel03242523553D

 44 46  0  0  1  0  0  0  0  0999 V2000
   42.8080   34.5350   38.7350 C   0  0  1  0  0  0  0  0  0  0  0  0
   42.9580   35.1880   40.0990 C   0  0  1  0  0  0  0  0  0  0  0  0
   41.6640   35.4060   40.6250 O   0  0  0  0  0  0  0  0  0  0  0  0
   40.7350   35.7590   39.6370 C   0  0  0  0  0  0  0  0  0  0  0  0
   40.4290   34.5950   38.7160 C   0  0  2  0  0  0  0  0  0  0  0  0
   41.6400   33.6140   38.8400 C   0  0  1  0  0  0  0  0  0  0  0  0
   43.7550   33.9930   38.5370 H   0  0  0  0  0  0  0  0  0  0  0  0
   43.5310   36.1240   40.0720 H   0  0  0  0  0  0  0  0  0  0  0  0
   39.8180   36.0090   40.1680 H   0  0  0  0  0  0  0  0  0  0  0  0
   41.0310   36.6740   39.0830 H   0  0  0  0  0  0  0  0  0  0  0  0
   39.4910   34.0790   38.9970 H   0  0  0  0  0  0  0  0  0  0  0  0
   41.4300   33.3240   39.9230 H   0  0  0  0  0  0  0  0  0  0  0  0
   42.5920   35.5090   37.7420 O   0  0  0  0  0  0  0  0  0  0  0  0
   43.4390   35.6480   37.2870 H   0  0  0  0  0  0  0  0  0  0  0  0
   40.4450   35.0240   37.3970 O   0  0  0  0  0  0  0  0  0  0  0  0
   39.7210   34.5550   36.8940 H   0  0  0  0  0  0  0  0  0  0  0  0
   43.4930   34.1940   40.9290 O   0  0  0  0  0  0  0  0  0  0  0  0
   44.5930   34.3280   41.6780 C   0  0  0  0  0  0  0  0  0  0  0  0
   45.8550   34.4350   41.0940 C   0  0  0  0  0  0  0  0  0  0  0  0
   46.9680   34.5740   41.8970 C   0  0  0  0  0  0  0  0  0  0  0  0
   46.7970   34.6050   43.2730 N   0  0  0  0  0  0  0  0  0  0  0  0
   45.5610   34.4990   43.8090 C   0  0  0  0  0  0  0  0  0  0  0  0
   44.4670   34.3630   43.0160 N   0  0  0  0  0  0  0  0  0  0  0  0
   45.9610   34.4080   40.0180 H   0  0  0  0  0  0  0  0  0  0  0  0
   45.4250   34.5230   44.8890 H   0  0  0  0  0  0  0  0  0  0  0  0
   48.3530   34.6740   41.3340 C   0  0  0  0  0  0  0  0  0  0  0  0
   49.0670   36.0120   41.5100 C   0  0  0  0  0  0  0  0  0  0  0  0
   49.4950   34.6990   42.1960 C   0  0  0  0  0  0  0  0  0  0  0  0
   48.3980   34.2790   40.2960 H   0  0  0  0  0  0  0  0  0  0  0  0
   48.5530   36.7730   42.0960 H   0  0  0  0  0  0  0  0  0  0  0  0
   49.6930   36.3450   40.6860 H   0  0  0  0  0  0  0  0  0  0  0  0
   49.3450   34.7400   43.3010 H   0  0  0  0  0  0  0  0  0  0  0  0
   50.4880   34.2790   41.9400 H   0  0  0  0  0  0  0  0  0  0  0  0
   41.5100   32.6770   37.8800 O   0  0  0  0  0  0  0  0  0  0  0  0
   40.8630   31.5160   37.8470 C   0  0  0  0  0  0  0  0  0  0  0  0
   39.5530   31.4520   37.6380 O   0  0  0  0  0  0  0  0  0  0  0  0
   41.2420   29.3980   35.7360 N   0  0  0  0  0  0  0  0  0  0  0  0
   41.4820   29.2510   36.9310 C   0  0  0  0  0  0  0  0  0  0  0  0
   41.3460   30.1410   38.0070 N   0  0  0  0  0  0  0  0  0  0  0  0
   41.9780   27.9180   37.1770 N   0  0  0  0  0  0  0  0  0  0  0  0
   42.8460   27.6670   37.6990 H   0  0  0  0  0  0  0  0  0  0  0  0
   40.8990   30.1370   35.1740 H   0  0  0  0  0  0  0  0  0  0  0  0
   41.6180   29.7880   38.9370 H   0  0  0  0  0  0  0  0  0  0  0  0
   41.5910   26.9900   36.8970 H   0  0  0  0  0  0  0  0  0  0  0  0
  1  7  1  6  0  0  0
  1  6  1  0  0  0  0
  1  2  1  0  0  0  0
  2  8  1  6  0  0  0
  2  3  1  0  0  0  0
  2 17  1  0  0  0  0
  4  9  1  0  0  0  0
  4  3  1  0  0  0  0
  5  6  1  0  0  0  0
  5 11  1  1  0  0  0
  5  4  1  0  0  0  0
  6 12  1  1  0  0  0
 10  4  1  0  0  0  0
 13  1  1  0  0  0  0
 14 13  1  0  0  0  0
 15  5  1  0  0  0  0
 16 15  1  0  0  0  0
 17 18  1  0  0  0  0
 18 23  1  0  0  0  0
 19 18  2  0  0  0  0
 19 20  1  0  0  0  0
 20 21  2  0  0  0  0
 21 22  1  0  0  0  0
 22 25  1  0  0  0  0
 23 22  2  0  0  0  0
 24 19  1  0  0  0  0
 26 27  1  0  0  0  0
 26 20  1  0  0  0  0
 26 28  1  0  0  0  0
 27 30  1  0  0  0  0
 27 28  1  0  0  0  0
 28 32  1  0  0  0  0
 29 26  1  0  0  0  0
 31 27  1  0  0  0  0
 33 28  1  0  0  0  0
 34  6  1  0  0  0  0
 35 34  1  0  0  0  0
 35 39  1  0  0  0  0
 36 35  2  0  0  0  0
 37 38  2  0  0  0  0
 38 40  1  0  0  0  0
 38 39  1  0  0  0  0
 39 43  1  0  0  0  0
 40 41  1  0  0  0  0
 42 37  1  0  0  0  0
 44 40  1  0  0  0  0
M  END
>  <minimizedAffinity>
-5.90024042

>  <minimizedRMSD>
0.202372566

$$$$
