
 OpenBabel03242523553D

 44 46  0  0  1  0  0  0  0  0999 V2000
   42.8080   34.5450   38.7330 C   0  0  1  0  0  0  0  0  0  0  0  0
   42.9480   35.1870   40.1040 C   0  0  1  0  0  0  0  0  0  0  0  0
   41.6500   35.3830   40.6300 O   0  0  0  0  0  0  0  0  0  0  0  0
   40.7180   35.7340   39.6440 C   0  0  0  0  0  0  0  0  0  0  0  0
   40.4290   34.5750   38.7120 C   0  0  2  0  0  0  0  0  0  0  0  0
   41.6520   33.6090   38.8280 C   0  0  1  0  0  0  0  0  0  0  0  0
   43.7620   34.0170   38.5310 H   0  0  0  0  0  0  0  0  0  0  0  0
   43.5080   36.1300   40.0860 H   0  0  0  0  0  0  0  0  0  0  0  0
   39.7970   35.9670   40.1760 H   0  0  0  0  0  0  0  0  0  0  0  0
   41.0030   36.6580   39.0990 H   0  0  0  0  0  0  0  0  0  0  0  0
   39.4970   34.0440   38.9860 H   0  0  0  0  0  0  0  0  0  0  0  0
   41.4440   33.3050   39.9080 H   0  0  0  0  0  0  0  0  0  0  0  0
   42.5810   35.5260   37.7490 O   0  0  0  0  0  0  0  0  0  0  0  0
   43.4260   35.6800   37.2970 H   0  0  0  0  0  0  0  0  0  0  0  0
   40.4400   35.0170   37.3970 O   0  0  0  0  0  0  0  0  0  0  0  0
   39.7230   34.5440   36.8880 H   0  0  0  0  0  0  0  0  0  0  0  0
   43.4940   34.1920   40.9240 O   0  0  0  0  0  0  0  0  0  0  0  0
   44.5940   34.3320   41.6740 C   0  0  0  0  0  0  0  0  0  0  0  0
   45.8560   34.4370   41.0910 C   0  0  0  0  0  0  0  0  0  0  0  0
   46.9680   34.5820   41.8940 C   0  0  0  0  0  0  0  0  0  0  0  0
   46.7950   34.6210   43.2690 N   0  0  0  0  0  0  0  0  0  0  0  0
   45.5590   34.5170   43.8050 C   0  0  0  0  0  0  0  0  0  0  0  0
   44.4660   34.3750   43.0110 N   0  0  0  0  0  0  0  0  0  0  0  0
   45.9640   34.4030   40.0150 H   0  0  0  0  0  0  0  0  0  0  0  0
   45.4220   34.5480   44.8850 H   0  0  0  0  0  0  0  0  0  0  0  0
   48.3530   34.6800   41.3320 C   0  0  0  0  0  0  0  0  0  0  0  0
   49.0700   36.0160   41.5110 C   0  0  0  0  0  0  0  0  0  0  0  0
   49.4950   34.7020   42.1940 C   0  0  0  0  0  0  0  0  0  0  0  0
   48.3990   34.2870   40.2940 H   0  0  0  0  0  0  0  0  0  0  0  0
   48.5570   36.7770   42.0970 H   0  0  0  0  0  0  0  0  0  0  0  0
   49.6970   36.3500   40.6880 H   0  0  0  0  0  0  0  0  0  0  0  0
   49.3440   34.7410   43.3000 H   0  0  0  0  0  0  0  0  0  0  0  0
   50.4880   34.2800   41.9390 H   0  0  0  0  0  0  0  0  0  0  0  0
   41.5350   32.6790   37.8580 O   0  0  0  0  0  0  0  0  0  0  0  0
   40.9770   31.4720   37.8410 C   0  0  0  0  0  0  0  0  0  0  0  0
   39.6930   31.3010   37.5460 O   0  0  0  0  0  0  0  0  0  0  0  0
   42.7480   29.8000   36.0640 N   0  0  0  0  0  0  0  0  0  0  0  0
   42.3650   29.4730   37.1840 C   0  0  0  0  0  0  0  0  0  0  0  0
   41.5440   30.1460   38.1030 N   0  0  0  0  0  0  0  0  0  0  0  0
   42.8920   28.1740   37.5300 N   0  0  0  0  0  0  0  0  0  0  0  0
   43.3980   27.9250   38.4070 H   0  0  0  0  0  0  0  0  0  0  0  0
   42.6170   30.5880   35.4790 H   0  0  0  0  0  0  0  0  0  0  0  0
   41.3600   29.6670   38.9980 H   0  0  0  0  0  0  0  0  0  0  0  0
   42.8730   27.2750   37.0020 H   0  0  0  0  0  0  0  0  0  0  0  0
  1  7  1  6  0  0  0
  1  6  1  0  0  0  0
  1  2  1  0  0  0  0
  2  8  1  6  0  0  0
  2  3  1  0  0  0  0
  2 17  1  0  0  0  0
  4  9  1  0  0  0  0
  4  3  1  0  0  0  0
  5  6  1  0  0  0  0
  5 11  1  1  0  0  0
  5  4  1  0  0  0  0
  6 12  1  1  0  0  0
 10  4  1  0  0  0  0
 13  1  1  0  0  0  0
 14 13  1  0  0  0  0
 15  5  1  0  0  0  0
 16 15  1  0  0  0  0
 17 18  1  0  0  0  0
 18 23  1  0  0  0  0
 19 18  2  0  0  0  0
 19 20  1  0  0  0  0
 20 21  2  0  0  0  0
 21 22  1  0  0  0  0
 22 25  1  0  0  0  0
 23 22  2  0  0  0  0
 24 19  1  0  0  0  0
 26 27  1  0  0  0  0
 26 20  1  0  0  0  0
 26 28  1  0  0  0  0
 27 30  1  0  0  0  0
 27 28  1  0  0  0  0
 28 32  1  0  0  0  0
 29 26  1  0  0  0  0
 31 27  1  0  0  0  0
 33 28  1  0  0  0  0
 34  6  1  0  0  0  0
 35 34  1  0  0  0  0
 35 39  1  0  0  0  0
 36 35  2  0  0  0  0
 37 38  2  0  0  0  0
 38 40  1  0  0  0  0
 38 39  1  0  0  0  0
 39 43  1  0  0  0  0
 40 41  1  0  0  0  0
 42 37  1  0  0  0  0
 44 40  1  0  0  0  0
M  END
>  <minimizedAffinity>
-5.85880136

>  <minimizedRMSD>
0.12217202

$$$$
