
 OpenBabel03252509193D

 42 44  0  0  1  0  0  0  0  0999 V2000
   48.5790   29.3080   47.8320 C   0  0  1  0  0  0  0  0  0  0  0  0
   48.6670   28.4250   46.6500 C   0  0  0  0  0  0  0  0  0  0  0  0
   50.0120   27.7740   46.4570 C   0  0  0  0  0  0  0  0  0  0  0  0
   50.6080   27.2350   47.7230 C   0  0  0  0  0  0  0  0  0  0  0  0
   50.4280   28.1650   48.8950 C   0  0  0  0  0  0  0  0  0  0  0  0
   49.9970   29.5490   48.3980 C   0  0  2  0  0  0  0  0  0  0  0  0
   48.0550   28.7750   48.6670 H   0  0  0  0  0  0  0  0  0  0  0  0
   48.4150   28.9680   45.7310 H   0  0  0  0  0  0  0  0  0  0  0  0
   47.9290   27.5960   46.7340 H   0  0  0  0  0  0  0  0  0  0  0  0
   49.8610   26.9170   45.7810 H   0  0  0  0  0  0  0  0  0  0  0  0
   50.6640   28.5220   45.9590 H   0  0  0  0  0  0  0  0  0  0  0  0
   51.7050   27.1360   47.5560 H   0  0  0  0  0  0  0  0  0  0  0  0
   50.2270   26.2100   47.9390 H   0  0  0  0  0  0  0  0  0  0  0  0
   51.2890   28.2180   49.5760 H   0  0  0  0  0  0  0  0  0  0  0  0
   49.5310   27.7720   49.4480 H   0  0  0  0  0  0  0  0  0  0  0  0
   50.6700   29.8960   47.5840 H   0  0  0  0  0  0  0  0  0  0  0  0
   49.9340   30.4720   49.5290 C   0  0  0  0  0  0  0  0  0  0  0  0
   49.1910   30.2730   50.5160 O   0  0  0  0  0  0  0  0  0  0  0  0
   52.6750   31.3960   48.7070 N   0  0  0  0  0  0  0  0  0  0  0  0
   51.8810   32.0570   49.3790 C   0  0  0  0  0  0  0  0  0  0  0  0
   50.5960   31.6750   49.7930 N   0  0  0  0  0  0  0  0  0  0  0  0
   52.4410   33.3470   49.7220 N   0  0  0  0  0  0  0  0  0  0  0  0
   52.6380   34.1310   49.0540 H   0  0  0  0  0  0  0  0  0  0  0  0
   52.6460   30.4940   48.3020 H   0  0  0  0  0  0  0  0  0  0  0  0
   50.1110   32.3960   50.3350 H   0  0  0  0  0  0  0  0  0  0  0  0
   52.6880   33.5620   50.7070 H   0  0  0  0  0  0  0  0  0  0  0  0
   46.6440   32.6030   46.3740 C   0  0  0  0  0  0  0  0  0  0  0  0
   46.6820   32.5860   47.7660 C   0  0  0  0  0  0  0  0  0  0  0  0
   47.2840   31.5550   48.3620 C   0  0  0  0  0  0  0  0  0  0  0  0
   47.8640   30.5180   47.5930 C   0  0  0  0  0  0  0  0  0  0  0  0
   47.5220   31.0520   45.8860 S   0  0  0  0  0  0  0  0  0  0  0  0
   46.2380   33.3810   48.3470 H   0  0  0  0  0  0  0  0  0  0  0  0
   47.4100   31.3670   49.4130 H   0  0  0  0  0  0  0  0  0  0  0  0
   44.5980   35.4180   45.0550 C   0  0  0  0  0  0  0  0  0  0  0  0
   45.1270   35.5350   43.7710 C   0  0  0  0  0  0  0  0  0  0  0  0
   46.1540   34.6580   43.3990 C   0  0  0  0  0  0  0  0  0  0  0  0
   46.5810   33.7300   44.3240 N   0  0  0  0  0  0  0  0  0  0  0  0
   46.0350   33.6630   45.5480 C   0  0  0  0  0  0  0  0  0  0  0  0
   45.0360   34.5130   45.9170 N   0  0  0  0  0  0  0  0  0  0  0  0
   43.8160   36.0470   45.4160 H   0  0  0  0  0  0  0  0  0  0  0  0
   44.7640   36.2670   43.0920 H   0  0  0  0  0  0  0  0  0  0  0  0
   46.6110   34.6830   42.4330 H   0  0  0  0  0  0  0  0  0  0  0  0
  1  6  1  0  0  0  0
  1  7  1  1  0  0  0
  2  9  1  0  0  0  0
  2  1  1  0  0  0  0
  3  2  1  0  0  0  0
  3  4  1  0  0  0  0
  4 13  1  0  0  0  0
  4  5  1  0  0  0  0
  5 15  1  0  0  0  0
  5 14  1  0  0  0  0
  6 16  1  6  0  0  0
  6  5  1  0  0  0  0
  6 17  1  0  0  0  0
  8  2  1  0  0  0  0
 10  3  1  0  0  0  0
 11  3  1  0  0  0  0
 12  4  1  0  0  0  0
 17 21  1  0  0  0  0
 17 18  2  0  0  0  0
 19 20  2  0  0  0  0
 20 22  1  0  0  0  0
 20 21  1  0  0  0  0
 21 25  1  0  0  0  0
 22 26  1  0  0  0  0
 23 22  1  0  0  0  0
 24 19  1  0  0  0  0
 27 28  2  0  0  0  0
 28 32  1  0  0  0  0
 28 29  1  0  0  0  0
 29 33  1  0  0  0  0
 30  1  1  0  0  0  0
 30 29  2  0  0  0  0
 31 27  1  0  0  0  0
 31 30  1  0  0  0  0
 34 40  1  0  0  0  0
 34 39  1  0  0  0  0
 35 34  2  0  0  0  0
 36 35  1  0  0  0  0
 36 37  2  0  0  0  0
 37 38  1  0  0  0  0
 38 39  2  0  0  0  0
 38 27  1  0  0  0  0
 41 35  1  0  0  0  0
 42 36  1  0  0  0  0
M  END
>  <minimizedAffinity>
-5.32829618

>  <minimizedRMSD>
1.94459724

$$$$
