
 OpenBabel03252509193D

 42 44  0  0  1  0  0  0  0  0999 V2000
   47.9600   29.3010   47.9260 C   0  0  1  0  0  0  0  0  0  0  0  0
   47.8760   28.2960   46.8440 C   0  0  0  0  0  0  0  0  0  0  0  0
   49.1700   27.5790   46.5590 C   0  0  0  0  0  0  0  0  0  0  0  0
   49.9080   27.1530   47.7920 C   0  0  0  0  0  0  0  0  0  0  0  0
   49.9000   28.2060   48.8700 C   0  0  0  0  0  0  0  0  0  0  0  0
   49.4440   29.5460   48.2830 C   0  0  2  0  0  0  0  0  0  0  0  0
   47.5340   28.8780   48.8720 H   0  0  0  0  0  0  0  0  0  0  0  0
   47.5230   28.7490   45.9100 H   0  0  0  0  0  0  0  0  0  0  0  0
   47.1350   27.5090   47.1090 H   0  0  0  0  0  0  0  0  0  0  0  0
   48.9130   26.6620   46.0040 H   0  0  0  0  0  0  0  0  0  0  0  0
   49.7710   28.2460   45.9060 H   0  0  0  0  0  0  0  0  0  0  0  0
   50.9730   26.9960   47.5030 H   0  0  0  0  0  0  0  0  0  0  0  0
   49.5330   26.1720   48.1640 H   0  0  0  0  0  0  0  0  0  0  0  0
   50.8420   28.2980   49.4300 H   0  0  0  0  0  0  0  0  0  0  0  0
   49.0720   27.9070   49.5690 H   0  0  0  0  0  0  0  0  0  0  0  0
   50.0160   29.7810   47.3600 H   0  0  0  0  0  0  0  0  0  0  0  0
   49.5470   30.5840   49.3070 C   0  0  0  0  0  0  0  0  0  0  0  0
   49.1420   30.4120   50.4780 O   0  0  0  0  0  0  0  0  0  0  0  0
   51.3110   32.0300   51.2660 N   0  0  0  0  0  0  0  0  0  0  0  0
   50.8840   32.5110   50.2150 C   0  0  0  0  0  0  0  0  0  0  0  0
   50.0570   31.8860   49.2710 N   0  0  0  0  0  0  0  0  0  0  0  0
   51.3460   33.8710   50.0440 N   0  0  0  0  0  0  0  0  0  0  0  0
   52.3350   34.1680   49.8580 H   0  0  0  0  0  0  0  0  0  0  0  0
   51.2110   31.1510   51.7090 H   0  0  0  0  0  0  0  0  0  0  0  0
   49.8370   32.4780   48.4650 H   0  0  0  0  0  0  0  0  0  0  0  0
   50.6750   34.6610   50.1010 H   0  0  0  0  0  0  0  0  0  0  0  0
   46.2180   32.6660   46.3870 C   0  0  0  0  0  0  0  0  0  0  0  0
   45.9460   32.5030   47.7430 C   0  0  0  0  0  0  0  0  0  0  0  0
   46.4570   31.4360   48.3590 C   0  0  0  0  0  0  0  0  0  0  0  0
   47.2500   30.5050   47.6470 C   0  0  0  0  0  0  0  0  0  0  0  0
   47.2670   31.2050   45.9660 S   0  0  0  0  0  0  0  0  0  0  0  0
   45.3410   33.2180   48.2810 H   0  0  0  0  0  0  0  0  0  0  0  0
   46.3570   31.1430   49.3890 H   0  0  0  0  0  0  0  0  0  0  0  0
   44.5190   35.6820   45.0210 C   0  0  0  0  0  0  0  0  0  0  0  0
   45.1010   35.7490   43.7560 C   0  0  0  0  0  0  0  0  0  0  0  0
   46.0430   34.7720   43.4130 C   0  0  0  0  0  0  0  0  0  0  0  0
   46.3410   33.8010   44.3450 N   0  0  0  0  0  0  0  0  0  0  0  0
   45.7500   33.7860   45.5490 C   0  0  0  0  0  0  0  0  0  0  0  0
   44.8320   34.7330   45.8900 N   0  0  0  0  0  0  0  0  0  0  0  0
   43.7940   36.3870   45.3600 H   0  0  0  0  0  0  0  0  0  0  0  0
   44.8390   36.5170   43.0710 H   0  0  0  0  0  0  0  0  0  0  0  0
   46.5340   34.7540   42.4630 H   0  0  0  0  0  0  0  0  0  0  0  0
  1  6  1  0  0  0  0
  1  7  1  1  0  0  0
  2  9  1  0  0  0  0
  2  1  1  0  0  0  0
  3  2  1  0  0  0  0
  3  4  1  0  0  0  0
  4 13  1  0  0  0  0
  4  5  1  0  0  0  0
  5 14  1  0  0  0  0
  5 15  1  0  0  0  0
  6 16  1  6  0  0  0
  6  5  1  0  0  0  0
  6 17  1  0  0  0  0
  8  2  1  0  0  0  0
 10  3  1  0  0  0  0
 11  3  1  0  0  0  0
 12  4  1  0  0  0  0
 17 18  2  0  0  0  0
 19 24  1  0  0  0  0
 20 19  2  0  0  0  0
 21 17  1  0  0  0  0
 21 20  1  0  0  0  0
 22 26  1  0  0  0  0
 22 20  1  0  0  0  0
 23 22  1  0  0  0  0
 25 21  1  0  0  0  0
 27 28  2  0  0  0  0
 28 32  1  0  0  0  0
 28 29  1  0  0  0  0
 29 33  1  0  0  0  0
 30  1  1  0  0  0  0
 30 29  2  0  0  0  0
 31 27  1  0  0  0  0
 31 30  1  0  0  0  0
 34 40  1  0  0  0  0
 34 39  1  0  0  0  0
 35 34  2  0  0  0  0
 36 35  1  0  0  0  0
 36 37  2  0  0  0  0
 37 38  1  0  0  0  0
 38 39  2  0  0  0  0
 38 27  1  0  0  0  0
 41 35  1  0  0  0  0
 42 36  1  0  0  0  0
M  END
>  <minimizedAffinity>
-5.59249163

>  <minimizedRMSD>
1.22301733

$$$$
