
 OpenBabel03242523173D

 26 27  0  0  0  0  0  0  0  0999 V2000
   46.3670   34.4350   43.4700 C   0  0  0  0  0  0  0  0  0  0  0  0
   47.5320   33.9160   43.0090 C   0  0  0  0  0  0  0  0  0  0  0  0
   47.9520   32.7450   43.6110 C   0  0  0  0  0  0  0  0  0  0  0  0
   47.1560   32.2110   44.6210 N   0  0  0  0  0  0  0  0  0  0  0  0
   46.0300   32.7550   45.0350 C   0  0  0  0  0  0  0  0  0  0  0  0
   45.5890   33.9180   44.4560 N   0  0  0  0  0  0  0  0  0  0  0  0
   48.8680   32.2470   43.3190 H   0  0  0  0  0  0  0  0  0  0  0  0
   45.5630   32.1860   45.8280 H   0  0  0  0  0  0  0  0  0  0  0  0
   45.6440   35.5830   42.9480 C   0  0  0  0  0  0  0  0  0  0  0  0
   45.2690   36.7370   43.0960 O   0  0  0  0  0  0  0  0  0  0  0  0
   42.8420   35.8870   41.7130 N   0  0  0  0  0  0  0  0  0  0  0  0
   43.8410   35.3100   41.2160 C   0  0  0  0  0  0  0  0  0  0  0  0
   45.1650   35.0960   41.6600 N   0  0  0  0  0  0  0  0  0  0  0  0
   43.1950   34.9080   39.9850 N   0  0  0  0  0  0  0  0  0  0  0  0
   43.2950   35.2940   39.0030 H   0  0  0  0  0  0  0  0  0  0  0  0
   42.7270   36.3630   42.5950 H   0  0  0  0  0  0  0  0  0  0  0  0
   45.6150   34.5480   40.8610 H   0  0  0  0  0  0  0  0  0  0  0  0
   42.4910   34.1470   39.8130 H   0  0  0  0  0  0  0  0  0  0  0  0
   48.3640   34.5050   42.0280 C   0  0  0  0  0  0  0  0  0  0  0  0
   48.7320   35.7940   41.8230 C   0  0  0  0  0  0  0  0  0  0  0  0
   49.8420   34.9300   42.4210 C   0  0  0  0  0  0  0  0  0  0  0  0
   48.6600   33.6610   41.2620 H   0  0  0  0  0  0  0  0  0  0  0  0
   49.0300   36.2080   40.8200 H   0  0  0  0  0  0  0  0  0  0  0  0
   48.4230   36.6340   42.5030 H   0  0  0  0  0  0  0  0  0  0  0  0
   50.0220   34.9610   43.5140 H   0  0  0  0  0  0  0  0  0  0  0  0
   50.6700   34.6390   41.8030 H   0  0  0  0  0  0  0  0  0  0  0  0
  1  6  1  0  0  0  0
  2  1  2  0  0  0  0
  2  3  1  0  0  0  0
  3  4  2  0  0  0  0
  4  5  1  0  0  0  0
  5  8  1  0  0  0  0
  6  5  2  0  0  0  0
  7  3  1  0  0  0  0
  9 10  2  0  0  0  0
  9  1  1  0  0  0  0
 11 16  1  0  0  0  0
 12 13  1  0  0  0  0
 12 11  2  0  0  0  0
 13  9  1  0  0  0  0
 14 12  1  0  0  0  0
 15 14  1  0  0  0  0
 17 13  1  0  0  0  0
 18 14  1  0  0  0  0
 19 21  1  0  0  0  0
 19  2  1  0  0  0  0
 20 19  1  0  0  0  0
 20 21  1  0  0  0  0
 20 24  1  0  0  0  0
 21 25  1  0  0  0  0
 22 19  1  0  0  0  0
 23 20  1  0  0  0  0
 26 21  1  0  0  0  0
M  END
>  <minimizedAffinity>
-5.07408428

>  <minimizedRMSD>
0.226595357

$$$$
