
 OpenBabel03242511153D

 43 46  0  0  1  0  0  0  0  0999 V2000
   39.1790   29.8720   41.1830 C   0  0  1  0  0  0  0  0  0  0  0  0
   39.5690   30.8640   42.2530 C   0  0  0  0  0  0  0  0  0  0  0  0
   38.3450   29.9150   42.3850 C   0  0  2  0  0  0  0  0  0  0  0  0
   39.8540   29.0240   41.0850 H   0  0  0  0  0  0  0  0  0  0  0  0
   40.4230   30.6450   42.9120 H   0  0  0  0  0  0  0  0  0  0  0  0
   39.3230   31.9390   42.1070 H   0  0  0  0  0  0  0  0  0  0  0  0
   37.3630   30.4300   42.4000 H   0  0  0  0  0  0  0  0  0  0  0  0
   36.8620   30.5460   38.3810 C   0  0  0  0  0  0  0  0  0  0  0  0
   37.6900   31.3340   37.5050 C   0  0  0  0  0  0  0  0  0  0  0  0
   39.0260   31.6090   37.9070 C   0  0  0  0  0  0  0  0  0  0  0  0
   39.4320   31.1220   39.0720 N   0  0  0  0  0  0  0  0  0  0  0  0
   38.6380   30.3870   39.8760 C   0  0  0  0  0  0  0  0  0  0  0  0
   37.3470   30.0900   39.5430 N   0  0  0  0  0  0  0  0  0  0  0  0
   35.8550   30.3640   38.0320 H   0  0  0  0  0  0  0  0  0  0  0  0
   37.2690   31.6790   36.5910 H   0  0  0  0  0  0  0  0  0  0  0  0
   41.7090   31.0040   37.0390 N   0  0  0  0  0  0  0  0  0  0  0  0
   41.2320   32.1980   36.9860 C   0  0  0  0  0  0  0  0  0  0  0  0
   39.8320   32.3920   37.0380 N   0  0  0  0  0  0  0  0  0  0  0  0
   42.1130   33.3100   36.8750 N   0  0  0  0  0  0  0  0  0  0  0  0
   42.1790   34.1240   36.2160 H   0  0  0  0  0  0  0  0  0  0  0  0
   41.1230   30.1510   37.1170 H   0  0  0  0  0  0  0  0  0  0  0  0
   39.3990   33.1180   36.4290 H   0  0  0  0  0  0  0  0  0  0  0  0
   42.8560   33.2920   37.6290 H   0  0  0  0  0  0  0  0  0  0  0  0
   38.4770   28.8400   43.3320 N   0  0  0  0  0  0  0  0  0  0  0  0
   37.9170   29.1360   44.1560 H   0  0  0  0  0  0  0  0  0  0  0  0
   39.2590   27.7090   43.0540 C   0  0  0  0  0  0  0  0  0  0  0  0
   40.6200   27.7620   43.2710 C   0  0  0  0  0  0  0  0  0  0  0  0
   41.4540   26.6710   43.0890 C   0  0  0  0  0  0  0  0  0  0  0  0
   40.9450   25.4590   42.6760 C   0  0  0  0  0  0  0  0  0  0  0  0
   39.5930   25.3840   42.4520 C   0  0  0  0  0  0  0  0  0  0  0  0
   39.0610   24.1710   42.0400 C   0  0  0  0  0  0  0  0  0  0  0  0
   37.7240   24.0180   41.8010 C   0  0  0  0  0  0  0  0  0  0  0  0
   36.9160   25.1260   41.9860 C   0  0  0  0  0  0  0  0  0  0  0  0
   37.4590   26.3250   42.3960 C   0  0  0  0  0  0  0  0  0  0  0  0
   38.7870   26.4840   42.6390 C   0  0  0  0  0  0  0  0  0  0  0  0
   41.1290   28.6710   43.6010 H   0  0  0  0  0  0  0  0  0  0  0  0
   42.5190   26.7110   43.2580 H   0  0  0  0  0  0  0  0  0  0  0  0
   41.5660   24.5860   42.5240 H   0  0  0  0  0  0  0  0  0  0  0  0
   39.6760   23.2940   41.8900 H   0  0  0  0  0  0  0  0  0  0  0  0
   37.2690   23.0860   41.4790 H   0  0  0  0  0  0  0  0  0  0  0  0
   35.8520   25.0410   41.8040 H   0  0  0  0  0  0  0  0  0  0  0  0
   36.6190   27.4020   42.5600 O   0  0  0  0  0  0  0  0  0  0  0  0
   36.2410   27.8970   41.7750 H   0  0  0  0  0  0  0  0  0  0  0  0
  1  4  1  6  0  0  0
  1  2  1  0  0  0  0
  1  3  1  0  0  0  0
  2  3  1  0  0  0  0
  2  5  1  0  0  0  0
  3  7  1  6  0  0  0
  3 24  1  0  0  0  0
  6  2  1  0  0  0  0
  8 13  1  0  0  0  0
  9 10  1  0  0  0  0
  9  8  2  0  0  0  0
 10 11  2  0  0  0  0
 11 12  1  0  0  0  0
 12  1  1  0  0  0  0
 13 12  2  0  0  0  0
 14  8  1  0  0  0  0
 15  9  1  0  0  0  0
 16 21  1  0  0  0  0
 17 18  1  0  0  0  0
 17 16  2  0  0  0  0
 18 10  1  0  0  0  0
 19 17  1  0  0  0  0
 19 23  1  0  0  0  0
 20 19  1  0  0  0  0
 22 18  1  0  0  0  0
 24 25  1  0  0  0  0
 26 27  1  0  0  0  0
 26 24  1  0  0  0  0
 27 36  1  0  0  0  0
 28 37  1  0  0  0  0
 28 27  2  0  0  0  0
 29 28  1  0  0  0  0
 30 35  1  0  0  0  0
 30 29  2  0  0  0  0
 31 30  1  0  0  0  0
 32 33  1  0  0  0  0
 32 31  2  0  0  0  0
 33 34  2  0  0  0  0
 34 42  1  0  0  0  0
 34 35  1  0  0  0  0
 35 26  2  0  0  0  0
 38 29  1  0  0  0  0
 39 31  1  0  0  0  0
 40 32  1  0  0  0  0
 41 33  1  0  0  0  0
 43 42  1  0  0  0  0
M  END
>  <minimizedAffinity>
-7.23810863

$$$$

 OpenBabel03242511153D

 43 46  0  0  1  0  0  0  0  0999 V2000
   40.8830   30.2970   40.9630 C   0  0  1  0  0  0  0  0  0  0  0  0
   42.2010   30.1770   41.6900 C   0  0  0  0  0  0  0  0  0  0  0  0
   40.8370   29.8300   42.3490 C   0  0  2  0  0  0  0  0  0  0  0  0
   40.7230   29.5490   40.1890 H   0  0  0  0  0  0  0  0  0  0  0  0
   42.8640   29.3250   41.4760 H   0  0  0  0  0  0  0  0  0  0  0  0
   42.6930   31.1000   42.0710 H   0  0  0  0  0  0  0  0  0  0  0  0
   40.5470   30.5000   43.1850 H   0  0  0  0  0  0  0  0  0  0  0  0
   38.7290   33.3020   40.8710 C   0  0  0  0  0  0  0  0  0  0  0  0
   39.4590   34.1520   39.9660 C   0  0  0  0  0  0  0  0  0  0  0  0
   40.6740   33.6630   39.4140 C   0  0  0  0  0  0  0  0  0  0  0  0
   41.0660   32.4460   39.7670 N   0  0  0  0  0  0  0  0  0  0  0  0
   40.3660   31.6680   40.6160 C   0  0  0  0  0  0  0  0  0  0  0  0
   39.1920   32.0830   41.1780 N   0  0  0  0  0  0  0  0  0  0  0  0
   37.8120   33.7180   41.2640 H   0  0  0  0  0  0  0  0  0  0  0  0
   39.0590   35.1130   39.7480 H   0  0  0  0  0  0  0  0  0  0  0  0
   41.7360   32.9500   36.8290 N   0  0  0  0  0  0  0  0  0  0  0  0
   42.1720   33.9670   37.4840 C   0  0  0  0  0  0  0  0  0  0  0  0
   41.3880   34.5120   38.5270 N   0  0  0  0  0  0  0  0  0  0  0  0
   43.4340   34.5350   37.1540 N   0  0  0  0  0  0  0  0  0  0  0  0
   43.7570   35.5060   36.9200 H   0  0  0  0  0  0  0  0  0  0  0  0
   40.8240   32.4890   37.0160 H   0  0  0  0  0  0  0  0  0  0  0  0
   41.3420   35.5480   38.6380 H   0  0  0  0  0  0  0  0  0  0  0  0
   44.1990   33.8040   37.1480 H   0  0  0  0  0  0  0  0  0  0  0  0
   40.5820   28.4330   42.5800 N   0  0  0  0  0  0  0  0  0  0  0  0
   41.5120   27.9740   42.5180 H   0  0  0  0  0  0  0  0  0  0  0  0
   39.2820   27.9520   42.7980 C   0  0  0  0  0  0  0  0  0  0  0  0
   38.3420   28.7840   43.3680 C   0  0  0  0  0  0  0  0  0  0  0  0
   37.0210   28.4120   43.5550 C   0  0  0  0  0  0  0  0  0  0  0  0
   36.5810   27.1660   43.1670 C   0  0  0  0  0  0  0  0  0  0  0  0
   37.5000   26.3190   42.5990 C   0  0  0  0  0  0  0  0  0  0  0  0
   37.0760   25.0620   42.1980 C   0  0  0  0  0  0  0  0  0  0  0  0
   37.9320   24.1650   41.6210 C   0  0  0  0  0  0  0  0  0  0  0  0
   39.2470   24.5620   41.4520 C   0  0  0  0  0  0  0  0  0  0  0  0
   39.6540   25.8160   41.8560 C   0  0  0  0  0  0  0  0  0  0  0  0
   38.8080   26.7140   42.4270 C   0  0  0  0  0  0  0  0  0  0  0  0
   38.5810   29.7950   43.7110 H   0  0  0  0  0  0  0  0  0  0  0  0
   36.2850   29.0630   44.0010 H   0  0  0  0  0  0  0  0  0  0  0  0
   35.5570   26.8410   43.2970 H   0  0  0  0  0  0  0  0  0  0  0  0
   36.0520   24.7330   42.3210 H   0  0  0  0  0  0  0  0  0  0  0  0
   37.6380   23.1730   41.2930 H   0  0  0  0  0  0  0  0  0  0  0  0
   39.9520   23.8770   41.0010 H   0  0  0  0  0  0  0  0  0  0  0  0
   40.9720   26.1650   41.6760 O   0  0  0  0  0  0  0  0  0  0  0  0
   41.6980   25.7950   42.2590 H   0  0  0  0  0  0  0  0  0  0  0  0
  1  4  1  6  0  0  0
  1  2  1  0  0  0  0
  1  3  1  0  0  0  0
  2  6  1  0  0  0  0
  2  3  1  0  0  0  0
  3 24  1  0  0  0  0
  3  7  1  1  0  0  0
  5  2  1  0  0  0  0
  8 13  1  0  0  0  0
  8 14  1  0  0  0  0
  9  8  2  0  0  0  0
 10 11  2  0  0  0  0
 10  9  1  0  0  0  0
 11 12  1  0  0  0  0
 12  1  1  0  0  0  0
 12 13  2  0  0  0  0
 15  9  1  0  0  0  0
 16 21  1  0  0  0  0
 16 17  2  0  0  0  0
 17 18  1  0  0  0  0
 18 22  1  0  0  0  0
 18 10  1  0  0  0  0
 19 17  1  0  0  0  0
 20 19  1  0  0  0  0
 23 19  1  0  0  0  0
 24 26  1  0  0  0  0
 25 24  1  0  0  0  0
 26 27  1  0  0  0  0
 27 28  2  0  0  0  0
 27 36  1  0  0  0  0
 28 37  1  0  0  0  0
 29 38  1  0  0  0  0
 29 28  1  0  0  0  0
 30 29  2  0  0  0  0
 31 39  1  0  0  0  0
 31 30  1  0  0  0  0
 32 31  2  0  0  0  0
 33 32  1  0  0  0  0
 33 34  2  0  0  0  0
 34 35  1  0  0  0  0
 35 30  1  0  0  0  0
 35 26  2  0  0  0  0
 40 32  1  0  0  0  0
 41 33  1  0  0  0  0
 42 34  1  0  0  0  0
 42 43  1  0  0  0  0
M  END
>  <minimizedAffinity>
-7.09030962

$$$$

 OpenBabel03242511153D

 43 46  0  0  1  0  0  0  0  0999 V2000
   41.9100   30.0880   41.4200 C   0  0  1  0  0  0  0  0  0  0  0  0
   41.9850   30.4760   42.8780 C   0  0  0  0  0  0  0  0  0  0  0  0
   40.7450   29.7790   42.2510 C   0  0  2  0  0  0  0  0  0  0  0  0
   42.5470   29.2510   41.1410 H   0  0  0  0  0  0  0  0  0  0  0  0
   42.5810   29.8650   43.5730 H   0  0  0  0  0  0  0  0  0  0  0  0
   41.8400   31.5430   43.1600 H   0  0  0  0  0  0  0  0  0  0  0  0
   39.8280   30.4040   42.2310 H   0  0  0  0  0  0  0  0  0  0  0  0
   42.8700   32.4420   38.7350 C   0  0  0  0  0  0  0  0  0  0  0  0
   41.6330   33.1460   38.5120 C   0  0  0  0  0  0  0  0  0  0  0  0
   40.5030   32.7860   39.2970 C   0  0  0  0  0  0  0  0  0  0  0  0
   40.6550   31.8200   40.1910 N   0  0  0  0  0  0  0  0  0  0  0  0
   41.8240   31.1740   40.3820 C   0  0  0  0  0  0  0  0  0  0  0  0
   42.9430   31.4760   39.6590 N   0  0  0  0  0  0  0  0  0  0  0  0
   43.7000   32.7510   38.1150 H   0  0  0  0  0  0  0  0  0  0  0  0
   41.6140   33.9060   37.7690 H   0  0  0  0  0  0  0  0  0  0  0  0
   38.7950   33.9780   41.2920 N   0  0  0  0  0  0  0  0  0  0  0  0
   38.3630   33.6860   40.1160 C   0  0  0  0  0  0  0  0  0  0  0  0
   39.2860   33.4830   39.0650 N   0  0  0  0  0  0  0  0  0  0  0  0
   36.9640   33.5730   39.8820 N   0  0  0  0  0  0  0  0  0  0  0  0
   36.3040   34.0040   39.1890 H   0  0  0  0  0  0  0  0  0  0  0  0
   39.8010   34.0790   41.5300 H   0  0  0  0  0  0  0  0  0  0  0  0
   39.0630   33.8510   38.1160 H   0  0  0  0  0  0  0  0  0  0  0  0
   36.5090   32.9070   40.5670 H   0  0  0  0  0  0  0  0  0  0  0  0
   40.5310   28.4070   42.6260 N   0  0  0  0  0  0  0  0  0  0  0  0
   41.4810   27.9870   42.6660 H   0  0  0  0  0  0  0  0  0  0  0  0
   39.2410   27.8950   42.8290 C   0  0  0  0  0  0  0  0  0  0  0  0
   38.2830   28.6950   43.4150 C   0  0  0  0  0  0  0  0  0  0  0  0
   36.9690   28.2930   43.5890 C   0  0  0  0  0  0  0  0  0  0  0  0
   36.5560   27.0470   43.1720 C   0  0  0  0  0  0  0  0  0  0  0  0
   37.4930   26.2320   42.5870 C   0  0  0  0  0  0  0  0  0  0  0  0
   37.0950   24.9750   42.1560 C   0  0  0  0  0  0  0  0  0  0  0  0
   37.9710   24.1100   41.5610 C   0  0  0  0  0  0  0  0  0  0  0  0
   39.2780   24.5370   41.4060 C   0  0  0  0  0  0  0  0  0  0  0  0
   39.6580   25.7890   41.8400 C   0  0  0  0  0  0  0  0  0  0  0  0
   38.7930   26.6570   42.4280 C   0  0  0  0  0  0  0  0  0  0  0  0
   38.5000   29.7020   43.7810 H   0  0  0  0  0  0  0  0  0  0  0  0
   36.2190   28.9180   44.0470 H   0  0  0  0  0  0  0  0  0  0  0  0
   35.5380   26.6980   43.2900 H   0  0  0  0  0  0  0  0  0  0  0  0
   36.0780   24.6230   42.2690 H   0  0  0  0  0  0  0  0  0  0  0  0
   37.6980   23.1190   41.2100 H   0  0  0  0  0  0  0  0  0  0  0  0
   39.9980   23.8770   40.9410 H   0  0  0  0  0  0  0  0  0  0  0  0
   40.9700   26.1690   41.6720 O   0  0  0  0  0  0  0  0  0  0  0  0
   41.7020   25.8000   42.2480 H   0  0  0  0  0  0  0  0  0  0  0  0
  1  4  1  6  0  0  0
  1  3  1  0  0  0  0
  1  2  1  0  0  0  0
  2  6  1  0  0  0  0
  2  5  1  0  0  0  0
  3  7  1  6  0  0  0
  3 24  1  0  0  0  0
  3  2  1  0  0  0  0
  8 13  1  0  0  0  0
  9  8  2  0  0  0  0
  9 10  1  0  0  0  0
 10 11  2  0  0  0  0
 11 12  1  0  0  0  0
 12  1  1  0  0  0  0
 13 12  2  0  0  0  0
 14  8  1  0  0  0  0
 15  9  1  0  0  0  0
 16 21  1  0  0  0  0
 17 16  2  0  0  0  0
 18 10  1  0  0  0  0
 18 17  1  0  0  0  0
 19 17  1  0  0  0  0
 19 23  1  0  0  0  0
 20 19  1  0  0  0  0
 22 18  1  0  0  0  0
 24 25  1  0  0  0  0
 24 26  1  0  0  0  0
 26 27  1  0  0  0  0
 27 28  2  0  0  0  0
 27 36  1  0  0  0  0
 28 37  1  0  0  0  0
 29 38  1  0  0  0  0
 29 28  1  0  0  0  0
 30 29  2  0  0  0  0
 31 39  1  0  0  0  0
 31 30  1  0  0  0  0
 32 31  2  0  0  0  0
 33 32  1  0  0  0  0
 33 34  2  0  0  0  0
 34 35  1  0  0  0  0
 35 30  1  0  0  0  0
 35 26  2  0  0  0  0
 40 32  1  0  0  0  0
 41 33  1  0  0  0  0
 42 34  1  0  0  0  0
 42 43  1  0  0  0  0
M  END
>  <minimizedAffinity>
-7.04642963

$$$$

 OpenBabel03242511153D

 43 46  0  0  1  0  0  0  0  0999 V2000
   35.9510   28.6030   39.4790 C   0  0  1  0  0  0  0  0  0  0  0  0
   34.6070   29.2920   39.5050 C   0  0  0  0  0  0  0  0  0  0  0  0
   35.4120   28.9610   40.7930 C   0  0  2  0  0  0  0  0  0  0  0  0
   36.7670   29.2170   39.1020 H   0  0  0  0  0  0  0  0  0  0  0  0
   34.5370   30.3570   39.2400 H   0  0  0  0  0  0  0  0  0  0  0  0
   33.6870   28.6840   39.3500 H   0  0  0  0  0  0  0  0  0  0  0  0
   34.9330   28.2100   41.4540 H   0  0  0  0  0  0  0  0  0  0  0  0
   35.4710   25.4970   37.5310 C   0  0  0  0  0  0  0  0  0  0  0  0
   36.1640   24.5340   38.3480 C   0  0  0  0  0  0  0  0  0  0  0  0
   36.7760   24.9860   39.5490 C   0  0  0  0  0  0  0  0  0  0  0  0
   36.6730   26.2740   39.8470 N   0  0  0  0  0  0  0  0  0  0  0  0
   36.0200   27.1570   39.0660 C   0  0  0  0  0  0  0  0  0  0  0  0
   35.4120   26.7820   37.9010 N   0  0  0  0  0  0  0  0  0  0  0  0
   35.0230   25.1050   36.6290 H   0  0  0  0  0  0  0  0  0  0  0  0
   36.1900   23.5230   38.0200 H   0  0  0  0  0  0  0  0  0  0  0  0
   36.4960   24.5950   42.3930 N   0  0  0  0  0  0  0  0  0  0  0  0
   37.5280   24.1770   41.7500 C   0  0  0  0  0  0  0  0  0  0  0  0
   37.4610   24.0280   40.3450 N   0  0  0  0  0  0  0  0  0  0  0  0
   38.7260   23.8660   42.4530 N   0  0  0  0  0  0  0  0  0  0  0  0
   39.3520   23.0250   42.4890 H   0  0  0  0  0  0  0  0  0  0  0  0
   35.5920   24.8350   41.9420 H   0  0  0  0  0  0  0  0  0  0  0  0
   37.9220   23.2060   39.8990 H   0  0  0  0  0  0  0  0  0  0  0  0
   39.0330   24.6710   43.0690 H   0  0  0  0  0  0  0  0  0  0  0  0
   36.0000   30.0800   41.4780 N   0  0  0  0  0  0  0  0  0  0  0  0
   35.2180   30.7490   41.6240 H   0  0  0  0  0  0  0  0  0  0  0  0
   37.3680   30.1160   41.7850 C   0  0  0  0  0  0  0  0  0  0  0  0
   37.9270   29.0750   42.4970 C   0  0  0  0  0  0  0  0  0  0  0  0
   39.2800   28.9980   42.7810 C   0  0  0  0  0  0  0  0  0  0  0  0
   40.1450   29.9810   42.3520 C   0  0  0  0  0  0  0  0  0  0  0  0
   39.6110   31.0280   41.6430 C   0  0  0  0  0  0  0  0  0  0  0  0
   40.4660   32.0250   41.1980 C   0  0  0  0  0  0  0  0  0  0  0  0
   40.0080   33.0970   40.4830 C   0  0  0  0  0  0  0  0  0  0  0  0
   38.6510   33.1500   40.2190 C   0  0  0  0  0  0  0  0  0  0  0  0
   37.8140   32.1520   40.6680 C   0  0  0  0  0  0  0  0  0  0  0  0
   38.2610   31.0810   41.3760 C   0  0  0  0  0  0  0  0  0  0  0  0
   37.3350   28.2420   42.8830 H   0  0  0  0  0  0  0  0  0  0  0  0
   39.7180   28.1840   43.3380 H   0  0  0  0  0  0  0  0  0  0  0  0
   41.2080   29.9540   42.5550 H   0  0  0  0  0  0  0  0  0  0  0  0
   41.5300   32.0020   41.3950 H   0  0  0  0  0  0  0  0  0  0  0  0
   40.6450   33.8970   40.1180 H   0  0  0  0  0  0  0  0  0  0  0  0
   38.2540   33.9860   39.6570 H   0  0  0  0  0  0  0  0  0  0  0  0
   36.4700   32.2490   40.3880 O   0  0  0  0  0  0  0  0  0  0  0  0
   35.8780   32.8970   40.8730 H   0  0  0  0  0  0  0  0  0  0  0  0
  1  4  1  6  0  0  0
  1  2  1  0  0  0  0
  1  3  1  0  0  0  0
  2  3  1  0  0  0  0
  3  7  1  1  0  0  0
  3 24  1  0  0  0  0
  5  2  1  0  0  0  0
  6  2  1  0  0  0  0
  8 13  2  0  0  0  0
  8  9  1  0  0  0  0
  9 10  2  0  0  0  0
 10 11  1  0  0  0  0
 10 18  1  0  0  0  0
 12  1  1  0  0  0  0
 12 11  2  0  0  0  0
 13 12  1  0  0  0  0
 14  8  1  0  0  0  0
 15  9  1  0  0  0  0
 17 16  2  0  0  0  0
 17 19  1  0  0  0  0
 18 17  1  0  0  0  0
 19 20  1  0  0  0  0
 19 23  1  0  0  0  0
 21 16  1  0  0  0  0
 22 18  1  0  0  0  0
 24 25  1  0  0  0  0
 24 26  1  0  0  0  0
 26 27  1  0  0  0  0
 27 28  2  0  0  0  0
 27 36  1  0  0  0  0
 28 37  1  0  0  0  0
 29 38  1  0  0  0  0
 29 28  1  0  0  0  0
 30 29  2  0  0  0  0
 31 39  1  0  0  0  0
 31 30  1  0  0  0  0
 32 31  2  0  0  0  0
 33 32  1  0  0  0  0
 33 34  2  0  0  0  0
 34 35  1  0  0  0  0
 35 30  1  0  0  0  0
 35 26  2  0  0  0  0
 40 32  1  0  0  0  0
 41 33  1  0  0  0  0
 42 34  1  0  0  0  0
 42 43  1  0  0  0  0
M  END
>  <minimizedAffinity>
-6.74874544

$$$$

 OpenBabel03242511153D

 43 46  0  0  1  0  0  0  0  0999 V2000
   36.6200   30.0200   39.5250 C   0  0  1  0  0  0  0  0  0  0  0  0
   36.8130   31.5100   39.6780 C   0  0  0  0  0  0  0  0  0  0  0  0
   36.1550   30.6270   40.7740 C   0  0  2  0  0  0  0  0  0  0  0  0
   37.5370   29.4370   39.5770 H   0  0  0  0  0  0  0  0  0  0  0  0
   37.8130   31.9070   39.9130 H   0  0  0  0  0  0  0  0  0  0  0  0
   36.1230   32.2010   39.1450 H   0  0  0  0  0  0  0  0  0  0  0  0
   35.0820   30.8440   40.9560 H   0  0  0  0  0  0  0  0  0  0  0  0
   33.6020   28.4430   38.0830 C   0  0  0  0  0  0  0  0  0  0  0  0
   33.8330   28.6150   36.6710 C   0  0  0  0  0  0  0  0  0  0  0  0
   35.0260   29.2710   36.2590 C   0  0  0  0  0  0  0  0  0  0  0  0
   35.8580   29.6880   37.2030 N   0  0  0  0  0  0  0  0  0  0  0  0
   35.6200   29.5160   38.5190 C   0  0  0  0  0  0  0  0  0  0  0  0
   34.4930   28.8930   38.9750 N   0  0  0  0  0  0  0  0  0  0  0  0
   32.6830   27.9390   38.3460 H   0  0  0  0  0  0  0  0  0  0  0  0
   33.1020   28.2450   35.9930 H   0  0  0  0  0  0  0  0  0  0  0  0
   37.4360   28.6510   34.8010 N   0  0  0  0  0  0  0  0  0  0  0  0
   36.5520   29.4620   34.3370 C   0  0  0  0  0  0  0  0  0  0  0  0
   35.2410   29.4410   34.8650 N   0  0  0  0  0  0  0  0  0  0  0  0
   36.8990   30.3710   33.2980 N   0  0  0  0  0  0  0  0  0  0  0  0
   36.4920   30.5890   32.3560 H   0  0  0  0  0  0  0  0  0  0  0  0
   37.2480   27.9620   35.5560 H   0  0  0  0  0  0  0  0  0  0  0  0
   34.4320   29.5520   34.2170 H   0  0  0  0  0  0  0  0  0  0  0  0
   37.7570   30.9370   33.5490 H   0  0  0  0  0  0  0  0  0  0  0  0
   36.9350   30.4020   41.9610 N   0  0  0  0  0  0  0  0  0  0  0  0
   37.0360   31.3400   42.3990 H   0  0  0  0  0  0  0  0  0  0  0  0
   37.4080   29.1260   42.2970 C   0  0  0  0  0  0  0  0  0  0  0  0
   36.5190   28.0730   42.3610 C   0  0  0  0  0  0  0  0  0  0  0  0
   36.9120   26.7700   42.6170 C   0  0  0  0  0  0  0  0  0  0  0  0
   38.2400   26.4640   42.8220 C   0  0  0  0  0  0  0  0  0  0  0  0
   39.1430   27.4970   42.7650 C   0  0  0  0  0  0  0  0  0  0  0  0
   40.4850   27.2090   42.9650 C   0  0  0  0  0  0  0  0  0  0  0  0
   41.4420   28.1830   42.9200 C   0  0  0  0  0  0  0  0  0  0  0  0
   41.0190   29.4760   42.6680 C   0  0  0  0  0  0  0  0  0  0  0  0
   39.6820   29.7470   42.4720 C   0  0  0  0  0  0  0  0  0  0  0  0
   38.7240   28.7830   42.5110 C   0  0  0  0  0  0  0  0  0  0  0  0
   35.4440   28.2010   42.2120 H   0  0  0  0  0  0  0  0  0  0  0  0
   36.2180   25.9450   42.6670 H   0  0  0  0  0  0  0  0  0  0  0  0
   38.5840   25.4580   43.0240 H   0  0  0  0  0  0  0  0  0  0  0  0
   40.8350   26.2040   43.1640 H   0  0  0  0  0  0  0  0  0  0  0  0
   42.5010   27.9980   43.0700 H   0  0  0  0  0  0  0  0  0  0  0  0
   41.7510   30.2730   42.6270 H   0  0  0  0  0  0  0  0  0  0  0  0
   39.3060   31.0490   42.2310 O   0  0  0  0  0  0  0  0  0  0  0  0
   39.2890   31.7340   42.9620 H   0  0  0  0  0  0  0  0  0  0  0  0
  1  4  1  1  0  0  0
  1  2  1  0  0  0  0
  1  3  1  0  0  0  0
  2  5  1  0  0  0  0
  2  3  1  0  0  0  0
  3  7  1  1  0  0  0
  3 24  1  0  0  0  0
  6  2  1  0  0  0  0
  8 14  1  0  0  0  0
  8 13  1  0  0  0  0
  9  8  2  0  0  0  0
 10  9  1  0  0  0  0
 10 11  2  0  0  0  0
 11 12  1  0  0  0  0
 12 13  2  0  0  0  0
 12  1  1  0  0  0  0
 15  9  1  0  0  0  0
 16 21  1  0  0  0  0
 17 16  2  0  0  0  0
 17 18  1  0  0  0  0
 18 10  1  0  0  0  0
 19 23  1  0  0  0  0
 19 17  1  0  0  0  0
 20 19  1  0  0  0  0
 22 18  1  0  0  0  0
 24 26  1  0  0  0  0
 24 25  1  0  0  0  0
 26 27  2  0  0  0  0
 26 35  1  0  0  0  0
 27 28  1  0  0  0  0
 28 37  1  0  0  0  0
 28 29  2  0  0  0  0
 29 38  1  0  0  0  0
 30 29  1  0  0  0  0
 30 31  1  0  0  0  0
 31 39  1  0  0  0  0
 32 31  2  0  0  0  0
 32 40  1  0  0  0  0
 33 32  1  0  0  0  0
 34 35  1  0  0  0  0
 34 33  2  0  0  0  0
 35 30  2  0  0  0  0
 36 27  1  0  0  0  0
 41 33  1  0  0  0  0
 42 34  1  0  0  0  0
 42 43  1  0  0  0  0
M  END
>  <minimizedAffinity>
-6.73825073

$$$$

 OpenBabel03242511153D

 43 46  0  0  1  0  0  0  0  0999 V2000
   39.3550   29.9570   41.0570 C   0  0  1  0  0  0  0  0  0  0  0  0
   39.9220   30.9410   42.0520 C   0  0  0  0  0  0  0  0  0  0  0  0
   38.5990   30.1620   42.2940 C   0  0  2  0  0  0  0  0  0  0  0  0
   39.9130   29.0260   40.9730 H   0  0  0  0  0  0  0  0  0  0  0  0
   40.7770   30.6480   42.6800 H   0  0  0  0  0  0  0  0  0  0  0  0
   39.8040   32.0310   41.8590 H   0  0  0  0  0  0  0  0  0  0  0  0
   37.6910   30.7980   42.3270 H   0  0  0  0  0  0  0  0  0  0  0  0
   37.0390   30.6190   38.2510 C   0  0  0  0  0  0  0  0  0  0  0  0
   37.8610   31.4230   37.3830 C   0  0  0  0  0  0  0  0  0  0  0  0
   39.1910   31.7120   37.7920 C   0  0  0  0  0  0  0  0  0  0  0  0
   39.5990   31.2240   38.9550 N   0  0  0  0  0  0  0  0  0  0  0  0
   38.8110   30.4730   39.7510 C   0  0  0  0  0  0  0  0  0  0  0  0
   37.5260   30.1620   39.4110 N   0  0  0  0  0  0  0  0  0  0  0  0
   36.0360   30.4260   37.8970 H   0  0  0  0  0  0  0  0  0  0  0  0
   37.4380   31.7680   36.4690 H   0  0  0  0  0  0  0  0  0  0  0  0
   41.8850   31.1480   36.9290 N   0  0  0  0  0  0  0  0  0  0  0  0
   41.3930   32.3350   36.8830 C   0  0  0  0  0  0  0  0  0  0  0  0
   39.9910   32.5110   36.9300 N   0  0  0  0  0  0  0  0  0  0  0  0
   42.2600   33.4590   36.7820 N   0  0  0  0  0  0  0  0  0  0  0  0
   42.3180   34.2780   36.1280 H   0  0  0  0  0  0  0  0  0  0  0  0
   41.3090   30.2860   37.0000 H   0  0  0  0  0  0  0  0  0  0  0  0
   39.5500   33.2360   36.3240 H   0  0  0  0  0  0  0  0  0  0  0  0
   43.0000   33.4470   37.5380 H   0  0  0  0  0  0  0  0  0  0  0  0
   38.6470   29.1260   43.2900 N   0  0  0  0  0  0  0  0  0  0  0  0
   39.0070   29.5910   44.1470 H   0  0  0  0  0  0  0  0  0  0  0  0
   38.2760   27.8060   42.9940 C   0  0  0  0  0  0  0  0  0  0  0  0
   36.9660   27.5320   42.6600 C   0  0  0  0  0  0  0  0  0  0  0  0
   36.5320   26.2710   42.2870 C   0  0  0  0  0  0  0  0  0  0  0  0
   37.4120   25.2140   42.2300 C   0  0  0  0  0  0  0  0  0  0  0  0
   38.7220   25.4620   42.5600 C   0  0  0  0  0  0  0  0  0  0  0  0
   39.6250   24.4110   42.5040 C   0  0  0  0  0  0  0  0  0  0  0  0
   40.9450   24.5820   42.8140 C   0  0  0  0  0  0  0  0  0  0  0  0
   41.3490   25.8510   43.1890 C   0  0  0  0  0  0  0  0  0  0  0  0
   40.4400   26.8860   43.2400 C   0  0  0  0  0  0  0  0  0  0  0  0
   39.1260   26.7250   42.9290 C   0  0  0  0  0  0  0  0  0  0  0  0
   36.1850   28.2960   42.6690 H   0  0  0  0  0  0  0  0  0  0  0  0
   35.5070   26.0560   42.0260 H   0  0  0  0  0  0  0  0  0  0  0  0
   37.1090   24.2150   41.9420 H   0  0  0  0  0  0  0  0  0  0  0  0
   39.3280   23.4110   42.2140 H   0  0  0  0  0  0  0  0  0  0  0  0
   41.6820   23.7850   42.7830 H   0  0  0  0  0  0  0  0  0  0  0  0
   42.3870   26.0220   43.4440 H   0  0  0  0  0  0  0  0  0  0  0  0
   40.8850   28.1300   43.6250 O   0  0  0  0  0  0  0  0  0  0  0  0
   41.1010   28.3370   44.5810 H   0  0  0  0  0  0  0  0  0  0  0  0
  1  4  1  6  0  0  0
  1  2  1  0  0  0  0
  1  3  1  0  0  0  0
  2  3  1  0  0  0  0
  2  5  1  0  0  0  0
  3  7  1  6  0  0  0
  3 24  1  0  0  0  0
  6  2  1  0  0  0  0
  8 13  1  0  0  0  0
  9 10  1  0  0  0  0
  9  8  2  0  0  0  0
 10 11  2  0  0  0  0
 11 12  1  0  0  0  0
 12  1  1  0  0  0  0
 13 12  2  0  0  0  0
 14  8  1  0  0  0  0
 15  9  1  0  0  0  0
 16 21  1  0  0  0  0
 17 16  2  0  0  0  0
 17 18  1  0  0  0  0
 18 10  1  0  0  0  0
 19 17  1  0  0  0  0
 19 23  1  0  0  0  0
 20 19  1  0  0  0  0
 22 18  1  0  0  0  0
 24 25  1  0  0  0  0
 26 24  1  0  0  0  0
 27 36  1  0  0  0  0
 27 26  2  0  0  0  0
 28 27  1  0  0  0  0
 29 28  2  0  0  0  0
 29 30  1  0  0  0  0
 30 35  1  0  0  0  0
 31 30  2  0  0  0  0
 31 32  1  0  0  0  0
 32 33  2  0  0  0  0
 33 34  1  0  0  0  0
 33 41  1  0  0  0  0
 34 42  1  0  0  0  0
 35 26  1  0  0  0  0
 35 34  2  0  0  0  0
 37 28  1  0  0  0  0
 38 29  1  0  0  0  0
 39 31  1  0  0  0  0
 40 32  1  0  0  0  0
 42 43  1  0  0  0  0
M  END
>  <minimizedAffinity>
-6.68684006

$$$$

 OpenBabel03242511153D

 43 46  0  0  1  0  0  0  0  0999 V2000
   35.7980   28.5320   39.2290 C   0  0  1  0  0  0  0  0  0  0  0  0
   34.5430   29.2980   38.8820 C   0  0  0  0  0  0  0  0  0  0  0  0
   34.9700   28.9940   40.3450 C   0  0  2  0  0  0  0  0  0  0  0  0
   36.7240   29.0750   39.0500 H   0  0  0  0  0  0  0  0  0  0  0  0
   34.6180   30.3490   38.5660 H   0  0  0  0  0  0  0  0  0  0  0  0
   33.6520   28.7370   38.5200 H   0  0  0  0  0  0  0  0  0  0  0  0
   34.2870   28.3100   40.8900 H   0  0  0  0  0  0  0  0  0  0  0  0
   35.3020   25.3090   37.4850 C   0  0  0  0  0  0  0  0  0  0  0  0
   36.0140   24.4020   38.3490 C   0  0  0  0  0  0  0  0  0  0  0  0
   36.6430   24.9300   39.5090 C   0  0  0  0  0  0  0  0  0  0  0  0
   36.5380   26.2330   39.7280 N   0  0  0  0  0  0  0  0  0  0  0  0
   35.8670   27.0640   38.9050 C   0  0  0  0  0  0  0  0  0  0  0  0
   35.2430   26.6150   37.7760 N   0  0  0  0  0  0  0  0  0  0  0  0
   34.8410   24.8610   36.6160 H   0  0  0  0  0  0  0  0  0  0  0  0
   36.0390   23.3720   38.0830 H   0  0  0  0  0  0  0  0  0  0  0  0
   36.4120   24.7140   42.3760 N   0  0  0  0  0  0  0  0  0  0  0  0
   37.4360   24.2620   41.7420 C   0  0  0  0  0  0  0  0  0  0  0  0
   37.3460   24.0260   40.3510 N   0  0  0  0  0  0  0  0  0  0  0  0
   38.6460   24.0010   42.4440 N   0  0  0  0  0  0  0  0  0  0  0  0
   39.2770   23.1660   42.5210 H   0  0  0  0  0  0  0  0  0  0  0  0
   35.4990   24.9230   41.9260 H   0  0  0  0  0  0  0  0  0  0  0  0
   37.8040   23.1800   39.9490 H   0  0  0  0  0  0  0  0  0  0  0  0
   38.9590   24.8430   43.0030 H   0  0  0  0  0  0  0  0  0  0  0  0
   35.4420   30.1140   41.1130 N   0  0  0  0  0  0  0  0  0  0  0  0
   34.5900   30.5250   41.5440 H   0  0  0  0  0  0  0  0  0  0  0  0
   36.8010   30.4610   41.1450 C   0  0  0  0  0  0  0  0  0  0  0  0
   37.2150   31.6200   40.5230 C   0  0  0  0  0  0  0  0  0  0  0  0
   38.5240   32.0710   40.5660 C   0  0  0  0  0  0  0  0  0  0  0  0
   39.4880   31.3640   41.2490 C   0  0  0  0  0  0  0  0  0  0  0  0
   39.0990   30.2060   41.8750 C   0  0  0  0  0  0  0  0  0  0  0  0
   40.0550   29.4820   42.5720 C   0  0  0  0  0  0  0  0  0  0  0  0
   39.7430   28.3210   43.2230 C   0  0  0  0  0  0  0  0  0  0  0  0
   38.4290   27.8930   43.1580 C   0  0  0  0  0  0  0  0  0  0  0  0
   37.4900   28.6220   42.4610 C   0  0  0  0  0  0  0  0  0  0  0  0
   37.7920   29.7800   41.8150 C   0  0  0  0  0  0  0  0  0  0  0  0
   36.5340   32.2590   39.9550 H   0  0  0  0  0  0  0  0  0  0  0  0
   38.8490   32.9780   40.0790 H   0  0  0  0  0  0  0  0  0  0  0  0
   40.5210   31.6870   41.3040 H   0  0  0  0  0  0  0  0  0  0  0  0
   41.0870   29.8010   42.6340 H   0  0  0  0  0  0  0  0  0  0  0  0
   40.4610   27.7280   43.7790 H   0  0  0  0  0  0  0  0  0  0  0  0
   38.1460   26.9760   43.6610 H   0  0  0  0  0  0  0  0  0  0  0  0
   36.1970   28.1540   42.4180 O   0  0  0  0  0  0  0  0  0  0  0  0
   35.9410   27.3710   41.8470 H   0  0  0  0  0  0  0  0  0  0  0  0
  1  4  1  6  0  0  0
  1  3  1  0  0  0  0
  2  1  1  0  0  0  0
  2  3  1  0  0  0  0
  3  7  1  1  0  0  0
  3 24  1  0  0  0  0
  5  2  1  0  0  0  0
  6  2  1  0  0  0  0
  8 13  2  0  0  0  0
  8  9  1  0  0  0  0
  9 10  2  0  0  0  0
 10 11  1  0  0  0  0
 10 18  1  0  0  0  0
 12  1  1  0  0  0  0
 12 11  2  0  0  0  0
 13 12  1  0  0  0  0
 14  8  1  0  0  0  0
 15  9  1  0  0  0  0
 17 16  2  0  0  0  0
 17 19  1  0  0  0  0
 18 17  1  0  0  0  0
 19 20  1  0  0  0  0
 19 23  1  0  0  0  0
 21 16  1  0  0  0  0
 22 18  1  0  0  0  0
 24 26  1  0  0  0  0
 24 25  1  0  0  0  0
 26 35  1  0  0  0  0
 27 28  1  0  0  0  0
 27 26  2  0  0  0  0
 28 29  2  0  0  0  0
 29 38  1  0  0  0  0
 29 30  1  0  0  0  0
 30 31  1  0  0  0  0
 31 39  1  0  0  0  0
 31 32  2  0  0  0  0
 32 40  1  0  0  0  0
 33 32  1  0  0  0  0
 33 41  1  0  0  0  0
 34 33  2  0  0  0  0
 35 30  2  0  0  0  0
 35 34  1  0  0  0  0
 36 27  1  0  0  0  0
 37 28  1  0  0  0  0
 42 34  1  0  0  0  0
 43 42  1  0  0  0  0
M  END
>  <minimizedAffinity>
-6.68577766

$$$$

 OpenBabel03242511153D

 43 46  0  0  1  0  0  0  0  0999 V2000
   41.2090   30.8660   41.1330 C   0  0  1  0  0  0  0  0  0  0  0  0
   41.6110   31.4790   42.4530 C   0  0  0  0  0  0  0  0  0  0  0  0
   40.1370   31.1430   42.0920 C   0  0  2  0  0  0  0  0  0  0  0  0
   41.4990   29.8240   41.0100 H   0  0  0  0  0  0  0  0  0  0  0  0
   42.0750   30.8480   43.2260 H   0  0  0  0  0  0  0  0  0  0  0  0
   41.8560   32.5640   42.4910 H   0  0  0  0  0  0  0  0  0  0  0  0
   39.4750   32.0270   41.9920 H   0  0  0  0  0  0  0  0  0  0  0  0
   42.4900   33.2870   38.6490 C   0  0  0  0  0  0  0  0  0  0  0  0
   41.5060   33.1750   37.6020 C   0  0  0  0  0  0  0  0  0  0  0  0
   40.4280   32.2670   37.7870 C   0  0  0  0  0  0  0  0  0  0  0  0
   40.3920   31.5720   38.9150 N   0  0  0  0  0  0  0  0  0  0  0  0
   41.3260   31.6940   39.8810 C   0  0  0  0  0  0  0  0  0  0  0  0
   42.3830   32.5500   39.7610 N   0  0  0  0  0  0  0  0  0  0  0  0
   43.2900   33.9900   38.4630 H   0  0  0  0  0  0  0  0  0  0  0  0
   41.6260   33.7770   36.7340 H   0  0  0  0  0  0  0  0  0  0  0  0
   37.5600   32.3530   38.0780 N   0  0  0  0  0  0  0  0  0  0  0  0
   38.1210   31.8410   37.0400 C   0  0  0  0  0  0  0  0  0  0  0  0
   39.4660   32.1610   36.7460 N   0  0  0  0  0  0  0  0  0  0  0  0
   37.3850   30.9610   36.1980 N   0  0  0  0  0  0  0  0  0  0  0  0
   37.1900   30.9320   35.1670 H   0  0  0  0  0  0  0  0  0  0  0  0
   38.0380   33.0040   38.7320 H   0  0  0  0  0  0  0  0  0  0  0  0
   39.7450   32.3170   35.7530 H   0  0  0  0  0  0  0  0  0  0  0  0
   36.9470   30.1710   36.7500 H   0  0  0  0  0  0  0  0  0  0  0  0
   39.5530   30.0270   42.7870 N   0  0  0  0  0  0  0  0  0  0  0  0
   40.1460   29.8940   43.6300 H   0  0  0  0  0  0  0  0  0  0  0  0
   38.4340   29.3520   42.2790 C   0  0  0  0  0  0  0  0  0  0  0  0
   37.4290   30.0750   41.6720 C   0  0  0  0  0  0  0  0  0  0  0  0
   36.3240   29.4820   41.0840 C   0  0  0  0  0  0  0  0  0  0  0  0
   36.1810   28.1120   41.0800 C   0  0  0  0  0  0  0  0  0  0  0  0
   37.1690   27.3710   41.6800 C   0  0  0  0  0  0  0  0  0  0  0  0
   37.0460   25.9900   41.6820 C   0  0  0  0  0  0  0  0  0  0  0  0
   37.9900   25.1860   42.2580 C   0  0  0  0  0  0  0  0  0  0  0  0
   39.0800   25.8070   42.8430 C   0  0  0  0  0  0  0  0  0  0  0  0
   39.1880   27.1810   42.8330 C   0  0  0  0  0  0  0  0  0  0  0  0
   38.2560   27.9870   42.2590 C   0  0  0  0  0  0  0  0  0  0  0  0
   37.4400   31.1660   41.6160 H   0  0  0  0  0  0  0  0  0  0  0  0
   35.5370   30.0470   40.6080 H   0  0  0  0  0  0  0  0  0  0  0  0
   35.3320   27.6130   40.6290 H   0  0  0  0  0  0  0  0  0  0  0  0
   36.2010   25.4860   41.2310 H   0  0  0  0  0  0  0  0  0  0  0  0
   37.9300   24.1020   42.2800 H   0  0  0  0  0  0  0  0  0  0  0  0
   39.8460   25.2010   43.3090 H   0  0  0  0  0  0  0  0  0  0  0  0
   40.2850   27.7560   43.4320 O   0  0  0  0  0  0  0  0  0  0  0  0
   40.3740   27.8040   44.4290 H   0  0  0  0  0  0  0  0  0  0  0  0
  1  4  1  6  0  0  0
  1  3  1  0  0  0  0
  1  2  1  0  0  0  0
  2  6  1  0  0  0  0
  2  5  1  0  0  0  0
  3  7  1  6  0  0  0
  3  2  1  0  0  0  0
  3 24  1  0  0  0  0
  8 13  1  0  0  0  0
  9 10  1  0  0  0  0
  9  8  2  0  0  0  0
 10 11  2  0  0  0  0
 11 12  1  0  0  0  0
 12  1  1  0  0  0  0
 13 12  2  0  0  0  0
 14  8  1  0  0  0  0
 15  9  1  0  0  0  0
 16 21  1  0  0  0  0
 17 16  2  0  0  0  0
 18 17  1  0  0  0  0
 18 10  1  0  0  0  0
 19 23  1  0  0  0  0
 19 17  1  0  0  0  0
 20 19  1  0  0  0  0
 22 18  1  0  0  0  0
 24 25  1  0  0  0  0
 26 24  1  0  0  0  0
 27 26  2  0  0  0  0
 28 27  1  0  0  0  0
 29 28  2  0  0  0  0
 29 30  1  0  0  0  0
 30 31  2  0  0  0  0
 30 35  1  0  0  0  0
 31 32  1  0  0  0  0
 32 40  1  0  0  0  0
 32 33  2  0  0  0  0
 33 41  1  0  0  0  0
 34 33  1  0  0  0  0
 34 42  1  0  0  0  0
 35 26  1  0  0  0  0
 35 34  2  0  0  0  0
 36 27  1  0  0  0  0
 37 28  1  0  0  0  0
 38 29  1  0  0  0  0
 39 31  1  0  0  0  0
 42 43  1  0  0  0  0
M  END
>  <minimizedAffinity>
-6.57949162

$$$$

 OpenBabel03242511153D

 43 46  0  0  1  0  0  0  0  0999 V2000
   35.9020   28.9190   39.2790 C   0  0  1  0  0  0  0  0  0  0  0  0
   35.3360   27.7100   38.5730 C   0  0  0  0  0  0  0  0  0  0  0  0
   36.5820   27.6420   39.4980 C   0  0  2  0  0  0  0  0  0  0  0  0
   35.2890   29.2940   40.0970 H   0  0  0  0  0  0  0  0  0  0  0  0
   34.4210   27.2350   38.9580 H   0  0  0  0  0  0  0  0  0  0  0  0
   35.5410   27.5750   37.4870 H   0  0  0  0  0  0  0  0  0  0  0  0
   37.5270   27.3840   38.9770 H   0  0  0  0  0  0  0  0  0  0  0  0
   37.1920   30.8080   36.3730 C   0  0  0  0  0  0  0  0  0  0  0  0
   37.7830   31.9550   37.0140 C   0  0  0  0  0  0  0  0  0  0  0  0
   37.7200   32.0410   38.4320 C   0  0  0  0  0  0  0  0  0  0  0  0
   37.1160   31.0570   39.0840 N   0  0  0  0  0  0  0  0  0  0  0  0
   36.5690   29.9930   38.4620 C   0  0  0  0  0  0  0  0  0  0  0  0
   36.6000   29.8550   37.1030 N   0  0  0  0  0  0  0  0  0  0  0  0
   37.2660   30.7880   35.2950 H   0  0  0  0  0  0  0  0  0  0  0  0
   38.2440   32.6910   36.4010 H   0  0  0  0  0  0  0  0  0  0  0  0
   39.5300   32.0400   40.6780 N   0  0  0  0  0  0  0  0  0  0  0  0
   38.8560   33.0850   40.3510 C   0  0  0  0  0  0  0  0  0  0  0  0
   38.3010   33.1790   39.0530 N   0  0  0  0  0  0  0  0  0  0  0  0
   38.6760   34.1370   41.2930 N   0  0  0  0  0  0  0  0  0  0  0  0
   38.8470   35.1720   41.2700 H   0  0  0  0  0  0  0  0  0  0  0  0
   39.7000   31.2390   40.0390 H   0  0  0  0  0  0  0  0  0  0  0  0
   38.3230   34.0960   38.5580 H   0  0  0  0  0  0  0  0  0  0  0  0
   38.2860   33.7760   42.2070 H   0  0  0  0  0  0  0  0  0  0  0  0
   36.3950   26.9900   40.7660 N   0  0  0  0  0  0  0  0  0  0  0  0
   35.7430   27.6040   41.2920 H   0  0  0  0  0  0  0  0  0  0  0  0
   37.0540   25.7910   41.0790 C   0  0  0  0  0  0  0  0  0  0  0  0
   36.6940   24.6330   40.4230 C   0  0  0  0  0  0  0  0  0  0  0  0
   37.3390   23.4240   40.6200 C   0  0  0  0  0  0  0  0  0  0  0  0
   38.3940   23.3260   41.5010 C   0  0  0  0  0  0  0  0  0  0  0  0
   38.7690   24.4670   42.1670 C   0  0  0  0  0  0  0  0  0  0  0  0
   39.8330   24.3900   43.0540 C   0  0  0  0  0  0  0  0  0  0  0  0
   40.2660   25.4840   43.7510 C   0  0  0  0  0  0  0  0  0  0  0  0
   39.5990   26.6770   43.5370 C   0  0  0  0  0  0  0  0  0  0  0  0
   38.5440   26.7370   42.6520 C   0  0  0  0  0  0  0  0  0  0  0  0
   38.1090   25.6550   41.9520 C   0  0  0  0  0  0  0  0  0  0  0  0
   35.8730   24.5960   39.7020 H   0  0  0  0  0  0  0  0  0  0  0  0
   37.0580   22.5170   40.1080 H   0  0  0  0  0  0  0  0  0  0  0  0
   38.9220   22.3980   41.6800 H   0  0  0  0  0  0  0  0  0  0  0  0
   40.3670   23.4660   43.2350 H   0  0  0  0  0  0  0  0  0  0  0  0
   41.0940   25.4640   44.4530 H   0  0  0  0  0  0  0  0  0  0  0  0
   39.9150   27.5620   44.0730 H   0  0  0  0  0  0  0  0  0  0  0  0
   37.9050   27.9430   42.4760 O   0  0  0  0  0  0  0  0  0  0  0  0
   37.2830   28.3140   43.1690 H   0  0  0  0  0  0  0  0  0  0  0  0
  1  3  1  0  0  0  0
  1  4  1  1  0  0  0
  2  5  1  0  0  0  0
  2  1  1  0  0  0  0
  2  3  1  0  0  0  0
  3  7  1  6  0  0  0
  3 24  1  0  0  0  0
  6  2  1  0  0  0  0
  8  9  2  0  0  0  0
  8 13  1  0  0  0  0
  9 10  1  0  0  0  0
 10 18  1  0  0  0  0
 10 11  2  0  0  0  0
 12 11  1  0  0  0  0
 12  1  1  0  0  0  0
 13 12  2  0  0  0  0
 14  8  1  0  0  0  0
 15  9  1  0  0  0  0
 17 16  2  0  0  0  0
 17 19  1  0  0  0  0
 18 17  1  0  0  0  0
 19 23  1  0  0  0  0
 20 19  1  0  0  0  0
 21 16  1  0  0  0  0
 22 18  1  0  0  0  0
 24 26  1  0  0  0  0
 24 25  1  0  0  0  0
 26 35  1  0  0  0  0
 27 28  1  0  0  0  0
 27 26  2  0  0  0  0
 28 29  2  0  0  0  0
 29 38  1  0  0  0  0
 29 30  1  0  0  0  0
 30 31  1  0  0  0  0
 31 39  1  0  0  0  0
 31 32  2  0  0  0  0
 32 40  1  0  0  0  0
 33 32  1  0  0  0  0
 33 41  1  0  0  0  0
 34 33  2  0  0  0  0
 35 30  2  0  0  0  0
 35 34  1  0  0  0  0
 36 27  1  0  0  0  0
 37 28  1  0  0  0  0
 42 34  1  0  0  0  0
 42 43  1  0  0  0  0
M  END
>  <minimizedAffinity>
-6.48636007

$$$$
