
 OpenBabel03242515423D

 37 39  0  0  0  0  0  0  0  0999 V2000
   43.4150   34.7180   40.5550 C   0  0  0  0  0  0  0  0  0  0  0  0
   43.6220   34.0140   39.4200 C   0  0  0  0  0  0  0  0  0  0  0  0
   44.9020   33.4510   39.2450 C   0  0  0  0  0  0  0  0  0  0  0  0
   45.8540   33.6320   40.1910 N   0  0  0  0  0  0  0  0  0  0  0  0
   45.6000   34.3410   41.3050 C   0  0  0  0  0  0  0  0  0  0  0  0
   44.3860   34.8530   41.4350 N   0  0  0  0  0  0  0  0  0  0  0  0
   45.2410   32.6710   38.0990 N   0  0  0  0  0  0  0  0  0  0  0  0
   45.5060   33.2530   37.2610 H   0  0  0  0  0  0  0  0  0  0  0  0
   45.2070   31.6240   38.1540 H   0  0  0  0  0  0  0  0  0  0  0  0
   42.5110   31.5500   39.2730 N   0  0  0  0  0  0  0  0  0  0  0  0
   42.4820   32.3090   38.2210 C   0  0  0  0  0  0  0  0  0  0  0  0
   42.8030   33.7190   38.3190 N   0  0  0  0  0  0  0  0  0  0  0  0
   42.1240   31.7210   36.9530 N   0  0  0  0  0  0  0  0  0  0  0  0
   41.3650   32.2590   36.4790 H   0  0  0  0  0  0  0  0  0  0  0  0
   42.2790   30.5480   39.1820 H   0  0  0  0  0  0  0  0  0  0  0  0
   42.3430   34.2420   37.5460 H   0  0  0  0  0  0  0  0  0  0  0  0
   42.5720   30.8600   36.5630 H   0  0  0  0  0  0  0  0  0  0  0  0
   41.7480   35.4080   40.7320 S   0  0  0  0  0  0  0  0  0  0  0  0
   39.3810   34.3780   40.0480 C   0  0  0  0  0  0  0  0  0  0  0  0
   40.5350   34.1050   40.7960 C   0  0  0  0  0  0  0  0  0  0  0  0
   40.6790   32.9090   41.4870 C   0  0  0  0  0  0  0  0  0  0  0  0
   39.6900   31.9640   41.4530 C   0  0  0  0  0  0  0  0  0  0  0  0
   38.5320   32.2200   40.7120 C   0  0  0  0  0  0  0  0  0  0  0  0
   38.3650   33.4090   40.0130 C   0  0  0  0  0  0  0  0  0  0  0  0
   37.6860   31.0920   40.8470 O   0  0  0  0  0  0  0  0  0  0  0  0
   38.1860   30.3590   41.9150 C   0  0  0  0  0  0  0  0  0  0  0  0
   39.5480   30.7080   42.0230 O   0  0  0  0  0  0  0  0  0  0  0  0
   39.2190   35.2890   39.4940 H   0  0  0  0  0  0  0  0  0  0  0  0
   41.5860   32.7800   42.0320 H   0  0  0  0  0  0  0  0  0  0  0  0
   37.4780   33.6270   39.4340 H   0  0  0  0  0  0  0  0  0  0  0  0
   37.6970   30.7560   42.8500 H   0  0  0  0  0  0  0  0  0  0  0  0
   38.0130   29.2710   41.8310 H   0  0  0  0  0  0  0  0  0  0  0  0
   46.4880   34.5900   42.3280 O   0  0  0  0  0  0  0  0  0  0  0  0
   47.8640   34.5070   42.0350 C   0  0  0  0  0  0  0  0  0  0  0  0
   48.2200   33.2660   41.5690 F   0  0  0  0  0  0  0  0  0  0  0  0
   48.1300   35.5190   41.0950 F   0  0  0  0  0  0  0  0  0  0  0  0
   48.5610   34.7590   43.2060 F   0  0  0  0  0  0  0  0  0  0  0  0
  1 18  1  0  0  0  0
  1  6  1  0  0  0  0
  2  1  2  0  0  0  0
  3  2  1  0  0  0  0
  3  4  2  0  0  0  0
  4  5  1  0  0  0  0
  5  6  2  0  0  0  0
  5 33  1  0  0  0  0
  7  9  1  0  0  0  0
  7  3  1  0  0  0  0
  8  7  1  0  0  0  0
 11 12  1  0  0  0  0
 11 10  2  0  0  0  0
 12  2  1  0  0  0  0
 13 11  1  0  0  0  0
 14 13  1  0  0  0  0
 15 10  1  0  0  0  0
 16 12  1  0  0  0  0
 17 13  1  0  0  0  0
 18 20  1  0  0  0  0
 19 20  1  0  0  0  0
 20 21  2  0  0  0  0
 21 29  1  0  0  0  0
 22 21  1  0  0  0  0
 22 27  1  0  0  0  0
 23 25  1  0  0  0  0
 23 22  2  0  0  0  0
 24 19  2  0  0  0  0
 24 23  1  0  0  0  0
 25 26  1  0  0  0  0
 26 27  1  0  0  0  0
 26 31  1  0  0  0  0
 28 19  1  0  0  0  0
 30 24  1  0  0  0  0
 32 26  1  0  0  0  0
 34 33  1  0  0  0  0
 34 37  1  0  0  0  0
 35 34  1  0  0  0  0
 36 34  1  0  0  0  0
M  END
>  <minimizedAffinity>
-5.54354715

>  <minimizedRMSD>
0.980342448

$$$$
