
 OpenBabel03252509333D

 39 40  0  0  1  0  0  0  0  0999 V2000
   45.7400   33.7790   41.8010 C   0  0  1  0  0  0  0  0  0  0  0  0
   44.9780   34.2850   40.6080 C   0  0  0  0  0  0  0  0  0  0  0  0
   45.3720   33.2770   39.5540 C   0  0  0  0  0  0  0  0  0  0  0  0
   46.7780   32.8270   39.9360 C   0  0  0  0  0  0  0  0  0  0  0  0
   47.1330   33.6040   41.1920 C   0  0  1  0  0  0  0  0  0  0  0  0
   45.4050   32.7910   42.1250 H   0  0  0  0  0  0  0  0  0  0  0  0
   43.8970   34.3620   40.7510 H   0  0  0  0  0  0  0  0  0  0  0  0
   45.3540   35.2880   40.3300 H   0  0  0  0  0  0  0  0  0  0  0  0
   44.6940   32.3950   39.7310 H   0  0  0  0  0  0  0  0  0  0  0  0
   45.3080   33.6480   38.5220 H   0  0  0  0  0  0  0  0  0  0  0  0
   47.4410   33.2140   39.1260 H   0  0  0  0  0  0  0  0  0  0  0  0
   46.8520   31.7310   40.0790 H   0  0  0  0  0  0  0  0  0  0  0  0
   47.6610   32.8860   41.8470 H   0  0  0  0  0  0  0  0  0  0  0  0
   49.0580   34.5610   43.0410 N   0  0  0  0  0  0  0  0  0  0  0  0
   48.8280   35.1680   41.9250 C   0  0  0  0  0  0  0  0  0  0  0  0
   47.8240   34.8230   40.9640 N   0  0  0  0  0  0  0  0  0  0  0  0
   49.6810   36.2880   41.6630 N   0  0  0  0  0  0  0  0  0  0  0  0
   50.2510   36.8140   40.9710 H   0  0  0  0  0  0  0  0  0  0  0  0
   48.4690   33.7370   43.2880 H   0  0  0  0  0  0  0  0  0  0  0  0
   47.6140   35.4210   40.1570 H   0  0  0  0  0  0  0  0  0  0  0  0
   49.9280   36.9650   42.4220 H   0  0  0  0  0  0  0  0  0  0  0  0
   45.7890   34.6890   42.8570 O   0  0  0  0  0  0  0  0  0  0  0  0
   44.8510   34.7890   45.2780 O   0  0  0  0  0  0  0  0  0  0  0  0
   45.5140   33.8700   44.3040 P   0  0  1  0  0  0  0  0  0  0  0  0
   44.6520   32.4510   44.0610 O   0  0  0  0  0  0  0  0  0  0  0  0
   44.2450   32.4220   43.1600 H   0  0  0  0  0  0  0  0  0  0  0  0
   47.0240   33.3950   44.9130 O   0  0  0  0  0  0  0  0  0  0  0  0
   47.0040   32.0390   45.0940 C   0  0  0  0  0  0  0  0  0  0  0  0
   48.0870   31.7200   45.0150 H   0  0  0  0  0  0  0  0  0  0  0  0
   46.4760   31.4250   44.3820 H   0  0  0  0  0  0  0  0  0  0  0  0
   46.8540   31.8500   48.8030 C   0  0  0  0  0  0  0  0  0  0  0  0
   47.2630   32.2300   47.5220 C   0  0  0  0  0  0  0  0  0  0  0  0
   46.5940   31.6570   46.4410 C   0  0  0  0  0  0  0  0  0  0  0  0
   45.5870   30.7670   46.7040 N   0  0  0  0  0  0  0  0  0  0  0  0
   45.2190   30.4240   47.9510 C   0  0  0  0  0  0  0  0  0  0  0  0
   45.8630   30.9750   48.9940 N   0  0  0  0  0  0  0  0  0  0  0  0
   47.4230   32.3380   49.6030 H   0  0  0  0  0  0  0  0  0  0  0  0
   48.0600   32.9340   47.3350 H   0  0  0  0  0  0  0  0  0  0  0  0
   44.4180   29.7170   48.1310 H   0  0  0  0  0  0  0  0  0  0  0  0
  1  6  1  1  0  0  0
  1 22  1  0  0  0  0
  2  7  1  0  0  0  0
  2  1  1  0  0  0  0
  3  9  1  0  0  0  0
  3  4  1  0  0  0  0
  3  2  1  0  0  0  0
  4 12  1  0  0  0  0
  4  5  1  0  0  0  0
  5  1  1  0  0  0  0
  5 13  1  1  0  0  0
  8  2  1  0  0  0  0
 10  3  1  0  0  0  0
 11  4  1  0  0  0  0
 14 19  1  0  0  0  0
 15 14  2  0  0  0  0
 16  5  1  0  0  0  0
 16 15  1  0  0  0  0
 17 15  1  0  0  0  0
 17 21  1  0  0  0  0
 18 17  1  0  0  0  0
 20 16  1  0  0  0  0
 22 24  1  0  0  0  0
 24 27  1  0  0  0  0
 24 23  2  1  0  0  0
 25 24  1  0  0  0  0
 26 25  1  0  0  0  0
 27 28  1  0  0  0  0
 28 33  1  0  0  0  0
 29 28  1  0  0  0  0
 30 28  1  0  0  0  0
 31 36  1  0  0  0  0
 31 37  1  0  0  0  0
 32 31  2  0  0  0  0
 33 34  2  0  0  0  0
 33 32  1  0  0  0  0
 34 35  1  0  0  0  0
 35 39  1  0  0  0  0
 35 36  2  0  0  0  0
 38 32  1  0  0  0  0
M  END
>  <minimizedAffinity>
-4.90269232

>  <minimizedRMSD>
1.61428046

$$$$
