
 OpenBabel03242511113D

 43 46  0  0  1  0  0  0  0  0999 V2000
   50.1320   31.6610   42.2600 C   0  0  1  0  0  0  0  0  0  0  0  0
   49.6600   31.9320   40.8510 C   0  0  0  0  0  0  0  0  0  0  0  0
   48.6900   31.8200   42.0600 C   0  0  2  0  0  0  0  0  0  0  0  0
   50.6550   32.4920   42.7300 H   0  0  0  0  0  0  0  0  0  0  0  0
   49.7820   32.9380   40.4220 H   0  0  0  0  0  0  0  0  0  0  0  0
   49.6160   31.0890   40.1260 H   0  0  0  0  0  0  0  0  0  0  0  0
   48.0050   30.9490   42.0200 H   0  0  0  0  0  0  0  0  0  0  0  0
   50.4010   28.0020   42.7220 C   0  0  0  0  0  0  0  0  0  0  0  0
   51.7550   27.8700   43.1960 C   0  0  0  0  0  0  0  0  0  0  0  0
   52.5350   29.0500   43.3440 C   0  0  0  0  0  0  0  0  0  0  0  0
   51.9680   30.2070   43.0330 N   0  0  0  0  0  0  0  0  0  0  0  0
   50.6980   30.3060   42.5900 C   0  0  0  0  0  0  0  0  0  0  0  0
   49.9010   29.2090   42.4290 N   0  0  0  0  0  0  0  0  0  0  0  0
   49.8490   27.0780   42.6260 H   0  0  0  0  0  0  0  0  0  0  0  0
   52.1160   26.8950   43.4180 H   0  0  0  0  0  0  0  0  0  0  0  0
   53.7920   30.5550   45.4590 N   0  0  0  0  0  0  0  0  0  0  0  0
   54.4800   29.9310   44.5690 C   0  0  0  0  0  0  0  0  0  0  0  0
   53.8700   28.9070   43.8080 N   0  0  0  0  0  0  0  0  0  0  0  0
   55.8450   30.2730   44.3600 N   0  0  0  0  0  0  0  0  0  0  0  0
   56.7390   29.7240   44.3410 H   0  0  0  0  0  0  0  0  0  0  0  0
   52.7940   30.3530   45.6640 H   0  0  0  0  0  0  0  0  0  0  0  0
   54.4140   28.0450   43.5900 H   0  0  0  0  0  0  0  0  0  0  0  0
   55.9630   31.3110   44.1900 H   0  0  0  0  0  0  0  0  0  0  0  0
   48.0820   33.0470   42.5010 N   0  0  0  0  0  0  0  0  0  0  0  0
   48.3880   33.7630   41.8120 H   0  0  0  0  0  0  0  0  0  0  0  0
   47.2910   33.0980   43.6580 C   0  0  0  0  0  0  0  0  0  0  0  0
   47.4790   32.1550   44.6460 C   0  0  0  0  0  0  0  0  0  0  0  0
   46.7900   32.1750   45.8470 C   0  0  0  0  0  0  0  0  0  0  0  0
   45.8670   33.1630   46.1110 C   0  0  0  0  0  0  0  0  0  0  0  0
   45.6620   34.1120   45.1410 C   0  0  0  0  0  0  0  0  0  0  0  0
   44.7390   35.1180   45.3890 C   0  0  0  0  0  0  0  0  0  0  0  0
   44.4830   36.0990   44.4730 C   0  0  0  0  0  0  0  0  0  0  0  0
   45.1820   36.0510   43.2800 C   0  0  0  0  0  0  0  0  0  0  0  0
   46.0960   35.0450   43.0470 C   0  0  0  0  0  0  0  0  0  0  0  0
   46.3590   34.0670   43.9540 C   0  0  0  0  0  0  0  0  0  0  0  0
   48.1870   31.3290   44.5440 H   0  0  0  0  0  0  0  0  0  0  0  0
   46.9370   31.4380   46.6210 H   0  0  0  0  0  0  0  0  0  0  0  0
   45.3110   33.2110   47.0390 H   0  0  0  0  0  0  0  0  0  0  0  0
   44.1830   35.1730   46.3160 H   0  0  0  0  0  0  0  0  0  0  0  0
   43.7700   36.9030   44.6300 H   0  0  0  0  0  0  0  0  0  0  0  0
   45.0030   36.8110   42.5300 H   0  0  0  0  0  0  0  0  0  0  0  0
   46.7620   35.0320   41.8430 O   0  0  0  0  0  0  0  0  0  0  0  0
   46.3090   34.7500   40.9950 H   0  0  0  0  0  0  0  0  0  0  0  0
  1 12  1  0  0  0  0
  1  4  1  1  0  0  0
  2  3  1  0  0  0  0
  2  1  1  0  0  0  0
  3  7  1  1  0  0  0
  3  1  1  0  0  0  0
  3 24  1  0  0  0  0
  5  2  1  0  0  0  0
  6  2  1  0  0  0  0
  8  9  1  0  0  0  0
  9 10  2  0  0  0  0
  9 15  1  0  0  0  0
 10 18  1  0  0  0  0
 11 10  1  0  0  0  0
 12 11  2  0  0  0  0
 13 12  1  0  0  0  0
 13  8  2  0  0  0  0
 14  8  1  0  0  0  0
 16 21  1  0  0  0  0
 17 16  2  0  0  0  0
 18 17  1  0  0  0  0
 19 17  1  0  0  0  0
 20 19  1  0  0  0  0
 22 18  1  0  0  0  0
 23 19  1  0  0  0  0
 24 26  1  0  0  0  0
 25 24  1  0  0  0  0
 26 35  2  0  0  0  0
 26 27  1  0  0  0  0
 27 28  2  0  0  0  0
 28 29  1  0  0  0  0
 28 37  1  0  0  0  0
 29 38  1  0  0  0  0
 30 31  1  0  0  0  0
 30 29  2  0  0  0  0
 31 39  1  0  0  0  0
 32 40  1  0  0  0  0
 32 31  2  0  0  0  0
 33 32  1  0  0  0  0
 34 33  2  0  0  0  0
 34 35  1  0  0  0  0
 35 30  1  0  0  0  0
 36 27  1  0  0  0  0
 41 33  1  0  0  0  0
 42 34  1  0  0  0  0
 43 42  1  0  0  0  0
M  END
>  <minimizedAffinity>
-5.5478406

>  <minimizedRMSD>
0.692050755

$$$$
