
 OpenBabel03252509333D

 39 40  0  0  1  0  0  0  0  0999 V2000
   45.7420   33.7720   41.7930 C   0  0  1  0  0  0  0  0  0  0  0  0
   44.9810   34.2760   40.5990 C   0  0  0  0  0  0  0  0  0  0  0  0
   45.3790   33.2700   39.5450 C   0  0  0  0  0  0  0  0  0  0  0  0
   46.7860   32.8230   39.9290 C   0  0  0  0  0  0  0  0  0  0  0  0
   47.1360   33.6000   41.1860 C   0  0  1  0  0  0  0  0  0  0  0  0
   45.4090   32.7830   42.1150 H   0  0  0  0  0  0  0  0  0  0  0  0
   43.9000   34.3510   40.7400 H   0  0  0  0  0  0  0  0  0  0  0  0
   45.3560   35.2810   40.3220 H   0  0  0  0  0  0  0  0  0  0  0  0
   44.7030   32.3870   39.7190 H   0  0  0  0  0  0  0  0  0  0  0  0
   45.3160   33.6420   38.5130 H   0  0  0  0  0  0  0  0  0  0  0  0
   47.4490   33.2120   39.1210 H   0  0  0  0  0  0  0  0  0  0  0  0
   46.8620   31.7270   40.0720 H   0  0  0  0  0  0  0  0  0  0  0  0
   47.6650   32.8830   41.8410 H   0  0  0  0  0  0  0  0  0  0  0  0
   49.0570   34.5600   43.0380 N   0  0  0  0  0  0  0  0  0  0  0  0
   48.8270   35.1670   41.9230 C   0  0  0  0  0  0  0  0  0  0  0  0
   47.8250   34.8210   40.9610 N   0  0  0  0  0  0  0  0  0  0  0  0
   49.6790   36.2900   41.6630 N   0  0  0  0  0  0  0  0  0  0  0  0
   50.2480   36.8180   40.9720 H   0  0  0  0  0  0  0  0  0  0  0  0
   48.4680   33.7340   43.2840 H   0  0  0  0  0  0  0  0  0  0  0  0
   47.6140   35.4200   40.1540 H   0  0  0  0  0  0  0  0  0  0  0  0
   49.9220   36.9670   42.4220 H   0  0  0  0  0  0  0  0  0  0  0  0
   45.7870   34.6810   42.8500 O   0  0  0  0  0  0  0  0  0  0  0  0
   44.8520   34.7780   45.2720 O   0  0  0  0  0  0  0  0  0  0  0  0
   45.5140   33.8600   44.2950 P   0  0  1  0  0  0  0  0  0  0  0  0
   44.6520   32.4420   44.0520 O   0  0  0  0  0  0  0  0  0  0  0  0
   44.2430   32.4130   43.1510 H   0  0  0  0  0  0  0  0  0  0  0  0
   47.0250   33.3840   44.9020 O   0  0  0  0  0  0  0  0  0  0  0  0
   46.9920   32.0330   45.1160 C   0  0  0  0  0  0  0  0  0  0  0  0
   48.0770   31.7100   45.0940 H   0  0  0  0  0  0  0  0  0  0  0  0
   46.4950   31.4020   44.3970 H   0  0  0  0  0  0  0  0  0  0  0  0
   46.6210   31.9980   48.8150 C   0  0  0  0  0  0  0  0  0  0  0  0
   47.0870   32.3460   47.5430 C   0  0  0  0  0  0  0  0  0  0  0  0
   46.5210   31.6860   46.4530 C   0  0  0  0  0  0  0  0  0  0  0  0
   45.5530   30.7500   46.6970 N   0  0  0  0  0  0  0  0  0  0  0  0
   45.1280   30.4400   47.9340 C   0  0  0  0  0  0  0  0  0  0  0  0
   45.6720   31.0750   48.9870 N   0  0  0  0  0  0  0  0  0  0  0  0
   47.1090   32.5560   49.6220 H   0  0  0  0  0  0  0  0  0  0  0  0
   47.8520   33.0890   47.3710 H   0  0  0  0  0  0  0  0  0  0  0  0
   44.3590   29.6950   48.1000 H   0  0  0  0  0  0  0  0  0  0  0  0
  1  6  1  1  0  0  0
  1 22  1  0  0  0  0
  2  7  1  0  0  0  0
  2  1  1  0  0  0  0
  3  9  1  0  0  0  0
  3  4  1  0  0  0  0
  3  2  1  0  0  0  0
  4 12  1  0  0  0  0
  4  5  1  0  0  0  0
  5  1  1  0  0  0  0
  5 13  1  1  0  0  0
  8  2  1  0  0  0  0
 10  3  1  0  0  0  0
 11  4  1  0  0  0  0
 14 19  1  0  0  0  0
 15 14  2  0  0  0  0
 16  5  1  0  0  0  0
 16 15  1  0  0  0  0
 17 15  1  0  0  0  0
 17 21  1  0  0  0  0
 18 17  1  0  0  0  0
 20 16  1  0  0  0  0
 22 24  1  0  0  0  0
 24 27  1  0  0  0  0
 24 23  2  1  0  0  0
 25 24  1  0  0  0  0
 26 25  1  0  0  0  0
 27 28  1  0  0  0  0
 28 33  1  0  0  0  0
 29 28  1  0  0  0  0
 30 28  1  0  0  0  0
 31 36  1  0  0  0  0
 31 37  1  0  0  0  0
 32 31  2  0  0  0  0
 33 34  2  0  0  0  0
 33 32  1  0  0  0  0
 34 35  1  0  0  0  0
 35 39  1  0  0  0  0
 35 36  2  0  0  0  0
 38 32  1  0  0  0  0
M  END
>  <minimizedAffinity>
-4.91912746

>  <minimizedRMSD>
1.59631598

$$$$
