
 OpenBabel03242513433D

 45 47  0  0  0  0  0  0  0  0999 V2000
   47.6810   31.0050   46.0070 C   0  0  0  0  0  0  0  0  0  0  0  0
   46.9640   32.0710   45.5250 C   0  0  0  0  0  0  0  0  0  0  0  0
   45.9830   32.5730   46.3340 C   0  0  0  0  0  0  0  0  0  0  0  0
   45.6820   32.0790   47.5740 C   0  0  0  0  0  0  0  0  0  0  0  0
   44.8030   32.3450   48.5780 N   0  0  0  0  0  0  0  0  0  0  0  0
   44.9930   31.4720   49.6080 C   0  0  0  0  0  0  0  0  0  0  0  0
   45.9980   30.6650   49.2290 N   0  0  0  0  0  0  0  0  0  0  0  0
   46.4270   31.0130   48.0110 C   0  0  0  0  0  0  0  0  0  0  0  0
   47.4290   30.4520   47.2590 C   0  0  0  0  0  0  0  0  0  0  0  0
   48.4760   30.5760   45.3860 H   0  0  0  0  0  0  0  0  0  0  0  0
   45.3940   33.4250   45.9750 H   0  0  0  0  0  0  0  0  0  0  0  0
   44.1290   33.1310   48.4610 H   0  0  0  0  0  0  0  0  0  0  0  0
   44.4100   31.4880   50.5200 H   0  0  0  0  0  0  0  0  0  0  0  0
   47.1940   34.4170   42.7360 C   0  0  0  0  0  0  0  0  0  0  0  0
   47.8010   33.6520   41.7340 C   0  0  0  0  0  0  0  0  0  0  0  0
   48.1200   32.3170   42.0600 C   0  0  0  0  0  0  0  0  0  0  0  0
   47.8330   31.8440   43.2950 N   0  0  0  0  0  0  0  0  0  0  0  0
   47.2490   32.6310   44.2140 C   0  0  0  0  0  0  0  0  0  0  0  0
   46.9250   33.9070   43.9570 N   0  0  0  0  0  0  0  0  0  0  0  0
   46.9490   35.4520   42.4810 H   0  0  0  0  0  0  0  0  0  0  0  0
   48.5910   31.7210   41.2850 H   0  0  0  0  0  0  0  0  0  0  0  0
   48.0690   34.2720   40.4110 C   0  0  0  0  0  0  0  0  0  0  0  0
   48.5720   35.5290   40.7200 F   0  0  0  0  0  0  0  0  0  0  0  0
   46.8930   34.4030   39.7600 F   0  0  0  0  0  0  0  0  0  0  0  0
   48.9760   33.4830   39.7260 F   0  0  0  0  0  0  0  0  0  0  0  0
   48.1460   29.3770   47.7570 O   0  0  0  0  0  0  0  0  0  0  0  0
   49.8060   28.0760   49.2640 O   0  0  0  0  0  0  0  0  0  0  0  0
   49.4690   29.4900   48.7970 P   0  0  2  0  0  0  0  0  0  0  0  0
   48.9430   30.3370   50.1810 O   0  0  0  0  0  0  0  0  0  0  0  0
   48.8090   31.2710   49.8750 H   0  0  0  0  0  0  0  0  0  0  0  0
   50.8120   30.2310   48.1300 O   0  0  0  0  0  0  0  0  0  0  0  0
   51.9090   30.2620   48.9560 C   0  0  0  0  0  0  0  0  0  0  0  0
   51.7230   29.6200   49.8380 H   0  0  0  0  0  0  0  0  0  0  0  0
   52.8030   29.9000   48.4440 H   0  0  0  0  0  0  0  0  0  0  0  0
   52.0740   31.7210   49.4100 C   0  0  0  0  0  0  0  0  0  0  0  0
   52.5710   32.3290   48.6420 H   0  0  0  0  0  0  0  0  0  0  0  0
   51.0560   32.1420   49.6080 H   0  0  0  0  0  0  0  0  0  0  0  0
   50.9420   31.6420   52.0680 N   0  0  0  0  0  0  0  0  0  0  0  0
   52.1750   31.9120   51.8370 C   0  0  0  0  0  0  0  0  0  0  0  0
   52.8650   31.6890   50.6230 N   0  0  0  0  0  0  0  0  0  0  0  0
   52.8020   32.4910   52.9990 N   0  0  0  0  0  0  0  0  0  0  0  0
   52.7290   33.4700   53.3700 H   0  0  0  0  0  0  0  0  0  0  0  0
   50.3720   31.2190   51.3100 H   0  0  0  0  0  0  0  0  0  0  0  0
   53.8900   31.5210   50.7090 H   0  0  0  0  0  0  0  0  0  0  0  0
   53.4570   32.2120   53.7820 H   0  0  0  0  0  0  0  0  0  0  0  0
  1  9  1  0  0  0  0
  2  1  2  0  0  0  0
  2  3  1  0  0  0  0
  3  4  2  0  0  0  0
  4  8  1  0  0  0  0
  4  5  1  0  0  0  0
  5  6  1  0  0  0  0
  6 13  1  0  0  0  0
  7  6  2  0  0  0  0
  8  7  1  0  0  0  0
  9 26  1  0  0  0  0
  9  8  2  0  0  0  0
 10  1  1  0  0  0  0
 11  3  1  0  0  0  0
 12  5  1  0  0  0  0
 14 19  1  0  0  0  0
 15 16  1  0  0  0  0
 15 14  2  0  0  0  0
 16 17  2  0  0  0  0
 17 18  1  0  0  0  0
 18  2  1  0  0  0  0
 19 18  2  0  0  0  0
 20 14  1  0  0  0  0
 21 16  1  0  0  0  0
 22 23  1  0  0  0  0
 22 15  1  0  0  0  0
 24 22  1  0  0  0  0
 25 22  1  0  0  0  0
 26 28  1  0  0  0  0
 28 27  2  1  0  0  0
 28 29  1  0  0  0  0
 30 29  1  0  0  0  0
 31 28  1  0  0  0  0
 31 32  1  0  0  0  0
 32 35  1  0  0  0  0
 32 33  1  0  0  0  0
 34 32  1  0  0  0  0
 35 37  1  0  0  0  0
 35 40  1  0  0  0  0
 36 35  1  0  0  0  0
 39 38  2  0  0  0  0
 39 41  1  0  0  0  0
 40 44  1  0  0  0  0
 40 39  1  0  0  0  0
 41 42  1  0  0  0  0
 41 45  1  0  0  0  0
 43 38  1  0  0  0  0
M  END
>  <minimizedAffinity>
-5.78790426

>  <minimizedRMSD>
0.288247138

$$$$
