
 OpenBabel03242515423D

 37 39  0  0  0  0  0  0  0  0999 V2000
   43.5320   34.1680   40.3900 C   0  0  0  0  0  0  0  0  0  0  0  0
   43.3180   33.7520   39.1230 C   0  0  0  0  0  0  0  0  0  0  0  0
   44.4290   33.2330   38.4270 C   0  0  0  0  0  0  0  0  0  0  0  0
   45.6380   33.1750   39.0350 N   0  0  0  0  0  0  0  0  0  0  0  0
   45.8020   33.6030   40.2990 C   0  0  0  0  0  0  0  0  0  0  0  0
   44.7350   34.0820   40.9200 N   0  0  0  0  0  0  0  0  0  0  0  0
   44.3300   32.7440   37.0900 N   0  0  0  0  0  0  0  0  0  0  0  0
   44.3730   33.5050   36.3630 H   0  0  0  0  0  0  0  0  0  0  0  0
   44.2260   31.7130   36.9200 H   0  0  0  0  0  0  0  0  0  0  0  0
   42.8200   35.9150   37.5720 N   0  0  0  0  0  0  0  0  0  0  0  0
   41.8830   35.0310   37.7260 C   0  0  0  0  0  0  0  0  0  0  0  0
   42.1780   33.7350   38.3050 N   0  0  0  0  0  0  0  0  0  0  0  0
   40.5430   35.3640   37.3090 N   0  0  0  0  0  0  0  0  0  0  0  0
   40.1390   34.6320   36.6840 H   0  0  0  0  0  0  0  0  0  0  0  0
   42.5910   36.8310   37.1580 H   0  0  0  0  0  0  0  0  0  0  0  0
   41.4800   33.0350   37.9810 H   0  0  0  0  0  0  0  0  0  0  0  0
   40.0420   36.2360   37.6000 H   0  0  0  0  0  0  0  0  0  0  0  0
   42.0660   34.8140   41.2390 S   0  0  0  0  0  0  0  0  0  0  0  0
   39.5640   34.1390   40.5950 C   0  0  0  0  0  0  0  0  0  0  0  0
   40.7360   33.6320   41.1760 C   0  0  0  0  0  0  0  0  0  0  0  0
   40.8070   32.3200   41.6260 C   0  0  0  0  0  0  0  0  0  0  0  0
   39.7280   31.4870   41.5120 C   0  0  0  0  0  0  0  0  0  0  0  0
   38.5510   31.9760   40.9350 C   0  0  0  0  0  0  0  0  0  0  0  0
   38.4560   33.2840   40.4780 C   0  0  0  0  0  0  0  0  0  0  0  0
   37.6070   30.9200   40.9410 O   0  0  0  0  0  0  0  0  0  0  0  0
   38.1050   29.9600   41.8110 C   0  0  0  0  0  0  0  0  0  0  0  0
   39.5000   30.1640   41.8580 O   0  0  0  0  0  0  0  0  0  0  0  0
   39.4560   35.1480   40.2300 H   0  0  0  0  0  0  0  0  0  0  0  0
   41.7330   32.0140   42.0560 H   0  0  0  0  0  0  0  0  0  0  0  0
   37.5560   33.6830   40.0290 H   0  0  0  0  0  0  0  0  0  0  0  0
   37.7280   30.2160   42.8420 H   0  0  0  0  0  0  0  0  0  0  0  0
   37.8180   28.9260   41.5490 H   0  0  0  0  0  0  0  0  0  0  0  0
   46.9790   33.5930   41.0120 O   0  0  0  0  0  0  0  0  0  0  0  0
   48.1730   33.8540   40.3100 C   0  0  0  0  0  0  0  0  0  0  0  0
   48.5410   32.8040   39.5060 F   0  0  0  0  0  0  0  0  0  0  0  0
   47.9470   35.0300   39.5710 F   0  0  0  0  0  0  0  0  0  0  0  0
   49.1740   34.0720   41.2430 F   0  0  0  0  0  0  0  0  0  0  0  0
  1  6  1  0  0  0  0
  1 18  1  0  0  0  0
  2  1  2  0  0  0  0
  3  4  2  0  0  0  0
  3  2  1  0  0  0  0
  4  5  1  0  0  0  0
  5  6  2  0  0  0  0
  5 33  1  0  0  0  0
  7  3  1  0  0  0  0
  8  7  1  0  0  0  0
  9  7  1  0  0  0  0
 10 11  2  0  0  0  0
 11 12  1  0  0  0  0
 12  2  1  0  0  0  0
 13 17  1  0  0  0  0
 13 11  1  0  0  0  0
 14 13  1  0  0  0  0
 15 10  1  0  0  0  0
 16 12  1  0  0  0  0
 19 20  1  0  0  0  0
 20 18  1  0  0  0  0
 20 21  2  0  0  0  0
 21 29  1  0  0  0  0
 22 21  1  0  0  0  0
 22 27  1  0  0  0  0
 23 25  1  0  0  0  0
 23 22  2  0  0  0  0
 24 19  2  0  0  0  0
 24 23  1  0  0  0  0
 25 26  1  0  0  0  0
 26 27  1  0  0  0  0
 26 31  1  0  0  0  0
 28 19  1  0  0  0  0
 30 24  1  0  0  0  0
 32 26  1  0  0  0  0
 34 33  1  0  0  0  0
 34 37  1  0  0  0  0
 35 34  1  0  0  0  0
 36 34  1  0  0  0  0
M  END
>  <minimizedAffinity>
-5.93095016

>  <minimizedRMSD>
1.34347963

$$$$
