
 OpenBabel03242522393D

 39 40  0  0  0  0  0  0  0  0999 V2000
   46.2310   31.6540   45.6490 C   0  0  0  0  0  0  0  0  0  0  0  0
   46.1240   30.7460   44.9840 H   0  0  0  0  0  0  0  0  0  0  0  0
   45.2120   31.9340   45.9090 H   0  0  0  0  0  0  0  0  0  0  0  0
   47.3880   32.1590   47.7980 C   0  0  0  0  0  0  0  0  0  0  0  0
   47.0990   31.2400   46.7550 C   0  0  0  0  0  0  0  0  0  0  0  0
   47.6750   29.9810   46.8510 C   0  0  0  0  0  0  0  0  0  0  0  0
   48.4690   29.6970   47.9160 N   0  0  0  0  0  0  0  0  0  0  0  0
   48.7120   30.5910   48.8730 C   0  0  0  0  0  0  0  0  0  0  0  0
   48.1850   31.8080   48.8250 N   0  0  0  0  0  0  0  0  0  0  0  0
   46.9850   33.1640   47.8130 H   0  0  0  0  0  0  0  0  0  0  0  0
   47.4620   29.2870   46.0720 H   0  0  0  0  0  0  0  0  0  0  0  0
   49.6000   30.1910   50.0090 C   0  0  0  0  0  0  0  0  0  0  0  0
   48.9700   29.6010   50.7040 H   0  0  0  0  0  0  0  0  0  0  0  0
   50.4460   29.5750   49.6640 H   0  0  0  0  0  0  0  0  0  0  0  0
   51.4850   30.0140   52.1460 N   0  0  0  0  0  0  0  0  0  0  0  0
   50.9160   31.0780   51.7140 C   0  0  0  0  0  0  0  0  0  0  0  0
   50.0700   31.4420   50.6160 N   0  0  0  0  0  0  0  0  0  0  0  0
   51.4410   31.8790   52.7770 N   0  0  0  0  0  0  0  0  0  0  0  0
   50.9410   32.0360   53.6980 H   0  0  0  0  0  0  0  0  0  0  0  0
   51.4470   29.0740   51.7410 H   0  0  0  0  0  0  0  0  0  0  0  0
   50.0020   32.4630   50.5260 H   0  0  0  0  0  0  0  0  0  0  0  0
   52.3510   32.3960   52.7910 H   0  0  0  0  0  0  0  0  0  0  0  0
   46.9920   32.6670   44.8310 C   0  0  0  0  0  0  0  0  0  0  0  0
   47.9110   33.0340   45.3750 H   0  0  0  0  0  0  0  0  0  0  0  0
   47.4390   32.2140   43.8970 H   0  0  0  0  0  0  0  0  0  0  0  0
   46.5060   34.5110   43.2780 C   0  0  0  0  0  0  0  0  0  0  0  0
   46.2380   33.8690   44.4780 C   0  0  0  0  0  0  0  0  0  0  0  0
   45.2940   34.3070   45.3570 C   0  0  0  0  0  0  0  0  0  0  0  0
   44.5710   35.4370   45.0440 C   0  0  0  0  0  0  0  0  0  0  0  0
   44.7750   36.1280   43.8820 C   0  0  0  0  0  0  0  0  0  0  0  0
   45.7540   35.6260   43.0300 C   0  0  0  0  0  0  0  0  0  0  0  0
   45.0330   33.8670   46.2980 H   0  0  0  0  0  0  0  0  0  0  0  0
   43.7980   35.8440   45.7050 H   0  0  0  0  0  0  0  0  0  0  0  0
   44.2280   37.0250   43.5960 H   0  0  0  0  0  0  0  0  0  0  0  0
   45.9220   36.1650   42.1080 H   0  0  0  0  0  0  0  0  0  0  0  0
   47.7030   33.9850   42.1310 S   0  0  0  0  0  0  0  0  0  0  0  0
   49.1060   34.4530   42.4950 O   0  0  0  0  0  0  0  0  0  0  0  0
   47.4290   34.6570   40.7940 O   0  0  0  0  0  0  0  0  0  0  0  0
   47.6770   32.6290   41.9150 H   0  0  0  0  0  0  0  0  0  0  0  0
  1  3  1  0  0  0  0
  1  5  1  0  0  0  0
  2  1  1  0  0  0  0
  4 10  1  0  0  0  0
  4  9  1  0  0  0  0
  5  6  1  0  0  0  0
  5  4  2  0  0  0  0
  6  7  2  0  0  0  0
  7  8  1  0  0  0  0
  8 12  1  0  0  0  0
  9  8  2  0  0  0  0
 11  6  1  0  0  0  0
 12 17  1  0  0  0  0
 12 13  1  0  0  0  0
 14 12  1  0  0  0  0
 16 15  2  0  0  0  0
 16 18  1  0  0  0  0
 17 16  1  0  0  0  0
 18 22  1  0  0  0  0
 18 19  1  0  0  0  0
 20 15  1  0  0  0  0
 21 17  1  0  0  0  0
 23 24  1  0  0  0  0
 23  1  1  0  0  0  0
 25 23  1  0  0  0  0
 26 27  1  0  0  0  0
 27 23  1  0  0  0  0
 27 28  2  0  0  0  0
 28 32  1  0  0  0  0
 29 28  1  0  0  0  0
 29 33  1  0  0  0  0
 30 29  2  0  0  0  0
 31 26  2  0  0  0  0
 31 30  1  0  0  0  0
 34 30  1  0  0  0  0
 35 31  1  0  0  0  0
 36 37  2  0  0  0  0
 36 26  1  0  0  0  0
 38 36  2  0  0  0  0
 39 36  1  0  0  0  0
M  END
>  <minimizedAffinity>
-5.55446053

>  <minimizedRMSD>
1.78630948

$$$$
