
 OpenBabel03242522393D

 39 40  0  0  0  0  0  0  0  0999 V2000
   46.2880   31.6620   45.6100 C   0  0  0  0  0  0  0  0  0  0  0  0
   46.2450   30.7180   44.9890 H   0  0  0  0  0  0  0  0  0  0  0  0
   45.2490   31.9050   45.8240 H   0  0  0  0  0  0  0  0  0  0  0  0
   47.3750   32.3390   47.7480 C   0  0  0  0  0  0  0  0  0  0  0  0
   47.1380   31.3460   46.7620 C   0  0  0  0  0  0  0  0  0  0  0  0
   47.7450   30.1130   46.9530 C   0  0  0  0  0  0  0  0  0  0  0  0
   48.5200   29.9230   48.0540 N   0  0  0  0  0  0  0  0  0  0  0  0
   48.7130   30.8840   48.9550 C   0  0  0  0  0  0  0  0  0  0  0  0
   48.1540   32.0800   48.8150 N   0  0  0  0  0  0  0  0  0  0  0  0
   46.9440   33.3310   47.6870 H   0  0  0  0  0  0  0  0  0  0  0  0
   47.5720   29.3650   46.2170 H   0  0  0  0  0  0  0  0  0  0  0  0
   49.5820   30.5850   50.1360 C   0  0  0  0  0  0  0  0  0  0  0  0
   49.4370   31.4210   50.8490 H   0  0  0  0  0  0  0  0  0  0  0  0
   49.2970   29.6350   50.6180 H   0  0  0  0  0  0  0  0  0  0  0  0
   51.1450   32.9730   50.2250 N   0  0  0  0  0  0  0  0  0  0  0  0
   51.4800   31.8590   49.6880 C   0  0  0  0  0  0  0  0  0  0  0  0
   50.9560   30.5260   49.6250 N   0  0  0  0  0  0  0  0  0  0  0  0
   52.6660   32.4100   49.1080 N   0  0  0  0  0  0  0  0  0  0  0  0
   52.7020   32.8410   48.1390 H   0  0  0  0  0  0  0  0  0  0  0  0
   50.3200   33.1690   50.7990 H   0  0  0  0  0  0  0  0  0  0  0  0
   51.6530   29.8730   49.2450 H   0  0  0  0  0  0  0  0  0  0  0  0
   53.6170   32.4640   49.5410 H   0  0  0  0  0  0  0  0  0  0  0  0
   47.0270   32.6680   44.7630 C   0  0  0  0  0  0  0  0  0  0  0  0
   47.9620   33.0370   45.2790 H   0  0  0  0  0  0  0  0  0  0  0  0
   47.4470   32.2080   43.8200 H   0  0  0  0  0  0  0  0  0  0  0  0
   46.5330   34.5290   43.2330 C   0  0  0  0  0  0  0  0  0  0  0  0
   46.2650   33.8690   44.4230 C   0  0  0  0  0  0  0  0  0  0  0  0
   45.3140   34.2880   45.3050 C   0  0  0  0  0  0  0  0  0  0  0  0
   44.5840   35.4160   45.0040 C   0  0  0  0  0  0  0  0  0  0  0  0
   44.7870   36.1250   43.8520 C   0  0  0  0  0  0  0  0  0  0  0  0
   45.7730   35.6420   42.9970 C   0  0  0  0  0  0  0  0  0  0  0  0
   45.0530   33.8330   46.2390 H   0  0  0  0  0  0  0  0  0  0  0  0
   43.8050   35.8080   45.6660 H   0  0  0  0  0  0  0  0  0  0  0  0
   44.2340   37.0200   43.5750 H   0  0  0  0  0  0  0  0  0  0  0  0
   45.9400   36.1940   42.0830 H   0  0  0  0  0  0  0  0  0  0  0  0
   47.7390   34.0270   42.0840 S   0  0  0  0  0  0  0  0  0  0  0  0
   49.1160   34.5980   42.3970 O   0  0  0  0  0  0  0  0  0  0  0  0
   47.3970   34.6200   40.7260 O   0  0  0  0  0  0  0  0  0  0  0  0
   47.7940   32.6640   41.9280 H   0  0  0  0  0  0  0  0  0  0  0  0
  1  3  1  0  0  0  0
  1  5  1  0  0  0  0
  2  1  1  0  0  0  0
  4  9  1  0  0  0  0
  5  6  1  0  0  0  0
  5  4  2  0  0  0  0
  6  7  2  0  0  0  0
  7  8  1  0  0  0  0
  8 12  1  0  0  0  0
  9  8  2  0  0  0  0
 10  4  1  0  0  0  0
 11  6  1  0  0  0  0
 12 14  1  0  0  0  0
 12 13  1  0  0  0  0
 15 20  1  0  0  0  0
 16 15  2  0  0  0  0
 17 16  1  0  0  0  0
 17 12  1  0  0  0  0
 18 22  1  0  0  0  0
 18 16  1  0  0  0  0
 19 18  1  0  0  0  0
 21 17  1  0  0  0  0
 23 24  1  0  0  0  0
 23  1  1  0  0  0  0
 25 23  1  0  0  0  0
 26 27  1  0  0  0  0
 27 23  1  0  0  0  0
 27 28  2  0  0  0  0
 28 32  1  0  0  0  0
 29 28  1  0  0  0  0
 29 33  1  0  0  0  0
 30 29  2  0  0  0  0
 31 26  2  0  0  0  0
 31 30  1  0  0  0  0
 34 30  1  0  0  0  0
 35 31  1  0  0  0  0
 36 37  2  0  0  0  0
 36 26  1  0  0  0  0
 38 36  2  0  0  0  0
 39 36  1  0  0  0  0
M  END
>  <minimizedAffinity>
-5.43747234

>  <minimizedRMSD>
0.345707893

$$$$
