
 OpenBabel03242522183D

 43 45  0  0  0  0  0  0  0  0999 V2000
   44.3390   35.4950   41.5090 C   0  0  0  0  0  0  0  0  0  0  0  0
   44.4960   36.5560   41.1840 H   0  0  0  0  0  0  0  0  0  0  0  0
   45.2680   34.9700   41.1640 H   0  0  0  0  0  0  0  0  0  0  0  0
   43.2100   34.8960   40.8410 C   0  0  0  0  0  0  0  0  0  0  0  0
   42.5930   35.2440   39.6710 C   0  0  0  0  0  0  0  0  0  0  0  0
   41.5210   34.5970   39.0940 C   0  0  0  0  0  0  0  0  0  0  0  0
   41.0360   33.5030   39.7690 C   0  0  0  0  0  0  0  0  0  0  0  0
   41.6600   33.1670   40.9400 C   0  0  0  0  0  0  0  0  0  0  0  0
   42.6970   33.8050   41.4800 N   0  0  0  0  0  0  0  0  0  0  0  0
   43.1170   36.1410   39.2740 H   0  0  0  0  0  0  0  0  0  0  0  0
   41.2760   35.1020   38.1890 H   0  0  0  0  0  0  0  0  0  0  0  0
   38.1470   33.8850   40.0080 N   0  0  0  0  0  0  0  0  0  0  0  0
   38.6410   33.3220   38.9240 C   0  0  0  0  0  0  0  0  0  0  0  0
   39.9880   32.8600   39.0630 N   0  0  0  0  0  0  0  0  0  0  0  0
   37.8470   33.1970   37.7190 N   0  0  0  0  0  0  0  0  0  0  0  0
   37.6340   32.1590   37.7110 H   0  0  0  0  0  0  0  0  0  0  0  0
   37.1690   34.2310   39.9380 H   0  0  0  0  0  0  0  0  0  0  0  0
   39.9760   31.9640   38.4870 H   0  0  0  0  0  0  0  0  0  0  0  0
   37.4920   33.8420   36.9620 H   0  0  0  0  0  0  0  0  0  0  0  0
   41.0500   31.9810   41.6280 C   0  0  0  0  0  0  0  0  0  0  0  0
   39.8010   32.3240   42.1640 F   0  0  0  0  0  0  0  0  0  0  0  0
   41.8650   31.4320   42.5910 F   0  0  0  0  0  0  0  0  0  0  0  0
   40.8100   30.9800   40.6970 F   0  0  0  0  0  0  0  0  0  0  0  0
   44.3400   35.4570   42.9960 C   0  0  0  0  0  0  0  0  0  0  0  0
   43.4040   34.9500   43.3610 H   0  0  0  0  0  0  0  0  0  0  0  0
   44.4050   36.4900   43.4330 H   0  0  0  0  0  0  0  0  0  0  0  0
   47.3300   33.4020   43.6620 C   0  0  0  0  0  0  0  0  0  0  0  0
   47.1060   33.0960   44.9480 C   0  0  0  0  0  0  0  0  0  0  0  0
   45.5050   33.9650   45.2650 S   0  0  0  0  0  0  0  0  0  0  0  0
   45.4450   34.6010   43.5250 C   0  0  0  0  0  0  0  0  0  0  0  0
   46.4070   34.1430   43.1500 N   0  0  0  0  0  0  0  0  0  0  0  0
   47.6990   32.4960   45.6350 H   0  0  0  0  0  0  0  0  0  0  0  0
   50.6960   33.2230   41.9790 C   0  0  0  0  0  0  0  0  0  0  0  0
   49.6130   33.7410   42.7110 C   0  0  0  0  0  0  0  0  0  0  0  0
   48.5210   32.9360   42.9040 C   0  0  0  0  0  0  0  0  0  0  0  0
   48.5580   31.6600   42.3640 N   0  0  0  0  0  0  0  0  0  0  0  0
   49.6260   31.2230   41.6740 C   0  0  0  0  0  0  0  0  0  0  0  0
   50.6890   31.9950   41.4790 N   0  0  0  0  0  0  0  0  0  0  0  0
   51.5690   33.8420   41.8140 H   0  0  0  0  0  0  0  0  0  0  0  0
   49.4980   30.2060   41.3190 H   0  0  0  0  0  0  0  0  0  0  0  0
   49.7390   35.0590   43.1880 N   0  0  0  0  0  0  0  0  0  0  0  0
   49.2890   35.8850   42.7460 H   0  0  0  0  0  0  0  0  0  0  0  0
   50.3520   35.0370   44.0450 H   0  0  0  0  0  0  0  0  0  0  0  0
  1 24  1  0  0  0  0
  2  1  1  0  0  0  0
  3  1  1  0  0  0  0
  4  9  1  0  0  0  0
  4  1  1  0  0  0  0
  5  4  2  0  0  0  0
  6  5  1  0  0  0  0
  6  7  2  0  0  0  0
  7  8  1  0  0  0  0
  8  9  2  0  0  0  0
  8 20  1  0  0  0  0
 10  5  1  0  0  0  0
 11  6  1  0  0  0  0
 13 14  1  0  0  0  0
 13 12  2  0  0  0  0
 14  7  1  0  0  0  0
 15 13  1  0  0  0  0
 16 15  1  0  0  0  0
 17 12  1  0  0  0  0
 18 14  1  0  0  0  0
 19 15  1  0  0  0  0
 20 21  1  0  0  0  0
 20 22  1  0  0  0  0
 23 20  1  0  0  0  0
 24 25  1  0  0  0  0
 24 26  1  0  0  0  0
 24 30  1  0  0  0  0
 27 28  2  0  0  0  0
 28 29  1  0  0  0  0
 28 32  1  0  0  0  0
 30 29  1  0  0  0  0
 31 30  2  0  0  0  0
 31 27  1  0  0  0  0
 33 34  1  0  0  0  0
 34 35  2  0  0  0  0
 34 41  1  0  0  0  0
 35 27  1  0  0  0  0
 36 35  1  0  0  0  0
 37 36  2  0  0  0  0
 38 37  1  0  0  0  0
 38 33  2  0  0  0  0
 39 33  1  0  0  0  0
 40 37  1  0  0  0  0
 41 43  1  0  0  0  0
 42 41  1  0  0  0  0
M  END
>  <minimizedAffinity>
-6.21201181

>  <minimizedRMSD>
2.23357701

$$$$
