
 OpenBabel03242522393D

 39 40  0  0  0  0  0  0  0  0999 V2000
   46.2370   31.6600   45.6110 C   0  0  0  0  0  0  0  0  0  0  0  0
   46.1670   30.7370   44.9630 H   0  0  0  0  0  0  0  0  0  0  0  0
   45.2070   31.9250   45.8390 H   0  0  0  0  0  0  0  0  0  0  0  0
   47.3090   32.2250   47.7900 C   0  0  0  0  0  0  0  0  0  0  0  0
   47.0840   31.2870   46.7480 C   0  0  0  0  0  0  0  0  0  0  0  0
   47.7000   30.0490   46.8740 C   0  0  0  0  0  0  0  0  0  0  0  0
   48.4700   29.8030   47.9670 N   0  0  0  0  0  0  0  0  0  0  0  0
   48.6510   30.7140   48.9210 C   0  0  0  0  0  0  0  0  0  0  0  0
   48.0840   31.9120   48.8450 N   0  0  0  0  0  0  0  0  0  0  0  0
   46.8710   33.2160   47.7820 H   0  0  0  0  0  0  0  0  0  0  0  0
   47.5350   29.3420   46.0970 H   0  0  0  0  0  0  0  0  0  0  0  0
   49.5160   30.3560   50.0880 C   0  0  0  0  0  0  0  0  0  0  0  0
   48.8480   29.8860   50.8380 H   0  0  0  0  0  0  0  0  0  0  0  0
   50.3090   29.6450   49.8030 H   0  0  0  0  0  0  0  0  0  0  0  0
   52.0520   31.1620   49.0510 N   0  0  0  0  0  0  0  0  0  0  0  0
   51.3890   31.7390   49.9830 C   0  0  0  0  0  0  0  0  0  0  0  0
   50.0880   31.6180   50.5720 N   0  0  0  0  0  0  0  0  0  0  0  0
   52.4590   32.6380   50.2890 N   0  0  0  0  0  0  0  0  0  0  0  0
   53.2110   32.4340   51.0090 H   0  0  0  0  0  0  0  0  0  0  0  0
   51.7490   30.3890   48.4520 H   0  0  0  0  0  0  0  0  0  0  0  0
   49.8800   32.4250   51.1730 H   0  0  0  0  0  0  0  0  0  0  0  0
   52.6380   33.5760   49.8650 H   0  0  0  0  0  0  0  0  0  0  0  0
   47.0000   32.6710   44.7910 C   0  0  0  0  0  0  0  0  0  0  0  0
   47.9210   33.0360   45.3350 H   0  0  0  0  0  0  0  0  0  0  0  0
   47.4440   32.2180   43.8570 H   0  0  0  0  0  0  0  0  0  0  0  0
   46.5310   34.5280   43.2490 C   0  0  0  0  0  0  0  0  0  0  0  0
   46.2490   33.8760   44.4400 C   0  0  0  0  0  0  0  0  0  0  0  0
   45.2930   34.3050   45.3120 C   0  0  0  0  0  0  0  0  0  0  0  0
   44.5730   35.4360   45.0000 C   0  0  0  0  0  0  0  0  0  0  0  0
   44.7900   36.1380   43.8470 C   0  0  0  0  0  0  0  0  0  0  0  0
   45.7800   35.6450   43.0010 C   0  0  0  0  0  0  0  0  0  0  0  0
   45.0210   33.8560   46.2450 H   0  0  0  0  0  0  0  0  0  0  0  0
   43.7910   35.8360   45.6540 H   0  0  0  0  0  0  0  0  0  0  0  0
   44.2440   37.0360   43.5610 H   0  0  0  0  0  0  0  0  0  0  0  0
   45.9580   36.1920   42.0870 H   0  0  0  0  0  0  0  0  0  0  0  0
   47.7420   34.0140   42.1120 S   0  0  0  0  0  0  0  0  0  0  0  0
   49.1370   34.5020   42.4840 O   0  0  0  0  0  0  0  0  0  0  0  0
   47.4680   34.6770   40.7710 O   0  0  0  0  0  0  0  0  0  0  0  0
   47.7360   32.6570   41.9010 H   0  0  0  0  0  0  0  0  0  0  0  0
  1  3  1  0  0  0  0
  1  5  1  0  0  0  0
  2  1  1  0  0  0  0
  4  9  1  0  0  0  0
  5  6  1  0  0  0  0
  5  4  2  0  0  0  0
  6  7  2  0  0  0  0
  7  8  1  0  0  0  0
  8 12  1  0  0  0  0
  9  8  2  0  0  0  0
 10  4  1  0  0  0  0
 11  6  1  0  0  0  0
 12 17  1  0  0  0  0
 12 13  1  0  0  0  0
 14 12  1  0  0  0  0
 15 16  2  0  0  0  0
 16 18  1  0  0  0  0
 16 17  1  0  0  0  0
 17 21  1  0  0  0  0
 18 19  1  0  0  0  0
 20 15  1  0  0  0  0
 22 18  1  0  0  0  0
 23 24  1  0  0  0  0
 23  1  1  0  0  0  0
 25 23  1  0  0  0  0
 26 27  1  0  0  0  0
 27 23  1  0  0  0  0
 27 28  2  0  0  0  0
 28 32  1  0  0  0  0
 29 28  1  0  0  0  0
 29 33  1  0  0  0  0
 30 29  2  0  0  0  0
 31 26  2  0  0  0  0
 31 30  1  0  0  0  0
 34 30  1  0  0  0  0
 35 31  1  0  0  0  0
 36 37  2  0  0  0  0
 36 26  1  0  0  0  0
 38 36  2  0  0  0  0
 39 36  1  0  0  0  0
M  END
>  <minimizedAffinity>
-5.36555767

>  <minimizedRMSD>
1.2482543

$$$$
