
 OpenBabel03242522393D

 39 40  0  0  0  0  0  0  0  0999 V2000
   46.3080   31.7000   45.4920 C   0  0  0  0  0  0  0  0  0  0  0  0
   46.2750   30.7640   44.8600 H   0  0  0  0  0  0  0  0  0  0  0  0
   45.2660   31.9430   45.6910 H   0  0  0  0  0  0  0  0  0  0  0  0
   47.3320   32.3390   47.6730 C   0  0  0  0  0  0  0  0  0  0  0  0
   47.1360   31.3690   46.6550 C   0  0  0  0  0  0  0  0  0  0  0  0
   47.7610   30.1420   46.8290 C   0  0  0  0  0  0  0  0  0  0  0  0
   48.5120   29.9350   47.9430 N   0  0  0  0  0  0  0  0  0  0  0  0
   48.6670   30.8750   48.8730 C   0  0  0  0  0  0  0  0  0  0  0  0
   48.0900   32.0650   48.7510 N   0  0  0  0  0  0  0  0  0  0  0  0
   46.8850   33.3250   47.6280 H   0  0  0  0  0  0  0  0  0  0  0  0
   47.6180   29.4100   46.0700 H   0  0  0  0  0  0  0  0  0  0  0  0
   49.5130   30.5600   50.0660 C   0  0  0  0  0  0  0  0  0  0  0  0
   49.3620   31.3910   50.7840 H   0  0  0  0  0  0  0  0  0  0  0  0
   49.2130   29.6080   50.5360 H   0  0  0  0  0  0  0  0  0  0  0  0
   51.0890   32.9370   50.1970 N   0  0  0  0  0  0  0  0  0  0  0  0
   51.4260   31.8240   49.6580 C   0  0  0  0  0  0  0  0  0  0  0  0
   50.8950   30.4950   49.5790 N   0  0  0  0  0  0  0  0  0  0  0  0
   52.6270   32.3720   49.1030 N   0  0  0  0  0  0  0  0  0  0  0  0
   52.6820   32.8070   48.1370 H   0  0  0  0  0  0  0  0  0  0  0  0
   50.2550   33.1350   50.7570 H   0  0  0  0  0  0  0  0  0  0  0  0
   51.5950   29.8410   49.2090 H   0  0  0  0  0  0  0  0  0  0  0  0
   53.5700   32.4170   49.5530 H   0  0  0  0  0  0  0  0  0  0  0  0
   47.0640   32.7150   44.6720 C   0  0  0  0  0  0  0  0  0  0  0  0
   47.9750   33.0970   45.2210 H   0  0  0  0  0  0  0  0  0  0  0  0
   47.5250   32.2600   43.7460 H   0  0  0  0  0  0  0  0  0  0  0  0
   46.5930   34.5580   43.1140 C   0  0  0  0  0  0  0  0  0  0  0  0
   46.3000   33.9050   44.3010 C   0  0  0  0  0  0  0  0  0  0  0  0
   45.3210   34.3220   45.1540 C   0  0  0  0  0  0  0  0  0  0  0  0
   44.5880   35.4390   44.8240 C   0  0  0  0  0  0  0  0  0  0  0  0
   44.8140   36.1410   43.6720 C   0  0  0  0  0  0  0  0  0  0  0  0
   45.8280   35.6610   42.8480 C   0  0  0  0  0  0  0  0  0  0  0  0
   45.0390   33.8710   46.0840 H   0  0  0  0  0  0  0  0  0  0  0  0
   43.7880   35.8290   45.4630 H   0  0  0  0  0  0  0  0  0  0  0  0
   44.2590   37.0280   43.3740 H   0  0  0  0  0  0  0  0  0  0  0  0
   46.0140   36.2080   41.9350 H   0  0  0  0  0  0  0  0  0  0  0  0
   47.8340   34.0600   42.0020 S   0  0  0  0  0  0  0  0  0  0  0  0
   49.2010   34.6290   42.3590 O   0  0  0  0  0  0  0  0  0  0  0  0
   47.5350   34.6580   40.6350 O   0  0  0  0  0  0  0  0  0  0  0  0
   47.8940   32.6970   41.8420 H   0  0  0  0  0  0  0  0  0  0  0  0
  1  3  1  0  0  0  0
  1  5  1  0  0  0  0
  2  1  1  0  0  0  0
  4  9  1  0  0  0  0
  5  6  1  0  0  0  0
  5  4  2  0  0  0  0
  6  7  2  0  0  0  0
  7  8  1  0  0  0  0
  8 12  1  0  0  0  0
  9  8  2  0  0  0  0
 10  4  1  0  0  0  0
 11  6  1  0  0  0  0
 12 14  1  0  0  0  0
 12 13  1  0  0  0  0
 15 20  1  0  0  0  0
 16 15  2  0  0  0  0
 17 16  1  0  0  0  0
 17 12  1  0  0  0  0
 18 22  1  0  0  0  0
 18 16  1  0  0  0  0
 19 18  1  0  0  0  0
 21 17  1  0  0  0  0
 23 24  1  0  0  0  0
 23  1  1  0  0  0  0
 25 23  1  0  0  0  0
 26 27  1  0  0  0  0
 27 23  1  0  0  0  0
 27 28  2  0  0  0  0
 28 32  1  0  0  0  0
 29 28  1  0  0  0  0
 29 33  1  0  0  0  0
 30 29  2  0  0  0  0
 31 26  2  0  0  0  0
 31 30  1  0  0  0  0
 34 30  1  0  0  0  0
 35 31  1  0  0  0  0
 36 37  2  0  0  0  0
 36 26  1  0  0  0  0
 38 36  2  0  0  0  0
 39 36  1  0  0  0  0
M  END
>  <minimizedAffinity>
-5.43020916

>  <minimizedRMSD>
0.776849449

$$$$
