
 OpenBabel03242522393D

 39 40  0  0  0  0  0  0  0  0999 V2000
   46.3600   31.6390   45.4840 C   0  0  0  0  0  0  0  0  0  0  0  0
   46.3230   30.6730   44.8980 H   0  0  0  0  0  0  0  0  0  0  0  0
   45.3200   31.8880   45.6830 H   0  0  0  0  0  0  0  0  0  0  0  0
   47.2320   32.2950   47.7250 C   0  0  0  0  0  0  0  0  0  0  0  0
   47.2030   31.3660   46.6520 C   0  0  0  0  0  0  0  0  0  0  0  0
   47.9970   30.2350   46.7800 C   0  0  0  0  0  0  0  0  0  0  0  0
   48.7460   30.0770   47.9030 N   0  0  0  0  0  0  0  0  0  0  0  0
   48.7420   30.9760   48.8850 C   0  0  0  0  0  0  0  0  0  0  0  0
   48.0000   32.0740   48.8090 N   0  0  0  0  0  0  0  0  0  0  0  0
   46.6470   33.2070   47.7190 H   0  0  0  0  0  0  0  0  0  0  0  0
   47.9790   29.5340   45.9790 H   0  0  0  0  0  0  0  0  0  0  0  0
   49.5990   30.7190   50.0840 C   0  0  0  0  0  0  0  0  0  0  0  0
   48.9050   30.5470   50.9320 H   0  0  0  0  0  0  0  0  0  0  0  0
   50.2380   29.8320   49.9440 H   0  0  0  0  0  0  0  0  0  0  0  0
   52.0310   30.9410   48.6060 N   0  0  0  0  0  0  0  0  0  0  0  0
   51.6070   31.7500   49.5060 C   0  0  0  0  0  0  0  0  0  0  0  0
   50.4080   31.9290   50.2710 N   0  0  0  0  0  0  0  0  0  0  0  0
   52.8270   32.4970   49.5140 N   0  0  0  0  0  0  0  0  0  0  0  0
   53.6450   32.2810   50.1540 H   0  0  0  0  0  0  0  0  0  0  0  0
   51.5340   30.1480   48.1900 H   0  0  0  0  0  0  0  0  0  0  0  0
   50.4100   32.8380   50.7500 H   0  0  0  0  0  0  0  0  0  0  0  0
   53.0680   33.3210   48.9180 H   0  0  0  0  0  0  0  0  0  0  0  0
   47.1040   32.6150   44.6070 C   0  0  0  0  0  0  0  0  0  0  0  0
   48.0540   32.9760   45.1010 H   0  0  0  0  0  0  0  0  0  0  0  0
   47.4990   32.1310   43.6660 H   0  0  0  0  0  0  0  0  0  0  0  0
   46.7100   34.5320   43.1180 C   0  0  0  0  0  0  0  0  0  0  0  0
   46.3590   33.8240   44.2580 C   0  0  0  0  0  0  0  0  0  0  0  0
   45.3420   34.2040   45.0810 C   0  0  0  0  0  0  0  0  0  0  0  0
   44.6270   35.3380   44.7700 C   0  0  0  0  0  0  0  0  0  0  0  0
   44.9090   36.0920   43.6650 C   0  0  0  0  0  0  0  0  0  0  0  0
   45.9600   35.6490   42.8680 C   0  0  0  0  0  0  0  0  0  0  0  0
   45.0150   33.7110   45.9750 H   0  0  0  0  0  0  0  0  0  0  0  0
   43.7970   35.7000   45.3880 H   0  0  0  0  0  0  0  0  0  0  0  0
   44.3700   36.9950   43.3830 H   0  0  0  0  0  0  0  0  0  0  0  0
   46.1900   36.2380   41.9920 H   0  0  0  0  0  0  0  0  0  0  0  0
   48.0020   34.0820   42.0440 S   0  0  0  0  0  0  0  0  0  0  0  0
   49.3700   34.4930   42.5730 O   0  0  0  0  0  0  0  0  0  0  0  0
   47.8590   34.8700   40.7500 O   0  0  0  0  0  0  0  0  0  0  0  0
   47.9820   32.7500   41.7100 H   0  0  0  0  0  0  0  0  0  0  0  0
  1  3  1  0  0  0  0
  1  5  1  0  0  0  0
  2  1  1  0  0  0  0
  4  9  1  0  0  0  0
  5  6  1  0  0  0  0
  5  4  2  0  0  0  0
  6  7  2  0  0  0  0
  7  8  1  0  0  0  0
  8 12  1  0  0  0  0
  9  8  2  0  0  0  0
 10  4  1  0  0  0  0
 11  6  1  0  0  0  0
 12 17  1  0  0  0  0
 12 13  1  0  0  0  0
 14 12  1  0  0  0  0
 15 16  2  0  0  0  0
 16 18  1  0  0  0  0
 16 17  1  0  0  0  0
 17 21  1  0  0  0  0
 18 19  1  0  0  0  0
 20 15  1  0  0  0  0
 22 18  1  0  0  0  0
 23 24  1  0  0  0  0
 23  1  1  0  0  0  0
 25 23  1  0  0  0  0
 26 27  1  0  0  0  0
 27 23  1  0  0  0  0
 27 28  2  0  0  0  0
 28 32  1  0  0  0  0
 29 28  1  0  0  0  0
 29 33  1  0  0  0  0
 30 29  2  0  0  0  0
 31 26  2  0  0  0  0
 31 30  1  0  0  0  0
 34 30  1  0  0  0  0
 35 31  1  0  0  0  0
 36 37  2  0  0  0  0
 36 26  1  0  0  0  0
 38 36  2  0  0  0  0
 39 36  1  0  0  0  0
M  END
>  <minimizedAffinity>
-5.31962824

>  <minimizedRMSD>
0.939078271

$$$$
