
 OpenBabel03252500213D

 21 21  0  0  0  0  0  0  0  0999 V2000
   38.7490   30.2660   39.6960 C   0  0  0  0  0  0  0  0  0  0  0  0
   39.2610   31.5160   39.4030 C   0  0  0  0  0  0  0  0  0  0  0  0
   38.4850   32.6210   39.8080 C   0  0  0  0  0  0  0  0  0  0  0  0
   37.3110   32.4110   40.4460 N   0  0  0  0  0  0  0  0  0  0  0  0
   36.8800   31.1660   40.6960 C   0  0  0  0  0  0  0  0  0  0  0  0
   37.5950   30.0940   40.3240 N   0  0  0  0  0  0  0  0  0  0  0  0
   35.6580   30.9210   41.3590 N   0  0  0  0  0  0  0  0  0  0  0  0
   39.2940   29.3760   39.4190 H   0  0  0  0  0  0  0  0  0  0  0  0
   34.8370   30.8070   40.7230 H   0  0  0  0  0  0  0  0  0  0  0  0
   35.4070   30.8280   42.3570 H   0  0  0  0  0  0  0  0  0  0  0  0
   39.7480   32.3970   36.6760 N   0  0  0  0  0  0  0  0  0  0  0  0
   40.6770   31.7210   37.3130 C   0  0  0  0  0  0  0  0  0  0  0  0
   40.4990   31.7300   38.7390 N   0  0  0  0  0  0  0  0  0  0  0  0
   41.8110   30.9950   36.7960 N   0  0  0  0  0  0  0  0  0  0  0  0
   41.9540   30.1290   36.2260 H   0  0  0  0  0  0  0  0  0  0  0  0
   39.7910   32.4460   35.6550 H   0  0  0  0  0  0  0  0  0  0  0  0
   41.3520   31.9060   39.3470 H   0  0  0  0  0  0  0  0  0  0  0  0
   42.6470   31.5480   37.1250 H   0  0  0  0  0  0  0  0  0  0  0  0
   38.9880   33.9270   39.5190 N   0  0  0  0  0  0  0  0  0  0  0  0
   39.3210   34.1710   38.5540 H   0  0  0  0  0  0  0  0  0  0  0  0
   39.0210   34.6380   40.2840 H   0  0  0  0  0  0  0  0  0  0  0  0
  1  6  1  0  0  0  0
  2  1  2  0  0  0  0
  2  3  1  0  0  0  0
  3  4  2  0  0  0  0
  4  5  1  0  0  0  0
  5  7  1  0  0  0  0
  6  5  2  0  0  0  0
  7 10  1  0  0  0  0
  8  1  1  0  0  0  0
  9  7  1  0  0  0  0
 11 12  2  0  0  0  0
 12 13  1  0  0  0  0
 13 17  1  0  0  0  0
 13  2  1  0  0  0  0
 14 18  1  0  0  0  0
 14 12  1  0  0  0  0
 15 14  1  0  0  0  0
 16 11  1  0  0  0  0
 19  3  1  0  0  0  0
 19 21  1  0  0  0  0
 20 19  1  0  0  0  0
M  END
>  <minimizedAffinity>
-4.75386

$$$$

 OpenBabel03252500213D

 21 21  0  0  0  0  0  0  0  0999 V2000
   38.4710   32.7350   39.3910 C   0  0  0  0  0  0  0  0  0  0  0  0
   38.6020   32.0480   38.1990 C   0  0  0  0  0  0  0  0  0  0  0  0
   37.7310   30.9560   38.0060 C   0  0  0  0  0  0  0  0  0  0  0  0
   36.8350   30.6420   38.9680 N   0  0  0  0  0  0  0  0  0  0  0  0
   36.7670   31.3570   40.1010 C   0  0  0  0  0  0  0  0  0  0  0  0
   37.5810   32.4010   40.3150 N   0  0  0  0  0  0  0  0  0  0  0  0
   35.8410   31.0490   41.1220 N   0  0  0  0  0  0  0  0  0  0  0  0
   39.1030   33.5840   39.6020 H   0  0  0  0  0  0  0  0  0  0  0  0
   36.2060   30.3970   41.8520 H   0  0  0  0  0  0  0  0  0  0  0  0
   34.8660   31.3420   41.2960 H   0  0  0  0  0  0  0  0  0  0  0  0
   41.1760   30.8350   37.6080 N   0  0  0  0  0  0  0  0  0  0  0  0
   40.9420   32.0700   37.2300 C   0  0  0  0  0  0  0  0  0  0  0  0
   39.5410   32.3880   37.1870 N   0  0  0  0  0  0  0  0  0  0  0  0
   41.8650   33.1160   36.8630 N   0  0  0  0  0  0  0  0  0  0  0  0
   42.5850   33.6920   37.3590 H   0  0  0  0  0  0  0  0  0  0  0  0
   42.1480   30.5160   37.6690 H   0  0  0  0  0  0  0  0  0  0  0  0
   39.1750   32.9180   36.3430 H   0  0  0  0  0  0  0  0  0  0  0  0
   41.6960   33.2640   35.8320 H   0  0  0  0  0  0  0  0  0  0  0  0
   37.8430   30.2270   36.7820 N   0  0  0  0  0  0  0  0  0  0  0  0
   38.7770   29.8890   36.4430 H   0  0  0  0  0  0  0  0  0  0  0  0
   36.9790   30.0330   36.2260 H   0  0  0  0  0  0  0  0  0  0  0  0
  1  8  1  0  0  0  0
  1  6  1  0  0  0  0
  2  1  2  0  0  0  0
  3  2  1  0  0  0  0
  3  4  2  0  0  0  0
  4  5  1  0  0  0  0
  5  6  2  0  0  0  0
  5  7  1  0  0  0  0
  7 10  1  0  0  0  0
  7  9  1  0  0  0  0
 11 16  1  0  0  0  0
 12 11  2  0  0  0  0
 13 12  1  0  0  0  0
 13  2  1  0  0  0  0
 14 12  1  0  0  0  0
 14 15  1  0  0  0  0
 17 13  1  0  0  0  0
 18 14  1  0  0  0  0
 19  3  1  0  0  0  0
 20 19  1  0  0  0  0
 21 19  1  0  0  0  0
M  END
>  <minimizedAffinity>
-4.64652538

$$$$

 OpenBabel03252500213D

 21 21  0  0  0  0  0  0  0  0999 V2000
   39.3300   30.7020   39.7830 C   0  0  0  0  0  0  0  0  0  0  0  0
   38.0580   30.1940   39.5950 C   0  0  0  0  0  0  0  0  0  0  0  0
   37.4430   30.4850   38.3620 C   0  0  0  0  0  0  0  0  0  0  0  0
   38.1060   31.2250   37.4460 N   0  0  0  0  0  0  0  0  0  0  0  0
   39.3410   31.6840   37.6990 C   0  0  0  0  0  0  0  0  0  0  0  0
   39.9540   31.4240   38.8640 N   0  0  0  0  0  0  0  0  0  0  0  0
   40.0540   32.4600   36.7600 N   0  0  0  0  0  0  0  0  0  0  0  0
   39.8620   30.5130   40.7030 H   0  0  0  0  0  0  0  0  0  0  0  0
   39.9220   33.4910   36.8640 H   0  0  0  0  0  0  0  0  0  0  0  0
   40.6890   32.2130   35.9830 H   0  0  0  0  0  0  0  0  0  0  0  0
   35.8320   30.9390   41.3090 N   0  0  0  0  0  0  0  0  0  0  0  0
   36.6110   29.9410   41.6590 C   0  0  0  0  0  0  0  0  0  0  0  0
   37.3690   29.4090   40.5600 N   0  0  0  0  0  0  0  0  0  0  0  0
   36.8040   29.3270   42.9500 N   0  0  0  0  0  0  0  0  0  0  0  0
   37.2190   29.6170   43.8660 H   0  0  0  0  0  0  0  0  0  0  0  0
   35.2520   31.3830   42.0270 H   0  0  0  0  0  0  0  0  0  0  0  0
   37.4250   28.3530   40.4570 H   0  0  0  0  0  0  0  0  0  0  0  0
   36.3990   28.3590   42.8420 H   0  0  0  0  0  0  0  0  0  0  0  0
   36.1270   29.9730   38.1400 N   0  0  0  0  0  0  0  0  0  0  0  0
   35.3710   30.1080   38.8560 H   0  0  0  0  0  0  0  0  0  0  0  0
   35.9260   29.4600   37.2510 H   0  0  0  0  0  0  0  0  0  0  0  0
  1  8  1  0  0  0  0
  2  1  1  0  0  0  0
  2 13  1  0  0  0  0
  3  2  2  0  0  0  0
  4  5  2  0  0  0  0
  4  3  1  0  0  0  0
  5  6  1  0  0  0  0
  6  1  2  0  0  0  0
  7  9  1  0  0  0  0
  7  5  1  0  0  0  0
 10  7  1  0  0  0  0
 11 12  2  0  0  0  0
 11 16  1  0  0  0  0
 12 14  1  0  0  0  0
 13 12  1  0  0  0  0
 14 15  1  0  0  0  0
 17 13  1  0  0  0  0
 18 14  1  0  0  0  0
 19  3  1  0  0  0  0
 19 20  1  0  0  0  0
 21 19  1  0  0  0  0
M  END
>  <minimizedAffinity>
-4.63292885

$$$$

 OpenBabel03252500213D

 21 21  0  0  0  0  0  0  0  0999 V2000
   38.3380   28.4370   40.2370 C   0  0  0  0  0  0  0  0  0  0  0  0
   37.9500   29.1340   41.3670 C   0  0  0  0  0  0  0  0  0  0  0  0
   37.6130   28.3610   42.4950 C   0  0  0  0  0  0  0  0  0  0  0  0
   37.6830   27.0130   42.4230 N   0  0  0  0  0  0  0  0  0  0  0  0
   38.0700   26.4060   41.2910 C   0  0  0  0  0  0  0  0  0  0  0  0
   38.3970   27.1140   40.2000 N   0  0  0  0  0  0  0  0  0  0  0  0
   38.1510   25.0010   41.1890 N   0  0  0  0  0  0  0  0  0  0  0  0
   38.6140   28.9670   39.3390 H   0  0  0  0  0  0  0  0  0  0  0  0
   37.2790   24.5430   40.8400 H   0  0  0  0  0  0  0  0  0  0  0  0
   38.9060   24.3250   41.3910 H   0  0  0  0  0  0  0  0  0  0  0  0
   35.6140   30.8640   41.3460 N   0  0  0  0  0  0  0  0  0  0  0  0
   36.7790   31.3470   40.9790 C   0  0  0  0  0  0  0  0  0  0  0  0
   37.8850   30.5530   41.4390 N   0  0  0  0  0  0  0  0  0  0  0  0
   37.0900   32.5230   40.2050 N   0  0  0  0  0  0  0  0  0  0  0  0
   36.9560   32.8290   39.2130 H   0  0  0  0  0  0  0  0  0  0  0  0
   34.7650   31.3630   41.0630 H   0  0  0  0  0  0  0  0  0  0  0  0
   38.7190   31.0570   41.8600 H   0  0  0  0  0  0  0  0  0  0  0  0
   37.5640   33.1700   40.8910 H   0  0  0  0  0  0  0  0  0  0  0  0
   37.2070   29.0550   43.6780 N   0  0  0  0  0  0  0  0  0  0  0  0
   36.4720   29.8030   43.6340 H   0  0  0  0  0  0  0  0  0  0  0  0
   37.6550   28.8060   44.5890 H   0  0  0  0  0  0  0  0  0  0  0  0
  1  2  1  0  0  0  0
  2 13  1  0  0  0  0
  2  3  2  0  0  0  0
  3 19  1  0  0  0  0
  4  3  1  0  0  0  0
  5  4  2  0  0  0  0
  6  1  2  0  0  0  0
  6  5  1  0  0  0  0
  7  5  1  0  0  0  0
  7 10  1  0  0  0  0
  8  1  1  0  0  0  0
  9  7  1  0  0  0  0
 12 11  2  0  0  0  0
 12 13  1  0  0  0  0
 13 17  1  0  0  0  0
 14 18  1  0  0  0  0
 14 12  1  0  0  0  0
 15 14  1  0  0  0  0
 16 11  1  0  0  0  0
 19 21  1  0  0  0  0
 20 19  1  0  0  0  0
M  END
>  <minimizedAffinity>
-4.60159063

$$$$

 OpenBabel03252500213D

 21 21  0  0  0  0  0  0  0  0999 V2000
   39.2380   30.7000   40.7010 C   0  0  0  0  0  0  0  0  0  0  0  0
   37.9640   30.2570   41.0090 C   0  0  0  0  0  0  0  0  0  0  0  0
   36.9220   31.1920   40.8550 C   0  0  0  0  0  0  0  0  0  0  0  0
   37.2070   32.4420   40.4270 N   0  0  0  0  0  0  0  0  0  0  0  0
   38.4690   32.8000   40.1470 C   0  0  0  0  0  0  0  0  0  0  0  0
   39.4840   31.9330   40.2830 N   0  0  0  0  0  0  0  0  0  0  0  0
   38.7940   34.0990   39.7000 N   0  0  0  0  0  0  0  0  0  0  0  0
   40.0820   30.0340   40.7920 H   0  0  0  0  0  0  0  0  0  0  0  0
   39.0390   34.7690   40.4630 H   0  0  0  0  0  0  0  0  0  0  0  0
   38.8400   34.5260   38.7600 H   0  0  0  0  0  0  0  0  0  0  0  0
   37.2890   29.3310   43.6800 N   0  0  0  0  0  0  0  0  0  0  0  0
   37.7910   28.4840   42.8100 C   0  0  0  0  0  0  0  0  0  0  0  0
   37.6700   28.9380   41.4510 N   0  0  0  0  0  0  0  0  0  0  0  0
   38.4240   27.2060   43.0220 N   0  0  0  0  0  0  0  0  0  0  0  0
   39.3160   26.8700   43.4540 H   0  0  0  0  0  0  0  0  0  0  0  0
   37.3300   29.0920   44.6750 H   0  0  0  0  0  0  0  0  0  0  0  0
   37.3410   28.2420   40.7200 H   0  0  0  0  0  0  0  0  0  0  0  0
   37.7490   26.5080   42.6080 H   0  0  0  0  0  0  0  0  0  0  0  0
   35.5940   30.7620   41.1660 N   0  0  0  0  0  0  0  0  0  0  0  0
   35.3870   30.2740   42.0720 H   0  0  0  0  0  0  0  0  0  0  0  0
   34.8300   30.9410   40.4760 H   0  0  0  0  0  0  0  0  0  0  0  0
  1  8  1  0  0  0  0
  1  2  1  0  0  0  0
  2 13  1  0  0  0  0
  3  2  2  0  0  0  0
  3 19  1  0  0  0  0
  4  3  1  0  0  0  0
  5  6  1  0  0  0  0
  5  4  2  0  0  0  0
  6  1  2  0  0  0  0
  7  5  1  0  0  0  0
  7  9  1  0  0  0  0
 10  7  1  0  0  0  0
 11 16  1  0  0  0  0
 12 14  1  0  0  0  0
 12 11  2  0  0  0  0
 13 12  1  0  0  0  0
 14 15  1  0  0  0  0
 17 13  1  0  0  0  0
 18 14  1  0  0  0  0
 19 20  1  0  0  0  0
 21 19  1  0  0  0  0
M  END
>  <minimizedAffinity>
-4.5760417

$$$$

 OpenBabel03252500213D

 21 21  0  0  0  0  0  0  0  0999 V2000
   37.7890   29.8600   42.0710 C   0  0  0  0  0  0  0  0  0  0  0  0
   36.6610   30.1500   41.3250 C   0  0  0  0  0  0  0  0  0  0  0  0
   35.8490   29.0560   40.9650 C   0  0  0  0  0  0  0  0  0  0  0  0
   36.2010   27.8110   41.3540 N   0  0  0  0  0  0  0  0  0  0  0  0
   37.3120   27.6060   42.0790 C   0  0  0  0  0  0  0  0  0  0  0  0
   38.1050   28.6270   42.4370 N   0  0  0  0  0  0  0  0  0  0  0  0
   37.7010   26.3160   42.4970 N   0  0  0  0  0  0  0  0  0  0  0  0
   38.4520   30.6510   42.3850 H   0  0  0  0  0  0  0  0  0  0  0  0
   38.3440   25.8240   41.8360 H   0  0  0  0  0  0  0  0  0  0  0  0
   37.4780   25.7520   43.3340 H   0  0  0  0  0  0  0  0  0  0  0  0
   36.9680   31.4270   38.7320 N   0  0  0  0  0  0  0  0  0  0  0  0
   36.8620   32.1710   39.8090 C   0  0  0  0  0  0  0  0  0  0  0  0
   36.2930   31.4640   40.9240 N   0  0  0  0  0  0  0  0  0  0  0  0
   37.2260   33.5500   40.0220 N   0  0  0  0  0  0  0  0  0  0  0  0
   38.1180   34.0950   40.0630 H   0  0  0  0  0  0  0  0  0  0  0  0
   37.3640   31.8460   37.8850 H   0  0  0  0  0  0  0  0  0  0  0  0
   35.5450   31.9540   41.4960 H   0  0  0  0  0  0  0  0  0  0  0  0
   36.3040   34.0450   40.1580 H   0  0  0  0  0  0  0  0  0  0  0  0
   34.6770   29.3260   40.1930 N   0  0  0  0  0  0  0  0  0  0  0  0
   34.7290   29.9190   39.3280 H   0  0  0  0  0  0  0  0  0  0  0  0
   33.7630   28.9240   40.5030 H   0  0  0  0  0  0  0  0  0  0  0  0
  1  8  1  0  0  0  0
  1  6  1  0  0  0  0
  2  1  2  0  0  0  0
  3  2  1  0  0  0  0
  3  4  2  0  0  0  0
  4  5  1  0  0  0  0
  5  6  2  0  0  0  0
  5  7  1  0  0  0  0
  7 10  1  0  0  0  0
  9  7  1  0  0  0  0
 11 12  2  0  0  0  0
 12 14  1  0  0  0  0
 12 13  1  0  0  0  0
 13  2  1  0  0  0  0
 13 17  1  0  0  0  0
 14 15  1  0  0  0  0
 14 18  1  0  0  0  0
 16 11  1  0  0  0  0
 19 21  1  0  0  0  0
 19  3  1  0  0  0  0
 20 19  1  0  0  0  0
M  END
>  <minimizedAffinity>
-4.56540823

$$$$

 OpenBabel03252500213D

 21 21  0  0  0  0  0  0  0  0999 V2000
   38.8200   29.8380   40.0890 C   0  0  0  0  0  0  0  0  0  0  0  0
   38.4370   31.1460   39.8590 C   0  0  0  0  0  0  0  0  0  0  0  0
   37.2550   31.5750   40.4950 C   0  0  0  0  0  0  0  0  0  0  0  0
   36.5710   30.7120   41.2790 N   0  0  0  0  0  0  0  0  0  0  0  0
   37.0050   29.4550   41.4560 C   0  0  0  0  0  0  0  0  0  0  0  0
   38.1260   29.0170   40.8640 N   0  0  0  0  0  0  0  0  0  0  0  0
   36.3090   28.5340   42.2680 N   0  0  0  0  0  0  0  0  0  0  0  0
   39.7170   29.4460   39.6370 H   0  0  0  0  0  0  0  0  0  0  0  0
   35.6080   27.9520   41.7560 H   0  0  0  0  0  0  0  0  0  0  0  0
   36.3530   28.3140   43.2770 H   0  0  0  0  0  0  0  0  0  0  0  0
   37.8240   32.0880   37.1780 N   0  0  0  0  0  0  0  0  0  0  0  0
   39.0650   32.1230   37.6070 C   0  0  0  0  0  0  0  0  0  0  0  0
   39.1650   32.0520   39.0390 N   0  0  0  0  0  0  0  0  0  0  0  0
   40.2980   32.2200   36.8660 N   0  0  0  0  0  0  0  0  0  0  0  0
   40.8300   31.6060   36.2060 H   0  0  0  0  0  0  0  0  0  0  0  0
   37.6530   32.1330   36.1690 H   0  0  0  0  0  0  0  0  0  0  0  0
   39.8320   32.7190   39.5260 H   0  0  0  0  0  0  0  0  0  0  0  0
   40.6790   33.1720   37.1150 H   0  0  0  0  0  0  0  0  0  0  0  0
   36.8350   32.9230   40.2750 N   0  0  0  0  0  0  0  0  0  0  0  0
   36.7730   33.3140   39.3030 H   0  0  0  0  0  0  0  0  0  0  0  0
   36.5880   33.5180   41.0990 H   0  0  0  0  0  0  0  0  0  0  0  0
  1  6  1  0  0  0  0
  2  1  2  0  0  0  0
  2  3  1  0  0  0  0
  3  4  2  0  0  0  0
  4  5  1  0  0  0  0
  5  7  1  0  0  0  0
  6  5  2  0  0  0  0
  7 10  1  0  0  0  0
  8  1  1  0  0  0  0
  9  7  1  0  0  0  0
 11 12  2  0  0  0  0
 12 13  1  0  0  0  0
 13 17  1  0  0  0  0
 13  2  1  0  0  0  0
 14 18  1  0  0  0  0
 14 12  1  0  0  0  0
 15 14  1  0  0  0  0
 16 11  1  0  0  0  0
 19  3  1  0  0  0  0
 19 21  1  0  0  0  0
 20 19  1  0  0  0  0
M  END
>  <minimizedAffinity>
-4.51101065

$$$$

 OpenBabel03252500213D

 21 21  0  0  0  0  0  0  0  0999 V2000
   39.3010   29.2530   42.6070 C   0  0  0  0  0  0  0  0  0  0  0  0
   37.9630   29.0090   42.8530 C   0  0  0  0  0  0  0  0  0  0  0  0
   37.6460   27.7560   43.4140 C   0  0  0  0  0  0  0  0  0  0  0  0
   38.6380   26.8760   43.6780 N   0  0  0  0  0  0  0  0  0  0  0  0
   39.9170   27.1840   43.4130 C   0  0  0  0  0  0  0  0  0  0  0  0
   40.2500   28.3690   42.8790 N   0  0  0  0  0  0  0  0  0  0  0  0
   40.9700   26.2830   43.6780 N   0  0  0  0  0  0  0  0  0  0  0  0
   39.6140   30.1940   42.1830 H   0  0  0  0  0  0  0  0  0  0  0  0
   41.2170   25.6590   42.8770 H   0  0  0  0  0  0  0  0  0  0  0  0
   41.5550   26.1130   44.5130 H   0  0  0  0  0  0  0  0  0  0  0  0
   35.9570   28.9520   40.7510 N   0  0  0  0  0  0  0  0  0  0  0  0
   36.2780   30.0980   41.3060 C   0  0  0  0  0  0  0  0  0  0  0  0
   36.9250   29.9420   42.5800 N   0  0  0  0  0  0  0  0  0  0  0  0
   36.0780   31.4450   40.8310 N   0  0  0  0  0  0  0  0  0  0  0  0
   36.4520   32.0300   40.0480 H   0  0  0  0  0  0  0  0  0  0  0  0
   35.4910   28.9630   39.8390 H   0  0  0  0  0  0  0  0  0  0  0  0
   36.6120   30.5680   43.3790 H   0  0  0  0  0  0  0  0  0  0  0  0
   35.3700   31.8550   41.4970 H   0  0  0  0  0  0  0  0  0  0  0  0
   36.2700   27.4760   43.6800 N   0  0  0  0  0  0  0  0  0  0  0  0
   35.5400   27.6330   42.9420 H   0  0  0  0  0  0  0  0  0  0  0  0
   35.9990   27.1120   44.6210 H   0  0  0  0  0  0  0  0  0  0  0  0
  1  2  2  0  0  0  0
  1  6  1  0  0  0  0
  2  3  1  0  0  0  0
  3  4  2  0  0  0  0
  3 19  1  0  0  0  0
  5  7  1  0  0  0  0
  5  4  1  0  0  0  0
  6  5  2  0  0  0  0
  7 10  1  0  0  0  0
  8  1  1  0  0  0  0
  9  7  1  0  0  0  0
 11 12  2  0  0  0  0
 12 13  1  0  0  0  0
 13  2  1  0  0  0  0
 13 17  1  0  0  0  0
 14 12  1  0  0  0  0
 14 18  1  0  0  0  0
 15 14  1  0  0  0  0
 16 11  1  0  0  0  0
 19 21  1  0  0  0  0
 20 19  1  0  0  0  0
M  END
>  <minimizedAffinity>
-4.48511028

$$$$

 OpenBabel03252500213D

 21 21  0  0  0  0  0  0  0  0999 V2000
   39.2560   30.8890   40.1210 C   0  0  0  0  0  0  0  0  0  0  0  0
   38.0760   31.5600   39.8570 C   0  0  0  0  0  0  0  0  0  0  0  0
   38.0900   32.9550   40.0520 C   0  0  0  0  0  0  0  0  0  0  0  0
   39.2250   33.5550   40.4760 N   0  0  0  0  0  0  0  0  0  0  0  0
   40.3340   32.8380   40.7110 C   0  0  0  0  0  0  0  0  0  0  0  0
   40.3520   31.5080   40.5340 N   0  0  0  0  0  0  0  0  0  0  0  0
   41.5310   33.4400   41.1550 N   0  0  0  0  0  0  0  0  0  0  0  0
   39.3160   29.8200   39.9870 H   0  0  0  0  0  0  0  0  0  0  0  0
   41.6370   33.4750   42.1940 H   0  0  0  0  0  0  0  0  0  0  0  0
   42.3340   33.8570   40.6560 H   0  0  0  0  0  0  0  0  0  0  0  0
   35.6580   30.9270   41.3420 N   0  0  0  0  0  0  0  0  0  0  0  0
   35.9450   30.2490   40.2540 C   0  0  0  0  0  0  0  0  0  0  0  0
   36.8880   30.9240   39.4040 N   0  0  0  0  0  0  0  0  0  0  0  0
   35.4610   28.9650   39.8100 N   0  0  0  0  0  0  0  0  0  0  0  0
   35.5580   27.9730   40.1280 H   0  0  0  0  0  0  0  0  0  0  0  0
   34.9940   30.5240   42.0090 H   0  0  0  0  0  0  0  0  0  0  0  0
   36.6900   30.9490   38.3620 H   0  0  0  0  0  0  0  0  0  0  0  0
   34.8800   29.1850   38.9560 H   0  0  0  0  0  0  0  0  0  0  0  0
   36.8840   33.6750   39.7880 N   0  0  0  0  0  0  0  0  0  0  0  0
   35.9700   33.3560   40.1930 H   0  0  0  0  0  0  0  0  0  0  0  0
   36.9250   34.5260   39.1830 H   0  0  0  0  0  0  0  0  0  0  0  0
  1  6  1  0  0  0  0
  2  3  1  0  0  0  0
  2  1  2  0  0  0  0
  3  4  2  0  0  0  0
  4  5  1  0  0  0  0
  5  7  1  0  0  0  0
  6  5  2  0  0  0  0
  7  9  1  0  0  0  0
  8  1  1  0  0  0  0
 10  7  1  0  0  0  0
 11 16  1  0  0  0  0
 12 11  2  0  0  0  0
 13  2  1  0  0  0  0
 13 12  1  0  0  0  0
 14 15  1  0  0  0  0
 14 12  1  0  0  0  0
 17 13  1  0  0  0  0
 18 14  1  0  0  0  0
 19  3  1  0  0  0  0
 19 20  1  0  0  0  0
 21 19  1  0  0  0  0
M  END
>  <minimizedAffinity>
-4.44279337

$$$$
