
 OpenBabel03242522393D

 39 40  0  0  0  0  0  0  0  0999 V2000
   46.3060   31.7010   45.4930 C   0  0  0  0  0  0  0  0  0  0  0  0
   46.2730   30.7650   44.8600 H   0  0  0  0  0  0  0  0  0  0  0  0
   45.2650   31.9450   45.6920 H   0  0  0  0  0  0  0  0  0  0  0  0
   47.3310   32.3400   47.6730 C   0  0  0  0  0  0  0  0  0  0  0  0
   47.1350   31.3700   46.6550 C   0  0  0  0  0  0  0  0  0  0  0  0
   47.7590   30.1420   46.8290 C   0  0  0  0  0  0  0  0  0  0  0  0
   48.5110   29.9360   47.9430 N   0  0  0  0  0  0  0  0  0  0  0  0
   48.6670   30.8750   48.8730 C   0  0  0  0  0  0  0  0  0  0  0  0
   48.0900   32.0650   48.7510 N   0  0  0  0  0  0  0  0  0  0  0  0
   46.8850   33.3260   47.6280 H   0  0  0  0  0  0  0  0  0  0  0  0
   47.6160   29.4110   46.0700 H   0  0  0  0  0  0  0  0  0  0  0  0
   49.5120   30.5600   50.0660 C   0  0  0  0  0  0  0  0  0  0  0  0
   49.3620   31.3910   50.7830 H   0  0  0  0  0  0  0  0  0  0  0  0
   49.2130   29.6080   50.5350 H   0  0  0  0  0  0  0  0  0  0  0  0
   51.0890   32.9370   50.1970 N   0  0  0  0  0  0  0  0  0  0  0  0
   51.4270   31.8240   49.6590 C   0  0  0  0  0  0  0  0  0  0  0  0
   50.8950   30.4960   49.5780 N   0  0  0  0  0  0  0  0  0  0  0  0
   52.6260   32.3720   49.1030 N   0  0  0  0  0  0  0  0  0  0  0  0
   52.6810   32.8080   48.1370 H   0  0  0  0  0  0  0  0  0  0  0  0
   50.2550   33.1350   50.7580 H   0  0  0  0  0  0  0  0  0  0  0  0
   51.5940   29.8410   49.2070 H   0  0  0  0  0  0  0  0  0  0  0  0
   53.5690   32.4160   49.5520 H   0  0  0  0  0  0  0  0  0  0  0  0
   47.0630   32.7150   44.6720 C   0  0  0  0  0  0  0  0  0  0  0  0
   47.9740   33.0980   45.2210 H   0  0  0  0  0  0  0  0  0  0  0  0
   47.5230   32.2600   43.7460 H   0  0  0  0  0  0  0  0  0  0  0  0
   46.5930   34.5590   43.1140 C   0  0  0  0  0  0  0  0  0  0  0  0
   46.2990   33.9060   44.3010 C   0  0  0  0  0  0  0  0  0  0  0  0
   45.3200   34.3220   45.1530 C   0  0  0  0  0  0  0  0  0  0  0  0
   44.5870   35.4400   44.8230 C   0  0  0  0  0  0  0  0  0  0  0  0
   44.8140   36.1420   43.6720 C   0  0  0  0  0  0  0  0  0  0  0  0
   45.8280   35.6620   42.8470 C   0  0  0  0  0  0  0  0  0  0  0  0
   45.0380   33.8720   46.0830 H   0  0  0  0  0  0  0  0  0  0  0  0
   43.7870   35.8300   45.4610 H   0  0  0  0  0  0  0  0  0  0  0  0
   44.2600   37.0300   43.3730 H   0  0  0  0  0  0  0  0  0  0  0  0
   46.0140   36.2090   41.9340 H   0  0  0  0  0  0  0  0  0  0  0  0
   47.8340   34.0600   42.0020 S   0  0  0  0  0  0  0  0  0  0  0  0
   49.2010   34.6310   42.3590 O   0  0  0  0  0  0  0  0  0  0  0  0
   47.5350   34.6570   40.6350 O   0  0  0  0  0  0  0  0  0  0  0  0
   47.8950   32.6980   41.8440 H   0  0  0  0  0  0  0  0  0  0  0  0
  1  3  1  0  0  0  0
  1  5  1  0  0  0  0
  2  1  1  0  0  0  0
  4  9  1  0  0  0  0
  5  6  1  0  0  0  0
  5  4  2  0  0  0  0
  6  7  2  0  0  0  0
  7  8  1  0  0  0  0
  8 12  1  0  0  0  0
  9  8  2  0  0  0  0
 10  4  1  0  0  0  0
 11  6  1  0  0  0  0
 12 14  1  0  0  0  0
 12 13  1  0  0  0  0
 15 20  1  0  0  0  0
 16 15  2  0  0  0  0
 17 16  1  0  0  0  0
 17 12  1  0  0  0  0
 18 22  1  0  0  0  0
 18 16  1  0  0  0  0
 19 18  1  0  0  0  0
 21 17  1  0  0  0  0
 23 24  1  0  0  0  0
 23  1  1  0  0  0  0
 25 23  1  0  0  0  0
 26 27  1  0  0  0  0
 27 23  1  0  0  0  0
 27 28  2  0  0  0  0
 28 32  1  0  0  0  0
 29 28  1  0  0  0  0
 29 33  1  0  0  0  0
 30 29  2  0  0  0  0
 31 26  2  0  0  0  0
 31 30  1  0  0  0  0
 34 30  1  0  0  0  0
 35 31  1  0  0  0  0
 36 37  2  0  0  0  0
 36 26  1  0  0  0  0
 38 36  2  0  0  0  0
 39 36  1  0  0  0  0
M  END
>  <minimizedAffinity>
-5.42997074

>  <minimizedRMSD>
0.490513504

$$$$
