
 OpenBabel03252500203D

 21 21  0  0  0  0  0  0  0  0999 V2000
   44.6340   34.7630   45.8870 C   0  0  0  0  0  0  0  0  0  0  0  0
   45.4610   34.3410   44.8630 C   0  0  0  0  0  0  0  0  0  0  0  0
   46.3580   33.2990   45.1720 C   0  0  0  0  0  0  0  0  0  0  0  0
   46.3670   32.7770   46.4190 N   0  0  0  0  0  0  0  0  0  0  0  0
   45.5330   33.2390   47.3620 C   0  0  0  0  0  0  0  0  0  0  0  0
   44.6670   34.2300   47.1000 N   0  0  0  0  0  0  0  0  0  0  0  0
   45.5230   32.7120   48.6720 N   0  0  0  0  0  0  0  0  0  0  0  0
   43.9190   35.5540   45.7180 H   0  0  0  0  0  0  0  0  0  0  0  0
   46.1530   33.2090   49.3410 H   0  0  0  0  0  0  0  0  0  0  0  0
   45.0130   31.9260   49.1080 H   0  0  0  0  0  0  0  0  0  0  0  0
   44.8890   37.0650   44.0260 N   0  0  0  0  0  0  0  0  0  0  0  0
   44.7310   36.0790   43.1730 C   0  0  0  0  0  0  0  0  0  0  0  0
   45.4420   34.8890   43.5520 N   0  0  0  0  0  0  0  0  0  0  0  0
   43.9700   36.0300   41.9480 N   0  0  0  0  0  0  0  0  0  0  0  0
   42.9560   36.0550   41.6920 H   0  0  0  0  0  0  0  0  0  0  0  0
   44.4200   37.9550   43.8400 H   0  0  0  0  0  0  0  0  0  0  0  0
   45.9900   34.3760   42.8010 H   0  0  0  0  0  0  0  0  0  0  0  0
   44.6990   35.9470   41.1890 H   0  0  0  0  0  0  0  0  0  0  0  0
   47.2260   32.8410   44.1330 N   0  0  0  0  0  0  0  0  0  0  0  0
   47.7890   33.5220   43.5660 H   0  0  0  0  0  0  0  0  0  0  0  0
   47.2930   31.8150   43.9440 H   0  0  0  0  0  0  0  0  0  0  0  0
  1  6  1  0  0  0  0
  2  3  1  0  0  0  0
  2  1  2  0  0  0  0
  3  4  2  0  0  0  0
  4  5  1  0  0  0  0
  5  7  1  0  0  0  0
  6  5  2  0  0  0  0
  7 10  1  0  0  0  0
  7  9  1  0  0  0  0
  8  1  1  0  0  0  0
 12 13  1  0  0  0  0
 12 11  2  0  0  0  0
 13  2  1  0  0  0  0
 14 12  1  0  0  0  0
 15 14  1  0  0  0  0
 16 11  1  0  0  0  0
 17 13  1  0  0  0  0
 18 14  1  0  0  0  0
 19  3  1  0  0  0  0
 20 19  1  0  0  0  0
 21 19  1  0  0  0  0
M  END
>  <minimizedAffinity>
-4.07179737

>  <minimizedRMSD>
2.01364851

$$$$
