
 OpenBabel03252507033D

 37 38  0  0  0  0  0  0  0  0999 V2000
   39.4200   28.9270   40.3110 C   0  0  0  0  0  0  0  0  0  0  0  0
   40.5050   28.7940   40.0470 H   0  0  0  0  0  0  0  0  0  0  0  0
   38.9560   27.9330   40.2230 H   0  0  0  0  0  0  0  0  0  0  0  0
   38.8300   29.9250   39.3830 C   0  0  0  0  0  0  0  0  0  0  0  0
   37.4630   30.0980   39.3130 C   0  0  0  0  0  0  0  0  0  0  0  0
   36.9720   31.0550   38.4020 C   0  0  0  0  0  0  0  0  0  0  0  0
   37.8770   31.7580   37.6410 N   0  0  0  0  0  0  0  0  0  0  0  0
   39.1980   31.5320   37.7670 C   0  0  0  0  0  0  0  0  0  0  0  0
   39.6450   30.6360   38.6210 N   0  0  0  0  0  0  0  0  0  0  0  0
   36.7900   29.5340   39.9200 H   0  0  0  0  0  0  0  0  0  0  0  0
   35.9210   31.2450   38.2920 H   0  0  0  0  0  0  0  0  0  0  0  0
   40.7720   33.6700   38.6960 N   0  0  0  0  0  0  0  0  0  0  0  0
   41.1200   33.1050   37.5690 C   0  0  0  0  0  0  0  0  0  0  0  0
   40.1160   32.2710   36.9680 N   0  0  0  0  0  0  0  0  0  0  0  0
   42.3850   33.2370   36.8870 N   0  0  0  0  0  0  0  0  0  0  0  0
   42.5190   33.7650   35.9980 H   0  0  0  0  0  0  0  0  0  0  0  0
   41.4960   34.2770   39.1380 H   0  0  0  0  0  0  0  0  0  0  0  0
   40.0640   32.2100   35.9080 H   0  0  0  0  0  0  0  0  0  0  0  0
   43.2380   32.7690   37.3130 H   0  0  0  0  0  0  0  0  0  0  0  0
   39.3890   29.5290   41.6830 C   0  0  0  0  0  0  0  0  0  0  0  0
   39.0250   30.5980   41.5360 H   0  0  0  0  0  0  0  0  0  0  0  0
   40.4550   29.7200   41.9860 H   0  0  0  0  0  0  0  0  0  0  0  0
   38.7830   28.7590   42.5820 N   0  0  0  0  0  0  0  0  0  0  0  0
   37.5160   28.9300   43.1940 C   0  0  0  0  0  0  0  0  0  0  0  0
   36.7180   27.8880   42.3690 C   0  0  0  0  0  0  0  0  0  0  0  0
   37.2300   26.5240   42.5240 C   0  0  0  0  0  0  0  0  0  0  0  0
   38.6210   26.3320   42.9360 C   0  0  0  0  0  0  0  0  0  0  0  0
   39.5060   27.5400   42.9580 C   0  0  0  0  0  0  0  0  0  0  0  0
   37.0950   29.9160   42.9060 H   0  0  0  0  0  0  0  0  0  0  0  0
   37.4070   28.8080   44.2560 H   0  0  0  0  0  0  0  0  0  0  0  0
   36.7290   28.2900   41.3260 H   0  0  0  0  0  0  0  0  0  0  0  0
   35.6550   27.9420   42.6820 H   0  0  0  0  0  0  0  0  0  0  0  0
   36.5960   25.9430   43.2510 H   0  0  0  0  0  0  0  0  0  0  0  0
   37.1080   25.9580   41.5560 H   0  0  0  0  0  0  0  0  0  0  0  0
   39.0890   25.4250   43.2040 H   0  0  0  0  0  0  0  0  0  0  0  0
   41.2250   27.4200   43.3560 S   0  0  0  0  0  0  0  0  0  0  0  0
   41.4970   27.8780   44.6750 H   0  0  0  0  0  0  0  0  0  0  0  0
  1 20  1  0  0  0  0
  2  1  1  0  0  0  0
  3  1  1  0  0  0  0
  4  1  1  0  0  0  0
  5  4  1  0  0  0  0
  5 10  1  0  0  0  0
  6  5  2  0  0  0  0
  7  8  2  0  0  0  0
  7  6  1  0  0  0  0
  8  9  1  0  0  0  0
  9  4  2  0  0  0  0
 11  6  1  0  0  0  0
 12 17  1  0  0  0  0
 13 12  2  0  0  0  0
 14 13  1  0  0  0  0
 14  8  1  0  0  0  0
 15 19  1  0  0  0  0
 15 13  1  0  0  0  0
 16 15  1  0  0  0  0
 18 14  1  0  0  0  0
 20 22  1  0  0  0  0
 20 23  1  0  0  0  0
 21 20  1  0  0  0  0
 23 28  1  0  0  0  0
 23 24  1  0  0  0  0
 24 30  1  0  0  0  0
 25 26  1  0  0  0  0
 25 32  1  0  0  0  0
 25 24  1  0  0  0  0
 26 27  1  0  0  0  0
 26 33  1  0  0  0  0
 27 28  2  0  0  0  0
 27 35  1  0  0  0  0
 28 36  1  0  0  0  0
 29 24  1  0  0  0  0
 31 25  1  0  0  0  0
 34 26  1  0  0  0  0
 36 37  1  0  0  0  0
M  END
>  <minimizedAffinity>
-5.53543615

$$$$

 OpenBabel03252507033D

 37 38  0  0  0  0  0  0  0  0999 V2000
   39.4030   28.2870   39.4280 C   0  0  0  0  0  0  0  0  0  0  0  0
   40.1470   28.5940   40.2120 H   0  0  0  0  0  0  0  0  0  0  0  0
   39.9610   27.7000   38.6840 H   0  0  0  0  0  0  0  0  0  0  0  0
   38.7890   29.5130   38.8550 C   0  0  0  0  0  0  0  0  0  0  0  0
   37.4380   29.7520   38.9920 C   0  0  0  0  0  0  0  0  0  0  0  0
   36.9220   30.9300   38.4140 C   0  0  0  0  0  0  0  0  0  0  0  0
   37.7900   31.7660   37.7510 N   0  0  0  0  0  0  0  0  0  0  0  0
   39.0980   31.4640   37.6600 C   0  0  0  0  0  0  0  0  0  0  0  0
   39.5680   30.3610   38.2050 N   0  0  0  0  0  0  0  0  0  0  0  0
   36.7940   29.0790   39.5130 H   0  0  0  0  0  0  0  0  0  0  0  0
   35.8810   31.1830   38.4790 H   0  0  0  0  0  0  0  0  0  0  0  0
   40.9030   33.2270   38.9030 N   0  0  0  0  0  0  0  0  0  0  0  0
   41.0920   32.9560   37.6370 C   0  0  0  0  0  0  0  0  0  0  0  0
   39.9770   32.3450   36.9690 N   0  0  0  0  0  0  0  0  0  0  0  0
   42.2860   33.2070   36.8660 N   0  0  0  0  0  0  0  0  0  0  0  0
   42.3640   33.9400   36.1270 H   0  0  0  0  0  0  0  0  0  0  0  0
   41.7080   33.6710   39.3940 H   0  0  0  0  0  0  0  0  0  0  0  0
   39.8110   32.5590   35.9410 H   0  0  0  0  0  0  0  0  0  0  0  0
   43.1440   32.6110   37.0580 H   0  0  0  0  0  0  0  0  0  0  0  0
   38.3160   27.5440   40.1440 C   0  0  0  0  0  0  0  0  0  0  0  0
   38.1590   26.5880   39.5470 H   0  0  0  0  0  0  0  0  0  0  0  0
   37.3500   28.0780   39.9270 H   0  0  0  0  0  0  0  0  0  0  0  0
   38.5120   27.4600   41.4570 N   0  0  0  0  0  0  0  0  0  0  0  0
   39.4530   28.1470   42.2650 C   0  0  0  0  0  0  0  0  0  0  0  0
   38.5000   29.1990   42.8880 C   0  0  0  0  0  0  0  0  0  0  0  0
   37.4240   28.5980   43.6790 C   0  0  0  0  0  0  0  0  0  0  0  0
   37.0290   27.2160   43.4030 C   0  0  0  0  0  0  0  0  0  0  0  0
   37.5950   26.5700   42.1760 C   0  0  0  0  0  0  0  0  0  0  0  0
   40.1460   28.7250   41.6170 H   0  0  0  0  0  0  0  0  0  0  0  0
   40.0330   27.6120   42.9940 H   0  0  0  0  0  0  0  0  0  0  0  0
   38.1690   29.8230   42.0220 H   0  0  0  0  0  0  0  0  0  0  0  0
   39.1070   29.8850   43.5140 H   0  0  0  0  0  0  0  0  0  0  0  0
   37.6640   28.6500   44.7780 H   0  0  0  0  0  0  0  0  0  0  0  0
   36.4870   29.2180   43.5830 H   0  0  0  0  0  0  0  0  0  0  0  0
   36.3650   26.6160   43.9620 H   0  0  0  0  0  0  0  0  0  0  0  0
   37.1250   24.9350   41.6910 S   0  0  0  0  0  0  0  0  0  0  0  0
   38.1380   23.9820   41.9890 H   0  0  0  0  0  0  0  0  0  0  0  0
  1 20  1  0  0  0  0
  1  2  1  0  0  0  0
  3  1  1  0  0  0  0
  4  5  1  0  0  0  0
  4  1  1  0  0  0  0
  5 10  1  0  0  0  0
  6 11  1  0  0  0  0
  6  5  2  0  0  0  0
  7  6  1  0  0  0  0
  8  7  2  0  0  0  0
  8  9  1  0  0  0  0
  9  4  2  0  0  0  0
 12 17  1  0  0  0  0
 13 12  2  0  0  0  0
 14 13  1  0  0  0  0
 14  8  1  0  0  0  0
 15 19  1  0  0  0  0
 15 13  1  0  0  0  0
 16 15  1  0  0  0  0
 18 14  1  0  0  0  0
 20 23  1  0  0  0  0
 21 20  1  0  0  0  0
 22 20  1  0  0  0  0
 23 28  1  0  0  0  0
 23 24  1  0  0  0  0
 24 25  1  0  0  0  0
 24 30  1  0  0  0  0
 25 32  1  0  0  0  0
 25 26  1  0  0  0  0
 26 33  1  0  0  0  0
 27 26  1  0  0  0  0
 27 35  1  0  0  0  0
 28 27  2  0  0  0  0
 29 24  1  0  0  0  0
 31 25  1  0  0  0  0
 34 26  1  0  0  0  0
 36 37  1  0  0  0  0
 36 28  1  0  0  0  0
M  END
>  <minimizedAffinity>
-5.52473211

$$$$

 OpenBabel03252507033D

 37 38  0  0  0  0  0  0  0  0999 V2000
   36.8110   28.1570   39.7790 C   0  0  0  0  0  0  0  0  0  0  0  0
   36.1780   27.4180   39.2160 H   0  0  0  0  0  0  0  0  0  0  0  0
   36.2090   28.4870   40.6390 H   0  0  0  0  0  0  0  0  0  0  0  0
   37.1670   29.2690   38.8610 C   0  0  0  0  0  0  0  0  0  0  0  0
   36.8640   29.1950   37.5170 C   0  0  0  0  0  0  0  0  0  0  0  0
   37.2410   30.2820   36.7030 C   0  0  0  0  0  0  0  0  0  0  0  0
   37.8850   31.3470   37.2910 N   0  0  0  0  0  0  0  0  0  0  0  0
   38.1450   31.3450   38.6110 C   0  0  0  0  0  0  0  0  0  0  0  0
   37.7880   30.3240   39.3620 N   0  0  0  0  0  0  0  0  0  0  0  0
   36.3630   28.3520   37.0950 H   0  0  0  0  0  0  0  0  0  0  0  0
   37.0390   30.2960   35.6490 H   0  0  0  0  0  0  0  0  0  0  0  0
   36.8930   33.3310   40.1590 N   0  0  0  0  0  0  0  0  0  0  0  0
   38.1950   33.2290   40.2390 C   0  0  0  0  0  0  0  0  0  0  0  0
   38.8120   32.4570   39.1970 N   0  0  0  0  0  0  0  0  0  0  0  0
   39.0490   33.8050   41.2500 N   0  0  0  0  0  0  0  0  0  0  0  0
   39.6990   34.6050   41.0820 H   0  0  0  0  0  0  0  0  0  0  0  0
   36.4380   33.8910   40.9120 H   0  0  0  0  0  0  0  0  0  0  0  0
   39.7850   32.7270   38.8630 H   0  0  0  0  0  0  0  0  0  0  0  0
   39.0190   33.3950   42.2290 H   0  0  0  0  0  0  0  0  0  0  0  0
   38.0840   27.4460   40.1250 C   0  0  0  0  0  0  0  0  0  0  0  0
   38.8800   27.9090   39.4550 H   0  0  0  0  0  0  0  0  0  0  0  0
   38.0210   26.4160   39.6790 H   0  0  0  0  0  0  0  0  0  0  0  0
   38.3070   27.3710   41.4340 N   0  0  0  0  0  0  0  0  0  0  0  0
   39.2440   28.0850   42.2220 C   0  0  0  0  0  0  0  0  0  0  0  0
   38.2750   29.1110   42.8610 C   0  0  0  0  0  0  0  0  0  0  0  0
   37.2310   28.4820   43.6750 C   0  0  0  0  0  0  0  0  0  0  0  0
   36.8700   27.0890   43.4080 C   0  0  0  0  0  0  0  0  0  0  0  0
   37.4310   26.4560   42.1710 C   0  0  0  0  0  0  0  0  0  0  0  0
   39.9080   28.6810   41.5600 H   0  0  0  0  0  0  0  0  0  0  0  0
   39.8530   27.5680   42.9400 H   0  0  0  0  0  0  0  0  0  0  0  0
   37.9090   29.7240   42.0010 H   0  0  0  0  0  0  0  0  0  0  0  0
   38.8740   29.8150   43.4750 H   0  0  0  0  0  0  0  0  0  0  0  0
   37.4910   28.5430   44.7690 H   0  0  0  0  0  0  0  0  0  0  0  0
   36.2750   29.0750   43.5950 H   0  0  0  0  0  0  0  0  0  0  0  0
   36.2340   26.4720   43.9810 H   0  0  0  0  0  0  0  0  0  0  0  0
   36.9970   24.8080   41.6980 S   0  0  0  0  0  0  0  0  0  0  0  0
   38.0430   23.8850   41.9790 H   0  0  0  0  0  0  0  0  0  0  0  0
  1 20  1  0  0  0  0
  1  3  1  0  0  0  0
  2  1  1  0  0  0  0
  4  9  1  0  0  0  0
  4  1  1  0  0  0  0
  5  4  2  0  0  0  0
  6  7  2  0  0  0  0
  6  5  1  0  0  0  0
  7  8  1  0  0  0  0
  8 14  1  0  0  0  0
  8  9  2  0  0  0  0
 10  5  1  0  0  0  0
 11  6  1  0  0  0  0
 12 13  2  0  0  0  0
 12 17  1  0  0  0  0
 13 15  1  0  0  0  0
 14 13  1  0  0  0  0
 15 19  1  0  0  0  0
 16 15  1  0  0  0  0
 18 14  1  0  0  0  0
 20 23  1  0  0  0  0
 21 20  1  0  0  0  0
 22 20  1  0  0  0  0
 23 28  1  0  0  0  0
 23 24  1  0  0  0  0
 24 25  1  0  0  0  0
 24 30  1  0  0  0  0
 25 32  1  0  0  0  0
 25 26  1  0  0  0  0
 26 33  1  0  0  0  0
 27 26  1  0  0  0  0
 27 35  1  0  0  0  0
 28 27  2  0  0  0  0
 29 24  1  0  0  0  0
 31 25  1  0  0  0  0
 34 26  1  0  0  0  0
 36 37  1  0  0  0  0
 36 28  1  0  0  0  0
M  END
>  <minimizedAffinity>
-5.51891279

$$$$

 OpenBabel03252507033D

 37 38  0  0  0  0  0  0  0  0999 V2000
   37.0430   28.4100   39.8810 C   0  0  0  0  0  0  0  0  0  0  0  0
   38.0120   27.8710   40.0650 H   0  0  0  0  0  0  0  0  0  0  0  0
   36.3310   27.6520   39.5200 H   0  0  0  0  0  0  0  0  0  0  0  0
   37.2860   29.4910   38.8920 C   0  0  0  0  0  0  0  0  0  0  0  0
   36.8530   29.3620   37.5890 C   0  0  0  0  0  0  0  0  0  0  0  0
   37.1270   30.4230   36.7020 C   0  0  0  0  0  0  0  0  0  0  0  0
   37.8060   31.5180   37.1840 N   0  0  0  0  0  0  0  0  0  0  0  0
   38.1960   31.5700   38.4710 C   0  0  0  0  0  0  0  0  0  0  0  0
   37.9340   30.5740   39.2890 N   0  0  0  0  0  0  0  0  0  0  0  0
   36.3280   28.4960   37.2500 H   0  0  0  0  0  0  0  0  0  0  0  0
   36.8210   30.3940   35.6740 H   0  0  0  0  0  0  0  0  0  0  0  0
   37.0670   33.5950   40.0630 N   0  0  0  0  0  0  0  0  0  0  0  0
   38.3720   33.5160   40.0160 C   0  0  0  0  0  0  0  0  0  0  0  0
   38.8980   32.7140   38.9460 N   0  0  0  0  0  0  0  0  0  0  0  0
   39.3120   34.1420   40.9140 N   0  0  0  0  0  0  0  0  0  0  0  0
   39.9270   34.9440   40.6540 H   0  0  0  0  0  0  0  0  0  0  0  0
   36.6790   34.1770   40.8370 H   0  0  0  0  0  0  0  0  0  0  0  0
   39.8270   32.9850   38.5070 H   0  0  0  0  0  0  0  0  0  0  0  0
   39.3870   33.7690   41.9060 H   0  0  0  0  0  0  0  0  0  0  0  0
   36.6740   29.0710   41.1740 C   0  0  0  0  0  0  0  0  0  0  0  0
   35.5520   29.2570   41.1090 H   0  0  0  0  0  0  0  0  0  0  0  0
   37.0560   30.1270   41.1280 H   0  0  0  0  0  0  0  0  0  0  0  0
   37.1630   28.4490   42.2430 N   0  0  0  0  0  0  0  0  0  0  0  0
   36.5240   27.5250   43.1080 C   0  0  0  0  0  0  0  0  0  0  0  0
   37.1610   26.2210   42.5660 C   0  0  0  0  0  0  0  0  0  0  0  0
   38.6190   26.1950   42.7050 C   0  0  0  0  0  0  0  0  0  0  0  0
   39.3430   27.4620   42.8080 C   0  0  0  0  0  0  0  0  0  0  0  0
   38.5730   28.7190   42.5390 C   0  0  0  0  0  0  0  0  0  0  0  0
   35.4470   27.4570   42.8480 H   0  0  0  0  0  0  0  0  0  0  0  0
   36.6120   27.6320   44.1740 H   0  0  0  0  0  0  0  0  0  0  0  0
   36.7770   26.1370   41.5190 H   0  0  0  0  0  0  0  0  0  0  0  0
   36.7040   25.3650   43.1040 H   0  0  0  0  0  0  0  0  0  0  0  0
   38.9210   25.5790   43.5990 H   0  0  0  0  0  0  0  0  0  0  0  0
   39.0760   25.6420   41.8350 H   0  0  0  0  0  0  0  0  0  0  0  0
   40.3650   27.5990   43.0330 H   0  0  0  0  0  0  0  0  0  0  0  0
   39.3580   30.3040   42.5490 S   0  0  0  0  0  0  0  0  0  0  0  0
   39.0640   31.0330   43.7350 H   0  0  0  0  0  0  0  0  0  0  0  0
  1  2  1  0  0  0  0
  1 20  1  0  0  0  0
  3  1  1  0  0  0  0
  4  9  1  0  0  0  0
  4  1  1  0  0  0  0
  5  4  2  0  0  0  0
  6  7  2  0  0  0  0
  6  5  1  0  0  0  0
  7  8  1  0  0  0  0
  8 14  1  0  0  0  0
  8  9  2  0  0  0  0
 10  5  1  0  0  0  0
 11  6  1  0  0  0  0
 12 17  1  0  0  0  0
 13 12  2  0  0  0  0
 13 15  1  0  0  0  0
 14 13  1  0  0  0  0
 15 19  1  0  0  0  0
 16 15  1  0  0  0  0
 18 14  1  0  0  0  0
 20 23  1  0  0  0  0
 21 20  1  0  0  0  0
 22 20  1  0  0  0  0
 23 28  1  0  0  0  0
 23 24  1  0  0  0  0
 24 30  1  0  0  0  0
 25 26  1  0  0  0  0
 25 32  1  0  0  0  0
 25 24  1  0  0  0  0
 26 27  1  0  0  0  0
 26 33  1  0  0  0  0
 27 35  1  0  0  0  0
 28 36  1  0  0  0  0
 28 27  2  0  0  0  0
 29 24  1  0  0  0  0
 31 25  1  0  0  0  0
 34 26  1  0  0  0  0
 36 37  1  0  0  0  0
M  END
>  <minimizedAffinity>
-5.51402617

$$$$

 OpenBabel03252507033D

 37 38  0  0  0  0  0  0  0  0999 V2000
   37.6260   29.0700   41.9870 C   0  0  0  0  0  0  0  0  0  0  0  0
   36.9090   28.7420   42.7880 H   0  0  0  0  0  0  0  0  0  0  0  0
   38.0880   30.0010   42.3470 H   0  0  0  0  0  0  0  0  0  0  0  0
   36.8670   29.2520   40.7230 C   0  0  0  0  0  0  0  0  0  0  0  0
   35.5520   28.8490   40.6280 C   0  0  0  0  0  0  0  0  0  0  0  0
   34.8970   29.0430   39.3940 C   0  0  0  0  0  0  0  0  0  0  0  0
   35.6030   29.6190   38.3640 N   0  0  0  0  0  0  0  0  0  0  0  0
   36.8860   29.9870   38.5340 C   0  0  0  0  0  0  0  0  0  0  0  0
   37.4870   29.8010   39.6910 N   0  0  0  0  0  0  0  0  0  0  0  0
   35.0350   28.4050   41.4500 H   0  0  0  0  0  0  0  0  0  0  0  0
   33.8740   28.7550   39.2460 H   0  0  0  0  0  0  0  0  0  0  0  0
   37.4650   32.7300   38.3120 N   0  0  0  0  0  0  0  0  0  0  0  0
   38.1490   31.9020   37.5640 C   0  0  0  0  0  0  0  0  0  0  0  0
   37.5970   30.5810   37.4530 N   0  0  0  0  0  0  0  0  0  0  0  0
   39.3740   32.1840   36.8560 N   0  0  0  0  0  0  0  0  0  0  0  0
   39.4450   32.2720   35.8190 H   0  0  0  0  0  0  0  0  0  0  0  0
   37.8610   33.6920   38.3970 H   0  0  0  0  0  0  0  0  0  0  0  0
   37.7250   30.0440   36.5450 H   0  0  0  0  0  0  0  0  0  0  0  0
   40.2650   32.3100   37.4200 H   0  0  0  0  0  0  0  0  0  0  0  0
   38.5710   27.9270   41.7720 C   0  0  0  0  0  0  0  0  0  0  0  0
   39.6130   28.3860   41.8090 H   0  0  0  0  0  0  0  0  0  0  0  0
   38.5140   27.6490   40.6840 H   0  0  0  0  0  0  0  0  0  0  0  0
   38.3040   26.8710   42.5340 N   0  0  0  0  0  0  0  0  0  0  0  0
   37.0450   26.3470   42.9230 C   0  0  0  0  0  0  0  0  0  0  0  0
   36.9810   25.1460   41.9470 C   0  0  0  0  0  0  0  0  0  0  0  0
   38.0680   24.1850   42.1500 C   0  0  0  0  0  0  0  0  0  0  0  0
   39.3040   24.6390   42.7890 C   0  0  0  0  0  0  0  0  0  0  0  0
   39.4710   26.1140   42.9950 C   0  0  0  0  0  0  0  0  0  0  0  0
   36.2390   27.0370   42.5940 H   0  0  0  0  0  0  0  0  0  0  0  0
   36.8660   26.0760   43.9470 H   0  0  0  0  0  0  0  0  0  0  0  0
   36.9360   25.6130   40.9320 H   0  0  0  0  0  0  0  0  0  0  0  0
   35.9960   24.6510   42.0740 H   0  0  0  0  0  0  0  0  0  0  0  0
   37.7080   23.2980   42.7420 H   0  0  0  0  0  0  0  0  0  0  0  0
   38.3730   23.7380   41.1610 H   0  0  0  0  0  0  0  0  0  0  0  0
   40.1150   24.0450   43.1090 H   0  0  0  0  0  0  0  0  0  0  0  0
   40.9570   26.7900   43.6780 S   0  0  0  0  0  0  0  0  0  0  0  0
   40.7860   27.1770   45.0360 H   0  0  0  0  0  0  0  0  0  0  0  0
  1  3  1  0  0  0  0
  1  2  1  0  0  0  0
  4  1  1  0  0  0  0
  5  4  1  0  0  0  0
  5 10  1  0  0  0  0
  6  5  2  0  0  0  0
  7  8  2  0  0  0  0
  7  6  1  0  0  0  0
  8  9  1  0  0  0  0
  9  4  2  0  0  0  0
 11  6  1  0  0  0  0
 12 17  1  0  0  0  0
 13 12  2  0  0  0  0
 14 13  1  0  0  0  0
 14  8  1  0  0  0  0
 15 19  1  0  0  0  0
 15 13  1  0  0  0  0
 16 15  1  0  0  0  0
 18 14  1  0  0  0  0
 20 21  1  0  0  0  0
 20  1  1  0  0  0  0
 20 23  1  0  0  0  0
 22 20  1  0  0  0  0
 23 24  1  0  0  0  0
 23 28  1  0  0  0  0
 24 30  1  0  0  0  0
 25 32  1  0  0  0  0
 25 26  1  0  0  0  0
 25 24  1  0  0  0  0
 26 33  1  0  0  0  0
 26 27  1  0  0  0  0
 27 28  2  0  0  0  0
 27 35  1  0  0  0  0
 28 36  1  0  0  0  0
 29 24  1  0  0  0  0
 31 25  1  0  0  0  0
 34 26  1  0  0  0  0
 36 37  1  0  0  0  0
M  END
>  <minimizedAffinity>
-5.44516659

$$$$

 OpenBabel03252507033D

 37 38  0  0  0  0  0  0  0  0999 V2000
   37.1660   26.3500   39.6040 C   0  0  0  0  0  0  0  0  0  0  0  0
   37.7030   25.7720   38.8040 H   0  0  0  0  0  0  0  0  0  0  0  0
   36.4770   25.6400   40.0880 H   0  0  0  0  0  0  0  0  0  0  0  0
   36.4640   27.4940   38.9690 C   0  0  0  0  0  0  0  0  0  0  0  0
   35.4320   27.2800   38.0790 C   0  0  0  0  0  0  0  0  0  0  0  0
   34.8190   28.4130   37.5060 C   0  0  0  0  0  0  0  0  0  0  0  0
   35.2810   29.6570   37.8650 N   0  0  0  0  0  0  0  0  0  0  0  0
   36.2940   29.7850   38.7410 C   0  0  0  0  0  0  0  0  0  0  0  0
   36.8580   28.7210   39.2700 N   0  0  0  0  0  0  0  0  0  0  0  0
   35.1000   26.2980   37.8230 H   0  0  0  0  0  0  0  0  0  0  0  0
   34.0100   28.3240   36.8060 H   0  0  0  0  0  0  0  0  0  0  0  0
   35.7190   31.0800   41.1710 N   0  0  0  0  0  0  0  0  0  0  0  0
   36.7170   31.5380   40.4600 C   0  0  0  0  0  0  0  0  0  0  0  0
   36.7550   31.0840   39.0970 N   0  0  0  0  0  0  0  0  0  0  0  0
   37.7570   32.4360   40.9010 N   0  0  0  0  0  0  0  0  0  0  0  0
   37.8380   33.4320   40.6010 H   0  0  0  0  0  0  0  0  0  0  0  0
   35.6850   31.4070   42.1610 H   0  0  0  0  0  0  0  0  0  0  0  0
   37.1370   31.7340   38.3480 H   0  0  0  0  0  0  0  0  0  0  0  0
   38.4890   32.0660   41.5750 H   0  0  0  0  0  0  0  0  0  0  0  0
   38.2250   26.9230   40.4960 C   0  0  0  0  0  0  0  0  0  0  0  0
   38.1640   28.0500   40.3510 H   0  0  0  0  0  0  0  0  0  0  0  0
   39.2170   26.7120   40.0110 H   0  0  0  0  0  0  0  0  0  0  0  0
   38.2000   26.4280   41.7300 N   0  0  0  0  0  0  0  0  0  0  0  0
   37.7740   25.1490   42.1700 C   0  0  0  0  0  0  0  0  0  0  0  0
   39.1660   24.5010   42.3790 C   0  0  0  0  0  0  0  0  0  0  0  0
   39.9750   25.1940   43.3850 C   0  0  0  0  0  0  0  0  0  0  0  0
   39.6880   26.5980   43.6800 C   0  0  0  0  0  0  0  0  0  0  0  0
   38.7300   27.3100   42.7740 C   0  0  0  0  0  0  0  0  0  0  0  0
   37.3170   24.5980   41.3220 H   0  0  0  0  0  0  0  0  0  0  0  0
   37.1280   25.0590   43.0240 H   0  0  0  0  0  0  0  0  0  0  0  0
   39.6100   24.4570   41.3540 H   0  0  0  0  0  0  0  0  0  0  0  0
   39.0130   23.4410   42.6660 H   0  0  0  0  0  0  0  0  0  0  0  0
   39.9390   24.6450   44.3680 H   0  0  0  0  0  0  0  0  0  0  0  0
   41.0640   25.1500   43.0960 H   0  0  0  0  0  0  0  0  0  0  0  0
   40.0970   27.1860   44.4540 H   0  0  0  0  0  0  0  0  0  0  0  0
   38.3700   29.0300   42.9770 S   0  0  0  0  0  0  0  0  0  0  0  0
   37.0980   29.2380   43.5770 H   0  0  0  0  0  0  0  0  0  0  0  0
  1  3  1  0  0  0  0
  1 20  1  0  0  0  0
  2  1  1  0  0  0  0
  4  9  1  0  0  0  0
  4  1  1  0  0  0  0
  5  4  2  0  0  0  0
  6  7  2  0  0  0  0
  6  5  1  0  0  0  0
  7  8  1  0  0  0  0
  8 14  1  0  0  0  0
  8  9  2  0  0  0  0
 10  5  1  0  0  0  0
 11  6  1  0  0  0  0
 12 17  1  0  0  0  0
 13 15  1  0  0  0  0
 13 12  2  0  0  0  0
 14 13  1  0  0  0  0
 15 19  1  0  0  0  0
 16 15  1  0  0  0  0
 18 14  1  0  0  0  0
 20 23  1  0  0  0  0
 21 20  1  0  0  0  0
 22 20  1  0  0  0  0
 23 24  1  0  0  0  0
 23 28  1  0  0  0  0
 24 25  1  0  0  0  0
 24 30  1  0  0  0  0
 25 32  1  0  0  0  0
 25 26  1  0  0  0  0
 26 27  1  0  0  0  0
 26 33  1  0  0  0  0
 27 35  1  0  0  0  0
 28 36  1  0  0  0  0
 28 27  2  0  0  0  0
 29 24  1  0  0  0  0
 31 25  1  0  0  0  0
 34 26  1  0  0  0  0
 36 37  1  0  0  0  0
M  END
>  <minimizedAffinity>
-5.28831863

$$$$

 OpenBabel03252507033D

 37 38  0  0  0  0  0  0  0  0999 V2000
   40.2130   29.8300   40.3130 C   0  0  0  0  0  0  0  0  0  0  0  0
   40.7790   29.6310   41.2630 H   0  0  0  0  0  0  0  0  0  0  0  0
   40.8540   29.4770   39.4910 H   0  0  0  0  0  0  0  0  0  0  0  0
   39.9220   31.2850   40.2340 C   0  0  0  0  0  0  0  0  0  0  0  0
   39.0210   31.8690   41.0990 C   0  0  0  0  0  0  0  0  0  0  0  0
   38.7860   33.2520   40.9600 C   0  0  0  0  0  0  0  0  0  0  0  0
   39.4640   33.9350   39.9760 N   0  0  0  0  0  0  0  0  0  0  0  0
   40.3300   33.2930   39.1700 C   0  0  0  0  0  0  0  0  0  0  0  0
   40.5420   32.0010   39.3100 N   0  0  0  0  0  0  0  0  0  0  0  0
   38.5120   31.3080   41.8510 H   0  0  0  0  0  0  0  0  0  0  0  0
   38.0990   33.7760   41.5960 H   0  0  0  0  0  0  0  0  0  0  0  0
   43.0270   34.0750   39.3170 N   0  0  0  0  0  0  0  0  0  0  0  0
   42.4550   34.0870   38.1410 C   0  0  0  0  0  0  0  0  0  0  0  0
   41.0200   34.0200   38.1590 N   0  0  0  0  0  0  0  0  0  0  0  0
   43.1110   34.1600   36.8580 N   0  0  0  0  0  0  0  0  0  0  0  0
   43.0930   34.9990   36.2370 H   0  0  0  0  0  0  0  0  0  0  0  0
   44.0690   34.1240   39.3120 H   0  0  0  0  0  0  0  0  0  0  0  0
   40.4710   34.5240   37.4020 H   0  0  0  0  0  0  0  0  0  0  0  0
   43.6490   33.3100   36.5180 H   0  0  0  0  0  0  0  0  0  0  0  0
   38.8980   29.1250   40.4480 C   0  0  0  0  0  0  0  0  0  0  0  0
   38.6790   28.6940   39.4170 H   0  0  0  0  0  0  0  0  0  0  0  0
   38.1010   29.9170   40.5080 H   0  0  0  0  0  0  0  0  0  0  0  0
   38.8350   28.3250   41.5090 N   0  0  0  0  0  0  0  0  0  0  0  0
   39.2320   28.5830   42.8450 C   0  0  0  0  0  0  0  0  0  0  0  0
   37.8300   28.8300   43.4600 C   0  0  0  0  0  0  0  0  0  0  0  0
   36.9480   27.6650   43.3580 C   0  0  0  0  0  0  0  0  0  0  0  0
   37.2070   26.6690   42.3170 C   0  0  0  0  0  0  0  0  0  0  0  0
   38.2260   27.0130   41.2730 C   0  0  0  0  0  0  0  0  0  0  0  0
   39.7510   29.5630   42.8960 H   0  0  0  0  0  0  0  0  0  0  0  0
   39.8130   27.8590   43.3850 H   0  0  0  0  0  0  0  0  0  0  0  0
   37.4630   29.7560   42.9540 H   0  0  0  0  0  0  0  0  0  0  0  0
   37.9670   29.1220   44.5210 H   0  0  0  0  0  0  0  0  0  0  0  0
   36.9130   27.1070   44.3350 H   0  0  0  0  0  0  0  0  0  0  0  0
   35.8830   28.0050   43.2090 H   0  0  0  0  0  0  0  0  0  0  0  0
   36.7400   25.7310   42.1990 H   0  0  0  0  0  0  0  0  0  0  0  0
   38.5630   25.9270   39.9180 S   0  0  0  0  0  0  0  0  0  0  0  0
   39.7880   25.2260   40.0940 H   0  0  0  0  0  0  0  0  0  0  0  0
  1 20  1  0  0  0  0
  1  2  1  0  0  0  0
  3  1  1  0  0  0  0
  4  1  1  0  0  0  0
  4  5  1  0  0  0  0
  5 10  1  0  0  0  0
  6  5  2  0  0  0  0
  6 11  1  0  0  0  0
  7  6  1  0  0  0  0
  8  9  1  0  0  0  0
  8  7  2  0  0  0  0
  9  4  2  0  0  0  0
 13 14  1  0  0  0  0
 13 12  2  0  0  0  0
 14  8  1  0  0  0  0
 15 13  1  0  0  0  0
 16 15  1  0  0  0  0
 17 12  1  0  0  0  0
 18 14  1  0  0  0  0
 19 15  1  0  0  0  0
 20 22  1  0  0  0  0
 20 23  1  0  0  0  0
 21 20  1  0  0  0  0
 23 24  1  0  0  0  0
 24 29  1  0  0  0  0
 24 30  1  0  0  0  0
 24 25  1  0  0  0  0
 25 32  1  0  0  0  0
 26 25  1  0  0  0  0
 26 33  1  0  0  0  0
 27 26  1  0  0  0  0
 28 23  1  0  0  0  0
 28 27  2  0  0  0  0
 31 25  1  0  0  0  0
 34 26  1  0  0  0  0
 35 27  1  0  0  0  0
 36 37  1  0  0  0  0
 36 28  1  0  0  0  0
M  END
>  <minimizedAffinity>
-5.25500584

$$$$

 OpenBabel03252507033D

 37 38  0  0  0  0  0  0  0  0999 V2000
   37.4620   27.5100   40.1310 C   0  0  0  0  0  0  0  0  0  0  0  0
   38.4380   28.0200   40.3560 H   0  0  0  0  0  0  0  0  0  0  0  0
   37.7030   26.4550   39.9340 H   0  0  0  0  0  0  0  0  0  0  0  0
   36.8350   28.1870   38.9660 C   0  0  0  0  0  0  0  0  0  0  0  0
   35.5350   27.9040   38.6050 C   0  0  0  0  0  0  0  0  0  0  0  0
   35.0080   28.5750   37.4840 C   0  0  0  0  0  0  0  0  0  0  0  0
   35.8160   29.4680   36.8180 N   0  0  0  0  0  0  0  0  0  0  0  0
   37.0770   29.6910   37.2320 C   0  0  0  0  0  0  0  0  0  0  0  0
   37.5570   29.0590   38.2810 N   0  0  0  0  0  0  0  0  0  0  0  0
   34.9370   27.2040   39.1460 H   0  0  0  0  0  0  0  0  0  0  0  0
   34.0040   28.4070   37.1440 H   0  0  0  0  0  0  0  0  0  0  0  0
   37.6840   32.2890   38.1210 N   0  0  0  0  0  0  0  0  0  0  0  0
   38.4360   31.7780   37.1810 C   0  0  0  0  0  0  0  0  0  0  0  0
   37.8940   30.6190   36.5270 N   0  0  0  0  0  0  0  0  0  0  0  0
   39.7270   32.2550   36.7480 N   0  0  0  0  0  0  0  0  0  0  0  0
   39.9020   32.7250   35.8330 H   0  0  0  0  0  0  0  0  0  0  0  0
   38.0720   33.1310   38.6000 H   0  0  0  0  0  0  0  0  0  0  0  0
   38.1100   30.4590   35.4990 H   0  0  0  0  0  0  0  0  0  0  0  0
   40.5570   32.1220   37.3970 H   0  0  0  0  0  0  0  0  0  0  0  0
   36.5740   27.7550   41.3130 C   0  0  0  0  0  0  0  0  0  0  0  0
   36.0790   26.7530   41.5310 H   0  0  0  0  0  0  0  0  0  0  0  0
   35.6870   28.3410   40.9460 H   0  0  0  0  0  0  0  0  0  0  0  0
   37.1800   28.4040   42.3020 N   0  0  0  0  0  0  0  0  0  0  0  0
   37.5290   27.9360   43.5950 C   0  0  0  0  0  0  0  0  0  0  0  0
   39.0450   27.7160   43.3600 C   0  0  0  0  0  0  0  0  0  0  0  0
   39.7540   28.9480   43.0050 C   0  0  0  0  0  0  0  0  0  0  0  0
   38.9990   30.0540   42.4140 C   0  0  0  0  0  0  0  0  0  0  0  0
   37.5860   29.7800   41.9990 C   0  0  0  0  0  0  0  0  0  0  0  0
   37.1050   26.9220   43.7490 H   0  0  0  0  0  0  0  0  0  0  0  0
   37.3130   28.5330   44.4620 H   0  0  0  0  0  0  0  0  0  0  0  0
   39.0940   26.8990   42.5990 H   0  0  0  0  0  0  0  0  0  0  0  0
   39.4750   27.2720   44.2810 H   0  0  0  0  0  0  0  0  0  0  0  0
   40.2910   29.3690   43.9020 H   0  0  0  0  0  0  0  0  0  0  0  0
   40.5870   28.7150   42.2820 H   0  0  0  0  0  0  0  0  0  0  0  0
   39.3430   31.0330   42.2230 H   0  0  0  0  0  0  0  0  0  0  0  0
   36.6030   31.0110   41.1950 S   0  0  0  0  0  0  0  0  0  0  0  0
   35.6480   31.5860   42.0790 H   0  0  0  0  0  0  0  0  0  0  0  0
  1  2  1  0  0  0  0
  1 20  1  0  0  0  0
  3  1  1  0  0  0  0
  4  1  1  0  0  0  0
  5  4  1  0  0  0  0
  5 10  1  0  0  0  0
  6  5  2  0  0  0  0
  7  8  2  0  0  0  0
  7  6  1  0  0  0  0
  8  9  1  0  0  0  0
  9  4  2  0  0  0  0
 11  6  1  0  0  0  0
 12 17  1  0  0  0  0
 13 12  2  0  0  0  0
 14 13  1  0  0  0  0
 14  8  1  0  0  0  0
 15 13  1  0  0  0  0
 15 19  1  0  0  0  0
 16 15  1  0  0  0  0
 18 14  1  0  0  0  0
 20 21  1  0  0  0  0
 20 23  1  0  0  0  0
 22 20  1  0  0  0  0
 23 24  1  0  0  0  0
 24 29  1  0  0  0  0
 24 30  1  0  0  0  0
 25 24  1  0  0  0  0
 25 32  1  0  0  0  0
 26 25  1  0  0  0  0
 26 33  1  0  0  0  0
 27 26  1  0  0  0  0
 28 23  1  0  0  0  0
 28 27  2  0  0  0  0
 31 25  1  0  0  0  0
 34 26  1  0  0  0  0
 35 27  1  0  0  0  0
 36 28  1  0  0  0  0
 36 37  1  0  0  0  0
M  END
>  <minimizedAffinity>
-5.24013662

$$$$

 OpenBabel03252507033D

 37 38  0  0  0  0  0  0  0  0999 V2000
   37.5060   24.9300   41.0650 C   0  0  0  0  0  0  0  0  0  0  0  0
   36.8750   24.2060   41.6490 H   0  0  0  0  0  0  0  0  0  0  0  0
   38.3360   24.3450   40.6420 H   0  0  0  0  0  0  0  0  0  0  0  0
   37.9650   26.0030   41.9830 C   0  0  0  0  0  0  0  0  0  0  0  0
   39.0350   25.7960   42.8280 C   0  0  0  0  0  0  0  0  0  0  0  0
   39.4090   26.8550   43.6800 C   0  0  0  0  0  0  0  0  0  0  0  0
   38.6910   28.0270   43.6190 N   0  0  0  0  0  0  0  0  0  0  0  0
   37.6570   28.1530   42.7670 C   0  0  0  0  0  0  0  0  0  0  0  0
   37.3180   27.1570   41.9760 N   0  0  0  0  0  0  0  0  0  0  0  0
   39.5700   24.8720   42.8480 H   0  0  0  0  0  0  0  0  0  0  0  0
   40.2320   26.7670   44.3640 H   0  0  0  0  0  0  0  0  0  0  0  0
   37.9040   30.0940   40.7460 N   0  0  0  0  0  0  0  0  0  0  0  0
   36.8460   30.1470   41.5140 C   0  0  0  0  0  0  0  0  0  0  0  0
   36.9280   29.3750   42.7230 N   0  0  0  0  0  0  0  0  0  0  0  0
   35.6340   30.8910   41.2700 N   0  0  0  0  0  0  0  0  0  0  0  0
   35.3520   31.7440   41.8000 H   0  0  0  0  0  0  0  0  0  0  0  0
   37.8510   30.6530   39.8680 H   0  0  0  0  0  0  0  0  0  0  0  0
   36.4340   29.7280   43.5950 H   0  0  0  0  0  0  0  0  0  0  0  0
   34.9820   30.5540   40.5020 H   0  0  0  0  0  0  0  0  0  0  0  0
   36.5960   25.5690   40.0610 C   0  0  0  0  0  0  0  0  0  0  0  0
   37.0800   26.5680   39.8070 H   0  0  0  0  0  0  0  0  0  0  0  0
   35.6850   25.9230   40.6160 H   0  0  0  0  0  0  0  0  0  0  0  0
   36.2460   24.7520   39.0710 N   0  0  0  0  0  0  0  0  0  0  0  0
   36.3170   23.3370   39.0150 C   0  0  0  0  0  0  0  0  0  0  0  0
   34.8190   23.0200   39.2580 C   0  0  0  0  0  0  0  0  0  0  0  0
   33.9420   23.5740   38.2240 C   0  0  0  0  0  0  0  0  0  0  0  0
   34.4060   24.7190   37.4410 C   0  0  0  0  0  0  0  0  0  0  0  0
   35.6600   25.4010   37.8940 C   0  0  0  0  0  0  0  0  0  0  0  0
   36.8470   22.9560   39.9130 H   0  0  0  0  0  0  0  0  0  0  0  0
   36.7210   22.8500   38.1470 H   0  0  0  0  0  0  0  0  0  0  0  0
   34.6230   23.3810   40.2980 H   0  0  0  0  0  0  0  0  0  0  0  0
   34.7050   21.9180   39.3160 H   0  0  0  0  0  0  0  0  0  0  0  0
   33.6490   22.7760   37.4840 H   0  0  0  0  0  0  0  0  0  0  0  0
   32.9590   23.8840   38.6820 H   0  0  0  0  0  0  0  0  0  0  0  0
   33.9440   25.1440   36.5920 H   0  0  0  0  0  0  0  0  0  0  0  0
   36.2730   26.8480   37.0810 S   0  0  0  0  0  0  0  0  0  0  0  0
   37.3890   26.5550   36.2500 H   0  0  0  0  0  0  0  0  0  0  0  0
  1  2  1  0  0  0  0
  1  4  1  0  0  0  0
  3  1  1  0  0  0  0
  4  5  1  0  0  0  0
  5 10  1  0  0  0  0
  5  6  2  0  0  0  0
  6 11  1  0  0  0  0
  7  6  1  0  0  0  0
  8  7  2  0  0  0  0
  9  4  2  0  0  0  0
  9  8  1  0  0  0  0
 12 13  2  0  0  0  0
 13 14  1  0  0  0  0
 14  8  1  0  0  0  0
 14 18  1  0  0  0  0
 15 13  1  0  0  0  0
 15 16  1  0  0  0  0
 17 12  1  0  0  0  0
 19 15  1  0  0  0  0
 20 22  1  0  0  0  0
 20  1  1  0  0  0  0
 21 20  1  0  0  0  0
 23 20  1  0  0  0  0
 24 23  1  0  0  0  0
 24 25  1  0  0  0  0
 24 29  1  0  0  0  0
 25 32  1  0  0  0  0
 25 31  1  0  0  0  0
 26 34  1  0  0  0  0
 26 25  1  0  0  0  0
 27 28  2  0  0  0  0
 27 26  1  0  0  0  0
 28 23  1  0  0  0  0
 30 24  1  0  0  0  0
 33 26  1  0  0  0  0
 35 27  1  0  0  0  0
 36 28  1  0  0  0  0
 37 36  1  0  0  0  0
M  END
>  <minimizedAffinity>
-5.07485104

$$$$
