
 OpenBabel03242519303D

 42 44  0  0  0  0  0  0  0  0999 V2000
   37.2910   26.8780   42.0830 C   0  0  0  0  0  0  0  0  0  0  0  0
   37.4720   27.4240   43.3880 C   0  0  0  0  0  0  0  0  0  0  0  0
   37.6250   28.8050   43.5510 C   0  0  0  0  0  0  0  0  0  0  0  0
   37.5860   29.5590   42.4040 N   0  0  0  0  0  0  0  0  0  0  0  0
   37.4090   28.9920   41.1610 C   0  0  0  0  0  0  0  0  0  0  0  0
   37.2680   27.6880   41.0310 N   0  0  0  0  0  0  0  0  0  0  0  0
   37.5120   26.8910   44.3280 H   0  0  0  0  0  0  0  0  0  0  0  0
   37.7630   29.2720   44.4950 H   0  0  0  0  0  0  0  0  0  0  0  0
   37.1450   25.4160   42.0410 C   0  0  0  0  0  0  0  0  0  0  0  0
   38.3200   24.6760   42.4600 C   0  0  0  0  0  0  0  0  0  0  0  0
   38.9940   23.9120   41.3950 C   0  0  0  0  0  0  0  0  0  0  0  0
   38.0350   22.9890   40.6460 C   0  0  0  0  0  0  0  0  0  0  0  0
   36.6610   23.5600   40.4500 C   0  0  0  0  0  0  0  0  0  0  0  0
   36.6960   25.0820   40.5930 C   0  0  0  0  0  0  0  0  0  0  0  0
   36.2170   25.1630   42.6350 H   0  0  0  0  0  0  0  0  0  0  0  0
   39.0560   25.3530   42.9240 H   0  0  0  0  0  0  0  0  0  0  0  0
   38.0300   23.9480   43.2650 H   0  0  0  0  0  0  0  0  0  0  0  0
   39.6240   24.4620   40.6920 H   0  0  0  0  0  0  0  0  0  0  0  0
   39.7050   23.2020   41.9140 H   0  0  0  0  0  0  0  0  0  0  0  0
   38.5100   22.7940   39.6610 H   0  0  0  0  0  0  0  0  0  0  0  0
   37.9880   21.9750   41.1250 H   0  0  0  0  0  0  0  0  0  0  0  0
   36.1980   23.3180   39.4900 H   0  0  0  0  0  0  0  0  0  0  0  0
   36.0440   23.1760   41.3060 H   0  0  0  0  0  0  0  0  0  0  0  0
   35.7040   25.4990   40.3930 H   0  0  0  0  0  0  0  0  0  0  0  0
   37.4230   25.4640   39.8610 H   0  0  0  0  0  0  0  0  0  0  0  0
   37.3950   29.9430   40.0580 C   0  0  0  0  0  0  0  0  0  0  0  0
   37.0190   31.2180   40.3300 N   0  0  0  0  0  0  0  0  0  0  0  0
   37.0770   31.9290   39.1700 C   0  0  0  0  0  0  0  0  0  0  0  0
   37.4850   31.0850   38.2050 N   0  0  0  0  0  0  0  0  0  0  0  0
   37.6810   29.8760   38.7370 N   0  0  0  0  0  0  0  0  0  0  0  0
   36.8270   32.9670   39.1110 H   0  0  0  0  0  0  0  0  0  0  0  0
   37.6870   31.4240   36.7960 C   0  0  0  0  0  0  0  0  0  0  0  0
   36.7700   31.9210   36.4690 H   0  0  0  0  0  0  0  0  0  0  0  0
   37.7590   30.4600   36.2430 H   0  0  0  0  0  0  0  0  0  0  0  0
   40.4280   30.7160   37.2190 N   0  0  0  0  0  0  0  0  0  0  0  0
   40.0960   31.9840   37.1730 C   0  0  0  0  0  0  0  0  0  0  0  0
   38.8110   32.2750   36.6040 N   0  0  0  0  0  0  0  0  0  0  0  0
   40.9200   33.0700   37.6480 N   0  0  0  0  0  0  0  0  0  0  0  0
   41.9170   33.3580   37.4410 H   0  0  0  0  0  0  0  0  0  0  0  0
   41.3240   30.3770   37.6040 H   0  0  0  0  0  0  0  0  0  0  0  0
   38.7180   33.1630   36.0230 H   0  0  0  0  0  0  0  0  0  0  0  0
   40.6200   33.8010   38.3290 H   0  0  0  0  0  0  0  0  0  0  0  0
  1  2  1  0  0  0  0
  2  3  2  0  0  0  0
  2  7  1  0  0  0  0
  3  8  1  0  0  0  0
  4  3  1  0  0  0  0
  5  4  2  0  0  0  0
  6  5  1  0  0  0  0
  6  1  2  0  0  0  0
  9  1  1  0  0  0  0
  9 10  1  0  0  0  0
  9 15  1  0  0  0  0
 10 16  1  0  0  0  0
 10 17  1  0  0  0  0
 11 19  1  0  0  0  0
 11 10  1  0  0  0  0
 12 21  1  0  0  0  0
 12 11  1  0  0  0  0
 13 14  1  0  0  0  0
 13 12  1  0  0  0  0
 13 23  1  0  0  0  0
 14  9  1  0  0  0  0
 18 11  1  0  0  0  0
 20 12  1  0  0  0  0
 22 13  1  0  0  0  0
 24 14  1  0  0  0  0
 25 14  1  0  0  0  0
 26 27  1  0  0  0  0
 26  5  1  0  0  0  0
 28 27  2  0  0  0  0
 29 30  1  0  0  0  0
 29 28  1  0  0  0  0
 30 26  2  0  0  0  0
 31 28  1  0  0  0  0
 32 29  1  0  0  0  0
 33 32  1  0  0  0  0
 34 32  1  0  0  0  0
 35 40  1  0  0  0  0
 36 35  2  0  0  0  0
 36 38  1  0  0  0  0
 37 32  1  0  0  0  0
 37 36  1  0  0  0  0
 38 42  1  0  0  0  0
 39 38  1  0  0  0  0
 41 37  1  0  0  0  0
M  END
>  <minimizedAffinity>
-6.16365671

$$$$

 OpenBabel03242519303D

 42 44  0  0  0  0  0  0  0  0999 V2000
   37.1410   28.7150   41.6770 C   0  0  0  0  0  0  0  0  0  0  0  0
   35.8440   28.6960   41.0830 C   0  0  0  0  0  0  0  0  0  0  0  0
   35.4480   29.7420   40.2420 C   0  0  0  0  0  0  0  0  0  0  0  0
   36.3670   30.7410   40.0420 N   0  0  0  0  0  0  0  0  0  0  0  0
   37.6110   30.7210   40.6350 C   0  0  0  0  0  0  0  0  0  0  0  0
   37.9630   29.7270   41.4250 N   0  0  0  0  0  0  0  0  0  0  0  0
   35.0760   27.9440   41.1980 H   0  0  0  0  0  0  0  0  0  0  0  0
   34.4970   29.7860   39.7710 H   0  0  0  0  0  0  0  0  0  0  0  0
   37.4400   27.5650   42.5420 C   0  0  0  0  0  0  0  0  0  0  0  0
   38.4470   27.8140   43.5570 C   0  0  0  0  0  0  0  0  0  0  0  0
   39.7140   27.0820   43.3760 C   0  0  0  0  0  0  0  0  0  0  0  0
   39.4980   25.5790   43.2110 C   0  0  0  0  0  0  0  0  0  0  0  0
   38.2680   25.2170   42.4310 C   0  0  0  0  0  0  0  0  0  0  0  0
   37.8120   26.4040   41.5820 C   0  0  0  0  0  0  0  0  0  0  0  0
   36.4540   27.2090   42.9650 H   0  0  0  0  0  0  0  0  0  0  0  0
   38.6710   28.8910   43.6210 H   0  0  0  0  0  0  0  0  0  0  0  0
   38.0350   27.5310   44.5630 H   0  0  0  0  0  0  0  0  0  0  0  0
   40.4160   27.4530   42.6260 H   0  0  0  0  0  0  0  0  0  0  0  0
   40.2740   27.1710   44.3540 H   0  0  0  0  0  0  0  0  0  0  0  0
   40.4030   25.1990   42.6900 H   0  0  0  0  0  0  0  0  0  0  0  0
   39.5190   25.0530   44.2020 H   0  0  0  0  0  0  0  0  0  0  0  0
   38.3810   24.3510   41.7750 H   0  0  0  0  0  0  0  0  0  0  0  0
   37.4610   25.0460   43.1940 H   0  0  0  0  0  0  0  0  0  0  0  0
   36.9490   26.1190   40.9730 H   0  0  0  0  0  0  0  0  0  0  0  0
   38.6560   26.6890   40.9360 H   0  0  0  0  0  0  0  0  0  0  0  0
   38.4550   31.8630   40.3110 C   0  0  0  0  0  0  0  0  0  0  0  0
   37.9000   33.0990   40.3860 N   0  0  0  0  0  0  0  0  0  0  0  0
   38.8530   34.0090   40.0460 C   0  0  0  0  0  0  0  0  0  0  0  0
   39.9770   33.3240   39.7670 N   0  0  0  0  0  0  0  0  0  0  0  0
   39.7430   32.0190   39.9260 N   0  0  0  0  0  0  0  0  0  0  0  0
   38.6710   35.0630   40.0250 H   0  0  0  0  0  0  0  0  0  0  0  0
   41.2560   33.9030   39.3550 C   0  0  0  0  0  0  0  0  0  0  0  0
   41.7260   34.2810   40.2650 H   0  0  0  0  0  0  0  0  0  0  0  0
   41.0170   34.7800   38.7130 H   0  0  0  0  0  0  0  0  0  0  0  0
   42.4420   34.1600   36.7620 N   0  0  0  0  0  0  0  0  0  0  0  0
   42.3520   32.9710   37.3070 C   0  0  0  0  0  0  0  0  0  0  0  0
   42.0980   32.9470   38.7200 N   0  0  0  0  0  0  0  0  0  0  0  0
   42.4870   31.7240   36.5930 N   0  0  0  0  0  0  0  0  0  0  0  0
   43.2410   31.3400   35.9570 H   0  0  0  0  0  0  0  0  0  0  0  0
   42.6220   34.3120   35.7560 H   0  0  0  0  0  0  0  0  0  0  0  0
   42.5650   32.1790   39.2920 H   0  0  0  0  0  0  0  0  0  0  0  0
   41.7940   30.9450   36.6040 H   0  0  0  0  0  0  0  0  0  0  0  0
  1  9  1  0  0  0  0
  2  7  1  0  0  0  0
  2  1  2  0  0  0  0
  3  2  1  0  0  0  0
  4  3  2  0  0  0  0
  4  5  1  0  0  0  0
  5  6  2  0  0  0  0
  6  1  1  0  0  0  0
  8  3  1  0  0  0  0
  9 15  1  0  0  0  0
  9 10  1  0  0  0  0
 10 16  1  0  0  0  0
 10 17  1  0  0  0  0
 11 10  1  0  0  0  0
 11 19  1  0  0  0  0
 12 11  1  0  0  0  0
 12 21  1  0  0  0  0
 13 23  1  0  0  0  0
 13 12  1  0  0  0  0
 14 13  1  0  0  0  0
 14  9  1  0  0  0  0
 18 11  1  0  0  0  0
 20 12  1  0  0  0  0
 22 13  1  0  0  0  0
 24 14  1  0  0  0  0
 25 14  1  0  0  0  0
 26 27  1  0  0  0  0
 26  5  1  0  0  0  0
 28 27  2  0  0  0  0
 29 30  1  0  0  0  0
 29 28  1  0  0  0  0
 30 26  2  0  0  0  0
 31 28  1  0  0  0  0
 32 29  1  0  0  0  0
 32 33  1  0  0  0  0
 34 32  1  0  0  0  0
 35 36  2  0  0  0  0
 36 37  1  0  0  0  0
 37 41  1  0  0  0  0
 37 32  1  0  0  0  0
 38 42  1  0  0  0  0
 38 36  1  0  0  0  0
 39 38  1  0  0  0  0
 40 35  1  0  0  0  0
M  END
>  <minimizedAffinity>
-6.12067747

$$$$

 OpenBabel03242519303D

 42 44  0  0  0  0  0  0  0  0999 V2000
   37.2590   26.3530   41.8780 C   0  0  0  0  0  0  0  0  0  0  0  0
   36.8270   26.7780   43.1690 C   0  0  0  0  0  0  0  0  0  0  0  0
   37.0710   28.0900   43.5890 C   0  0  0  0  0  0  0  0  0  0  0  0
   37.7300   28.9000   42.6980 N   0  0  0  0  0  0  0  0  0  0  0  0
   38.1310   28.4490   41.4590 C   0  0  0  0  0  0  0  0  0  0  0  0
   37.8910   27.2090   41.0840 N   0  0  0  0  0  0  0  0  0  0  0  0
   36.3050   26.1960   43.9160 H   0  0  0  0  0  0  0  0  0  0  0  0
   36.7750   28.4660   44.5370 H   0  0  0  0  0  0  0  0  0  0  0  0
   36.9480   24.9540   41.5520 C   0  0  0  0  0  0  0  0  0  0  0  0
   38.0330   24.0200   41.7860 C   0  0  0  0  0  0  0  0  0  0  0  0
   38.6100   23.4130   40.5730 C   0  0  0  0  0  0  0  0  0  0  0  0
   37.5490   22.7700   39.6830 C   0  0  0  0  0  0  0  0  0  0  0  0
   36.2480   23.5160   39.6410 C   0  0  0  0  0  0  0  0  0  0  0  0
   36.4560   24.9670   40.0800 C   0  0  0  0  0  0  0  0  0  0  0  0
   36.0000   24.6920   42.1100 H   0  0  0  0  0  0  0  0  0  0  0  0
   38.8430   24.5050   42.3540 H   0  0  0  0  0  0  0  0  0  0  0  0
   37.6660   23.1830   42.4390 H   0  0  0  0  0  0  0  0  0  0  0  0
   39.2960   24.0180   39.9750 H   0  0  0  0  0  0  0  0  0  0  0  0
   39.2380   22.5400   40.9220 H   0  0  0  0  0  0  0  0  0  0  0  0
   37.9940   22.7230   38.6660 H   0  0  0  0  0  0  0  0  0  0  0  0
   37.3890   21.6920   39.9540 H   0  0  0  0  0  0  0  0  0  0  0  0
   35.7560   23.5220   38.6650 H   0  0  0  0  0  0  0  0  0  0  0  0
   35.5960   23.0400   40.4210 H   0  0  0  0  0  0  0  0  0  0  0  0
   35.5180   25.5220   39.9930 H   0  0  0  0  0  0  0  0  0  0  0  0
   37.2190   25.4030   39.4190 H   0  0  0  0  0  0  0  0  0  0  0  0
   38.8170   29.4450   40.6460 C   0  0  0  0  0  0  0  0  0  0  0  0
   39.2060   29.0820   39.3980 N   0  0  0  0  0  0  0  0  0  0  0  0
   39.8200   30.1510   38.8210 C   0  0  0  0  0  0  0  0  0  0  0  0
   39.8010   31.1530   39.7180 N   0  0  0  0  0  0  0  0  0  0  0  0
   39.1940   30.7320   40.8300 N   0  0  0  0  0  0  0  0  0  0  0  0
   40.2210   30.1260   37.8300 H   0  0  0  0  0  0  0  0  0  0  0  0
   40.3550   32.4930   39.5210 C   0  0  0  0  0  0  0  0  0  0  0  0
   41.1240   32.3940   38.7510 H   0  0  0  0  0  0  0  0  0  0  0  0
   40.8660   32.7700   40.4710 H   0  0  0  0  0  0  0  0  0  0  0  0
   38.6990   34.0510   41.2610 N   0  0  0  0  0  0  0  0  0  0  0  0
   38.3390   33.8920   40.0100 C   0  0  0  0  0  0  0  0  0  0  0  0
   39.3630   33.4300   39.1170 N   0  0  0  0  0  0  0  0  0  0  0  0
   37.0140   34.1440   39.4950 N   0  0  0  0  0  0  0  0  0  0  0  0
   36.3770   34.9890   39.5370 H   0  0  0  0  0  0  0  0  0  0  0  0
   38.0560   34.3770   42.0000 H   0  0  0  0  0  0  0  0  0  0  0  0
   39.3600   33.8130   38.1230 H   0  0  0  0  0  0  0  0  0  0  0  0
   36.4390   33.4650   38.9510 H   0  0  0  0  0  0  0  0  0  0  0  0
  1  2  1  0  0  0  0
  2  3  2  0  0  0  0
  2  7  1  0  0  0  0
  3  8  1  0  0  0  0
  4  3  1  0  0  0  0
  5  4  2  0  0  0  0
  6  5  1  0  0  0  0
  6  1  2  0  0  0  0
  9 10  1  0  0  0  0
  9  1  1  0  0  0  0
  9 15  1  0  0  0  0
 10 16  1  0  0  0  0
 10 17  1  0  0  0  0
 11 19  1  0  0  0  0
 11 10  1  0  0  0  0
 12 21  1  0  0  0  0
 12 11  1  0  0  0  0
 13 12  1  0  0  0  0
 13 14  1  0  0  0  0
 13 23  1  0  0  0  0
 14  9  1  0  0  0  0
 18 11  1  0  0  0  0
 20 12  1  0  0  0  0
 22 13  1  0  0  0  0
 24 14  1  0  0  0  0
 25 14  1  0  0  0  0
 26 30  2  0  0  0  0
 26  5  1  0  0  0  0
 27 26  1  0  0  0  0
 28 27  2  0  0  0  0
 28 29  1  0  0  0  0
 29 30  1  0  0  0  0
 31 28  1  0  0  0  0
 32 29  1  0  0  0  0
 32 34  1  0  0  0  0
 33 32  1  0  0  0  0
 35 40  1  0  0  0  0
 36 35  2  0  0  0  0
 37 32  1  0  0  0  0
 37 36  1  0  0  0  0
 38 39  1  0  0  0  0
 38 36  1  0  0  0  0
 41 37  1  0  0  0  0
 42 38  1  0  0  0  0
M  END
>  <minimizedAffinity>
-6.08235168

$$$$

 OpenBabel03242519303D

 42 44  0  0  0  0  0  0  0  0999 V2000
   37.1680   27.0120   41.5260 C   0  0  0  0  0  0  0  0  0  0  0  0
   37.0950   27.0180   42.9510 C   0  0  0  0  0  0  0  0  0  0  0  0
   37.3440   28.2010   43.6570 C   0  0  0  0  0  0  0  0  0  0  0  0
   37.6490   29.3050   42.9010 N   0  0  0  0  0  0  0  0  0  0  0  0
   37.7090   29.2570   41.5250 C   0  0  0  0  0  0  0  0  0  0  0  0
   37.4720   28.1320   40.8810 N   0  0  0  0  0  0  0  0  0  0  0  0
   36.8610   26.1890   43.6040 H   0  0  0  0  0  0  0  0  0  0  0  0
   37.3050   28.2690   44.7160 H   0  0  0  0  0  0  0  0  0  0  0  0
   36.8900   25.7120   40.9000 C   0  0  0  0  0  0  0  0  0  0  0  0
   36.8780   24.5870   41.8160 C   0  0  0  0  0  0  0  0  0  0  0  0
   37.9760   23.6200   41.6370 C   0  0  0  0  0  0  0  0  0  0  0  0
   38.0820   23.1210   40.1980 C   0  0  0  0  0  0  0  0  0  0  0  0
   37.7830   24.1650   39.1620 C   0  0  0  0  0  0  0  0  0  0  0  0
   37.9350   25.5640   39.7620 C   0  0  0  0  0  0  0  0  0  0  0  0
   35.9290   25.8290   40.3170 H   0  0  0  0  0  0  0  0  0  0  0  0
   36.8890   24.9400   42.8600 H   0  0  0  0  0  0  0  0  0  0  0  0
   35.9120   24.0260   41.6980 H   0  0  0  0  0  0  0  0  0  0  0  0
   38.9610   23.8890   42.0240 H   0  0  0  0  0  0  0  0  0  0  0  0
   37.6860   22.6980   42.2240 H   0  0  0  0  0  0  0  0  0  0  0  0
   39.1250   22.7570   40.0800 H   0  0  0  0  0  0  0  0  0  0  0  0
   37.4580   22.2010   40.0380 H   0  0  0  0  0  0  0  0  0  0  0  0
   38.4030   24.1090   38.2650 H   0  0  0  0  0  0  0  0  0  0  0  0
   36.6950   24.0450   38.9110 H   0  0  0  0  0  0  0  0  0  0  0  0
   37.7720   26.3210   38.9900 H   0  0  0  0  0  0  0  0  0  0  0  0
   38.9580   25.6400   40.1600 H   0  0  0  0  0  0  0  0  0  0  0  0
   38.0480   30.5230   40.8890 C   0  0  0  0  0  0  0  0  0  0  0  0
   37.0300   31.3610   40.5720 N   0  0  0  0  0  0  0  0  0  0  0  0
   37.5650   32.4720   39.9940 C   0  0  0  0  0  0  0  0  0  0  0  0
   38.8990   32.3020   39.9650 N   0  0  0  0  0  0  0  0  0  0  0  0
   39.2010   31.1200   40.5070 N   0  0  0  0  0  0  0  0  0  0  0  0
   36.9710   33.2920   39.6500 H   0  0  0  0  0  0  0  0  0  0  0  0
   39.8740   33.2520   39.4270 C   0  0  0  0  0  0  0  0  0  0  0  0
   40.3670   33.7030   40.2910 H   0  0  0  0  0  0  0  0  0  0  0  0
   39.2910   34.0530   38.9180 H   0  0  0  0  0  0  0  0  0  0  0  0
   39.4230   32.3650   36.7420 N   0  0  0  0  0  0  0  0  0  0  0  0
   40.4440   31.8850   37.4100 C   0  0  0  0  0  0  0  0  0  0  0  0
   40.8290   32.6200   38.5820 N   0  0  0  0  0  0  0  0  0  0  0  0
   41.1810   30.6980   37.0490 N   0  0  0  0  0  0  0  0  0  0  0  0
   41.6650   30.3970   36.1570 H   0  0  0  0  0  0  0  0  0  0  0  0
   39.0500   31.9290   35.8840 H   0  0  0  0  0  0  0  0  0  0  0  0
   41.8680   32.6810   38.8070 H   0  0  0  0  0  0  0  0  0  0  0  0
   41.3630   29.8860   37.6780 H   0  0  0  0  0  0  0  0  0  0  0  0
  1  2  1  0  0  0  0
  2  7  1  0  0  0  0
  2  3  2  0  0  0  0
  3  8  1  0  0  0  0
  4  3  1  0  0  0  0
  5  4  2  0  0  0  0
  6  5  1  0  0  0  0
  6  1  2  0  0  0  0
  9  1  1  0  0  0  0
  9 10  1  0  0  0  0
 10 16  1  0  0  0  0
 11 10  1  0  0  0  0
 11 18  1  0  0  0  0
 11 19  1  0  0  0  0
 12 11  1  0  0  0  0
 13 14  1  0  0  0  0
 13 12  1  0  0  0  0
 14 25  1  0  0  0  0
 14  9  1  0  0  0  0
 15  9  1  0  0  0  0
 17 10  1  0  0  0  0
 20 12  1  0  0  0  0
 21 12  1  0  0  0  0
 22 13  1  0  0  0  0
 23 13  1  0  0  0  0
 24 14  1  0  0  0  0
 26  5  1  0  0  0  0
 27 26  1  0  0  0  0
 28 27  2  0  0  0  0
 29 28  1  0  0  0  0
 29 30  1  0  0  0  0
 30 26  2  0  0  0  0
 31 28  1  0  0  0  0
 32 29  1  0  0  0  0
 32 33  1  0  0  0  0
 34 32  1  0  0  0  0
 35 36  2  0  0  0  0
 36 37  1  0  0  0  0
 37 41  1  0  0  0  0
 37 32  1  0  0  0  0
 38 36  1  0  0  0  0
 38 42  1  0  0  0  0
 39 38  1  0  0  0  0
 40 35  1  0  0  0  0
M  END
>  <minimizedAffinity>
-5.98025799

$$$$

 OpenBabel03242519303D

 42 44  0  0  0  0  0  0  0  0999 V2000
   37.1870   30.2470   40.8400 C   0  0  0  0  0  0  0  0  0  0  0  0
   37.4600   31.6450   40.7610 C   0  0  0  0  0  0  0  0  0  0  0  0
   37.3620   32.3060   39.5300 C   0  0  0  0  0  0  0  0  0  0  0  0
   36.9960   31.5350   38.4550 N   0  0  0  0  0  0  0  0  0  0  0  0
   36.7400   30.1860   38.5760 C   0  0  0  0  0  0  0  0  0  0  0  0
   36.8400   29.5840   39.7440 N   0  0  0  0  0  0  0  0  0  0  0  0
   37.7510   32.3090   41.5630 H   0  0  0  0  0  0  0  0  0  0  0  0
   37.5530   33.3430   39.4060 H   0  0  0  0  0  0  0  0  0  0  0  0
   37.3260   29.6680   42.1830 C   0  0  0  0  0  0  0  0  0  0  0  0
   38.6750   29.6880   42.7170 C   0  0  0  0  0  0  0  0  0  0  0  0
   39.3090   28.3670   42.8720 C   0  0  0  0  0  0  0  0  0  0  0  0
   38.4440   27.3980   43.6760 C   0  0  0  0  0  0  0  0  0  0  0  0
   36.9710   27.5340   43.4220 C   0  0  0  0  0  0  0  0  0  0  0  0
   36.7280   28.2390   42.0860 C   0  0  0  0  0  0  0  0  0  0  0  0
   36.5720   30.1890   42.8450 H   0  0  0  0  0  0  0  0  0  0  0  0
   39.3270   30.3180   42.0900 H   0  0  0  0  0  0  0  0  0  0  0  0
   38.6650   30.1780   43.7280 H   0  0  0  0  0  0  0  0  0  0  0  0
   39.7000   27.8790   41.9770 H   0  0  0  0  0  0  0  0  0  0  0  0
   40.2180   28.5250   43.5250 H   0  0  0  0  0  0  0  0  0  0  0  0
   38.7860   26.3800   43.3920 H   0  0  0  0  0  0  0  0  0  0  0  0
   38.6730   27.4610   44.7740 H   0  0  0  0  0  0  0  0  0  0  0  0
   36.4190   26.5910   43.4160 H   0  0  0  0  0  0  0  0  0  0  0  0
   36.5850   28.2250   44.2190 H   0  0  0  0  0  0  0  0  0  0  0  0
   35.6550   28.2850   41.8780 H   0  0  0  0  0  0  0  0  0  0  0  0
   37.2420   27.6530   41.3090 H   0  0  0  0  0  0  0  0  0  0  0  0
   36.3660   29.5270   37.3310 C   0  0  0  0  0  0  0  0  0  0  0  0
   35.6140   28.4020   37.4140 N   0  0  0  0  0  0  0  0  0  0  0  0
   35.3820   27.9570   36.1490 C   0  0  0  0  0  0  0  0  0  0  0  0
   35.9930   28.8110   35.3080 N   0  0  0  0  0  0  0  0  0  0  0  0
   36.5930   29.7680   36.0180 N   0  0  0  0  0  0  0  0  0  0  0  0
   34.8100   27.0780   35.9370 H   0  0  0  0  0  0  0  0  0  0  0  0
   36.0060   28.7170   33.8480 C   0  0  0  0  0  0  0  0  0  0  0  0
   34.9730   28.8630   33.5240 H   0  0  0  0  0  0  0  0  0  0  0  0
   36.2890   27.6690   33.5980 H   0  0  0  0  0  0  0  0  0  0  0  0
   35.4360   31.5090   33.5770 N   0  0  0  0  0  0  0  0  0  0  0  0
   36.3690   30.9720   32.8270 C   0  0  0  0  0  0  0  0  0  0  0  0
   36.8560   29.6920   33.2550 N   0  0  0  0  0  0  0  0  0  0  0  0
   36.9160   31.5740   31.6350 N   0  0  0  0  0  0  0  0  0  0  0  0
   37.3520   32.5190   31.4430 H   0  0  0  0  0  0  0  0  0  0  0  0
   35.0040   32.4260   33.3770 H   0  0  0  0  0  0  0  0  0  0  0  0
   37.8920   29.4860   33.1120 H   0  0  0  0  0  0  0  0  0  0  0  0
   36.9680   31.1170   30.6980 H   0  0  0  0  0  0  0  0  0  0  0  0
  1  9  1  0  0  0  0
  2  1  1  0  0  0  0
  2  7  1  0  0  0  0
  3  2  2  0  0  0  0
  4  5  2  0  0  0  0
  4  3  1  0  0  0  0
  5  6  1  0  0  0  0
  6  1  2  0  0  0  0
  8  3  1  0  0  0  0
  9 10  1  0  0  0  0
  9 15  1  0  0  0  0
 10 11  1  0  0  0  0
 10 17  1  0  0  0  0
 11 19  1  0  0  0  0
 11 12  1  0  0  0  0
 12 21  1  0  0  0  0
 13 12  1  0  0  0  0
 13 23  1  0  0  0  0
 14  9  1  0  0  0  0
 14 13  1  0  0  0  0
 16 10  1  0  0  0  0
 18 11  1  0  0  0  0
 20 12  1  0  0  0  0
 22 13  1  0  0  0  0
 24 14  1  0  0  0  0
 25 14  1  0  0  0  0
 26 27  1  0  0  0  0
 26  5  1  0  0  0  0
 28 27  2  0  0  0  0
 29 30  1  0  0  0  0
 29 28  1  0  0  0  0
 30 26  2  0  0  0  0
 31 28  1  0  0  0  0
 32 29  1  0  0  0  0
 33 32  1  0  0  0  0
 34 32  1  0  0  0  0
 36 37  1  0  0  0  0
 36 35  2  0  0  0  0
 37 32  1  0  0  0  0
 38 36  1  0  0  0  0
 39 38  1  0  0  0  0
 40 35  1  0  0  0  0
 41 37  1  0  0  0  0
 42 38  1  0  0  0  0
M  END
>  <minimizedAffinity>
-5.83135843

$$$$

 OpenBabel03242519303D

 42 44  0  0  0  0  0  0  0  0999 V2000
   36.8240   28.1920   41.7900 C   0  0  0  0  0  0  0  0  0  0  0  0
   37.3130   29.4750   42.1750 C   0  0  0  0  0  0  0  0  0  0  0  0
   36.9270   30.6120   41.4560 C   0  0  0  0  0  0  0  0  0  0  0  0
   36.0750   30.4020   40.4000 N   0  0  0  0  0  0  0  0  0  0  0  0
   35.6250   29.1440   40.0620 C   0  0  0  0  0  0  0  0  0  0  0  0
   36.0030   28.0870   40.7520 N   0  0  0  0  0  0  0  0  0  0  0  0
   37.9820   29.7110   42.9910 H   0  0  0  0  0  0  0  0  0  0  0  0
   37.2560   31.5940   41.6920 H   0  0  0  0  0  0  0  0  0  0  0  0
   37.3020   27.0760   42.6190 C   0  0  0  0  0  0  0  0  0  0  0  0
   38.2290   27.4540   43.6690 C   0  0  0  0  0  0  0  0  0  0  0  0
   39.6080   26.9630   43.4960 C   0  0  0  0  0  0  0  0  0  0  0  0
   39.6640   25.4540   43.2670 C   0  0  0  0  0  0  0  0  0  0  0  0
   38.5330   24.9160   42.4410 C   0  0  0  0  0  0  0  0  0  0  0  0
   37.8930   26.0400   41.6250 C   0  0  0  0  0  0  0  0  0  0  0  0
   36.3860   26.5350   42.9990 H   0  0  0  0  0  0  0  0  0  0  0  0
   38.2590   28.5500   43.7810 H   0  0  0  0  0  0  0  0  0  0  0  0
   37.8530   27.0610   44.6520 H   0  0  0  0  0  0  0  0  0  0  0  0
   40.2500   27.4830   42.7800 H   0  0  0  0  0  0  0  0  0  0  0  0
   40.1240   27.1070   44.4910 H   0  0  0  0  0  0  0  0  0  0  0  0
   40.6320   25.2610   42.7570 H   0  0  0  0  0  0  0  0  0  0  0  0
   39.7570   24.8980   44.2380 H   0  0  0  0  0  0  0  0  0  0  0  0
   38.8100   24.1120   41.7550 H   0  0  0  0  0  0  0  0  0  0  0  0
   37.7540   24.5740   43.1730 H   0  0  0  0  0  0  0  0  0  0  0  0
   37.1070   25.6340   40.9810 H   0  0  0  0  0  0  0  0  0  0  0  0
   38.6870   26.4950   41.0140 H   0  0  0  0  0  0  0  0  0  0  0  0
   34.7300   29.1100   38.9140 C   0  0  0  0  0  0  0  0  0  0  0  0
   35.2880   29.0150   37.6800 N   0  0  0  0  0  0  0  0  0  0  0  0
   34.2820   28.9990   36.7640 C   0  0  0  0  0  0  0  0  0  0  0  0
   33.1230   29.0840   37.4420 N   0  0  0  0  0  0  0  0  0  0  0  0
   33.3870   29.1520   38.7490 N   0  0  0  0  0  0  0  0  0  0  0  0
   34.4560   28.9300   35.7110 H   0  0  0  0  0  0  0  0  0  0  0  0
   31.7830   29.1020   36.8550 C   0  0  0  0  0  0  0  0  0  0  0  0
   31.2360   28.2790   37.3210 H   0  0  0  0  0  0  0  0  0  0  0  0
   31.9050   28.8530   35.7760 H   0  0  0  0  0  0  0  0  0  0  0  0
   30.3490   29.8310   39.2230 N   0  0  0  0  0  0  0  0  0  0  0  0
   30.1270   30.4930   38.1120 C   0  0  0  0  0  0  0  0  0  0  0  0
   31.1130   30.3370   37.0820 N   0  0  0  0  0  0  0  0  0  0  0  0
   28.9850   31.3420   37.8730 N   0  0  0  0  0  0  0  0  0  0  0  0
   28.5740   32.1600   38.4040 H   0  0  0  0  0  0  0  0  0  0  0  0
   29.7150   29.8600   40.0380 H   0  0  0  0  0  0  0  0  0  0  0  0
   31.3350   31.1860   36.4780 H   0  0  0  0  0  0  0  0  0  0  0  0
   28.3350   31.2640   37.0590 H   0  0  0  0  0  0  0  0  0  0  0  0
  1  2  1  0  0  0  0
  1  9  1  0  0  0  0
  2  7  1  0  0  0  0
  3  8  1  0  0  0  0
  3  2  2  0  0  0  0
  4  3  1  0  0  0  0
  5  4  2  0  0  0  0
  5  6  1  0  0  0  0
  6  1  2  0  0  0  0
  9 15  1  0  0  0  0
  9 10  1  0  0  0  0
 10 16  1  0  0  0  0
 10 17  1  0  0  0  0
 11 10  1  0  0  0  0
 11 19  1  0  0  0  0
 12 11  1  0  0  0  0
 12 21  1  0  0  0  0
 13 23  1  0  0  0  0
 13 12  1  0  0  0  0
 14 13  1  0  0  0  0
 14  9  1  0  0  0  0
 18 11  1  0  0  0  0
 20 12  1  0  0  0  0
 22 13  1  0  0  0  0
 24 14  1  0  0  0  0
 25 14  1  0  0  0  0
 26  5  1  0  0  0  0
 27 26  1  0  0  0  0
 28 29  1  0  0  0  0
 28 27  2  0  0  0  0
 29 30  1  0  0  0  0
 30 26  2  0  0  0  0
 31 28  1  0  0  0  0
 32 37  1  0  0  0  0
 32 33  1  0  0  0  0
 32 29  1  0  0  0  0
 34 32  1  0  0  0  0
 35 40  1  0  0  0  0
 36 35  2  0  0  0  0
 37 36  1  0  0  0  0
 38 36  1  0  0  0  0
 38 39  1  0  0  0  0
 41 37  1  0  0  0  0
 42 38  1  0  0  0  0
M  END
>  <minimizedAffinity>
-5.64732599

$$$$

 OpenBabel03242519303D

 42 44  0  0  0  0  0  0  0  0999 V2000
   37.8420   26.3360   42.1300 C   0  0  0  0  0  0  0  0  0  0  0  0
   38.8770   26.2810   43.1100 C   0  0  0  0  0  0  0  0  0  0  0  0
   39.5460   27.4530   43.4840 C   0  0  0  0  0  0  0  0  0  0  0  0
   39.1410   28.6070   42.8610 N   0  0  0  0  0  0  0  0  0  0  0  0
   38.1350   28.6160   41.9190 C   0  0  0  0  0  0  0  0  0  0  0  0
   37.5200   27.5010   41.5810 N   0  0  0  0  0  0  0  0  0  0  0  0
   39.2440   25.4110   43.6370 H   0  0  0  0  0  0  0  0  0  0  0  0
   40.3240   27.4780   44.2050 H   0  0  0  0  0  0  0  0  0  0  0  0
   37.2180   25.0420   41.8200 C   0  0  0  0  0  0  0  0  0  0  0  0
   38.0970   23.8960   41.9590 C   0  0  0  0  0  0  0  0  0  0  0  0
   38.4390   23.2110   40.6990 C   0  0  0  0  0  0  0  0  0  0  0  0
   37.2010   22.8260   39.8910 C   0  0  0  0  0  0  0  0  0  0  0  0
   36.0880   23.8300   39.9580 C   0  0  0  0  0  0  0  0  0  0  0  0
   36.6300   25.1930   40.3910 C   0  0  0  0  0  0  0  0  0  0  0  0
   36.2820   24.9710   42.4490 H   0  0  0  0  0  0  0  0  0  0  0  0
   39.0320   24.1860   42.4650 H   0  0  0  0  0  0  0  0  0  0  0  0
   37.6120   23.1390   42.6330 H   0  0  0  0  0  0  0  0  0  0  0  0
   39.1890   23.6730   40.0540 H   0  0  0  0  0  0  0  0  0  0  0  0
   38.8930   22.2170   40.9910 H   0  0  0  0  0  0  0  0  0  0  0  0
   37.5480   22.7120   38.8420 H   0  0  0  0  0  0  0  0  0  0  0  0
   36.8380   21.7990   40.1660 H   0  0  0  0  0  0  0  0  0  0  0  0
   35.5360   23.9630   39.0250 H   0  0  0  0  0  0  0  0  0  0  0  0
   35.4110   23.4820   40.7840 H   0  0  0  0  0  0  0  0  0  0  0  0
   35.8260   25.9350   40.3830 H   0  0  0  0  0  0  0  0  0  0  0  0
   37.4160   25.4760   39.6740 H   0  0  0  0  0  0  0  0  0  0  0  0
   37.8390   29.9300   41.3630 C   0  0  0  0  0  0  0  0  0  0  0  0
   36.5350   30.2520   41.1660 N   0  0  0  0  0  0  0  0  0  0  0  0
   36.4880   31.5090   40.6450 C   0  0  0  0  0  0  0  0  0  0  0  0
   37.7570   31.9410   40.5290 N   0  0  0  0  0  0  0  0  0  0  0  0
   38.5840   30.9870   40.9630 N   0  0  0  0  0  0  0  0  0  0  0  0
   35.5710   32.0020   40.3970 H   0  0  0  0  0  0  0  0  0  0  0  0
   38.1770   33.2430   40.0120 C   0  0  0  0  0  0  0  0  0  0  0  0
   38.3850   33.8650   40.8860 H   0  0  0  0  0  0  0  0  0  0  0  0
   37.2940   33.6810   39.4940 H   0  0  0  0  0  0  0  0  0  0  0  0
   40.8980   33.2810   40.9010 N   0  0  0  0  0  0  0  0  0  0  0  0
   40.6340   33.5330   39.6420 C   0  0  0  0  0  0  0  0  0  0  0  0
   39.3300   33.1460   39.1840 N   0  0  0  0  0  0  0  0  0  0  0  0
   41.5490   34.1590   38.7170 N   0  0  0  0  0  0  0  0  0  0  0  0
   42.5440   33.9380   38.4310 H   0  0  0  0  0  0  0  0  0  0  0  0
   41.7990   33.5110   41.3500 H   0  0  0  0  0  0  0  0  0  0  0  0
   39.2460   32.7760   38.1880 H   0  0  0  0  0  0  0  0  0  0  0  0
   41.3400   35.0030   38.1390 H   0  0  0  0  0  0  0  0  0  0  0  0
  1  2  1  0  0  0  0
  2  3  2  0  0  0  0
  2  7  1  0  0  0  0
  3  8  1  0  0  0  0
  4  3  1  0  0  0  0
  5  4  2  0  0  0  0
  6  5  1  0  0  0  0
  6  1  2  0  0  0  0
  9 10  1  0  0  0  0
  9  1  1  0  0  0  0
  9 15  1  0  0  0  0
 10 16  1  0  0  0  0
 10 17  1  0  0  0  0
 11 19  1  0  0  0  0
 11 10  1  0  0  0  0
 12 13  1  0  0  0  0
 12 21  1  0  0  0  0
 12 11  1  0  0  0  0
 13 14  1  0  0  0  0
 13 23  1  0  0  0  0
 14  9  1  0  0  0  0
 18 11  1  0  0  0  0
 20 12  1  0  0  0  0
 22 13  1  0  0  0  0
 24 14  1  0  0  0  0
 25 14  1  0  0  0  0
 26  5  1  0  0  0  0
 27 26  1  0  0  0  0
 28 27  2  0  0  0  0
 29 28  1  0  0  0  0
 29 30  1  0  0  0  0
 30 26  2  0  0  0  0
 31 28  1  0  0  0  0
 32 29  1  0  0  0  0
 32 33  1  0  0  0  0
 34 32  1  0  0  0  0
 35 40  1  0  0  0  0
 36 35  2  0  0  0  0
 37 36  1  0  0  0  0
 37 32  1  0  0  0  0
 38 36  1  0  0  0  0
 39 38  1  0  0  0  0
 41 37  1  0  0  0  0
 42 38  1  0  0  0  0
M  END
>  <minimizedAffinity>
-5.60219908

$$$$

 OpenBabel03242519303D

 42 44  0  0  0  0  0  0  0  0999 V2000
   37.1530   26.6710   41.8770 C   0  0  0  0  0  0  0  0  0  0  0  0
   37.3050   27.2670   43.1640 C   0  0  0  0  0  0  0  0  0  0  0  0
   37.4190   28.6570   43.2800 C   0  0  0  0  0  0  0  0  0  0  0  0
   37.3740   29.3690   42.1070 N   0  0  0  0  0  0  0  0  0  0  0  0
   37.2260   28.7540   40.8830 C   0  0  0  0  0  0  0  0  0  0  0  0
   37.1210   27.4430   40.7970 N   0  0  0  0  0  0  0  0  0  0  0  0
   37.3470   26.7690   44.1230 H   0  0  0  0  0  0  0  0  0  0  0  0
   37.5340   29.1600   44.2080 H   0  0  0  0  0  0  0  0  0  0  0  0
   37.0460   25.2050   41.8850 C   0  0  0  0  0  0  0  0  0  0  0  0
   38.2370   24.5120   42.3400 C   0  0  0  0  0  0  0  0  0  0  0  0
   38.9410   23.7300   41.3080 C   0  0  0  0  0  0  0  0  0  0  0  0
   38.0140   22.7560   40.5840 C   0  0  0  0  0  0  0  0  0  0  0  0
   36.6270   23.2820   40.3560 C   0  0  0  0  0  0  0  0  0  0  0  0
   36.6200   24.8090   40.4460 C   0  0  0  0  0  0  0  0  0  0  0  0
   36.1200   24.9480   42.4800 H   0  0  0  0  0  0  0  0  0  0  0  0
   38.9500   25.2250   42.7870 H   0  0  0  0  0  0  0  0  0  0  0  0
   37.9590   23.8060   43.1680 H   0  0  0  0  0  0  0  0  0  0  0  0
   39.5630   24.2710   40.5920 H   0  0  0  0  0  0  0  0  0  0  0  0
   39.6660   23.0580   41.8580 H   0  0  0  0  0  0  0  0  0  0  0  0
   38.5030   22.5400   39.6100 H   0  0  0  0  0  0  0  0  0  0  0  0
   37.9890   21.7580   41.0980 H   0  0  0  0  0  0  0  0  0  0  0  0
   36.1800   22.9940   39.4020 H   0  0  0  0  0  0  0  0  0  0  0  0
   36.0130   22.9120   41.2200 H   0  0  0  0  0  0  0  0  0  0  0  0
   35.6190   25.1920   40.2230 H   0  0  0  0  0  0  0  0  0  0  0  0
   37.3440   25.1850   39.7080 H   0  0  0  0  0  0  0  0  0  0  0  0
   37.1990   29.6650   39.7460 C   0  0  0  0  0  0  0  0  0  0  0  0
   37.0470   30.9890   40.0030 N   0  0  0  0  0  0  0  0  0  0  0  0
   37.0490   31.6490   38.8130 C   0  0  0  0  0  0  0  0  0  0  0  0
   37.2020   30.7280   37.8450 N   0  0  0  0  0  0  0  0  0  0  0  0
   37.2940   29.5190   38.4040 N   0  0  0  0  0  0  0  0  0  0  0  0
   36.9440   32.7120   38.7370 H   0  0  0  0  0  0  0  0  0  0  0  0
   37.2600   30.9940   36.4070 C   0  0  0  0  0  0  0  0  0  0  0  0
   38.3050   30.8620   36.1150 H   0  0  0  0  0  0  0  0  0  0  0  0
   37.0080   32.0700   36.2710 H   0  0  0  0  0  0  0  0  0  0  0  0
   37.9630   28.3820   35.4700 N   0  0  0  0  0  0  0  0  0  0  0  0
   36.9440   29.0020   34.9260 C   0  0  0  0  0  0  0  0  0  0  0  0
   36.4210   30.1160   35.6650 N   0  0  0  0  0  0  0  0  0  0  0  0
   36.3370   28.6440   33.6670 N   0  0  0  0  0  0  0  0  0  0  0  0
   35.9410   27.7350   33.2940 H   0  0  0  0  0  0  0  0  0  0  0  0
   38.4290   27.5670   35.0380 H   0  0  0  0  0  0  0  0  0  0  0  0
   35.3680   30.2720   35.6420 H   0  0  0  0  0  0  0  0  0  0  0  0
   36.1830   29.2930   32.8640 H   0  0  0  0  0  0  0  0  0  0  0  0
  1  9  1  0  0  0  0
  1  2  1  0  0  0  0
  2  3  2  0  0  0  0
  2  7  1  0  0  0  0
  3  8  1  0  0  0  0
  4  3  1  0  0  0  0
  5  4  2  0  0  0  0
  6  5  1  0  0  0  0
  6  1  2  0  0  0  0
  9 10  1  0  0  0  0
  9 15  1  0  0  0  0
 10 16  1  0  0  0  0
 10 17  1  0  0  0  0
 11 19  1  0  0  0  0
 11 10  1  0  0  0  0
 12 21  1  0  0  0  0
 12 11  1  0  0  0  0
 13 14  1  0  0  0  0
 13 12  1  0  0  0  0
 13 23  1  0  0  0  0
 14  9  1  0  0  0  0
 18 11  1  0  0  0  0
 20 12  1  0  0  0  0
 22 13  1  0  0  0  0
 24 14  1  0  0  0  0
 25 14  1  0  0  0  0
 26 27  1  0  0  0  0
 26  5  1  0  0  0  0
 28 27  2  0  0  0  0
 29 30  1  0  0  0  0
 29 28  1  0  0  0  0
 30 26  2  0  0  0  0
 31 28  1  0  0  0  0
 32 29  1  0  0  0  0
 33 32  1  0  0  0  0
 34 32  1  0  0  0  0
 36 35  2  0  0  0  0
 36 37  1  0  0  0  0
 37 32  1  0  0  0  0
 38 36  1  0  0  0  0
 39 38  1  0  0  0  0
 40 35  1  0  0  0  0
 41 37  1  0  0  0  0
 42 38  1  0  0  0  0
M  END
>  <minimizedAffinity>
-5.38088179

$$$$

 OpenBabel03242519303D

 42 44  0  0  0  0  0  0  0  0999 V2000
   39.8550   33.2110   40.3140 C   0  0  0  0  0  0  0  0  0  0  0  0
   38.6670   33.8480   39.8470 C   0  0  0  0  0  0  0  0  0  0  0  0
   37.4350   33.1930   39.9580 C   0  0  0  0  0  0  0  0  0  0  0  0
   37.4620   31.9450   40.5290 N   0  0  0  0  0  0  0  0  0  0  0  0
   38.6330   31.3650   40.9670 C   0  0  0  0  0  0  0  0  0  0  0  0
   39.7820   32.0000   40.8520 N   0  0  0  0  0  0  0  0  0  0  0  0
   38.5750   34.8240   39.3910 H   0  0  0  0  0  0  0  0  0  0  0  0
   36.5170   33.6130   39.6300 H   0  0  0  0  0  0  0  0  0  0  0  0
   41.0850   33.9970   40.1400 C   0  0  0  0  0  0  0  0  0  0  0  0
   41.5120   34.1600   38.7630 C   0  0  0  0  0  0  0  0  0  0  0  0
   42.7670   33.4720   38.4100 C   0  0  0  0  0  0  0  0  0  0  0  0
   43.9110   33.8270   39.3580 C   0  0  0  0  0  0  0  0  0  0  0  0
   43.4910   34.0030   40.7870 C   0  0  0  0  0  0  0  0  0  0  0  0
   42.1510   33.3100   41.0350 C   0  0  0  0  0  0  0  0  0  0  0  0
   40.9260   34.9770   40.6810 H   0  0  0  0  0  0  0  0  0  0  0  0
   40.7220   33.8230   38.0720 H   0  0  0  0  0  0  0  0  0  0  0  0
   41.6550   35.2530   38.5470 H   0  0  0  0  0  0  0  0  0  0  0  0
   42.7290   32.3930   38.2420 H   0  0  0  0  0  0  0  0  0  0  0  0
   43.0950   33.8990   37.4160 H   0  0  0  0  0  0  0  0  0  0  0  0
   44.6410   32.9930   39.2760 H   0  0  0  0  0  0  0  0  0  0  0  0
   44.4830   34.7200   38.9900 H   0  0  0  0  0  0  0  0  0  0  0  0
   44.2090   33.6320   41.5230 H   0  0  0  0  0  0  0  0  0  0  0  0
   43.3080   35.1030   40.9190 H   0  0  0  0  0  0  0  0  0  0  0  0
   41.8770   33.3920   42.0900 H   0  0  0  0  0  0  0  0  0  0  0  0
   42.2720   32.2530   40.7540 H   0  0  0  0  0  0  0  0  0  0  0  0
   38.4720   30.0370   41.5450 C   0  0  0  0  0  0  0  0  0  0  0  0
   37.2160   29.6380   41.8680 N   0  0  0  0  0  0  0  0  0  0  0  0
   37.2950   28.3820   42.3860 C   0  0  0  0  0  0  0  0  0  0  0  0
   38.5920   28.0270   42.3740 N   0  0  0  0  0  0  0  0  0  0  0  0
   39.3140   29.0270   41.8640 N   0  0  0  0  0  0  0  0  0  0  0  0
   36.4380   27.8360   42.7220 H   0  0  0  0  0  0  0  0  0  0  0  0
   39.1380   26.7520   42.8420 C   0  0  0  0  0  0  0  0  0  0  0  0
   39.2630   26.8530   43.9230 H   0  0  0  0  0  0  0  0  0  0  0  0
   40.1540   26.6580   42.3960 H   0  0  0  0  0  0  0  0  0  0  0  0
   39.7240   23.9840   43.2760 N   0  0  0  0  0  0  0  0  0  0  0  0
   38.7680   24.3110   42.4400 C   0  0  0  0  0  0  0  0  0  0  0  0
   38.2810   25.6570   42.5400 N   0  0  0  0  0  0  0  0  0  0  0  0
   38.1950   23.4250   41.4550 N   0  0  0  0  0  0  0  0  0  0  0  0
   37.7620   22.4610   41.5220 H   0  0  0  0  0  0  0  0  0  0  0  0
   40.1580   23.0470   43.3040 H   0  0  0  0  0  0  0  0  0  0  0  0
   37.2410   25.8190   42.3780 H   0  0  0  0  0  0  0  0  0  0  0  0
   38.1150   23.6270   40.4350 H   0  0  0  0  0  0  0  0  0  0  0  0
  1  6  1  0  0  0  0
  2  3  1  0  0  0  0
  2  1  2  0  0  0  0
  3  4  2  0  0  0  0
  4  5  1  0  0  0  0
  5 26  1  0  0  0  0
  6  5  2  0  0  0  0
  7  2  1  0  0  0  0
  8  3  1  0  0  0  0
  9  1  1  0  0  0  0
  9 15  1  0  0  0  0
  9 14  1  0  0  0  0
 10  9  1  0  0  0  0
 11 10  1  0  0  0  0
 11 12  1  0  0  0  0
 12 13  1  0  0  0  0
 13 23  1  0  0  0  0
 13 14  1  0  0  0  0
 13 22  1  0  0  0  0
 14 24  1  0  0  0  0
 16 10  1  0  0  0  0
 17 10  1  0  0  0  0
 18 11  1  0  0  0  0
 19 11  1  0  0  0  0
 20 12  1  0  0  0  0
 21 12  1  0  0  0  0
 25 14  1  0  0  0  0
 26 30  2  0  0  0  0
 26 27  1  0  0  0  0
 27 28  2  0  0  0  0
 28 31  1  0  0  0  0
 29 28  1  0  0  0  0
 29 32  1  0  0  0  0
 30 29  1  0  0  0  0
 32 33  1  0  0  0  0
 34 32  1  0  0  0  0
 35 40  1  0  0  0  0
 36 37  1  0  0  0  0
 36 35  2  0  0  0  0
 37 32  1  0  0  0  0
 38 39  1  0  0  0  0
 38 36  1  0  0  0  0
 41 37  1  0  0  0  0
 42 38  1  0  0  0  0
M  END
>  <minimizedAffinity>
-5.28349304

$$$$
