
 OpenBabel03252507023D

 37 38  0  0  0  0  0  0  0  0999 V2000
   43.6010   33.3500   40.9340 C   0  0  0  0  0  0  0  0  0  0  0  0
   43.6030   32.6190   40.0800 H   0  0  0  0  0  0  0  0  0  0  0  0
   43.7870   32.7620   41.8450 H   0  0  0  0  0  0  0  0  0  0  0  0
   42.2890   34.0460   40.9540 C   0  0  0  0  0  0  0  0  0  0  0  0
   42.2120   35.4060   40.7390 C   0  0  0  0  0  0  0  0  0  0  0  0
   40.9350   36.0030   40.7830 C   0  0  0  0  0  0  0  0  0  0  0  0
   39.8470   35.2000   41.0370 N   0  0  0  0  0  0  0  0  0  0  0  0
   40.0030   33.8780   41.2360 C   0  0  0  0  0  0  0  0  0  0  0  0
   41.2000   33.3320   41.1920 N   0  0  0  0  0  0  0  0  0  0  0  0
   43.0780   35.9990   40.5460 H   0  0  0  0  0  0  0  0  0  0  0  0
   40.7970   37.0550   40.6260 H   0  0  0  0  0  0  0  0  0  0  0  0
   38.8000   32.1570   39.3660 N   0  0  0  0  0  0  0  0  0  0  0  0
   38.5130   31.9760   40.6300 C   0  0  0  0  0  0  0  0  0  0  0  0
   38.8630   33.0670   41.4970 N   0  0  0  0  0  0  0  0  0  0  0  0
   37.8930   30.8160   41.2220 N   0  0  0  0  0  0  0  0  0  0  0  0
   36.9180   30.7970   41.5920 H   0  0  0  0  0  0  0  0  0  0  0  0
   38.5480   31.3690   38.7310 H   0  0  0  0  0  0  0  0  0  0  0  0
   38.2550   33.2660   42.3460 H   0  0  0  0  0  0  0  0  0  0  0  0
   38.4600   29.9200   41.2870 H   0  0  0  0  0  0  0  0  0  0  0  0
   44.6410   34.3790   40.6120 C   0  0  0  0  0  0  0  0  0  0  0  0
   44.1850   35.3760   40.9210 H   0  0  0  0  0  0  0  0  0  0  0  0
   44.6520   34.5020   39.4950 H   0  0  0  0  0  0  0  0  0  0  0  0
   45.8530   34.0600   41.0550 N   0  0  0  0  0  0  0  0  0  0  0  0
   46.7840   33.1350   40.5180 C   0  0  0  0  0  0  0  0  0  0  0  0
   47.7450   34.1430   39.8370 C   0  0  0  0  0  0  0  0  0  0  0  0
   48.3680   35.0690   40.7860 C   0  0  0  0  0  0  0  0  0  0  0  0
   47.7030   35.3280   42.0630 C   0  0  0  0  0  0  0  0  0  0  0  0
   46.3110   34.8020   42.2340 C   0  0  0  0  0  0  0  0  0  0  0  0
   46.3110   32.5730   39.6860 H   0  0  0  0  0  0  0  0  0  0  0  0
   47.2850   32.4360   41.1620 H   0  0  0  0  0  0  0  0  0  0  0  0
   47.1290   34.6190   39.0350 H   0  0  0  0  0  0  0  0  0  0  0  0
   48.5210   33.5650   39.2930 H   0  0  0  0  0  0  0  0  0  0  0  0
   49.4170   34.7410   41.0300 H   0  0  0  0  0  0  0  0  0  0  0  0
   48.5120   36.0760   40.2980 H   0  0  0  0  0  0  0  0  0  0  0  0
   48.0850   35.8670   42.8860 H   0  0  0  0  0  0  0  0  0  0  0  0
   45.3730   35.1240   43.6990 S   0  0  0  0  0  0  0  0  0  0  0  0
   45.3160   33.9870   44.5510 H   0  0  0  0  0  0  0  0  0  0  0  0
  1  4  1  0  0  0  0
  1  3  1  0  0  0  0
  2  1  1  0  0  0  0
  4  9  1  0  0  0  0
  5  6  1  0  0  0  0
  5  4  2  0  0  0  0
  6  7  2  0  0  0  0
  7  8  1  0  0  0  0
  8 14  1  0  0  0  0
  9  8  2  0  0  0  0
 10  5  1  0  0  0  0
 11  6  1  0  0  0  0
 12 13  2  0  0  0  0
 13 15  1  0  0  0  0
 13 14  1  0  0  0  0
 14 18  1  0  0  0  0
 15 19  1  0  0  0  0
 15 16  1  0  0  0  0
 17 12  1  0  0  0  0
 20 21  1  0  0  0  0
 20  1  1  0  0  0  0
 20 23  1  0  0  0  0
 22 20  1  0  0  0  0
 23 28  1  0  0  0  0
 24 23  1  0  0  0  0
 24 30  1  0  0  0  0
 25 24  1  0  0  0  0
 25 26  1  0  0  0  0
 26 33  1  0  0  0  0
 26 27  1  0  0  0  0
 27 28  2  0  0  0  0
 27 35  1  0  0  0  0
 28 36  1  0  0  0  0
 29 24  1  0  0  0  0
 31 25  1  0  0  0  0
 32 25  1  0  0  0  0
 34 26  1  0  0  0  0
 36 37  1  0  0  0  0
M  END
>  <minimizedAffinity>
-5.39819098

>  <minimizedRMSD>
2.88118482

$$$$
