
 OpenBabel03252508453D

 44 45  0  0  0  0  0  0  0  0999 V2000
   43.0530   32.5430   41.6300 C   0  0  0  0  0  0  0  0  0  0  0  0
   43.6220   32.1260   40.7610 H   0  0  0  0  0  0  0  0  0  0  0  0
   42.1450   33.0110   41.2270 H   0  0  0  0  0  0  0  0  0  0  0  0
   43.6590   34.9650   41.8810 C   0  0  0  0  0  0  0  0  0  0  0  0
   43.9080   33.6370   42.1780 C   0  0  0  0  0  0  0  0  0  0  0  0
   44.9750   33.3470   43.0020 C   0  0  0  0  0  0  0  0  0  0  0  0
   45.7540   34.3540   43.5000 C   0  0  0  0  0  0  0  0  0  0  0  0
   45.5290   35.6670   43.2230 C   0  0  0  0  0  0  0  0  0  0  0  0
   44.4430   35.9190   42.3880 C   0  0  0  0  0  0  0  0  0  0  0  0
   45.1830   32.3000   43.2440 H   0  0  0  0  0  0  0  0  0  0  0  0
   46.5990   34.1250   44.1540 H   0  0  0  0  0  0  0  0  0  0  0  0
   46.0960   36.5270   43.5770 H   0  0  0  0  0  0  0  0  0  0  0  0
   44.1780   36.9440   42.1050 H   0  0  0  0  0  0  0  0  0  0  0  0
   40.2260   35.7940   40.5080 C   0  0  0  0  0  0  0  0  0  0  0  0
   41.2540   35.5850   41.4630 C   0  0  0  0  0  0  0  0  0  0  0  0
   42.5100   35.2130   41.0010 C   0  0  0  0  0  0  0  0  0  0  0  0
   42.6760   35.0730   39.6560 N   0  0  0  0  0  0  0  0  0  0  0  0
   41.6880   35.2750   38.7650 C   0  0  0  0  0  0  0  0  0  0  0  0
   40.4680   35.6360   39.2020 N   0  0  0  0  0  0  0  0  0  0  0  0
   39.2360   36.0870   40.8680 H   0  0  0  0  0  0  0  0  0  0  0  0
   41.1120   35.6990   42.5070 H   0  0  0  0  0  0  0  0  0  0  0  0
   41.9120   35.1400   37.7220 H   0  0  0  0  0  0  0  0  0  0  0  0
   42.7090   31.5260   42.5790 N   0  0  0  0  0  0  0  0  0  0  0  0
   42.9730   31.7950   43.5540 H   0  0  0  0  0  0  0  0  0  0  0  0
   41.0250   31.1610   42.5560 S   0  0  0  0  0  0  0  0  0  0  0  0
   40.2000   32.4220   42.4620 O   0  0  0  0  0  0  0  0  0  0  0  0
   39.3210   32.4330   42.0100 H   0  0  0  0  0  0  0  0  0  0  0  0
   40.6360   30.3710   43.7510 O   0  0  0  0  0  0  0  0  0  0  0  0
   41.2970   30.1600   44.4740 H   0  0  0  0  0  0  0  0  0  0  0  0
   40.7520   30.2290   41.1930 O   0  0  0  0  0  0  0  0  0  0  0  0
   39.8750   29.2100   41.5170 C   0  0  0  0  0  0  0  0  0  0  0  0
   39.4490   29.2740   42.5160 H   0  0  0  0  0  0  0  0  0  0  0  0
   39.0540   29.2660   40.7520 H   0  0  0  0  0  0  0  0  0  0  0  0
   40.5780   27.8670   41.2850 C   0  0  0  0  0  0  0  0  0  0  0  0
   40.8070   27.7210   40.2320 H   0  0  0  0  0  0  0  0  0  0  0  0
   41.5630   27.9270   41.8350 H   0  0  0  0  0  0  0  0  0  0  0  0
   38.9150   26.0960   39.7660 N   0  0  0  0  0  0  0  0  0  0  0  0
   38.9230   26.2050   41.0350 C   0  0  0  0  0  0  0  0  0  0  0  0
   39.8580   26.7870   41.9180 N   0  0  0  0  0  0  0  0  0  0  0  0
   37.6800   25.5520   41.3770 N   0  0  0  0  0  0  0  0  0  0  0  0
   36.7080   25.8720   41.6630 H   0  0  0  0  0  0  0  0  0  0  0  0
   39.6570   26.4460   39.1190 H   0  0  0  0  0  0  0  0  0  0  0  0
   39.8580   26.3420   42.8400 H   0  0  0  0  0  0  0  0  0  0  0  0
   37.4640   24.5110   41.4160 H   0  0  0  0  0  0  0  0  0  0  0  0
  1  5  1  0  0  0  0
  1 23  1  0  0  0  0
  2  1  1  0  0  0  0
  3  1  1  0  0  0  0
  4  5  2  0  0  0  0
  4  9  1  0  0  0  0
  5  6  1  0  0  0  0
  6 10  1  0  0  0  0
  6  7  2  0  0  0  0
  7 11  1  0  0  0  0
  8  7  1  0  0  0  0
  8 12  1  0  0  0  0
  9  8  2  0  0  0  0
 13  9  1  0  0  0  0
 14 20  1  0  0  0  0
 14 15  1  0  0  0  0
 15 21  1  0  0  0  0
 16 15  2  0  0  0  0
 16  4  1  0  0  0  0
 17 16  1  0  0  0  0
 18 19  1  0  0  0  0
 18 17  2  0  0  0  0
 19 14  2  0  0  0  0
 22 18  1  0  0  0  0
 23 24  1  0  0  0  0
 25 23  1  0  0  0  0
 25 28  1  0  0  0  0
 26 25  1  0  0  0  0
 27 26  1  0  0  0  0
 28 29  1  0  0  0  0
 30 31  1  0  0  0  0
 30 25  1  0  0  0  0
 31 32  1  0  0  0  0
 33 31  1  0  0  0  0
 34 31  1  0  0  0  0
 34 36  1  0  0  0  0
 34 39  1  0  0  0  0
 35 34  1  0  0  0  0
 37 38  2  0  0  0  0
 38 40  1  0  0  0  0
 38 39  1  0  0  0  0
 39 43  1  0  0  0  0
 40 44  1  0  0  0  0
 40 41  1  0  0  0  0
 42 37  1  0  0  0  0
M  END
>  <minimizedAffinity>
-4.74806547

>  <minimizedRMSD>
0.302037328

$$$$
