
 OpenBabel03252508453D

 44 45  0  0  0  0  0  0  0  0999 V2000
   43.0000   32.4720   41.6580 C   0  0  0  0  0  0  0  0  0  0  0  0
   43.5290   32.0790   40.7530 H   0  0  0  0  0  0  0  0  0  0  0  0
   42.0800   32.9600   41.3090 H   0  0  0  0  0  0  0  0  0  0  0  0
   43.6750   34.8760   41.9060 C   0  0  0  0  0  0  0  0  0  0  0  0
   43.8850   33.5420   42.2050 C   0  0  0  0  0  0  0  0  0  0  0  0
   44.9440   33.2210   43.0300 C   0  0  0  0  0  0  0  0  0  0  0  0
   45.7520   34.2070   43.5270 C   0  0  0  0  0  0  0  0  0  0  0  0
   45.5640   35.5250   43.2470 C   0  0  0  0  0  0  0  0  0  0  0  0
   44.4870   35.8070   42.4120 C   0  0  0  0  0  0  0  0  0  0  0  0
   45.1210   32.1700   43.2730 H   0  0  0  0  0  0  0  0  0  0  0  0
   46.5890   33.9540   44.1810 H   0  0  0  0  0  0  0  0  0  0  0  0
   46.1560   36.3680   43.6000 H   0  0  0  0  0  0  0  0  0  0  0  0
   44.2520   36.8390   42.1270 H   0  0  0  0  0  0  0  0  0  0  0  0
   40.2600   35.7720   40.5330 C   0  0  0  0  0  0  0  0  0  0  0  0
   41.2790   35.5310   41.4880 C   0  0  0  0  0  0  0  0  0  0  0  0
   42.5350   35.1550   41.0250 C   0  0  0  0  0  0  0  0  0  0  0  0
   42.7070   35.0440   39.6790 N   0  0  0  0  0  0  0  0  0  0  0  0
   41.7260   35.2770   38.7870 C   0  0  0  0  0  0  0  0  0  0  0  0
   40.5080   35.6400   39.2250 N   0  0  0  0  0  0  0  0  0  0  0  0
   39.2710   36.0670   40.8940 H   0  0  0  0  0  0  0  0  0  0  0  0
   41.1330   35.6220   42.5340 H   0  0  0  0  0  0  0  0  0  0  0  0
   41.9550   35.1630   37.7430 H   0  0  0  0  0  0  0  0  0  0  0  0
   42.6870   31.4270   42.5880 N   0  0  0  0  0  0  0  0  0  0  0  0
   42.9870   31.6650   43.5600 H   0  0  0  0  0  0  0  0  0  0  0  0
   41.0020   31.0670   42.6160 S   0  0  0  0  0  0  0  0  0  0  0  0
   40.1780   32.3230   42.4600 O   0  0  0  0  0  0  0  0  0  0  0  0
   39.2910   32.3100   42.0230 H   0  0  0  0  0  0  0  0  0  0  0  0
   40.6320   30.3520   43.8630 O   0  0  0  0  0  0  0  0  0  0  0  0
   41.3040   30.1820   44.5860 H   0  0  0  0  0  0  0  0  0  0  0  0
   40.7030   30.0550   41.3160 O   0  0  0  0  0  0  0  0  0  0  0  0
   39.9760   28.9650   41.7570 C   0  0  0  0  0  0  0  0  0  0  0  0
   39.6030   29.0460   42.7760 H   0  0  0  0  0  0  0  0  0  0  0  0
   39.1110   28.8740   41.0460 H   0  0  0  0  0  0  0  0  0  0  0  0
   40.8200   27.7010   41.5610 C   0  0  0  0  0  0  0  0  0  0  0  0
   40.7960   27.3690   40.5250 H   0  0  0  0  0  0  0  0  0  0  0  0
   41.8870   27.9950   41.7910 H   0  0  0  0  0  0  0  0  0  0  0  0
   39.4960   25.2730   40.8120 N   0  0  0  0  0  0  0  0  0  0  0  0
   39.6310   25.7110   42.0000 C   0  0  0  0  0  0  0  0  0  0  0  0
   40.4860   26.6950   42.5420 N   0  0  0  0  0  0  0  0  0  0  0  0
   38.6510   24.9160   42.7010 N   0  0  0  0  0  0  0  0  0  0  0  0
   37.6720   25.0800   43.0810 H   0  0  0  0  0  0  0  0  0  0  0  0
   40.0380   25.5930   39.9770 H   0  0  0  0  0  0  0  0  0  0  0  0
   40.7140   26.5200   43.5250 H   0  0  0  0  0  0  0  0  0  0  0  0
   38.7160   23.9000   43.0130 H   0  0  0  0  0  0  0  0  0  0  0  0
  1  5  1  0  0  0  0
  1 23  1  0  0  0  0
  2  1  1  0  0  0  0
  3  1  1  0  0  0  0
  4  5  2  0  0  0  0
  4  9  1  0  0  0  0
  5  6  1  0  0  0  0
  6 10  1  0  0  0  0
  6  7  2  0  0  0  0
  7 11  1  0  0  0  0
  8  7  1  0  0  0  0
  8 12  1  0  0  0  0
  9  8  2  0  0  0  0
 13  9  1  0  0  0  0
 14 20  1  0  0  0  0
 14 15  1  0  0  0  0
 15 21  1  0  0  0  0
 16 15  2  0  0  0  0
 16  4  1  0  0  0  0
 17 16  1  0  0  0  0
 18 19  1  0  0  0  0
 18 17  2  0  0  0  0
 19 14  2  0  0  0  0
 22 18  1  0  0  0  0
 23 25  1  0  0  0  0
 23 24  1  0  0  0  0
 25 28  1  0  0  0  0
 26 25  1  0  0  0  0
 27 26  1  0  0  0  0
 28 29  1  0  0  0  0
 30 31  1  0  0  0  0
 30 25  1  0  0  0  0
 31 32  1  0  0  0  0
 33 31  1  0  0  0  0
 34 31  1  0  0  0  0
 34 36  1  0  0  0  0
 34 39  1  0  0  0  0
 35 34  1  0  0  0  0
 37 38  2  0  0  0  0
 38 39  1  0  0  0  0
 38 40  1  0  0  0  0
 39 43  1  0  0  0  0
 40 44  1  0  0  0  0
 40 41  1  0  0  0  0
 42 37  1  0  0  0  0
M  END
>  <minimizedAffinity>
-4.87497282

>  <minimizedRMSD>
0.687017083

$$$$
