
 OpenBabel03252501293D

 37 38  0  0  0  0  0  0  0  0999 V2000
   46.3580   31.6670   46.9930 C   0  0  0  0  0  0  0  0  0  0  0  0
   45.2960   31.7640   47.8470 C   0  0  0  0  0  0  0  0  0  0  0  0
   44.7570   30.7150   48.5250 C   0  0  0  0  0  0  0  0  0  0  0  0
   45.2870   29.5000   48.3600 C   0  0  0  0  0  0  0  0  0  0  0  0
   46.3800   29.3360   47.4970 C   0  0  0  0  0  0  0  0  0  0  0  0
   46.9140   30.4240   46.8170 C   0  0  0  0  0  0  0  0  0  0  0  0
   44.9070   32.7920   47.9380 H   0  0  0  0  0  0  0  0  0  0  0  0
   43.9130   30.9400   49.1580 H   0  0  0  0  0  0  0  0  0  0  0  0
   46.7250   28.2920   47.4470 H   0  0  0  0  0  0  0  0  0  0  0  0
   44.2010   26.9690   47.3050 N   0  0  0  0  0  0  0  0  0  0  0  0
   44.6720   27.0870   48.4960 C   0  0  0  0  0  0  0  0  0  0  0  0
   44.7590   28.3450   49.0690 N   0  0  0  0  0  0  0  0  0  0  0  0
   45.0910   25.9080   49.2250 N   0  0  0  0  0  0  0  0  0  0  0  0
   45.1660   25.9610   50.2670 H   0  0  0  0  0  0  0  0  0  0  0  0
   43.8740   27.7340   46.7230 H   0  0  0  0  0  0  0  0  0  0  0  0
   44.4260   28.4500   50.0790 H   0  0  0  0  0  0  0  0  0  0  0  0
   45.3100   25.0360   48.6930 H   0  0  0  0  0  0  0  0  0  0  0  0
   49.1820   29.5940   46.8490 C   0  0  0  0  0  0  0  0  0  0  0  0
   49.6260   29.6780   48.0550 O   0  0  0  0  0  0  0  0  0  0  0  0
   48.0160   29.9110   46.0690 N   0  0  0  0  0  0  0  0  0  0  0  0
   50.0930   29.1250   46.4750 H   0  0  0  0  0  0  0  0  0  0  0  0
   48.1900   29.7020   45.0620 H   0  0  0  0  0  0  0  0  0  0  0  0
   47.0180   32.7020   46.1780 C   0  0  0  0  0  0  0  0  0  0  0  0
   46.8410   33.6720   46.6550 H   0  0  0  0  0  0  0  0  0  0  0  0
   48.1320   32.5490   46.1460 H   0  0  0  0  0  0  0  0  0  0  0  0
   46.5380   32.6480   44.7430 C   0  0  0  0  0  0  0  0  0  0  0  0
   47.3250   32.3590   44.0270 H   0  0  0  0  0  0  0  0  0  0  0  0
   45.7180   31.8920   44.6750 H   0  0  0  0  0  0  0  0  0  0  0  0
   44.5570   35.7180   44.9370 C   0  0  0  0  0  0  0  0  0  0  0  0
   44.8300   36.3480   43.7030 C   0  0  0  0  0  0  0  0  0  0  0  0
   45.6990   35.6790   42.8480 C   0  0  0  0  0  0  0  0  0  0  0  0
   46.2330   34.4960   43.2090 N   0  0  0  0  0  0  0  0  0  0  0  0
   45.9300   33.9470   44.4060 C   0  0  0  0  0  0  0  0  0  0  0  0
   45.1200   34.5270   45.2550 N   0  0  0  0  0  0  0  0  0  0  0  0
   43.8960   36.1560   45.6720 H   0  0  0  0  0  0  0  0  0  0  0  0
   44.3440   37.2930   43.5260 H   0  0  0  0  0  0  0  0  0  0  0  0
   45.9000   36.1680   41.9090 H   0  0  0  0  0  0  0  0  0  0  0  0
  1  2  1  0  0  0  0
  2  7  1  0  0  0  0
  2  3  2  0  0  0  0
  3  8  1  0  0  0  0
  4  3  1  0  0  0  0
  4 12  1  0  0  0  0
  5  4  2  0  0  0  0
  6  1  2  0  0  0  0
  6  5  1  0  0  0  0
  9  5  1  0  0  0  0
 10 11  2  0  0  0  0
 11 12  1  0  0  0  0
 11 13  1  0  0  0  0
 12 16  1  0  0  0  0
 13 14  1  0  0  0  0
 15 10  1  0  0  0  0
 17 13  1  0  0  0  0
 18 19  2  0  0  0  0
 20  6  1  0  0  0  0
 20 18  1  0  0  0  0
 21 18  1  0  0  0  0
 22 20  1  0  0  0  0
 23 24  1  0  0  0  0
 23  1  1  0  0  0  0
 25 23  1  0  0  0  0
 26 23  1  0  0  0  0
 27 26  1  0  0  0  0
 28 26  1  0  0  0  0
 29 34  1  0  0  0  0
 29 35  1  0  0  0  0
 30 29  2  0  0  0  0
 31 32  2  0  0  0  0
 31 30  1  0  0  0  0
 32 33  1  0  0  0  0
 33 26  1  0  0  0  0
 33 34  2  0  0  0  0
 36 30  1  0  0  0  0
 37 31  1  0  0  0  0
M  END
>  <minimizedAffinity>
-4.84181643

>  <minimizedRMSD>
0.962599039

$$$$
