
 OpenBabel03252509343D

 42 43  0  0  1  0  0  0  0  0999 V2000
   45.4220   34.3990   43.2660 C   0  0  1  0  0  0  0  0  0  0  0  0
   45.0960   35.8750   43.1240 C   0  0  0  0  0  0  0  0  0  0  0  0
   44.2070   35.8490   41.8810 C   0  0  0  0  0  0  0  0  0  0  0  0
   44.6590   34.6540   41.0790 C   0  0  0  0  0  0  0  0  0  0  0  0
   45.8270   34.0670   41.8490 C   0  0  1  0  0  0  0  0  0  0  0  0
   44.5080   33.8100   43.4800 H   0  0  0  0  0  0  0  0  0  0  0  0
   44.5090   36.2120   43.9870 H   0  0  0  0  0  0  0  0  0  0  0  0
   46.0090   36.4330   42.9490 H   0  0  0  0  0  0  0  0  0  0  0  0
   44.2420   36.7870   41.3260 H   0  0  0  0  0  0  0  0  0  0  0  0
   43.1750   35.6590   42.2280 H   0  0  0  0  0  0  0  0  0  0  0  0
   43.8750   33.9160   40.9130 H   0  0  0  0  0  0  0  0  0  0  0  0
   45.0960   35.0550   40.1340 H   0  0  0  0  0  0  0  0  0  0  0  0
   45.8460   32.9510   41.7020 H   0  0  0  0  0  0  0  0  0  0  0  0
   47.1430   34.6670   41.4500 C   0  0  0  0  0  0  0  0  0  0  0  0
   47.1670   35.7480   41.5440 H   0  0  0  0  0  0  0  0  0  0  0  0
   48.0020   34.1820   41.9490 H   0  0  0  0  0  0  0  0  0  0  0  0
   49.3010   33.3140   40.4840 N   0  0  0  0  0  0  0  0  0  0  0  0
   48.2820   33.4100   39.6710 C   0  0  0  0  0  0  0  0  0  0  0  0
   47.2950   34.3830   40.0150 N   0  0  0  0  0  0  0  0  0  0  0  0
   48.1580   32.5860   38.4930 N   0  0  0  0  0  0  0  0  0  0  0  0
   47.5900   31.7240   38.7270 H   0  0  0  0  0  0  0  0  0  0  0  0
   50.0820   32.6390   40.3340 H   0  0  0  0  0  0  0  0  0  0  0  0
   46.7510   34.8260   39.2540 H   0  0  0  0  0  0  0  0  0  0  0  0
   48.4040   32.4810   37.4690 H   0  0  0  0  0  0  0  0  0  0  0  0
   46.4580   34.1810   44.1700 O   0  0  0  0  0  0  0  0  0  0  0  0
   45.3000   33.6540   46.4300 O   0  0  0  0  0  0  0  0  0  0  0  0
   45.9950   32.9980   45.2710 P   0  0  1  0  0  0  0  0  0  0  0  0
   45.0200   31.8460   44.5410 O   0  0  0  0  0  0  0  0  0  0  0  0
   45.1120   31.7300   43.5910 H   0  0  0  0  0  0  0  0  0  0  0  0
   47.3610   32.1830   45.8110 O   0  0  0  0  0  0  0  0  0  0  0  0
   47.4730   31.0080   45.1290 C   0  0  0  0  0  0  0  0  0  0  0  0
   48.4760   31.0420   44.6180 H   0  0  0  0  0  0  0  0  0  0  0  0
   46.7630   30.7970   44.3380 H   0  0  0  0  0  0  0  0  0  0  0  0
   48.8340   28.2890   47.2680 C   0  0  0  0  0  0  0  0  0  0  0  0
   48.7860   29.4110   46.4240 C   0  0  0  0  0  0  0  0  0  0  0  0
   47.5420   29.8400   46.0210 C   0  0  0  0  0  0  0  0  0  0  0  0
   46.4510   29.1600   46.4590 N   0  0  0  0  0  0  0  0  0  0  0  0
   46.5180   28.0900   47.2660 C   0  0  0  0  0  0  0  0  0  0  0  0
   47.7220   27.6640   47.6640 N   0  0  0  0  0  0  0  0  0  0  0  0
   49.8300   27.9430   47.5890 H   0  0  0  0  0  0  0  0  0  0  0  0
   49.7120   29.8800   46.1310 H   0  0  0  0  0  0  0  0  0  0  0  0
   45.5710   27.6530   47.5340 H   0  0  0  0  0  0  0  0  0  0  0  0
  1  6  1  1  0  0  0
  1 25  1  0  0  0  0
  2  1  1  0  0  0  0
  2  7  1  0  0  0  0
  3 10  1  0  0  0  0
  3  2  1  0  0  0  0
  4  5  1  0  0  0  0
  4  3  1  0  0  0  0
  5 13  1  6  0  0  0
  5  1  1  0  0  0  0
  8  2  1  0  0  0  0
  9  3  1  0  0  0  0
 11  4  1  0  0  0  0
 12  4  1  0  0  0  0
 14 15  1  0  0  0  0
 14  5  1  0  0  0  0
 14 16  1  0  0  0  0
 18 19  1  0  0  0  0
 18 17  2  0  0  0  0
 19 14  1  0  0  0  0
 20 21  1  0  0  0  0
 20 18  1  0  0  0  0
 22 17  1  0  0  0  0
 23 19  1  0  0  0  0
 24 20  1  0  0  0  0
 25 27  1  0  0  0  0
 27 30  1  0  0  0  0
 27 26  2  1  0  0  0
 28 27  1  0  0  0  0
 29 28  1  0  0  0  0
 31 30  1  0  0  0  0
 31 36  1  0  0  0  0
 32 31  1  0  0  0  0
 33 31  1  0  0  0  0
 34 40  1  0  0  0  0
 34 39  1  0  0  0  0
 35 34  2  0  0  0  0
 36 35  1  0  0  0  0
 36 37  2  0  0  0  0
 37 38  1  0  0  0  0
 38 42  1  0  0  0  0
 38 39  2  0  0  0  0
 41 35  1  0  0  0  0
M  END
>  <minimizedAffinity>
-4.24178123

>  <minimizedRMSD>
3.45869112

$$$$
