
 OpenBabel03252509033D

 47 48  0  0  1  0  0  0  0  0999 V2000
   46.7040   34.4870   43.5790 N   0  0  0  0  0  0  0  0  0  0  0  0
   46.2290   35.5370   42.7610 C   0  0  0  0  0  0  0  0  0  0  0  0
   44.7200   35.7250   42.7820 C   0  0  0  0  0  0  0  0  0  0  0  0
   44.0790   35.4190   44.1150 C   0  0  0  0  0  0  0  0  0  0  0  0
   45.1170   35.0710   45.1700 C   0  0  0  0  0  0  0  0  0  0  0  0
   45.8950   33.8620   44.5110 C   0  0  2  0  0  0  0  0  0  0  0  0
   46.5200   35.5240   41.7080 H   0  0  0  0  0  0  0  0  0  0  0  0
   46.6480   36.4950   43.1780 H   0  0  0  0  0  0  0  0  0  0  0  0
   44.4680   36.7530   42.4640 H   0  0  0  0  0  0  0  0  0  0  0  0
   44.2380   35.0440   42.0350 H   0  0  0  0  0  0  0  0  0  0  0  0
   43.4870   36.2740   44.5080 H   0  0  0  0  0  0  0  0  0  0  0  0
   43.3790   34.5420   44.0670 H   0  0  0  0  0  0  0  0  0  0  0  0
   44.6130   34.6940   46.0600 H   0  0  0  0  0  0  0  0  0  0  0  0
   45.8280   35.8900   45.3410 H   0  0  0  0  0  0  0  0  0  0  0  0
   45.1180   33.1720   44.1570 H   0  0  0  0  0  0  0  0  0  0  0  0
   47.7910   33.7380   42.9980 C   0  0  0  0  0  0  0  0  0  0  0  0
   48.4140   34.4540   42.4180 H   0  0  0  0  0  0  0  0  0  0  0  0
   48.4640   33.3080   43.7670 H   0  0  0  0  0  0  0  0  0  0  0  0
   47.2110   32.6860   42.1060 C   0  0  0  0  0  0  0  0  0  0  0  0
   47.4720   31.7110   42.5160 H   0  0  0  0  0  0  0  0  0  0  0  0
   46.0930   32.7300   42.0860 H   0  0  0  0  0  0  0  0  0  0  0  0
   49.0570   31.9800   38.9130 C   0  0  0  0  0  0  0  0  0  0  0  0
   48.5230   31.8530   40.2070 C   0  0  0  0  0  0  0  0  0  0  0  0
   47.7580   32.8510   40.7410 C   0  0  0  0  0  0  0  0  0  0  0  0
   47.5500   33.9280   39.9840 N   0  0  0  0  0  0  0  0  0  0  0  0
   48.0490   34.0720   38.7460 C   0  0  0  0  0  0  0  0  0  0  0  0
   48.8080   33.1030   38.1920 N   0  0  0  0  0  0  0  0  0  0  0  0
   49.6710   31.1860   38.4790 H   0  0  0  0  0  0  0  0  0  0  0  0
   48.7720   30.9410   40.6910 H   0  0  0  0  0  0  0  0  0  0  0  0
   47.7930   34.9890   38.2700 H   0  0  0  0  0  0  0  0  0  0  0  0
   46.6140   33.3930   45.5980 O   0  0  0  0  0  0  0  0  0  0  0  0
   45.5990   31.0630   44.7910 O   0  0  0  0  0  0  0  0  0  0  0  0
   46.2390   31.8110   45.9820 P   0  0  2  0  0  0  0  0  0  0  0  0
   44.9680   31.8830   47.1390 O   0  0  0  0  0  0  0  0  0  0  0  0
   45.3630   32.4260   47.8910 H   0  0  0  0  0  0  0  0  0  0  0  0
   47.4800   30.9430   46.6480 O   0  0  0  0  0  0  0  0  0  0  0  0
   47.6640   29.7610   45.9620 C   0  0  0  0  0  0  0  0  0  0  0  0
   46.7920   29.5630   45.2950 H   0  0  0  0  0  0  0  0  0  0  0  0
   47.6170   28.9320   46.7170 H   0  0  0  0  0  0  0  0  0  0  0  0
   47.5790   29.3280   43.1530 N   0  0  0  0  0  0  0  0  0  0  0  0
   48.6510   29.5290   43.8410 C   0  0  0  0  0  0  0  0  0  0  0  0
   48.9210   29.6670   45.2520 N   0  0  0  0  0  0  0  0  0  0  0  0
   49.6720   29.6020   42.8240 N   0  0  0  0  0  0  0  0  0  0  0  0
   50.3240   30.4130   42.7300 H   0  0  0  0  0  0  0  0  0  0  0  0
   46.6340   29.2220   43.5480 H   0  0  0  0  0  0  0  0  0  0  0  0
   49.9510   29.6660   45.4240 H   0  0  0  0  0  0  0  0  0  0  0  0
   49.9090   28.9180   42.0780 H   0  0  0  0  0  0  0  0  0  0  0  0
  1  6  1  0  0  0  0
  2  3  1  0  0  0  0
  2  8  1  0  0  0  0
  2  1  1  0  0  0  0
  3  4  1  0  0  0  0
  4 11  1  0  0  0  0
  4  5  1  0  0  0  0
  5 14  1  0  0  0  0
  5 13  1  0  0  0  0
  6 15  1  6  0  0  0
  6  5  1  0  0  0  0
  6 31  1  0  0  0  0
  7  2  1  0  0  0  0
  9  3  1  0  0  0  0
 10  3  1  0  0  0  0
 12  4  1  0  0  0  0
 16  1  1  0  0  0  0
 16 18  1  0  0  0  0
 17 16  1  0  0  0  0
 19 20  1  0  0  0  0
 19 16  1  0  0  0  0
 21 19  1  0  0  0  0
 22 23  1  0  0  0  0
 23 29  1  0  0  0  0
 23 24  2  0  0  0  0
 24 19  1  0  0  0  0
 25 24  1  0  0  0  0
 26 25  2  0  0  0  0
 27 26  1  0  0  0  0
 27 22  2  0  0  0  0
 28 22  1  0  0  0  0
 30 26  1  0  0  0  0
 31 33  1  0  0  0  0
 33 32  2  6  0  0  0
 33 36  1  0  0  0  0
 33 34  1  0  0  0  0
 34 35  1  0  0  0  0
 37 36  1  0  0  0  0
 37 39  1  0  0  0  0
 38 37  1  0  0  0  0
 40 45  1  0  0  0  0
 40 41  2  0  0  0  0
 41 42  1  0  0  0  0
 42 46  1  0  0  0  0
 42 37  1  0  0  0  0
 43 41  1  0  0  0  0
 44 43  1  0  0  0  0
 47 43  1  0  0  0  0
M  END
>  <minimizedAffinity>
-3.80648375

>  <minimizedRMSD>
1.40143788

$$$$
