
 OpenBabel03252508453D

 44 45  0  0  0  0  0  0  0  0999 V2000
   42.9940   32.4700   41.6570 C   0  0  0  0  0  0  0  0  0  0  0  0
   43.5160   32.0870   40.7430 H   0  0  0  0  0  0  0  0  0  0  0  0
   42.0680   32.9560   41.3210 H   0  0  0  0  0  0  0  0  0  0  0  0
   43.6690   34.8750   41.9030 C   0  0  0  0  0  0  0  0  0  0  0  0
   43.8800   33.5410   42.2020 C   0  0  0  0  0  0  0  0  0  0  0  0
   44.9400   33.2210   43.0250 C   0  0  0  0  0  0  0  0  0  0  0  0
   45.7480   34.2070   43.5210 C   0  0  0  0  0  0  0  0  0  0  0  0
   45.5600   35.5260   43.2410 C   0  0  0  0  0  0  0  0  0  0  0  0
   44.4810   35.8070   42.4070 C   0  0  0  0  0  0  0  0  0  0  0  0
   45.1180   32.1700   43.2680 H   0  0  0  0  0  0  0  0  0  0  0  0
   46.5870   33.9550   44.1730 H   0  0  0  0  0  0  0  0  0  0  0  0
   46.1520   36.3690   43.5930 H   0  0  0  0  0  0  0  0  0  0  0  0
   44.2450   36.8380   42.1230 H   0  0  0  0  0  0  0  0  0  0  0  0
   40.2520   35.7730   40.5340 C   0  0  0  0  0  0  0  0  0  0  0  0
   41.2730   35.5320   41.4880 C   0  0  0  0  0  0  0  0  0  0  0  0
   42.5270   35.1530   41.0230 C   0  0  0  0  0  0  0  0  0  0  0  0
   42.6960   35.0370   39.6770 N   0  0  0  0  0  0  0  0  0  0  0  0
   41.7140   35.2690   38.7860 C   0  0  0  0  0  0  0  0  0  0  0  0
   40.4970   35.6360   39.2260 N   0  0  0  0  0  0  0  0  0  0  0  0
   39.2640   36.0710   40.8970 H   0  0  0  0  0  0  0  0  0  0  0  0
   41.1290   35.6270   42.5340 H   0  0  0  0  0  0  0  0  0  0  0  0
   41.9400   35.1510   37.7420 H   0  0  0  0  0  0  0  0  0  0  0  0
   42.6970   31.4170   42.5810 N   0  0  0  0  0  0  0  0  0  0  0  0
   43.0180   31.6440   43.5500 H   0  0  0  0  0  0  0  0  0  0  0  0
   41.0120   31.0620   42.6400 S   0  0  0  0  0  0  0  0  0  0  0  0
   40.1890   32.3170   42.4760 O   0  0  0  0  0  0  0  0  0  0  0  0
   39.2960   32.3000   42.0520 H   0  0  0  0  0  0  0  0  0  0  0  0
   40.6580   30.3690   43.9040 O   0  0  0  0  0  0  0  0  0  0  0  0
   41.3410   30.2100   44.6200 H   0  0  0  0  0  0  0  0  0  0  0  0
   40.6920   30.0300   41.3620 O   0  0  0  0  0  0  0  0  0  0  0  0
   39.3380   29.7480   41.3440 C   0  0  0  0  0  0  0  0  0  0  0  0
   38.7310   30.3770   41.9930 H   0  0  0  0  0  0  0  0  0  0  0  0
   39.0160   29.8880   40.2760 H   0  0  0  0  0  0  0  0  0  0  0  0
   39.1430   28.2600   41.6530 C   0  0  0  0  0  0  0  0  0  0  0  0
   39.5900   27.6360   40.8810 H   0  0  0  0  0  0  0  0  0  0  0  0
   39.7090   28.0600   42.6110 H   0  0  0  0  0  0  0  0  0  0  0  0
   37.5400   26.6360   39.9200 N   0  0  0  0  0  0  0  0  0  0  0  0
   37.1050   27.3690   40.8670 C   0  0  0  0  0  0  0  0  0  0  0  0
   37.7630   27.9690   41.9630 N   0  0  0  0  0  0  0  0  0  0  0  0
   35.7000   27.4400   40.5390 N   0  0  0  0  0  0  0  0  0  0  0  0
   35.0610   28.1650   40.0960 H   0  0  0  0  0  0  0  0  0  0  0  0
   38.5320   26.3340   39.7880 H   0  0  0  0  0  0  0  0  0  0  0  0
   37.1480   28.0880   42.7720 H   0  0  0  0  0  0  0  0  0  0  0  0
   34.9420   26.7080   40.6870 H   0  0  0  0  0  0  0  0  0  0  0  0
  1  5  1  0  0  0  0
  1 23  1  0  0  0  0
  2  1  1  0  0  0  0
  3  1  1  0  0  0  0
  4  5  2  0  0  0  0
  4  9  1  0  0  0  0
  5  6  1  0  0  0  0
  6 10  1  0  0  0  0
  6  7  2  0  0  0  0
  7 11  1  0  0  0  0
  8  7  1  0  0  0  0
  8 12  1  0  0  0  0
  9  8  2  0  0  0  0
 13  9  1  0  0  0  0
 14 20  1  0  0  0  0
 14 15  1  0  0  0  0
 15 21  1  0  0  0  0
 16 15  2  0  0  0  0
 16  4  1  0  0  0  0
 17 16  1  0  0  0  0
 18 19  1  0  0  0  0
 18 17  2  0  0  0  0
 19 14  2  0  0  0  0
 22 18  1  0  0  0  0
 23 25  1  0  0  0  0
 23 24  1  0  0  0  0
 25 28  1  0  0  0  0
 26 25  1  0  0  0  0
 27 26  1  0  0  0  0
 28 29  1  0  0  0  0
 30 25  1  0  0  0  0
 31 30  1  0  0  0  0
 31 34  1  0  0  0  0
 31 32  1  0  0  0  0
 33 31  1  0  0  0  0
 34 39  1  0  0  0  0
 34 36  1  0  0  0  0
 35 34  1  0  0  0  0
 37 38  2  0  0  0  0
 38 39  1  0  0  0  0
 39 43  1  0  0  0  0
 40 44  1  0  0  0  0
 40 38  1  0  0  0  0
 41 40  1  0  0  0  0
 42 37  1  0  0  0  0
M  END
>  <minimizedAffinity>
-5.27527046

>  <minimizedRMSD>
1.32324195

$$$$
