
 OpenBabel03252506173D

 22 22  0  0  0  0  0  0  0  0999 V2000
   44.9030   35.7010   44.0410 C   0  0  0  0  0  0  0  0  0  0  0  0
   44.6260   35.3040   42.7190 C   0  0  0  0  0  0  0  0  0  0  0  0
   44.7070   33.9310   42.4360 C   0  0  0  0  0  0  0  0  0  0  0  0
   45.0440   33.0690   43.4400 N   0  0  0  0  0  0  0  0  0  0  0  0
   45.3020   33.4870   44.6940 C   0  0  0  0  0  0  0  0  0  0  0  0
   45.2210   34.7970   44.9550 N   0  0  0  0  0  0  0  0  0  0  0  0
   44.3640   35.9950   41.9440 H   0  0  0  0  0  0  0  0  0  0  0  0
   44.5110   33.5400   41.4460 H   0  0  0  0  0  0  0  0  0  0  0  0
   44.6630   33.8250   47.4890 N   0  0  0  0  0  0  0  0  0  0  0  0
   45.5990   33.0470   47.1010 C   0  0  0  0  0  0  0  0  0  0  0  0
   45.6520   32.6040   45.7490 N   0  0  0  0  0  0  0  0  0  0  0  0
   46.5830   32.6270   48.0390 N   0  0  0  0  0  0  0  0  0  0  0  0
   47.6150   32.6470   48.2110 H   0  0  0  0  0  0  0  0  0  0  0  0
   43.8870   34.2140   46.9560 H   0  0  0  0  0  0  0  0  0  0  0  0
   45.9550   31.6280   45.5570 H   0  0  0  0  0  0  0  0  0  0  0  0
   46.4000   32.1020   48.9310 H   0  0  0  0  0  0  0  0  0  0  0  0
   44.8200   37.1220   44.3520 C   0  0  0  0  0  0  0  0  0  0  0  0
   45.4360   37.9930   43.5790 C   0  0  0  0  0  0  0  0  0  0  0  0
   45.3780   39.4440   43.8570 C   0  0  0  0  0  0  0  0  0  0  0  0
   46.2780   39.8120   44.4050 H   0  0  0  0  0  0  0  0  0  0  0  0
   45.2700   39.9690   42.8770 H   0  0  0  0  0  0  0  0  0  0  0  0
   44.4430   39.6870   44.4160 H   0  0  0  0  0  0  0  0  0  0  0  0
  1 17  1  0  0  0  0
  1  6  1  0  0  0  0
  2  1  2  0  0  0  0
  3  2  1  0  0  0  0
  3  4  2  0  0  0  0
  4  5  1  0  0  0  0
  5  6  2  0  0  0  0
  5 11  1  0  0  0  0
  7  2  1  0  0  0  0
  8  3  1  0  0  0  0
 10  9  2  0  0  0  0
 10 12  1  0  0  0  0
 11 10  1  0  0  0  0
 12 13  1  0  0  0  0
 12 16  1  0  0  0  0
 14  9  1  0  0  0  0
 15 11  1  0  0  0  0
 18 19  1  0  0  0  0
 18 17  2  0  0  0  0
 19 20  1  0  0  0  0
 19 22  1  0  0  0  0
 21 19  1  0  0  0  0
M  END
>  <minimizedAffinity>
-4.3948617

>  <minimizedRMSD>
1.23820245

$$$$
