
 OpenBabel03252503393D

 40 42  0  0  1  0  0  0  0  0999 V2000
   37.9120   28.0180   39.3980 C   0  0  1  0  0  0  0  0  0  0  0  0
   38.0360   27.5980   37.8540 C   0  0  0  0  0  0  0  0  0  0  0  0
   37.8380   28.8190   37.0130 C   0  0  0  0  0  0  0  0  0  0  0  0
   36.4180   29.3070   37.0470 C   0  0  0  0  0  0  0  0  0  0  0  0
   35.8230   28.9580   38.3820 C   0  0  0  0  0  0  0  0  0  0  0  0
   36.8540   29.0220   39.4990 C   0  0  2  0  0  0  0  0  0  0  0  0
   38.9420   28.3750   39.5590 H   0  0  0  0  0  0  0  0  0  0  0  0
   37.1910   26.9030   37.6540 H   0  0  0  0  0  0  0  0  0  0  0  0
   39.0290   27.1740   37.7030 H   0  0  0  0  0  0  0  0  0  0  0  0
   38.1440   28.5490   35.9850 H   0  0  0  0  0  0  0  0  0  0  0  0
   38.5080   29.6480   37.3310 H   0  0  0  0  0  0  0  0  0  0  0  0
   36.3270   30.3710   36.7640 H   0  0  0  0  0  0  0  0  0  0  0  0
   35.8730   28.7000   36.2670 H   0  0  0  0  0  0  0  0  0  0  0  0
   34.9930   29.6290   38.5960 H   0  0  0  0  0  0  0  0  0  0  0  0
   35.4620   27.9110   38.3640 H   0  0  0  0  0  0  0  0  0  0  0  0
   36.2370   28.7150   40.3980 H   0  0  0  0  0  0  0  0  0  0  0  0
   37.6340   26.7250   40.1000 C   0  0  0  0  0  0  0  0  0  0  0  0
   37.1350   26.5020   41.3830 C   0  0  0  0  0  0  0  0  0  0  0  0
   36.9880   25.1920   41.7640 C   0  0  0  0  0  0  0  0  0  0  0  0
   37.3240   24.1790   40.8870 N   0  0  0  0  0  0  0  0  0  0  0  0
   37.8000   24.4380   39.6540 C   0  0  0  0  0  0  0  0  0  0  0  0
   37.9540   25.7360   39.2650 N   0  0  0  0  0  0  0  0  0  0  0  0
   36.6060   25.0040   42.7530 H   0  0  0  0  0  0  0  0  0  0  0  0
   38.0240   23.5540   39.0690 H   0  0  0  0  0  0  0  0  0  0  0  0
   36.6940   27.5920   42.2980 C   0  0  0  0  0  0  0  0  0  0  0  0
   36.5650   27.4610   43.6800 C   0  0  0  0  0  0  0  0  0  0  0  0
   37.8390   28.0910   43.3280 C   0  0  0  0  0  0  0  0  0  0  0  0
   36.5390   28.5380   41.6790 H   0  0  0  0  0  0  0  0  0  0  0  0
   35.8450   28.1570   44.2120 H   0  0  0  0  0  0  0  0  0  0  0  0
   36.5480   26.4730   44.1870 H   0  0  0  0  0  0  0  0  0  0  0  0
   38.7380   27.4400   43.2840 H   0  0  0  0  0  0  0  0  0  0  0  0
   38.0140   29.1590   43.3580 H   0  0  0  0  0  0  0  0  0  0  0  0
   35.7250   30.8620   41.3680 N   0  0  0  0  0  0  0  0  0  0  0  0
   36.5790   31.3490   40.5080 C   0  0  0  0  0  0  0  0  0  0  0  0
   37.3020   30.3650   39.7850 N   0  0  0  0  0  0  0  0  0  0  0  0
   36.8410   32.7410   40.2380 N   0  0  0  0  0  0  0  0  0  0  0  0
   37.0320   33.4760   40.9580 H   0  0  0  0  0  0  0  0  0  0  0  0
   35.1770   31.5680   41.9170 H   0  0  0  0  0  0  0  0  0  0  0  0
   38.2670   30.5970   39.4020 H   0  0  0  0  0  0  0  0  0  0  0  0
   36.8540   33.1000   39.2610 H   0  0  0  0  0  0  0  0  0  0  0  0
  1  6  1  0  0  0  0
  1  7  1  1  0  0  0
  1 17  1  0  0  0  0
  2  1  1  0  0  0  0
  3  4  1  0  0  0  0
  3 11  1  0  0  0  0
  3  2  1  0  0  0  0
  4  5  1  0  0  0  0
  5 14  1  0  0  0  0
  5  6  1  0  0  0  0
  6 35  1  0  0  0  0
  6 16  1  1  0  0  0
  8  2  1  0  0  0  0
  9  2  1  0  0  0  0
 10  3  1  0  0  0  0
 12  4  1  0  0  0  0
 13  4  1  0  0  0  0
 15  5  1  0  0  0  0
 17 18  1  0  0  0  0
 18 19  2  0  0  0  0
 18 25  1  0  0  0  0
 19 23  1  0  0  0  0
 20 19  1  0  0  0  0
 21 20  2  0  0  0  0
 22 21  1  0  0  0  0
 22 17  2  0  0  0  0
 24 21  1  0  0  0  0
 25 27  1  0  0  0  0
 25 26  1  0  0  0  0
 26 30  1  0  0  0  0
 26 29  1  0  0  0  0
 27 32  1  0  0  0  0
 27 26  1  0  0  0  0
 28 25  1  0  0  0  0
 31 27  1  0  0  0  0
 33 38  1  0  0  0  0
 34 33  2  0  0  0  0
 35 34  1  0  0  0  0
 36 34  1  0  0  0  0
 36 37  1  0  0  0  0
 39 35  1  0  0  0  0
 40 36  1  0  0  0  0
M  END
>  <minimizedAffinity>
-5.77402544

$$$$

 OpenBabel03252503393D

 40 42  0  0  1  0  0  0  0  0999 V2000
   37.7470   31.8930   37.9050 C   0  0  1  0  0  0  0  0  0  0  0  0
   37.0440   32.4630   39.2310 C   0  0  0  0  0  0  0  0  0  0  0  0
   37.9430   33.4920   39.8390 C   0  0  0  0  0  0  0  0  0  0  0  0
   39.1820   32.8840   40.4310 C   0  0  0  0  0  0  0  0  0  0  0  0
   39.5330   31.6510   39.6470 C   0  0  0  0  0  0  0  0  0  0  0  0
   39.1810   31.7940   38.1730 C   0  0  2  0  0  0  0  0  0  0  0  0
   37.4330   32.6780   37.1980 H   0  0  0  0  0  0  0  0  0  0  0  0
   36.9750   31.6070   39.9370 H   0  0  0  0  0  0  0  0  0  0  0  0
   36.0880   32.8990   38.9400 H   0  0  0  0  0  0  0  0  0  0  0  0
   37.3470   34.0170   40.6090 H   0  0  0  0  0  0  0  0  0  0  0  0
   38.2430   34.2630   39.0960 H   0  0  0  0  0  0  0  0  0  0  0  0
   40.0040   33.6150   40.5370 H   0  0  0  0  0  0  0  0  0  0  0  0
   38.8880   32.5510   41.4680 H   0  0  0  0  0  0  0  0  0  0  0  0
   40.5930   31.4380   39.7620 H   0  0  0  0  0  0  0  0  0  0  0  0
   38.9360   30.7950   40.0180 H   0  0  0  0  0  0  0  0  0  0  0  0
   39.4910   30.7850   37.7640 H   0  0  0  0  0  0  0  0  0  0  0  0
   37.0510   30.5890   37.6630 C   0  0  0  0  0  0  0  0  0  0  0  0
   36.4300   29.7320   38.5720 C   0  0  0  0  0  0  0  0  0  0  0  0
   35.8730   28.5910   38.0560 C   0  0  0  0  0  0  0  0  0  0  0  0
   35.9420   28.3450   36.6990 N   0  0  0  0  0  0  0  0  0  0  0  0
   36.5490   29.2010   35.8530 C   0  0  0  0  0  0  0  0  0  0  0  0
   37.1090   30.3380   36.3550 N   0  0  0  0  0  0  0  0  0  0  0  0
   35.3930   27.9180   38.7460 H   0  0  0  0  0  0  0  0  0  0  0  0
   36.5310   28.8890   34.8160 H   0  0  0  0  0  0  0  0  0  0  0  0
   36.2830   30.0370   40.0240 C   0  0  0  0  0  0  0  0  0  0  0  0
   35.7850   29.1450   40.9710 C   0  0  0  0  0  0  0  0  0  0  0  0
   37.2490   29.1600   40.9820 C   0  0  0  0  0  0  0  0  0  0  0  0
   36.6910   31.0850   40.2130 H   0  0  0  0  0  0  0  0  0  0  0  0
   35.3190   29.5770   41.9110 H   0  0  0  0  0  0  0  0  0  0  0  0
   35.2340   28.2210   40.6920 H   0  0  0  0  0  0  0  0  0  0  0  0
   37.7740   28.3640   40.4120 H   0  0  0  0  0  0  0  0  0  0  0  0
   37.8420   29.7200   41.6930 H   0  0  0  0  0  0  0  0  0  0  0  0
   41.6400   31.3000   36.8100 N   0  0  0  0  0  0  0  0  0  0  0  0
   41.3410   32.5490   37.0470 C   0  0  0  0  0  0  0  0  0  0  0  0
   40.0060   32.7560   37.4800 N   0  0  0  0  0  0  0  0  0  0  0  0
   42.2120   33.6910   36.9120 N   0  0  0  0  0  0  0  0  0  0  0  0
   42.8020   33.9120   36.0770 H   0  0  0  0  0  0  0  0  0  0  0  0
   42.6210   31.1190   36.4870 H   0  0  0  0  0  0  0  0  0  0  0  0
   39.5310   33.6910   37.2980 H   0  0  0  0  0  0  0  0  0  0  0  0
   42.2980   34.3870   37.6800 H   0  0  0  0  0  0  0  0  0  0  0  0
  1  7  1  6  0  0  0
  1  6  1  0  0  0  0
  1  2  1  0  0  0  0
  2  3  1  0  0  0  0
  2  8  1  0  0  0  0
  3  4  1  0  0  0  0
  3 10  1  0  0  0  0
  4 12  1  0  0  0  0
  4 13  1  0  0  0  0
  5 14  1  0  0  0  0
  5 15  1  0  0  0  0
  5  4  1  0  0  0  0
  6 16  1  6  0  0  0
  6  5  1  0  0  0  0
  9  2  1  0  0  0  0
 11  3  1  0  0  0  0
 17  1  1  0  0  0  0
 17 18  1  0  0  0  0
 18 25  1  0  0  0  0
 19 18  2  0  0  0  0
 19 23  1  0  0  0  0
 20 19  1  0  0  0  0
 21 22  1  0  0  0  0
 21 20  2  0  0  0  0
 22 17  2  0  0  0  0
 24 21  1  0  0  0  0
 25 28  1  0  0  0  0
 25 26  1  0  0  0  0
 25 27  1  0  0  0  0
 26 27  1  0  0  0  0
 26 29  1  0  0  0  0
 27 32  1  0  0  0  0
 30 26  1  0  0  0  0
 31 27  1  0  0  0  0
 33 34  2  0  0  0  0
 34 35  1  0  0  0  0
 35  6  1  0  0  0  0
 36 34  1  0  0  0  0
 36 40  1  0  0  0  0
 37 36  1  0  0  0  0
 38 33  1  0  0  0  0
 39 35  1  0  0  0  0
M  END
>  <minimizedAffinity>
-5.47825909

$$$$

 OpenBabel03252503393D

 40 42  0  0  1  0  0  0  0  0999 V2000
   38.4260   31.4280   38.5820 C   0  0  1  0  0  0  0  0  0  0  0  0
   37.2060   32.0370   39.4290 C   0  0  0  0  0  0  0  0  0  0  0  0
   37.4600   33.4950   39.6440 C   0  0  0  0  0  0  0  0  0  0  0  0
   38.5970   33.7380   40.5950 C   0  0  0  0  0  0  0  0  0  0  0  0
   39.5750   32.6050   40.4720 C   0  0  0  0  0  0  0  0  0  0  0  0
   39.6530   32.0700   39.0500 C   0  0  2  0  0  0  0  0  0  0  0  0
   38.0830   31.7020   37.5710 H   0  0  0  0  0  0  0  0  0  0  0  0
   37.2350   31.5340   40.4200 H   0  0  0  0  0  0  0  0  0  0  0  0
   36.2910   31.8780   38.8570 H   0  0  0  0  0  0  0  0  0  0  0  0
   36.5170   33.9280   40.0270 H   0  0  0  0  0  0  0  0  0  0  0  0
   37.6770   34.0180   38.6870 H   0  0  0  0  0  0  0  0  0  0  0  0
   39.0380   34.7450   40.4810 H   0  0  0  0  0  0  0  0  0  0  0  0
   38.1430   33.6810   41.6270 H   0  0  0  0  0  0  0  0  0  0  0  0
   40.5570   32.9360   40.8040 H   0  0  0  0  0  0  0  0  0  0  0  0
   39.2360   31.7550   41.0960 H   0  0  0  0  0  0  0  0  0  0  0  0
   40.4050   31.2310   39.1600 H   0  0  0  0  0  0  0  0  0  0  0  0
   38.3390   29.9540   38.8390 C   0  0  0  0  0  0  0  0  0  0  0  0
   37.2180   29.1250   38.8760 C   0  0  0  0  0  0  0  0  0  0  0  0
   37.4450   27.7990   39.1420 C   0  0  0  0  0  0  0  0  0  0  0  0
   38.7350   27.3510   39.3500 N   0  0  0  0  0  0  0  0  0  0  0  0
   39.7920   28.1860   39.3020 C   0  0  0  0  0  0  0  0  0  0  0  0
   39.5790   29.5070   39.0410 N   0  0  0  0  0  0  0  0  0  0  0  0
   36.5890   27.1470   39.1780 H   0  0  0  0  0  0  0  0  0  0  0  0
   40.7470   27.7060   39.4820 H   0  0  0  0  0  0  0  0  0  0  0  0
   35.8360   29.5920   38.5700 C   0  0  0  0  0  0  0  0  0  0  0  0
   34.7440   28.7500   38.3700 C   0  0  0  0  0  0  0  0  0  0  0  0
   34.7600   29.2740   39.7370 C   0  0  0  0  0  0  0  0  0  0  0  0
   35.8320   30.7320   38.5830 H   0  0  0  0  0  0  0  0  0  0  0  0
   33.8830   29.1400   37.7430 H   0  0  0  0  0  0  0  0  0  0  0  0
   34.8560   27.6600   38.1840 H   0  0  0  0  0  0  0  0  0  0  0  0
   35.1960   28.6280   40.5280 H   0  0  0  0  0  0  0  0  0  0  0  0
   34.1630   30.1130   40.0690 H   0  0  0  0  0  0  0  0  0  0  0  0
   41.4330   31.4660   36.9010 N   0  0  0  0  0  0  0  0  0  0  0  0
   41.3320   32.7230   37.2440 C   0  0  0  0  0  0  0  0  0  0  0  0
   40.2540   33.0010   38.1230 N   0  0  0  0  0  0  0  0  0  0  0  0
   42.1840   33.8090   36.8250 N   0  0  0  0  0  0  0  0  0  0  0  0
   42.4600   34.0210   35.8390 H   0  0  0  0  0  0  0  0  0  0  0  0
   42.2220   31.2330   36.2510 H   0  0  0  0  0  0  0  0  0  0  0  0
   39.8180   33.9720   38.1310 H   0  0  0  0  0  0  0  0  0  0  0  0
   42.5870   34.4670   37.5230 H   0  0  0  0  0  0  0  0  0  0  0  0
  1  7  1  6  0  0  0
  1 17  1  0  0  0  0
  1  6  1  0  0  0  0
  1  2  1  0  0  0  0
  2  3  1  0  0  0  0
  2  8  1  0  0  0  0
  3 10  1  0  0  0  0
  3  4  1  0  0  0  0
  4 13  1  0  0  0  0
  5  4  1  0  0  0  0
  5 14  1  0  0  0  0
  5 15  1  0  0  0  0
  6 16  1  1  0  0  0
  6  5  1  0  0  0  0
  9  2  1  0  0  0  0
 11  3  1  0  0  0  0
 12  4  1  0  0  0  0
 17 18  2  0  0  0  0
 17 22  1  0  0  0  0
 18 19  1  0  0  0  0
 19 23  1  0  0  0  0
 19 20  2  0  0  0  0
 21 20  1  0  0  0  0
 21 24  1  0  0  0  0
 22 21  2  0  0  0  0
 25 28  1  0  0  0  0
 25 18  1  0  0  0  0
 25 27  1  0  0  0  0
 26 25  1  0  0  0  0
 26 27  1  0  0  0  0
 27 32  1  0  0  0  0
 27 31  1  0  0  0  0
 29 26  1  0  0  0  0
 30 26  1  0  0  0  0
 33 34  2  0  0  0  0
 34 35  1  0  0  0  0
 35 39  1  0  0  0  0
 35  6  1  0  0  0  0
 36 34  1  0  0  0  0
 36 40  1  0  0  0  0
 37 36  1  0  0  0  0
 38 33  1  0  0  0  0
M  END
>  <minimizedAffinity>
-5.41618061

$$$$

 OpenBabel03252503393D

 40 42  0  0  1  0  0  0  0  0999 V2000
   36.4930   28.1160   41.2440 C   0  0  1  0  0  0  0  0  0  0  0  0
   36.7260   27.3570   42.6390 C   0  0  0  0  0  0  0  0  0  0  0  0
   37.1980   28.3540   43.6480 C   0  0  0  0  0  0  0  0  0  0  0  0
   38.5930   28.8320   43.3640 C   0  0  0  0  0  0  0  0  0  0  0  0
   38.8200   28.7930   41.8790 C   0  0  0  0  0  0  0  0  0  0  0  0
   37.5520   29.1120   41.1000 C   0  0  2  0  0  0  0  0  0  0  0  0
   35.4780   28.5030   41.4310 H   0  0  0  0  0  0  0  0  0  0  0  0
   37.5500   26.6310   42.4620 H   0  0  0  0  0  0  0  0  0  0  0  0
   35.7760   26.9130   42.9400 H   0  0  0  0  0  0  0  0  0  0  0  0
   37.1370   27.8590   44.6350 H   0  0  0  0  0  0  0  0  0  0  0  0
   36.5220   29.2360   43.6990 H   0  0  0  0  0  0  0  0  0  0  0  0
   38.8150   29.8040   43.8410 H   0  0  0  0  0  0  0  0  0  0  0  0
   39.2750   28.0620   43.8290 H   0  0  0  0  0  0  0  0  0  0  0  0
   39.6110   29.4920   41.6150 H   0  0  0  0  0  0  0  0  0  0  0  0
   39.1100   27.7680   41.5760 H   0  0  0  0  0  0  0  0  0  0  0  0
   37.9090   29.0150   40.0300 H   0  0  0  0  0  0  0  0  0  0  0  0
   36.5100   27.0140   40.2290 C   0  0  0  0  0  0  0  0  0  0  0  0
   37.0550   25.7330   40.3200 C   0  0  0  0  0  0  0  0  0  0  0  0
   36.9220   24.9320   39.2150 C   0  0  0  0  0  0  0  0  0  0  0  0
   36.2690   25.4080   38.0950 N   0  0  0  0  0  0  0  0  0  0  0  0
   35.7540   26.6520   38.0490 C   0  0  0  0  0  0  0  0  0  0  0  0
   35.8820   27.4600   39.1400 N   0  0  0  0  0  0  0  0  0  0  0  0
   37.3400   23.9410   39.2690 H   0  0  0  0  0  0  0  0  0  0  0  0
   35.2680   26.8980   37.1130 H   0  0  0  0  0  0  0  0  0  0  0  0
   37.6850   25.1910   41.5570 C   0  0  0  0  0  0  0  0  0  0  0  0
   38.3730   23.9810   41.6270 C   0  0  0  0  0  0  0  0  0  0  0  0
   39.3000   25.1060   41.4890 C   0  0  0  0  0  0  0  0  0  0  0  0
   37.5480   25.9540   42.3930 H   0  0  0  0  0  0  0  0  0  0  0  0
   38.4310   23.4640   42.6350 H   0  0  0  0  0  0  0  0  0  0  0  0
   38.3050   23.2070   40.8320 H   0  0  0  0  0  0  0  0  0  0  0  0
   39.6780   25.3360   40.4710 H   0  0  0  0  0  0  0  0  0  0  0  0
   39.8310   25.5550   42.3180 H   0  0  0  0  0  0  0  0  0  0  0  0
   36.4990   30.8110   39.0620 N   0  0  0  0  0  0  0  0  0  0  0  0
   36.8670   31.3880   40.1750 C   0  0  0  0  0  0  0  0  0  0  0  0
   37.1300   30.4870   41.2380 N   0  0  0  0  0  0  0  0  0  0  0  0
   37.0230   32.8030   40.4090 N   0  0  0  0  0  0  0  0  0  0  0  0
   36.3220   33.5410   40.1690 H   0  0  0  0  0  0  0  0  0  0  0  0
   36.2970   31.4540   38.2580 H   0  0  0  0  0  0  0  0  0  0  0  0
   37.0170   30.8130   42.2450 H   0  0  0  0  0  0  0  0  0  0  0  0
   37.8880   33.1750   40.8510 H   0  0  0  0  0  0  0  0  0  0  0  0
  1  7  1  1  0  0  0
  1  2  1  0  0  0  0
  2  9  1  0  0  0  0
  2  3  1  0  0  0  0
  3 11  1  0  0  0  0
  3 10  1  0  0  0  0
  4  3  1  0  0  0  0
  4 13  1  0  0  0  0
  4 12  1  0  0  0  0
  5  4  1  0  0  0  0
  6 16  1  6  0  0  0
  6 35  1  0  0  0  0
  6  1  1  0  0  0  0
  6  5  1  0  0  0  0
  8  2  1  0  0  0  0
 14  5  1  0  0  0  0
 15  5  1  0  0  0  0
 17 18  1  0  0  0  0
 17  1  1  0  0  0  0
 18 25  1  0  0  0  0
 19 23  1  0  0  0  0
 19 18  2  0  0  0  0
 20 19  1  0  0  0  0
 21 20  2  0  0  0  0
 21 22  1  0  0  0  0
 22 17  2  0  0  0  0
 24 21  1  0  0  0  0
 25 26  1  0  0  0  0
 25 28  1  0  0  0  0
 26 29  1  0  0  0  0
 27 25  1  0  0  0  0
 27 26  1  0  0  0  0
 27 32  1  0  0  0  0
 30 26  1  0  0  0  0
 31 27  1  0  0  0  0
 33 34  2  0  0  0  0
 34 36  1  0  0  0  0
 34 35  1  0  0  0  0
 35 39  1  0  0  0  0
 36 40  1  0  0  0  0
 37 36  1  0  0  0  0
 38 33  1  0  0  0  0
M  END
>  <minimizedAffinity>
-5.33939648

$$$$

 OpenBabel03252503393D

 40 42  0  0  1  0  0  0  0  0999 V2000
   36.4490   28.5470   41.0370 C   0  0  1  0  0  0  0  0  0  0  0  0
   36.8790   27.8270   42.4050 C   0  0  0  0  0  0  0  0  0  0  0  0
   37.4540   28.8590   43.3230 C   0  0  0  0  0  0  0  0  0  0  0  0
   38.7890   29.3580   42.8490 C   0  0  0  0  0  0  0  0  0  0  0  0
   38.8220   29.2880   41.3490 C   0  0  0  0  0  0  0  0  0  0  0  0
   37.4570   29.5610   40.7350 C   0  0  2  0  0  0  0  0  0  0  0  0
   35.4580   28.9170   41.3450 H   0  0  0  0  0  0  0  0  0  0  0  0
   37.6900   27.1150   42.1390 H   0  0  0  0  0  0  0  0  0  0  0  0
   35.9870   27.3710   42.8370 H   0  0  0  0  0  0  0  0  0  0  0  0
   37.5330   28.3870   44.3200 H   0  0  0  0  0  0  0  0  0  0  0  0
   36.7690   29.7270   43.4420 H   0  0  0  0  0  0  0  0  0  0  0  0
   39.0470   30.3460   43.2720 H   0  0  0  0  0  0  0  0  0  0  0  0
   39.5430   28.6140   43.2390 H   0  0  0  0  0  0  0  0  0  0  0  0
   39.5550   29.9960   40.9690 H   0  0  0  0  0  0  0  0  0  0  0  0
   39.0950   28.2610   41.0330 H   0  0  0  0  0  0  0  0  0  0  0  0
   37.6750   29.4450   39.6300 H   0  0  0  0  0  0  0  0  0  0  0  0
   36.3610   27.4210   40.0520 C   0  0  0  0  0  0  0  0  0  0  0  0
   35.8330   27.4110   38.7610 C   0  0  0  0  0  0  0  0  0  0  0  0
   35.8860   26.2180   38.0870 C   0  0  0  0  0  0  0  0  0  0  0  0
   36.4480   25.1110   38.6920 N   0  0  0  0  0  0  0  0  0  0  0  0
   36.9500   25.1640   39.9420 C   0  0  0  0  0  0  0  0  0  0  0  0
   36.9000   26.3440   40.6240 N   0  0  0  0  0  0  0  0  0  0  0  0
   35.4800   26.1940   37.0900 H   0  0  0  0  0  0  0  0  0  0  0  0
   37.3610   24.2260   40.2960 H   0  0  0  0  0  0  0  0  0  0  0  0
   35.3040   28.6250   38.0770 C   0  0  0  0  0  0  0  0  0  0  0  0
   34.3140   28.6100   37.0960 C   0  0  0  0  0  0  0  0  0  0  0  0
   33.7510   28.9410   38.4070 C   0  0  0  0  0  0  0  0  0  0  0  0
   35.8080   29.5410   38.5330 H   0  0  0  0  0  0  0  0  0  0  0  0
   34.2880   29.4720   36.3590 H   0  0  0  0  0  0  0  0  0  0  0  0
   34.0070   27.6800   36.5710 H   0  0  0  0  0  0  0  0  0  0  0  0
   33.2810   28.1170   38.9850 H   0  0  0  0  0  0  0  0  0  0  0  0
   33.5340   29.9490   38.7330 H   0  0  0  0  0  0  0  0  0  0  0  0
   37.1150   31.5210   38.6870 N   0  0  0  0  0  0  0  0  0  0  0  0
   37.1170   31.9540   39.9190 C   0  0  0  0  0  0  0  0  0  0  0  0
   37.0240   30.9300   40.8970 N   0  0  0  0  0  0  0  0  0  0  0  0
   37.2020   33.3260   40.3570 N   0  0  0  0  0  0  0  0  0  0  0  0
   36.6190   34.1170   40.0000 H   0  0  0  0  0  0  0  0  0  0  0  0
   37.1820   32.2580   37.9440 H   0  0  0  0  0  0  0  0  0  0  0  0
   36.6010   31.1470   41.8490 H   0  0  0  0  0  0  0  0  0  0  0  0
   37.8860   33.6080   41.0890 H   0  0  0  0  0  0  0  0  0  0  0  0
  1  7  1  1  0  0  0
  1  2  1  0  0  0  0
  2  9  1  0  0  0  0
  2  3  1  0  0  0  0
  3 11  1  0  0  0  0
  3 10  1  0  0  0  0
  4 13  1  0  0  0  0
  4 12  1  0  0  0  0
  4  3  1  0  0  0  0
  5  4  1  0  0  0  0
  6 16  1  6  0  0  0
  6 35  1  0  0  0  0
  6  1  1  0  0  0  0
  6  5  1  0  0  0  0
  8  2  1  0  0  0  0
 14  5  1  0  0  0  0
 15  5  1  0  0  0  0
 17 22  1  0  0  0  0
 17  1  1  0  0  0  0
 18 17  2  0  0  0  0
 19 20  2  0  0  0  0
 19 18  1  0  0  0  0
 20 21  1  0  0  0  0
 21 24  1  0  0  0  0
 21 22  2  0  0  0  0
 23 19  1  0  0  0  0
 25 27  1  0  0  0  0
 25 28  1  0  0  0  0
 25 18  1  0  0  0  0
 26 25  1  0  0  0  0
 26 27  1  0  0  0  0
 27 32  1  0  0  0  0
 27 31  1  0  0  0  0
 29 26  1  0  0  0  0
 30 26  1  0  0  0  0
 33 34  2  0  0  0  0
 34 36  1  0  0  0  0
 34 35  1  0  0  0  0
 35 39  1  0  0  0  0
 36 40  1  0  0  0  0
 37 36  1  0  0  0  0
 38 33  1  0  0  0  0
M  END
>  <minimizedAffinity>
-5.26954889

$$$$

 OpenBabel03252503393D

 40 42  0  0  1  0  0  0  0  0999 V2000
   40.1680   32.0080   40.9050 C   0  0  1  0  0  0  0  0  0  0  0  0
   41.1160   31.5060   42.0990 C   0  0  0  0  0  0  0  0  0  0  0  0
   42.5380   31.7760   41.7210 C   0  0  0  0  0  0  0  0  0  0  0  0
   43.0090   30.8830   40.6090 C   0  0  0  0  0  0  0  0  0  0  0  0
   41.8340   30.5470   39.7340 C   0  0  0  0  0  0  0  0  0  0  0  0
   40.8420   31.6970   39.6450 C   0  0  2  0  0  0  0  0  0  0  0  0
   40.1050   33.0740   41.1770 H   0  0  0  0  0  0  0  0  0  0  0  0
   40.9810   30.4040   42.1590 H   0  0  0  0  0  0  0  0  0  0  0  0
   40.8380   32.0550   42.9990 H   0  0  0  0  0  0  0  0  0  0  0  0
   43.1420   31.6290   42.6360 H   0  0  0  0  0  0  0  0  0  0  0  0
   42.6860   32.8350   41.4160 H   0  0  0  0  0  0  0  0  0  0  0  0
   43.8810   31.2980   40.0730 H   0  0  0  0  0  0  0  0  0  0  0  0
   43.3400   29.9280   41.1100 H   0  0  0  0  0  0  0  0  0  0  0  0
   42.1870   30.2760   38.7420 H   0  0  0  0  0  0  0  0  0  0  0  0
   41.2740   29.7000   40.1770 H   0  0  0  0  0  0  0  0  0  0  0  0
   40.0390   31.2570   38.9790 H   0  0  0  0  0  0  0  0  0  0  0  0
   38.8810   31.2780   41.1380 C   0  0  0  0  0  0  0  0  0  0  0  0
   38.6500   30.0830   41.8200 C   0  0  0  0  0  0  0  0  0  0  0  0
   37.3510   29.6470   41.8680 C   0  0  0  0  0  0  0  0  0  0  0  0
   36.3540   30.3880   41.2630 N   0  0  0  0  0  0  0  0  0  0  0  0
   36.6200   31.5400   40.6170 C   0  0  0  0  0  0  0  0  0  0  0  0
   37.9080   31.9830   40.5590 N   0  0  0  0  0  0  0  0  0  0  0  0
   37.1570   28.7250   42.3880 H   0  0  0  0  0  0  0  0  0  0  0  0
   35.7480   32.0210   40.1890 H   0  0  0  0  0  0  0  0  0  0  0  0
   39.7120   29.3280   42.5430 C   0  0  0  0  0  0  0  0  0  0  0  0
   39.5370   28.0660   43.1090 C   0  0  0  0  0  0  0  0  0  0  0  0
   40.1780   27.9690   41.7960 C   0  0  0  0  0  0  0  0  0  0  0  0
   40.6760   29.9350   42.4990 H   0  0  0  0  0  0  0  0  0  0  0  0
   40.2170   27.7740   43.9690 H   0  0  0  0  0  0  0  0  0  0  0  0
   38.5330   27.6210   43.2790 H   0  0  0  0  0  0  0  0  0  0  0  0
   39.5280   27.7400   40.9250 H   0  0  0  0  0  0  0  0  0  0  0  0
   41.2440   27.8520   41.6510 H   0  0  0  0  0  0  0  0  0  0  0  0
   40.2980   32.4150   36.9360 N   0  0  0  0  0  0  0  0  0  0  0  0
   41.2930   33.0310   37.5180 C   0  0  0  0  0  0  0  0  0  0  0  0
   41.3550   32.8380   38.9220 N   0  0  0  0  0  0  0  0  0  0  0  0
   42.2930   33.8550   36.8850 N   0  0  0  0  0  0  0  0  0  0  0  0
   42.1050   34.6340   36.2140 H   0  0  0  0  0  0  0  0  0  0  0  0
   40.2280   32.5410   35.8970 H   0  0  0  0  0  0  0  0  0  0  0  0
   41.8120   33.5770   39.5360 H   0  0  0  0  0  0  0  0  0  0  0  0
   43.3050   33.7050   37.0780 H   0  0  0  0  0  0  0  0  0  0  0  0
  1 17  1  0  0  0  0
  1  7  1  1  0  0  0
  1  2  1  0  0  0  0
  2  8  1  0  0  0  0
  2  9  1  0  0  0  0
  3  2  1  0  0  0  0
  3 10  1  0  0  0  0
  4 13  1  0  0  0  0
  4  3  1  0  0  0  0
  5 15  1  0  0  0  0
  5  4  1  0  0  0  0
  6 16  1  6  0  0  0
  6  5  1  0  0  0  0
  6  1  1  0  0  0  0
 11  3  1  0  0  0  0
 12  4  1  0  0  0  0
 14  5  1  0  0  0  0
 17 18  1  0  0  0  0
 18 19  2  0  0  0  0
 18 25  1  0  0  0  0
 19 23  1  0  0  0  0
 20 19  1  0  0  0  0
 21 20  2  0  0  0  0
 22 21  1  0  0  0  0
 22 17  2  0  0  0  0
 24 21  1  0  0  0  0
 25 26  1  0  0  0  0
 26 30  1  0  0  0  0
 26 29  1  0  0  0  0
 27 25  1  0  0  0  0
 27 26  1  0  0  0  0
 28 25  1  0  0  0  0
 31 27  1  0  0  0  0
 32 27  1  0  0  0  0
 33 34  2  0  0  0  0
 34 35  1  0  0  0  0
 35 39  1  0  0  0  0
 35  6  1  0  0  0  0
 36 40  1  0  0  0  0
 36 34  1  0  0  0  0
 37 36  1  0  0  0  0
 38 33  1  0  0  0  0
M  END
>  <minimizedAffinity>
-5.26734543

$$$$

 OpenBabel03252503393D

 40 42  0  0  1  0  0  0  0  0999 V2000
   39.2060   30.7090   41.4200 C   0  0  1  0  0  0  0  0  0  0  0  0
   40.3800   30.9250   42.4920 C   0  0  0  0  0  0  0  0  0  0  0  0
   41.4860   31.6910   41.8370 C   0  0  0  0  0  0  0  0  0  0  0  0
   42.2090   30.8730   40.8070 C   0  0  0  0  0  0  0  0  0  0  0  0
   41.2420   29.8900   40.2090 C   0  0  0  0  0  0  0  0  0  0  0  0
   39.8330   30.4580   40.1230 C   0  0  2  0  0  0  0  0  0  0  0  0
   38.6910   31.6770   41.5360 H   0  0  0  0  0  0  0  0  0  0  0  0
   40.7650   29.9110   42.7390 H   0  0  0  0  0  0  0  0  0  0  0  0
   39.9650   31.4790   43.3350 H   0  0  0  0  0  0  0  0  0  0  0  0
   42.1690   32.0140   42.6450 H   0  0  0  0  0  0  0  0  0  0  0  0
   41.1100   32.6210   41.3570 H   0  0  0  0  0  0  0  0  0  0  0  0
   42.7480   31.4970   40.0710 H   0  0  0  0  0  0  0  0  0  0  0  0
   42.9800   30.2810   41.3800 H   0  0  0  0  0  0  0  0  0  0  0  0
   41.5900   29.5940   39.2220 H   0  0  0  0  0  0  0  0  0  0  0  0
   41.1690   29.0000   40.8640 H   0  0  0  0  0  0  0  0  0  0  0  0
   39.2610   29.5870   39.6800 H   0  0  0  0  0  0  0  0  0  0  0  0
   38.4160   29.5660   41.9790 C   0  0  0  0  0  0  0  0  0  0  0  0
   37.0590   29.2760   41.8430 C   0  0  0  0  0  0  0  0  0  0  0  0
   36.6060   28.1490   42.4790 C   0  0  0  0  0  0  0  0  0  0  0  0
   37.4870   27.3660   43.2010 N   0  0  0  0  0  0  0  0  0  0  0  0
   38.7930   27.6810   43.3050 C   0  0  0  0  0  0  0  0  0  0  0  0
   39.2550   28.8010   42.6790 N   0  0  0  0  0  0  0  0  0  0  0  0
   35.5600   27.9130   42.3870 H   0  0  0  0  0  0  0  0  0  0  0  0
   39.3730   26.9840   43.8980 H   0  0  0  0  0  0  0  0  0  0  0  0
   36.1260   30.0730   40.9970 C   0  0  0  0  0  0  0  0  0  0  0  0
   36.1510   30.0980   39.6030 C   0  0  0  0  0  0  0  0  0  0  0  0
   35.1270   29.1740   40.0940 C   0  0  0  0  0  0  0  0  0  0  0  0
   35.3790   30.5960   41.6810 H   0  0  0  0  0  0  0  0  0  0  0  0
   35.7260   31.0130   39.0840 H   0  0  0  0  0  0  0  0  0  0  0  0
   37.0130   29.7210   39.0140 H   0  0  0  0  0  0  0  0  0  0  0  0
   35.3910   28.0960   40.1440 H   0  0  0  0  0  0  0  0  0  0  0  0
   34.0760   29.4200   40.1660 H   0  0  0  0  0  0  0  0  0  0  0  0
   39.0500   30.2370   37.3860 N   0  0  0  0  0  0  0  0  0  0  0  0
   39.5820   31.3720   37.7550 C   0  0  0  0  0  0  0  0  0  0  0  0
   39.7070   31.5270   39.1590 N   0  0  0  0  0  0  0  0  0  0  0  0
   40.0350   32.4390   36.8950 N   0  0  0  0  0  0  0  0  0  0  0  0
   39.4890   32.8620   36.1110 H   0  0  0  0  0  0  0  0  0  0  0  0
   38.9450   30.0970   36.3520 H   0  0  0  0  0  0  0  0  0  0  0  0
   39.7130   32.5030   39.5830 H   0  0  0  0  0  0  0  0  0  0  0  0
   40.9780   32.8590   37.0230 H   0  0  0  0  0  0  0  0  0  0  0  0
  1  7  1  6  0  0  0
  1 17  1  0  0  0  0
  1  2  1  0  0  0  0
  2  8  1  0  0  0  0
  2  9  1  0  0  0  0
  3  2  1  0  0  0  0
  3 10  1  0  0  0  0
  4 13  1  0  0  0  0
  4  3  1  0  0  0  0
  5  4  1  0  0  0  0
  5 15  1  0  0  0  0
  6 16  1  6  0  0  0
  6  5  1  0  0  0  0
  6  1  1  0  0  0  0
 11  3  1  0  0  0  0
 12  4  1  0  0  0  0
 14  5  1  0  0  0  0
 17 22  1  0  0  0  0
 18 17  2  0  0  0  0
 18 19  1  0  0  0  0
 19 20  2  0  0  0  0
 20 21  1  0  0  0  0
 21 24  1  0  0  0  0
 22 21  2  0  0  0  0
 23 19  1  0  0  0  0
 25 28  1  0  0  0  0
 25 18  1  0  0  0  0
 26 27  1  0  0  0  0
 26 25  1  0  0  0  0
 27 31  1  0  0  0  0
 27 32  1  0  0  0  0
 27 25  1  0  0  0  0
 29 26  1  0  0  0  0
 30 26  1  0  0  0  0
 33 34  2  0  0  0  0
 34 35  1  0  0  0  0
 35 39  1  0  0  0  0
 35  6  1  0  0  0  0
 36 40  1  0  0  0  0
 36 34  1  0  0  0  0
 37 36  1  0  0  0  0
 38 33  1  0  0  0  0
M  END
>  <minimizedAffinity>
-5.12545013

$$$$

 OpenBabel03252503393D

 40 42  0  0  1  0  0  0  0  0999 V2000
   37.9410   28.3750   39.5290 C   0  0  1  0  0  0  0  0  0  0  0  0
   36.6380   27.6000   39.0050 C   0  0  0  0  0  0  0  0  0  0  0  0
   36.2250   28.1970   37.6980 C   0  0  0  0  0  0  0  0  0  0  0  0
   35.6680   29.5830   37.8580 C   0  0  0  0  0  0  0  0  0  0  0  0
   36.3320   30.2320   39.0400 C   0  0  0  0  0  0  0  0  0  0  0  0
   37.7790   29.7890   39.1950 C   0  0  2  0  0  0  0  0  0  0  0  0
   38.7070   27.8220   38.9610 H   0  0  0  0  0  0  0  0  0  0  0  0
   35.8360   27.8070   39.7460 H   0  0  0  0  0  0  0  0  0  0  0  0
   36.9000   26.5470   38.8900 H   0  0  0  0  0  0  0  0  0  0  0  0
   35.4750   27.5120   37.2590 H   0  0  0  0  0  0  0  0  0  0  0  0
   37.0720   28.2340   36.9790 H   0  0  0  0  0  0  0  0  0  0  0  0
   35.7120   30.1690   36.9230 H   0  0  0  0  0  0  0  0  0  0  0  0
   34.5790   29.4400   38.1200 H   0  0  0  0  0  0  0  0  0  0  0  0
   36.2780   31.3140   38.9360 H   0  0  0  0  0  0  0  0  0  0  0  0
   35.8190   29.9190   39.9700 H   0  0  0  0  0  0  0  0  0  0  0  0
   38.0930   30.3530   40.1250 H   0  0  0  0  0  0  0  0  0  0  0  0
   37.9770   28.0660   40.9950 C   0  0  0  0  0  0  0  0  0  0  0  0
   38.0410   26.8310   41.6390 C   0  0  0  0  0  0  0  0  0  0  0  0
   38.0560   26.8550   43.0100 C   0  0  0  0  0  0  0  0  0  0  0  0
   38.0140   28.0640   43.6770 N   0  0  0  0  0  0  0  0  0  0  0  0
   37.9560   29.2370   43.0160 C   0  0  0  0  0  0  0  0  0  0  0  0
   37.9380   29.2260   41.6520 N   0  0  0  0  0  0  0  0  0  0  0  0
   38.1020   25.9090   43.5220 H   0  0  0  0  0  0  0  0  0  0  0  0
   37.9290   30.1090   43.6580 H   0  0  0  0  0  0  0  0  0  0  0  0
   38.1700   25.5320   40.9210 C   0  0  0  0  0  0  0  0  0  0  0  0
   38.2080   24.2850   41.5430 C   0  0  0  0  0  0  0  0  0  0  0  0
   36.8650   24.5810   41.0400 C   0  0  0  0  0  0  0  0  0  0  0  0
   38.1780   25.7420   39.8000 H   0  0  0  0  0  0  0  0  0  0  0  0
   38.7220   23.4360   40.9950 H   0  0  0  0  0  0  0  0  0  0  0  0
   38.3860   24.1670   42.6340 H   0  0  0  0  0  0  0  0  0  0  0  0
   36.1260   24.9920   41.7600 H   0  0  0  0  0  0  0  0  0  0  0  0
   36.4730   24.2000   40.1060 H   0  0  0  0  0  0  0  0  0  0  0  0
   39.4440   32.1070   39.2590 N   0  0  0  0  0  0  0  0  0  0  0  0
   39.2460   31.5590   38.0900 C   0  0  0  0  0  0  0  0  0  0  0  0
   38.6400   30.2780   38.1430 N   0  0  0  0  0  0  0  0  0  0  0  0
   39.5740   32.1190   36.8010 N   0  0  0  0  0  0  0  0  0  0  0  0
   40.4950   32.5350   36.5350 H   0  0  0  0  0  0  0  0  0  0  0  0
   39.8920   33.0560   39.2490 H   0  0  0  0  0  0  0  0  0  0  0  0
   38.8110   29.5810   37.3570 H   0  0  0  0  0  0  0  0  0  0  0  0
   38.8700   32.1370   36.0350 H   0  0  0  0  0  0  0  0  0  0  0  0
  1  7  1  6  0  0  0
  1 17  1  0  0  0  0
  2  1  1  0  0  0  0
  2  8  1  0  0  0  0
  3  4  1  0  0  0  0
  3  2  1  0  0  0  0
  4 13  1  0  0  0  0
  4  5  1  0  0  0  0
  5  6  1  0  0  0  0
  5 15  1  0  0  0  0
  6  1  1  0  0  0  0
  6 16  1  1  0  0  0
  9  2  1  0  0  0  0
 10  3  1  0  0  0  0
 11  3  1  0  0  0  0
 12  4  1  0  0  0  0
 14  5  1  0  0  0  0
 17 18  2  0  0  0  0
 17 22  1  0  0  0  0
 18 19  1  0  0  0  0
 19 23  1  0  0  0  0
 19 20  2  0  0  0  0
 21 24  1  0  0  0  0
 21 20  1  0  0  0  0
 22 21  2  0  0  0  0
 25 27  1  0  0  0  0
 25 26  1  0  0  0  0
 25 18  1  0  0  0  0
 26 30  1  0  0  0  0
 27 26  1  0  0  0  0
 27 31  1  0  0  0  0
 28 25  1  0  0  0  0
 29 26  1  0  0  0  0
 32 27  1  0  0  0  0
 34 35  1  0  0  0  0
 34 33  2  0  0  0  0
 35  6  1  0  0  0  0
 36 34  1  0  0  0  0
 37 36  1  0  0  0  0
 38 33  1  0  0  0  0
 39 35  1  0  0  0  0
 40 36  1  0  0  0  0
M  END
>  <minimizedAffinity>
-5.02880669

$$$$

 OpenBabel03252503393D

 40 42  0  0  1  0  0  0  0  0999 V2000
   38.7430   26.4170   42.5150 C   0  0  1  0  0  0  0  0  0  0  0  0
   37.4100   25.5920   42.1700 C   0  0  0  0  0  0  0  0  0  0  0  0
   37.7560   24.1390   42.0990 C   0  0  0  0  0  0  0  0  0  0  0  0
   38.5940   23.8140   40.8960 C   0  0  0  0  0  0  0  0  0  0  0  0
   39.4310   25.0150   40.5560 C   0  0  0  0  0  0  0  0  0  0  0  0
   39.8500   25.7870   41.7980 C   0  0  2  0  0  0  0  0  0  0  0  0
   38.7360   26.2960   43.6110 H   0  0  0  0  0  0  0  0  0  0  0  0
   37.0970   25.9200   41.1550 H   0  0  0  0  0  0  0  0  0  0  0  0
   36.6840   25.7850   42.9620 H   0  0  0  0  0  0  0  0  0  0  0  0
   36.7990   23.5850   42.0820 H   0  0  0  0  0  0  0  0  0  0  0  0
   38.2960   23.8020   43.0120 H   0  0  0  0  0  0  0  0  0  0  0  0
   39.1610   22.8730   41.0150 H   0  0  0  0  0  0  0  0  0  0  0  0
   37.8610   23.6640   40.0510 H   0  0  0  0  0  0  0  0  0  0  0  0
   40.3080   24.6980   39.9960 H   0  0  0  0  0  0  0  0  0  0  0  0
   38.8330   25.7220   39.9480 H   0  0  0  0  0  0  0  0  0  0  0  0
   40.4380   26.6440   41.3480 H   0  0  0  0  0  0  0  0  0  0  0  0
   38.4190   27.8160   42.0890 C   0  0  0  0  0  0  0  0  0  0  0  0
   37.5450   28.2610   41.0970 C   0  0  0  0  0  0  0  0  0  0  0  0
   37.4550   29.6190   40.9250 C   0  0  0  0  0  0  0  0  0  0  0  0
   38.2050   30.4640   41.7190 N   0  0  0  0  0  0  0  0  0  0  0  0
   39.0360   29.9920   42.6690 C   0  0  0  0  0  0  0  0  0  0  0  0
   39.1370   28.6440   42.8490 N   0  0  0  0  0  0  0  0  0  0  0  0
   36.7870   29.9780   40.1610 H   0  0  0  0  0  0  0  0  0  0  0  0
   39.5640   30.7620   43.2210 H   0  0  0  0  0  0  0  0  0  0  0  0
   36.6740   27.3540   40.2980 C   0  0  0  0  0  0  0  0  0  0  0  0
   35.9140   27.7540   39.2000 C   0  0  0  0  0  0  0  0  0  0  0  0
   37.1730   27.1390   38.7730 C   0  0  0  0  0  0  0  0  0  0  0  0
   36.7860   26.2960   40.7090 H   0  0  0  0  0  0  0  0  0  0  0  0
   34.9970   27.1400   38.9400 H   0  0  0  0  0  0  0  0  0  0  0  0
   35.7060   28.8220   38.9740 H   0  0  0  0  0  0  0  0  0  0  0  0
   38.0150   27.8170   38.5190 H   0  0  0  0  0  0  0  0  0  0  0  0
   37.2620   26.1110   38.4470 H   0  0  0  0  0  0  0  0  0  0  0  0
   41.9620   26.8900   43.3700 N   0  0  0  0  0  0  0  0  0  0  0  0
   41.9870   25.5980   43.1780 C   0  0  0  0  0  0  0  0  0  0  0  0
   40.7930   25.0690   42.6250 N   0  0  0  0  0  0  0  0  0  0  0  0
   43.0770   24.6980   43.4660 N   0  0  0  0  0  0  0  0  0  0  0  0
   43.6060   24.6510   44.3660 H   0  0  0  0  0  0  0  0  0  0  0  0
   42.8340   27.3080   43.7790 H   0  0  0  0  0  0  0  0  0  0  0  0
   40.5290   24.0560   42.8130 H   0  0  0  0  0  0  0  0  0  0  0  0
   43.4060   24.0170   42.7510 H   0  0  0  0  0  0  0  0  0  0  0  0
  1  7  1  1  0  0  0
  2  1  1  0  0  0  0
  2  9  1  0  0  0  0
  3  2  1  0  0  0  0
  3 11  1  0  0  0  0
  4 12  1  0  0  0  0
  4  3  1  0  0  0  0
  5  4  1  0  0  0  0
  5  6  1  0  0  0  0
  6 16  1  6  0  0  0
  6  1  1  0  0  0  0
  6 35  1  0  0  0  0
  8  2  1  0  0  0  0
 10  3  1  0  0  0  0
 13  4  1  0  0  0  0
 14  5  1  0  0  0  0
 15  5  1  0  0  0  0
 17  1  1  0  0  0  0
 17 22  1  0  0  0  0
 18 17  2  0  0  0  0
 19 18  1  0  0  0  0
 19 20  2  0  0  0  0
 20 21  1  0  0  0  0
 21 22  2  0  0  0  0
 21 24  1  0  0  0  0
 23 19  1  0  0  0  0
 25 28  1  0  0  0  0
 25 18  1  0  0  0  0
 26 25  1  0  0  0  0
 27 26  1  0  0  0  0
 27 25  1  0  0  0  0
 29 26  1  0  0  0  0
 30 26  1  0  0  0  0
 31 27  1  0  0  0  0
 32 27  1  0  0  0  0
 33 38  1  0  0  0  0
 34 33  2  0  0  0  0
 34 36  1  0  0  0  0
 35 39  1  0  0  0  0
 35 34  1  0  0  0  0
 36 37  1  0  0  0  0
 40 36  1  0  0  0  0
M  END
>  <minimizedAffinity>
-4.98949432

$$$$
