
 OpenBabel03252501503D

 44 46  0  0  1  0  0  0  0  0999 V2000
   48.0850   34.8930   42.2510 C   0  0  0  0  0  0  0  0  0  0  0  0
   48.1940   35.9820   42.4260 H   0  0  0  0  0  0  0  0  0  0  0  0
   48.0260   34.3240   43.2240 H   0  0  0  0  0  0  0  0  0  0  0  0
   49.2190   34.3710   41.5290 N   0  0  0  0  0  0  0  0  0  0  0  0
   50.1370   33.7480   42.4280 C   0  0  0  0  0  0  0  0  0  0  0  0
   50.7270   32.5400   41.7460 C   0  0  0  0  0  0  0  0  0  0  0  0
   49.6960   32.1950   40.7250 C   0  0  0  0  0  0  0  0  0  0  0  0
   48.8240   33.4250   40.5420 C   0  0  2  0  0  0  0  0  0  0  0  0
   49.5300   33.3450   43.2810 H   0  0  0  0  0  0  0  0  0  0  0  0
   50.8800   34.4160   42.8760 H   0  0  0  0  0  0  0  0  0  0  0  0
   50.8940   31.7320   42.4930 H   0  0  0  0  0  0  0  0  0  0  0  0
   51.7050   32.8330   41.3180 H   0  0  0  0  0  0  0  0  0  0  0  0
   49.1280   31.3230   41.1020 H   0  0  0  0  0  0  0  0  0  0  0  0
   50.2130   31.9050   39.7920 H   0  0  0  0  0  0  0  0  0  0  0  0
   47.7790   33.1060   40.7550 H   0  0  0  0  0  0  0  0  0  0  0  0
   46.9510   32.7600   38.4910 N   0  0  0  0  0  0  0  0  0  0  0  0
   47.8060   33.6990   38.2600 C   0  0  0  0  0  0  0  0  0  0  0  0
   48.8640   33.9070   39.1790 N   0  0  0  0  0  0  0  0  0  0  0  0
   47.6810   34.5110   37.0950 N   0  0  0  0  0  0  0  0  0  0  0  0
   48.5620   34.3140   36.5370 H   0  0  0  0  0  0  0  0  0  0  0  0
   46.1620   32.5990   37.8130 H   0  0  0  0  0  0  0  0  0  0  0  0
   49.6840   34.4470   38.7760 H   0  0  0  0  0  0  0  0  0  0  0  0
   47.1190   35.2010   36.5540 H   0  0  0  0  0  0  0  0  0  0  0  0
   45.6300   35.0510   42.1060 C   0  0  0  0  0  0  0  0  0  0  0  0
   46.7770   34.6220   41.5620 C   0  0  0  0  0  0  0  0  0  0  0  0
   44.0690   33.6500   40.6630 C   0  0  0  0  0  0  0  0  0  0  0  0
   44.3280   34.8000   41.4550 C   0  0  0  0  0  0  0  0  0  0  0  0
   43.3110   35.7460   41.6320 C   0  0  0  0  0  0  0  0  0  0  0  0
   42.1070   35.5210   41.0340 N   0  0  0  0  0  0  0  0  0  0  0  0
   41.8990   34.4280   40.2970 C   0  0  0  0  0  0  0  0  0  0  0  0
   42.8740   33.5140   40.1220 N   0  0  0  0  0  0  0  0  0  0  0  0
   44.8980   32.9500   40.5620 H   0  0  0  0  0  0  0  0  0  0  0  0
   43.4960   36.6220   42.2300 H   0  0  0  0  0  0  0  0  0  0  0  0
   39.6870   33.6540   41.7840 F   0  0  0  0  0  0  0  0  0  0  0  0
   39.5060   33.8330   40.4530 C   0  0  0  0  0  0  0  0  0  0  0  0
   40.5950   34.2220   39.6720 C   0  0  0  0  0  0  0  0  0  0  0  0
   40.4860   34.4240   38.3120 C   0  0  0  0  0  0  0  0  0  0  0  0
   39.2390   34.2240   37.7280 C   0  0  0  0  0  0  0  0  0  0  0  0
   38.1230   33.8330   38.4850 C   0  0  0  0  0  0  0  0  0  0  0  0
   38.2700   33.6400   39.8490 C   0  0  0  0  0  0  0  0  0  0  0  0
   41.3310   34.7190   37.7370 H   0  0  0  0  0  0  0  0  0  0  0  0
   39.2000   34.3920   36.6660 H   0  0  0  0  0  0  0  0  0  0  0  0
   37.1880   33.6960   37.9700 H   0  0  0  0  0  0  0  0  0  0  0  0
   37.4240   33.3390   40.4510 H   0  0  0  0  0  0  0  0  0  0  0  0
  1  2  1  0  0  0  0
  1  3  1  0  0  0  0
  4  1  1  0  0  0  0
  4  5  1  0  0  0  0
  5 10  1  0  0  0  0
  5  9  1  0  0  0  0
  6  5  1  0  0  0  0
  6 11  1  0  0  0  0
  7 13  1  0  0  0  0
  7  6  1  0  0  0  0
  8  7  1  0  0  0  0
  8 15  1  1  0  0  0
  8  4  1  0  0  0  0
 12  6  1  0  0  0  0
 14  7  1  0  0  0  0
 17 16  2  0  0  0  0
 17 18  1  0  0  0  0
 18  8  1  0  0  0  0
 19 17  1  0  0  0  0
 20 19  1  0  0  0  0
 21 16  1  0  0  0  0
 22 18  1  0  0  0  0
 23 19  1  0  0  0  0
 25 24  2  0  0  0  0
 25  1  1  0  0  0  0
 26 27  1  0  0  0  0
 27 28  2  0  0  0  0
 27 24  1  0  0  0  0
 28 33  1  0  0  0  0
 29 28  1  0  0  0  0
 30 29  2  0  0  0  0
 31 30  1  0  0  0  0
 31 26  2  0  0  0  0
 32 26  1  0  0  0  0
 35 34  1  0  0  0  0
 36 30  1  0  0  0  0
 36 35  2  0  0  0  0
 37 36  1  0  0  0  0
 38 37  2  0  0  0  0
 38 39  1  0  0  0  0
 39 40  2  0  0  0  0
 40 44  1  0  0  0  0
 40 35  1  0  0  0  0
 41 37  1  0  0  0  0
 42 38  1  0  0  0  0
 43 39  1  0  0  0  0
M  END
>  <minimizedAffinity>
-6.78969431

>  <minimizedRMSD>
0.430619687

$$$$
