
 OpenBabel03252501303D

 37 38  0  0  0  0  0  0  0  0999 V2000
   37.2880   29.4370   41.8740 C   0  0  0  0  0  0  0  0  0  0  0  0
   38.5550   29.9490   41.9040 C   0  0  0  0  0  0  0  0  0  0  0  0
   38.9700   31.0140   41.1670 C   0  0  0  0  0  0  0  0  0  0  0  0
   38.0980   31.6140   40.3530 C   0  0  0  0  0  0  0  0  0  0  0  0
   36.7820   31.1360   40.2800 C   0  0  0  0  0  0  0  0  0  0  0  0
   36.3810   30.0480   41.0440 C   0  0  0  0  0  0  0  0  0  0  0  0
   39.2240   29.4070   42.5940 H   0  0  0  0  0  0  0  0  0  0  0  0
   40.0030   31.3010   41.2870 H   0  0  0  0  0  0  0  0  0  0  0  0
   36.1620   31.7140   39.5770 H   0  0  0  0  0  0  0  0  0  0  0  0
   39.3640   34.1490   41.1720 N   0  0  0  0  0  0  0  0  0  0  0  0
   39.4230   33.6920   39.9710 C   0  0  0  0  0  0  0  0  0  0  0  0
   38.4840   32.7650   39.5520 N   0  0  0  0  0  0  0  0  0  0  0  0
   40.4590   34.1590   39.0740 N   0  0  0  0  0  0  0  0  0  0  0  0
   40.3220   34.0420   38.0430 H   0  0  0  0  0  0  0  0  0  0  0  0
   38.6710   33.8890   41.8670 H   0  0  0  0  0  0  0  0  0  0  0  0
   38.0410   32.9140   38.5910 H   0  0  0  0  0  0  0  0  0  0  0  0
   41.3170   34.6000   39.4760 H   0  0  0  0  0  0  0  0  0  0  0  0
   34.7300   29.0490   39.5920 C   0  0  0  0  0  0  0  0  0  0  0  0
   35.3450   28.4540   38.6300 O   0  0  0  0  0  0  0  0  0  0  0  0
   34.9970   29.8570   40.7520 N   0  0  0  0  0  0  0  0  0  0  0  0
   33.7450   28.7280   39.2500 H   0  0  0  0  0  0  0  0  0  0  0  0
   34.1010   30.1690   41.1860 H   0  0  0  0  0  0  0  0  0  0  0  0
   36.7150   28.2820   42.5880 C   0  0  0  0  0  0  0  0  0  0  0  0
   35.7290   28.5730   42.9640 H   0  0  0  0  0  0  0  0  0  0  0  0
   36.5590   27.4090   41.8950 H   0  0  0  0  0  0  0  0  0  0  0  0
   37.6510   27.8000   43.6770 C   0  0  0  0  0  0  0  0  0  0  0  0
   38.3850   28.5600   43.9920 H   0  0  0  0  0  0  0  0  0  0  0  0
   37.0390   27.5240   44.5690 H   0  0  0  0  0  0  0  0  0  0  0  0
   40.1010   25.1270   43.1890 C   0  0  0  0  0  0  0  0  0  0  0  0
   39.4330   24.2430   42.3120 C   0  0  0  0  0  0  0  0  0  0  0  0
   38.1500   24.6130   41.9240 C   0  0  0  0  0  0  0  0  0  0  0  0
   37.6030   25.7560   42.3800 N   0  0  0  0  0  0  0  0  0  0  0  0
   38.2970   26.5580   43.2180 C   0  0  0  0  0  0  0  0  0  0  0  0
   39.5070   26.2670   43.6200 N   0  0  0  0  0  0  0  0  0  0  0  0
   41.1010   24.9310   43.5500 H   0  0  0  0  0  0  0  0  0  0  0  0
   39.9720   23.3590   42.0160 H   0  0  0  0  0  0  0  0  0  0  0  0
   37.6500   23.9320   41.2540 H   0  0  0  0  0  0  0  0  0  0  0  0
  1  2  1  0  0  0  0
  1 23  1  0  0  0  0
  2  7  1  0  0  0  0
  3  8  1  0  0  0  0
  3  2  2  0  0  0  0
  4  3  1  0  0  0  0
  5  4  2  0  0  0  0
  5  6  1  0  0  0  0
  6  1  2  0  0  0  0
  9  5  1  0  0  0  0
 10 15  1  0  0  0  0
 11 10  2  0  0  0  0
 12 11  1  0  0  0  0
 12  4  1  0  0  0  0
 13 17  1  0  0  0  0
 13 11  1  0  0  0  0
 14 13  1  0  0  0  0
 16 12  1  0  0  0  0
 18 20  1  0  0  0  0
 19 18  2  0  0  0  0
 20  6  1  0  0  0  0
 20 22  1  0  0  0  0
 21 18  1  0  0  0  0
 23 24  1  0  0  0  0
 23 26  1  0  0  0  0
 25 23  1  0  0  0  0
 26 27  1  0  0  0  0
 26 28  1  0  0  0  0
 29 35  1  0  0  0  0
 29 34  1  0  0  0  0
 30 29  2  0  0  0  0
 31 30  1  0  0  0  0
 31 32  2  0  0  0  0
 32 33  1  0  0  0  0
 33 34  2  0  0  0  0
 33 26  1  0  0  0  0
 36 30  1  0  0  0  0
 37 31  1  0  0  0  0
M  END
>  <minimizedAffinity>
-5.63807869

$$$$

 OpenBabel03252501303D

 37 38  0  0  0  0  0  0  0  0999 V2000
   37.2330   31.1010   39.7010 C   0  0  0  0  0  0  0  0  0  0  0  0
   36.9760   31.4230   38.3980 C   0  0  0  0  0  0  0  0  0  0  0  0
   37.9260   31.7940   37.4970 C   0  0  0  0  0  0  0  0  0  0  0  0
   39.2000   31.8560   37.8930 C   0  0  0  0  0  0  0  0  0  0  0  0
   39.5270   31.5350   39.2180 C   0  0  0  0  0  0  0  0  0  0  0  0
   38.5390   31.1560   40.1190 C   0  0  0  0  0  0  0  0  0  0  0  0
   35.9060   31.3520   38.1370 H   0  0  0  0  0  0  0  0  0  0  0  0
   37.5740   32.0290   36.5050 H   0  0  0  0  0  0  0  0  0  0  0  0
   40.6060   31.6230   39.4190 H   0  0  0  0  0  0  0  0  0  0  0  0
   41.2860   33.9230   38.1550 N   0  0  0  0  0  0  0  0  0  0  0  0
   41.3980   32.9110   37.3700 C   0  0  0  0  0  0  0  0  0  0  0  0
   40.2580   32.2350   36.9690 N   0  0  0  0  0  0  0  0  0  0  0  0
   42.7070   32.5010   36.9060 N   0  0  0  0  0  0  0  0  0  0  0  0
   42.7730   31.9080   36.0460 H   0  0  0  0  0  0  0  0  0  0  0  0
   40.4140   34.2900   38.5230 H   0  0  0  0  0  0  0  0  0  0  0  0
   40.1730   31.9830   35.9340 H   0  0  0  0  0  0  0  0  0  0  0  0
   43.5510   32.8050   37.4410 H   0  0  0  0  0  0  0  0  0  0  0  0
   39.7290   29.5380   41.4580 C   0  0  0  0  0  0  0  0  0  0  0  0
   39.7330   28.4150   40.8260 O   0  0  0  0  0  0  0  0  0  0  0  0
   39.2170   30.8760   41.3430 N   0  0  0  0  0  0  0  0  0  0  0  0
   40.3370   29.1540   42.2790 H   0  0  0  0  0  0  0  0  0  0  0  0
   39.4400   31.4210   42.2040 H   0  0  0  0  0  0  0  0  0  0  0  0
   36.3080   30.7150   40.7820 C   0  0  0  0  0  0  0  0  0  0  0  0
   36.9020   30.5170   41.6800 H   0  0  0  0  0  0  0  0  0  0  0  0
   35.5990   31.5520   41.0320 H   0  0  0  0  0  0  0  0  0  0  0  0
   35.4500   29.5390   40.3650 C   0  0  0  0  0  0  0  0  0  0  0  0
   34.4030   29.6180   40.7030 H   0  0  0  0  0  0  0  0  0  0  0  0
   35.4460   29.4840   39.2500 H   0  0  0  0  0  0  0  0  0  0  0  0
   36.9400   26.1980   40.4330 C   0  0  0  0  0  0  0  0  0  0  0  0
   37.2800   26.0320   41.7940 C   0  0  0  0  0  0  0  0  0  0  0  0
   36.9780   27.0950   42.6390 C   0  0  0  0  0  0  0  0  0  0  0  0
   36.3950   28.2070   42.1520 N   0  0  0  0  0  0  0  0  0  0  0  0
   36.0950   28.3020   40.8370 C   0  0  0  0  0  0  0  0  0  0  0  0
   36.3540   27.3380   39.9920 N   0  0  0  0  0  0  0  0  0  0  0  0
   37.1330   25.4310   39.6950 H   0  0  0  0  0  0  0  0  0  0  0  0
   37.7430   25.0980   42.0650 H   0  0  0  0  0  0  0  0  0  0  0  0
   37.2410   26.9570   43.6750 H   0  0  0  0  0  0  0  0  0  0  0  0
  1  6  1  0  0  0  0
  1 23  1  0  0  0  0
  2  1  2  0  0  0  0
  3  4  2  0  0  0  0
  3  2  1  0  0  0  0
  4  5  1  0  0  0  0
  5  9  1  0  0  0  0
  5  6  2  0  0  0  0
  6 20  1  0  0  0  0
  7  2  1  0  0  0  0
  8  3  1  0  0  0  0
 10 15  1  0  0  0  0
 11 10  2  0  0  0  0
 12 11  1  0  0  0  0
 12  4  1  0  0  0  0
 13 11  1  0  0  0  0
 13 17  1  0  0  0  0
 14 13  1  0  0  0  0
 16 12  1  0  0  0  0
 18 21  1  0  0  0  0
 19 18  2  0  0  0  0
 20 18  1  0  0  0  0
 20 22  1  0  0  0  0
 23 25  1  0  0  0  0
 23 24  1  0  0  0  0
 26 27  1  0  0  0  0
 26 23  1  0  0  0  0
 26 33  1  0  0  0  0
 28 26  1  0  0  0  0
 29 30  1  0  0  0  0
 30 36  1  0  0  0  0
 30 31  2  0  0  0  0
 31 37  1  0  0  0  0
 32 31  1  0  0  0  0
 33 32  2  0  0  0  0
 34 29  2  0  0  0  0
 34 33  1  0  0  0  0
 35 29  1  0  0  0  0
M  END
>  <minimizedAffinity>
-5.47026873

$$$$

 OpenBabel03252501303D

 37 38  0  0  0  0  0  0  0  0999 V2000
   38.2430   29.7330   42.2900 C   0  0  0  0  0  0  0  0  0  0  0  0
   39.5380   30.0900   42.0380 C   0  0  0  0  0  0  0  0  0  0  0  0
   39.9350   30.8390   40.9740 C   0  0  0  0  0  0  0  0  0  0  0  0
   39.0140   31.2620   40.1050 C   0  0  0  0  0  0  0  0  0  0  0  0
   37.6670   30.9290   40.3100 C   0  0  0  0  0  0  0  0  0  0  0  0
   37.2860   30.1650   41.4050 C   0  0  0  0  0  0  0  0  0  0  0  0
   40.2460   29.7090   42.7930 H   0  0  0  0  0  0  0  0  0  0  0  0
   40.9920   31.0350   40.8990 H   0  0  0  0  0  0  0  0  0  0  0  0
   37.0080   31.3360   39.5270 H   0  0  0  0  0  0  0  0  0  0  0  0
   40.0660   30.4500   37.4720 N   0  0  0  0  0  0  0  0  0  0  0  0
   39.4610   31.5670   37.6700 C   0  0  0  0  0  0  0  0  0  0  0  0
   39.3800   32.0750   38.9560 N   0  0  0  0  0  0  0  0  0  0  0  0
   38.8850   32.2820   36.5500 N   0  0  0  0  0  0  0  0  0  0  0  0
   38.6860   33.3040   36.6550 H   0  0  0  0  0  0  0  0  0  0  0  0
   40.5070   29.8840   38.1900 H   0  0  0  0  0  0  0  0  0  0  0  0
   39.5920   33.1150   39.0880 H   0  0  0  0  0  0  0  0  0  0  0  0
   38.6810   31.7610   35.6680 H   0  0  0  0  0  0  0  0  0  0  0  0
   35.3970   28.9260   40.5520 C   0  0  0  0  0  0  0  0  0  0  0  0
   35.8420   27.9700   39.8130 O   0  0  0  0  0  0  0  0  0  0  0  0
   35.8660   30.0470   41.3220 N   0  0  0  0  0  0  0  0  0  0  0  0
   34.3560   28.6240   40.4330 H   0  0  0  0  0  0  0  0  0  0  0  0
   35.0570   30.5910   41.6930 H   0  0  0  0  0  0  0  0  0  0  0  0
   37.6800   28.9100   43.3750 C   0  0  0  0  0  0  0  0  0  0  0  0
   37.5230   29.5570   44.2440 H   0  0  0  0  0  0  0  0  0  0  0  0
   36.6760   28.4880   43.0910 H   0  0  0  0  0  0  0  0  0  0  0  0
   38.5730   27.7220   43.6710 C   0  0  0  0  0  0  0  0  0  0  0  0
   39.6370   27.9890   43.7770 H   0  0  0  0  0  0  0  0  0  0  0  0
   38.2370   27.2600   44.6310 H   0  0  0  0  0  0  0  0  0  0  0  0
   39.1120   25.4830   40.8280 C   0  0  0  0  0  0  0  0  0  0  0  0
   37.8700   24.8210   40.7070 C   0  0  0  0  0  0  0  0  0  0  0  0
   36.8880   25.1800   41.6250 C   0  0  0  0  0  0  0  0  0  0  0  0
   37.1430   26.1100   42.5660 N   0  0  0  0  0  0  0  0  0  0  0  0
   38.3550   26.7060   42.6260 C   0  0  0  0  0  0  0  0  0  0  0  0
   39.3190   26.4130   41.7920 N   0  0  0  0  0  0  0  0  0  0  0  0
   39.9400   25.2760   40.1630 H   0  0  0  0  0  0  0  0  0  0  0  0
   37.7850   24.0960   39.9150 H   0  0  0  0  0  0  0  0  0  0  0  0
   35.9450   24.6690   41.5240 H   0  0  0  0  0  0  0  0  0  0  0  0
  1 23  1  0  0  0  0
  2  1  1  0  0  0  0
  2  7  1  0  0  0  0
  3  2  2  0  0  0  0
  4  5  2  0  0  0  0
  4  3  1  0  0  0  0
  5  6  1  0  0  0  0
  6  1  2  0  0  0  0
  8  3  1  0  0  0  0
  9  5  1  0  0  0  0
 10 11  2  0  0  0  0
 10 15  1  0  0  0  0
 11 12  1  0  0  0  0
 12 16  1  0  0  0  0
 12  4  1  0  0  0  0
 13 14  1  0  0  0  0
 13 11  1  0  0  0  0
 17 13  1  0  0  0  0
 18 20  1  0  0  0  0
 19 18  2  0  0  0  0
 20  6  1  0  0  0  0
 20 22  1  0  0  0  0
 21 18  1  0  0  0  0
 23 26  1  0  0  0  0
 23 24  1  0  0  0  0
 25 23  1  0  0  0  0
 26 27  1  0  0  0  0
 26 28  1  0  0  0  0
 29 34  1  0  0  0  0
 30 29  2  0  0  0  0
 30 31  1  0  0  0  0
 31 32  2  0  0  0  0
 32 33  1  0  0  0  0
 33 26  1  0  0  0  0
 34 33  2  0  0  0  0
 35 29  1  0  0  0  0
 36 30  1  0  0  0  0
 37 31  1  0  0  0  0
M  END
>  <minimizedAffinity>
-5.44965792

$$$$

 OpenBabel03252501303D

 37 38  0  0  0  0  0  0  0  0999 V2000
   36.7280   27.9460   40.3330 C   0  0  0  0  0  0  0  0  0  0  0  0
   36.7630   28.7350   39.2180 C   0  0  0  0  0  0  0  0  0  0  0  0
   36.7060   30.0940   39.2370 C   0  0  0  0  0  0  0  0  0  0  0  0
   36.6090   30.7190   40.4130 C   0  0  0  0  0  0  0  0  0  0  0  0
   36.5710   29.9630   41.5940 C   0  0  0  0  0  0  0  0  0  0  0  0
   36.6330   28.5760   41.5490 C   0  0  0  0  0  0  0  0  0  0  0  0
   36.8420   28.1570   38.2820 H   0  0  0  0  0  0  0  0  0  0  0  0
   36.7340   30.5840   38.2770 H   0  0  0  0  0  0  0  0  0  0  0  0
   36.4920   30.5920   42.4940 H   0  0  0  0  0  0  0  0  0  0  0  0
   38.8020   32.6800   40.6200 N   0  0  0  0  0  0  0  0  0  0  0  0
   37.6340   32.9790   40.1720 C   0  0  0  0  0  0  0  0  0  0  0  0
   36.5570   32.1700   40.4930 N   0  0  0  0  0  0  0  0  0  0  0  0
   37.4590   34.1600   39.3530 N   0  0  0  0  0  0  0  0  0  0  0  0
   36.5000   34.5710   39.2610 H   0  0  0  0  0  0  0  0  0  0  0  0
   39.0200   31.8810   41.2070 H   0  0  0  0  0  0  0  0  0  0  0  0
   35.6550   32.6520   40.8030 H   0  0  0  0  0  0  0  0  0  0  0  0
   38.2900   34.5710   38.8730 H   0  0  0  0  0  0  0  0  0  0  0  0
   37.8880   28.0760   43.5500 C   0  0  0  0  0  0  0  0  0  0  0  0
   39.1410   28.2210   43.2880 O   0  0  0  0  0  0  0  0  0  0  0  0
   36.6040   28.1420   42.9090 N   0  0  0  0  0  0  0  0  0  0  0  0
   38.0670   27.8410   44.6000 H   0  0  0  0  0  0  0  0  0  0  0  0
   35.8550   27.8510   43.5740 H   0  0  0  0  0  0  0  0  0  0  0  0
   36.7510   26.4770   40.4580 C   0  0  0  0  0  0  0  0  0  0  0  0
   36.6570   26.2260   41.5190 H   0  0  0  0  0  0  0  0  0  0  0  0
   35.8750   26.0090   39.9290 H   0  0  0  0  0  0  0  0  0  0  0  0
   37.9950   25.8990   39.8160 C   0  0  0  0  0  0  0  0  0  0  0  0
   37.7910   25.0360   39.1610 H   0  0  0  0  0  0  0  0  0  0  0  0
   38.4720   26.6950   39.1940 H   0  0  0  0  0  0  0  0  0  0  0  0
   41.0840   25.6700   41.7620 C   0  0  0  0  0  0  0  0  0  0  0  0
   40.6910   24.9180   42.8920 C   0  0  0  0  0  0  0  0  0  0  0  0
   39.3590   24.5190   42.9330 C   0  0  0  0  0  0  0  0  0  0  0  0
   38.5170   24.8510   41.9350 N   0  0  0  0  0  0  0  0  0  0  0  0
   38.9590   25.5740   40.8810 C   0  0  0  0  0  0  0  0  0  0  0  0
   40.2000   25.9790   40.7840 N   0  0  0  0  0  0  0  0  0  0  0  0
   42.0970   26.0270   41.6350 H   0  0  0  0  0  0  0  0  0  0  0  0
   41.4530   24.7150   43.6250 H   0  0  0  0  0  0  0  0  0  0  0  0
   39.0700   23.9460   43.7980 H   0  0  0  0  0  0  0  0  0  0  0  0
  1 23  1  0  0  0  0
  1  6  1  0  0  0  0
  2  3  1  0  0  0  0
  2  1  2  0  0  0  0
  3  4  2  0  0  0  0
  4 12  1  0  0  0  0
  4  5  1  0  0  0  0
  5  9  1  0  0  0  0
  6  5  2  0  0  0  0
  6 20  1  0  0  0  0
  7  2  1  0  0  0  0
  8  3  1  0  0  0  0
 10 15  1  0  0  0  0
 11 12  1  0  0  0  0
 11 10  2  0  0  0  0
 12 16  1  0  0  0  0
 13 11  1  0  0  0  0
 14 13  1  0  0  0  0
 17 13  1  0  0  0  0
 18 21  1  0  0  0  0
 19 18  2  0  0  0  0
 20 18  1  0  0  0  0
 20 22  1  0  0  0  0
 23 24  1  0  0  0  0
 25 23  1  0  0  0  0
 26 23  1  0  0  0  0
 26 33  1  0  0  0  0
 27 26  1  0  0  0  0
 28 26  1  0  0  0  0
 29 30  1  0  0  0  0
 30 31  2  0  0  0  0
 30 36  1  0  0  0  0
 31 37  1  0  0  0  0
 32 31  1  0  0  0  0
 33 32  2  0  0  0  0
 34 33  1  0  0  0  0
 34 29  2  0  0  0  0
 35 29  1  0  0  0  0
M  END
>  <minimizedAffinity>
-5.42851686

$$$$

 OpenBabel03252501303D

 37 38  0  0  0  0  0  0  0  0999 V2000
   36.8990   28.0420   41.6430 C   0  0  0  0  0  0  0  0  0  0  0  0
   37.0040   27.9420   43.0020 C   0  0  0  0  0  0  0  0  0  0  0  0
   38.0550   27.3730   43.6520 C   0  0  0  0  0  0  0  0  0  0  0  0
   39.0620   26.8720   42.9320 C   0  0  0  0  0  0  0  0  0  0  0  0
   39.0130   26.9450   41.5330 C   0  0  0  0  0  0  0  0  0  0  0  0
   37.9300   27.5330   40.8920 C   0  0  0  0  0  0  0  0  0  0  0  0
   36.1400   28.3740   43.5350 H   0  0  0  0  0  0  0  0  0  0  0  0
   37.9970   27.3580   44.7280 H   0  0  0  0  0  0  0  0  0  0  0  0
   39.9000   26.4990   41.0560 H   0  0  0  0  0  0  0  0  0  0  0  0
   39.8130   24.0300   43.1710 N   0  0  0  0  0  0  0  0  0  0  0  0
   40.6640   24.9890   43.2660 C   0  0  0  0  0  0  0  0  0  0  0  0
   40.2170   26.2630   43.5740 N   0  0  0  0  0  0  0  0  0  0  0  0
   42.0720   24.7240   43.0620 N   0  0  0  0  0  0  0  0  0  0  0  0
   42.7720   25.4040   43.4430 H   0  0  0  0  0  0  0  0  0  0  0  0
   38.8100   24.1160   43.3050 H   0  0  0  0  0  0  0  0  0  0  0  0
   40.7620   26.8100   44.3130 H   0  0  0  0  0  0  0  0  0  0  0  0
   42.3560   23.8650   42.5400 H   0  0  0  0  0  0  0  0  0  0  0  0
   37.7380   26.2850   38.8340 C   0  0  0  0  0  0  0  0  0  0  0  0
   37.1540   25.1660   39.0930 O   0  0  0  0  0  0  0  0  0  0  0  0
   38.2210   27.4660   39.4960 N   0  0  0  0  0  0  0  0  0  0  0  0
   37.7940   26.0840   37.7640 H   0  0  0  0  0  0  0  0  0  0  0  0
   38.7130   28.0830   38.8150 H   0  0  0  0  0  0  0  0  0  0  0  0
   35.8160   28.5990   40.8140 C   0  0  0  0  0  0  0  0  0  0  0  0
   35.9210   28.1920   39.8030 H   0  0  0  0  0  0  0  0  0  0  0  0
   34.8060   28.2820   41.1940 H   0  0  0  0  0  0  0  0  0  0  0  0
   35.8310   30.1130   40.8510 C   0  0  0  0  0  0  0  0  0  0  0  0
   34.8360   30.5580   41.0210 H   0  0  0  0  0  0  0  0  0  0  0  0
   36.4990   30.4380   41.6850 H   0  0  0  0  0  0  0  0  0  0  0  0
   37.5870   32.2290   38.4370 C   0  0  0  0  0  0  0  0  0  0  0  0
   37.5730   31.4450   37.2620 C   0  0  0  0  0  0  0  0  0  0  0  0
   36.9510   30.2050   37.3560 C   0  0  0  0  0  0  0  0  0  0  0  0
   36.4050   29.8030   38.5190 N   0  0  0  0  0  0  0  0  0  0  0  0
   36.4530   30.6020   39.6090 C   0  0  0  0  0  0  0  0  0  0  0  0
   37.0230   31.7800   39.5850 N   0  0  0  0  0  0  0  0  0  0  0  0
   38.0460   33.2080   38.4700 H   0  0  0  0  0  0  0  0  0  0  0  0
   38.0420   31.8730   36.3920 H   0  0  0  0  0  0  0  0  0  0  0  0
   36.9460   29.6160   36.4530 H   0  0  0  0  0  0  0  0  0  0  0  0
  1  2  1  0  0  0  0
  2  7  1  0  0  0  0
  2  3  2  0  0  0  0
  3  8  1  0  0  0  0
  4 12  1  0  0  0  0
  4  3  1  0  0  0  0
  5  4  2  0  0  0  0
  6  5  1  0  0  0  0
  6  1  2  0  0  0  0
  9  5  1  0  0  0  0
 10 11  2  0  0  0  0
 10 15  1  0  0  0  0
 11 12  1  0  0  0  0
 12 16  1  0  0  0  0
 13 11  1  0  0  0  0
 13 14  1  0  0  0  0
 17 13  1  0  0  0  0
 18 19  2  0  0  0  0
 18 20  1  0  0  0  0
 20  6  1  0  0  0  0
 21 18  1  0  0  0  0
 22 20  1  0  0  0  0
 23 26  1  0  0  0  0
 23 25  1  0  0  0  0
 23  1  1  0  0  0  0
 24 23  1  0  0  0  0
 26 27  1  0  0  0  0
 26 28  1  0  0  0  0
 29 35  1  0  0  0  0
 29 34  1  0  0  0  0
 30 31  1  0  0  0  0
 30 29  2  0  0  0  0
 31 32  2  0  0  0  0
 32 33  1  0  0  0  0
 33 26  1  0  0  0  0
 34 33  2  0  0  0  0
 36 30  1  0  0  0  0
 37 31  1  0  0  0  0
M  END
>  <minimizedAffinity>
-5.39888668

$$$$

 OpenBabel03252501303D

 37 38  0  0  0  0  0  0  0  0999 V2000
   36.9560   27.5640   41.8110 C   0  0  0  0  0  0  0  0  0  0  0  0
   37.1290   26.2490   41.4810 C   0  0  0  0  0  0  0  0  0  0  0  0
   38.1200   25.4570   41.9730 C   0  0  0  0  0  0  0  0  0  0  0  0
   38.9930   25.9800   42.8380 C   0  0  0  0  0  0  0  0  0  0  0  0
   38.8670   27.3240   43.2180 C   0  0  0  0  0  0  0  0  0  0  0  0
   37.8450   28.1120   42.7030 C   0  0  0  0  0  0  0  0  0  0  0  0
   36.3760   25.8810   40.7640 H   0  0  0  0  0  0  0  0  0  0  0  0
   38.1380   24.4400   41.6150 H   0  0  0  0  0  0  0  0  0  0  0  0
   39.6440   27.6350   43.9330 H   0  0  0  0  0  0  0  0  0  0  0  0
   41.4530   24.9500   41.5800 N   0  0  0  0  0  0  0  0  0  0  0  0
   41.3310   25.1120   42.8500 C   0  0  0  0  0  0  0  0  0  0  0  0
   40.0640   25.1770   43.4060 N   0  0  0  0  0  0  0  0  0  0  0  0
   42.5130   25.2130   43.6790 N   0  0  0  0  0  0  0  0  0  0  0  0
   42.4250   25.0250   44.7050 H   0  0  0  0  0  0  0  0  0  0  0  0
   40.6850   24.8600   40.9210 H   0  0  0  0  0  0  0  0  0  0  0  0
   39.8880   24.6100   44.2950 H   0  0  0  0  0  0  0  0  0  0  0  0
   43.4230   25.4710   43.2350 H   0  0  0  0  0  0  0  0  0  0  0  0
   39.0870   30.1800   42.8140 C   0  0  0  0  0  0  0  0  0  0  0  0
   40.0780   30.1010   41.9950 O   0  0  0  0  0  0  0  0  0  0  0  0
   37.9950   29.3920   43.3170 N   0  0  0  0  0  0  0  0  0  0  0  0
   39.3190   31.2070   43.0990 H   0  0  0  0  0  0  0  0  0  0  0  0
   37.4900   29.9150   44.0650 H   0  0  0  0  0  0  0  0  0  0  0  0
   35.9570   28.5380   41.3370 C   0  0  0  0  0  0  0  0  0  0  0  0
   34.9730   28.2120   41.6890 H   0  0  0  0  0  0  0  0  0  0  0  0
   36.1420   29.5590   41.7720 H   0  0  0  0  0  0  0  0  0  0  0  0
   36.0290   28.6960   39.8320 C   0  0  0  0  0  0  0  0  0  0  0  0
   36.6170   27.9060   39.3350 H   0  0  0  0  0  0  0  0  0  0  0  0
   34.9900   28.6580   39.4240 H   0  0  0  0  0  0  0  0  0  0  0  0
   37.3760   31.5860   38.0380 C   0  0  0  0  0  0  0  0  0  0  0  0
   37.4980   32.5600   39.0540 C   0  0  0  0  0  0  0  0  0  0  0  0
   37.1030   32.1720   40.3300 C   0  0  0  0  0  0  0  0  0  0  0  0
   36.6330   30.9280   40.5490 N   0  0  0  0  0  0  0  0  0  0  0  0
   36.5420   30.0440   39.5310 C   0  0  0  0  0  0  0  0  0  0  0  0
   36.8970   30.3480   38.3090 N   0  0  0  0  0  0  0  0  0  0  0  0
   37.6560   31.7880   37.0130 H   0  0  0  0  0  0  0  0  0  0  0  0
   37.8860   33.5200   38.7590 H   0  0  0  0  0  0  0  0  0  0  0  0
   37.2000   32.9220   41.0980 H   0  0  0  0  0  0  0  0  0  0  0  0
  1  6  1  0  0  0  0
  2  1  2  0  0  0  0
  2  3  1  0  0  0  0
  3  4  2  0  0  0  0
  4  5  1  0  0  0  0
  4 12  1  0  0  0  0
  5  9  1  0  0  0  0
  6  5  2  0  0  0  0
  6 20  1  0  0  0  0
  7  2  1  0  0  0  0
  8  3  1  0  0  0  0
 10 11  2  0  0  0  0
 11 12  1  0  0  0  0
 11 13  1  0  0  0  0
 12 16  1  0  0  0  0
 13 14  1  0  0  0  0
 15 10  1  0  0  0  0
 17 13  1  0  0  0  0
 18 21  1  0  0  0  0
 18 20  1  0  0  0  0
 19 18  2  0  0  0  0
 20 22  1  0  0  0  0
 23 24  1  0  0  0  0
 23 25  1  0  0  0  0
 23  1  1  0  0  0  0
 26 23  1  0  0  0  0
 27 26  1  0  0  0  0
 28 26  1  0  0  0  0
 29 34  2  0  0  0  0
 29 30  1  0  0  0  0
 30 31  2  0  0  0  0
 31 32  1  0  0  0  0
 31 37  1  0  0  0  0
 33 26  1  0  0  0  0
 33 32  2  0  0  0  0
 34 33  1  0  0  0  0
 35 29  1  0  0  0  0
 36 30  1  0  0  0  0
M  END
>  <minimizedAffinity>
-5.37414646

$$$$

 OpenBabel03252501303D

 37 38  0  0  0  0  0  0  0  0999 V2000
   37.0500   29.0340   41.7470 C   0  0  0  0  0  0  0  0  0  0  0  0
   35.9370   29.3620   41.0250 C   0  0  0  0  0  0  0  0  0  0  0  0
   35.9620   29.9030   39.7770 C   0  0  0  0  0  0  0  0  0  0  0  0
   37.1430   30.1380   39.2010 C   0  0  0  0  0  0  0  0  0  0  0  0
   38.3230   29.8210   39.8910 C   0  0  0  0  0  0  0  0  0  0  0  0
   38.2710   29.2670   41.1640 C   0  0  0  0  0  0  0  0  0  0  0  0
   34.9960   29.1430   41.5580 H   0  0  0  0  0  0  0  0  0  0  0  0
   35.0040   30.1180   39.3330 H   0  0  0  0  0  0  0  0  0  0  0  0
   39.2280   30.0610   39.3110 H   0  0  0  0  0  0  0  0  0  0  0  0
   37.4050   32.9490   38.3510 N   0  0  0  0  0  0  0  0  0  0  0  0
   37.7570   31.9580   37.6110 C   0  0  0  0  0  0  0  0  0  0  0  0
   37.2300   30.7030   37.8630 N   0  0  0  0  0  0  0  0  0  0  0  0
   38.6870   32.1690   36.5210 N   0  0  0  0  0  0  0  0  0  0  0  0
   38.7230   31.4640   35.7480 H   0  0  0  0  0  0  0  0  0  0  0  0
   36.7540   32.9010   39.1290 H   0  0  0  0  0  0  0  0  0  0  0  0
   36.8840   30.1370   37.0250 H   0  0  0  0  0  0  0  0  0  0  0  0
   39.2980   33.0160   36.5330 H   0  0  0  0  0  0  0  0  0  0  0  0
   40.2470   30.1430   42.2390 C   0  0  0  0  0  0  0  0  0  0  0  0
   40.0070   31.3560   42.6000 O   0  0  0  0  0  0  0  0  0  0  0  0
   39.6280   29.0460   41.5470 N   0  0  0  0  0  0  0  0  0  0  0  0
   41.2470   30.1410   42.6760 H   0  0  0  0  0  0  0  0  0  0  0  0
   40.3040   28.2580   41.4450 H   0  0  0  0  0  0  0  0  0  0  0  0
   37.1690   28.4760   43.1060 C   0  0  0  0  0  0  0  0  0  0  0  0
   38.1820   28.6810   43.4670 H   0  0  0  0  0  0  0  0  0  0  0  0
   36.4560   28.9770   43.8170 H   0  0  0  0  0  0  0  0  0  0  0  0
   36.8180   27.0020   43.1180 C   0  0  0  0  0  0  0  0  0  0  0  0
   36.2120   26.7030   43.9890 H   0  0  0  0  0  0  0  0  0  0  0  0
   36.2310   26.7730   42.1960 H   0  0  0  0  0  0  0  0  0  0  0  0
   39.2450   24.4160   42.2190 C   0  0  0  0  0  0  0  0  0  0  0  0
   40.4160   24.8360   42.8870 C   0  0  0  0  0  0  0  0  0  0  0  0
   40.3160   26.0100   43.6270 C   0  0  0  0  0  0  0  0  0  0  0  0
   39.1520   26.6850   43.6800 N   0  0  0  0  0  0  0  0  0  0  0  0
   38.0670   26.2270   43.0160 C   0  0  0  0  0  0  0  0  0  0  0  0
   38.0960   25.1300   42.3030 N   0  0  0  0  0  0  0  0  0  0  0  0
   39.2180   23.5170   41.6180 H   0  0  0  0  0  0  0  0  0  0  0  0
   41.2880   24.2140   42.7700 H   0  0  0  0  0  0  0  0  0  0  0  0
   41.2160   26.3210   44.1330 H   0  0  0  0  0  0  0  0  0  0  0  0
  1 23  1  0  0  0  0
  2  7  1  0  0  0  0
  2  1  2  0  0  0  0
  3  2  1  0  0  0  0
  4  3  2  0  0  0  0
  4  5  1  0  0  0  0
  5  6  2  0  0  0  0
  6 20  1  0  0  0  0
  6  1  1  0  0  0  0
  8  3  1  0  0  0  0
  9  5  1  0  0  0  0
 10 15  1  0  0  0  0
 11 12  1  0  0  0  0
 11 10  2  0  0  0  0
 12  4  1  0  0  0  0
 13 17  1  0  0  0  0
 13 11  1  0  0  0  0
 14 13  1  0  0  0  0
 16 12  1  0  0  0  0
 18 19  2  0  0  0  0
 18 21  1  0  0  0  0
 20 18  1  0  0  0  0
 22 20  1  0  0  0  0
 23 26  1  0  0  0  0
 23 24  1  0  0  0  0
 23 25  1  0  0  0  0
 26 27  1  0  0  0  0
 28 26  1  0  0  0  0
 29 34  2  0  0  0  0
 29 30  1  0  0  0  0
 30 31  2  0  0  0  0
 31 32  1  0  0  0  0
 31 37  1  0  0  0  0
 33 26  1  0  0  0  0
 33 32  2  0  0  0  0
 34 33  1  0  0  0  0
 35 29  1  0  0  0  0
 36 30  1  0  0  0  0
M  END
>  <minimizedAffinity>
-5.3211813

$$$$

 OpenBabel03252501303D

 37 38  0  0  0  0  0  0  0  0999 V2000
   36.3210   28.4990   40.6390 C   0  0  0  0  0  0  0  0  0  0  0  0
   36.2450   27.3880   39.8470 C   0  0  0  0  0  0  0  0  0  0  0  0
   36.7090   26.1600   40.2010 C   0  0  0  0  0  0  0  0  0  0  0  0
   37.2810   26.0070   41.3970 C   0  0  0  0  0  0  0  0  0  0  0  0
   37.3870   27.1110   42.2560 C   0  0  0  0  0  0  0  0  0  0  0  0
   36.9040   28.3550   41.8730 C   0  0  0  0  0  0  0  0  0  0  0  0
   35.7620   27.5830   38.8740 H   0  0  0  0  0  0  0  0  0  0  0  0
   36.5880   25.3770   39.4690 H   0  0  0  0  0  0  0  0  0  0  0  0
   37.8760   26.8570   43.2100 H   0  0  0  0  0  0  0  0  0  0  0  0
   39.9710   24.8330   41.1150 N   0  0  0  0  0  0  0  0  0  0  0  0
   39.1320   24.4530   42.0120 C   0  0  0  0  0  0  0  0  0  0  0  0
   37.7840   24.7140   41.8330 N   0  0  0  0  0  0  0  0  0  0  0  0
   39.6030   23.7510   43.1870 N   0  0  0  0  0  0  0  0  0  0  0  0
   38.9220   23.1780   43.7380 H   0  0  0  0  0  0  0  0  0  0  0  0
   39.7350   25.3210   40.2560 H   0  0  0  0  0  0  0  0  0  0  0  0
   37.0980   23.9190   42.0350 H   0  0  0  0  0  0  0  0  0  0  0  0
   40.6090   23.8340   43.4580 H   0  0  0  0  0  0  0  0  0  0  0  0
   38.4820   29.7410   43.0650 C   0  0  0  0  0  0  0  0  0  0  0  0
   39.6280   29.6370   42.4860 O   0  0  0  0  0  0  0  0  0  0  0  0
   37.1430   29.2230   42.9810 N   0  0  0  0  0  0  0  0  0  0  0  0
   38.8400   30.4730   43.7900 H   0  0  0  0  0  0  0  0  0  0  0  0
   36.5680   29.5860   43.7710 H   0  0  0  0  0  0  0  0  0  0  0  0
   35.8920   29.8840   40.3740 C   0  0  0  0  0  0  0  0  0  0  0  0
   34.8020   29.8860   40.2680 H   0  0  0  0  0  0  0  0  0  0  0  0
   36.1410   30.5620   41.2370 H   0  0  0  0  0  0  0  0  0  0  0  0
   36.6090   30.4510   39.1660 C   0  0  0  0  0  0  0  0  0  0  0  0
   36.8750   29.6870   38.4150 H   0  0  0  0  0  0  0  0  0  0  0  0
   35.9370   31.1950   38.6750 H   0  0  0  0  0  0  0  0  0  0  0  0
   38.7200   32.8730   40.9150 C   0  0  0  0  0  0  0  0  0  0  0  0
   40.0150   32.5620   40.4440 C   0  0  0  0  0  0  0  0  0  0  0  0
   40.1040   31.5140   39.5330 C   0  0  0  0  0  0  0  0  0  0  0  0
   38.9960   30.8530   39.1450 N   0  0  0  0  0  0  0  0  0  0  0  0
   37.7850   31.2030   39.6340 C   0  0  0  0  0  0  0  0  0  0  0  0
   37.6360   32.1790   40.4930 N   0  0  0  0  0  0  0  0  0  0  0  0
   38.5440   33.6700   41.6240 H   0  0  0  0  0  0  0  0  0  0  0  0
   40.8240   33.1590   40.8270 H   0  0  0  0  0  0  0  0  0  0  0  0
   41.0960   31.2850   39.1810 H   0  0  0  0  0  0  0  0  0  0  0  0
  1  6  1  0  0  0  0
  2  3  1  0  0  0  0
  2  1  2  0  0  0  0
  3  4  2  0  0  0  0
  4 12  1  0  0  0  0
  4  5  1  0  0  0  0
  5  9  1  0  0  0  0
  6  5  2  0  0  0  0
  6 20  1  0  0  0  0
  7  2  1  0  0  0  0
  8  3  1  0  0  0  0
 10 11  2  0  0  0  0
 11 13  1  0  0  0  0
 12 11  1  0  0  0  0
 12 16  1  0  0  0  0
 13 17  1  0  0  0  0
 13 14  1  0  0  0  0
 15 10  1  0  0  0  0
 18 21  1  0  0  0  0
 19 18  2  0  0  0  0
 20 18  1  0  0  0  0
 20 22  1  0  0  0  0
 23  1  1  0  0  0  0
 23 25  1  0  0  0  0
 24 23  1  0  0  0  0
 26 33  1  0  0  0  0
 26 23  1  0  0  0  0
 27 26  1  0  0  0  0
 28 26  1  0  0  0  0
 29 35  1  0  0  0  0
 30 36  1  0  0  0  0
 30 29  2  0  0  0  0
 31 30  1  0  0  0  0
 32 31  2  0  0  0  0
 32 33  1  0  0  0  0
 33 34  2  0  0  0  0
 34 29  1  0  0  0  0
 37 31  1  0  0  0  0
M  END
>  <minimizedAffinity>
-5.29802418

$$$$

 OpenBabel03252501303D

 37 38  0  0  0  0  0  0  0  0999 V2000
   39.2360   29.5000   41.7310 C   0  0  0  0  0  0  0  0  0  0  0  0
   38.5760   29.1880   40.5760 C   0  0  0  0  0  0  0  0  0  0  0  0
   38.3800   30.0530   39.5450 C   0  0  0  0  0  0  0  0  0  0  0  0
   38.8550   31.2970   39.6490 C   0  0  0  0  0  0  0  0  0  0  0  0
   39.5420   31.6780   40.8100 C   0  0  0  0  0  0  0  0  0  0  0  0
   39.7320   30.7750   41.8490 C   0  0  0  0  0  0  0  0  0  0  0  0
   38.2100   28.1470   40.5550 H   0  0  0  0  0  0  0  0  0  0  0  0
   37.8330   29.6690   38.6990 H   0  0  0  0  0  0  0  0  0  0  0  0
   39.8830   32.7240   40.7740 H   0  0  0  0  0  0  0  0  0  0  0  0
   40.3730   31.6170   37.1410 N   0  0  0  0  0  0  0  0  0  0  0  0
   39.1730   32.0520   37.2930 C   0  0  0  0  0  0  0  0  0  0  0  0
   38.6850   32.2600   38.5730 N   0  0  0  0  0  0  0  0  0  0  0  0
   38.3550   32.3300   36.1310 N   0  0  0  0  0  0  0  0  0  0  0  0
   37.5300   32.9650   36.2370 H   0  0  0  0  0  0  0  0  0  0  0  0
   41.0220   31.4040   37.8920 H   0  0  0  0  0  0  0  0  0  0  0  0
   38.1560   33.1710   38.7550 H   0  0  0  0  0  0  0  0  0  0  0  0
   38.6070   31.8890   35.2180 H   0  0  0  0  0  0  0  0  0  0  0  0
   41.9110   31.3610   42.7070 C   0  0  0  0  0  0  0  0  0  0  0  0
   42.8010   30.7560   41.9980 O   0  0  0  0  0  0  0  0  0  0  0  0
   40.4840   31.4750   42.8390 N   0  0  0  0  0  0  0  0  0  0  0  0
   42.6530   31.8790   43.3160 H   0  0  0  0  0  0  0  0  0  0  0  0
   40.2460   32.0690   43.6630 H   0  0  0  0  0  0  0  0  0  0  0  0
   39.4920   28.6810   42.9290 C   0  0  0  0  0  0  0  0  0  0  0  0
   40.2660   27.9480   42.6780 H   0  0  0  0  0  0  0  0  0  0  0  0
   39.8900   29.3060   43.7750 H   0  0  0  0  0  0  0  0  0  0  0  0
   38.2120   28.0460   43.4340 C   0  0  0  0  0  0  0  0  0  0  0  0
   38.0840   28.1250   44.5260 H   0  0  0  0  0  0  0  0  0  0  0  0
   37.3490   28.5630   42.9490 H   0  0  0  0  0  0  0  0  0  0  0  0
   37.0460   24.8880   42.0020 C   0  0  0  0  0  0  0  0  0  0  0  0
   38.1700   24.0430   42.1450 C   0  0  0  0  0  0  0  0  0  0  0  0
   39.2950   24.6080   42.7350 C   0  0  0  0  0  0  0  0  0  0  0  0
   39.2810   25.8940   43.1350 N   0  0  0  0  0  0  0  0  0  0  0  0
   38.1710   26.6490   42.9690 C   0  0  0  0  0  0  0  0  0  0  0  0
   37.0810   26.1760   42.4210 N   0  0  0  0  0  0  0  0  0  0  0  0
   36.1230   24.5440   41.5560 H   0  0  0  0  0  0  0  0  0  0  0  0
   38.0620   23.0330   41.7870 H   0  0  0  0  0  0  0  0  0  0  0  0
   40.1460   23.9550   42.8390 H   0  0  0  0  0  0  0  0  0  0  0  0
  1  6  1  0  0  0  0
  1 23  1  0  0  0  0
  2  1  2  0  0  0  0
  3  4  2  0  0  0  0
  3  2  1  0  0  0  0
  4  5  1  0  0  0  0
  5  6  2  0  0  0  0
  6 20  1  0  0  0  0
  7  2  1  0  0  0  0
  8  3  1  0  0  0  0
  9  5  1  0  0  0  0
 10 11  2  0  0  0  0
 10 15  1  0  0  0  0
 11 12  1  0  0  0  0
 12 16  1  0  0  0  0
 12  4  1  0  0  0  0
 13 14  1  0  0  0  0
 13 11  1  0  0  0  0
 17 13  1  0  0  0  0
 18 20  1  0  0  0  0
 18 21  1  0  0  0  0
 19 18  2  0  0  0  0
 20 22  1  0  0  0  0
 23 26  1  0  0  0  0
 23 25  1  0  0  0  0
 24 23  1  0  0  0  0
 26 27  1  0  0  0  0
 28 26  1  0  0  0  0
 29 30  2  0  0  0  0
 29 34  1  0  0  0  0
 30 31  1  0  0  0  0
 31 37  1  0  0  0  0
 31 32  2  0  0  0  0
 33 32  1  0  0  0  0
 33 26  1  0  0  0  0
 34 33  2  0  0  0  0
 35 29  1  0  0  0  0
 36 30  1  0  0  0  0
M  END
>  <minimizedAffinity>
-5.15036154

$$$$
