
 OpenBabel03252503383D

 40 42  0  0  1  0  0  0  0  0999 V2000
   46.2110   34.0090   42.2730 C   0  0  1  0  0  0  0  0  0  0  0  0
   45.5240   34.2420   40.8420 C   0  0  0  0  0  0  0  0  0  0  0  0
   44.1780   34.8600   41.0560 C   0  0  0  0  0  0  0  0  0  0  0  0
   43.2040   33.8950   41.6700 C   0  0  0  0  0  0  0  0  0  0  0  0
   43.9640   32.9320   42.5370 C   0  0  0  0  0  0  0  0  0  0  0  0
   45.1640   33.5900   43.2030 C   0  0  2  0  0  0  0  0  0  0  0  0
   46.6270   35.0180   42.4270 H   0  0  0  0  0  0  0  0  0  0  0  0
   45.3720   33.2320   40.4030 H   0  0  0  0  0  0  0  0  0  0  0  0
   46.1720   34.9040   40.2650 H   0  0  0  0  0  0  0  0  0  0  0  0
   43.8280   35.2080   40.0660 H   0  0  0  0  0  0  0  0  0  0  0  0
   44.2410   35.7630   41.7010 H   0  0  0  0  0  0  0  0  0  0  0  0
   42.3610   34.4050   42.1710 H   0  0  0  0  0  0  0  0  0  0  0  0
   42.7790   33.3070   40.8050 H   0  0  0  0  0  0  0  0  0  0  0  0
   43.2960   32.5170   43.2890 H   0  0  0  0  0  0  0  0  0  0  0  0
   44.3750   32.1160   41.9110 H   0  0  0  0  0  0  0  0  0  0  0  0
   45.6080   32.7240   43.7810 H   0  0  0  0  0  0  0  0  0  0  0  0
   47.2700   32.9860   42.0000 C   0  0  0  0  0  0  0  0  0  0  0  0
   48.5570   33.1560   41.4910 C   0  0  0  0  0  0  0  0  0  0  0  0
   49.3120   32.0200   41.3420 C   0  0  0  0  0  0  0  0  0  0  0  0
   48.7850   30.7930   41.6960 N   0  0  0  0  0  0  0  0  0  0  0  0
   47.5370   30.6730   42.1880 C   0  0  0  0  0  0  0  0  0  0  0  0
   46.7750   31.7940   42.3380 N   0  0  0  0  0  0  0  0  0  0  0  0
   50.3070   32.1350   40.9480 H   0  0  0  0  0  0  0  0  0  0  0  0
   47.2480   29.6560   42.4260 H   0  0  0  0  0  0  0  0  0  0  0  0
   49.1550   34.4870   41.1880 C   0  0  0  0  0  0  0  0  0  0  0  0
   48.7260   35.6900   41.7440 C   0  0  0  0  0  0  0  0  0  0  0  0
   49.9010   35.1750   42.4490 C   0  0  0  0  0  0  0  0  0  0  0  0
   50.0350   34.3310   40.4800 H   0  0  0  0  0  0  0  0  0  0  0  0
   48.9260   36.6430   41.1610 H   0  0  0  0  0  0  0  0  0  0  0  0
   47.7530   35.7920   42.2720 H   0  0  0  0  0  0  0  0  0  0  0  0
   49.7280   34.6050   43.3860 H   0  0  0  0  0  0  0  0  0  0  0  0
   50.9120   35.5180   42.2690 H   0  0  0  0  0  0  0  0  0  0  0  0
   46.0870   33.7370   45.9000 N   0  0  0  0  0  0  0  0  0  0  0  0
   45.0500   34.4710   45.5940 C   0  0  0  0  0  0  0  0  0  0  0  0
   44.7970   34.5670   44.2020 N   0  0  0  0  0  0  0  0  0  0  0  0
   44.1760   35.1630   46.5090 N   0  0  0  0  0  0  0  0  0  0  0  0
   44.4830   35.7880   47.2890 H   0  0  0  0  0  0  0  0  0  0  0  0
   46.2980   33.6490   46.9240 H   0  0  0  0  0  0  0  0  0  0  0  0
   44.2940   35.4210   43.8160 H   0  0  0  0  0  0  0  0  0  0  0  0
   43.1430   35.0690   46.4300 H   0  0  0  0  0  0  0  0  0  0  0  0
  1  7  1  1  0  0  0
  1  6  1  0  0  0  0
  2  3  1  0  0  0  0
  2  1  1  0  0  0  0
  3  4  1  0  0  0  0
  3 11  1  0  0  0  0
  4 12  1  0  0  0  0
  4  5  1  0  0  0  0
  5  6  1  0  0  0  0
  5 14  1  0  0  0  0
  6 16  1  1  0  0  0
  6 35  1  0  0  0  0
  8  2  1  0  0  0  0
  9  2  1  0  0  0  0
 10  3  1  0  0  0  0
 13  4  1  0  0  0  0
 15  5  1  0  0  0  0
 17  1  1  0  0  0  0
 17 22  1  0  0  0  0
 18 17  2  0  0  0  0
 19 18  1  0  0  0  0
 19 20  2  0  0  0  0
 20 21  1  0  0  0  0
 21 22  2  0  0  0  0
 21 24  1  0  0  0  0
 23 19  1  0  0  0  0
 25 18  1  0  0  0  0
 25 26  1  0  0  0  0
 25 27  1  0  0  0  0
 26 30  1  0  0  0  0
 26 27  1  0  0  0  0
 27 31  1  0  0  0  0
 28 25  1  0  0  0  0
 29 26  1  0  0  0  0
 32 27  1  0  0  0  0
 33 38  1  0  0  0  0
 34 33  2  0  0  0  0
 34 36  1  0  0  0  0
 35 34  1  0  0  0  0
 36 37  1  0  0  0  0
 39 35  1  0  0  0  0
 40 36  1  0  0  0  0
M  END
>  <minimizedAffinity>
-5.4272294

>  <minimizedRMSD>
3.53607488

$$$$
