
 OpenBabel03252509343D

 42 43  0  0  1  0  0  0  0  0999 V2000
   45.8710   33.9110   43.0980 C   0  0  1  0  0  0  0  0  0  0  0  0
   45.5770   35.3880   43.2860 C   0  0  0  0  0  0  0  0  0  0  0  0
   44.5320   35.6100   42.1920 C   0  0  0  0  0  0  0  0  0  0  0  0
   44.8360   34.5890   41.1240 C   0  0  0  0  0  0  0  0  0  0  0  0
   46.0750   33.8560   41.6030 C   0  0  1  0  0  0  0  0  0  0  0  0
   44.9740   33.2970   43.3190 H   0  0  0  0  0  0  0  0  0  0  0  0
   45.1190   35.5560   44.2690 H   0  0  0  0  0  0  0  0  0  0  0  0
   46.4770   35.9650   43.0980 H   0  0  0  0  0  0  0  0  0  0  0  0
   44.5240   36.6370   41.8260 H   0  0  0  0  0  0  0  0  0  0  0  0
   43.5490   35.3620   42.6340 H   0  0  0  0  0  0  0  0  0  0  0  0
   44.0130   33.9020   40.9280 H   0  0  0  0  0  0  0  0  0  0  0  0
   45.1570   35.1620   40.2220 H   0  0  0  0  0  0  0  0  0  0  0  0
   46.0390   32.7900   41.2450 H   0  0  0  0  0  0  0  0  0  0  0  0
   47.3460   34.5140   41.1510 C   0  0  0  0  0  0  0  0  0  0  0  0
   47.3530   35.5880   41.3110 H   0  0  0  0  0  0  0  0  0  0  0  0
   48.2490   34.0220   41.5580 H   0  0  0  0  0  0  0  0  0  0  0  0
   49.2860   32.9980   39.9850 N   0  0  0  0  0  0  0  0  0  0  0  0
   48.2510   33.2700   39.2330 C   0  0  0  0  0  0  0  0  0  0  0  0
   47.4010   34.3220   39.6950 N   0  0  0  0  0  0  0  0  0  0  0  0
   47.9800   32.5570   38.0090 N   0  0  0  0  0  0  0  0  0  0  0  0
   47.3240   31.7500   38.2130 H   0  0  0  0  0  0  0  0  0  0  0  0
   49.9740   32.2510   39.7480 H   0  0  0  0  0  0  0  0  0  0  0  0
   46.8820   34.8790   38.9950 H   0  0  0  0  0  0  0  0  0  0  0  0
   48.1670   32.5020   36.9690 H   0  0  0  0  0  0  0  0  0  0  0  0
   47.0090   33.5160   43.7960 O   0  0  0  0  0  0  0  0  0  0  0  0
   47.7910   31.9490   45.7090 O   0  0  0  0  0  0  0  0  0  0  0  0
   46.6220   32.2300   44.8080 P   0  0  1  0  0  0  0  0  0  0  0  0
   45.2320   32.5550   45.6880 O   0  0  0  0  0  0  0  0  0  0  0  0
   44.6120   33.1860   45.3130 H   0  0  0  0  0  0  0  0  0  0  0  0
   46.2820   30.8770   43.8750 O   0  0  0  0  0  0  0  0  0  0  0  0
   45.1510   30.2840   44.3520 C   0  0  0  0  0  0  0  0  0  0  0  0
   44.7720   29.6250   43.5200 H   0  0  0  0  0  0  0  0  0  0  0  0
   44.3080   30.9110   44.6180 H   0  0  0  0  0  0  0  0  0  0  0  0
   46.4870   27.4160   46.3030 C   0  0  0  0  0  0  0  0  0  0  0  0
   46.2460   28.2880   45.2290 C   0  0  0  0  0  0  0  0  0  0  0  0
   45.4220   29.3640   45.4680 C   0  0  0  0  0  0  0  0  0  0  0  0
   44.9000   29.5140   46.7130 N   0  0  0  0  0  0  0  0  0  0  0  0
   45.1420   28.6690   47.7250 C   0  0  0  0  0  0  0  0  0  0  0  0
   45.9410   27.6190   47.5050 N   0  0  0  0  0  0  0  0  0  0  0  0
   47.1450   26.5510   46.1130 H   0  0  0  0  0  0  0  0  0  0  0  0
   46.7090   28.0800   44.2770 H   0  0  0  0  0  0  0  0  0  0  0  0
   44.6610   28.9140   48.6570 H   0  0  0  0  0  0  0  0  0  0  0  0
  1  2  1  0  0  0  0
  1  6  1  1  0  0  0
  1 25  1  0  0  0  0
  2  7  1  0  0  0  0
  3 10  1  0  0  0  0
  3  2  1  0  0  0  0
  4  5  1  0  0  0  0
  4  3  1  0  0  0  0
  5 13  1  6  0  0  0
  5  1  1  0  0  0  0
  8  2  1  0  0  0  0
  9  3  1  0  0  0  0
 11  4  1  0  0  0  0
 12  4  1  0  0  0  0
 14 15  1  0  0  0  0
 14 16  1  0  0  0  0
 14  5  1  0  0  0  0
 18 19  1  0  0  0  0
 18 17  2  0  0  0  0
 19 14  1  0  0  0  0
 20 21  1  0  0  0  0
 20 18  1  0  0  0  0
 22 17  1  0  0  0  0
 23 19  1  0  0  0  0
 24 20  1  0  0  0  0
 25 27  1  0  0  0  0
 27 28  1  0  0  0  0
 27 26  2  1  0  0  0
 29 28  1  0  0  0  0
 30 31  1  0  0  0  0
 30 27  1  0  0  0  0
 31 33  1  0  0  0  0
 31 36  1  0  0  0  0
 32 31  1  0  0  0  0
 34 39  1  0  0  0  0
 35 36  1  0  0  0  0
 35 34  2  0  0  0  0
 36 37  2  0  0  0  0
 37 38  1  0  0  0  0
 38 42  1  0  0  0  0
 39 38  2  0  0  0  0
 40 34  1  0  0  0  0
 41 35  1  0  0  0  0
M  END
>  <minimizedAffinity>
-3.701756

>  <minimizedRMSD>
3.66953349

$$$$
