
 OpenBabel03252508253D

 40 43  0  0  1  0  0  0  0  0999 V2000
   46.1320   32.1120   45.8160 C   0  0  1  0  0  0  0  0  0  0  0  0
   46.8680   32.0120   47.0830 C   0  0  0  0  0  0  0  0  0  0  0  0
   45.4230   31.4100   46.8700 C   0  0  2  0  0  0  0  0  0  0  0  0
   46.8200   31.6330   45.0360 H   0  0  0  0  0  0  0  0  0  0  0  0
   46.9710   32.8720   47.7650 H   0  0  0  0  0  0  0  0  0  0  0  0
   47.5610   31.1960   47.3350 H   0  0  0  0  0  0  0  0  0  0  0  0
   44.8630   31.9300   47.7010 H   0  0  0  0  0  0  0  0  0  0  0  0
   45.2240   29.9580   46.9360 C   0  0  0  0  0  0  0  0  0  0  0  0
   45.2170   29.1730   48.0470 C   0  0  0  0  0  0  0  0  0  0  0  0
   45.1460   27.7920   48.0640 C   0  0  0  0  0  0  0  0  0  0  0  0
   45.0760   27.1550   46.8140 C   0  0  0  0  0  0  0  0  0  0  0  0
   45.0800   27.9350   45.6580 C   0  0  0  0  0  0  0  0  0  0  0  0
   44.9480   27.2700   44.4540 C   0  0  0  0  0  0  0  0  0  0  0  0
   44.8770   28.0070   43.2800 C   0  0  0  0  0  0  0  0  0  0  0  0
   44.9330   29.3850   43.3110 C   0  0  0  0  0  0  0  0  0  0  0  0
   45.0660   29.9970   44.5360 C   0  0  0  0  0  0  0  0  0  0  0  0
   45.1500   29.3070   45.7300 C   0  0  0  0  0  0  0  0  0  0  0  0
   45.2720   29.7140   48.9920 H   0  0  0  0  0  0  0  0  0  0  0  0
   45.1440   27.2470   48.9910 H   0  0  0  0  0  0  0  0  0  0  0  0
   45.0230   26.0770   46.7730 H   0  0  0  0  0  0  0  0  0  0  0  0
   44.9050   26.1780   44.4580 H   0  0  0  0  0  0  0  0  0  0  0  0
   44.7770   27.3750   42.3850 H   0  0  0  0  0  0  0  0  0  0  0  0
   44.8590   29.7700   42.3160 H   0  0  0  0  0  0  0  0  0  0  0  0
   45.0000   31.0220   44.3110 H   0  0  0  0  0  0  0  0  0  0  0  0
   44.5520   35.4480   45.7970 C   0  0  0  0  0  0  0  0  0  0  0  0
   44.5840   35.7920   44.3990 C   0  0  0  0  0  0  0  0  0  0  0  0
   45.1660   34.8560   43.5120 C   0  0  0  0  0  0  0  0  0  0  0  0
   45.6510   33.7170   44.0010 N   0  0  0  0  0  0  0  0  0  0  0  0
   45.6030   33.4230   45.3350 C   0  0  0  0  0  0  0  0  0  0  0  0
   45.0670   34.2700   46.2070 N   0  0  0  0  0  0  0  0  0  0  0  0
   44.0990   36.1860   46.4500 H   0  0  0  0  0  0  0  0  0  0  0  0
   44.1760   36.7100   44.0790 H   0  0  0  0  0  0  0  0  0  0  0  0
   43.0970   35.6710   41.6820 N   0  0  0  0  0  0  0  0  0  0  0  0
   44.1650   35.0620   41.2180 C   0  0  0  0  0  0  0  0  0  0  0  0
   45.2460   35.1150   42.1190 N   0  0  0  0  0  0  0  0  0  0  0  0
   44.3380   34.3880   39.9590 N   0  0  0  0  0  0  0  0  0  0  0  0
   44.4410   34.6160   38.9350 H   0  0  0  0  0  0  0  0  0  0  0  0
   42.2610   35.6680   41.0630 H   0  0  0  0  0  0  0  0  0  0  0  0
   46.2060   35.3630   41.7250 H   0  0  0  0  0  0  0  0  0  0  0  0
   44.4010   33.3300   39.8730 H   0  0  0  0  0  0  0  0  0  0  0  0
  1  4  1  6  0  0  0
  1  3  1  0  0  0  0
  1  2  1  0  0  0  0
  2  6  1  0  0  0  0
  2  5  1  0  0  0  0
  3  8  1  0  0  0  0
  3  2  1  0  0  0  0
  3  7  1  1  0  0  0
  8  9  1  0  0  0  0
  9 10  2  0  0  0  0
  9 18  1  0  0  0  0
 10 19  1  0  0  0  0
 11 10  1  0  0  0  0
 12 17  1  0  0  0  0
 12 11  2  0  0  0  0
 13 21  1  0  0  0  0
 13 12  1  0  0  0  0
 14 15  1  0  0  0  0
 14 13  2  0  0  0  0
 15 16  2  0  0  0  0
 16 17  1  0  0  0  0
 17  8  2  0  0  0  0
 20 11  1  0  0  0  0
 22 14  1  0  0  0  0
 23 15  1  0  0  0  0
 24 16  1  0  0  0  0
 25 30  1  0  0  0  0
 25 31  1  0  0  0  0
 26 25  2  0  0  0  0
 27 28  2  0  0  0  0
 27 26  1  0  0  0  0
 28 29  1  0  0  0  0
 29  1  1  0  0  0  0
 29 30  2  0  0  0  0
 32 26  1  0  0  0  0
 34 33  2  0  0  0  0
 34 35  1  0  0  0  0
 35 27  1  0  0  0  0
 36 34  1  0  0  0  0
 37 36  1  0  0  0  0
 38 33  1  0  0  0  0
 39 35  1  0  0  0  0
 40 36  1  0  0  0  0
M  END
>  <minimizedAffinity>
-5.18275976

>  <minimizedRMSD>
1.24534738

$$$$
