
 OpenBabel03242519313D

 47 49  0  0  0  0  0  0  0  0999 V2000
   47.8960   33.8070   42.8460 C   0  0  0  0  0  0  0  0  0  0  0  0
   48.5940   35.0380   42.6790 C   0  0  0  0  0  0  0  0  0  0  0  0
   49.9600   35.0330   42.3720 C   0  0  0  0  0  0  0  0  0  0  0  0
   50.5570   33.8010   42.2490 N   0  0  0  0  0  0  0  0  0  0  0  0
   49.8390   32.6390   42.4210 C   0  0  0  0  0  0  0  0  0  0  0  0
   48.5540   32.6700   42.7080 N   0  0  0  0  0  0  0  0  0  0  0  0
   48.1950   36.0410   42.7600 H   0  0  0  0  0  0  0  0  0  0  0  0
   50.5340   35.9170   42.2340 H   0  0  0  0  0  0  0  0  0  0  0  0
   46.4740   33.9550   43.1690 C   0  0  0  0  0  0  0  0  0  0  0  0
   45.7810   34.9700   42.4180 C   0  0  0  0  0  0  0  0  0  0  0  0
   45.3310   36.1330   43.2150 C   0  0  0  0  0  0  0  0  0  0  0  0
   44.4490   35.6730   44.3900 C   0  0  0  0  0  0  0  0  0  0  0  0
   44.9870   34.4900   45.1110 C   0  0  0  0  0  0  0  0  0  0  0  0
   46.4240   34.1930   44.7150 C   0  0  0  0  0  0  0  0  0  0  0  0
   46.0020   32.9320   43.0830 H   0  0  0  0  0  0  0  0  0  0  0  0
   46.3780   35.3520   41.5650 H   0  0  0  0  0  0  0  0  0  0  0  0
   44.8550   34.5250   41.9520 H   0  0  0  0  0  0  0  0  0  0  0  0
   46.0890   36.8120   43.5920 H   0  0  0  0  0  0  0  0  0  0  0  0
   44.6520   36.7580   42.5700 H   0  0  0  0  0  0  0  0  0  0  0  0
   44.3310   36.5890   45.0270 H   0  0  0  0  0  0  0  0  0  0  0  0
   43.4150   35.4800   43.9810 H   0  0  0  0  0  0  0  0  0  0  0  0
   44.9860   34.6060   46.2010 H   0  0  0  0  0  0  0  0  0  0  0  0
   44.4000   33.5810   44.8230 H   0  0  0  0  0  0  0  0  0  0  0  0
   46.7940   33.3150   45.2460 H   0  0  0  0  0  0  0  0  0  0  0  0
   47.0630   35.0840   44.8980 H   0  0  0  0  0  0  0  0  0  0  0  0
   50.6420   31.4330   42.2560 C   0  0  0  0  0  0  0  0  0  0  0  0
   51.4180   31.3060   41.1680 N   0  0  0  0  0  0  0  0  0  0  0  0
   52.0700   30.1140   41.2220 C   0  0  0  0  0  0  0  0  0  0  0  0
   51.6800   29.5140   42.3630 N   0  0  0  0  0  0  0  0  0  0  0  0
   50.8130   30.3060   42.9970 N   0  0  0  0  0  0  0  0  0  0  0  0
   52.7760   29.7020   40.4960 H   0  0  0  0  0  0  0  0  0  0  0  0
   52.1170   28.2380   42.8750 C   0  0  0  0  0  0  0  0  0  0  0  0
   51.3900   27.9120   43.6720 H   0  0  0  0  0  0  0  0  0  0  0  0
   52.1290   27.4410   42.1500 H   0  0  0  0  0  0  0  0  0  0  0  0
   53.4200   28.3910   43.5230 C   0  0  0  0  0  3  0  0  0  0  0  0
   53.9660   29.3160   44.2930 C   0  0  0  0  0  3  0  0  0  0  0  0
   55.3430   29.2820   44.9760 C   0  0  0  0  0  0  0  0  0  0  0  0
   55.9290   28.4290   44.5980 H   0  0  0  0  0  0  0  0  0  0  0  0
   55.0960   29.2100   46.0440 H   0  0  0  0  0  0  0  0  0  0  0  0
   58.0360   29.6000   44.0650 N   0  0  0  0  0  0  0  0  0  0  0  0
   57.3050   30.6440   44.1410 C   0  0  0  0  0  0  0  0  0  0  0  0
   56.0090   30.5400   44.7520 N   0  0  0  0  0  0  0  0  0  0  0  0
   57.7350   31.9010   43.6390 N   0  0  0  0  0  0  0  0  0  0  0  0
   57.5380   32.1980   42.6430 H   0  0  0  0  0  0  0  0  0  0  0  0
   57.7010   28.6890   44.4380 H   0  0  0  0  0  0  0  0  0  0  0  0
   55.5710   31.4560   45.0310 H   0  0  0  0  0  0  0  0  0  0  0  0
   58.2170   32.8160   43.7680 H   0  0  0  0  0  0  0  0  0  0  0  0
  1  9  1  0  0  0  0
  2  7  1  0  0  0  0
  2  1  2  0  0  0  0
  3  2  1  0  0  0  0
  4  3  2  0  0  0  0
  4  5  1  0  0  0  0
  5  6  2  0  0  0  0
  6  1  1  0  0  0  0
  8  3  1  0  0  0  0
  9 14  1  0  0  0  0
 10  9  1  0  0  0  0
 10 11  1  0  0  0  0
 11 18  1  0  0  0  0
 11 12  1  0  0  0  0
 12 20  1  0  0  0  0
 12 13  1  0  0  0  0
 13 22  1  0  0  0  0
 14 25  1  0  0  0  0
 14 13  1  0  0  0  0
 14 24  1  0  0  0  0
 15  9  1  0  0  0  0
 16 10  1  0  0  0  0
 17 10  1  0  0  0  0
 19 11  1  0  0  0  0
 21 12  1  0  0  0  0
 23 13  1  0  0  0  0
 26  5  1  0  0  0  0
 26 30  2  0  0  0  0
 27 28  2  0  0  0  0
 27 26  1  0  0  0  0
 28 29  1  0  0  0  0
 29 32  1  0  0  0  0
 29 30  1  0  0  0  0
 31 28  1  0  0  0  0
 32 35  1  0  0  0  0
 32 33  1  0  0  0  0
 34 32  1  0  0  0  0
 35 36  2  0  0  0  0
 36 37  1  0  0  0  0
 37 39  1  0  0  0  0
 38 37  1  0  0  0  0
 40 41  2  0  0  0  0
 40 45  1  0  0  0  0
 41 42  1  0  0  0  0
 42 37  1  0  0  0  0
 42 46  1  0  0  0  0
 43 47  1  0  0  0  0
 43 41  1  0  0  0  0
 44 43  1  0  0  0  0
M  END
>  <minimizedAffinity>
-4.45124435

>  <minimizedRMSD>
1.47029078

$$$$
