
 OpenBabel03242514073D

 42 44  0  0  1  0  0  0  0  0999 V2000
   40.8690   33.4340   40.4520 C   0  0  1  0  0  0  0  0  0  0  0  0
   41.8680   32.7410   41.4110 C   0  0  0  0  0  0  0  0  0  0  0  0
   43.0110   33.7560   41.5290 C   0  0  0  0  0  0  0  0  0  0  0  0
   43.7190   33.7690   40.2040 C   0  0  0  0  0  0  0  0  0  0  0  0
   42.8260   34.0580   39.0630 C   0  0  0  0  0  0  0  0  0  0  0  0
   41.4620   33.4720   39.0960 C   0  0  1  0  0  0  0  0  0  0  0  0
   40.7370   34.4630   40.8640 H   0  0  0  0  0  0  0  0  0  0  0  0
   41.4060   32.5470   42.3810 H   0  0  0  0  0  0  0  0  0  0  0  0
   42.2280   31.8070   40.9810 H   0  0  0  0  0  0  0  0  0  0  0  0
   43.7200   33.3440   42.2880 H   0  0  0  0  0  0  0  0  0  0  0  0
   42.6100   34.7340   41.8310 H   0  0  0  0  0  0  0  0  0  0  0  0
   44.2870   32.8150   40.1120 H   0  0  0  0  0  0  0  0  0  0  0  0
   44.4900   34.5720   40.2720 H   0  0  0  0  0  0  0  0  0  0  0  0
   43.3360   33.7390   38.1160 H   0  0  0  0  0  0  0  0  0  0  0  0
   42.7420   35.1800   38.9850 H   0  0  0  0  0  0  0  0  0  0  0  0
   40.8680   34.0790   38.3840 H   0  0  0  0  0  0  0  0  0  0  0  0
   38.1570   31.0290   41.1660 C   0  0  0  0  0  0  0  0  0  0  0  0
   37.1040   31.6320   40.5360 C   0  0  0  0  0  0  0  0  0  0  0  0
   37.1790   32.8280   39.8550 C   0  0  0  0  0  0  0  0  0  0  0  0
   38.4460   33.4070   39.8480 C   0  0  0  0  0  0  0  0  0  0  0  0
   39.5500   32.7990   40.4930 C   0  0  0  0  0  0  0  0  0  0  0  0
   39.3770   31.6220   41.1380 N   0  0  0  0  0  0  0  0  0  0  0  0
   36.1420   31.1370   40.5730 H   0  0  0  0  0  0  0  0  0  0  0  0
   36.3670   33.3140   39.3580 H   0  0  0  0  0  0  0  0  0  0  0  0
   38.5370   34.3500   39.3190 H   0  0  0  0  0  0  0  0  0  0  0  0
   38.7320   28.0870   43.2660 C   0  0  0  0  0  0  0  0  0  0  0  0
   37.5700   27.3430   43.1370 C   0  0  0  0  0  0  0  0  0  0  0  0
   36.5860   27.8770   42.3110 C   0  0  0  0  0  0  0  0  0  0  0  0
   36.8140   29.0790   41.6860 N   0  0  0  0  0  0  0  0  0  0  0  0
   37.9780   29.7600   41.8560 C   0  0  0  0  0  0  0  0  0  0  0  0
   38.9210   29.2680   42.6360 N   0  0  0  0  0  0  0  0  0  0  0  0
   39.5250   27.6980   43.9070 H   0  0  0  0  0  0  0  0  0  0  0  0
   37.4350   26.4090   43.6440 H   0  0  0  0  0  0  0  0  0  0  0  0
   35.6500   27.3590   42.1560 H   0  0  0  0  0  0  0  0  0  0  0  0
   40.1210   32.4400   36.7960 N   0  0  0  0  0  0  0  0  0  0  0  0
   41.0760   31.7030   37.3040 C   0  0  0  0  0  0  0  0  0  0  0  0
   41.5600   32.1060   38.5810 N   0  0  0  0  0  0  0  0  0  0  0  0
   41.6500   30.5590   36.6850 N   0  0  0  0  0  0  0  0  0  0  0  0
   41.8690   30.3370   35.6900 H   0  0  0  0  0  0  0  0  0  0  0  0
   39.7610   32.1450   35.8520 H   0  0  0  0  0  0  0  0  0  0  0  0
   42.0110   31.3390   39.1640 H   0  0  0  0  0  0  0  0  0  0  0  0
   41.9220   29.7630   37.2840 H   0  0  0  0  0  0  0  0  0  0  0  0
  1 21  1  0  0  0  0
  1  7  1  1  0  0  0
  1  2  1  0  0  0  0
  2  3  1  0  0  0  0
  2  8  1  0  0  0  0
  3 11  1  0  0  0  0
  3 10  1  0  0  0  0
  4 13  1  0  0  0  0
  4  3  1  0  0  0  0
  5  6  1  0  0  0  0
  5  4  1  0  0  0  0
  6 16  1  6  0  0  0
  6  1  1  0  0  0  0
  9  2  1  0  0  0  0
 12  4  1  0  0  0  0
 14  5  1  0  0  0  0
 15  5  1  0  0  0  0
 17 30  1  0  0  0  0
 18 23  1  0  0  0  0
 18 17  2  0  0  0  0
 19 18  1  0  0  0  0
 20 19  2  0  0  0  0
 20 21  1  0  0  0  0
 21 22  2  0  0  0  0
 22 17  1  0  0  0  0
 24 19  1  0  0  0  0
 25 20  1  0  0  0  0
 26 32  1  0  0  0  0
 27 26  1  0  0  0  0
 27 33  1  0  0  0  0
 28 27  2  0  0  0  0
 29 30  2  0  0  0  0
 29 28  1  0  0  0  0
 30 31  1  0  0  0  0
 31 26  2  0  0  0  0
 34 28  1  0  0  0  0
 35 36  2  0  0  0  0
 36 37  1  0  0  0  0
 37  6  1  0  0  0  0
 37 41  1  0  0  0  0
 38 42  1  0  0  0  0
 38 36  1  0  0  0  0
 39 38  1  0  0  0  0
 40 35  1  0  0  0  0
M  END
>  <minimizedAffinity>
-6.16561174

$$$$

 OpenBabel03242514073D

 42 44  0  0  1  0  0  0  0  0999 V2000
   36.6220   31.0240   39.1850 C   0  0  1  0  0  0  0  0  0  0  0  0
   36.8120   30.0520   37.9940 C   0  0  0  0  0  0  0  0  0  0  0  0
   35.4060   29.4830   37.7710 C   0  0  0  0  0  0  0  0  0  0  0  0
   35.1120   28.5840   38.9370 C   0  0  0  0  0  0  0  0  0  0  0  0
   35.2450   29.2560   40.2460 C   0  0  0  0  0  0  0  0  0  0  0  0
   36.3540   30.2310   40.4060 C   0  0  1  0  0  0  0  0  0  0  0  0
   35.7420   31.6520   38.9090 H   0  0  0  0  0  0  0  0  0  0  0  0
   37.1710   30.5850   37.1110 H   0  0  0  0  0  0  0  0  0  0  0  0
   37.5100   29.2580   38.2540 H   0  0  0  0  0  0  0  0  0  0  0  0
   35.4680   28.8430   36.8560 H   0  0  0  0  0  0  0  0  0  0  0  0
   34.6870   30.3050   37.6470 H   0  0  0  0  0  0  0  0  0  0  0  0
   35.7350   27.6670   38.8270 H   0  0  0  0  0  0  0  0  0  0  0  0
   34.0560   28.2460   38.8100 H   0  0  0  0  0  0  0  0  0  0  0  0
   35.3290   28.4750   41.0460 H   0  0  0  0  0  0  0  0  0  0  0  0
   34.2660   29.7780   40.4500 H   0  0  0  0  0  0  0  0  0  0  0  0
   36.0660   30.8590   41.2710 H   0  0  0  0  0  0  0  0  0  0  0  0
   39.9880   32.5090   38.8520 C   0  0  0  0  0  0  0  0  0  0  0  0
   39.8480   33.6380   39.6110 C   0  0  0  0  0  0  0  0  0  0  0  0
   38.6930   34.0030   40.2680 C   0  0  0  0  0  0  0  0  0  0  0  0
   37.6330   33.1140   40.1030 C   0  0  0  0  0  0  0  0  0  0  0  0
   37.7560   31.9390   39.3230 C   0  0  0  0  0  0  0  0  0  0  0  0
   38.9350   31.6670   38.7150 N   0  0  0  0  0  0  0  0  0  0  0  0
   40.7050   34.2940   39.7050 H   0  0  0  0  0  0  0  0  0  0  0  0
   38.5660   34.8810   40.8640 H   0  0  0  0  0  0  0  0  0  0  0  0
   36.7090   33.3750   40.6090 H   0  0  0  0  0  0  0  0  0  0  0  0
   42.5330   30.9900   36.7060 C   0  0  0  0  0  0  0  0  0  0  0  0
   43.6930   31.6880   37.0040 C   0  0  0  0  0  0  0  0  0  0  0  0
   43.5770   32.6930   37.9590 C   0  0  0  0  0  0  0  0  0  0  0  0
   42.3550   32.9310   38.5390 N   0  0  0  0  0  0  0  0  0  0  0  0
   41.2540   32.2080   38.2010 C   0  0  0  0  0  0  0  0  0  0  0  0
   41.3460   31.2520   37.2970 N   0  0  0  0  0  0  0  0  0  0  0  0
   42.5870   30.1940   35.9610 H   0  0  0  0  0  0  0  0  0  0  0  0
   44.6260   31.4690   36.5260 H   0  0  0  0  0  0  0  0  0  0  0  0
   44.4340   33.2860   38.2490 H   0  0  0  0  0  0  0  0  0  0  0  0
   37.1380   29.4320   43.0320 N   0  0  0  0  0  0  0  0  0  0  0  0
   37.7810   28.8860   42.0310 C   0  0  0  0  0  0  0  0  0  0  0  0
   37.5560   29.4720   40.7530 N   0  0  0  0  0  0  0  0  0  0  0  0
   38.6650   27.7770   42.1280 N   0  0  0  0  0  0  0  0  0  0  0  0
   38.6490   26.9180   42.7180 H   0  0  0  0  0  0  0  0  0  0  0  0
   37.3020   29.0010   43.9780 H   0  0  0  0  0  0  0  0  0  0  0  0
   38.3300   29.3270   40.0390 H   0  0  0  0  0  0  0  0  0  0  0  0
   39.5020   27.7640   41.5240 H   0  0  0  0  0  0  0  0  0  0  0  0
  1  7  1  6  0  0  0
  1 21  1  0  0  0  0
  1  6  1  0  0  0  0
  2  9  1  0  0  0  0
  2  1  1  0  0  0  0
  3  2  1  0  0  0  0
  3  4  1  0  0  0  0
  4  5  1  0  0  0  0
  5  6  1  0  0  0  0
  5 15  1  0  0  0  0
  5 14  1  0  0  0  0
  6 37  1  0  0  0  0
  6 16  1  1  0  0  0
  8  2  1  0  0  0  0
 10  3  1  0  0  0  0
 11  3  1  0  0  0  0
 12  4  1  0  0  0  0
 13  4  1  0  0  0  0
 17 18  1  0  0  0  0
 18 23  1  0  0  0  0
 18 19  2  0  0  0  0
 19 24  1  0  0  0  0
 20 19  1  0  0  0  0
 20 25  1  0  0  0  0
 21 20  2  0  0  0  0
 22 17  2  0  0  0  0
 22 21  1  0  0  0  0
 26 27  2  0  0  0  0
 26 31  1  0  0  0  0
 27 28  1  0  0  0  0
 28 34  1  0  0  0  0
 28 29  2  0  0  0  0
 30 29  1  0  0  0  0
 30 17  1  0  0  0  0
 31 30  2  0  0  0  0
 32 26  1  0  0  0  0
 33 27  1  0  0  0  0
 35 40  1  0  0  0  0
 36 38  1  0  0  0  0
 36 35  2  0  0  0  0
 37 36  1  0  0  0  0
 38 39  1  0  0  0  0
 41 37  1  0  0  0  0
 42 38  1  0  0  0  0
M  END
>  <minimizedAffinity>
-5.79443789

$$$$

 OpenBabel03242514073D

 42 44  0  0  1  0  0  0  0  0999 V2000
   40.4810   30.4430   39.7630 C   0  0  1  0  0  0  0  0  0  0  0  0
   40.1100   29.8980   38.3610 C   0  0  0  0  0  0  0  0  0  0  0  0
   41.2040   30.4720   37.4540 C   0  0  0  0  0  0  0  0  0  0  0  0
   40.9550   31.9490   37.3530 C   0  0  0  0  0  0  0  0  0  0  0  0
   40.9000   32.6270   38.6650 C   0  0  0  0  0  0  0  0  0  0  0  0
   40.2410   31.9040   39.7820 C   0  0  1  0  0  0  0  0  0  0  0  0
   41.5660   30.2110   39.8860 H   0  0  0  0  0  0  0  0  0  0  0  0
   40.1180   28.8060   38.3550 H   0  0  0  0  0  0  0  0  0  0  0  0
   39.1290   30.2610   38.0560 H   0  0  0  0  0  0  0  0  0  0  0  0
   41.0360   30.0290   36.4420 H   0  0  0  0  0  0  0  0  0  0  0  0
   42.1940   30.2120   37.8550 H   0  0  0  0  0  0  0  0  0  0  0  0
   40.0510   32.1000   36.7200 H   0  0  0  0  0  0  0  0  0  0  0  0
   41.8060   32.3680   36.7650 H   0  0  0  0  0  0  0  0  0  0  0  0
   40.4040   33.6250   38.5350 H   0  0  0  0  0  0  0  0  0  0  0  0
   41.9620   32.8650   38.9590 H   0  0  0  0  0  0  0  0  0  0  0  0
   40.6170   32.3890   40.7040 H   0  0  0  0  0  0  0  0  0  0  0  0
   38.6810   27.7970   41.6070 C   0  0  0  0  0  0  0  0  0  0  0  0
   38.4640   28.4190   42.8060 C   0  0  0  0  0  0  0  0  0  0  0  0
   38.8710   29.7010   43.1090 C   0  0  0  0  0  0  0  0  0  0  0  0
   39.5450   30.3480   42.0750 C   0  0  0  0  0  0  0  0  0  0  0  0
   39.7800   29.7240   40.8270 C   0  0  0  0  0  0  0  0  0  0  0  0
   39.3400   28.4590   40.6250 N   0  0  0  0  0  0  0  0  0  0  0  0
   37.9340   27.8690   43.5730 H   0  0  0  0  0  0  0  0  0  0  0  0
   38.7110   30.2010   44.0390 H   0  0  0  0  0  0  0  0  0  0  0  0
   39.8790   31.3600   42.2840 H   0  0  0  0  0  0  0  0  0  0  0  0
   36.9160   24.6120   41.9720 C   0  0  0  0  0  0  0  0  0  0  0  0
   37.3450   23.8580   40.8910 C   0  0  0  0  0  0  0  0  0  0  0  0
   38.2540   24.4720   40.0350 C   0  0  0  0  0  0  0  0  0  0  0  0
   38.6660   25.7550   40.3010 N   0  0  0  0  0  0  0  0  0  0  0  0
   38.2060   26.4400   41.3820 C   0  0  0  0  0  0  0  0  0  0  0  0
   37.3430   25.8740   42.2020 N   0  0  0  0  0  0  0  0  0  0  0  0
   36.2030   24.1610   42.6640 H   0  0  0  0  0  0  0  0  0  0  0  0
   36.9960   22.8590   40.7220 H   0  0  0  0  0  0  0  0  0  0  0  0
   38.6380   23.9530   39.1670 H   0  0  0  0  0  0  0  0  0  0  0  0
   38.7480   33.8300   41.2710 N   0  0  0  0  0  0  0  0  0  0  0  0
   38.1460   33.2770   40.2480 C   0  0  0  0  0  0  0  0  0  0  0  0
   38.8020   32.1500   39.6740 N   0  0  0  0  0  0  0  0  0  0  0  0
   36.9160   33.7110   39.6830 N   0  0  0  0  0  0  0  0  0  0  0  0
   36.5070   34.6590   39.5400 H   0  0  0  0  0  0  0  0  0  0  0  0
   38.2650   34.6620   41.6960 H   0  0  0  0  0  0  0  0  0  0  0  0
   38.1750   31.4730   39.1460 H   0  0  0  0  0  0  0  0  0  0  0  0
   36.2590   32.9950   39.3310 H   0  0  0  0  0  0  0  0  0  0  0  0
  1  6  1  0  0  0  0
  1  7  1  1  0  0  0
  1 21  1  0  0  0  0
  2  1  1  0  0  0  0
  3 11  1  0  0  0  0
  3  2  1  0  0  0  0
  4  3  1  0  0  0  0
  4  5  1  0  0  0  0
  5 15  1  0  0  0  0
  5  6  1  0  0  0  0
  6 16  1  1  0  0  0
  8  2  1  0  0  0  0
  9  2  1  0  0  0  0
 10  3  1  0  0  0  0
 12  4  1  0  0  0  0
 13  4  1  0  0  0  0
 14  5  1  0  0  0  0
 17 18  1  0  0  0  0
 18 19  2  0  0  0  0
 18 23  1  0  0  0  0
 19 24  1  0  0  0  0
 20 25  1  0  0  0  0
 20 19  1  0  0  0  0
 21 20  2  0  0  0  0
 22 21  1  0  0  0  0
 22 17  2  0  0  0  0
 26 31  1  0  0  0  0
 26 32  1  0  0  0  0
 27 26  2  0  0  0  0
 28 29  2  0  0  0  0
 28 27  1  0  0  0  0
 29 30  1  0  0  0  0
 30 17  1  0  0  0  0
 30 31  2  0  0  0  0
 33 27  1  0  0  0  0
 34 28  1  0  0  0  0
 35 40  1  0  0  0  0
 36 35  2  0  0  0  0
 37  6  1  0  0  0  0
 37 36  1  0  0  0  0
 38 36  1  0  0  0  0
 39 38  1  0  0  0  0
 41 37  1  0  0  0  0
 42 38  1  0  0  0  0
M  END
>  <minimizedAffinity>
-5.68596077

$$$$

 OpenBabel03242514073D

 42 44  0  0  1  0  0  0  0  0999 V2000
   41.0410   31.5370   38.7260 C   0  0  1  0  0  0  0  0  0  0  0  0
   41.3160   31.9540   37.2600 C   0  0  0  0  0  0  0  0  0  0  0  0
   42.5130   32.9050   37.3780 C   0  0  0  0  0  0  0  0  0  0  0  0
   42.0080   34.1600   38.0300 C   0  0  0  0  0  0  0  0  0  0  0  0
   41.3480   33.9230   39.3300 C   0  0  0  0  0  0  0  0  0  0  0  0
   40.5050   32.7070   39.4580 C   0  0  1  0  0  0  0  0  0  0  0  0
   42.0340   31.2270   39.1300 H   0  0  0  0  0  0  0  0  0  0  0  0
   41.5580   31.0830   36.6470 H   0  0  0  0  0  0  0  0  0  0  0  0
   40.4550   32.4730   36.8400 H   0  0  0  0  0  0  0  0  0  0  0  0
   42.8140   33.1620   36.3330 H   0  0  0  0  0  0  0  0  0  0  0  0
   43.3270   32.4120   37.9290 H   0  0  0  0  0  0  0  0  0  0  0  0
   41.3780   34.7000   37.2870 H   0  0  0  0  0  0  0  0  0  0  0  0
   42.9030   34.8070   38.1910 H   0  0  0  0  0  0  0  0  0  0  0  0
   40.7310   34.8220   39.5920 H   0  0  0  0  0  0  0  0  0  0  0  0
   42.1610   33.8890   40.1120 H   0  0  0  0  0  0  0  0  0  0  0  0
   40.4170   32.5270   40.5480 H   0  0  0  0  0  0  0  0  0  0  0  0
   38.8090   28.9050   40.0430 C   0  0  0  0  0  0  0  0  0  0  0  0
   38.6000   28.1560   38.9190 C   0  0  0  0  0  0  0  0  0  0  0  0
   39.1430   28.4320   37.6820 C   0  0  0  0  0  0  0  0  0  0  0  0
   39.9480   29.5680   37.6480 C   0  0  0  0  0  0  0  0  0  0  0  0
   40.1780   30.3580   38.8000 C   0  0  0  0  0  0  0  0  0  0  0  0
   39.6000   30.0050   39.9730 N   0  0  0  0  0  0  0  0  0  0  0  0
   37.9660   27.2830   39.0030 H   0  0  0  0  0  0  0  0  0  0  0  0
   38.9900   27.8580   36.7930 H   0  0  0  0  0  0  0  0  0  0  0  0
   40.3890   29.8120   36.6870 H   0  0  0  0  0  0  0  0  0  0  0  0
   37.6890   28.9420   43.5280 C   0  0  0  0  0  0  0  0  0  0  0  0
   37.0050   27.7460   43.6800 C   0  0  0  0  0  0  0  0  0  0  0  0
   36.9380   26.9290   42.5560 C   0  0  0  0  0  0  0  0  0  0  0  0
   37.5380   27.3400   41.3900 N   0  0  0  0  0  0  0  0  0  0  0  0
   38.1950   28.5280   41.3080 C   0  0  0  0  0  0  0  0  0  0  0  0
   38.2670   29.3150   42.3630 N   0  0  0  0  0  0  0  0  0  0  0  0
   37.7610   29.6090   44.3890 H   0  0  0  0  0  0  0  0  0  0  0  0
   36.5520   27.4660   44.6090 H   0  0  0  0  0  0  0  0  0  0  0  0
   36.4230   25.9790   42.5890 H   0  0  0  0  0  0  0  0  0  0  0  0
   38.0500   32.6690   40.9170 N   0  0  0  0  0  0  0  0  0  0  0  0
   38.0300   33.2420   39.7400 C   0  0  0  0  0  0  0  0  0  0  0  0
   39.1810   33.0350   38.9270 N   0  0  0  0  0  0  0  0  0  0  0  0
   36.9680   34.0370   39.2300 N   0  0  0  0  0  0  0  0  0  0  0  0
   36.3220   34.7170   39.6840 H   0  0  0  0  0  0  0  0  0  0  0  0
   37.2010   32.8210   41.5190 H   0  0  0  0  0  0  0  0  0  0  0  0
   39.0280   33.1330   37.8800 H   0  0  0  0  0  0  0  0  0  0  0  0
   36.7470   33.9700   38.2230 H   0  0  0  0  0  0  0  0  0  0  0  0
  1 21  1  0  0  0  0
  1  7  1  1  0  0  0
  1  6  1  0  0  0  0
  2  3  1  0  0  0  0
  2  1  1  0  0  0  0
  3 11  1  0  0  0  0
  3  4  1  0  0  0  0
  4 13  1  0  0  0  0
  4  5  1  0  0  0  0
  5  6  1  0  0  0  0
  5 14  1  0  0  0  0
  5 15  1  0  0  0  0
  6 16  1  1  0  0  0
  8  2  1  0  0  0  0
  9  2  1  0  0  0  0
 10  3  1  0  0  0  0
 12  4  1  0  0  0  0
 17 30  1  0  0  0  0
 18 23  1  0  0  0  0
 18 17  2  0  0  0  0
 19 18  1  0  0  0  0
 20 19  2  0  0  0  0
 20 21  1  0  0  0  0
 21 22  2  0  0  0  0
 22 17  1  0  0  0  0
 24 19  1  0  0  0  0
 25 20  1  0  0  0  0
 26 27  1  0  0  0  0
 26 32  1  0  0  0  0
 27 33  1  0  0  0  0
 28 34  1  0  0  0  0
 28 27  2  0  0  0  0
 29 28  1  0  0  0  0
 30 29  2  0  0  0  0
 30 31  1  0  0  0  0
 31 26  2  0  0  0  0
 35 40  1  0  0  0  0
 36 35  2  0  0  0  0
 37  6  1  0  0  0  0
 37 36  1  0  0  0  0
 38 39  1  0  0  0  0
 38 36  1  0  0  0  0
 41 37  1  0  0  0  0
 42 38  1  0  0  0  0
M  END
>  <minimizedAffinity>
-5.68150139

$$$$

 OpenBabel03242514073D

 42 44  0  0  1  0  0  0  0  0999 V2000
   36.7430   28.5540   39.5140 C   0  0  1  0  0  0  0  0  0  0  0  0
   35.1970   28.4680   39.4870 C   0  0  0  0  0  0  0  0  0  0  0  0
   34.8820   28.1460   38.0210 C   0  0  0  0  0  0  0  0  0  0  0  0
   35.1960   29.3830   37.2290 C   0  0  0  0  0  0  0  0  0  0  0  0
   36.5810   29.8650   37.4150 C   0  0  0  0  0  0  0  0  0  0  0  0
   37.1620   29.7690   38.7780 C   0  0  1  0  0  0  0  0  0  0  0  0
   37.0940   27.6280   38.9990 H   0  0  0  0  0  0  0  0  0  0  0  0
   34.8400   27.6790   40.1540 H   0  0  0  0  0  0  0  0  0  0  0  0
   34.7530   29.4200   39.7740 H   0  0  0  0  0  0  0  0  0  0  0  0
   33.7790   27.9790   37.9670 H   0  0  0  0  0  0  0  0  0  0  0  0
   35.4480   27.2580   37.7060 H   0  0  0  0  0  0  0  0  0  0  0  0
   34.4120   30.1410   37.4560 H   0  0  0  0  0  0  0  0  0  0  0  0
   35.0490   29.1100   36.1570 H   0  0  0  0  0  0  0  0  0  0  0  0
   36.6420   30.9300   37.0680 H   0  0  0  0  0  0  0  0  0  0  0  0
   37.2310   29.2870   36.6980 H   0  0  0  0  0  0  0  0  0  0  0  0
   38.2590   29.8240   38.6310 H   0  0  0  0  0  0  0  0  0  0  0  0
   38.9980   28.8760   42.4220 C   0  0  0  0  0  0  0  0  0  0  0  0
   38.2200   28.3440   43.4120 C   0  0  0  0  0  0  0  0  0  0  0  0
   36.9430   27.8560   43.2300 C   0  0  0  0  0  0  0  0  0  0  0  0
   36.4770   27.9440   41.9200 C   0  0  0  0  0  0  0  0  0  0  0  0
   37.2650   28.4910   40.8800 C   0  0  0  0  0  0  0  0  0  0  0  0
   38.5100   28.9450   41.1590 N   0  0  0  0  0  0  0  0  0  0  0  0
   38.6330   28.3000   44.4120 H   0  0  0  0  0  0  0  0  0  0  0  0
   36.3220   27.4380   43.9920 H   0  0  0  0  0  0  0  0  0  0  0  0
   35.4740   27.5680   41.7450 H   0  0  0  0  0  0  0  0  0  0  0  0
   42.5390   29.0060   43.3380 C   0  0  0  0  0  0  0  0  0  0  0  0
   42.8640   30.3510   43.2550 C   0  0  0  0  0  0  0  0  0  0  0  0
   41.8370   31.2100   42.8760 C   0  0  0  0  0  0  0  0  0  0  0  0
   40.5920   30.6930   42.6140 N   0  0  0  0  0  0  0  0  0  0  0  0
   40.3390   29.3610   42.7140 C   0  0  0  0  0  0  0  0  0  0  0  0
   41.3010   28.5330   43.0710 N   0  0  0  0  0  0  0  0  0  0  0  0
   43.3200   28.3040   43.6320 H   0  0  0  0  0  0  0  0  0  0  0  0
   43.8500   30.7100   43.4690 H   0  0  0  0  0  0  0  0  0  0  0  0
   42.0070   32.2740   42.7870 H   0  0  0  0  0  0  0  0  0  0  0  0
   38.8630   31.7360   39.9560 N   0  0  0  0  0  0  0  0  0  0  0  0
   37.5890   32.0270   39.8780 C   0  0  0  0  0  0  0  0  0  0  0  0
   36.7260   30.9500   39.5240 N   0  0  0  0  0  0  0  0  0  0  0  0
   37.0210   33.3080   40.1140 N   0  0  0  0  0  0  0  0  0  0  0  0
   37.3570   34.2720   39.9050 H   0  0  0  0  0  0  0  0  0  0  0  0
   39.5030   32.5300   40.2170 H   0  0  0  0  0  0  0  0  0  0  0  0
   35.7150   31.0490   39.8380 H   0  0  0  0  0  0  0  0  0  0  0  0
   36.1000   33.3570   40.5790 H   0  0  0  0  0  0  0  0  0  0  0  0
  1  7  1  6  0  0  0
  1 21  1  0  0  0  0
  2  1  1  0  0  0  0
  2  9  1  0  0  0  0
  2  8  1  0  0  0  0
  3  2  1  0  0  0  0
  4  5  1  0  0  0  0
  4 12  1  0  0  0  0
  4  3  1  0  0  0  0
  5  6  1  0  0  0  0
  6 16  1  6  0  0  0
  6  1  1  0  0  0  0
  6 37  1  0  0  0  0
 10  3  1  0  0  0  0
 11  3  1  0  0  0  0
 13  4  1  0  0  0  0
 14  5  1  0  0  0  0
 15  5  1  0  0  0  0
 17 30  1  0  0  0  0
 17 18  1  0  0  0  0
 18 23  1  0  0  0  0
 19 18  2  0  0  0  0
 19 24  1  0  0  0  0
 20 19  1  0  0  0  0
 21 22  1  0  0  0  0
 21 20  2  0  0  0  0
 22 17  2  0  0  0  0
 25 20  1  0  0  0  0
 26 32  1  0  0  0  0
 27 26  1  0  0  0  0
 27 33  1  0  0  0  0
 28 27  2  0  0  0  0
 29 30  2  0  0  0  0
 29 28  1  0  0  0  0
 30 31  1  0  0  0  0
 31 26  2  0  0  0  0
 34 28  1  0  0  0  0
 35 40  1  0  0  0  0
 36 35  2  0  0  0  0
 36 38  1  0  0  0  0
 37 41  1  0  0  0  0
 37 36  1  0  0  0  0
 38 42  1  0  0  0  0
 39 38  1  0  0  0  0
M  END
>  <minimizedAffinity>
-5.63422489

$$$$

 OpenBabel03242514073D

 42 44  0  0  1  0  0  0  0  0999 V2000
   38.4030   27.1710   40.8730 C   0  0  1  0  0  0  0  0  0  0  0  0
   39.4140   27.7310   41.9040 C   0  0  0  0  0  0  0  0  0  0  0  0
   39.0780   26.9610   43.1870 C   0  0  0  0  0  0  0  0  0  0  0  0
   37.7470   27.4680   43.6620 C   0  0  0  0  0  0  0  0  0  0  0  0
   36.6790   27.3600   42.6450 C   0  0  0  0  0  0  0  0  0  0  0  0
   37.0470   27.6420   41.2340 C   0  0  1  0  0  0  0  0  0  0  0  0
   38.4830   26.0610   40.9610 H   0  0  0  0  0  0  0  0  0  0  0  0
   40.4410   27.5430   41.5840 H   0  0  0  0  0  0  0  0  0  0  0  0
   39.2630   28.8000   42.0490 H   0  0  0  0  0  0  0  0  0  0  0  0
   39.8450   27.2600   43.9420 H   0  0  0  0  0  0  0  0  0  0  0  0
   39.0990   25.8790   42.9880 H   0  0  0  0  0  0  0  0  0  0  0  0
   37.8970   28.4960   44.0620 H   0  0  0  0  0  0  0  0  0  0  0  0
   37.4720   26.8400   44.5420 H   0  0  0  0  0  0  0  0  0  0  0  0
   35.8310   28.0310   42.9410 H   0  0  0  0  0  0  0  0  0  0  0  0
   36.2620   26.3150   42.7140 H   0  0  0  0  0  0  0  0  0  0  0  0
   36.2510   27.1670   40.6270 H   0  0  0  0  0  0  0  0  0  0  0  0
   39.8390   28.9470   37.9690 C   0  0  0  0  0  0  0  0  0  0  0  0
   39.4720   28.1140   36.9490 C   0  0  0  0  0  0  0  0  0  0  0  0
   38.7570   26.9460   37.1090 C   0  0  0  0  0  0  0  0  0  0  0  0
   38.4190   26.6570   38.4290 C   0  0  0  0  0  0  0  0  0  0  0  0
   38.7890   27.5050   39.5010 C   0  0  0  0  0  0  0  0  0  0  0  0
   39.4920   28.6330   39.2420 N   0  0  0  0  0  0  0  0  0  0  0  0
   39.7610   28.3890   35.9430 H   0  0  0  0  0  0  0  0  0  0  0  0
   38.4630   26.2840   36.3240 H   0  0  0  0  0  0  0  0  0  0  0  0
   37.8560   25.7420   38.5880 H   0  0  0  0  0  0  0  0  0  0  0  0
   40.8500   32.4610   37.7990 C   0  0  0  0  0  0  0  0  0  0  0  0
   42.0720   32.4330   37.1470 C   0  0  0  0  0  0  0  0  0  0  0  0
   42.5400   31.1790   36.7690 C   0  0  0  0  0  0  0  0  0  0  0  0
   41.7850   30.0670   37.0530 N   0  0  0  0  0  0  0  0  0  0  0  0
   40.5910   30.1630   37.6970 C   0  0  0  0  0  0  0  0  0  0  0  0
   40.1340   31.3440   38.0640 N   0  0  0  0  0  0  0  0  0  0  0  0
   40.4520   33.4280   38.1110 H   0  0  0  0  0  0  0  0  0  0  0  0
   42.6280   33.3270   36.9460 H   0  0  0  0  0  0  0  0  0  0  0  0
   43.4850   31.0700   36.2560 H   0  0  0  0  0  0  0  0  0  0  0  0
   34.7530   29.1300   40.4090 N   0  0  0  0  0  0  0  0  0  0  0  0
   35.7660   29.8150   40.8770 C   0  0  0  0  0  0  0  0  0  0  0  0
   36.9820   29.0920   41.0470 N   0  0  0  0  0  0  0  0  0  0  0  0
   35.7390   31.1950   41.2180 N   0  0  0  0  0  0  0  0  0  0  0  0
   35.0030   31.7950   41.6490 H   0  0  0  0  0  0  0  0  0  0  0  0
   33.8540   29.6610   40.2830 H   0  0  0  0  0  0  0  0  0  0  0  0
   37.8700   29.6760   41.0300 H   0  0  0  0  0  0  0  0  0  0  0  0
   36.5790   31.7630   41.0260 H   0  0  0  0  0  0  0  0  0  0  0  0
  1  7  1  1  0  0  0
  1  6  1  0  0  0  0
  1  2  1  0  0  0  0
  2  9  1  0  0  0  0
  2  3  1  0  0  0  0
  3  4  1  0  0  0  0
  3 10  1  0  0  0  0
  4 12  1  0  0  0  0
  4 13  1  0  0  0  0
  5 15  1  0  0  0  0
  5 14  1  0  0  0  0
  5  4  1  0  0  0  0
  6 16  1  6  0  0  0
  6  5  1  0  0  0  0
  8  2  1  0  0  0  0
 11  3  1  0  0  0  0
 17 22  1  0  0  0  0
 18 19  1  0  0  0  0
 18 17  2  0  0  0  0
 19 20  2  0  0  0  0
 20 25  1  0  0  0  0
 20 21  1  0  0  0  0
 21  1  1  0  0  0  0
 22 21  2  0  0  0  0
 23 18  1  0  0  0  0
 24 19  1  0  0  0  0
 26 31  1  0  0  0  0
 26 32  1  0  0  0  0
 27 26  2  0  0  0  0
 28 29  2  0  0  0  0
 28 27  1  0  0  0  0
 29 30  1  0  0  0  0
 30 17  1  0  0  0  0
 30 31  2  0  0  0  0
 33 27  1  0  0  0  0
 34 28  1  0  0  0  0
 35 36  2  0  0  0  0
 36 37  1  0  0  0  0
 36 38  1  0  0  0  0
 37  6  1  0  0  0  0
 38 39  1  0  0  0  0
 40 35  1  0  0  0  0
 41 37  1  0  0  0  0
 42 38  1  0  0  0  0
M  END
>  <minimizedAffinity>
-5.61389542

$$$$

 OpenBabel03242514073D

 42 44  0  0  1  0  0  0  0  0999 V2000
   36.5670   27.1190   40.4200 C   0  0  1  0  0  0  0  0  0  0  0  0
   37.2600   25.8460   39.8740 C   0  0  0  0  0  0  0  0  0  0  0  0
   36.6620   24.7210   40.7260 C   0  0  0  0  0  0  0  0  0  0  0  0
   37.2210   24.8800   42.1100 C   0  0  0  0  0  0  0  0  0  0  0  0
   36.9780   26.2170   42.6930 C   0  0  0  0  0  0  0  0  0  0  0  0
   37.0760   27.3870   41.7840 C   0  0  1  0  0  0  0  0  0  0  0  0
   35.4790   26.8730   40.4350 H   0  0  0  0  0  0  0  0  0  0  0  0
   37.0370   25.7060   38.8140 H   0  0  0  0  0  0  0  0  0  0  0  0
   38.3380   25.9040   40.0180 H   0  0  0  0  0  0  0  0  0  0  0  0
   37.0600   23.7650   40.3070 H   0  0  0  0  0  0  0  0  0  0  0  0
   35.5640   24.7630   40.6800 H   0  0  0  0  0  0  0  0  0  0  0  0
   38.2930   24.5810   42.0810 H   0  0  0  0  0  0  0  0  0  0  0  0
   36.7120   24.1130   42.7410 H   0  0  0  0  0  0  0  0  0  0  0  0
   37.6780   26.3670   43.5560 H   0  0  0  0  0  0  0  0  0  0  0  0
   35.9480   26.1940   43.1520 H   0  0  0  0  0  0  0  0  0  0  0  0
   36.5230   28.1990   42.2960 H   0  0  0  0  0  0  0  0  0  0  0  0
   37.3150   30.4950   39.1200 C   0  0  0  0  0  0  0  0  0  0  0  0
   36.9780   30.3460   37.8040 C   0  0  0  0  0  0  0  0  0  0  0  0
   36.5000   29.1800   37.2440 C   0  0  0  0  0  0  0  0  0  0  0  0
   36.3790   28.1210   38.1410 C   0  0  0  0  0  0  0  0  0  0  0  0
   36.7220   28.2530   39.5080 C   0  0  0  0  0  0  0  0  0  0  0  0
   37.1830   29.4420   39.9640 N   0  0  0  0  0  0  0  0  0  0  0  0
   37.0920   31.2030   37.1520 H   0  0  0  0  0  0  0  0  0  0  0  0
   36.2330   29.0460   36.2180 H   0  0  0  0  0  0  0  0  0  0  0  0
   36.0050   27.1880   37.7290 H   0  0  0  0  0  0  0  0  0  0  0  0
   37.7160   34.0810   39.7340 C   0  0  0  0  0  0  0  0  0  0  0  0
   38.7920   34.1610   40.6040 C   0  0  0  0  0  0  0  0  0  0  0  0
   39.3740   32.9530   40.9740 C   0  0  0  0  0  0  0  0  0  0  0  0
   38.8660   31.7800   40.4700 N   0  0  0  0  0  0  0  0  0  0  0  0
   37.8060   31.7720   39.6180 C   0  0  0  0  0  0  0  0  0  0  0  0
   37.2420   32.9080   39.2580 N   0  0  0  0  0  0  0  0  0  0  0  0
   37.2340   35.0100   39.4220 H   0  0  0  0  0  0  0  0  0  0  0  0
   39.1550   35.0990   40.9720 H   0  0  0  0  0  0  0  0  0  0  0  0
   40.2180   32.9270   41.6500 H   0  0  0  0  0  0  0  0  0  0  0  0
   38.2850   29.6810   42.9810 N   0  0  0  0  0  0  0  0  0  0  0  0
   39.0930   28.7640   42.5090 C   0  0  0  0  0  0  0  0  0  0  0  0
   38.4880   27.7590   41.7010 N   0  0  0  0  0  0  0  0  0  0  0  0
   40.4940   28.7040   42.7410 N   0  0  0  0  0  0  0  0  0  0  0  0
   41.0760   28.9310   43.5750 H   0  0  0  0  0  0  0  0  0  0  0  0
   38.7280   30.4240   43.5780 H   0  0  0  0  0  0  0  0  0  0  0  0
   39.1360   27.2750   41.0100 H   0  0  0  0  0  0  0  0  0  0  0  0
   41.1030   28.3810   41.9720 H   0  0  0  0  0  0  0  0  0  0  0  0
  1  7  1  1  0  0  0
  1  6  1  0  0  0  0
  2  9  1  0  0  0  0
  2  1  1  0  0  0  0
  2  3  1  0  0  0  0
  3  4  1  0  0  0  0
  4  5  1  0  0  0  0
  4 13  1  0  0  0  0
  5 15  1  0  0  0  0
  5 14  1  0  0  0  0
  6 16  1  1  0  0  0
  6  5  1  0  0  0  0
  8  2  1  0  0  0  0
 10  3  1  0  0  0  0
 11  3  1  0  0  0  0
 12  4  1  0  0  0  0
 17 30  1  0  0  0  0
 17 22  1  0  0  0  0
 18 17  2  0  0  0  0
 19 18  1  0  0  0  0
 19 20  2  0  0  0  0
 20 21  1  0  0  0  0
 21 22  2  0  0  0  0
 21  1  1  0  0  0  0
 23 18  1  0  0  0  0
 24 19  1  0  0  0  0
 25 20  1  0  0  0  0
 26 27  1  0  0  0  0
 27 33  1  0  0  0  0
 27 28  2  0  0  0  0
 28 34  1  0  0  0  0
 29 28  1  0  0  0  0
 30 29  2  0  0  0  0
 31 30  1  0  0  0  0
 31 26  2  0  0  0  0
 32 26  1  0  0  0  0
 35 40  1  0  0  0  0
 36 38  1  0  0  0  0
 36 35  2  0  0  0  0
 37  6  1  0  0  0  0
 37 36  1  0  0  0  0
 38 39  1  0  0  0  0
 41 37  1  0  0  0  0
 42 38  1  0  0  0  0
M  END
>  <minimizedAffinity>
-5.60991716

$$$$

 OpenBabel03242514073D

 42 44  0  0  1  0  0  0  0  0999 V2000
   36.9490   25.3870   41.3080 C   0  0  1  0  0  0  0  0  0  0  0  0
   36.5420   25.3610   39.8140 C   0  0  0  0  0  0  0  0  0  0  0  0
   36.0110   23.9370   39.6140 C   0  0  0  0  0  0  0  0  0  0  0  0
   37.1960   23.0170   39.6900 C   0  0  0  0  0  0  0  0  0  0  0  0
   37.9700   23.1580   40.9410 C   0  0  0  0  0  0  0  0  0  0  0  0
   38.1400   24.5270   41.4900 C   0  0  1  0  0  0  0  0  0  0  0  0
   36.0670   24.9780   41.8560 H   0  0  0  0  0  0  0  0  0  0  0  0
   35.7720   26.1060   39.6070 H   0  0  0  0  0  0  0  0  0  0  0  0
   37.4080   25.5400   39.1770 H   0  0  0  0  0  0  0  0  0  0  0  0
   35.6150   23.8930   38.5700 H   0  0  0  0  0  0  0  0  0  0  0  0
   35.2310   23.7230   40.3580 H   0  0  0  0  0  0  0  0  0  0  0  0
   37.7950   23.1550   38.7620 H   0  0  0  0  0  0  0  0  0  0  0  0
   36.7880   21.9800   39.6330 H   0  0  0  0  0  0  0  0  0  0  0  0
   38.9820   22.6980   40.7930 H   0  0  0  0  0  0  0  0  0  0  0  0
   37.4670   22.5120   41.7160 H   0  0  0  0  0  0  0  0  0  0  0  0
   38.4050   24.3810   42.5560 H   0  0  0  0  0  0  0  0  0  0  0  0
   37.3200   29.0620   41.3770 C   0  0  0  0  0  0  0  0  0  0  0  0
   37.5150   29.2770   42.7130 C   0  0  0  0  0  0  0  0  0  0  0  0
   37.5390   28.2870   43.6710 C   0  0  0  0  0  0  0  0  0  0  0  0
   37.3430   27.0010   43.1720 C   0  0  0  0  0  0  0  0  0  0  0  0
   37.1390   26.7550   41.7930 C   0  0  0  0  0  0  0  0  0  0  0  0
   37.1320   27.7970   40.9280 N   0  0  0  0  0  0  0  0  0  0  0  0
   37.6640   30.2970   43.0450 H   0  0  0  0  0  0  0  0  0  0  0  0
   37.6900   28.4370   44.7180 H   0  0  0  0  0  0  0  0  0  0  0  0
   37.3560   26.1980   43.9030 H   0  0  0  0  0  0  0  0  0  0  0  0
   37.3560   32.4430   39.9750 C   0  0  0  0  0  0  0  0  0  0  0  0
   37.3110   32.2450   38.6040 C   0  0  0  0  0  0  0  0  0  0  0  0
   37.2690   30.9230   38.1750 C   0  0  0  0  0  0  0  0  0  0  0  0
   37.2720   29.9130   39.1070 N   0  0  0  0  0  0  0  0  0  0  0  0
   37.3180   30.1770   40.4400 C   0  0  0  0  0  0  0  0  0  0  0  0
   37.3590   31.4240   40.8650 N   0  0  0  0  0  0  0  0  0  0  0  0
   37.3900   33.4680   40.3480 H   0  0  0  0  0  0  0  0  0  0  0  0
   37.3100   33.0630   37.9130 H   0  0  0  0  0  0  0  0  0  0  0  0
   37.2320   30.6810   37.1220 H   0  0  0  0  0  0  0  0  0  0  0  0
   40.6660   25.1690   42.6570 N   0  0  0  0  0  0  0  0  0  0  0  0
   40.5890   25.2120   41.3500 C   0  0  0  0  0  0  0  0  0  0  0  0
   39.2770   25.1370   40.8010 N   0  0  0  0  0  0  0  0  0  0  0  0
   41.6950   25.3260   40.4650 N   0  0  0  0  0  0  0  0  0  0  0  0
   42.6610   24.9340   40.4960 H   0  0  0  0  0  0  0  0  0  0  0  0
   41.6340   25.2250   43.0650 H   0  0  0  0  0  0  0  0  0  0  0  0
   39.1600   25.5610   39.8330 H   0  0  0  0  0  0  0  0  0  0  0  0
   41.5810   25.8930   39.6090 H   0  0  0  0  0  0  0  0  0  0  0  0
  1  6  1  0  0  0  0
  1 21  1  0  0  0  0
  1  7  1  1  0  0  0
  2  1  1  0  0  0  0
  3  4  1  0  0  0  0
  3  2  1  0  0  0  0
  3 11  1  0  0  0  0
  4  5  1  0  0  0  0
  5  6  1  0  0  0  0
  5 15  1  0  0  0  0
  6 16  1  1  0  0  0
  8  2  1  0  0  0  0
  9  2  1  0  0  0  0
 10  3  1  0  0  0  0
 12  4  1  0  0  0  0
 13  4  1  0  0  0  0
 14  5  1  0  0  0  0
 17 18  1  0  0  0  0
 18 23  1  0  0  0  0
 18 19  2  0  0  0  0
 19 24  1  0  0  0  0
 20 19  1  0  0  0  0
 20 25  1  0  0  0  0
 21 20  2  0  0  0  0
 22 17  2  0  0  0  0
 22 21  1  0  0  0  0
 26 32  1  0  0  0  0
 26 31  1  0  0  0  0
 27 26  2  0  0  0  0
 28 27  1  0  0  0  0
 28 29  2  0  0  0  0
 29 30  1  0  0  0  0
 30 31  2  0  0  0  0
 30 17  1  0  0  0  0
 33 27  1  0  0  0  0
 34 28  1  0  0  0  0
 35 40  1  0  0  0  0
 36 35  2  0  0  0  0
 37 36  1  0  0  0  0
 37  6  1  0  0  0  0
 38 39  1  0  0  0  0
 38 36  1  0  0  0  0
 41 37  1  0  0  0  0
 42 38  1  0  0  0  0
M  END
>  <minimizedAffinity>
-5.53079367

$$$$

 OpenBabel03242514073D

 42 44  0  0  1  0  0  0  0  0999 V2000
   39.3300   31.0630   41.6640 C   0  0  1  0  0  0  0  0  0  0  0  0
   40.4100   30.1050   42.2240 C   0  0  0  0  0  0  0  0  0  0  0  0
   41.4140   31.0500   42.8940 C   0  0  0  0  0  0  0  0  0  0  0  0
   42.1140   31.7920   41.7920 C   0  0  0  0  0  0  0  0  0  0  0  0
   41.1910   32.5040   40.8830 C   0  0  0  0  0  0  0  0  0  0  0  0
   39.9130   31.8290   40.5400 C   0  0  1  0  0  0  0  0  0  0  0  0
   39.0670   31.7330   42.5170 H   0  0  0  0  0  0  0  0  0  0  0  0
   39.9770   29.4080   42.9440 H   0  0  0  0  0  0  0  0  0  0  0  0
   40.8870   29.5500   41.4170 H   0  0  0  0  0  0  0  0  0  0  0  0
   42.1690   30.4000   43.3980 H   0  0  0  0  0  0  0  0  0  0  0  0
   40.8910   31.7020   43.6090 H   0  0  0  0  0  0  0  0  0  0  0  0
   42.7990   31.0780   41.2820 H   0  0  0  0  0  0  0  0  0  0  0  0
   42.7760   32.5390   42.2910 H   0  0  0  0  0  0  0  0  0  0  0  0
   41.7370   32.7510   39.9350 H   0  0  0  0  0  0  0  0  0  0  0  0
   40.9630   33.5010   41.3580 H   0  0  0  0  0  0  0  0  0  0  0  0
   39.2450   32.6370   40.1800 H   0  0  0  0  0  0  0  0  0  0  0  0
   36.9320   28.3320   41.0020 C   0  0  0  0  0  0  0  0  0  0  0  0
   35.8280   29.0440   40.6210 C   0  0  0  0  0  0  0  0  0  0  0  0
   35.7680   30.4190   40.5520 C   0  0  0  0  0  0  0  0  0  0  0  0
   36.9500   31.0640   40.9100 C   0  0  0  0  0  0  0  0  0  0  0  0
   38.1040   30.3470   41.3080 C   0  0  0  0  0  0  0  0  0  0  0  0
   38.0650   28.9940   41.3440 N   0  0  0  0  0  0  0  0  0  0  0  0
   34.9370   28.4900   40.3520 H   0  0  0  0  0  0  0  0  0  0  0  0
   34.9150   30.9910   40.2570 H   0  0  0  0  0  0  0  0  0  0  0  0
   36.9330   32.1490   40.8660 H   0  0  0  0  0  0  0  0  0  0  0  0
   37.1210   24.8640   42.1560 C   0  0  0  0  0  0  0  0  0  0  0  0
   36.8150   24.1130   41.0310 C   0  0  0  0  0  0  0  0  0  0  0  0
   36.5430   24.8270   39.8700 C   0  0  0  0  0  0  0  0  0  0  0  0
   36.5910   26.2010   39.8990 N   0  0  0  0  0  0  0  0  0  0  0  0
   36.8980   26.8770   41.0370 C   0  0  0  0  0  0  0  0  0  0  0  0
   37.1580   26.2150   42.1480 N   0  0  0  0  0  0  0  0  0  0  0  0
   37.3400   24.3360   43.0850 H   0  0  0  0  0  0  0  0  0  0  0  0
   36.7890   23.0420   41.0550 H   0  0  0  0  0  0  0  0  0  0  0  0
   36.2960   24.3180   38.9490 H   0  0  0  0  0  0  0  0  0  0  0  0
   39.1850   32.2330   37.8080 N   0  0  0  0  0  0  0  0  0  0  0  0
   40.0280   31.2620   38.0590 C   0  0  0  0  0  0  0  0  0  0  0  0
   40.1850   30.9140   39.4310 N   0  0  0  0  0  0  0  0  0  0  0  0
   40.7770   30.5500   37.0830 N   0  0  0  0  0  0  0  0  0  0  0  0
   41.2300   30.8490   36.1930 H   0  0  0  0  0  0  0  0  0  0  0  0
   39.0670   32.4920   36.7960 H   0  0  0  0  0  0  0  0  0  0  0  0
   40.5210   29.9230   39.6180 H   0  0  0  0  0  0  0  0  0  0  0  0
   40.9360   29.5400   37.2290 H   0  0  0  0  0  0  0  0  0  0  0  0
  1  2  1  0  0  0  0
  1  7  1  1  0  0  0
  2  3  1  0  0  0  0
  2  8  1  0  0  0  0
  3 10  1  0  0  0  0
  3 11  1  0  0  0  0
  4 13  1  0  0  0  0
  4  3  1  0  0  0  0
  5 15  1  0  0  0  0
  5  4  1  0  0  0  0
  6 16  1  6  0  0  0
  6  5  1  0  0  0  0
  6  1  1  0  0  0  0
  9  2  1  0  0  0  0
 12  4  1  0  0  0  0
 14  5  1  0  0  0  0
 17 30  1  0  0  0  0
 17 22  1  0  0  0  0
 18 17  2  0  0  0  0
 19 18  1  0  0  0  0
 19 20  2  0  0  0  0
 20 21  1  0  0  0  0
 21 22  2  0  0  0  0
 21  1  1  0  0  0  0
 23 18  1  0  0  0  0
 24 19  1  0  0  0  0
 25 20  1  0  0  0  0
 26 32  1  0  0  0  0
 27 33  1  0  0  0  0
 27 26  2  0  0  0  0
 28 29  2  0  0  0  0
 28 27  1  0  0  0  0
 29 30  1  0  0  0  0
 30 31  2  0  0  0  0
 31 26  1  0  0  0  0
 34 28  1  0  0  0  0
 35 36  2  0  0  0  0
 36 37  1  0  0  0  0
 37 41  1  0  0  0  0
 37  6  1  0  0  0  0
 38 42  1  0  0  0  0
 38 36  1  0  0  0  0
 39 38  1  0  0  0  0
 40 35  1  0  0  0  0
M  END
>  <minimizedAffinity>
-5.46512651

$$$$
