
 OpenBabel03252508243D

 40 43  0  0  1  0  0  0  0  0999 V2000
   46.6120   32.2140   46.1230 C   0  0  1  0  0  0  0  0  0  0  0  0
   46.8720   32.4980   47.5410 C   0  0  0  0  0  0  0  0  0  0  0  0
   45.5480   31.8080   47.0230 C   0  0  2  0  0  0  0  0  0  0  0  0
   47.4900   31.5620   45.7860 H   0  0  0  0  0  0  0  0  0  0  0  0
   46.7920   33.5180   47.9520 H   0  0  0  0  0  0  0  0  0  0  0  0
   47.3890   31.8120   48.2260 H   0  0  0  0  0  0  0  0  0  0  0  0
   44.7750   32.5190   47.4380 H   0  0  0  0  0  0  0  0  0  0  0  0
   45.2490   30.4260   47.4150 C   0  0  0  0  0  0  0  0  0  0  0  0
   45.1250   29.9300   48.6750 C   0  0  0  0  0  0  0  0  0  0  0  0
   44.9610   28.5990   49.0110 C   0  0  0  0  0  0  0  0  0  0  0  0
   44.9220   27.6870   47.9440 C   0  0  0  0  0  0  0  0  0  0  0  0
   45.0450   28.1670   46.6400 C   0  0  0  0  0  0  0  0  0  0  0  0
   44.9400   27.2410   45.6200 C   0  0  0  0  0  0  0  0  0  0  0  0
   44.9870   27.6790   44.3040 C   0  0  0  0  0  0  0  0  0  0  0  0
   45.1320   29.0200   44.0140 C   0  0  0  0  0  0  0  0  0  0  0  0
   45.2350   29.8990   45.0670 C   0  0  0  0  0  0  0  0  0  0  0  0
   45.2020   29.5110   46.3930 C   0  0  0  0  0  0  0  0  0  0  0  0
   45.1610   30.6780   49.4680 H   0  0  0  0  0  0  0  0  0  0  0  0
   44.8690   28.2920   50.0380 H   0  0  0  0  0  0  0  0  0  0  0  0
   44.7990   26.6350   48.1540 H   0  0  0  0  0  0  0  0  0  0  0  0
   44.8230   26.1850   45.8770 H   0  0  0  0  0  0  0  0  0  0  0  0
   44.8960   26.8570   43.5780 H   0  0  0  0  0  0  0  0  0  0  0  0
   45.1420   29.1590   42.9540 H   0  0  0  0  0  0  0  0  0  0  0  0
   45.2500   30.8430   44.6040 H   0  0  0  0  0  0  0  0  0  0  0  0
   45.0660   35.1350   44.4790 C   0  0  0  0  0  0  0  0  0  0  0  0
   45.8850   35.2920   43.3040 C   0  0  0  0  0  0  0  0  0  0  0  0
   46.9550   34.3830   43.1320 C   0  0  0  0  0  0  0  0  0  0  0  0
   47.1550   33.4380   44.0480 N   0  0  0  0  0  0  0  0  0  0  0  0
   46.3570   33.3180   45.1510 C   0  0  0  0  0  0  0  0  0  0  0  0
   45.3400   34.1480   45.3570 N   0  0  0  0  0  0  0  0  0  0  0  0
   44.2550   35.8480   44.5820 H   0  0  0  0  0  0  0  0  0  0  0  0
   45.6660   36.0600   42.6170 H   0  0  0  0  0  0  0  0  0  0  0  0
   49.7490   35.0740   43.0170 N   0  0  0  0  0  0  0  0  0  0  0  0
   49.0030   35.2270   41.9470 C   0  0  0  0  0  0  0  0  0  0  0  0
   47.8160   34.4680   42.0070 N   0  0  0  0  0  0  0  0  0  0  0  0
   49.2540   36.0360   40.7840 N   0  0  0  0  0  0  0  0  0  0  0  0
   49.8780   36.0460   39.9350 H   0  0  0  0  0  0  0  0  0  0  0  0
   50.6410   35.6080   43.0350 H   0  0  0  0  0  0  0  0  0  0  0  0
   47.5370   33.9180   41.1380 H   0  0  0  0  0  0  0  0  0  0  0  0
   48.7250   36.9350   40.5800 H   0  0  0  0  0  0  0  0  0  0  0  0
  1  4  1  6  0  0  0
  1  3  1  0  0  0  0
  1  2  1  0  0  0  0
  2  5  1  0  0  0  0
  2  6  1  0  0  0  0
  3  8  1  0  0  0  0
  3  7  1  6  0  0  0
  3  2  1  0  0  0  0
  8  9  1  0  0  0  0
  9 10  2  0  0  0  0
  9 18  1  0  0  0  0
 10 19  1  0  0  0  0
 11 20  1  0  0  0  0
 11 10  1  0  0  0  0
 12 11  2  0  0  0  0
 13 21  1  0  0  0  0
 13 12  1  0  0  0  0
 14 13  2  0  0  0  0
 15 14  1  0  0  0  0
 15 16  2  0  0  0  0
 16 17  1  0  0  0  0
 17 12  1  0  0  0  0
 17  8  2  0  0  0  0
 22 14  1  0  0  0  0
 23 15  1  0  0  0  0
 24 16  1  0  0  0  0
 25 31  1  0  0  0  0
 25 30  1  0  0  0  0
 26 25  2  0  0  0  0
 27 26  1  0  0  0  0
 27 28  2  0  0  0  0
 28 29  1  0  0  0  0
 29 30  2  0  0  0  0
 29  1  1  0  0  0  0
 32 26  1  0  0  0  0
 33 38  1  0  0  0  0
 34 35  1  0  0  0  0
 34 33  2  0  0  0  0
 35 27  1  0  0  0  0
 36 34  1  0  0  0  0
 37 36  1  0  0  0  0
 39 35  1  0  0  0  0
 40 36  1  0  0  0  0
M  END
>  <minimizedAffinity>
-5.80069304

>  <minimizedRMSD>
0.978172064

$$$$
