
 OpenBabel03242511033D

 45 47  0  0  0  0  0  0  0  0999 V2000
   37.5800   31.2980   39.8990 C   0  0  0  0  0  3  0  0  0  0  0  0
   36.7250   30.9100   40.8060 C   0  0  0  0  0  3  0  0  0  0  0  0
   40.0740   33.9510   40.4110 C   0  0  0  0  0  0  0  0  0  0  0  0
   39.2870   35.0620   40.1100 C   0  0  0  0  0  0  0  0  0  0  0  0
   37.9620   34.9820   39.7420 C   0  0  0  0  0  0  0  0  0  0  0  0
   37.4030   33.7370   39.6740 C   0  0  0  0  0  0  0  0  0  0  0  0
   38.1760   32.6240   39.9720 C   0  0  0  0  0  0  0  0  0  0  0  0
   39.4530   32.7680   40.3210 N   0  0  0  0  0  0  0  0  0  0  0  0
   39.7680   36.0290   40.1760 H   0  0  0  0  0  0  0  0  0  0  0  0
   37.4500   35.9050   39.5320 H   0  0  0  0  0  0  0  0  0  0  0  0
   36.3610   33.6860   39.3850 H   0  0  0  0  0  0  0  0  0  0  0  0
   44.7360   36.4110   43.3540 C   0  0  0  0  0  0  0  0  0  0  0  0
   45.7670   35.7290   42.6710 C   0  0  0  0  0  0  0  0  0  0  0  0
   45.4040   34.8810   41.6290 C   0  0  0  0  0  0  0  0  0  0  0  0
   44.0870   34.7320   41.2990 N   0  0  0  0  0  0  0  0  0  0  0  0
   43.1350   35.4130   41.9900 C   0  0  0  0  0  0  0  0  0  0  0  0
   43.4620   36.2510   43.0160 N   0  0  0  0  0  0  0  0  0  0  0  0
   41.4660   34.1420   40.7890 C   0  0  0  0  0  0  0  0  0  0  0  0
   42.3140   33.3180   40.3430 O   0  0  0  0  0  0  0  0  0  0  0  0
   41.7680   35.2480   41.6340 N   0  0  0  0  0  0  0  0  0  0  0  0
   45.0870   37.0520   44.1490 H   0  0  0  0  0  0  0  0  0  0  0  0
   46.8180   35.7880   42.8640 H   0  0  0  0  0  0  0  0  0  0  0  0
   46.0480   34.2960   41.0140 H   0  0  0  0  0  0  0  0  0  0  0  0
   41.0490   35.9190   41.9930 H   0  0  0  0  0  0  0  0  0  0  0  0
   36.0300   29.5850   40.8740 C   0  0  0  0  0  0  0  0  0  0  0  0
   35.0720   29.8110   41.3500 H   0  0  0  0  0  0  0  0  0  0  0  0
   35.7760   29.2370   39.8470 H   0  0  0  0  0  0  0  0  0  0  0  0
   36.5740   27.1330   39.3300 Cl  0  0  0  0  0  0  0  0  0  0  0  0
   37.1210   27.4300   40.9780 C   0  0  0  0  0  0  0  0  0  0  0  0
   36.8350   28.5990   41.6430 C   0  0  0  0  0  0  0  0  0  0  0  0
   37.2690   28.8280   42.9320 C   0  0  0  0  0  0  0  0  0  0  0  0
   38.0230   27.8260   43.5690 C   0  0  0  0  0  0  0  0  0  0  0  0
   38.3010   26.6670   42.8960 C   0  0  0  0  0  0  0  0  0  0  0  0
   37.8690   26.4330   41.6040 C   0  0  0  0  0  0  0  0  0  0  0  0
   36.9880   29.7770   43.3580 H   0  0  0  0  0  0  0  0  0  0  0  0
   38.3450   28.0480   44.5860 H   0  0  0  0  0  0  0  0  0  0  0  0
   38.8870   25.9570   43.4540 H   0  0  0  0  0  0  0  0  0  0  0  0
   36.2420   24.0490   41.2500 N   0  0  0  0  0  0  0  0  0  0  0  0
   37.5300   24.0040   41.1410 C   0  0  0  0  0  0  0  0  0  0  0  0
   38.1680   25.2360   40.9140 N   0  0  0  0  0  0  0  0  0  0  0  0
   38.3220   22.8010   41.2320 N   0  0  0  0  0  0  0  0  0  0  0  0
   38.4120   22.6610   40.1910 H   0  0  0  0  0  0  0  0  0  0  0  0
   35.7680   23.1440   41.4170 H   0  0  0  0  0  0  0  0  0  0  0  0
   38.9320   25.2630   40.1730 H   0  0  0  0  0  0  0  0  0  0  0  0
   38.7990   22.0770   40.6650 H   0  0  0  0  0  0  0  0  0  0  0  0
  1  7  1  0  0  0  0
  1  2  2  0  0  0  0
  2 25  1  0  0  0  0
  3 18  1  0  0  0  0
  4  9  1  0  0  0  0
  4  3  2  0  0  0  0
  5  4  1  0  0  0  0
  6  5  2  0  0  0  0
  6  7  1  0  0  0  0
  7  8  2  0  0  0  0
  8  3  1  0  0  0  0
 10  5  1  0  0  0  0
 11  6  1  0  0  0  0
 12 21  1  0  0  0  0
 13 22  1  0  0  0  0
 13 12  2  0  0  0  0
 14 13  1  0  0  0  0
 15 14  2  0  0  0  0
 15 16  1  0  0  0  0
 16 17  2  0  0  0  0
 17 12  1  0  0  0  0
 18 20  1  0  0  0  0
 19 18  2  0  0  0  0
 20 16  1  0  0  0  0
 20 24  1  0  0  0  0
 23 14  1  0  0  0  0
 25 26  1  0  0  0  0
 25 30  1  0  0  0  0
 27 25  1  0  0  0  0
 28 29  1  0  0  0  0
 29 34  2  0  0  0  0
 29 30  1  0  0  0  0
 30 31  2  0  0  0  0
 31 35  1  0  0  0  0
 31 32  1  0  0  0  0
 32 36  1  0  0  0  0
 33 37  1  0  0  0  0
 33 32  2  0  0  0  0
 34 33  1  0  0  0  0
 38 43  1  0  0  0  0
 39 41  1  0  0  0  0
 39 38  2  0  0  0  0
 40 39  1  0  0  0  0
 40 34  1  0  0  0  0
 42 41  1  0  0  0  0
 44 40  1  0  0  0  0
 45 41  1  0  0  0  0
M  END
>  <minimizedAffinity>
-7.69514513

$$$$

 OpenBabel03242511033D

 45 47  0  0  0  0  0  0  0  0999 V2000
   38.1020   31.1530   39.1760 C   0  0  0  0  0  3  0  0  0  0  0  0
   38.4510   30.1050   39.8730 C   0  0  0  0  0  3  0  0  0  0  0  0
   40.2970   33.8680   40.3290 C   0  0  0  0  0  0  0  0  0  0  0  0
   39.3830   34.9210   40.3100 C   0  0  0  0  0  0  0  0  0  0  0  0
   38.0650   34.7820   39.9330 C   0  0  0  0  0  0  0  0  0  0  0  0
   37.6470   33.5360   39.5590 C   0  0  0  0  0  0  0  0  0  0  0  0
   38.5470   32.4800   39.5750 C   0  0  0  0  0  0  0  0  0  0  0  0
   39.8090   32.6800   39.9500 N   0  0  0  0  0  0  0  0  0  0  0  0
   39.7540   35.8910   40.6130 H   0  0  0  0  0  0  0  0  0  0  0  0
   37.4480   35.6630   39.9560 H   0  0  0  0  0  0  0  0  0  0  0  0
   36.6100   33.4380   39.2650 H   0  0  0  0  0  0  0  0  0  0  0  0
   44.7520   36.4110   43.5130 C   0  0  0  0  0  0  0  0  0  0  0  0
   45.8330   35.8420   42.8050 C   0  0  0  0  0  0  0  0  0  0  0  0
   45.5390   35.0450   41.7030 C   0  0  0  0  0  0  0  0  0  0  0  0
   44.2390   34.8360   41.3400 N   0  0  0  0  0  0  0  0  0  0  0  0
   43.2360   35.4090   42.0560 C   0  0  0  0  0  0  0  0  0  0  0  0
   43.4950   36.1950   43.1410 N   0  0  0  0  0  0  0  0  0  0  0  0
   41.6680   34.1200   40.7440 C   0  0  0  0  0  0  0  0  0  0  0  0
   42.5720   33.3820   40.2600 O   0  0  0  0  0  0  0  0  0  0  0  0
   41.8880   35.1830   41.6660 N   0  0  0  0  0  0  0  0  0  0  0  0
   45.0500   37.0170   44.3550 H   0  0  0  0  0  0  0  0  0  0  0  0
   46.8750   35.9530   43.0210 H   0  0  0  0  0  0  0  0  0  0  0  0
   46.2270   34.5430   41.0630 H   0  0  0  0  0  0  0  0  0  0  0  0
   41.1220   35.7830   42.0540 H   0  0  0  0  0  0  0  0  0  0  0  0
   38.0800   28.6810   39.5960 C   0  0  0  0  0  0  0  0  0  0  0  0
   37.2150   28.7560   38.9300 H   0  0  0  0  0  0  0  0  0  0  0  0
   38.8770   28.1920   38.9920 H   0  0  0  0  0  0  0  0  0  0  0  0
   40.0870   26.6130   40.2170 Cl  0  0  0  0  0  0  0  0  0  0  0  0
   38.6710   26.9720   41.2010 C   0  0  0  0  0  0  0  0  0  0  0  0
   37.7720   27.9540   40.8560 C   0  0  0  0  0  0  0  0  0  0  0  0
   36.6680   28.2340   41.6330 C   0  0  0  0  0  0  0  0  0  0  0  0
   36.4690   27.4840   42.8060 C   0  0  0  0  0  0  0  0  0  0  0  0
   37.3720   26.5100   43.1380 C   0  0  0  0  0  0  0  0  0  0  0  0
   38.4810   26.2250   42.3630 C   0  0  0  0  0  0  0  0  0  0  0  0
   36.0280   29.0220   41.2700 H   0  0  0  0  0  0  0  0  0  0  0  0
   35.5850   27.7370   43.3880 H   0  0  0  0  0  0  0  0  0  0  0  0
   37.1480   25.9870   44.0520 H   0  0  0  0  0  0  0  0  0  0  0  0
   40.5950   26.2890   44.3590 N   0  0  0  0  0  0  0  0  0  0  0  0
   40.6370   25.4630   43.3650 C   0  0  0  0  0  0  0  0  0  0  0  0
   39.4120   25.2220   42.7180 N   0  0  0  0  0  0  0  0  0  0  0  0
   41.8280   24.7960   42.8980 N   0  0  0  0  0  0  0  0  0  0  0  0
   41.6410   23.8900   43.4050 H   0  0  0  0  0  0  0  0  0  0  0  0
   41.4940   26.4690   44.8380 H   0  0  0  0  0  0  0  0  0  0  0  0
   39.1760   24.2120   42.4760 H   0  0  0  0  0  0  0  0  0  0  0  0
   42.3530   23.9030   42.9490 H   0  0  0  0  0  0  0  0  0  0  0  0
  1  7  1  0  0  0  0
  1  2  2  0  0  0  0
  3 18  1  0  0  0  0
  4  3  1  0  0  0  0
  4  9  1  0  0  0  0
  5 10  1  0  0  0  0
  5  4  2  0  0  0  0
  6  7  2  0  0  0  0
  6  5  1  0  0  0  0
  7  8  1  0  0  0  0
  8  3  2  0  0  0  0
 11  6  1  0  0  0  0
 12 21  1  0  0  0  0
 13 22  1  0  0  0  0
 13 12  2  0  0  0  0
 14 13  1  0  0  0  0
 15 14  2  0  0  0  0
 15 16  1  0  0  0  0
 16 17  2  0  0  0  0
 17 12  1  0  0  0  0
 18 20  1  0  0  0  0
 19 18  2  0  0  0  0
 20 24  1  0  0  0  0
 20 16  1  0  0  0  0
 23 14  1  0  0  0  0
 25  2  1  0  0  0  0
 25 30  1  0  0  0  0
 26 25  1  0  0  0  0
 27 25  1  0  0  0  0
 28 29  1  0  0  0  0
 29 34  1  0  0  0  0
 30 29  2  0  0  0  0
 30 31  1  0  0  0  0
 31 32  2  0  0  0  0
 32 33  1  0  0  0  0
 32 36  1  0  0  0  0
 33 37  1  0  0  0  0
 34 40  1  0  0  0  0
 34 33  2  0  0  0  0
 35 31  1  0  0  0  0
 38 43  1  0  0  0  0
 39 38  2  0  0  0  0
 40 39  1  0  0  0  0
 41 45  1  0  0  0  0
 41 39  1  0  0  0  0
 41 42  1  0  0  0  0
 44 40  1  0  0  0  0
M  END
>  <minimizedAffinity>
-7.4783721

$$$$

 OpenBabel03242511033D

 45 47  0  0  0  0  0  0  0  0999 V2000
   37.5470   29.8180   41.8050 C   0  0  0  0  0  3  0  0  0  0  0  0
   38.2310   29.3180   42.7980 C   0  0  0  0  0  3  0  0  0  0  0  0
   39.8010   32.4600   40.5960 C   0  0  0  0  0  0  0  0  0  0  0  0
   38.8840   33.2300   39.8810 C   0  0  0  0  0  0  0  0  0  0  0  0
   37.5460   32.9210   39.7740 C   0  0  0  0  0  0  0  0  0  0  0  0
   37.1100   31.7930   40.4120 C   0  0  0  0  0  0  0  0  0  0  0  0
   38.0120   31.0200   41.1260 C   0  0  0  0  0  0  0  0  0  0  0  0
   39.2950   31.3730   41.1910 N   0  0  0  0  0  0  0  0  0  0  0  0
   39.2700   34.1140   39.3920 H   0  0  0  0  0  0  0  0  0  0  0  0
   36.9280   33.5860   39.1970 H   0  0  0  0  0  0  0  0  0  0  0  0
   36.0570   31.5600   40.3220 H   0  0  0  0  0  0  0  0  0  0  0  0
   44.5580   35.7290   42.3690 C   0  0  0  0  0  0  0  0  0  0  0  0
   45.5050   35.1710   41.4830 C   0  0  0  0  0  0  0  0  0  0  0  0
   45.0580   34.2270   40.5650 C   0  0  0  0  0  0  0  0  0  0  0  0
   43.7400   33.8680   40.5430 N   0  0  0  0  0  0  0  0  0  0  0  0
   42.8700   34.4360   41.4190 C   0  0  0  0  0  0  0  0  0  0  0  0
   43.2800   35.3650   42.3300 N   0  0  0  0  0  0  0  0  0  0  0  0
   41.1950   32.8730   40.6470 C   0  0  0  0  0  0  0  0  0  0  0  0
   42.0410   32.1610   40.0360 O   0  0  0  0  0  0  0  0  0  0  0  0
   41.5010   34.0540   41.3830 N   0  0  0  0  0  0  0  0  0  0  0  0
   44.9710   36.4540   43.0540 H   0  0  0  0  0  0  0  0  0  0  0  0
   46.5510   35.3940   41.4330 H   0  0  0  0  0  0  0  0  0  0  0  0
   45.6330   33.7110   39.8310 H   0  0  0  0  0  0  0  0  0  0  0  0
   40.7830   34.6290   41.8830 H   0  0  0  0  0  0  0  0  0  0  0  0
   37.8900   28.0950   43.5920 C   0  0  0  0  0  0  0  0  0  0  0  0
   37.8430   28.4510   44.6250 H   0  0  0  0  0  0  0  0  0  0  0  0
   36.8570   27.7580   43.3480 H   0  0  0  0  0  0  0  0  0  0  0  0
   36.7630   25.6660   42.3560 Cl  0  0  0  0  0  0  0  0  0  0  0  0
   38.4480   25.8690   42.8290 C   0  0  0  0  0  0  0  0  0  0  0  0
   38.9120   27.0310   43.3990 C   0  0  0  0  0  0  0  0  0  0  0  0
   40.2330   27.1850   43.7630 C   0  0  0  0  0  0  0  0  0  0  0  0
   41.1160   26.1150   43.5380 C   0  0  0  0  0  0  0  0  0  0  0  0
   40.6420   24.9640   42.9690 C   0  0  0  0  0  0  0  0  0  0  0  0
   39.3190   24.8040   42.6020 C   0  0  0  0  0  0  0  0  0  0  0  0
   40.4890   28.1350   44.2030 H   0  0  0  0  0  0  0  0  0  0  0  0
   42.1490   26.2790   43.8400 H   0  0  0  0  0  0  0  0  0  0  0  0
   41.3840   24.1970   42.8270 H   0  0  0  0  0  0  0  0  0  0  0  0
   39.4350   23.9490   39.8250 N   0  0  0  0  0  0  0  0  0  0  0  0
   38.5540   23.4640   40.6390 C   0  0  0  0  0  0  0  0  0  0  0  0
   38.8390   23.6140   42.0070 N   0  0  0  0  0  0  0  0  0  0  0  0
   37.3380   22.8000   40.2360 N   0  0  0  0  0  0  0  0  0  0  0  0
   37.7160   21.8220   40.3520 H   0  0  0  0  0  0  0  0  0  0  0  0
   39.2300   23.8410   38.8160 H   0  0  0  0  0  0  0  0  0  0  0  0
   38.6760   22.7700   42.6370 H   0  0  0  0  0  0  0  0  0  0  0  0
   36.9120   21.8670   40.0900 H   0  0  0  0  0  0  0  0  0  0  0  0
  1  2  2  0  0  0  0
  2 25  1  0  0  0  0
  3 18  1  0  0  0  0
  3  8  1  0  0  0  0
  4  3  2  0  0  0  0
  5  4  1  0  0  0  0
  5  6  2  0  0  0  0
  6  7  1  0  0  0  0
  7  8  2  0  0  0  0
  7  1  1  0  0  0  0
  9  4  1  0  0  0  0
 10  5  1  0  0  0  0
 11  6  1  0  0  0  0
 12 21  1  0  0  0  0
 13 12  2  0  0  0  0
 14 13  1  0  0  0  0
 15 14  2  0  0  0  0
 15 16  1  0  0  0  0
 16 17  2  0  0  0  0
 17 12  1  0  0  0  0
 18 20  1  0  0  0  0
 19 18  2  0  0  0  0
 20 16  1  0  0  0  0
 20 24  1  0  0  0  0
 22 13  1  0  0  0  0
 23 14  1  0  0  0  0
 25 26  1  0  0  0  0
 27 25  1  0  0  0  0
 28 29  1  0  0  0  0
 29 30  1  0  0  0  0
 30 25  1  0  0  0  0
 30 31  2  0  0  0  0
 31 35  1  0  0  0  0
 32 31  1  0  0  0  0
 32 36  1  0  0  0  0
 33 32  2  0  0  0  0
 34 29  2  0  0  0  0
 34 33  1  0  0  0  0
 37 33  1  0  0  0  0
 38 39  2  0  0  0  0
 39 40  1  0  0  0  0
 40 34  1  0  0  0  0
 40 44  1  0  0  0  0
 41 42  1  0  0  0  0
 41 39  1  0  0  0  0
 43 38  1  0  0  0  0
 45 41  1  0  0  0  0
M  END
>  <minimizedAffinity>
-7.39433765

$$$$

 OpenBabel03242511033D

 45 47  0  0  0  0  0  0  0  0999 V2000
   36.3630   28.2610   40.1850 C   0  0  0  0  0  3  0  0  0  0  0  0
   36.7080   28.3350   41.4430 C   0  0  0  0  0  3  0  0  0  0  0  0
   37.6140   31.4860   38.9400 C   0  0  0  0  0  0  0  0  0  0  0  0
   37.3800   31.3090   37.5770 C   0  0  0  0  0  0  0  0  0  0  0  0
   36.8240   30.1680   37.0400 C   0  0  0  0  0  0  0  0  0  0  0  0
   36.4910   29.1650   37.9050 C   0  0  0  0  0  0  0  0  0  0  0  0
   36.7190   29.3300   39.2640 C   0  0  0  0  0  0  0  0  0  0  0  0
   37.2590   30.4580   39.7200 N   0  0  0  0  0  0  0  0  0  0  0  0
   37.6580   32.1260   36.9260 H   0  0  0  0  0  0  0  0  0  0  0  0
   36.6880   30.1390   35.9730 H   0  0  0  0  0  0  0  0  0  0  0  0
   36.0550   28.2730   37.4730 H   0  0  0  0  0  0  0  0  0  0  0  0
   41.9990   35.1680   40.8560 C   0  0  0  0  0  0  0  0  0  0  0  0
   41.1850   36.2820   41.1590 C   0  0  0  0  0  0  0  0  0  0  0  0
   39.8100   36.1430   41.0010 C   0  0  0  0  0  0  0  0  0  0  0  0
   39.2900   34.9570   40.5670 N   0  0  0  0  0  0  0  0  0  0  0  0
   40.1190   33.9160   40.2900 C   0  0  0  0  0  0  0  0  0  0  0  0
   41.4710   34.0240   40.4350 N   0  0  0  0  0  0  0  0  0  0  0  0
   38.2060   32.7300   39.4070 C   0  0  0  0  0  0  0  0  0  0  0  0
   37.4800   33.7640   39.4000 O   0  0  0  0  0  0  0  0  0  0  0  0
   39.5630   32.6870   39.8390 N   0  0  0  0  0  0  0  0  0  0  0  0
   43.0540   35.3440   41.0000 H   0  0  0  0  0  0  0  0  0  0  0  0
   41.5090   37.2430   41.5020 H   0  0  0  0  0  0  0  0  0  0  0  0
   39.0580   36.8760   41.1830 H   0  0  0  0  0  0  0  0  0  0  0  0
   40.1460   31.8180   39.8360 H   0  0  0  0  0  0  0  0  0  0  0  0
   36.4220   27.3230   42.5100 C   0  0  0  0  0  0  0  0  0  0  0  0
   36.5610   27.8750   43.4440 H   0  0  0  0  0  0  0  0  0  0  0  0
   35.3460   27.0430   42.4890 H   0  0  0  0  0  0  0  0  0  0  0  0
   39.0350   27.8050   43.7890 Cl  0  0  0  0  0  0  0  0  0  0  0  0
   38.5720   26.3160   42.9690 C   0  0  0  0  0  0  0  0  0  0  0  0
   37.3340   26.1530   42.3940 C   0  0  0  0  0  0  0  0  0  0  0  0
   36.9750   24.9840   41.7580 C   0  0  0  0  0  0  0  0  0  0  0  0
   37.9150   23.9390   41.7040 C   0  0  0  0  0  0  0  0  0  0  0  0
   39.1440   24.1130   42.2810 C   0  0  0  0  0  0  0  0  0  0  0  0
   39.5080   25.2830   42.9200 C   0  0  0  0  0  0  0  0  0  0  0  0
   35.9810   24.9640   41.3410 H   0  0  0  0  0  0  0  0  0  0  0  0
   37.5900   23.0340   41.1920 H   0  0  0  0  0  0  0  0  0  0  0  0
   39.7990   23.2640   42.1990 H   0  0  0  0  0  0  0  0  0  0  0  0
   42.0220   26.1190   41.7220 N   0  0  0  0  0  0  0  0  0  0  0  0
   41.9980   25.4400   42.8230 C   0  0  0  0  0  0  0  0  0  0  0  0
   40.7770   25.4510   43.5200 N   0  0  0  0  0  0  0  0  0  0  0  0
   43.1140   24.6990   43.3580 N   0  0  0  0  0  0  0  0  0  0  0  0
   43.4120   25.4460   44.0400 H   0  0  0  0  0  0  0  0  0  0  0  0
   42.9190   26.1130   41.2050 H   0  0  0  0  0  0  0  0  0  0  0  0
   40.8170   25.5920   44.5760 H   0  0  0  0  0  0  0  0  0  0  0  0
   43.8860   24.7450   44.0480 H   0  0  0  0  0  0  0  0  0  0  0  0
  1  2  2  0  0  0  0
  2 25  1  0  0  0  0
  3 18  1  0  0  0  0
  3  8  1  0  0  0  0
  4  3  2  0  0  0  0
  5  4  1  0  0  0  0
  5  6  2  0  0  0  0
  6  7  1  0  0  0  0
  7  8  2  0  0  0  0
  7  1  1  0  0  0  0
  9  4  1  0  0  0  0
 10  5  1  0  0  0  0
 11  6  1  0  0  0  0
 12 21  1  0  0  0  0
 12 13  1  0  0  0  0
 13 22  1  0  0  0  0
 14 13  2  0  0  0  0
 14 23  1  0  0  0  0
 15 14  1  0  0  0  0
 16 17  1  0  0  0  0
 16 15  2  0  0  0  0
 17 12  2  0  0  0  0
 18 20  1  0  0  0  0
 19 18  2  0  0  0  0
 20 16  1  0  0  0  0
 24 20  1  0  0  0  0
 25 26  1  0  0  0  0
 27 25  1  0  0  0  0
 29 28  1  0  0  0  0
 30 25  1  0  0  0  0
 30 29  2  0  0  0  0
 31 30  1  0  0  0  0
 32 31  2  0  0  0  0
 32 33  1  0  0  0  0
 33 34  2  0  0  0  0
 34 29  1  0  0  0  0
 34 40  1  0  0  0  0
 35 31  1  0  0  0  0
 36 32  1  0  0  0  0
 37 33  1  0  0  0  0
 38 39  2  0  0  0  0
 39 41  1  0  0  0  0
 39 40  1  0  0  0  0
 40 44  1  0  0  0  0
 41 42  1  0  0  0  0
 41 45  1  0  0  0  0
 43 38  1  0  0  0  0
M  END
>  <minimizedAffinity>
-7.35150528

$$$$

 OpenBabel03242511033D

 45 47  0  0  0  0  0  0  0  0999 V2000
   37.3710   30.1360   40.3870 C   0  0  0  0  0  3  0  0  0  0  0  0
   37.8230   31.3490   40.5640 C   0  0  0  0  0  3  0  0  0  0  0  0
   39.0020   27.9640   42.8650 C   0  0  0  0  0  0  0  0  0  0  0  0
   37.8820   27.2810   43.3390 C   0  0  0  0  0  0  0  0  0  0  0  0
   36.6020   27.5010   42.8790 C   0  0  0  0  0  0  0  0  0  0  0  0
   36.4390   28.4450   41.9040 C   0  0  0  0  0  0  0  0  0  0  0  0
   37.5460   29.1300   41.4250 C   0  0  0  0  0  0  0  0  0  0  0  0
   38.7580   28.8710   41.9120 N   0  0  0  0  0  0  0  0  0  0  0  0
   38.0550   26.5420   44.1100 H   0  0  0  0  0  0  0  0  0  0  0  0
   35.8120   26.9160   43.3160 H   0  0  0  0  0  0  0  0  0  0  0  0
   35.4300   28.6090   41.5500 H   0  0  0  0  0  0  0  0  0  0  0  0
   44.8610   28.8130   44.0490 C   0  0  0  0  0  0  0  0  0  0  0  0
   45.1080   27.5670   44.6650 C   0  0  0  0  0  0  0  0  0  0  0  0
   44.0630   26.6500   44.7160 C   0  0  0  0  0  0  0  0  0  0  0  0
   42.8470   26.9710   44.1810 N   0  0  0  0  0  0  0  0  0  0  0  0
   42.6640   28.1860   43.5990 C   0  0  0  0  0  0  0  0  0  0  0  0
   43.6720   29.1040   43.5350 N   0  0  0  0  0  0  0  0  0  0  0  0
   40.3130   27.6580   43.4180 C   0  0  0  0  0  0  0  0  0  0  0  0
   40.4050   26.6610   44.1890 O   0  0  0  0  0  0  0  0  0  0  0  0
   41.3940   28.5060   43.0460 N   0  0  0  0  0  0  0  0  0  0  0  0
   45.7140   29.4750   44.0430 H   0  0  0  0  0  0  0  0  0  0  0  0
   46.0250   27.2350   45.1070 H   0  0  0  0  0  0  0  0  0  0  0  0
   44.0750   25.6730   45.1410 H   0  0  0  0  0  0  0  0  0  0  0  0
   41.2940   29.3280   42.4040 H   0  0  0  0  0  0  0  0  0  0  0  0
   37.7210   32.4910   39.6000 C   0  0  0  0  0  0  0  0  0  0  0  0
   37.6830   32.0090   38.6190 H   0  0  0  0  0  0  0  0  0  0  0  0
   36.7380   33.0000   39.7170 H   0  0  0  0  0  0  0  0  0  0  0  0
   40.1930   31.3780   38.4420 Cl  0  0  0  0  0  0  0  0  0  0  0  0
   40.0650   32.9520   39.2240 C   0  0  0  0  0  0  0  0  0  0  0  0
   38.8780   33.4140   39.7430 C   0  0  0  0  0  0  0  0  0  0  0  0
   38.7830   34.6490   40.3500 C   0  0  0  0  0  0  0  0  0  0  0  0
   39.9400   35.4420   40.4330 C   0  0  0  0  0  0  0  0  0  0  0  0
   41.1150   34.9700   39.9120 C   0  0  0  0  0  0  0  0  0  0  0  0
   41.2160   33.7340   39.3020 C   0  0  0  0  0  0  0  0  0  0  0  0
   37.8060   34.9120   40.7230 H   0  0  0  0  0  0  0  0  0  0  0  0
   39.8200   36.4090   40.9210 H   0  0  0  0  0  0  0  0  0  0  0  0
   41.9490   35.6420   40.0130 H   0  0  0  0  0  0  0  0  0  0  0  0
   42.5650   34.4950   36.8410 N   0  0  0  0  0  0  0  0  0  0  0  0
   42.7930   33.3530   37.4050 C   0  0  0  0  0  0  0  0  0  0  0  0
   42.4320   33.2580   38.7600 N   0  0  0  0  0  0  0  0  0  0  0  0
   43.3770   32.2110   36.7450 N   0  0  0  0  0  0  0  0  0  0  0  0
   44.3550   32.3770   37.1050 H   0  0  0  0  0  0  0  0  0  0  0  0
   42.8300   34.5690   35.8430 H   0  0  0  0  0  0  0  0  0  0  0  0
   43.1250   32.7890   39.4200 H   0  0  0  0  0  0  0  0  0  0  0  0
   44.2680   31.6990   36.6060 H   0  0  0  0  0  0  0  0  0  0  0  0
  1  2  2  0  0  0  0
  1  7  1  0  0  0  0
  3  4  1  0  0  0  0
  3 18  1  0  0  0  0
  4  9  1  0  0  0  0
  5 10  1  0  0  0  0
  5  4  2  0  0  0  0
  6  5  1  0  0  0  0
  7  6  2  0  0  0  0
  7  8  1  0  0  0  0
  8  3  2  0  0  0  0
 11  6  1  0  0  0  0
 12 13  1  0  0  0  0
 13 14  2  0  0  0  0
 13 22  1  0  0  0  0
 14 23  1  0  0  0  0
 15 14  1  0  0  0  0
 16 15  2  0  0  0  0
 17 16  1  0  0  0  0
 17 12  2  0  0  0  0
 18 19  2  0  0  0  0
 20 18  1  0  0  0  0
 20 16  1  0  0  0  0
 21 12  1  0  0  0  0
 24 20  1  0  0  0  0
 25 27  1  0  0  0  0
 25 30  1  0  0  0  0
 25  2  1  0  0  0  0
 26 25  1  0  0  0  0
 28 29  1  0  0  0  0
 29 34  2  0  0  0  0
 29 30  1  0  0  0  0
 30 31  2  0  0  0  0
 31 32  1  0  0  0  0
 31 35  1  0  0  0  0
 32 36  1  0  0  0  0
 33 37  1  0  0  0  0
 33 32  2  0  0  0  0
 34 33  1  0  0  0  0
 38 39  2  0  0  0  0
 39 40  1  0  0  0  0
 40 34  1  0  0  0  0
 40 44  1  0  0  0  0
 41 42  1  0  0  0  0
 41 39  1  0  0  0  0
 43 38  1  0  0  0  0
 45 41  1  0  0  0  0
M  END
>  <minimizedAffinity>
-7.12182856

$$$$

 OpenBabel03242511033D

 45 47  0  0  0  0  0  0  0  0999 V2000
   38.1470   29.6750   40.0710 C   0  0  0  0  0  3  0  0  0  0  0  0
   37.2510   30.4940   39.5890 C   0  0  0  0  0  3  0  0  0  0  0  0
   37.5960   26.3270   41.4890 C   0  0  0  0  0  0  0  0  0  0  0  0
   37.0430   26.6900   42.7170 C   0  0  0  0  0  0  0  0  0  0  0  0
   36.8390   27.9950   43.1070 C   0  0  0  0  0  0  0  0  0  0  0  0
   37.2050   28.9770   42.2290 C   0  0  0  0  0  0  0  0  0  0  0  0
   37.7560   28.6280   41.0050 C   0  0  0  0  0  0  0  0  0  0  0  0
   37.9280   27.3470   40.6870 N   0  0  0  0  0  0  0  0  0  0  0  0
   36.7670   25.8830   43.3820 H   0  0  0  0  0  0  0  0  0  0  0  0
   36.4040   28.1600   44.0770 H   0  0  0  0  0  0  0  0  0  0  0  0
   37.0400   29.9990   42.5460 H   0  0  0  0  0  0  0  0  0  0  0  0
   39.5360   21.5420   38.3590 C   0  0  0  0  0  0  0  0  0  0  0  0
   38.8520   20.5500   39.0950 C   0  0  0  0  0  0  0  0  0  0  0  0
   38.0080   20.9680   40.1190 C   0  0  0  0  0  0  0  0  0  0  0  0
   37.8650   22.3010   40.3830 N   0  0  0  0  0  0  0  0  0  0  0  0
   38.5470   23.2140   39.6430 C   0  0  0  0  0  0  0  0  0  0  0  0
   39.3810   22.8330   38.6330 N   0  0  0  0  0  0  0  0  0  0  0  0
   37.7710   24.9180   41.1720 C   0  0  0  0  0  0  0  0  0  0  0  0
   37.3630   24.0720   42.0180 O   0  0  0  0  0  0  0  0  0  0  0  0
   38.3880   24.5980   39.9290 N   0  0  0  0  0  0  0  0  0  0  0  0
   40.1720   21.1500   37.5800 H   0  0  0  0  0  0  0  0  0  0  0  0
   38.9060   19.4900   38.9550 H   0  0  0  0  0  0  0  0  0  0  0  0
   37.4220   20.3590   40.7680 H   0  0  0  0  0  0  0  0  0  0  0  0
   38.7180   25.3170   39.2420 H   0  0  0  0  0  0  0  0  0  0  0  0
   37.4890   31.6130   38.6240 C   0  0  0  0  0  0  0  0  0  0  0  0
   37.9620   31.1290   37.7650 H   0  0  0  0  0  0  0  0  0  0  0  0
   36.5180   32.0030   38.2460 H   0  0  0  0  0  0  0  0  0  0  0  0
   40.2380   31.5790   37.5560 Cl  0  0  0  0  0  0  0  0  0  0  0  0
   39.6430   32.7030   38.7760 C   0  0  0  0  0  0  0  0  0  0  0  0
   38.3460   32.6680   39.2300 C   0  0  0  0  0  0  0  0  0  0  0  0
   37.8840   33.5530   40.1810 C   0  0  0  0  0  0  0  0  0  0  0  0
   38.7790   34.5110   40.6910 C   0  0  0  0  0  0  0  0  0  0  0  0
   40.0670   34.5360   40.2300 C   0  0  0  0  0  0  0  0  0  0  0  0
   40.5350   33.6510   39.2760 C   0  0  0  0  0  0  0  0  0  0  0  0
   36.8510   33.4370   40.4670 H   0  0  0  0  0  0  0  0  0  0  0  0
   38.3730   35.1890   41.4400 H   0  0  0  0  0  0  0  0  0  0  0  0
   40.6830   35.3020   40.6670 H   0  0  0  0  0  0  0  0  0  0  0  0
   42.0340   35.8760   38.1550 N   0  0  0  0  0  0  0  0  0  0  0  0
   42.3670   34.6510   37.9060 C   0  0  0  0  0  0  0  0  0  0  0  0
   41.8650   33.6890   38.8000 N   0  0  0  0  0  0  0  0  0  0  0  0
   43.1950   34.2310   36.8020 N   0  0  0  0  0  0  0  0  0  0  0  0
   44.0850   34.1660   37.3650 H   0  0  0  0  0  0  0  0  0  0  0  0
   42.4010   36.5890   37.5000 H   0  0  0  0  0  0  0  0  0  0  0  0
   42.5390   32.9340   39.1340 H   0  0  0  0  0  0  0  0  0  0  0  0
   44.1640   33.9670   36.5460 H   0  0  0  0  0  0  0  0  0  0  0  0
  1  7  1  0  0  0  0
  2  1  2  0  0  0  0
  3  4  1  0  0  0  0
  4  5  2  0  0  0  0
  4  9  1  0  0  0  0
  5 10  1  0  0  0  0
  6 11  1  0  0  0  0
  6  5  1  0  0  0  0
  7  6  2  0  0  0  0
  8  7  1  0  0  0  0
  8  3  2  0  0  0  0
 12 17  2  0  0  0  0
 12 13  1  0  0  0  0
 13 14  2  0  0  0  0
 14 15  1  0  0  0  0
 14 23  1  0  0  0  0
 16 20  1  0  0  0  0
 16 15  2  0  0  0  0
 17 16  1  0  0  0  0
 18  3  1  0  0  0  0
 18 19  2  0  0  0  0
 20 18  1  0  0  0  0
 21 12  1  0  0  0  0
 22 13  1  0  0  0  0
 24 20  1  0  0  0  0
 25 30  1  0  0  0  0
 25  2  1  0  0  0  0
 26 25  1  0  0  0  0
 27 25  1  0  0  0  0
 28 29  1  0  0  0  0
 29 30  2  0  0  0  0
 29 34  1  0  0  0  0
 30 31  1  0  0  0  0
 31 35  1  0  0  0  0
 31 32  2  0  0  0  0
 32 36  1  0  0  0  0
 33 37  1  0  0  0  0
 33 32  1  0  0  0  0
 34 33  2  0  0  0  0
 39 38  2  0  0  0  0
 39 40  1  0  0  0  0
 40 44  1  0  0  0  0
 40 34  1  0  0  0  0
 41 42  1  0  0  0  0
 41 39  1  0  0  0  0
 43 38  1  0  0  0  0
 45 41  1  0  0  0  0
M  END
>  <minimizedAffinity>
-7.11621094

$$$$

 OpenBabel03242511033D

 45 47  0  0  0  0  0  0  0  0999 V2000
   38.0650   30.5400   39.0670 C   0  0  0  0  0  3  0  0  0  0  0  0
   37.3170   30.3380   38.0160 C   0  0  0  0  0  3  0  0  0  0  0  0
   40.0870   33.3950   40.1980 C   0  0  0  0  0  0  0  0  0  0  0  0
   39.1050   34.3860   40.1860 C   0  0  0  0  0  0  0  0  0  0  0  0
   37.7960   34.1600   39.8210 C   0  0  0  0  0  0  0  0  0  0  0  0
   37.4580   32.8880   39.4520 C   0  0  0  0  0  0  0  0  0  0  0  0
   38.4260   31.8950   39.4610 C   0  0  0  0  0  0  0  0  0  0  0  0
   39.6750   32.1780   39.8240 N   0  0  0  0  0  0  0  0  0  0  0  0
   39.4150   35.3790   40.4850 H   0  0  0  0  0  0  0  0  0  0  0  0
   37.1230   34.9990   39.8490 H   0  0  0  0  0  0  0  0  0  0  0  0
   36.4270   32.7220   39.1680 H   0  0  0  0  0  0  0  0  0  0  0  0
   44.4030   36.4050   43.1580 C   0  0  0  0  0  0  0  0  0  0  0  0
   45.5140   35.8080   42.5230 C   0  0  0  0  0  0  0  0  0  0  0  0
   45.2640   34.8950   41.5030 C   0  0  0  0  0  0  0  0  0  0  0  0
   43.9780   34.6030   41.1490 N   0  0  0  0  0  0  0  0  0  0  0  0
   42.9450   35.2070   41.7940 C   0  0  0  0  0  0  0  0  0  0  0  0
   43.1600   36.1060   42.7970 N   0  0  0  0  0  0  0  0  0  0  0  0
   41.4420   33.7370   40.6000 C   0  0  0  0  0  0  0  0  0  0  0  0
   42.3790   32.9880   40.2020 O   0  0  0  0  0  0  0  0  0  0  0  0
   41.6110   34.8940   41.4130 N   0  0  0  0  0  0  0  0  0  0  0  0
   44.6670   37.1020   43.9390 H   0  0  0  0  0  0  0  0  0  0  0  0
   46.5490   35.9780   42.7370 H   0  0  0  0  0  0  0  0  0  0  0  0
   45.9790   34.3570   40.9240 H   0  0  0  0  0  0  0  0  0  0  0  0
   40.8190   35.5020   41.7320 H   0  0  0  0  0  0  0  0  0  0  0  0
   36.8590   29.0140   37.4850 C   0  0  0  0  0  0  0  0  0  0  0  0
   37.7110   28.6510   36.9040 H   0  0  0  0  0  0  0  0  0  0  0  0
   36.7410   28.2900   38.3210 H   0  0  0  0  0  0  0  0  0  0  0  0
   34.4020   28.5940   39.0600 Cl  0  0  0  0  0  0  0  0  0  0  0  0
   34.4450   28.9790   37.3410 C   0  0  0  0  0  0  0  0  0  0  0  0
   35.6270   29.1660   36.6640 C   0  0  0  0  0  0  0  0  0  0  0  0
   35.6550   29.4710   35.3200 C   0  0  0  0  0  0  0  0  0  0  0  0
   34.4320   29.5890   34.6380 C   0  0  0  0  0  0  0  0  0  0  0  0
   33.2620   29.4010   35.3230 C   0  0  0  0  0  0  0  0  0  0  0  0
   33.2280   29.0950   36.6700 C   0  0  0  0  0  0  0  0  0  0  0  0
   36.6350   29.5950   34.8890 H   0  0  0  0  0  0  0  0  0  0  0  0
   34.5000   29.8300   33.5780 H   0  0  0  0  0  0  0  0  0  0  0  0
   32.3730   29.5140   34.7270 H   0  0  0  0  0  0  0  0  0  0  0  0
   30.9650   30.8990   36.9570 N   0  0  0  0  0  0  0  0  0  0  0  0
   31.1800   29.9520   37.8120 C   0  0  0  0  0  0  0  0  0  0  0  0
   32.0150   28.9100   37.3720 N   0  0  0  0  0  0  0  0  0  0  0  0
   30.6290   29.9060   39.1440 N   0  0  0  0  0  0  0  0  0  0  0  0
   29.8340   29.2570   38.9010 H   0  0  0  0  0  0  0  0  0  0  0  0
   30.3510   31.6690   37.2760 H   0  0  0  0  0  0  0  0  0  0  0  0
   31.7100   27.9130   37.5910 H   0  0  0  0  0  0  0  0  0  0  0  0
   29.8640   29.4960   39.7120 H   0  0  0  0  0  0  0  0  0  0  0  0
  1  7  1  0  0  0  0
  2  1  2  0  0  0  0
  3 18  1  0  0  0  0
  4  3  1  0  0  0  0
  4  9  1  0  0  0  0
  5 10  1  0  0  0  0
  5  4  2  0  0  0  0
  6  7  2  0  0  0  0
  6  5  1  0  0  0  0
  7  8  1  0  0  0  0
  8  3  2  0  0  0  0
 11  6  1  0  0  0  0
 12 21  1  0  0  0  0
 13 22  1  0  0  0  0
 13 12  2  0  0  0  0
 14 13  1  0  0  0  0
 15 14  2  0  0  0  0
 15 16  1  0  0  0  0
 16 17  2  0  0  0  0
 17 12  1  0  0  0  0
 18 20  1  0  0  0  0
 19 18  2  0  0  0  0
 20 24  1  0  0  0  0
 20 16  1  0  0  0  0
 23 14  1  0  0  0  0
 25  2  1  0  0  0  0
 25 27  1  0  0  0  0
 26 25  1  0  0  0  0
 29 28  1  0  0  0  0
 30 29  2  0  0  0  0
 30 25  1  0  0  0  0
 31 30  1  0  0  0  0
 32 31  2  0  0  0  0
 32 33  1  0  0  0  0
 33 34  2  0  0  0  0
 34 29  1  0  0  0  0
 34 40  1  0  0  0  0
 35 31  1  0  0  0  0
 36 32  1  0  0  0  0
 37 33  1  0  0  0  0
 38 43  1  0  0  0  0
 38 39  2  0  0  0  0
 39 41  1  0  0  0  0
 40 44  1  0  0  0  0
 40 39  1  0  0  0  0
 41 45  1  0  0  0  0
 42 41  1  0  0  0  0
M  END
>  <minimizedAffinity>
-7.03997898

$$$$

 OpenBabel03242511033D

 45 47  0  0  0  0  0  0  0  0999 V2000
   36.5060   27.1580   40.2410 C   0  0  0  0  0  3  0  0  0  0  0  0
   36.4580   27.5390   38.9930 C   0  0  0  0  0  3  0  0  0  0  0  0
   38.4330   29.9170   41.7230 C   0  0  0  0  0  0  0  0  0  0  0  0
   38.3490   29.5550   43.0680 C   0  0  0  0  0  0  0  0  0  0  0  0
   37.6830   28.4360   43.5170 C   0  0  0  0  0  0  0  0  0  0  0  0
   37.0760   27.6480   42.5790 C   0  0  0  0  0  0  0  0  0  0  0  0
   37.1530   27.9980   41.2390 C   0  0  0  0  0  0  0  0  0  0  0  0
   37.8130   29.0940   40.8690 N   0  0  0  0  0  0  0  0  0  0  0  0
   38.8420   30.2050   43.7770 H   0  0  0  0  0  0  0  0  0  0  0  0
   37.6820   28.2520   44.5770 H   0  0  0  0  0  0  0  0  0  0  0  0
   36.5560   26.7710   42.9430 H   0  0  0  0  0  0  0  0  0  0  0  0
   39.1520   35.6800   40.0750 C   0  0  0  0  0  0  0  0  0  0  0  0
   40.5480   35.6400   39.8660 C   0  0  0  0  0  0  0  0  0  0  0  0
   41.1920   34.4170   40.0210 C   0  0  0  0  0  0  0  0  0  0  0  0
   40.4730   33.3070   40.3640 N   0  0  0  0  0  0  0  0  0  0  0  0
   39.1310   33.4020   40.5530 C   0  0  0  0  0  0  0  0  0  0  0  0
   38.4730   34.5880   40.4080 N   0  0  0  0  0  0  0  0  0  0  0  0
   39.1610   31.1200   41.3520 C   0  0  0  0  0  0  0  0  0  0  0  0
   40.4210   31.0960   41.4450 O   0  0  0  0  0  0  0  0  0  0  0  0
   38.3960   32.2370   40.9100 N   0  0  0  0  0  0  0  0  0  0  0  0
   38.7160   36.6590   39.9390 H   0  0  0  0  0  0  0  0  0  0  0  0
   41.1840   36.4580   39.5970 H   0  0  0  0  0  0  0  0  0  0  0  0
   42.2300   34.2100   39.9020 H   0  0  0  0  0  0  0  0  0  0  0  0
   37.3510   32.2360   40.8400 H   0  0  0  0  0  0  0  0  0  0  0  0
   35.8310   26.7960   37.8540 C   0  0  0  0  0  0  0  0  0  0  0  0
   36.6600   26.2340   37.4140 H   0  0  0  0  0  0  0  0  0  0  0  0
   35.1270   26.0270   38.2440 H   0  0  0  0  0  0  0  0  0  0  0  0
   37.6410   27.5290   35.6450 Cl  0  0  0  0  0  0  0  0  0  0  0  0
   35.9910   28.1170   35.8350 C   0  0  0  0  0  0  0  0  0  0  0  0
   35.1960   27.7330   36.8890 C   0  0  0  0  0  0  0  0  0  0  0  0
   33.9040   28.1930   37.0310 C   0  0  0  0  0  0  0  0  0  0  0  0
   33.4020   29.0790   36.0610 C   0  0  0  0  0  0  0  0  0  0  0  0
   34.2030   29.4530   35.0170 C   0  0  0  0  0  0  0  0  0  0  0  0
   35.4990   28.9950   34.8700 C   0  0  0  0  0  0  0  0  0  0  0  0
   33.3700   27.8300   37.8940 H   0  0  0  0  0  0  0  0  0  0  0  0
   32.3780   29.4180   36.2120 H   0  0  0  0  0  0  0  0  0  0  0  0
   33.7400   30.1290   34.3180 H   0  0  0  0  0  0  0  0  0  0  0  0
   36.9390   31.4830   34.4320 N   0  0  0  0  0  0  0  0  0  0  0  0
   36.6210   30.7110   33.4450 C   0  0  0  0  0  0  0  0  0  0  0  0
   36.3170   29.3800   33.7830 N   0  0  0  0  0  0  0  0  0  0  0  0
   36.5630   31.1220   32.0630 N   0  0  0  0  0  0  0  0  0  0  0  0
   37.5160   30.7500   31.8080 H   0  0  0  0  0  0  0  0  0  0  0  0
   37.1630   32.4640   34.1880 H   0  0  0  0  0  0  0  0  0  0  0  0
   36.7320   28.6130   33.1710 H   0  0  0  0  0  0  0  0  0  0  0  0
   37.0960   31.1200   31.1740 H   0  0  0  0  0  0  0  0  0  0  0  0
  1  7  1  0  0  0  0
  2  1  2  0  0  0  0
  3  4  1  0  0  0  0
  4  5  2  0  0  0  0
  4  9  1  0  0  0  0
  5 10  1  0  0  0  0
  6 11  1  0  0  0  0
  6  5  1  0  0  0  0
  7  6  2  0  0  0  0
  8  7  1  0  0  0  0
  8  3  2  0  0  0  0
 12 17  1  0  0  0  0
 13 14  1  0  0  0  0
 13 12  2  0  0  0  0
 14 15  2  0  0  0  0
 15 16  1  0  0  0  0
 16 20  1  0  0  0  0
 17 16  2  0  0  0  0
 18 19  2  0  0  0  0
 18  3  1  0  0  0  0
 20 18  1  0  0  0  0
 21 12  1  0  0  0  0
 22 13  1  0  0  0  0
 23 14  1  0  0  0  0
 24 20  1  0  0  0  0
 25 27  1  0  0  0  0
 25  2  1  0  0  0  0
 26 25  1  0  0  0  0
 28 29  1  0  0  0  0
 29 30  1  0  0  0  0
 30 31  2  0  0  0  0
 30 25  1  0  0  0  0
 31 35  1  0  0  0  0
 32 36  1  0  0  0  0
 32 31  1  0  0  0  0
 33 32  2  0  0  0  0
 34 33  1  0  0  0  0
 34 29  2  0  0  0  0
 37 33  1  0  0  0  0
 39 40  1  0  0  0  0
 39 38  2  0  0  0  0
 40 34  1  0  0  0  0
 41 39  1  0  0  0  0
 42 41  1  0  0  0  0
 43 38  1  0  0  0  0
 44 40  1  0  0  0  0
 45 41  1  0  0  0  0
M  END
>  <minimizedAffinity>
-6.90869713

$$$$

 OpenBabel03242511033D

 45 47  0  0  0  0  0  0  0  0999 V2000
   36.9870   30.6980   41.0790 C   0  0  0  0  0  3  0  0  0  0  0  0
   37.8440   31.2930   40.2930 C   0  0  0  0  0  3  0  0  0  0  0  0
   37.3280   27.0570   41.4590 C   0  0  0  0  0  0  0  0  0  0  0  0
   37.8920   27.0140   42.7340 C   0  0  0  0  0  0  0  0  0  0  0  0
   38.1690   28.1360   43.4840 C   0  0  0  0  0  0  0  0  0  0  0  0
   37.8680   29.3500   42.9330 C   0  0  0  0  0  0  0  0  0  0  0  0
   37.3070   29.4050   41.6660 C   0  0  0  0  0  0  0  0  0  0  0  0
   37.0630   28.2830   40.9910 N   0  0  0  0  0  0  0  0  0  0  0  0
   38.1140   26.0340   43.1330 H   0  0  0  0  0  0  0  0  0  0  0  0
   38.6040   27.9860   44.4570 H   0  0  0  0  0  0  0  0  0  0  0  0
   38.0900   30.2240   43.5310 H   0  0  0  0  0  0  0  0  0  0  0  0
   35.4690   23.5430   36.9150 C   0  0  0  0  0  0  0  0  0  0  0  0
   35.6590   22.2980   37.5540 C   0  0  0  0  0  0  0  0  0  0  0  0
   36.0880   22.3070   38.8770 C   0  0  0  0  0  0  0  0  0  0  0  0
   36.3100   23.4960   39.5140 N   0  0  0  0  0  0  0  0  0  0  0  0
   36.1110   24.6650   38.8520 C   0  0  0  0  0  0  0  0  0  0  0  0
   35.6900   24.6860   37.5540 N   0  0  0  0  0  0  0  0  0  0  0  0
   37.0740   25.8130   40.7480 C   0  0  0  0  0  0  0  0  0  0  0  0
   37.5150   24.7450   41.2600 O   0  0  0  0  0  0  0  0  0  0  0  0
   36.3450   25.8940   39.5280 N   0  0  0  0  0  0  0  0  0  0  0  0
   35.1350   23.4640   35.8910 H   0  0  0  0  0  0  0  0  0  0  0  0
   35.5100   21.3260   37.1320 H   0  0  0  0  0  0  0  0  0  0  0  0
   36.2800   21.4670   39.5040 H   0  0  0  0  0  0  0  0  0  0  0  0
   35.9890   26.7920   39.1220 H   0  0  0  0  0  0  0  0  0  0  0  0
   37.6670   32.6180   39.6180 C   0  0  0  0  0  0  0  0  0  0  0  0
   37.5010   32.3620   38.5670 H   0  0  0  0  0  0  0  0  0  0  0  0
   36.7220   33.0960   39.9590 H   0  0  0  0  0  0  0  0  0  0  0  0
   40.0800   31.5010   38.3430 Cl  0  0  0  0  0  0  0  0  0  0  0  0
   40.0240   33.0140   39.2460 C   0  0  0  0  0  0  0  0  0  0  0  0
   38.8630   33.4810   39.8150 C   0  0  0  0  0  0  0  0  0  0  0  0
   38.8240   34.6670   40.5170 C   0  0  0  0  0  0  0  0  0  0  0  0
   40.0130   35.4060   40.6450 C   0  0  0  0  0  0  0  0  0  0  0  0
   41.1620   34.9300   40.0730 C   0  0  0  0  0  0  0  0  0  0  0  0
   41.2070   33.7420   39.3690 C   0  0  0  0  0  0  0  0  0  0  0  0
   37.8630   34.9400   40.9220 H   0  0  0  0  0  0  0  0  0  0  0  0
   39.9370   36.3360   41.2070 H   0  0  0  0  0  0  0  0  0  0  0  0
   42.0240   35.5580   40.2150 H   0  0  0  0  0  0  0  0  0  0  0  0
   42.5280   34.5980   36.9240 N   0  0  0  0  0  0  0  0  0  0  0  0
   42.7330   33.4200   37.4190 C   0  0  0  0  0  0  0  0  0  0  0  0
   42.3970   33.2610   38.7750 N   0  0  0  0  0  0  0  0  0  0  0  0
   43.2690   32.3000   36.6850 N   0  0  0  0  0  0  0  0  0  0  0  0
   44.2580   32.4170   37.0320 H   0  0  0  0  0  0  0  0  0  0  0  0
   42.7750   34.7190   35.9260 H   0  0  0  0  0  0  0  0  0  0  0  0
   43.0880   32.7360   39.3920 H   0  0  0  0  0  0  0  0  0  0  0  0
   44.1410   31.7710   36.4990 H   0  0  0  0  0  0  0  0  0  0  0  0
  1  7  1  0  0  0  0
  2  1  2  0  0  0  0
  3  4  1  0  0  0  0
  4  9  1  0  0  0  0
  4  5  2  0  0  0  0
  5 10  1  0  0  0  0
  6  5  1  0  0  0  0
  6 11  1  0  0  0  0
  7  6  2  0  0  0  0
  8  3  2  0  0  0  0
  8  7  1  0  0  0  0
 12 13  2  0  0  0  0
 12 17  1  0  0  0  0
 13 14  1  0  0  0  0
 14 23  1  0  0  0  0
 14 15  2  0  0  0  0
 16 15  1  0  0  0  0
 16 20  1  0  0  0  0
 17 16  2  0  0  0  0
 18 19  2  0  0  0  0
 18  3  1  0  0  0  0
 20 18  1  0  0  0  0
 21 12  1  0  0  0  0
 22 13  1  0  0  0  0
 24 20  1  0  0  0  0
 25 30  1  0  0  0  0
 25 27  1  0  0  0  0
 25  2  1  0  0  0  0
 26 25  1  0  0  0  0
 28 29  1  0  0  0  0
 29 34  2  0  0  0  0
 29 30  1  0  0  0  0
 30 31  2  0  0  0  0
 31 32  1  0  0  0  0
 31 35  1  0  0  0  0
 32 36  1  0  0  0  0
 33 37  1  0  0  0  0
 33 32  2  0  0  0  0
 34 33  1  0  0  0  0
 38 39  2  0  0  0  0
 39 40  1  0  0  0  0
 40 34  1  0  0  0  0
 40 44  1  0  0  0  0
 41 42  1  0  0  0  0
 41 39  1  0  0  0  0
 43 38  1  0  0  0  0
 45 41  1  0  0  0  0
M  END
>  <minimizedAffinity>
-6.89135551

$$$$
