
 OpenBabel03252508253D

 40 43  0  0  1  0  0  0  0  0999 V2000
   46.4540   32.5140   45.9190 C   0  0  1  0  0  0  0  0  0  0  0  0
   46.9890   32.6930   47.2750 C   0  0  0  0  0  0  0  0  0  0  0  0
   45.5660   32.0730   46.9790 C   0  0  2  0  0  0  0  0  0  0  0  0
   47.2280   31.8650   45.3790 H   0  0  0  0  0  0  0  0  0  0  0  0
   47.0270   33.6840   47.7570 H   0  0  0  0  0  0  0  0  0  0  0  0
   47.6000   31.9480   47.8040 H   0  0  0  0  0  0  0  0  0  0  0  0
   44.9130   32.7720   47.5780 H   0  0  0  0  0  0  0  0  0  0  0  0
   45.2950   30.6760   47.3320 C   0  0  0  0  0  0  0  0  0  0  0  0
   45.1620   30.1470   48.5780 C   0  0  0  0  0  0  0  0  0  0  0  0
   45.0260   28.8040   48.8800 C   0  0  0  0  0  0  0  0  0  0  0  0
   45.0270   27.9170   47.7910 C   0  0  0  0  0  0  0  0  0  0  0  0
   45.1610   28.4310   46.5010 C   0  0  0  0  0  0  0  0  0  0  0  0
   45.0950   27.5270   45.4580 C   0  0  0  0  0  0  0  0  0  0  0  0
   45.1530   27.9970   44.1530 C   0  0  0  0  0  0  0  0  0  0  0  0
   45.2700   29.3480   43.8980 C   0  0  0  0  0  0  0  0  0  0  0  0
   45.3330   30.2040   44.9730 C   0  0  0  0  0  0  0  0  0  0  0  0
   45.2880   29.7840   46.2890 C   0  0  0  0  0  0  0  0  0  0  0  0
   45.1660   30.8760   49.3890 H   0  0  0  0  0  0  0  0  0  0  0  0
   44.9240   28.4710   49.8970 H   0  0  0  0  0  0  0  0  0  0  0  0
   44.9280   26.8570   47.9740 H   0  0  0  0  0  0  0  0  0  0  0  0
   45.0010   26.4630   45.6880 H   0  0  0  0  0  0  0  0  0  0  0  0
   45.0950   27.1910   43.4070 H   0  0  0  0  0  0  0  0  0  0  0  0
   45.2950   29.5130   42.8420 H   0  0  0  0  0  0  0  0  0  0  0  0
   45.3330   31.1590   44.5320 H   0  0  0  0  0  0  0  0  0  0  0  0
   44.6790   35.5310   44.7480 C   0  0  0  0  0  0  0  0  0  0  0  0
   45.3280   35.7970   43.4890 C   0  0  0  0  0  0  0  0  0  0  0  0
   46.3700   34.9230   43.0980 C   0  0  0  0  0  0  0  0  0  0  0  0
   46.7000   33.9110   43.8960 N   0  0  0  0  0  0  0  0  0  0  0  0
   46.0620   33.6880   45.0850 C   0  0  0  0  0  0  0  0  0  0  0  0
   45.0770   34.4810   45.4950 N   0  0  0  0  0  0  0  0  0  0  0  0
   43.8860   36.2190   45.0180 H   0  0  0  0  0  0  0  0  0  0  0  0
   45.0120   36.6130   42.9030 H   0  0  0  0  0  0  0  0  0  0  0  0
   46.6410   33.1420   40.8500 N   0  0  0  0  0  0  0  0  0  0  0  0
   47.5380   34.0810   41.0400 C   0  0  0  0  0  0  0  0  0  0  0  0
   47.0670   35.1130   41.8760 N   0  0  0  0  0  0  0  0  0  0  0  0
   48.8750   34.1670   40.5120 N   0  0  0  0  0  0  0  0  0  0  0  0
   49.3650   34.3570   39.5990 H   0  0  0  0  0  0  0  0  0  0  0  0
   46.9260   32.3500   40.2400 H   0  0  0  0  0  0  0  0  0  0  0  0
   47.2560   36.1180   41.5750 H   0  0  0  0  0  0  0  0  0  0  0  0
   49.7420   34.0150   41.1080 H   0  0  0  0  0  0  0  0  0  0  0  0
  1  4  1  6  0  0  0
  1  3  1  0  0  0  0
  1  2  1  0  0  0  0
  2  5  1  0  0  0  0
  2  6  1  0  0  0  0
  3  2  1  0  0  0  0
  3  8  1  0  0  0  0
  3  7  1  1  0  0  0
  8  9  1  0  0  0  0
  9 10  2  0  0  0  0
  9 18  1  0  0  0  0
 10 19  1  0  0  0  0
 11 20  1  0  0  0  0
 11 10  1  0  0  0  0
 12 11  2  0  0  0  0
 13 21  1  0  0  0  0
 13 12  1  0  0  0  0
 14 13  2  0  0  0  0
 15 14  1  0  0  0  0
 15 16  2  0  0  0  0
 16 17  1  0  0  0  0
 17 12  1  0  0  0  0
 17  8  2  0  0  0  0
 22 14  1  0  0  0  0
 23 15  1  0  0  0  0
 24 16  1  0  0  0  0
 25 31  1  0  0  0  0
 25 30  1  0  0  0  0
 26 25  2  0  0  0  0
 27 26  1  0  0  0  0
 27 28  2  0  0  0  0
 28 29  1  0  0  0  0
 29 30  2  0  0  0  0
 29  1  1  0  0  0  0
 32 26  1  0  0  0  0
 33 34  2  0  0  0  0
 34 35  1  0  0  0  0
 35 27  1  0  0  0  0
 36 34  1  0  0  0  0
 36 40  1  0  0  0  0
 37 36  1  0  0  0  0
 38 33  1  0  0  0  0
 39 35  1  0  0  0  0
M  END
>  <minimizedAffinity>
-5.33816051

>  <minimizedRMSD>
0.368359596

$$$$
