
 OpenBabel03252500573D

 39 41  0  0  0  0  0  0  0  0999 V2000
   43.8400   33.5730   38.0750 O   0  0  0  0  0  0  0  0  0  0  0  0
   43.7520   33.5700   39.5950 P   0  0  1  0  0  0  0  0  0  0  0  0
   43.2980   32.0110   40.1050 O   0  0  0  0  0  0  0  0  0  0  0  0
   43.4380   31.9520   41.0720 H   0  0  0  0  0  0  0  0  0  0  0  0
   45.2870   33.8920   40.2550 O   0  0  0  0  0  0  0  0  0  0  0  0
   46.9110   34.3040   41.9060 C   0  0  0  0  0  0  0  0  0  0  0  0
   45.6260   33.9120   41.6010 C   0  0  0  0  0  0  0  0  0  0  0  0
   44.7680   33.5690   42.6530 C   0  0  0  0  0  0  0  0  0  0  0  0
   45.2550   33.6440   43.9050 N   0  0  0  0  0  0  0  0  0  0  0  0
   46.5050   34.0250   44.1850 C   0  0  0  0  0  0  0  0  0  0  0  0
   47.3240   34.3530   43.1820 N   0  0  0  0  0  0  0  0  0  0  0  0
   43.7830   33.2720   42.3920 H   0  0  0  0  0  0  0  0  0  0  0  0
   46.9150   34.0920   45.1890 H   0  0  0  0  0  0  0  0  0  0  0  0
   47.8550   34.6750   40.8500 C   0  0  0  0  0  0  0  0  0  0  0  0
   47.3160   35.1630   40.0100 H   0  0  0  0  0  0  0  0  0  0  0  0
   48.3830   33.7890   40.4440 H   0  0  0  0  0  0  0  0  0  0  0  0
   48.8650   35.6350   41.4160 C   0  0  0  0  0  0  0  0  0  0  0  0
   49.5880   35.0920   42.0240 H   0  0  0  0  0  0  0  0  0  0  0  0
   48.3170   36.4020   42.0010 H   0  0  0  0  0  0  0  0  0  0  0  0
   49.4050   36.1010   40.5560 H   0  0  0  0  0  0  0  0  0  0  0  0
   42.5640   34.6470   40.1340 O   0  0  0  0  0  0  0  0  0  0  0  0
   41.2460   34.2170   40.1450 C   0  0  0  0  0  0  0  0  0  0  0  0
   40.2540   35.1330   39.8440 C   0  0  0  0  0  0  0  0  0  0  0  0
   38.9090   34.7860   39.8310 C   0  0  0  0  0  0  0  0  0  0  0  0
   38.5760   33.4910   40.1270 N   0  0  0  0  0  0  0  0  0  0  0  0
   39.5400   32.6180   40.4140 C   0  0  0  0  0  0  0  0  0  0  0  0
   40.8270   32.9590   40.4250 N   0  0  0  0  0  0  0  0  0  0  0  0
   40.5350   36.1370   39.6150 H   0  0  0  0  0  0  0  0  0  0  0  0
   38.1550   35.5400   39.5880 H   0  0  0  0  0  0  0  0  0  0  0  0
   39.1210   31.2900   40.7130 N   0  0  0  0  0  0  0  0  0  0  0  0
   38.4170   30.5710   39.8020 C   0  0  0  0  0  3  0  0  0  0  0  0
   38.0610   29.2960   40.1920 C   0  0  0  0  0  3  0  0  0  0  0  0
   38.3640   28.7190   41.4090 C   0  0  0  0  0  0  0  0  0  0  0  0
   37.9660   27.3980   41.7470 N   0  0  0  0  0  0  0  0  0  0  0  0
   39.0660   29.5070   42.2470 N   0  0  0  0  0  0  0  0  0  0  0  0
   39.4370   30.7670   41.9060 C   0  0  0  0  0  0  0  0  0  0  0  0
   40.0900   31.4400   42.7410 O   0  0  0  0  0  0  0  0  0  0  0  0
   37.3860   26.8830   41.0550 H   0  0  0  0  0  0  0  0  0  0  0  0
   38.2860   27.0320   42.6740 H   0  0  0  0  0  0  0  0  0  0  0  0
  2  1  2  6  0  0  0
  2  3  1  0  0  0  0
  2 21  1  0  0  0  0
  2  5  1  0  0  0  0
  3  4  1  0  0  0  0
  5  7  1  0  0  0  0
  6 11  1  0  0  0  0
  7  6  2  0  0  0  0
  7  8  1  0  0  0  0
  8  9  2  0  0  0  0
  9 10  1  0  0  0  0
 10 13  1  0  0  0  0
 11 10  2  0  0  0  0
 12  8  1  0  0  0  0
 14 17  1  0  0  0  0
 14  6  1  0  0  0  0
 15 14  1  0  0  0  0
 16 14  1  0  0  0  0
 17 19  1  0  0  0  0
 17 18  1  0  0  0  0
 20 17  1  0  0  0  0
 21 22  1  0  0  0  0
 22 27  1  0  0  0  0
 23 22  2  0  0  0  0
 24 23  1  0  0  0  0
 24 25  2  0  0  0  0
 25 26  1  0  0  0  0
 26 27  2  0  0  0  0
 26 30  1  0  0  0  0
 28 23  1  0  0  0  0
 29 24  1  0  0  0  0
 30 36  1  0  0  0  0
 31 32  2  0  0  0  0
 31 30  1  0  0  0  0
 32 33  1  0  0  0  0
 33 34  1  0  0  0  0
 33 35  2  0  0  0  0
 34 39  1  0  0  0  0
 36 35  1  0  0  0  0
 36 37  2  0  0  0  0
 38 34  1  0  0  0  0
M  END
>  <minimizedAffinity>
-5.99676609

>  <minimizedRMSD>
1.70872819

$$$$
