
 OpenBabel03242511083D

 44 48  0  0  1  0  0  0  0  0999 V2000
   47.2920   32.8250   44.1680 C   0  0  0  0  0  0  0  0  0  0  0  0
   47.2760   31.9430   45.2400 C   0  0  0  0  0  0  0  0  0  0  0  0
   46.4360   32.0930   46.3420 C   0  0  0  0  0  0  0  0  0  0  0  0
   45.5670   33.1620   46.3950 C   0  0  0  0  0  0  0  0  0  0  0  0
   45.5520   34.0440   45.3690 C   0  0  0  0  0  0  0  0  0  0  0  0
   44.6910   35.1210   45.3890 C   0  0  0  0  0  0  0  0  0  0  0  0
   44.6210   36.0470   44.3820 C   0  0  0  0  0  0  0  0  0  0  0  0
   45.4770   35.8590   43.3020 C   0  0  0  0  0  0  0  0  0  0  0  0
   46.3430   34.7730   43.2840 C   0  0  0  0  0  0  0  0  0  0  0  0
   46.4030   33.8580   44.2920 C   0  0  0  0  0  0  0  0  0  0  0  0
   47.9110   31.0710   45.3020 H   0  0  0  0  0  0  0  0  0  0  0  0
   46.4380   31.3970   47.1680 H   0  0  0  0  0  0  0  0  0  0  0  0
   44.9140   33.2800   47.2510 H   0  0  0  0  0  0  0  0  0  0  0  0
   44.0510   35.2150   46.2530 H   0  0  0  0  0  0  0  0  0  0  0  0
   43.9030   36.8550   44.5070 H   0  0  0  0  0  0  0  0  0  0  0  0
   45.3480   36.6430   42.5560 H   0  0  0  0  0  0  0  0  0  0  0  0
   47.0790   34.8390   42.0780 N   0  0  0  0  0  0  0  0  0  0  0  0
   48.2440   35.3580   41.6560 C   0  0  0  0  0  0  0  0  0  0  0  0
   48.7130   35.2040   40.3760 C   0  0  0  0  0  0  0  0  0  0  0  0
   48.0050   34.4940   39.4320 C   0  0  0  0  0  0  0  0  0  0  0  0
   48.6100   34.4180   38.1540 N   0  0  0  0  0  0  0  0  0  0  0  0
   46.8230   33.9480   39.8000 N   0  0  0  0  0  0  0  0  0  0  0  0
   46.4210   34.1430   41.0910 C   0  0  0  0  0  0  0  0  0  0  0  0
   45.2930   33.5480   41.2230 O   0  0  0  0  0  0  0  0  0  0  0  0
   49.6030   34.0850   38.1430 H   0  0  0  0  0  0  0  0  0  0  0  0
   47.8940   34.7270   37.4640 H   0  0  0  0  0  0  0  0  0  0  0  0
   48.1760   32.5800   43.1100 N   0  0  0  0  0  0  0  0  0  0  0  0
   47.8680   33.4200   42.5920 H   0  0  0  0  0  0  0  0  0  0  0  0
   50.0480   31.2370   42.0570 C   0  0  1  0  0  0  0  0  0  0  0  0
   48.7910   30.3940   41.9950 C   0  0  0  0  0  0  0  0  0  0  0  0
   49.0360   31.4300   43.0840 C   0  0  2  0  0  0  0  0  0  0  0  0
   50.1360   31.8390   41.1180 H   0  0  0  0  0  0  0  0  0  0  0  0
   48.9540   29.3380   42.3350 H   0  0  0  0  0  0  0  0  0  0  0  0
   47.9850   30.6150   41.2990 H   0  0  0  0  0  0  0  0  0  0  0  0
   49.3150   31.0850   44.1080 H   0  0  0  0  0  0  0  0  0  0  0  0
   53.3700   29.6620   41.6200 C   0  0  0  0  0  0  0  0  0  0  0  0
   53.6780   29.2640   42.9580 C   0  0  0  0  0  0  0  0  0  0  0  0
   52.7360   29.5590   43.9760 C   0  0  0  0  0  0  0  0  0  0  0  0
   51.6070   30.1950   43.6500 N   0  0  0  0  0  0  0  0  0  0  0  0
   51.3430   30.5590   42.3700 C   0  0  0  0  0  0  0  0  0  0  0  0
   52.2240   30.2950   41.3500 N   0  0  0  0  0  0  0  0  0  0  0  0
   54.0920   29.4340   40.8470 H   0  0  0  0  0  0  0  0  0  0  0  0
   54.6120   28.7580   43.1190 H   0  0  0  0  0  0  0  0  0  0  0  0
   52.9840   29.2530   44.9740 H   0  0  0  0  0  0  0  0  0  0  0  0
  1 10  2  0  0  0  0
  1  2  1  0  0  0  0
  2 11  1  0  0  0  0
  2  3  2  0  0  0  0
  3  4  1  0  0  0  0
  3 12  1  0  0  0  0
  4 13  1  0  0  0  0
  5  6  1  0  0  0  0
  5  4  2  0  0  0  0
  6 14  1  0  0  0  0
  7 15  1  0  0  0  0
  7  6  2  0  0  0  0
  8  7  1  0  0  0  0
  9  8  2  0  0  0  0
  9 10  1  0  0  0  0
 10  5  1  0  0  0  0
 16  8  1  0  0  0  0
 17  9  1  0  0  0  0
 18 17  1  0  0  0  0
 19 18  2  0  0  0  0
 20 22  2  0  0  0  0
 20 19  1  0  0  0  0
 21 20  1  0  0  0  0
 22 23  1  0  0  0  0
 23 24  2  0  0  0  0
 23 17  1  0  0  0  0
 25 21  1  0  0  0  0
 26 21  1  0  0  0  0
 27  1  1  0  0  0  0
 28 27  1  0  0  0  0
 29 32  1  6  0  0  0
 29 40  1  0  0  0  0
 29 31  1  0  0  0  0
 30 29  1  0  0  0  0
 30 33  1  0  0  0  0
 30 31  1  0  0  0  0
 31 27  1  0  0  0  0
 31 35  1  1  0  0  0
 34 30  1  0  0  0  0
 36 37  1  0  0  0  0
 37 43  1  0  0  0  0
 37 38  2  0  0  0  0
 38 44  1  0  0  0  0
 39 38  1  0  0  0  0
 40 39  2  0  0  0  0
 41 36  2  0  0  0  0
 41 40  1  0  0  0  0
 42 36  1  0  0  0  0
M  END
>  <minimizedAffinity>
-6.36177826

>  <minimizedRMSD>
2.59290838

$$$$
