
 OpenBabel03242510123D

 43 46  0  0  1  0  0  0  0  0999 V2000
   46.9900   32.9690   38.8080 N   0  0  0  0  0  0  0  0  0  0  0  0
   46.1300   33.2290   37.6730 C   0  0  0  0  0  0  0  0  0  0  0  0
   45.3950   31.9790   37.2380 C   0  0  0  0  0  0  0  0  0  0  0  0
   46.3050   30.9500   36.7630 N   0  0  0  0  0  0  0  0  0  0  0  0
   47.6460   31.2790   37.2660 C   0  0  0  0  0  0  0  0  0  0  0  0
   47.5340   31.6190   38.7340 C   0  0  1  0  0  0  0  0  0  0  0  0
   45.3250   33.9080   38.0680 H   0  0  0  0  0  0  0  0  0  0  0  0
   46.6150   33.7070   36.8230 H   0  0  0  0  0  0  0  0  0  0  0  0
   44.8770   31.5390   38.1380 H   0  0  0  0  0  0  0  0  0  0  0  0
   44.6810   32.2630   36.4650 H   0  0  0  0  0  0  0  0  0  0  0  0
   46.3860   30.9890   35.7170 H   0  0  0  0  0  0  0  0  0  0  0  0
   48.3810   30.4980   37.0760 H   0  0  0  0  0  0  0  0  0  0  0  0
   47.9470   32.1680   36.6700 H   0  0  0  0  0  0  0  0  0  0  0  0
   46.7050   30.9650   39.1230 H   0  0  0  0  0  0  0  0  0  0  0  0
   45.1090   32.7920   41.2980 Br  0  0  0  0  0  0  0  0  0  0  0  0
   46.6240   33.9120   41.0590 C   0  0  0  0  0  0  0  0  0  0  0  0
   47.0150   34.7850   42.0540 C   0  0  0  0  0  0  0  0  0  0  0  0
   48.1270   35.6180   41.8990 C   0  0  0  0  0  0  0  0  0  0  0  0
   48.8310   35.5480   40.7210 C   0  0  0  0  0  0  0  0  0  0  0  0
   48.4090   34.6610   39.7500 C   0  0  0  0  0  0  0  0  0  0  0  0
   47.3220   33.8400   39.8880 C   0  0  0  0  0  0  0  0  0  0  0  0
   48.3930   36.2870   42.7080 H   0  0  0  0  0  0  0  0  0  0  0  0
   49.6890   36.1880   40.5970 H   0  0  0  0  0  0  0  0  0  0  0  0
   49.0220   34.6750   38.8560 H   0  0  0  0  0  0  0  0  0  0  0  0
   45.7600   33.9500   45.3870 C   0  0  0  0  0  0  0  0  0  0  0  0
   44.7530   34.9100   45.6210 C   0  0  0  0  0  0  0  0  0  0  0  0
   44.5300   35.8360   44.6070 C   0  0  0  0  0  0  0  0  0  0  0  0
   45.2660   35.7750   43.4770 N   0  0  0  0  0  0  0  0  0  0  0  0
   46.2390   34.8240   43.2840 C   0  0  0  0  0  0  0  0  0  0  0  0
   46.4580   33.9260   44.2620 N   0  0  0  0  0  0  0  0  0  0  0  0
   45.9370   33.2180   46.1880 H   0  0  0  0  0  0  0  0  0  0  0  0
   44.1750   34.9530   46.5150 H   0  0  0  0  0  0  0  0  0  0  0  0
   43.7730   36.6180   44.6930 H   0  0  0  0  0  0  0  0  0  0  0  0
   48.7550   31.4500   39.4740 N   0  0  0  0  0  0  0  0  0  0  0  0
   48.6260   30.9760   40.7270 C   0  0  0  0  0  0  0  0  0  0  0  0
   49.7560   30.7930   41.4840 C   0  0  0  0  0  0  0  0  0  0  0  0
   50.9510   31.1140   40.8930 C   0  0  0  0  0  0  0  0  0  0  0  0
   52.1940   30.9700   41.5710 N   0  0  0  0  0  0  0  0  0  0  0  0
   51.0260   31.5850   39.6360 N   0  0  0  0  0  0  0  0  0  0  0  0
   49.9010   31.7660   38.8850 C   0  0  0  0  0  0  0  0  0  0  0  0
   50.0400   32.2040   37.7300 O   0  0  0  0  0  0  0  0  0  0  0  0
   52.5440   30.0790   41.1900 H   0  0  0  0  0  0  0  0  0  0  0  0
   52.8930   31.3310   42.2490 H   0  0  0  0  0  0  0  0  0  0  0  0
  1 21  1  0  0  0  0
  2  7  1  0  0  0  0
  2  1  1  0  0  0  0
  3  2  1  0  0  0  0
  3  9  1  0  0  0  0
  4  3  1  0  0  0  0
  4  5  1  0  0  0  0
  5  6  1  0  0  0  0
  6  1  1  0  0  0  0
  6 14  1  1  0  0  0
  6 34  1  0  0  0  0
  8  2  1  0  0  0  0
 10  3  1  0  0  0  0
 11  4  1  0  0  0  0
 12  5  1  0  0  0  0
 13  5  1  0  0  0  0
 16 15  1  0  0  0  0
 16 17  1  0  0  0  0
 17 29  1  0  0  0  0
 18 17  2  0  0  0  0
 18 22  1  0  0  0  0
 19 18  1  0  0  0  0
 20 21  1  0  0  0  0
 20 19  2  0  0  0  0
 21 16  2  0  0  0  0
 23 19  1  0  0  0  0
 24 20  1  0  0  0  0
 25 26  1  0  0  0  0
 25 31  1  0  0  0  0
 26 32  1  0  0  0  0
 27 33  1  0  0  0  0
 27 26  2  0  0  0  0
 28 27  1  0  0  0  0
 29 28  2  0  0  0  0
 29 30  1  0  0  0  0
 30 25  2  0  0  0  0
 34 35  1  0  0  0  0
 35 36  2  0  0  0  0
 37 36  1  0  0  0  0
 37 38  1  0  0  0  0
 38 43  1  0  0  0  0
 39 37  2  0  0  0  0
 40 34  1  0  0  0  0
 40 39  1  0  0  0  0
 41 40  2  0  0  0  0
 42 38  1  0  0  0  0
M  END
>  <minimizedAffinity>
-6.21480465

>  <minimizedRMSD>
0.749535441

$$$$
