
 OpenBabel03242510193D

 37 40  0  0  1  0  0  0  0  0999 V2000
   47.9070   32.3560   43.5060 N   0  0  0  0  0  0  0  0  0  0  0  0
   48.9890   32.0540   42.6990 C   0  0  0  0  0  0  0  0  0  0  0  0
   49.9780   31.3000   42.9080 O   0  0  0  0  0  0  0  0  0  0  0  0
   47.6340   33.3690   43.5670 H   0  0  0  0  0  0  0  0  0  0  0  0
   45.7690   31.7350   44.5940 C   0  0  1  0  0  0  0  0  0  0  0  0
   45.9270   30.8400   43.5080 C   0  0  0  0  0  0  0  0  0  0  0  0
   47.1720   31.3730   44.2370 C   0  0  1  0  0  0  0  0  0  0  0  0
   45.4500   31.3890   45.6040 H   0  0  0  0  0  0  0  0  0  0  0  0
   45.6450   29.7650   43.6470 H   0  0  0  0  0  0  0  0  0  0  0  0
   45.8810   31.1150   42.4390 H   0  0  0  0  0  0  0  0  0  0  0  0
   47.7110   30.5120   44.6630 H   0  0  0  0  0  0  0  0  0  0  0  0
   44.9320   33.5830   42.9860 C   0  0  0  0  0  0  0  0  0  0  0  0
   45.3360   33.1710   44.2810 C   0  0  0  0  0  0  0  0  0  0  0  0
   45.3490   34.1160   45.2770 C   0  0  0  0  0  0  0  0  0  0  0  0
   44.9820   35.3860   44.9860 N   0  0  0  0  0  0  0  0  0  0  0  0
   44.5990   35.7720   43.7520 C   0  0  0  0  0  0  0  0  0  0  0  0
   44.5750   34.8340   42.7160 N   0  0  0  0  0  0  0  0  0  0  0  0
   44.9130   32.8600   42.1960 H   0  0  0  0  0  0  0  0  0  0  0  0
   45.6600   33.7810   46.2570 H   0  0  0  0  0  0  0  0  0  0  0  0
   44.3550   36.8120   43.7520 H   0  0  0  0  0  0  0  0  0  0  0  0
   49.0930   32.6730   41.3120 C   0  0  2  0  0  0  0  0  0  0  0  0
   48.8380   34.2110   41.2180 C   0  0  0  0  0  0  0  0  0  0  0  0
   47.9210   33.1770   40.6100 C   0  0  1  0  0  0  0  0  0  0  0  0
   50.0470   32.4630   40.7630 H   0  0  0  0  0  0  0  0  0  0  0  0
   48.5970   34.7420   42.1310 H   0  0  0  0  0  0  0  0  0  0  0  0
   49.4320   34.7880   40.4880 H   0  0  0  0  0  0  0  0  0  0  0  0
   46.9220   33.3330   40.9670 H   0  0  0  0  0  0  0  0  0  0  0  0
   47.9510   33.0120   39.1490 N   0  0  0  0  0  0  0  0  0  0  0  0
   47.7030   31.8760   38.4830 C   0  0  0  0  0  3  0  0  0  0  0  0
   47.7670   31.8640   37.1000 C   0  0  0  0  0  3  0  0  0  0  0  0
   48.0840   33.0210   36.4090 C   0  0  0  0  0  0  0  0  0  0  0  0
   48.1630   33.0590   34.9750 N   0  0  0  0  0  0  0  0  0  0  0  0
   48.3320   34.1630   37.1150 N   0  0  0  0  0  0  0  0  0  0  0  0
   48.2640   34.1530   38.4790 C   0  0  0  0  0  0  0  0  0  0  0  0
   48.5160   35.2760   39.0040 O   0  0  0  0  0  0  0  0  0  0  0  0
   49.0140   32.8360   34.4150 H   0  0  0  0  0  0  0  0  0  0  0  0
   47.2290   33.3500   34.5600 H   0  0  0  0  0  0  0  0  0  0  0  0
  1  4  1  0  0  0  0
  1  7  1  0  0  0  0
  2  3  2  0  0  0  0
  2  1  1  0  0  0  0
  5  8  1  1  0  0  0
  6  9  1  0  0  0  0
  6  7  1  0  0  0  0
  6  5  1  0  0  0  0
  7  5  1  0  0  0  0
  7 11  1  1  0  0  0
 10  6  1  0  0  0  0
 12 13  1  0  0  0  0
 13  5  1  0  0  0  0
 13 14  2  0  0  0  0
 14 19  1  0  0  0  0
 15 14  1  0  0  0  0
 16 20  1  0  0  0  0
 16 15  2  0  0  0  0
 17 12  2  0  0  0  0
 17 16  1  0  0  0  0
 18 12  1  0  0  0  0
 21 24  1  6  0  0  0
 21  2  1  0  0  0  0
 22 21  1  0  0  0  0
 22 25  1  0  0  0  0
 23 27  1  1  0  0  0
 23 22  1  0  0  0  0
 23 21  1  0  0  0  0
 26 22  1  0  0  0  0
 28 23  1  0  0  0  0
 29 28  1  0  0  0  0
 30 29  2  0  0  0  0
 31 30  1  0  0  0  0
 31 33  2  0  0  0  0
 32 31  1  0  0  0  0
 33 34  1  0  0  0  0
 34 35  2  0  0  0  0
 34 28  1  0  0  0  0
 36 32  1  0  0  0  0
 37 32  1  0  0  0  0
M  END
>  <minimizedAffinity>
-4.52664804

>  <minimizedRMSD>
1.90592313

$$$$
