
 OpenBabel03252506283D

 48 52  0  0  0  0  0  0  0  0999 V2000
   47.0240   29.6960   46.2960 C   0  0  0  0  0  0  0  0  0  0  0  0
   46.0960   29.5120   45.2370 C   0  0  0  0  0  0  0  0  0  0  0  0
   45.7110   30.7260   44.7920 C   0  0  0  0  0  0  0  0  0  0  0  0
   46.3630   31.6260   45.5340 N   0  0  0  0  0  0  0  0  0  0  0  0
   47.1470   31.0180   46.4330 N   0  0  0  0  0  0  0  0  0  0  0  0
   45.7790   28.5300   44.8780 H   0  0  0  0  0  0  0  0  0  0  0  0
   45.0110   30.9350   43.9920 H   0  0  0  0  0  0  0  0  0  0  0  0
   49.2930   27.8920   48.5040 C   0  0  0  0  0  0  0  0  0  0  0  0
   48.8820   26.5750   48.4060 C   0  0  0  0  0  0  0  0  0  0  0  0
   47.8040   26.3110   47.5660 C   0  0  0  0  0  0  0  0  0  0  0  0
   47.2330   27.3500   46.9020 N   0  0  0  0  0  0  0  0  0  0  0  0
   47.6490   28.6050   47.0140 C   0  0  0  0  0  0  0  0  0  0  0  0
   48.6920   28.8720   47.8250 N   0  0  0  0  0  0  0  0  0  0  0  0
   50.1360   28.0300   49.1730 H   0  0  0  0  0  0  0  0  0  0  0  0
   49.2650   25.6990   48.8860 H   0  0  0  0  0  0  0  0  0  0  0  0
   47.1800   25.0480   47.2860 N   0  0  0  0  0  0  0  0  0  0  0  0
   47.5430   24.2140   46.2940 C   0  0  0  0  0  3  0  0  0  0  0  0
   46.8560   23.0120   46.1240 C   0  0  0  0  0  3  0  0  0  0  0  0
   45.8260   22.7400   47.0000 C   0  0  0  0  0  0  0  0  0  0  0  0
   45.1320   21.5060   46.8150 N   0  0  0  0  0  0  0  0  0  0  0  0
   45.4990   23.6040   47.9780 N   0  0  0  0  0  0  0  0  0  0  0  0
   46.1750   24.7790   48.1380 C   0  0  0  0  0  0  0  0  0  0  0  0
   45.8010   25.5270   49.0780 O   0  0  0  0  0  0  0  0  0  0  0  0
   44.2180   21.1280   46.4440 H   0  0  0  0  0  0  0  0  0  0  0  0
   45.7750   20.7480   47.1820 H   0  0  0  0  0  0  0  0  0  0  0  0
   46.2500   33.0700   45.4000 C   0  0  0  0  0  0  0  0  0  0  0  0
   45.2370   33.3530   45.1200 H   0  0  0  0  0  0  0  0  0  0  0  0
   46.5000   33.5710   46.3710 H   0  0  0  0  0  0  0  0  0  0  0  0
   47.2220   33.5750   44.3870 C   0  0  0  0  0  0  0  0  0  0  0  0
   48.1560   32.9850   44.4960 H   0  0  0  0  0  0  0  0  0  0  0  0
   47.5050   34.6270   44.6810 H   0  0  0  0  0  0  0  0  0  0  0  0
   45.5920   34.1090   42.4820 C   0  0  0  0  0  0  0  0  0  0  0  0
   46.7730   33.6240   43.0100 C   0  0  0  0  0  0  0  0  0  0  0  0
   47.6820   33.0970   42.0870 C   0  0  0  0  0  0  0  0  0  0  0  0
   47.4150   33.0660   40.7490 C   0  0  0  0  0  0  0  0  0  0  0  0
   48.0790   32.6340   39.6520 N   0  0  0  0  0  0  0  0  0  0  0  0
   47.3670   32.8350   38.5420 C   0  0  0  0  0  0  0  0  0  0  0  0
   46.1660   33.4290   38.8830 C   0  0  0  0  0  0  0  0  0  0  0  0
   46.2350   33.5540   40.2410 C   0  0  0  0  0  0  0  0  0  0  0  0
   45.3310   34.0750   41.1360 C   0  0  0  0  0  0  0  0  0  0  0  0
   44.9160   34.5080   43.2320 H   0  0  0  0  0  0  0  0  0  0  0  0
   48.6470   32.6830   42.3670 H   0  0  0  0  0  0  0  0  0  0  0  0
   49.0300   32.1980   39.6920 H   0  0  0  0  0  0  0  0  0  0  0  0
   47.7210   32.5570   37.5510 H   0  0  0  0  0  0  0  0  0  0  0  0
   45.4070   33.6970   38.1600 H   0  0  0  0  0  0  0  0  0  0  0  0
   44.0590   34.6070   40.6560 C   0  0  0  0  0  0  0  0  0  0  0  0
   43.5740   35.6730   41.1290 O   0  0  0  0  0  0  0  0  0  0  0  0
   43.4840   34.1120   39.8780 H   0  0  0  0  0  0  0  0  0  0  0  0
  1  5  2  0  0  0  0
  1 12  1  0  0  0  0
  2  1  1  0  0  0  0
  3  2  2  0  0  0  0
  3  4  1  0  0  0  0
  4  5  1  0  0  0  0
  6  2  1  0  0  0  0
  7  3  1  0  0  0  0
  8 14  1  0  0  0  0
  9  8  1  0  0  0  0
  9 15  1  0  0  0  0
 10  9  2  0  0  0  0
 11 12  2  0  0  0  0
 11 10  1  0  0  0  0
 12 13  1  0  0  0  0
 13  8  2  0  0  0  0
 16 10  1  0  0  0  0
 16 22  1  0  0  0  0
 17 16  1  0  0  0  0
 18 17  2  0  0  0  0
 18 19  1  0  0  0  0
 19 21  2  0  0  0  0
 20 19  1  0  0  0  0
 20 25  1  0  0  0  0
 21 22  1  0  0  0  0
 22 23  2  0  0  0  0
 24 20  1  0  0  0  0
 26  4  1  0  0  0  0
 26 28  1  0  0  0  0
 27 26  1  0  0  0  0
 29 30  1  0  0  0  0
 29 31  1  0  0  0  0
 29 26  1  0  0  0  0
 32 33  1  0  0  0  0
 32 41  1  0  0  0  0
 33 29  1  0  0  0  0
 34 42  1  0  0  0  0
 34 33  2  0  0  0  0
 35 34  1  0  0  0  0
 36 43  1  0  0  0  0
 36 35  1  0  0  0  0
 37 38  2  0  0  0  0
 37 36  1  0  0  0  0
 38 39  1  0  0  0  0
 39 35  2  0  0  0  0
 39 40  1  0  0  0  0
 40 32  2  0  0  0  0
 44 37  1  0  0  0  0
 45 38  1  0  0  0  0
 46 47  2  0  0  0  0
 46 40  1  0  0  0  0
 48 46  1  0  0  0  0
M  END
>  <minimizedAffinity>
-4.52284145

>  <minimizedRMSD>
10.0088797

$$$$
