
 OpenBabel03252500573D

 39 41  0  0  0  0  0  0  0  0999 V2000
   43.9060   34.6470   40.1130 O   0  0  0  0  0  0  0  0  0  0  0  0
   43.4380   34.6290   41.5610 P   0  0  1  0  0  0  0  0  0  0  0  0
   43.2150   33.0080   42.0350 O   0  0  0  0  0  0  0  0  0  0  0  0
   43.1150   32.9850   43.0080 H   0  0  0  0  0  0  0  0  0  0  0  0
   44.6500   35.2850   42.5600 O   0  0  0  0  0  0  0  0  0  0  0  0
   46.7200   34.2390   42.9510 C   0  0  0  0  0  0  0  0  0  0  0  0
   45.4760   34.5890   43.4310 C   0  0  0  0  0  0  0  0  0  0  0  0
   45.1420   34.2230   44.7400 C   0  0  0  0  0  0  0  0  0  0  0  0
   46.0610   33.5480   45.4540 N   0  0  0  0  0  0  0  0  0  0  0  0
   47.2640   33.2160   44.9750 C   0  0  0  0  0  0  0  0  0  0  0  0
   47.5840   33.5650   43.7260 N   0  0  0  0  0  0  0  0  0  0  0  0
   44.1790   34.5040   45.0860 H   0  0  0  0  0  0  0  0  0  0  0  0
   48.0180   32.6720   45.5370 H   0  0  0  0  0  0  0  0  0  0  0  0
   47.1290   34.5930   41.5910 C   0  0  0  0  0  0  0  0  0  0  0  0
   46.3520   35.2270   41.1110 H   0  0  0  0  0  0  0  0  0  0  0  0
   47.2700   33.6940   40.9590 H   0  0  0  0  0  0  0  0  0  0  0  0
   48.4220   35.3590   41.6560 C   0  0  0  0  0  0  0  0  0  0  0  0
   49.2470   34.6720   41.8430 H   0  0  0  0  0  0  0  0  0  0  0  0
   48.3260   36.1260   42.4520 H   0  0  0  0  0  0  0  0  0  0  0  0
   48.5800   35.8380   40.6590 H   0  0  0  0  0  0  0  0  0  0  0  0
   41.9500   35.4160   41.7270 O   0  0  0  0  0  0  0  0  0  0  0  0
   40.8200   34.7940   41.2180 C   0  0  0  0  0  0  0  0  0  0  0  0
   39.9890   35.5220   40.3860 C   0  0  0  0  0  0  0  0  0  0  0  0
   38.8370   34.9770   39.8330 C   0  0  0  0  0  0  0  0  0  0  0  0
   38.5350   33.6750   40.1310 N   0  0  0  0  0  0  0  0  0  0  0  0
   39.3420   32.9840   40.9330 C   0  0  0  0  0  0  0  0  0  0  0  0
   40.4440   33.5140   41.4600 N   0  0  0  0  0  0  0  0  0  0  0  0
   40.2430   36.5350   40.1650 H   0  0  0  0  0  0  0  0  0  0  0  0
   38.2070   35.5860   39.1790 H   0  0  0  0  0  0  0  0  0  0  0  0
   38.9660   31.6370   41.2010 N   0  0  0  0  0  0  0  0  0  0  0  0
   37.8270   31.1230   40.6690 C   0  0  0  0  0  3  0  0  0  0  0  0
   37.5560   29.8090   40.9920 C   0  0  0  0  0  3  0  0  0  0  0  0
   38.3410   29.0060   41.7950 C   0  0  0  0  0  0  0  0  0  0  0  0
   38.0020   27.6580   42.0870 N   0  0  0  0  0  0  0  0  0  0  0  0
   39.4480   29.6010   42.2770 N   0  0  0  0  0  0  0  0  0  0  0  0
   39.7560   30.8910   41.9860 C   0  0  0  0  0  0  0  0  0  0  0  0
   40.8070   31.3770   42.4730 O   0  0  0  0  0  0  0  0  0  0  0  0
   37.1020   27.3000   41.7100 H   0  0  0  0  0  0  0  0  0  0  0  0
   38.6850   27.1150   42.6660 H   0  0  0  0  0  0  0  0  0  0  0  0
  2  1  2  6  0  0  0
  2 21  1  0  0  0  0
  2  3  1  0  0  0  0
  2  5  1  0  0  0  0
  3  4  1  0  0  0  0
  5  7  1  0  0  0  0
  6  7  2  0  0  0  0
  6 11  1  0  0  0  0
  7  8  1  0  0  0  0
  8 12  1  0  0  0  0
  8  9  2  0  0  0  0
 10  9  1  0  0  0  0
 10 13  1  0  0  0  0
 11 10  2  0  0  0  0
 14 17  1  0  0  0  0
 14  6  1  0  0  0  0
 15 14  1  0  0  0  0
 16 14  1  0  0  0  0
 17 18  1  0  0  0  0
 17 19  1  0  0  0  0
 20 17  1  0  0  0  0
 22 27  1  0  0  0  0
 22 21  1  0  0  0  0
 23 22  2  0  0  0  0
 24 25  2  0  0  0  0
 24 23  1  0  0  0  0
 25 26  1  0  0  0  0
 26 30  1  0  0  0  0
 26 27  2  0  0  0  0
 28 23  1  0  0  0  0
 29 24  1  0  0  0  0
 30 36  1  0  0  0  0
 31 32  2  0  0  0  0
 31 30  1  0  0  0  0
 32 33  1  0  0  0  0
 33 34  1  0  0  0  0
 33 35  2  0  0  0  0
 34 39  1  0  0  0  0
 36 35  1  0  0  0  0
 36 37  2  0  0  0  0
 38 34  1  0  0  0  0
M  END
>  <minimizedAffinity>
-6.47718

>  <minimizedRMSD>
0.618651211

$$$$
