
 OpenBabel03252507073D

 25 26  0  0  0  0  0  0  0  0999 V2000
   44.7630   35.9050   44.1830 C   0  0  0  0  0  0  0  0  0  0  0  0
   44.4690   35.2110   42.9920 C   0  0  0  0  0  0  0  0  0  0  0  0
   44.6800   33.8440   42.9730 C   0  0  0  0  0  0  0  0  0  0  0  0
   45.1580   33.2360   44.0950 N   0  0  0  0  0  0  0  0  0  0  0  0
   45.4270   33.9230   45.2110 C   0  0  0  0  0  0  0  0  0  0  0  0
   45.2310   35.2620   45.2660 N   0  0  0  0  0  0  0  0  0  0  0  0
   44.6360   36.9630   44.3060 H   0  0  0  0  0  0  0  0  0  0  0  0
   44.0940   35.8170   42.1700 H   0  0  0  0  0  0  0  0  0  0  0  0
   45.9170   33.1250   46.2840 N   0  0  0  0  0  0  0  0  0  0  0  0
   47.0020   32.3760   46.0160 C   0  0  0  0  0  3  0  0  0  0  0  0
   47.4770   31.6030   47.0560 C   0  0  0  0  0  3  0  0  0  0  0  0
   46.8080   31.6640   48.2620 C   0  0  0  0  0  0  0  0  0  0  0  0
   47.2070   30.9130   49.4020 N   0  0  0  0  0  0  0  0  0  0  0  0
   45.7140   32.4460   48.4640 N   0  0  0  0  0  0  0  0  0  0  0  0
   45.2430   33.2080   47.4440 C   0  0  0  0  0  0  0  0  0  0  0  0
   44.2380   33.9550   47.5560 O   0  0  0  0  0  0  0  0  0  0  0  0
   46.5240   30.1240   49.4420 H   0  0  0  0  0  0  0  0  0  0  0  0
   47.8330   30.7440   50.2210 H   0  0  0  0  0  0  0  0  0  0  0  0
   44.3810   33.1860   41.7830 O   0  0  0  0  0  0  0  0  0  0  0  0
   45.6380   31.4860   40.1860 O   0  0  0  0  0  0  0  0  0  0  0  0
   45.6300   32.9460   40.6310 P   0  0  0  0  0  0  0  0  0  0  0  0
   45.3700   33.9860   39.3460 O   0  0  0  0  0  0  0  0  0  0  0  0
   45.8510   34.8280   39.4870 H   0  0  0  0  0  0  0  0  0  0  0  0
   47.1030   33.2510   41.4080 O   0  0  0  0  0  0  0  0  0  0  0  0
   47.3050   32.4140   41.9250 H   0  0  0  0  0  0  0  0  0  0  0  0
  1  7  1  0  0  0  0
  1  6  1  0  0  0  0
  2  1  2  0  0  0  0
  3  2  1  0  0  0  0
  3  4  2  0  0  0  0
  4  5  1  0  0  0  0
  5  6  2  0  0  0  0
  5  9  1  0  0  0  0
  8  2  1  0  0  0  0
  9 15  1  0  0  0  0
 10  9  1  0  0  0  0
 10 11  2  0  0  0  0
 11 12  1  0  0  0  0
 12 14  2  0  0  0  0
 12 13  1  0  0  0  0
 13 17  1  0  0  0  0
 13 18  1  0  0  0  0
 15 16  2  0  0  0  0
 15 14  1  0  0  0  0
 19  3  1  0  0  0  0
 20 21  2  0  0  0  0
 21 24  1  0  0  0  0
 21 19  1  0  0  0  0
 22 23  1  0  0  0  0
 22 21  1  0  0  0  0
 24 25  1  0  0  0  0
M  END
>  <minimizedAffinity>
-4.82905149

>  <minimizedRMSD>
2.0911777

$$$$
