
 OpenBabel03242511333D

 36 38  0  0  1  0  0  0  0  0999 V2000
   48.7660   32.2570   42.8780 C   0  0  0  0  0  3  0  0  0  0  0  0
   47.9660   33.3040   42.9130 C   0  0  0  0  0  3  0  0  0  0  0  0
   49.5690   32.0240   41.6840 C   0  0  0  0  0  0  0  0  0  0  0  0
   50.8700   31.5210   41.8670 C   0  0  0  0  0  0  0  0  0  0  0  0
   51.6670   31.2860   40.7450 C   0  0  0  0  0  0  0  0  0  0  0  0
   51.1450   31.5550   39.5190 N   0  0  0  0  0  0  0  0  0  0  0  0
   49.8970   32.0360   39.3760 C   0  0  0  0  0  0  0  0  0  0  0  0
   49.1330   32.2620   40.4530 N   0  0  0  0  0  0  0  0  0  0  0  0
   51.2640   31.3120   42.8630 H   0  0  0  0  0  0  0  0  0  0  0  0
   52.6580   30.9010   40.9070 H   0  0  0  0  0  0  0  0  0  0  0  0
   49.4330   32.2910   38.0540 N   0  0  0  0  0  0  0  0  0  0  0  0
   48.4860   33.2210   37.8340 C   0  0  0  0  0  3  0  0  0  0  0  0
   48.0670   33.4280   36.5160 C   0  0  0  0  0  3  0  0  0  0  0  0
   48.6720   32.6510   35.5610 C   0  0  0  0  0  0  0  0  0  0  0  0
   48.2360   32.8750   34.2300 N   0  0  0  0  0  0  0  0  0  0  0  0
   49.6200   31.7240   35.8020 N   0  0  0  0  0  0  0  0  0  0  0  0
   50.0110   31.5380   37.0800 C   0  0  0  0  0  0  0  0  0  0  0  0
   50.8910   30.6820   37.3380 O   0  0  0  0  0  0  0  0  0  0  0  0
   47.9260   32.5170   33.3160 H   0  0  0  0  0  0  0  0  0  0  0  0
   48.0970   33.8130   33.7520 H   0  0  0  0  0  0  0  0  0  0  0  0
   47.1260   33.6010   44.0860 C   0  0  0  0  0  0  0  0  0  0  0  0
   47.6450   34.2980   44.7690 H   0  0  0  0  0  0  0  0  0  0  0  0
   46.9040   32.6340   44.5940 H   0  0  0  0  0  0  0  0  0  0  0  0
   44.7100   36.2180   43.4800 C   0  0  1  0  0  0  0  0  0  0  0  0
   45.8680   35.4210   42.8760 C   0  0  0  0  0  0  0  0  0  0  0  0
   45.7690   34.1670   43.6720 C   0  0  2  0  0  0  0  0  0  0  0  0
   44.9260   34.3510   44.7240 O   0  0  0  0  0  0  0  0  0  0  0  0
   44.7260   35.7090   44.9010 C   0  0  0  0  0  0  0  0  0  0  0  0
   43.7550   35.9890   42.9960 H   0  0  0  0  0  0  0  0  0  0  0  0
   46.7830   36.0050   43.0440 H   0  0  0  0  0  0  0  0  0  0  0  0
   45.6360   35.2780   41.7800 H   0  0  0  0  0  0  0  0  0  0  0  0
   45.3010   33.3790   43.0150 H   0  0  0  0  0  0  0  0  0  0  0  0
   43.7760   35.8680   45.4420 H   0  0  0  0  0  0  0  0  0  0  0  0
   45.5170   36.1870   45.4980 H   0  0  0  0  0  0  0  0  0  0  0  0
   44.9770   37.5780   43.3930 O   0  0  0  0  0  0  0  0  0  0  0  0
   45.5260   37.9260   44.1380 H   0  0  0  0  0  0  0  0  0  0  0  0
  1  2  2  0  0  0  0
  2 21  1  0  0  0  0
  3  4  1  0  0  0  0
  3  1  1  0  0  0  0
  4  9  1  0  0  0  0
  5 10  1  0  0  0  0
  5  4  2  0  0  0  0
  6  5  1  0  0  0  0
  7  6  2  0  0  0  0
  7  8  1  0  0  0  0
  8  3  2  0  0  0  0
 11  7  1  0  0  0  0
 12 11  1  0  0  0  0
 13 12  2  0  0  0  0
 14 16  2  0  0  0  0
 14 13  1  0  0  0  0
 15 14  1  0  0  0  0
 16 17  1  0  0  0  0
 17 18  2  0  0  0  0
 17 11  1  0  0  0  0
 19 15  1  0  0  0  0
 20 15  1  0  0  0  0
 21 23  1  0  0  0  0
 21 22  1  0  0  0  0
 24 29  1  6  0  0  0
 24 28  1  0  0  0  0
 25 30  1  0  0  0  0
 25 24  1  0  0  0  0
 25 26  1  0  0  0  0
 26 32  1  6  0  0  0
 26 21  1  0  0  0  0
 26 27  1  0  0  0  0
 27 28  1  0  0  0  0
 28 33  1  0  0  0  0
 28 34  1  0  0  0  0
 31 25  1  0  0  0  0
 35 24  1  0  0  0  0
 35 36  1  0  0  0  0
M  END
>  <minimizedAffinity>
-5.54773569

>  <minimizedRMSD>
0.728111923

$$$$
