
 OpenBabel03252500573D

 39 41  0  0  0  0  0  0  0  0999 V2000
   45.1090   33.3150   40.1830 O   0  0  0  0  0  0  0  0  0  0  0  0
   44.4000   34.1420   41.2460 P   0  0  1  0  0  0  0  0  0  0  0  0
   43.3390   33.1220   42.1030 O   0  0  0  0  0  0  0  0  0  0  0  0
   43.0400   33.5970   42.9050 H   0  0  0  0  0  0  0  0  0  0  0  0
   45.5400   34.7360   42.3610 O   0  0  0  0  0  0  0  0  0  0  0  0
   46.7550   33.4320   43.8950 C   0  0  0  0  0  0  0  0  0  0  0  0
   45.7200   34.3140   43.6700 C   0  0  0  0  0  0  0  0  0  0  0  0
   44.9380   34.7140   44.7610 C   0  0  0  0  0  0  0  0  0  0  0  0
   45.2480   34.2090   45.9700 N   0  0  0  0  0  0  0  0  0  0  0  0
   46.2550   33.3540   46.1720 C   0  0  0  0  0  0  0  0  0  0  0  0
   47.0020   32.9730   45.1320 N   0  0  0  0  0  0  0  0  0  0  0  0
   44.1480   35.3940   44.5620 H   0  0  0  0  0  0  0  0  0  0  0  0
   46.5190   32.9370   47.1400 H   0  0  0  0  0  0  0  0  0  0  0  0
   47.6080   32.9770   42.7960 C   0  0  0  0  0  0  0  0  0  0  0  0
   47.0930   33.1300   41.8240 H   0  0  0  0  0  0  0  0  0  0  0  0
   47.8500   31.8990   42.8860 H   0  0  0  0  0  0  0  0  0  0  0  0
   48.8840   33.7730   42.8110 C   0  0  0  0  0  0  0  0  0  0  0  0
   49.5330   33.4130   43.6090 H   0  0  0  0  0  0  0  0  0  0  0  0
   48.6190   34.8420   42.9350 H   0  0  0  0  0  0  0  0  0  0  0  0
   49.3980   33.6010   41.8330 H   0  0  0  0  0  0  0  0  0  0  0  0
   43.4690   35.3650   40.5400 O   0  0  0  0  0  0  0  0  0  0  0  0
   42.1070   35.1500   40.3940 C   0  0  0  0  0  0  0  0  0  0  0  0
   41.2410   36.1780   40.7210 C   0  0  0  0  0  0  0  0  0  0  0  0
   39.8630   36.0470   40.6040 C   0  0  0  0  0  0  0  0  0  0  0  0
   39.3670   34.8560   40.1480 N   0  0  0  0  0  0  0  0  0  0  0  0
   40.2100   33.8740   39.8360 C   0  0  0  0  0  0  0  0  0  0  0  0
   41.5300   34.0070   39.9510 N   0  0  0  0  0  0  0  0  0  0  0  0
   41.6480   37.0990   41.0750 H   0  0  0  0  0  0  0  0  0  0  0  0
   39.2130   36.8840   40.8730 H   0  0  0  0  0  0  0  0  0  0  0  0
   39.6240   32.6620   39.3670 N   0  0  0  0  0  0  0  0  0  0  0  0
   39.6550   32.3500   38.0460 C   0  0  0  0  0  3  0  0  0  0  0  0
   39.0590   31.1540   37.7000 C   0  0  0  0  0  3  0  0  0  0  0  0
   38.4540   30.2800   38.5810 C   0  0  0  0  0  0  0  0  0  0  0  0
   37.8580   29.0620   38.1560 N   0  0  0  0  0  0  0  0  0  0  0  0
   38.4720   30.6730   39.8680 N   0  0  0  0  0  0  0  0  0  0  0  0
   39.0460   31.8410   40.2550 C   0  0  0  0  0  0  0  0  0  0  0  0
   39.0250   32.1390   41.4740 O   0  0  0  0  0  0  0  0  0  0  0  0
   37.8490   28.8660   37.1350 H   0  0  0  0  0  0  0  0  0  0  0  0
   37.4670   28.4420   38.9040 H   0  0  0  0  0  0  0  0  0  0  0  0
  2  1  2  6  0  0  0
  2  3  1  0  0  0  0
  2  5  1  0  0  0  0
  3  4  1  0  0  0  0
  5  7  1  0  0  0  0
  6 11  1  0  0  0  0
  7  6  2  0  0  0  0
  7  8  1  0  0  0  0
  8  9  2  0  0  0  0
  9 10  1  0  0  0  0
 10 13  1  0  0  0  0
 11 10  2  0  0  0  0
 12  8  1  0  0  0  0
 14 17  1  0  0  0  0
 14 16  1  0  0  0  0
 14  6  1  0  0  0  0
 15 14  1  0  0  0  0
 17 19  1  0  0  0  0
 17 18  1  0  0  0  0
 20 17  1  0  0  0  0
 21  2  1  0  0  0  0
 22 21  1  0  0  0  0
 22 23  1  0  0  0  0
 23 28  1  0  0  0  0
 24 23  2  0  0  0  0
 24 29  1  0  0  0  0
 25 24  1  0  0  0  0
 26 27  1  0  0  0  0
 26 25  2  0  0  0  0
 27 22  2  0  0  0  0
 30 26  1  0  0  0  0
 30 36  1  0  0  0  0
 31 30  1  0  0  0  0
 32 31  2  0  0  0  0
 32 33  1  0  0  0  0
 33 35  2  0  0  0  0
 34 33  1  0  0  0  0
 34 39  1  0  0  0  0
 35 36  1  0  0  0  0
 36 37  2  0  0  0  0
 38 34  1  0  0  0  0
M  END
>  <minimizedAffinity>
-5.81150532

>  <minimizedRMSD>
2.45844173

$$$$
