
 OpenBabel03252506283D

 48 52  0  0  0  0  0  0  0  0999 V2000
   46.3520   32.8420   46.0950 C   0  0  0  0  0  0  0  0  0  0  0  0
   47.3980   31.9120   45.8620 C   0  0  0  0  0  0  0  0  0  0  0  0
   47.4940   31.1000   46.9350 C   0  0  0  0  0  0  0  0  0  0  0  0
   46.5560   31.5010   47.7990 N   0  0  0  0  0  0  0  0  0  0  0  0
   45.8720   32.5400   47.3030 N   0  0  0  0  0  0  0  0  0  0  0  0
   47.9970   31.8960   44.9480 H   0  0  0  0  0  0  0  0  0  0  0  0
   48.1920   30.2840   47.0750 H   0  0  0  0  0  0  0  0  0  0  0  0
   44.6000   35.6890   44.6420 C   0  0  0  0  0  0  0  0  0  0  0  0
   45.1840   35.8440   43.3970 C   0  0  0  0  0  0  0  0  0  0  0  0
   46.1970   34.9520   43.0610 C   0  0  0  0  0  0  0  0  0  0  0  0
   46.5440   33.9960   43.9620 N   0  0  0  0  0  0  0  0  0  0  0  0
   45.9650   33.8690   45.1500 C   0  0  0  0  0  0  0  0  0  0  0  0
   44.9830   34.7290   45.4870 N   0  0  0  0  0  0  0  0  0  0  0  0
   43.8180   36.4130   44.8430 H   0  0  0  0  0  0  0  0  0  0  0  0
   44.9810   36.5590   42.6290 H   0  0  0  0  0  0  0  0  0  0  0  0
   46.9640   34.8900   41.8480 N   0  0  0  0  0  0  0  0  0  0  0  0
   48.1620   35.4720   41.6630 C   0  0  0  0  0  3  0  0  0  0  0  0
   48.8080   35.3380   40.4340 C   0  0  0  0  0  3  0  0  0  0  0  0
   48.1680   34.6020   39.4570 C   0  0  0  0  0  0  0  0  0  0  0  0
   48.8400   34.4730   38.2040 N   0  0  0  0  0  0  0  0  0  0  0  0
   46.9690   34.0370   39.6860 N   0  0  0  0  0  0  0  0  0  0  0  0
   46.3420   34.1730   40.8930 C   0  0  0  0  0  0  0  0  0  0  0  0
   45.2230   33.6120   41.0190 O   0  0  0  0  0  0  0  0  0  0  0  0
   48.8040   34.8400   37.2150 H   0  0  0  0  0  0  0  0  0  0  0  0
   49.6210   33.7740   38.3600 H   0  0  0  0  0  0  0  0  0  0  0  0
   46.2990   30.9060   49.1000 C   0  0  0  0  0  0  0  0  0  0  0  0
   47.0710   30.1820   49.3530 H   0  0  0  0  0  0  0  0  0  0  0  0
   46.2850   31.6980   49.8930 H   0  0  0  0  0  0  0  0  0  0  0  0
   44.9570   30.2520   49.1160 C   0  0  0  0  0  0  0  0  0  0  0  0
   44.2020   31.0300   48.8790 H   0  0  0  0  0  0  0  0  0  0  0  0
   44.7400   29.9460   50.1800 H   0  0  0  0  0  0  0  0  0  0  0  0
   44.9690   27.7390   48.6080 C   0  0  0  0  0  0  0  0  0  0  0  0
   44.7910   29.0720   48.2910 C   0  0  0  0  0  0  0  0  0  0  0  0
   44.3880   29.3370   46.9780 C   0  0  0  0  0  0  0  0  0  0  0  0
   44.1850   28.3380   46.0700 C   0  0  0  0  0  0  0  0  0  0  0  0
   43.8060   28.2890   44.7730 N   0  0  0  0  0  0  0  0  0  0  0  0
   43.7560   27.0320   44.3280 C   0  0  0  0  0  0  0  0  0  0  0  0
   44.1130   26.1800   45.3550 C   0  0  0  0  0  0  0  0  0  0  0  0
   44.3680   27.0170   46.4040 C   0  0  0  0  0  0  0  0  0  0  0  0
   44.7630   26.7400   47.6910 C   0  0  0  0  0  0  0  0  0  0  0  0
   45.2810   27.5780   49.6350 H   0  0  0  0  0  0  0  0  0  0  0  0
   44.2120   30.3390   46.5970 H   0  0  0  0  0  0  0  0  0  0  0  0
   43.5860   29.1420   44.2070 H   0  0  0  0  0  0  0  0  0  0  0  0
   43.4730   26.7740   43.3080 H   0  0  0  0  0  0  0  0  0  0  0  0
   44.1510   25.1040   45.2510 H   0  0  0  0  0  0  0  0  0  0  0  0
   44.9740   25.3560   48.1030 C   0  0  0  0  0  0  0  0  0  0  0  0
   45.2890   25.0680   49.2920 O   0  0  0  0  0  0  0  0  0  0  0  0
   44.8680   24.5260   47.4110 H   0  0  0  0  0  0  0  0  0  0  0  0
  1  5  2  0  0  0  0
  2  1  1  0  0  0  0
  2  3  2  0  0  0  0
  3  7  1  0  0  0  0
  3  4  1  0  0  0  0
  4 26  1  0  0  0  0
  5  4  1  0  0  0  0
  6  2  1  0  0  0  0
  8 14  1  0  0  0  0
  8 13  1  0  0  0  0
  9  8  2  0  0  0  0
 10  9  1  0  0  0  0
 10 11  2  0  0  0  0
 11 12  1  0  0  0  0
 12 13  2  0  0  0  0
 12  1  1  0  0  0  0
 15  9  1  0  0  0  0
 16 10  1  0  0  0  0
 17 16  1  0  0  0  0
 18 17  2  0  0  0  0
 19 21  2  0  0  0  0
 19 18  1  0  0  0  0
 20 25  1  0  0  0  0
 20 19  1  0  0  0  0
 21 22  1  0  0  0  0
 22 23  2  0  0  0  0
 22 16  1  0  0  0  0
 24 20  1  0  0  0  0
 26 29  1  0  0  0  0
 26 27  1  0  0  0  0
 26 28  1  0  0  0  0
 29 31  1  0  0  0  0
 30 29  1  0  0  0  0
 32 41  1  0  0  0  0
 33 32  1  0  0  0  0
 33 29  1  0  0  0  0
 34 33  2  0  0  0  0
 35 39  2  0  0  0  0
 35 34  1  0  0  0  0
 36 35  1  0  0  0  0
 37 36  1  0  0  0  0
 37 38  2  0  0  0  0
 38 39  1  0  0  0  0
 39 40  1  0  0  0  0
 40 46  1  0  0  0  0
 40 32  2  0  0  0  0
 42 34  1  0  0  0  0
 43 36  1  0  0  0  0
 44 37  1  0  0  0  0
 45 38  1  0  0  0  0
 46 47  2  0  0  0  0
 48 46  1  0  0  0  0
M  END
>  <minimizedAffinity>
-6.54046583

>  <minimizedRMSD>
1.11353934

$$$$
