
 OpenBabel03242511523D

 35 39  0  0  1  0  0  0  0  0999 V2000
   38.8350   30.1270   42.3960 C   0  0  1  0  0  0  0  0  0  0  0  0
   39.6510   30.9580   42.8390 O   0  0  0  0  0  0  0  0  0  0  0  0
   39.2560   31.1810   41.4710 C   0  0  2  0  0  0  0  0  0  0  0  0
   38.0760   32.0510   41.0250 C   0  0  0  0  0  0  0  0  0  0  0  0
   38.9140   31.3800   40.0810 C   0  0  1  0  0  0  0  0  0  0  0  0
   37.8280   30.4800   42.9070 H   0  0  0  0  0  0  0  0  0  0  0  0
   38.2030   33.1050   41.3400 H   0  0  0  0  0  0  0  0  0  0  0  0
   37.0360   31.7120   41.1790 H   0  0  0  0  0  0  0  0  0  0  0  0
   38.4960   30.4340   39.6230 H   0  0  0  0  0  0  0  0  0  0  0  0
   39.8650   32.1490   39.2860 N   0  0  0  0  0  0  0  0  0  0  0  0
   40.4540   33.2610   39.7660 C   0  0  0  0  0  3  0  0  0  0  0  0
   41.3250   33.8940   38.9290 C   0  0  0  0  0  3  0  0  0  0  0  0
   41.6220   33.4610   37.6540 C   0  0  0  0  0  0  0  0  0  0  0  0
   42.5390   34.1610   36.8230 N   0  0  0  0  0  0  0  0  0  0  0  0
   40.9980   32.3360   37.2250 N   0  0  0  0  0  0  0  0  0  0  0  0
   40.1390   31.6960   38.0290 C   0  0  0  0  0  0  0  0  0  0  0  0
   39.5770   30.6600   37.6040 O   0  0  0  0  0  0  0  0  0  0  0  0
   42.3000   34.4330   35.8260 H   0  0  0  0  0  0  0  0  0  0  0  0
   43.5130   34.5050   37.0050 H   0  0  0  0  0  0  0  0  0  0  0  0
   38.1560   27.6480   42.6130 C   0  0  1  0  0  0  0  0  0  0  0  0
   38.8680   28.8110   43.0600 C   0  0  2  0  0  0  0  0  0  0  0  0
   37.5680   28.4420   43.6740 C   0  0  0  0  0  0  0  0  0  0  0  0
   38.6060   26.6450   42.8840 H   0  0  0  0  0  0  0  0  0  0  0  0
   39.7400   28.6170   43.7540 H   0  0  0  0  0  0  0  0  0  0  0  0
   37.5240   28.0300   44.7120 H   0  0  0  0  0  0  0  0  0  0  0  0
   36.6310   29.0220   43.4660 H   0  0  0  0  0  0  0  0  0  0  0  0
   36.2930   28.0150   41.0800 C   0  0  0  0  0  0  0  0  0  0  0  0
   37.6120   27.6190   41.2500 C   0  0  0  0  0  0  0  0  0  0  0  0
   38.3890   27.2740   40.1510 C   0  0  0  0  0  0  0  0  0  0  0  0
   37.7880   27.3500   38.9290 N   0  0  0  0  0  0  0  0  0  0  0  0
   36.5000   27.7380   38.7640 C   0  0  0  0  0  0  0  0  0  0  0  0
   35.7610   28.0700   39.8590 N   0  0  0  0  0  0  0  0  0  0  0  0
   35.6760   28.2850   41.9260 H   0  0  0  0  0  0  0  0  0  0  0  0
   39.4030   26.9660   40.2640 H   0  0  0  0  0  0  0  0  0  0  0  0
   36.2140   27.7340   37.7260 H   0  0  0  0  0  0  0  0  0  0  0  0
  1  2  1  0  0  0  0
  1  6  1  1  0  0  0
  1 21  1  0  0  0  0
  3  1  1  0  0  0  0
  3  2  1  1  0  0  0
  4  8  1  0  0  0  0
  4  7  1  0  0  0  0
  4  3  1  0  0  0  0
  5  9  1  6  0  0  0
  5  4  1  0  0  0  0
  5  3  1  0  0  0  0
 10 11  1  0  0  0  0
 10  5  1  0  0  0  0
 12 11  2  0  0  0  0
 13 12  1  0  0  0  0
 14 19  1  0  0  0  0
 14 13  1  0  0  0  0
 15 13  2  0  0  0  0
 15 16  1  0  0  0  0
 16 10  1  0  0  0  0
 17 16  2  0  0  0  0
 18 14  1  0  0  0  0
 20 23  1  1  0  0  0
 20 21  1  0  0  0  0
 20 22  1  0  0  0  0
 21 22  1  0  0  0  0
 21 24  1  1  0  0  0
 22 25  1  0  0  0  0
 26 22  1  0  0  0  0
 27 28  1  0  0  0  0
 27 33  1  0  0  0  0
 28 20  1  0  0  0  0
 29 34  1  0  0  0  0
 29 28  2  0  0  0  0
 30 29  1  0  0  0  0
 31 30  2  0  0  0  0
 31 32  1  0  0  0  0
 32 27  2  0  0  0  0
 35 31  1  0  0  0  0
M  END
>  <minimizedAffinity>
-5.72323418

$$$$

 OpenBabel03242511523D

 35 39  0  0  1  0  0  0  0  0999 V2000
   39.0200   28.5290   42.8660 C   0  0  1  0  0  0  0  0  0  0  0  0
   40.1450   28.2490   42.4090 O   0  0  0  0  0  0  0  0  0  0  0  0
   39.6750   29.5690   42.0710 C   0  0  2  0  0  0  0  0  0  0  0  0
   39.9350   30.8350   42.8950 C   0  0  0  0  0  0  0  0  0  0  0  0
   39.1900   30.8720   41.6750 C   0  0  1  0  0  0  0  0  0  0  0  0
   39.2650   28.7390   44.0040 H   0  0  0  0  0  0  0  0  0  0  0  0
   41.0170   31.0550   42.9770 H   0  0  0  0  0  0  0  0  0  0  0  0
   39.4210   30.9940   43.8600 H   0  0  0  0  0  0  0  0  0  0  0  0
   38.0650   30.9380   41.7760 H   0  0  0  0  0  0  0  0  0  0  0  0
   39.7930   31.4480   40.4790 N   0  0  0  0  0  0  0  0  0  0  0  0
   40.5940   30.7280   39.6710 C   0  0  0  0  0  3  0  0  0  0  0  0
   41.0990   31.3780   38.5830 C   0  0  0  0  0  3  0  0  0  0  0  0
   40.8330   32.6970   38.2810 C   0  0  0  0  0  0  0  0  0  0  0  0
   41.3860   33.3240   37.1310 N   0  0  0  0  0  0  0  0  0  0  0  0
   40.0190   33.3720   39.1300 N   0  0  0  0  0  0  0  0  0  0  0  0
   39.5110   32.7550   40.2050 C   0  0  0  0  0  0  0  0  0  0  0  0
   38.7630   33.4050   40.9720 O   0  0  0  0  0  0  0  0  0  0  0  0
   41.8860   34.2590   37.1860 H   0  0  0  0  0  0  0  0  0  0  0  0
   41.4090   33.0290   36.1250 H   0  0  0  0  0  0  0  0  0  0  0  0
   36.9480   27.0610   42.4090 C   0  0  1  0  0  0  0  0  0  0  0  0
   38.1510   27.3670   43.1290 C   0  0  2  0  0  0  0  0  0  0  0  0
   36.8270   27.7480   43.6800 C   0  0  0  0  0  0  0  0  0  0  0  0
   36.6500   25.9700   42.3630 H   0  0  0  0  0  0  0  0  0  0  0  0
   38.6180   26.5050   43.6940 H   0  0  0  0  0  0  0  0  0  0  0  0
   36.3990   27.2100   44.5590 H   0  0  0  0  0  0  0  0  0  0  0  0
   36.4780   28.8140   43.6920 H   0  0  0  0  0  0  0  0  0  0  0  0
   35.8330   28.8100   41.1230 C   0  0  0  0  0  0  0  0  0  0  0  0
   36.6940   27.7220   41.1230 C   0  0  0  0  0  0  0  0  0  0  0  0
   37.3300   27.3290   39.9510 C   0  0  0  0  0  0  0  0  0  0  0  0
   37.0610   28.0630   38.8340 N   0  0  0  0  0  0  0  0  0  0  0  0
   36.2220   29.1270   38.8350 C   0  0  0  0  0  0  0  0  0  0  0  0
   35.6110   29.4890   39.9980 N   0  0  0  0  0  0  0  0  0  0  0  0
   35.3300   29.1270   42.0270 H   0  0  0  0  0  0  0  0  0  0  0  0
   37.9920   26.4930   39.9340 H   0  0  0  0  0  0  0  0  0  0  0  0
   36.1440   29.5730   37.8580 H   0  0  0  0  0  0  0  0  0  0  0  0
  1 21  1  0  0  0  0
  1  6  1  1  0  0  0
  2  1  1  0  0  0  0
  3  2  1  6  0  0  0
  3  1  1  0  0  0  0
  3  4  1  0  0  0  0
  4  7  1  0  0  0  0
  4  8  1  0  0  0  0
  5  9  1  1  0  0  0
  5  3  1  0  0  0  0
  5  4  1  0  0  0  0
 10  5  1  0  0  0  0
 11 10  1  0  0  0  0
 12 11  2  0  0  0  0
 13 12  1  0  0  0  0
 13 15  2  0  0  0  0
 14 18  1  0  0  0  0
 14 13  1  0  0  0  0
 15 16  1  0  0  0  0
 16 10  1  0  0  0  0
 16 17  2  0  0  0  0
 19 14  1  0  0  0  0
 20 23  1  1  0  0  0
 20 21  1  0  0  0  0
 20 22  1  0  0  0  0
 21 22  1  0  0  0  0
 21 24  1  1  0  0  0
 22 26  1  0  0  0  0
 22 25  1  0  0  0  0
 27 28  1  0  0  0  0
 27 33  1  0  0  0  0
 28 20  1  0  0  0  0
 29 28  2  0  0  0  0
 30 31  2  0  0  0  0
 30 29  1  0  0  0  0
 31 32  1  0  0  0  0
 32 27  2  0  0  0  0
 34 29  1  0  0  0  0
 35 31  1  0  0  0  0
M  END
>  <minimizedAffinity>
-5.63500261

$$$$

 OpenBabel03242511523D

 35 39  0  0  1  0  0  0  0  0999 V2000
   37.1030   29.7750   38.6630 C   0  0  1  0  0  0  0  0  0  0  0  0
   37.1280   30.1720   37.4830 O   0  0  0  0  0  0  0  0  0  0  0  0
   38.4020   30.2160   38.1540 C   0  0  2  0  0  0  0  0  0  0  0  0
   39.4320   29.0810   38.1650 C   0  0  0  0  0  0  0  0  0  0  0  0
   39.6730   30.3210   38.8340 C   0  0  1  0  0  0  0  0  0  0  0  0
   37.0420   28.6020   38.5240 H   0  0  0  0  0  0  0  0  0  0  0  0
   39.7850   28.8390   37.1430 H   0  0  0  0  0  0  0  0  0  0  0  0
   39.2520   28.1630   38.7530 H   0  0  0  0  0  0  0  0  0  0  0  0
   39.5380   30.3200   39.9570 H   0  0  0  0  0  0  0  0  0  0  0  0
   40.6280   31.2700   38.2730 N   0  0  0  0  0  0  0  0  0  0  0  0
   41.5150   30.9070   37.3260 C   0  0  0  0  0  3  0  0  0  0  0  0
   42.3570   31.8830   36.8800 C   0  0  0  0  0  3  0  0  0  0  0  0
   42.3420   33.1840   37.3380 C   0  0  0  0  0  0  0  0  0  0  0  0
   43.2440   34.1610   36.8360 N   0  0  0  0  0  0  0  0  0  0  0  0
   41.4280   33.4900   38.2910 N   0  0  0  0  0  0  0  0  0  0  0  0
   40.5900   32.5490   38.7450 C   0  0  0  0  0  0  0  0  0  0  0  0
   39.7560   32.8620   39.6270 O   0  0  0  0  0  0  0  0  0  0  0  0
   43.8240   34.7740   37.4790 H   0  0  0  0  0  0  0  0  0  0  0  0
   43.4870   34.4390   35.8540 H   0  0  0  0  0  0  0  0  0  0  0  0
   35.4670   29.3290   40.6070 C   0  0  1  0  0  0  0  0  0  0  0  0
   35.7940   29.8980   39.3310 C   0  0  2  0  0  0  0  0  0  0  0  0
   35.0650   28.6080   39.4150 C   0  0  0  0  0  0  0  0  0  0  0  0
   34.6640   29.8580   41.2050 H   0  0  0  0  0  0  0  0  0  0  0  0
   35.1270   30.7440   38.9850 H   0  0  0  0  0  0  0  0  0  0  0  0
   33.9830   28.5460   39.1460 H   0  0  0  0  0  0  0  0  0  0  0  0
   35.5630   27.6320   39.1750 H   0  0  0  0  0  0  0  0  0  0  0  0
   36.7480   27.5000   41.5890 C   0  0  0  0  0  0  0  0  0  0  0  0
   36.5480   28.8690   41.4860 C   0  0  0  0  0  0  0  0  0  0  0  0
   37.3900   29.7530   42.1480 C   0  0  0  0  0  0  0  0  0  0  0  0
   38.3990   29.2040   42.8830 N   0  0  0  0  0  0  0  0  0  0  0  0
   38.5950   27.8660   42.9810 C   0  0  0  0  0  0  0  0  0  0  0  0
   37.7530   27.0220   42.3220 N   0  0  0  0  0  0  0  0  0  0  0  0
   36.1000   26.7980   41.0800 H   0  0  0  0  0  0  0  0  0  0  0  0
   37.2480   30.8080   42.0820 H   0  0  0  0  0  0  0  0  0  0  0  0
   39.4420   27.6340   43.6040 H   0  0  0  0  0  0  0  0  0  0  0  0
  1  6  1  6  0  0  0
  1 21  1  0  0  0  0
  2  1  1  0  0  0  0
  3  2  1  6  0  0  0
  3  4  1  0  0  0  0
  3  1  1  0  0  0  0
  3  5  1  0  0  0  0
  4  8  1  0  0  0  0
  4  5  1  0  0  0  0
  5  9  1  1  0  0  0
  7  4  1  0  0  0  0
 10 16  1  0  0  0  0
 10  5  1  0  0  0  0
 11 10  1  0  0  0  0
 12 11  2  0  0  0  0
 12 13  1  0  0  0  0
 13 15  2  0  0  0  0
 14 13  1  0  0  0  0
 14 18  1  0  0  0  0
 15 16  1  0  0  0  0
 16 17  2  0  0  0  0
 19 14  1  0  0  0  0
 20 23  1  1  0  0  0
 20 28  1  0  0  0  0
 21 24  1  6  0  0  0
 21 22  1  0  0  0  0
 21 20  1  0  0  0  0
 22 20  1  0  0  0  0
 25 22  1  0  0  0  0
 26 22  1  0  0  0  0
 27 32  1  0  0  0  0
 28 27  2  0  0  0  0
 28 29  1  0  0  0  0
 29 30  2  0  0  0  0
 30 31  1  0  0  0  0
 31 35  1  0  0  0  0
 32 31  2  0  0  0  0
 33 27  1  0  0  0  0
 34 29  1  0  0  0  0
M  END
>  <minimizedAffinity>
-5.5920434

$$$$

 OpenBabel03242511523D

 35 39  0  0  1  0  0  0  0  0999 V2000
   37.1310   26.2570   39.2660 C   0  0  1  0  0  0  0  0  0  0  0  0
   36.4120   26.7700   38.3870 O   0  0  0  0  0  0  0  0  0  0  0  0
   37.3740   27.6710   38.9730 C   0  0  2  0  0  0  0  0  0  0  0  0
   38.7940   27.9070   38.4470 C   0  0  0  0  0  0  0  0  0  0  0  0
   38.2920   28.5980   39.5930 C   0  0  1  0  0  0  0  0  0  0  0  0
   37.8900   25.6210   38.6190 H   0  0  0  0  0  0  0  0  0  0  0  0
   38.7870   28.3100   37.4160 H   0  0  0  0  0  0  0  0  0  0  0  0
   39.5750   27.1340   38.5670 H   0  0  0  0  0  0  0  0  0  0  0  0
   38.6390   28.2180   40.6000 H   0  0  0  0  0  0  0  0  0  0  0  0
   37.9490   30.0120   39.4890 N   0  0  0  0  0  0  0  0  0  0  0  0
   37.6310   30.5790   38.3100 C   0  0  0  0  0  3  0  0  0  0  0  0
   37.3290   31.9100   38.3400 C   0  0  0  0  0  3  0  0  0  0  0  0
   37.3340   32.6760   39.4870 C   0  0  0  0  0  0  0  0  0  0  0  0
   37.0100   34.0600   39.4600 N   0  0  0  0  0  0  0  0  0  0  0  0
   37.6630   32.0500   40.6440 N   0  0  0  0  0  0  0  0  0  0  0  0
   37.9630   30.7450   40.6400 C   0  0  0  0  0  0  0  0  0  0  0  0
   38.2640   30.1940   41.7250 O   0  0  0  0  0  0  0  0  0  0  0  0
   37.6310   34.7910   39.9130 H   0  0  0  0  0  0  0  0  0  0  0  0
   36.1960   34.5720   39.0410 H   0  0  0  0  0  0  0  0  0  0  0  0
   36.8770   24.6640   41.2790 C   0  0  1  0  0  0  0  0  0  0  0  0
   36.5360   25.0970   39.9540 C   0  0  2  0  0  0  0  0  0  0  0  0
   37.5020   23.9890   40.1580 C   0  0  0  0  0  0  0  0  0  0  0  0
   36.0730   24.1110   41.8520 H   0  0  0  0  0  0  0  0  0  0  0  0
   35.5420   24.7300   39.5580 H   0  0  0  0  0  0  0  0  0  0  0  0
   37.2190   22.9340   39.9210 H   0  0  0  0  0  0  0  0  0  0  0  0
   38.6020   24.1250   39.9840 H   0  0  0  0  0  0  0  0  0  0  0  0
   38.9710   25.3540   42.3250 C   0  0  0  0  0  0  0  0  0  0  0  0
   37.6100   25.5750   42.1650 C   0  0  0  0  0  0  0  0  0  0  0  0
   36.9990   26.6610   42.7790 C   0  0  0  0  0  0  0  0  0  0  0  0
   37.8010   27.4730   43.5260 N   0  0  0  0  0  0  0  0  0  0  0  0
   39.1300   27.2570   43.6790 C   0  0  0  0  0  0  0  0  0  0  0  0
   39.7030   26.1830   43.0670 N   0  0  0  0  0  0  0  0  0  0  0  0
   39.4610   24.5120   41.8540 H   0  0  0  0  0  0  0  0  0  0  0  0
   35.9540   26.8440   42.6690 H   0  0  0  0  0  0  0  0  0  0  0  0
   39.5850   28.0090   44.3020 H   0  0  0  0  0  0  0  0  0  0  0  0
  1  6  1  6  0  0  0
  1 21  1  0  0  0  0
  2  1  1  0  0  0  0
  3  2  1  6  0  0  0
  3  1  1  0  0  0  0
  3  5  1  0  0  0  0
  4  8  1  0  0  0  0
  4  3  1  0  0  0  0
  4  5  1  0  0  0  0
  5  9  1  1  0  0  0
  7  4  1  0  0  0  0
 10  5  1  0  0  0  0
 10 16  1  0  0  0  0
 11 12  2  0  0  0  0
 11 10  1  0  0  0  0
 12 13  1  0  0  0  0
 13 15  2  0  0  0  0
 14 13  1  0  0  0  0
 14 18  1  0  0  0  0
 16 15  1  0  0  0  0
 16 17  2  0  0  0  0
 19 14  1  0  0  0  0
 20 23  1  1  0  0  0
 20 28  1  0  0  0  0
 21 24  1  6  0  0  0
 21 22  1  0  0  0  0
 21 20  1  0  0  0  0
 22 20  1  0  0  0  0
 25 22  1  0  0  0  0
 26 22  1  0  0  0  0
 27 32  1  0  0  0  0
 28 27  2  0  0  0  0
 28 29  1  0  0  0  0
 29 30  2  0  0  0  0
 30 31  1  0  0  0  0
 31 35  1  0  0  0  0
 32 31  2  0  0  0  0
 33 27  1  0  0  0  0
 34 29  1  0  0  0  0
M  END
>  <minimizedAffinity>
-5.46527672

$$$$

 OpenBabel03242511523D

 35 39  0  0  1  0  0  0  0  0999 V2000
   36.6800   30.8490   38.9590 C   0  0  1  0  0  0  0  0  0  0  0  0
   36.7060   29.9030   38.1490 O   0  0  0  0  0  0  0  0  0  0  0  0
   36.5340   29.5070   39.5250 C   0  0  2  0  0  0  0  0  0  0  0  0
   35.1840   29.3300   40.2280 C   0  0  0  0  0  0  0  0  0  0  0  0
   36.4210   29.0940   40.9050 C   0  0  1  0  0  0  0  0  0  0  0  0
   35.5940   31.2860   38.7870 H   0  0  0  0  0  0  0  0  0  0  0  0
   34.5710   28.5440   39.7460 H   0  0  0  0  0  0  0  0  0  0  0  0
   34.5680   30.2080   40.4950 H   0  0  0  0  0  0  0  0  0  0  0  0
   36.7730   29.9090   41.6060 H   0  0  0  0  0  0  0  0  0  0  0  0
   36.8290   27.7260   41.2040 N   0  0  0  0  0  0  0  0  0  0  0  0
   36.6380   26.7210   40.3280 C   0  0  0  0  0  3  0  0  0  0  0  0
   37.0620   25.4860   40.7220 C   0  0  0  0  0  3  0  0  0  0  0  0
   37.6600   25.2270   41.9370 C   0  0  0  0  0  0  0  0  0  0  0  0
   38.0830   23.9180   42.2950 N   0  0  0  0  0  0  0  0  0  0  0  0
   37.8260   26.2780   42.7780 N   0  0  0  0  0  0  0  0  0  0  0  0
   37.4180   27.5000   42.4140 C   0  0  0  0  0  0  0  0  0  0  0  0
   37.5840   28.4510   43.2120 O   0  0  0  0  0  0  0  0  0  0  0  0
   37.8170   23.4750   43.2230 H   0  0  0  0  0  0  0  0  0  0  0  0
   38.6690   23.2150   41.7820 H   0  0  0  0  0  0  0  0  0  0  0  0
   38.5770   32.5900   39.1150 C   0  0  1  0  0  0  0  0  0  0  0  0
   37.3850   32.0650   38.5140 C   0  0  2  0  0  0  0  0  0  0  0  0
   37.3060   33.1720   39.4990 C   0  0  0  0  0  0  0  0  0  0  0  0
   39.2590   33.1940   38.4440 H   0  0  0  0  0  0  0  0  0  0  0  0
   37.1720   32.4160   37.4590 H   0  0  0  0  0  0  0  0  0  0  0  0
   37.0540   34.2100   39.1730 H   0  0  0  0  0  0  0  0  0  0  0  0
   36.9240   33.0080   40.5410 H   0  0  0  0  0  0  0  0  0  0  0  0
   39.1650   31.8940   41.3790 C   0  0  0  0  0  0  0  0  0  0  0  0
   39.3620   31.7360   40.0150 C   0  0  0  0  0  0  0  0  0  0  0  0
   40.2270   30.7580   39.5390 C   0  0  0  0  0  0  0  0  0  0  0  0
   40.8500   29.9840   40.4740 N   0  0  0  0  0  0  0  0  0  0  0  0
   40.6550   30.1380   41.8060 C   0  0  0  0  0  0  0  0  0  0  0  0
   39.8020   31.1060   42.2450 N   0  0  0  0  0  0  0  0  0  0  0  0
   38.4960   32.6510   41.7650 H   0  0  0  0  0  0  0  0  0  0  0  0
   40.3920   30.6260   38.4940 H   0  0  0  0  0  0  0  0  0  0  0  0
   41.2340   29.4310   42.3760 H   0  0  0  0  0  0  0  0  0  0  0  0
  1  6  1  6  0  0  0
  1  3  1  0  0  0  0
  2  1  1  0  0  0  0
  3  2  1  6  0  0  0
  3  4  1  0  0  0  0
  3  5  1  0  0  0  0
  4  8  1  0  0  0  0
  4  5  1  0  0  0  0
  5 10  1  0  0  0  0
  5  9  1  1  0  0  0
  7  4  1  0  0  0  0
 10 16  1  0  0  0  0
 11 12  2  0  0  0  0
 11 10  1  0  0  0  0
 12 13  1  0  0  0  0
 13 14  1  0  0  0  0
 13 15  2  0  0  0  0
 14 18  1  0  0  0  0
 16 15  1  0  0  0  0
 16 17  2  0  0  0  0
 19 14  1  0  0  0  0
 20 23  1  6  0  0  0
 20 22  1  0  0  0  0
 20 28  1  0  0  0  0
 21 24  1  6  0  0  0
 21  1  1  0  0  0  0
 21 20  1  0  0  0  0
 21 22  1  0  0  0  0
 22 26  1  0  0  0  0
 25 22  1  0  0  0  0
 27 33  1  0  0  0  0
 27 32  1  0  0  0  0
 28 27  2  0  0  0  0
 29 28  1  0  0  0  0
 29 30  2  0  0  0  0
 30 31  1  0  0  0  0
 31 32  2  0  0  0  0
 31 35  1  0  0  0  0
 34 29  1  0  0  0  0
M  END
>  <minimizedAffinity>
-5.44915628

$$$$

 OpenBabel03242511523D

 35 39  0  0  1  0  0  0  0  0999 V2000
   36.7480   28.2110   42.2810 C   0  0  1  0  0  0  0  0  0  0  0  0
   37.0170   29.4050   42.5160 O   0  0  0  0  0  0  0  0  0  0  0  0
   36.6340   29.1370   41.1530 C   0  0  2  0  0  0  0  0  0  0  0  0
   35.2020   29.2010   40.6110 C   0  0  0  0  0  0  0  0  0  0  0  0
   36.3100   28.8730   39.7690 C   0  0  1  0  0  0  0  0  0  0  0  0
   35.6740   28.1040   42.7660 H   0  0  0  0  0  0  0  0  0  0  0  0
   34.7700   30.2160   40.7150 H   0  0  0  0  0  0  0  0  0  0  0  0
   34.4630   28.4240   40.8790 H   0  0  0  0  0  0  0  0  0  0  0  0
   36.4430   27.7770   39.5200 H   0  0  0  0  0  0  0  0  0  0  0  0
   36.7900   29.8470   38.7960 N   0  0  0  0  0  0  0  0  0  0  0  0
   37.2820   31.0430   39.1740 C   0  0  0  0  0  3  0  0  0  0  0  0
   37.6990   31.8690   38.1720 C   0  0  0  0  0  3  0  0  0  0  0  0
   37.6440   31.5460   36.8320 C   0  0  0  0  0  0  0  0  0  0  0  0
   38.0940   32.4470   35.8290 N   0  0  0  0  0  0  0  0  0  0  0  0
   37.1380   30.3290   36.5130 N   0  0  0  0  0  0  0  0  0  0  0  0
   36.7220   29.5000   37.4790 C   0  0  0  0  0  0  0  0  0  0  0  0
   36.2600   28.3820   37.1520 O   0  0  0  0  0  0  0  0  0  0  0  0
   37.4980   32.6940   34.9870 H   0  0  0  0  0  0  0  0  0  0  0  0
   38.9910   32.9820   35.7320 H   0  0  0  0  0  0  0  0  0  0  0  0
   38.7060   26.6840   42.9780 C   0  0  1  0  0  0  0  0  0  0  0  0
   37.3980   27.2400   43.1790 C   0  0  2  0  0  0  0  0  0  0  0  0
   37.5590   25.9000   42.5620 C   0  0  0  0  0  0  0  0  0  0  0  0
   39.2640   26.3580   43.9070 H   0  0  0  0  0  0  0  0  0  0  0  0
   36.9950   27.1790   44.2340 H   0  0  0  0  0  0  0  0  0  0  0  0
   37.2880   24.9750   43.1270 H   0  0  0  0  0  0  0  0  0  0  0  0
   37.3830   25.7290   41.4670 H   0  0  0  0  0  0  0  0  0  0  0  0
   39.6240   26.8380   40.7220 C   0  0  0  0  0  0  0  0  0  0  0  0
   39.6180   27.3220   42.0230 C   0  0  0  0  0  0  0  0  0  0  0  0
   40.4080   28.4120   42.3690 C   0  0  0  0  0  0  0  0  0  0  0  0
   41.1650   28.9600   41.3760 N   0  0  0  0  0  0  0  0  0  0  0  0
   41.1680   28.4870   40.1050 C   0  0  0  0  0  0  0  0  0  0  0  0
   40.3850   27.4160   39.7940 N   0  0  0  0  0  0  0  0  0  0  0  0
   39.0150   25.9900   40.4380 H   0  0  0  0  0  0  0  0  0  0  0  0
   40.4170   28.7950   43.3640 H   0  0  0  0  0  0  0  0  0  0  0  0
   41.8270   29.0550   39.4720 H   0  0  0  0  0  0  0  0  0  0  0  0
  1  2  1  0  0  0  0
  1  6  1  1  0  0  0
  1 21  1  0  0  0  0
  3  1  1  0  0  0  0
  3  2  1  1  0  0  0
  4  7  1  0  0  0  0
  4  8  1  0  0  0  0
  4  3  1  0  0  0  0
  5  9  1  6  0  0  0
  5  4  1  0  0  0  0
  5  3  1  0  0  0  0
 10 11  1  0  0  0  0
 10  5  1  0  0  0  0
 12 11  2  0  0  0  0
 13 12  1  0  0  0  0
 14 13  1  0  0  0  0
 15 13  2  0  0  0  0
 15 16  1  0  0  0  0
 16 10  1  0  0  0  0
 17 16  2  0  0  0  0
 18 14  1  0  0  0  0
 19 14  1  0  0  0  0
 20 21  1  0  0  0  0
 20 23  1  1  0  0  0
 21 24  1  1  0  0  0
 22 20  1  0  0  0  0
 22 25  1  0  0  0  0
 22 21  1  0  0  0  0
 26 22  1  0  0  0  0
 27 28  1  0  0  0  0
 28 29  2  0  0  0  0
 28 20  1  0  0  0  0
 29 34  1  0  0  0  0
 30 29  1  0  0  0  0
 31 30  2  0  0  0  0
 32 31  1  0  0  0  0
 32 27  2  0  0  0  0
 33 27  1  0  0  0  0
 35 31  1  0  0  0  0
M  END
>  <minimizedAffinity>
-5.41314888

$$$$

 OpenBabel03242511523D

 35 39  0  0  1  0  0  0  0  0999 V2000
   38.4190   26.6560   42.6020 C   0  0  1  0  0  0  0  0  0  0  0  0
   39.5460   27.1840   42.6760 O   0  0  0  0  0  0  0  0  0  0  0  0
   38.4640   28.1120   42.4610 C   0  0  2  0  0  0  0  0  0  0  0  0
   37.6720   28.8160   43.5690 C   0  0  0  0  0  0  0  0  0  0  0  0
   37.3960   29.0460   42.1850 C   0  0  1  0  0  0  0  0  0  0  0  0
   38.1900   26.4120   43.7370 H   0  0  0  0  0  0  0  0  0  0  0  0
   38.3250   29.4550   44.1950 H   0  0  0  0  0  0  0  0  0  0  0  0
   36.9510   28.2540   44.1900 H   0  0  0  0  0  0  0  0  0  0  0  0
   36.4900   28.5180   41.7600 H   0  0  0  0  0  0  0  0  0  0  0  0
   37.7870   30.3100   41.5730 N   0  0  0  0  0  0  0  0  0  0  0  0
   39.0100   30.8410   41.7610 C   0  0  0  0  0  3  0  0  0  0  0  0
   39.2570   32.0280   41.1370 C   0  0  0  0  0  3  0  0  0  0  0  0
   38.3420   32.6890   40.3440 C   0  0  0  0  0  0  0  0  0  0  0  0
   38.6540   33.9250   39.7160 N   0  0  0  0  0  0  0  0  0  0  0  0
   37.1270   32.1060   40.1910 N   0  0  0  0  0  0  0  0  0  0  0  0
   36.8600   30.9410   40.7950 C   0  0  0  0  0  0  0  0  0  0  0  0
   35.7280   30.4270   40.6350 O   0  0  0  0  0  0  0  0  0  0  0  0
   38.0170   34.7700   39.7910 H   0  0  0  0  0  0  0  0  0  0  0  0
   39.4720   34.2140   39.1270 H   0  0  0  0  0  0  0  0  0  0  0  0
   37.9420   24.7840   40.8920 C   0  0  1  0  0  0  0  0  0  0  0  0
   38.4230   25.2490   42.1620 C   0  0  2  0  0  0  0  0  0  0  0  0
   37.0580   24.6790   42.0370 C   0  0  0  0  0  0  0  0  0  0  0  0
   38.4090   23.8350   40.4910 H   0  0  0  0  0  0  0  0  0  0  0  0
   39.1290   24.5510   42.7050 H   0  0  0  0  0  0  0  0  0  0  0  0
   36.8190   23.6730   42.4590 H   0  0  0  0  0  0  0  0  0  0  0  0
   36.1430   25.3260   42.0800 H   0  0  0  0  0  0  0  0  0  0  0  0
   36.4490   26.2770   39.6680 C   0  0  0  0  0  0  0  0  0  0  0  0
   37.7250   25.7510   39.8100 C   0  0  0  0  0  0  0  0  0  0  0  0
   38.7580   26.1850   38.9880 C   0  0  0  0  0  0  0  0  0  0  0  0
   38.4450   27.1360   38.0620 N   0  0  0  0  0  0  0  0  0  0  0  0
   37.1990   27.6500   37.9260 C   0  0  0  0  0  0  0  0  0  0  0  0
   36.2040   27.2050   38.7440 N   0  0  0  0  0  0  0  0  0  0  0  0
   35.6340   25.9480   40.3000 H   0  0  0  0  0  0  0  0  0  0  0  0
   39.7440   25.7900   39.0820 H   0  0  0  0  0  0  0  0  0  0  0  0
   37.1570   28.3880   37.1420 H   0  0  0  0  0  0  0  0  0  0  0  0
  1  2  1  0  0  0  0
  1  6  1  1  0  0  0
  3  1  1  0  0  0  0
  3  2  1  6  0  0  0
  3  4  1  0  0  0  0
  4  8  1  0  0  0  0
  4  7  1  0  0  0  0
  5  9  1  6  0  0  0
  5  3  1  0  0  0  0
  5  4  1  0  0  0  0
 10 11  1  0  0  0  0
 10  5  1  0  0  0  0
 12 11  2  0  0  0  0
 13 12  1  0  0  0  0
 14 18  1  0  0  0  0
 14 13  1  0  0  0  0
 15 13  2  0  0  0  0
 15 16  1  0  0  0  0
 16 10  1  0  0  0  0
 17 16  2  0  0  0  0
 19 14  1  0  0  0  0
 20 23  1  6  0  0  0
 20 22  1  0  0  0  0
 20 21  1  0  0  0  0
 21  1  1  0  0  0  0
 21 24  1  1  0  0  0
 22 26  1  0  0  0  0
 22 21  1  0  0  0  0
 22 25  1  0  0  0  0
 27 28  1  0  0  0  0
 27 33  1  0  0  0  0
 28 20  1  0  0  0  0
 29 34  1  0  0  0  0
 29 28  2  0  0  0  0
 30 29  1  0  0  0  0
 31 30  2  0  0  0  0
 31 32  1  0  0  0  0
 32 27  2  0  0  0  0
 35 31  1  0  0  0  0
M  END
>  <minimizedAffinity>
-5.39156532

$$$$

 OpenBabel03242511523D

 35 39  0  0  1  0  0  0  0  0999 V2000
   37.2040   31.0500   40.9850 C   0  0  1  0  0  0  0  0  0  0  0  0
   36.1830   30.4850   41.4230 O   0  0  0  0  0  0  0  0  0  0  0  0
   37.3810   29.6840   41.4790 C   0  0  2  0  0  0  0  0  0  0  0  0
   38.3500   29.6290   42.6660 C   0  0  0  0  0  0  0  0  0  0  0  0
   38.5610   28.8500   41.4860 C   0  0  1  0  0  0  0  0  0  0  0  0
   37.4710   31.7890   41.8700 H   0  0  0  0  0  0  0  0  0  0  0  0
   37.8520   29.2580   43.5830 H   0  0  0  0  0  0  0  0  0  0  0  0
   39.0140   30.4820   42.8890 H   0  0  0  0  0  0  0  0  0  0  0  0
   39.3390   29.2370   40.7620 H   0  0  0  0  0  0  0  0  0  0  0  0
   38.3330   27.4100   41.5220 N   0  0  0  0  0  0  0  0  0  0  0  0
   37.3080   26.8710   42.2100 C   0  0  0  0  0  3  0  0  0  0  0  0
   37.1990   25.5120   42.1690 C   0  0  0  0  0  3  0  0  0  0  0  0
   38.0620   24.6900   41.4760 C   0  0  0  0  0  0  0  0  0  0  0  0
   37.9000   23.2770   41.4680 N   0  0  0  0  0  0  0  0  0  0  0  0
   39.0750   25.2880   40.8020 N   0  0  0  0  0  0  0  0  0  0  0  0
   39.2030   26.6210   40.8270 C   0  0  0  0  0  0  0  0  0  0  0  0
   40.1490   27.1460   40.1950 O   0  0  0  0  0  0  0  0  0  0  0  0
   38.7030   22.6180   41.6870 H   0  0  0  0  0  0  0  0  0  0  0  0
   37.0630   22.6780   41.2680 H   0  0  0  0  0  0  0  0  0  0  0  0
   37.2970   32.0440   38.6070 C   0  0  1  0  0  0  0  0  0  0  0  0
   36.9460   32.1130   39.9970 C   0  0  2  0  0  0  0  0  0  0  0  0
   38.1890   32.7550   39.5010 C   0  0  0  0  0  0  0  0  0  0  0  0
   36.6610   32.6520   37.8950 H   0  0  0  0  0  0  0  0  0  0  0  0
   36.1510   32.8720   40.2660 H   0  0  0  0  0  0  0  0  0  0  0  0
   38.2690   33.8670   39.4330 H   0  0  0  0  0  0  0  0  0  0  0  0
   39.2020   32.3230   39.7170 H   0  0  0  0  0  0  0  0  0  0  0  0
   38.9770   30.3910   37.9760 C   0  0  0  0  0  0  0  0  0  0  0  0
   37.6350   30.7440   38.0160 C   0  0  0  0  0  0  0  0  0  0  0  0
   36.6630   29.8600   37.5660 C   0  0  0  0  0  0  0  0  0  0  0  0
   37.1000   28.6550   37.0990 N   0  0  0  0  0  0  0  0  0  0  0  0
   38.4100   28.3100   37.0630 C   0  0  0  0  0  0  0  0  0  0  0  0
   39.3430   29.1980   37.5080 N   0  0  0  0  0  0  0  0  0  0  0  0
   39.7460   31.0690   38.3210 H   0  0  0  0  0  0  0  0  0  0  0  0
   35.6280   30.1170   37.5880 H   0  0  0  0  0  0  0  0  0  0  0  0
   38.5490   27.3200   36.6630 H   0  0  0  0  0  0  0  0  0  0  0  0
  1  2  1  0  0  0  0
  1  3  1  0  0  0  0
  1  6  1  1  0  0  0
  3  2  1  1  0  0  0
  3  5  1  0  0  0  0
  3  4  1  0  0  0  0
  4  8  1  0  0  0  0
  4  7  1  0  0  0  0
  5  9  1  6  0  0  0
  5 10  1  0  0  0  0
  5  4  1  0  0  0  0
 10 11  1  0  0  0  0
 12 11  2  0  0  0  0
 13 12  1  0  0  0  0
 14 13  1  0  0  0  0
 14 18  1  0  0  0  0
 15 16  1  0  0  0  0
 15 13  2  0  0  0  0
 16 10  1  0  0  0  0
 17 16  2  0  0  0  0
 19 14  1  0  0  0  0
 20 23  1  6  0  0  0
 20 22  1  0  0  0  0
 20 21  1  0  0  0  0
 21 24  1  1  0  0  0
 21  1  1  0  0  0  0
 22 26  1  0  0  0  0
 22 21  1  0  0  0  0
 25 22  1  0  0  0  0
 27 28  1  0  0  0  0
 27 33  1  0  0  0  0
 28 20  1  0  0  0  0
 29 34  1  0  0  0  0
 29 28  2  0  0  0  0
 30 29  1  0  0  0  0
 31 30  2  0  0  0  0
 31 32  1  0  0  0  0
 32 27  2  0  0  0  0
 35 31  1  0  0  0  0
M  END
>  <minimizedAffinity>
-5.35716963

$$$$

 OpenBabel03242511523D

 35 39  0  0  1  0  0  0  0  0999 V2000
   36.8100   26.3060   42.0940 C   0  0  1  0  0  0  0  0  0  0  0  0
   36.9130   26.9010   43.1840 O   0  0  0  0  0  0  0  0  0  0  0  0
   37.3390   27.6700   42.0410 C   0  0  2  0  0  0  0  0  0  0  0  0
   36.4400   28.5980   41.2170 C   0  0  0  0  0  0  0  0  0  0  0  0
   37.8260   28.4280   40.9110 C   0  0  1  0  0  0  0  0  0  0  0  0
   35.6460   26.3650   41.8930 H   0  0  0  0  0  0  0  0  0  0  0  0
   36.0280   29.4210   41.8330 H   0  0  0  0  0  0  0  0  0  0  0  0
   35.6710   28.1820   40.5410 H   0  0  0  0  0  0  0  0  0  0  0  0
   38.0680   27.7520   40.0380 H   0  0  0  0  0  0  0  0  0  0  0  0
   38.7670   29.5010   41.2120 N   0  0  0  0  0  0  0  0  0  0  0  0
   39.1630   29.7650   42.4720 C   0  0  0  0  0  3  0  0  0  0  0  0
   40.0450   30.7930   42.6270 C   0  0  0  0  0  3  0  0  0  0  0  0
   40.5370   31.5510   41.5850 C   0  0  0  0  0  0  0  0  0  0  0  0
   41.4570   32.6130   41.8050 N   0  0  0  0  0  0  0  0  0  0  0  0
   40.1020   31.2400   40.3390 N   0  0  0  0  0  0  0  0  0  0  0  0
   39.2360   30.2350   40.1620 C   0  0  0  0  0  0  0  0  0  0  0  0
   38.8520   29.9710   38.9980 O   0  0  0  0  0  0  0  0  0  0  0  0
   41.3050   33.5810   41.3990 H   0  0  0  0  0  0  0  0  0  0  0  0
   42.3560   32.6490   42.3430 H   0  0  0  0  0  0  0  0  0  0  0  0
   38.0270   24.0350   41.9700 C   0  0  1  0  0  0  0  0  0  0  0  0
   36.8550   24.8350   42.1850 C   0  0  2  0  0  0  0  0  0  0  0  0
   37.0900   24.1820   40.8730 C   0  0  0  0  0  0  0  0  0  0  0  0
   38.0650   23.0400   42.5070 H   0  0  0  0  0  0  0  0  0  0  0  0
   36.0210   24.3390   42.7660 H   0  0  0  0  0  0  0  0  0  0  0  0
   36.4730   23.3080   40.5520 H   0  0  0  0  0  0  0  0  0  0  0  0
   37.3980   24.7700   39.9680 H   0  0  0  0  0  0  0  0  0  0  0  0
   39.9810   24.8190   43.2030 C   0  0  0  0  0  0  0  0  0  0  0  0
   39.3460   24.6780   41.9770 C   0  0  0  0  0  0  0  0  0  0  0  0
   39.9810   25.0780   40.8080 C   0  0  0  0  0  0  0  0  0  0  0  0
   41.2330   25.6020   40.9400 N   0  0  0  0  0  0  0  0  0  0  0  0
   41.8530   25.7380   42.1370 C   0  0  0  0  0  0  0  0  0  0  0  0
   41.2060   25.3390   43.2680 N   0  0  0  0  0  0  0  0  0  0  0  0
   39.4990   24.5130   44.1220 H   0  0  0  0  0  0  0  0  0  0  0  0
   39.5060   24.9790   39.8580 H   0  0  0  0  0  0  0  0  0  0  0  0
   42.8340   26.1690   42.0300 H   0  0  0  0  0  0  0  0  0  0  0  0
  1  6  1  6  0  0  0
  1 21  1  0  0  0  0
  1  2  1  0  0  0  0
  3  1  1  0  0  0  0
  3  2  1  1  0  0  0
  4  7  1  0  0  0  0
  4  3  1  0  0  0  0
  5  9  1  6  0  0  0
  5 10  1  0  0  0  0
  5  4  1  0  0  0  0
  5  3  1  0  0  0  0
  8  4  1  0  0  0  0
 10 11  1  0  0  0  0
 11 12  2  0  0  0  0
 13 14  1  0  0  0  0
 13 12  1  0  0  0  0
 14 19  1  0  0  0  0
 15 13  2  0  0  0  0
 16 15  1  0  0  0  0
 16 10  1  0  0  0  0
 17 16  2  0  0  0  0
 18 14  1  0  0  0  0
 20 28  1  0  0  0  0
 20 21  1  0  0  0  0
 20 23  1  1  0  0  0
 21 24  1  1  0  0  0
 22 20  1  0  0  0  0
 22 21  1  0  0  0  0
 25 22  1  0  0  0  0
 26 22  1  0  0  0  0
 27 32  1  0  0  0  0
 27 33  1  0  0  0  0
 28 27  2  0  0  0  0
 29 30  2  0  0  0  0
 29 28  1  0  0  0  0
 30 31  1  0  0  0  0
 31 32  2  0  0  0  0
 34 29  1  0  0  0  0
 35 31  1  0  0  0  0
M  END
>  <minimizedAffinity>
-5.28552055

$$$$
