
 OpenBabel03252506283D

 48 52  0  0  0  0  0  0  0  0999 V2000
   46.4610   32.5930   45.5730 C   0  0  0  0  0  0  0  0  0  0  0  0
   47.3960   31.5690   45.2700 C   0  0  0  0  0  0  0  0  0  0  0  0
   47.5320   30.7800   46.3560 C   0  0  0  0  0  0  0  0  0  0  0  0
   46.7240   31.2850   47.2940 N   0  0  0  0  0  0  0  0  0  0  0  0
   46.0830   32.3660   46.8320 N   0  0  0  0  0  0  0  0  0  0  0  0
   47.8960   31.4760   44.3030 H   0  0  0  0  0  0  0  0  0  0  0  0
   48.1700   29.9110   46.4550 H   0  0  0  0  0  0  0  0  0  0  0  0
   44.8390   35.5580   44.2090 C   0  0  0  0  0  0  0  0  0  0  0  0
   45.2840   35.6130   42.9000 C   0  0  0  0  0  0  0  0  0  0  0  0
   46.1560   34.6110   42.4880 C   0  0  0  0  0  0  0  0  0  0  0  0
   46.5110   33.6530   43.3840 N   0  0  0  0  0  0  0  0  0  0  0  0
   46.0680   33.6240   44.6350 C   0  0  0  0  0  0  0  0  0  0  0  0
   45.2230   34.5910   45.0450 N   0  0  0  0  0  0  0  0  0  0  0  0
   44.1620   36.3660   44.4680 H   0  0  0  0  0  0  0  0  0  0  0  0
   45.0620   36.3210   42.1300 H   0  0  0  0  0  0  0  0  0  0  0  0
   46.7630   34.4320   41.1990 N   0  0  0  0  0  0  0  0  0  0  0  0
   46.2500   33.6880   40.2020 C   0  0  0  0  0  3  0  0  0  0  0  0
   46.9360   33.5930   38.9930 C   0  0  0  0  0  3  0  0  0  0  0  0
   48.1270   34.2810   38.8820 C   0  0  0  0  0  0  0  0  0  0  0  0
   48.8200   34.1760   37.6390 N   0  0  0  0  0  0  0  0  0  0  0  0
   48.6020   35.0130   39.9050 N   0  0  0  0  0  0  0  0  0  0  0  0
   47.9250   35.1020   41.0870 C   0  0  0  0  0  0  0  0  0  0  0  0
   48.4420   35.8090   41.9890 O   0  0  0  0  0  0  0  0  0  0  0  0
   49.6580   33.7010   37.2070 H   0  0  0  0  0  0  0  0  0  0  0  0
   48.2890   34.7860   36.9530 H   0  0  0  0  0  0  0  0  0  0  0  0
   46.5510   30.7490   48.6350 C   0  0  0  0  0  0  0  0  0  0  0  0
   47.2770   29.9620   48.8320 H   0  0  0  0  0  0  0  0  0  0  0  0
   46.6930   31.5580   49.3970 H   0  0  0  0  0  0  0  0  0  0  0  0
   45.1650   30.2250   48.8090 C   0  0  0  0  0  0  0  0  0  0  0  0
   44.4630   31.0620   48.6150 H   0  0  0  0  0  0  0  0  0  0  0  0
   45.0300   29.9760   49.9020 H   0  0  0  0  0  0  0  0  0  0  0  0
   44.9240   27.7050   48.3990 C   0  0  0  0  0  0  0  0  0  0  0  0
   44.8090   29.0390   48.0550 C   0  0  0  0  0  0  0  0  0  0  0  0
   44.2720   29.2980   46.7910 C   0  0  0  0  0  0  0  0  0  0  0  0
   43.8840   28.2930   45.9520 C   0  0  0  0  0  0  0  0  0  0  0  0
   43.3480   28.2380   44.7110 N   0  0  0  0  0  0  0  0  0  0  0  0
   43.1480   26.9770   44.3230 C   0  0  0  0  0  0  0  0  0  0  0  0
   43.5610   26.1280   45.3330 C   0  0  0  0  0  0  0  0  0  0  0  0
   44.0050   26.9720   46.3110 C   0  0  0  0  0  0  0  0  0  0  0  0
   44.5320   26.7010   47.5510 C   0  0  0  0  0  0  0  0  0  0  0  0
   45.3450   27.5500   49.3870 H   0  0  0  0  0  0  0  0  0  0  0  0
   44.1270   30.3000   46.3960 H   0  0  0  0  0  0  0  0  0  0  0  0
   43.1260   29.0900   44.1440 H   0  0  0  0  0  0  0  0  0  0  0  0
   42.7240   26.7140   43.3550 H   0  0  0  0  0  0  0  0  0  0  0  0
   43.5040   25.0500   45.2650 H   0  0  0  0  0  0  0  0  0  0  0  0
   44.6860   25.3160   47.9870 C   0  0  0  0  0  0  0  0  0  0  0  0
   45.1640   25.0370   49.1220 O   0  0  0  0  0  0  0  0  0  0  0  0
   44.3960   24.4790   47.3590 H   0  0  0  0  0  0  0  0  0  0  0  0
  1  5  2  0  0  0  0
  2  1  1  0  0  0  0
  2  3  2  0  0  0  0
  3  7  1  0  0  0  0
  3  4  1  0  0  0  0
  4 26  1  0  0  0  0
  5  4  1  0  0  0  0
  6  2  1  0  0  0  0
  8 14  1  0  0  0  0
  8 13  1  0  0  0  0
  9  8  2  0  0  0  0
 10  9  1  0  0  0  0
 10 11  2  0  0  0  0
 11 12  1  0  0  0  0
 12 13  2  0  0  0  0
 12  1  1  0  0  0  0
 15  9  1  0  0  0  0
 16 10  1  0  0  0  0
 17 16  1  0  0  0  0
 18 17  2  0  0  0  0
 19 18  1  0  0  0  0
 19 21  2  0  0  0  0
 20 19  1  0  0  0  0
 21 22  1  0  0  0  0
 22 16  1  0  0  0  0
 22 23  2  0  0  0  0
 24 20  1  0  0  0  0
 25 20  1  0  0  0  0
 26 29  1  0  0  0  0
 26 27  1  0  0  0  0
 26 28  1  0  0  0  0
 29 31  1  0  0  0  0
 30 29  1  0  0  0  0
 32 41  1  0  0  0  0
 33 32  1  0  0  0  0
 33 29  1  0  0  0  0
 34 33  2  0  0  0  0
 35 39  2  0  0  0  0
 35 34  1  0  0  0  0
 36 35  1  0  0  0  0
 37 36  1  0  0  0  0
 37 38  2  0  0  0  0
 38 39  1  0  0  0  0
 39 40  1  0  0  0  0
 40 46  1  0  0  0  0
 40 32  2  0  0  0  0
 42 34  1  0  0  0  0
 43 36  1  0  0  0  0
 44 37  1  0  0  0  0
 45 38  1  0  0  0  0
 46 47  2  0  0  0  0
 48 46  1  0  0  0  0
M  END
>  <minimizedAffinity>
-6.29232931

>  <minimizedRMSD>
1.012537

$$$$
