
 OpenBabel03252507073D

 25 26  0  0  0  0  0  0  0  0999 V2000
   44.5260   35.9670   44.3590 C   0  0  0  0  0  0  0  0  0  0  0  0
   44.3830   35.3220   43.1130 C   0  0  0  0  0  0  0  0  0  0  0  0
   44.7100   33.9800   43.0410 C   0  0  0  0  0  0  0  0  0  0  0  0
   45.1510   33.3480   44.1640 N   0  0  0  0  0  0  0  0  0  0  0  0
   45.2760   33.9890   45.3320 C   0  0  0  0  0  0  0  0  0  0  0  0
   44.9650   35.3020   45.4410 N   0  0  0  0  0  0  0  0  0  0  0  0
   44.3010   37.0020   44.5250 H   0  0  0  0  0  0  0  0  0  0  0  0
   44.0200   35.9430   42.2970 H   0  0  0  0  0  0  0  0  0  0  0  0
   45.7500   33.1710   46.3980 N   0  0  0  0  0  0  0  0  0  0  0  0
   44.9830   33.1360   47.5020 C   0  0  0  0  0  3  0  0  0  0  0  0
   45.4430   32.3450   48.5350 C   0  0  0  0  0  3  0  0  0  0  0  0
   46.6310   31.6690   48.3480 C   0  0  0  0  0  0  0  0  0  0  0  0
   47.2020   30.8260   49.3420 N   0  0  0  0  0  0  0  0  0  0  0  0
   47.3590   31.7510   47.2020 N   0  0  0  0  0  0  0  0  0  0  0  0
   46.9100   32.5280   46.1830 C   0  0  0  0  0  0  0  0  0  0  0  0
   47.5280   32.6530   45.0950 O   0  0  0  0  0  0  0  0  0  0  0  0
   47.9750   31.3960   49.7510 H   0  0  0  0  0  0  0  0  0  0  0  0
   47.2460   29.9280   49.8750 H   0  0  0  0  0  0  0  0  0  0  0  0
   44.5580   33.3710   41.7980 O   0  0  0  0  0  0  0  0  0  0  0  0
   45.7460   31.5300   40.3080 O   0  0  0  0  0  0  0  0  0  0  0  0
   45.9590   32.9110   40.9220 P   0  0  0  0  0  0  0  0  0  0  0  0
   46.2570   34.0720   39.7540 O   0  0  0  0  0  0  0  0  0  0  0  0
   46.8670   34.7560   40.1010 H   0  0  0  0  0  0  0  0  0  0  0  0
   47.2330   32.7840   42.0320 O   0  0  0  0  0  0  0  0  0  0  0  0
   47.1110   31.8890   42.4690 H   0  0  0  0  0  0  0  0  0  0  0  0
  1  7  1  0  0  0  0
  1  6  1  0  0  0  0
  2  1  2  0  0  0  0
  3  2  1  0  0  0  0
  3  4  2  0  0  0  0
  4  5  1  0  0  0  0
  5  6  2  0  0  0  0
  5  9  1  0  0  0  0
  8  2  1  0  0  0  0
  9 10  1  0  0  0  0
 10 11  2  0  0  0  0
 12 11  1  0  0  0  0
 12 13  1  0  0  0  0
 13 17  1  0  0  0  0
 13 18  1  0  0  0  0
 14 12  2  0  0  0  0
 15  9  1  0  0  0  0
 15 14  1  0  0  0  0
 16 15  2  0  0  0  0
 19  3  1  0  0  0  0
 20 21  2  0  0  0  0
 21 19  1  0  0  0  0
 21 24  1  0  0  0  0
 22 23  1  0  0  0  0
 22 21  1  0  0  0  0
 24 25  1  0  0  0  0
M  END
>  <minimizedAffinity>
-5.1880455

>  <minimizedRMSD>
1.86613667

$$$$
