
 OpenBabel03252508263D

 42 46  0  0  1  0  0  0  0  0999 V2000
   49.5240   28.5560   47.0710 C   0  0  1  0  0  0  0  0  0  0  0  0
   50.0800   29.4270   48.1180 C   0  0  0  0  0  0  0  0  0  0  0  0
   48.9240   29.8700   47.1410 C   0  0  2  0  0  0  0  0  0  0  0  0
   49.1670   27.6170   47.6280 H   0  0  0  0  0  0  0  0  0  0  0  0
   49.7160   29.4520   49.1600 H   0  0  0  0  0  0  0  0  0  0  0  0
   51.0310   29.9650   47.9980 H   0  0  0  0  0  0  0  0  0  0  0  0
   49.3550   30.7900   46.6230 H   0  0  0  0  0  0  0  0  0  0  0  0
   47.5980   30.1800   47.6840 C   0  0  0  0  0  0  0  0  0  0  0  0
   47.3000   30.8890   48.8030 C   0  0  0  0  0  0  0  0  0  0  0  0
   46.0370   31.0670   49.3340 C   0  0  0  0  0  0  0  0  0  0  0  0
   44.9760   30.4550   48.6490 C   0  0  0  0  0  0  0  0  0  0  0  0
   45.2510   29.7220   47.4950 C   0  0  0  0  0  0  0  0  0  0  0  0
   44.1720   29.1890   46.8180 C   0  0  0  0  0  0  0  0  0  0  0  0
   44.3870   28.5110   45.6290 C   0  0  0  0  0  0  0  0  0  0  0  0
   45.6620   28.3720   45.1210 C   0  0  0  0  0  0  0  0  0  0  0  0
   46.7000   28.9210   45.8370 C   0  0  0  0  0  0  0  0  0  0  0  0
   46.5390   29.5980   47.0310 C   0  0  0  0  0  0  0  0  0  0  0  0
   48.1570   31.3430   49.3000 H   0  0  0  0  0  0  0  0  0  0  0  0
   45.8680   31.6470   50.2320 H   0  0  0  0  0  0  0  0  0  0  0  0
   43.9680   30.5650   49.0300 H   0  0  0  0  0  0  0  0  0  0  0  0
   43.1800   29.3130   47.2360 H   0  0  0  0  0  0  0  0  0  0  0  0
   43.4590   28.1260   45.1770 H   0  0  0  0  0  0  0  0  0  0  0  0
   45.6310   27.8240   44.1950 H   0  0  0  0  0  0  0  0  0  0  0  0
   47.5350   28.7620   45.2180 H   0  0  0  0  0  0  0  0  0  0  0  0
   51.9410   26.8190   44.8850 C   0  0  0  0  0  0  0  0  0  0  0  0
   51.8360   27.5660   43.6630 C   0  0  0  0  0  0  0  0  0  0  0  0
   50.9110   28.6570   43.6250 C   0  0  0  0  0  0  0  0  0  0  0  0
   50.1760   28.9430   44.7240 N   0  0  0  0  0  0  0  0  0  0  0  0
   50.3280   28.1830   45.8670 C   0  0  0  0  0  0  0  0  0  0  0  0
   51.1770   27.1620   45.9400 N   0  0  0  0  0  0  0  0  0  0  0  0
   52.6210   26.0000   44.9480 H   0  0  0  0  0  0  0  0  0  0  0  0
   52.4460   27.2950   42.8170 H   0  0  0  0  0  0  0  0  0  0  0  0
   50.7960   29.4060   42.4210 N   0  0  0  0  0  0  0  0  0  0  0  0
   50.1220   28.9800   41.3630 C   0  0  0  0  0  3  0  0  0  0  0  0
   50.0740   29.7870   40.2430 C   0  0  0  0  0  3  0  0  0  0  0  0
   50.7160   31.0180   40.2200 C   0  0  0  0  0  0  0  0  0  0  0  0
   50.7400   31.9310   39.1370 N   0  0  0  0  0  0  0  0  0  0  0  0
   51.3890   31.4070   41.3210 N   0  0  0  0  0  0  0  0  0  0  0  0
   51.4270   30.6100   42.4050 C   0  0  0  0  0  0  0  0  0  0  0  0
   52.0670   31.0090   43.4130 O   0  0  0  0  0  0  0  0  0  0  0  0
   50.1560   32.7450   38.8160 H   0  0  0  0  0  0  0  0  0  0  0  0
   51.5850   31.6400   38.5750 H   0  0  0  0  0  0  0  0  0  0  0  0
  1  3  1  0  0  0  0
  1  4  1  1  0  0  0
  1  2  1  0  0  0  0
  2  5  1  0  0  0  0
  3  7  1  6  0  0  0
  3  8  1  0  0  0  0
  3  2  1  0  0  0  0
  6  2  1  0  0  0  0
  8  9  1  0  0  0  0
  9 18  1  0  0  0  0
  9 10  2  0  0  0  0
 10 19  1  0  0  0  0
 11 20  1  0  0  0  0
 11 10  1  0  0  0  0
 12 11  2  0  0  0  0
 13 21  1  0  0  0  0
 13 12  1  0  0  0  0
 14 13  2  0  0  0  0
 15 14  1  0  0  0  0
 15 16  2  0  0  0  0
 16 17  1  0  0  0  0
 17 12  1  0  0  0  0
 17  8  2  0  0  0  0
 22 14  1  0  0  0  0
 23 15  1  0  0  0  0
 24 16  1  0  0  0  0
 25 31  1  0  0  0  0
 25 30  1  0  0  0  0
 26 25  2  0  0  0  0
 27 26  1  0  0  0  0
 27 28  2  0  0  0  0
 28 29  1  0  0  0  0
 29 30  2  0  0  0  0
 29  1  1  0  0  0  0
 32 26  1  0  0  0  0
 33 27  1  0  0  0  0
 34 33  1  0  0  0  0
 35 34  2  0  0  0  0
 36 35  1  0  0  0  0
 36 38  2  0  0  0  0
 37 36  1  0  0  0  0
 38 39  1  0  0  0  0
 39 33  1  0  0  0  0
 39 40  2  0  0  0  0
 41 37  1  0  0  0  0
 42 37  1  0  0  0  0
M  END
>  <minimizedAffinity>
-3.82177401

>  <minimizedRMSD>
6.05362034

$$$$
