
 OpenBabel03252503433D

 35 37  0  0  1  0  0  0  0  0999 V2000
   44.9450   34.9360   45.0870 C   0  0  0  0  0  0  0  0  0  0  0  0
   45.6590   34.6280   43.9210 C   0  0  0  0  0  0  0  0  0  0  0  0
   46.4230   33.4470   43.9490 C   0  0  0  0  0  0  0  0  0  0  0  0
   46.4340   32.6860   45.0590 N   0  0  0  0  0  0  0  0  0  0  0  0
   45.7360   33.0140   46.1580 C   0  0  0  0  0  0  0  0  0  0  0  0
   44.9810   34.1440   46.1900 N   0  0  0  0  0  0  0  0  0  0  0  0
   44.3230   35.8160   45.1890 H   0  0  0  0  0  0  0  0  0  0  0  0
   46.9710   33.2170   43.0440 H   0  0  0  0  0  0  0  0  0  0  0  0
   47.2710   31.7770   47.6800 C   0  0  2  0  0  0  0  0  0  0  0  0
   45.8120   32.1070   47.2910 C   0  0  1  0  0  0  0  0  0  0  0  0
   45.3610   32.6080   48.4810 O   0  0  0  0  0  0  0  0  0  0  0  0
   45.8000   31.7850   49.4730 C   0  0  0  0  0  0  0  0  0  0  0  0
   46.9610   30.9690   48.9440 C   0  0  2  0  0  0  0  0  0  0  0  0
   47.7750   31.1800   46.9210 H   0  0  0  0  0  0  0  0  0  0  0  0
   45.2910   31.1480   47.0380 H   0  0  0  0  0  0  0  0  0  0  0  0
   45.0070   31.1120   49.8610 H   0  0  0  0  0  0  0  0  0  0  0  0
   46.1720   32.3750   50.3410 H   0  0  0  0  0  0  0  0  0  0  0  0
   46.6130   29.9780   48.6130 H   0  0  0  0  0  0  0  0  0  0  0  0
   47.8890   32.9110   48.0900 O   0  0  0  0  0  0  0  0  0  0  0  0
   48.0280   33.6020   47.3990 H   0  0  0  0  0  0  0  0  0  0  0  0
   48.0230   30.8950   49.8080 O   0  0  0  0  0  0  0  0  0  0  0  0
   48.8610   30.8050   49.3040 H   0  0  0  0  0  0  0  0  0  0  0  0
   45.5440   35.5520   42.7940 C   0  0  0  0  0  0  0  0  0  0  0  0
   46.5630   35.6050   42.3070 H   0  0  0  0  0  0  0  0  0  0  0  0
   45.3770   36.5890   43.1510 H   0  0  0  0  0  0  0  0  0  0  0  0
   44.5340   35.1940   41.8230 N   0  0  0  0  0  0  0  0  0  0  0  0
   43.2610   35.5900   42.0170 C   0  0  0  0  0  3  0  0  0  0  0  0
   42.2970   35.2380   41.0730 C   0  0  0  0  0  3  0  0  0  0  0  0
   42.7330   34.4950   39.9950 C   0  0  0  0  0  0  0  0  0  0  0  0
   41.7890   34.1100   39.0040 N   0  0  0  0  0  0  0  0  0  0  0  0
   44.0250   34.1140   39.8340 N   0  0  0  0  0  0  0  0  0  0  0  0
   44.9370   34.4680   40.7590 C   0  0  0  0  0  0  0  0  0  0  0  0
   46.0980   34.0900   40.5560 O   0  0  0  0  0  0  0  0  0  0  0  0
   42.0110   34.7280   38.1710 H   0  0  0  0  0  0  0  0  0  0  0  0
   40.9940   33.4930   38.7610 H   0  0  0  0  0  0  0  0  0  0  0  0
  1  7  1  0  0  0  0
  1  6  1  0  0  0  0
  2  3  1  0  0  0  0
  2  1  2  0  0  0  0
  3  4  2  0  0  0  0
  4  5  1  0  0  0  0
  5  6  2  0  0  0  0
  5 10  1  0  0  0  0
  8  3  1  0  0  0  0
  9 14  1  6  0  0  0
  9 19  1  0  0  0  0
  9 13  1  0  0  0  0
 10 15  1  6  0  0  0
 10  9  1  0  0  0  0
 10 11  1  0  0  0  0
 11 12  1  0  0  0  0
 12 16  1  0  0  0  0
 12 17  1  0  0  0  0
 13 18  1  6  0  0  0
 13 12  1  0  0  0  0
 13 21  1  0  0  0  0
 20 19  1  0  0  0  0
 22 21  1  0  0  0  0
 23 25  1  0  0  0  0
 23  2  1  0  0  0  0
 24 23  1  0  0  0  0
 26 27  1  0  0  0  0
 26 23  1  0  0  0  0
 28 27  2  0  0  0  0
 29 28  1  0  0  0  0
 30 29  1  0  0  0  0
 31 29  2  0  0  0  0
 31 32  1  0  0  0  0
 32 26  1  0  0  0  0
 33 32  2  0  0  0  0
 34 30  1  0  0  0  0
 35 30  1  0  0  0  0
M  END
>  <minimizedAffinity>
-6.22732258

>  <minimizedRMSD>
0.725407839

$$$$
