
 OpenBabel03252507073D

 25 26  0  0  0  0  0  0  0  0999 V2000
   44.5720   36.1330   44.5400 C   0  0  0  0  0  0  0  0  0  0  0  0
   45.1300   35.8930   43.2680 C   0  0  0  0  0  0  0  0  0  0  0  0
   45.8840   34.7460   43.1000 C   0  0  0  0  0  0  0  0  0  0  0  0
   46.0530   33.9090   44.1610 N   0  0  0  0  0  0  0  0  0  0  0  0
   45.5100   34.1640   45.3570 C   0  0  0  0  0  0  0  0  0  0  0  0
   44.7650   35.2770   45.5570 N   0  0  0  0  0  0  0  0  0  0  0  0
   43.9710   36.9890   44.7770 H   0  0  0  0  0  0  0  0  0  0  0  0
   44.9180   36.6420   42.5080 H   0  0  0  0  0  0  0  0  0  0  0  0
   45.7890   33.1800   46.3480 N   0  0  0  0  0  0  0  0  0  0  0  0
   44.9010   33.0850   47.3540 C   0  0  0  0  0  3  0  0  0  0  0  0
   45.1730   32.1320   48.3140 C   0  0  0  0  0  3  0  0  0  0  0  0
   46.3150   31.3710   48.1620 C   0  0  0  0  0  0  0  0  0  0  0  0
   46.6950   30.3600   49.0870 N   0  0  0  0  0  0  0  0  0  0  0  0
   47.1710   31.5210   47.1160 N   0  0  0  0  0  0  0  0  0  0  0  0
   46.9080   32.4570   46.1690 C   0  0  0  0  0  0  0  0  0  0  0  0
   47.6520   32.6520   45.1750 O   0  0  0  0  0  0  0  0  0  0  0  0
   47.4620   30.7970   49.6450 H   0  0  0  0  0  0  0  0  0  0  0  0
   46.6020   29.4040   49.4980 H   0  0  0  0  0  0  0  0  0  0  0  0
   46.4230   34.5360   41.8330 O   0  0  0  0  0  0  0  0  0  0  0  0
   48.3960   32.8850   41.2010 O   0  0  0  0  0  0  0  0  0  0  0  0
   48.1160   34.3080   41.6780 P   0  0  0  0  0  0  0  0  0  0  0  0
   48.7070   35.4510   40.6070 O   0  0  0  0  0  0  0  0  0  0  0  0
   48.9990   36.2510   41.0910 H   0  0  0  0  0  0  0  0  0  0  0  0
   48.7940   34.4710   43.2210 O   0  0  0  0  0  0  0  0  0  0  0  0
   48.6320   33.5900   43.6730 H   0  0  0  0  0  0  0  0  0  0  0  0
  1  7  1  0  0  0  0
  1  6  1  0  0  0  0
  2  1  2  0  0  0  0
  3  2  1  0  0  0  0
  3  4  2  0  0  0  0
  4  5  1  0  0  0  0
  5  6  2  0  0  0  0
  5  9  1  0  0  0  0
  8  2  1  0  0  0  0
  9 10  1  0  0  0  0
 10 11  2  0  0  0  0
 12 11  1  0  0  0  0
 12 13  1  0  0  0  0
 13 18  1  0  0  0  0
 13 17  1  0  0  0  0
 14 12  2  0  0  0  0
 15  9  1  0  0  0  0
 15 14  1  0  0  0  0
 16 15  2  0  0  0  0
 19  3  1  0  0  0  0
 20 21  2  0  0  0  0
 21 19  1  0  0  0  0
 21 24  1  0  0  0  0
 22 23  1  0  0  0  0
 22 21  1  0  0  0  0
 24 25  1  0  0  0  0
M  END
>  <minimizedAffinity>
-5.86580849

>  <minimizedRMSD>
0.562446415

$$$$
