
 OpenBabel03242511333D

 36 38  0  0  1  0  0  0  0  0999 V2000
   48.7070   32.2240   42.9260 C   0  0  0  0  0  3  0  0  0  0  0  0
   47.9760   33.3210   42.9650 C   0  0  0  0  0  3  0  0  0  0  0  0
   49.5470   31.9780   41.7600 C   0  0  0  0  0  0  0  0  0  0  0  0
   50.9340   31.8750   41.9720 C   0  0  0  0  0  0  0  0  0  0  0  0
   51.7680   31.6390   40.8770 C   0  0  0  0  0  0  0  0  0  0  0  0
   51.1980   31.5200   39.6490 N   0  0  0  0  0  0  0  0  0  0  0  0
   49.8680   31.6250   39.4780 C   0  0  0  0  0  0  0  0  0  0  0  0
   49.0670   31.8510   40.5290 N   0  0  0  0  0  0  0  0  0  0  0  0
   51.3650   31.9730   42.9690 H   0  0  0  0  0  0  0  0  0  0  0  0
   52.8250   31.5630   41.0600 H   0  0  0  0  0  0  0  0  0  0  0  0
   49.3570   31.4880   38.1560 N   0  0  0  0  0  0  0  0  0  0  0  0
   48.0540   31.2150   37.9580 C   0  0  0  0  0  3  0  0  0  0  0  0
   47.6070   31.0900   36.6370 C   0  0  0  0  0  3  0  0  0  0  0  0
   48.5550   31.2620   35.6610 C   0  0  0  0  0  0  0  0  0  0  0  0
   48.0850   31.1320   34.3280 N   0  0  0  0  0  0  0  0  0  0  0  0
   49.8560   31.5340   35.8810 N   0  0  0  0  0  0  0  0  0  0  0  0
   50.2680   31.6500   37.1600 C   0  0  0  0  0  0  0  0  0  0  0  0
   51.4740   31.9040   37.4010 O   0  0  0  0  0  0  0  0  0  0  0  0
   48.1850   30.7580   33.3740 H   0  0  0  0  0  0  0  0  0  0  0  0
   47.2060   31.5630   33.9160 H   0  0  0  0  0  0  0  0  0  0  0  0
   47.1060   33.6340   44.1100 C   0  0  0  0  0  0  0  0  0  0  0  0
   47.6120   34.3270   44.8060 H   0  0  0  0  0  0  0  0  0  0  0  0
   46.8560   32.6710   44.6150 H   0  0  0  0  0  0  0  0  0  0  0  0
   44.7350   36.2760   43.4360 C   0  0  1  0  0  0  0  0  0  0  0  0
   45.9060   35.4710   42.8680 C   0  0  0  0  0  0  0  0  0  0  0  0
   45.7690   34.2140   43.6540 C   0  0  2  0  0  0  0  0  0  0  0  0
   44.8910   34.4000   44.6760 O   0  0  0  0  0  0  0  0  0  0  0  0
   44.6980   35.7580   44.8540 C   0  0  0  0  0  0  0  0  0  0  0  0
   43.7950   36.0580   42.9180 H   0  0  0  0  0  0  0  0  0  0  0  0
   46.8200   36.0460   43.0720 H   0  0  0  0  0  0  0  0  0  0  0  0
   45.7110   35.3370   41.7640 H   0  0  0  0  0  0  0  0  0  0  0  0
   45.3170   33.4340   42.9750 H   0  0  0  0  0  0  0  0  0  0  0  0
   43.7310   35.9230   45.3630 H   0  0  0  0  0  0  0  0  0  0  0  0
   45.4710   36.2260   45.4810 H   0  0  0  0  0  0  0  0  0  0  0  0
   45.0170   37.6330   43.3670 O   0  0  0  0  0  0  0  0  0  0  0  0
   45.5430   37.9720   44.1320 H   0  0  0  0  0  0  0  0  0  0  0  0
  1  2  2  0  0  0  0
  2 21  1  0  0  0  0
  3  4  1  0  0  0  0
  3  1  1  0  0  0  0
  4  9  1  0  0  0  0
  5 10  1  0  0  0  0
  5  4  2  0  0  0  0
  6  5  1  0  0  0  0
  7  6  2  0  0  0  0
  7  8  1  0  0  0  0
  8  3  2  0  0  0  0
 11  7  1  0  0  0  0
 12 11  1  0  0  0  0
 13 12  2  0  0  0  0
 14 16  2  0  0  0  0
 14 13  1  0  0  0  0
 15 14  1  0  0  0  0
 16 17  1  0  0  0  0
 17 18  2  0  0  0  0
 17 11  1  0  0  0  0
 19 15  1  0  0  0  0
 20 15  1  0  0  0  0
 21 23  1  0  0  0  0
 21 22  1  0  0  0  0
 24 29  1  6  0  0  0
 24 28  1  0  0  0  0
 25 30  1  0  0  0  0
 25 24  1  0  0  0  0
 25 26  1  0  0  0  0
 26 32  1  6  0  0  0
 26 21  1  0  0  0  0
 26 27  1  0  0  0  0
 27 28  1  0  0  0  0
 28 33  1  0  0  0  0
 28 34  1  0  0  0  0
 31 25  1  0  0  0  0
 35 24  1  0  0  0  0
 35 36  1  0  0  0  0
M  END
>  <minimizedAffinity>
-5.16438484

>  <minimizedRMSD>
0.111180484

$$$$
