
 OpenBabel03242511083D

 44 48  0  0  1  0  0  0  0  0999 V2000
   47.2370   32.9130   44.2450 C   0  0  0  0  0  0  0  0  0  0  0  0
   47.2120   32.0670   45.3450 C   0  0  0  0  0  0  0  0  0  0  0  0
   46.3580   32.2530   46.4320 C   0  0  0  0  0  0  0  0  0  0  0  0
   45.4870   33.3200   46.4390 C   0  0  0  0  0  0  0  0  0  0  0  0
   45.4820   34.1670   45.3840 C   0  0  0  0  0  0  0  0  0  0  0  0
   44.6170   35.2420   45.3580 C   0  0  0  0  0  0  0  0  0  0  0  0
   44.5570   36.1330   44.3200 C   0  0  0  0  0  0  0  0  0  0  0  0
   45.4260   35.9110   43.2570 C   0  0  0  0  0  0  0  0  0  0  0  0
   46.2940   34.8280   43.2850 C   0  0  0  0  0  0  0  0  0  0  0  0
   46.3450   33.9480   44.3230 C   0  0  0  0  0  0  0  0  0  0  0  0
   47.8480   31.1990   45.4440 H   0  0  0  0  0  0  0  0  0  0  0  0
   46.3520   31.5840   47.2810 H   0  0  0  0  0  0  0  0  0  0  0  0
   44.8230   33.4660   47.2830 H   0  0  0  0  0  0  0  0  0  0  0  0
   43.9680   35.3630   46.2110 H   0  0  0  0  0  0  0  0  0  0  0  0
   43.8360   36.9430   44.4100 H   0  0  0  0  0  0  0  0  0  0  0  0
   45.3030   36.6700   42.4830 H   0  0  0  0  0  0  0  0  0  0  0  0
   47.0440   34.8550   42.0860 N   0  0  0  0  0  0  0  0  0  0  0  0
   48.2140   35.3600   41.6610 C   0  0  0  0  0  3  0  0  0  0  0  0
   48.6970   35.1650   40.3910 C   0  0  0  0  0  3  0  0  0  0  0  0
   47.9980   34.4270   39.4620 C   0  0  0  0  0  0  0  0  0  0  0  0
   48.6170   34.3110   38.1930 N   0  0  0  0  0  0  0  0  0  0  0  0
   46.8130   33.8940   39.8340 N   0  0  0  0  0  0  0  0  0  0  0  0
   46.3970   34.1290   41.1140 C   0  0  0  0  0  0  0  0  0  0  0  0
   45.2670   33.5400   41.2530 O   0  0  0  0  0  0  0  0  0  0  0  0
   49.6110   33.9770   38.2040 H   0  0  0  0  0  0  0  0  0  0  0  0
   47.9090   34.5980   37.4860 H   0  0  0  0  0  0  0  0  0  0  0  0
   48.1340   32.6350   43.2060 N   0  0  0  0  0  0  0  0  0  0  0  0
   47.9920   33.5610   42.7670 H   0  0  0  0  0  0  0  0  0  0  0  0
   50.1370   31.2420   42.5240 C   0  0  1  0  0  0  0  0  0  0  0  0
   48.9560   30.7760   41.7000 C   0  0  0  0  0  0  0  0  0  0  0  0
   48.8040   31.3700   43.0940 C   0  0  2  0  0  0  0  0  0  0  0  0
   50.6810   32.0480   41.9690 H   0  0  0  0  0  0  0  0  0  0  0  0
   48.8520   29.6600   41.6730 H   0  0  0  0  0  0  0  0  0  0  0  0
   48.5550   31.3700   40.8810 H   0  0  0  0  0  0  0  0  0  0  0  0
   48.5780   30.6920   43.9510 H   0  0  0  0  0  0  0  0  0  0  0  0
   53.1190   29.0630   42.7880 C   0  0  0  0  0  0  0  0  0  0  0  0
   52.8090   28.2900   43.9500 C   0  0  0  0  0  0  0  0  0  0  0  0
   51.5830   28.5500   44.6170 C   0  0  0  0  0  0  0  0  0  0  0  0
   50.7740   29.4990   44.1400 N   0  0  0  0  0  0  0  0  0  0  0  0
   51.0970   30.2160   43.0340 C   0  0  0  0  0  0  0  0  0  0  0  0
   52.2710   30.0010   42.3540 N   0  0  0  0  0  0  0  0  0  0  0  0
   54.0540   28.8610   42.2830 H   0  0  0  0  0  0  0  0  0  0  0  0
   53.5240   27.5500   44.2550 H   0  0  0  0  0  0  0  0  0  0  0  0
   51.3680   27.9600   45.4870 H   0  0  0  0  0  0  0  0  0  0  0  0
  1 10  2  0  0  0  0
  1  2  1  0  0  0  0
  2 11  1  0  0  0  0
  2  3  2  0  0  0  0
  3  4  1  0  0  0  0
  3 12  1  0  0  0  0
  4 13  1  0  0  0  0
  5  4  2  0  0  0  0
  6  5  1  0  0  0  0
  6 14  1  0  0  0  0
  7 15  1  0  0  0  0
  7  6  2  0  0  0  0
  8  9  2  0  0  0  0
  8  7  1  0  0  0  0
  9 10  1  0  0  0  0
 10  5  1  0  0  0  0
 16  8  1  0  0  0  0
 17  9  1  0  0  0  0
 18 17  1  0  0  0  0
 19 18  2  0  0  0  0
 20 22  2  0  0  0  0
 20 19  1  0  0  0  0
 21 25  1  0  0  0  0
 21 20  1  0  0  0  0
 22 23  1  0  0  0  0
 23 24  2  0  0  0  0
 23 17  1  0  0  0  0
 26 21  1  0  0  0  0
 27  1  1  0  0  0  0
 28 27  1  0  0  0  0
 29 32  1  6  0  0  0
 29 40  1  0  0  0  0
 29 31  1  0  0  0  0
 30 29  1  0  0  0  0
 30 31  1  0  0  0  0
 31 27  1  0  0  0  0
 31 35  1  1  0  0  0
 33 30  1  0  0  0  0
 34 30  1  0  0  0  0
 36 37  1  0  0  0  0
 37 43  1  0  0  0  0
 37 38  2  0  0  0  0
 38 44  1  0  0  0  0
 39 38  1  0  0  0  0
 40 39  2  0  0  0  0
 41 36  2  0  0  0  0
 41 40  1  0  0  0  0
 42 36  1  0  0  0  0
M  END
>  <minimizedAffinity>
-6.30607271

>  <minimizedRMSD>
2.7285459

$$$$
