
 OpenBabel03242511083D

 44 48  0  0  1  0  0  0  0  0999 V2000
   46.0000   32.3300   43.8730 C   0  0  0  0  0  0  0  0  0  0  0  0
   46.1600   31.7030   45.1010 C   0  0  0  0  0  0  0  0  0  0  0  0
   45.8930   32.3280   46.3180 C   0  0  0  0  0  0  0  0  0  0  0  0
   45.4460   33.6320   46.3310 C   0  0  0  0  0  0  0  0  0  0  0  0
   45.2760   34.2760   45.1530 C   0  0  0  0  0  0  0  0  0  0  0  0
   44.8240   35.5790   45.1310 C   0  0  0  0  0  0  0  0  0  0  0  0
   44.6260   36.2870   43.9750 C   0  0  0  0  0  0  0  0  0  0  0  0
   44.9050   35.6250   42.7840 C   0  0  0  0  0  0  0  0  0  0  0  0
   45.3590   34.3130   42.8090 C   0  0  0  0  0  0  0  0  0  0  0  0
   45.5520   33.6200   43.9650 C   0  0  0  0  0  0  0  0  0  0  0  0
   46.5020   30.6840   45.2100 H   0  0  0  0  0  0  0  0  0  0  0  0
   46.0250   31.8260   47.2650 H   0  0  0  0  0  0  0  0  0  0  0  0
   45.2380   34.1190   47.2760 H   0  0  0  0  0  0  0  0  0  0  0  0
   44.6250   36.0400   46.0860 H   0  0  0  0  0  0  0  0  0  0  0  0
   44.2670   37.3090   44.0800 H   0  0  0  0  0  0  0  0  0  0  0  0
   44.7170   36.2680   41.9230 H   0  0  0  0  0  0  0  0  0  0  0  0
   45.5540   33.9070   41.4680 N   0  0  0  0  0  0  0  0  0  0  0  0
   44.8360   33.3140   40.4990 C   0  0  0  0  0  3  0  0  0  0  0  0
   45.3260   33.0880   39.2370 C   0  0  0  0  0  3  0  0  0  0  0  0
   46.6030   33.4650   38.8830 C   0  0  0  0  0  0  0  0  0  0  0  0
   46.9720   33.1700   37.5480 N   0  0  0  0  0  0  0  0  0  0  0  0
   47.3710   34.0660   39.8190 N   0  0  0  0  0  0  0  0  0  0  0  0
   46.8170   34.2570   41.0530 C   0  0  0  0  0  0  0  0  0  0  0  0
   47.7040   34.8370   41.7740 O   0  0  0  0  0  0  0  0  0  0  0  0
   46.3100   33.5080   36.8100 H   0  0  0  0  0  0  0  0  0  0  0  0
   47.8730   32.6510   37.5940 H   0  0  0  0  0  0  0  0  0  0  0  0
   46.2970   31.6100   42.7090 N   0  0  0  0  0  0  0  0  0  0  0  0
   45.4530   31.9540   42.2190 H   0  0  0  0  0  0  0  0  0  0  0  0
   48.8050   31.2790   42.5820 C   0  0  1  0  0  0  0  0  0  0  0  0
   48.2100   30.7510   41.2940 C   0  0  0  0  0  0  0  0  0  0  0  0
   47.4480   30.7560   42.6120 C   0  0  2  0  0  0  0  0  0  0  0  0
   49.0780   32.3560   42.4490 H   0  0  0  0  0  0  0  0  0  0  0  0
   48.6070   29.7420   41.0080 H   0  0  0  0  0  0  0  0  0  0  0  0
   47.8310   31.4160   40.5200 H   0  0  0  0  0  0  0  0  0  0  0  0
   47.3120   29.7960   43.1640 H   0  0  0  0  0  0  0  0  0  0  0  0
   52.2150   29.9980   43.2440 C   0  0  0  0  0  0  0  0  0  0  0  0
   51.9760   29.0860   44.3190 C   0  0  0  0  0  0  0  0  0  0  0  0
   50.6460   28.9460   44.7930 C   0  0  0  0  0  0  0  0  0  0  0  0
   49.6760   29.6660   44.2240 N   0  0  0  0  0  0  0  0  0  0  0  0
   49.9350   30.5240   43.2040 C   0  0  0  0  0  0  0  0  0  0  0  0
   51.2060   30.6930   42.7120 N   0  0  0  0  0  0  0  0  0  0  0  0
   53.2310   30.1000   42.8870 H   0  0  0  0  0  0  0  0  0  0  0  0
   52.8220   28.5520   44.7100 H   0  0  0  0  0  0  0  0  0  0  0  0
   50.4860   28.2570   45.6000 H   0  0  0  0  0  0  0  0  0  0  0  0
  1 10  2  0  0  0  0
  1  2  1  0  0  0  0
  2 11  1  0  0  0  0
  2  3  2  0  0  0  0
  3  4  1  0  0  0  0
  3 12  1  0  0  0  0
  4 13  1  0  0  0  0
  5  4  2  0  0  0  0
  6  5  1  0  0  0  0
  6 14  1  0  0  0  0
  7 15  1  0  0  0  0
  7  6  2  0  0  0  0
  8  9  2  0  0  0  0
  8  7  1  0  0  0  0
  9 10  1  0  0  0  0
 10  5  1  0  0  0  0
 16  8  1  0  0  0  0
 17  9  1  0  0  0  0
 18 17  1  0  0  0  0
 19 18  2  0  0  0  0
 20 19  1  0  0  0  0
 20 22  2  0  0  0  0
 21 26  1  0  0  0  0
 21 20  1  0  0  0  0
 22 23  1  0  0  0  0
 23 17  1  0  0  0  0
 23 24  2  0  0  0  0
 25 21  1  0  0  0  0
 27  1  1  0  0  0  0
 28 27  1  0  0  0  0
 29 32  1  1  0  0  0
 29 31  1  0  0  0  0
 29 40  1  0  0  0  0
 30 29  1  0  0  0  0
 30 31  1  0  0  0  0
 31 27  1  0  0  0  0
 31 35  1  1  0  0  0
 33 30  1  0  0  0  0
 34 30  1  0  0  0  0
 36 37  1  0  0  0  0
 37 43  1  0  0  0  0
 37 38  2  0  0  0  0
 38 44  1  0  0  0  0
 39 38  1  0  0  0  0
 40 39  2  0  0  0  0
 41 40  1  0  0  0  0
 41 36  2  0  0  0  0
 42 36  1  0  0  0  0
M  END
>  <minimizedAffinity>
-5.15116692

>  <minimizedRMSD>
1.83091235

$$$$
