
 OpenBabel03242511333D

 36 38  0  0  1  0  0  0  0  0999 V2000
   48.1690   32.1660   42.4180 C   0  0  0  0  0  3  0  0  0  0  0  0
   48.0020   33.3620   42.9470 C   0  0  0  0  0  3  0  0  0  0  0  0
   49.0510   32.0230   41.2650 C   0  0  0  0  0  0  0  0  0  0  0  0
   50.4110   31.7680   41.5180 C   0  0  0  0  0  0  0  0  0  0  0  0
   51.2840   31.6260   40.4380 C   0  0  0  0  0  0  0  0  0  0  0  0
   50.7750   31.7390   39.1830 N   0  0  0  0  0  0  0  0  0  0  0  0
   49.4690   31.9830   38.9720 C   0  0  0  0  0  0  0  0  0  0  0  0
   48.6320   32.1200   40.0100 N   0  0  0  0  0  0  0  0  0  0  0  0
   50.7920   31.6810   42.5370 H   0  0  0  0  0  0  0  0  0  0  0  0
   52.3190   31.4320   40.6530 H   0  0  0  0  0  0  0  0  0  0  0  0
   49.0240   32.0880   37.6240 N   0  0  0  0  0  0  0  0  0  0  0  0
   48.9520   30.9910   36.8470 C   0  0  0  0  0  3  0  0  0  0  0  0
   48.5080   31.1530   35.5310 C   0  0  0  0  0  3  0  0  0  0  0  0
   48.1830   32.4320   35.1550 C   0  0  0  0  0  0  0  0  0  0  0  0
   47.7350   32.5770   33.8160 N   0  0  0  0  0  0  0  0  0  0  0  0
   48.2620   33.5170   35.9490 N   0  0  0  0  0  0  0  0  0  0  0  0
   48.6920   33.3420   37.2150 C   0  0  0  0  0  0  0  0  0  0  0  0
   48.7780   34.3330   37.9830 O   0  0  0  0  0  0  0  0  0  0  0  0
   47.7530   33.0700   32.9130 H   0  0  0  0  0  0  0  0  0  0  0  0
   47.0250   31.9690   33.3110 H   0  0  0  0  0  0  0  0  0  0  0  0
   47.1270   33.5810   44.1110 C   0  0  0  0  0  0  0  0  0  0  0  0
   47.6160   34.2470   44.8440 H   0  0  0  0  0  0  0  0  0  0  0  0
   46.9090   32.5830   44.5590 H   0  0  0  0  0  0  0  0  0  0  0  0
   44.7170   36.1980   43.4830 C   0  0  1  0  0  0  0  0  0  0  0  0
   45.8730   35.3930   42.8860 C   0  0  0  0  0  0  0  0  0  0  0  0
   45.7720   34.1460   43.6930 C   0  0  2  0  0  0  0  0  0  0  0  0
   44.9280   34.3410   44.7430 O   0  0  0  0  0  0  0  0  0  0  0  0
   44.7320   35.7010   44.9080 C   0  0  0  0  0  0  0  0  0  0  0  0
   43.7620   35.9670   43.0010 H   0  0  0  0  0  0  0  0  0  0  0  0
   46.7900   35.9760   43.0490 H   0  0  0  0  0  0  0  0  0  0  0  0
   45.6410   35.2410   41.7910 H   0  0  0  0  0  0  0  0  0  0  0  0
   45.3020   33.3540   43.0420 H   0  0  0  0  0  0  0  0  0  0  0  0
   43.7830   35.8670   45.4480 H   0  0  0  0  0  0  0  0  0  0  0  0
   45.5250   36.1820   45.5010 H   0  0  0  0  0  0  0  0  0  0  0  0
   44.9880   37.5560   43.3850 O   0  0  0  0  0  0  0  0  0  0  0  0
   45.5380   37.9090   44.1260 H   0  0  0  0  0  0  0  0  0  0  0  0
  1  2  2  0  0  0  0
  2 21  1  0  0  0  0
  3  4  1  0  0  0  0
  3  1  1  0  0  0  0
  4  9  1  0  0  0  0
  5 10  1  0  0  0  0
  5  4  2  0  0  0  0
  6  5  1  0  0  0  0
  7  6  2  0  0  0  0
  7  8  1  0  0  0  0
  8  3  2  0  0  0  0
 11  7  1  0  0  0  0
 12 11  1  0  0  0  0
 13 12  2  0  0  0  0
 14 13  1  0  0  0  0
 14 16  2  0  0  0  0
 15 14  1  0  0  0  0
 16 17  1  0  0  0  0
 17 11  1  0  0  0  0
 17 18  2  0  0  0  0
 19 15  1  0  0  0  0
 20 15  1  0  0  0  0
 21 23  1  0  0  0  0
 21 22  1  0  0  0  0
 24 29  1  6  0  0  0
 24 28  1  0  0  0  0
 25 30  1  0  0  0  0
 25 24  1  0  0  0  0
 25 26  1  0  0  0  0
 26 32  1  6  0  0  0
 26 21  1  0  0  0  0
 26 27  1  0  0  0  0
 27 28  1  0  0  0  0
 28 33  1  0  0  0  0
 28 34  1  0  0  0  0
 31 25  1  0  0  0  0
 35 24  1  0  0  0  0
 35 36  1  0  0  0  0
M  END
>  <minimizedAffinity>
-5.43802309

>  <minimizedRMSD>
0.685022354

$$$$
