
 OpenBabel03252500573D

 39 41  0  0  0  0  0  0  0  0999 V2000
   43.7150   33.7970   38.3380 O   0  0  0  0  0  0  0  0  0  0  0  0
   43.7020   33.7030   39.8580 P   0  0  1  0  0  0  0  0  0  0  0  0
   43.3660   32.0920   40.2940 O   0  0  0  0  0  0  0  0  0  0  0  0
   43.5560   31.9880   41.2490 H   0  0  0  0  0  0  0  0  0  0  0  0
   45.2460   34.0800   40.4650 O   0  0  0  0  0  0  0  0  0  0  0  0
   46.9820   34.3080   42.0360 C   0  0  0  0  0  0  0  0  0  0  0  0
   45.6660   33.9850   41.7840 C   0  0  0  0  0  0  0  0  0  0  0  0
   44.8610   33.5920   42.8610 C   0  0  0  0  0  0  0  0  0  0  0  0
   45.4250   33.5520   44.0810 N   0  0  0  0  0  0  0  0  0  0  0  0
   46.7040   33.8680   44.3090 C   0  0  0  0  0  0  0  0  0  0  0  0
   47.4720   34.2440   43.2830 N   0  0  0  0  0  0  0  0  0  0  0  0
   43.8510   33.3490   42.6410 H   0  0  0  0  0  0  0  0  0  0  0  0
   47.1770   33.8420   45.2870 H   0  0  0  0  0  0  0  0  0  0  0  0
   47.8740   34.7270   40.9530 C   0  0  0  0  0  0  0  0  0  0  0  0
   47.2910   35.2270   40.1500 H   0  0  0  0  0  0  0  0  0  0  0  0
   48.4010   33.8630   40.5010 H   0  0  0  0  0  0  0  0  0  0  0  0
   48.8870   35.6920   41.5040 C   0  0  0  0  0  0  0  0  0  0  0  0
   49.6460   35.1470   42.0660 H   0  0  0  0  0  0  0  0  0  0  0  0
   48.3500   36.4310   42.1320 H   0  0  0  0  0  0  0  0  0  0  0  0
   49.3820   36.1920   40.6360 H   0  0  0  0  0  0  0  0  0  0  0  0
   42.4800   34.6720   40.5130 O   0  0  0  0  0  0  0  0  0  0  0  0
   41.1700   34.2300   40.4140 C   0  0  0  0  0  0  0  0  0  0  0  0
   40.2010   35.1330   40.0150 C   0  0  0  0  0  0  0  0  0  0  0  0
   38.8650   34.7750   39.8900 C   0  0  0  0  0  0  0  0  0  0  0  0
   38.5170   33.4810   40.1730 N   0  0  0  0  0  0  0  0  0  0  0  0
   39.4580   32.6210   40.5560 C   0  0  0  0  0  0  0  0  0  0  0  0
   40.7370   32.9730   40.6740 N   0  0  0  0  0  0  0  0  0  0  0  0
   40.4920   36.1370   39.7980 H   0  0  0  0  0  0  0  0  0  0  0  0
   38.1300   35.5190   39.5710 H   0  0  0  0  0  0  0  0  0  0  0  0
   39.0260   31.2920   40.8340 N   0  0  0  0  0  0  0  0  0  0  0  0
   38.1540   30.6650   40.0030 C   0  0  0  0  0  3  0  0  0  0  0  0
   37.8000   29.3810   40.3660 C   0  0  0  0  0  3  0  0  0  0  0  0
   38.2590   28.7120   41.4820 C   0  0  0  0  0  0  0  0  0  0  0  0
   37.8530   27.3880   41.7970 N   0  0  0  0  0  0  0  0  0  0  0  0
   39.1190   29.4130   42.2460 N   0  0  0  0  0  0  0  0  0  0  0  0
   39.4960   30.6780   41.9300 C   0  0  0  0  0  0  0  0  0  0  0  0
   40.3010   31.2660   42.6910 O   0  0  0  0  0  0  0  0  0  0  0  0
   37.1480   26.9440   41.1750 H   0  0  0  0  0  0  0  0  0  0  0  0
   38.2920   26.9470   42.6390 H   0  0  0  0  0  0  0  0  0  0  0  0
  2  1  2  6  0  0  0
  2  3  1  0  0  0  0
  2  5  1  0  0  0  0
  2 21  1  0  0  0  0
  3  4  1  0  0  0  0
  5  7  1  0  0  0  0
  6 11  1  0  0  0  0
  7  6  2  0  0  0  0
  7  8  1  0  0  0  0
  8  9  2  0  0  0  0
  9 10  1  0  0  0  0
 10 13  1  0  0  0  0
 11 10  2  0  0  0  0
 12  8  1  0  0  0  0
 14 17  1  0  0  0  0
 14  6  1  0  0  0  0
 15 14  1  0  0  0  0
 16 14  1  0  0  0  0
 17 18  1  0  0  0  0
 17 19  1  0  0  0  0
 20 17  1  0  0  0  0
 22 21  1  0  0  0  0
 22 27  1  0  0  0  0
 23 22  2  0  0  0  0
 24 23  1  0  0  0  0
 24 25  2  0  0  0  0
 25 26  1  0  0  0  0
 26 27  2  0  0  0  0
 26 30  1  0  0  0  0
 28 23  1  0  0  0  0
 29 24  1  0  0  0  0
 30 36  1  0  0  0  0
 31 32  2  0  0  0  0
 31 30  1  0  0  0  0
 32 33  1  0  0  0  0
 33 34  1  0  0  0  0
 33 35  2  0  0  0  0
 34 39  1  0  0  0  0
 36 35  1  0  0  0  0
 36 37  2  0  0  0  0
 38 34  1  0  0  0  0
M  END
>  <minimizedAffinity>
-6.13942957

>  <minimizedRMSD>
1.52770245

$$$$
