
 OpenBabel03252500573D

 39 41  0  0  0  0  0  0  0  0999 V2000
   44.0380   34.8530   40.2660 O   0  0  0  0  0  0  0  0  0  0  0  0
   43.4910   34.7280   41.6810 P   0  0  1  0  0  0  0  0  0  0  0  0
   43.3340   33.0740   42.0530 O   0  0  0  0  0  0  0  0  0  0  0  0
   43.1800   32.9900   43.0160 H   0  0  0  0  0  0  0  0  0  0  0  0
   44.6060   35.3900   42.7830 O   0  0  0  0  0  0  0  0  0  0  0  0
   46.4710   34.0990   43.4040 C   0  0  0  0  0  0  0  0  0  0  0  0
   45.2940   34.7110   43.7780 C   0  0  0  0  0  0  0  0  0  0  0  0
   44.8850   34.6040   45.1130 C   0  0  0  0  0  0  0  0  0  0  0  0
   45.6710   33.9070   45.9540 N   0  0  0  0  0  0  0  0  0  0  0  0
   46.8100   33.3190   45.5760 C   0  0  0  0  0  0  0  0  0  0  0  0
   47.2010   33.4200   44.3030 N   0  0  0  0  0  0  0  0  0  0  0  0
   43.9760   35.0850   45.3760 H   0  0  0  0  0  0  0  0  0  0  0  0
   47.4570   32.7520   46.2400 H   0  0  0  0  0  0  0  0  0  0  0  0
   46.9530   34.1740   42.0240 C   0  0  0  0  0  0  0  0  0  0  0  0
   46.1200   34.4550   41.3430 H   0  0  0  0  0  0  0  0  0  0  0  0
   47.3580   33.2020   41.6790 H   0  0  0  0  0  0  0  0  0  0  0  0
   48.0320   35.2180   41.9420 C   0  0  0  0  0  0  0  0  0  0  0  0
   48.9580   34.8230   42.3590 H   0  0  0  0  0  0  0  0  0  0  0  0
   47.6790   36.1190   42.4840 H   0  0  0  0  0  0  0  0  0  0  0  0
   48.2000   35.4430   40.8610 H   0  0  0  0  0  0  0  0  0  0  0  0
   41.9540   35.4240   41.8000 O   0  0  0  0  0  0  0  0  0  0  0  0
   40.8760   34.7230   41.2800 C   0  0  0  0  0  0  0  0  0  0  0  0
   40.0220   35.3820   40.4140 C   0  0  0  0  0  0  0  0  0  0  0  0
   38.9180   34.7550   39.8480 C   0  0  0  0  0  0  0  0  0  0  0  0
   38.6890   33.4440   40.1690 N   0  0  0  0  0  0  0  0  0  0  0  0
   39.5190   32.8210   41.0030 C   0  0  0  0  0  0  0  0  0  0  0  0
   40.5740   33.4280   41.5420 N   0  0  0  0  0  0  0  0  0  0  0  0
   40.2180   36.4040   40.1760 H   0  0  0  0  0  0  0  0  0  0  0  0
   38.2670   35.3110   39.1680 H   0  0  0  0  0  0  0  0  0  0  0  0
   39.2190   31.4580   41.2920 N   0  0  0  0  0  0  0  0  0  0  0  0
   39.8250   30.8280   42.3320 C   0  0  0  0  0  3  0  0  0  0  0  0
   39.4640   29.5100   42.5240 C   0  0  0  0  0  3  0  0  0  0  0  0
   38.5550   28.8110   41.7550 C   0  0  0  0  0  0  0  0  0  0  0  0
   38.2270   27.4520   42.0100 N   0  0  0  0  0  0  0  0  0  0  0  0
   38.0060   29.5180   40.7490 N   0  0  0  0  0  0  0  0  0  0  0  0
   38.3310   30.8150   40.5210 C   0  0  0  0  0  0  0  0  0  0  0  0
   37.7780   31.4090   39.5620 O   0  0  0  0  0  0  0  0  0  0  0  0
   38.7380   26.9750   42.7790 H   0  0  0  0  0  0  0  0  0  0  0  0
   37.4910   27.0230   41.4020 H   0  0  0  0  0  0  0  0  0  0  0  0
  2  1  2  6  0  0  0
  2 21  1  0  0  0  0
  2  3  1  0  0  0  0
  2  5  1  0  0  0  0
  3  4  1  0  0  0  0
  5  7  1  0  0  0  0
  6  7  2  0  0  0  0
  6 11  1  0  0  0  0
  7  8  1  0  0  0  0
  8 12  1  0  0  0  0
  8  9  2  0  0  0  0
 10  9  1  0  0  0  0
 10 13  1  0  0  0  0
 11 10  2  0  0  0  0
 14  6  1  0  0  0  0
 15 14  1  0  0  0  0
 16 14  1  0  0  0  0
 17 14  1  0  0  0  0
 17 18  1  0  0  0  0
 17 19  1  0  0  0  0
 20 17  1  0  0  0  0
 22 27  1  0  0  0  0
 22 21  1  0  0  0  0
 23 22  2  0  0  0  0
 24 25  2  0  0  0  0
 24 23  1  0  0  0  0
 25 26  1  0  0  0  0
 26 30  1  0  0  0  0
 26 27  2  0  0  0  0
 28 23  1  0  0  0  0
 29 24  1  0  0  0  0
 30 31  1  0  0  0  0
 31 32  2  0  0  0  0
 33 34  1  0  0  0  0
 33 32  1  0  0  0  0
 34 38  1  0  0  0  0
 35 33  2  0  0  0  0
 36 35  1  0  0  0  0
 36 30  1  0  0  0  0
 37 36  2  0  0  0  0
 39 34  1  0  0  0  0
M  END
>  <minimizedAffinity>
-6.16487598

>  <minimizedRMSD>
0.744414985

$$$$
