
 OpenBabel03242521423D

 35 37  0  0  1  0  0  0  0  0999 V2000
   45.0720   35.1240   43.3370 C   0  0  0  0  0  0  0  0  0  0  0  0
   46.2100   34.4040   42.9540 C   0  0  0  0  0  0  0  0  0  0  0  0
   46.8760   33.6390   43.9270 C   0  0  0  0  0  0  0  0  0  0  0  0
   46.3950   33.6300   45.1790 N   0  0  0  0  0  0  0  0  0  0  0  0
   45.2810   34.3440   45.5180 C   0  0  0  0  0  0  0  0  0  0  0  0
   44.6280   35.0840   44.6010 N   0  0  0  0  0  0  0  0  0  0  0  0
   46.5310   34.4580   41.9520 H   0  0  0  0  0  0  0  0  0  0  0  0
   44.9630   34.2730   46.5670 H   0  0  0  0  0  0  0  0  0  0  0  0
   49.0180   33.6970   42.6570 C   0  0  2  0  0  0  0  0  0  0  0  0
   48.0600   32.8960   43.4900 C   0  0  2  0  0  0  0  0  0  0  0  0
   47.7760   31.8400   42.6010 O   0  0  0  0  0  0  0  0  0  0  0  0
   49.0360   31.4150   42.2170 C   0  0  0  0  0  0  0  0  0  0  0  0
   49.9950   32.5700   42.2920 C   0  0  1  0  0  0  0  0  0  0  0  0
   48.5950   34.0010   41.6800 H   0  0  0  0  0  0  0  0  0  0  0  0
   48.6020   32.4360   44.3300 H   0  0  0  0  0  0  0  0  0  0  0  0
   49.3860   30.5880   42.8690 H   0  0  0  0  0  0  0  0  0  0  0  0
   49.0170   31.0750   41.1510 H   0  0  0  0  0  0  0  0  0  0  0  0
   50.7480   32.4210   43.0790 H   0  0  0  0  0  0  0  0  0  0  0  0
   49.6130   34.7290   43.3380 O   0  0  0  0  0  0  0  0  0  0  0  0
   49.6280   35.5250   42.7220 H   0  0  0  0  0  0  0  0  0  0  0  0
   50.6070   32.8580   41.0900 O   0  0  0  0  0  0  0  0  0  0  0  0
   51.3580   33.4680   41.2490 H   0  0  0  0  0  0  0  0  0  0  0  0
   44.3560   35.9400   42.3090 C   0  0  0  0  0  0  0  0  0  0  0  0
   45.0390   36.6790   41.8510 H   0  0  0  0  0  0  0  0  0  0  0  0
   43.5140   36.4640   42.8440 H   0  0  0  0  0  0  0  0  0  0  0  0
   43.7480   35.1440   41.2840 N   0  0  0  0  0  0  0  0  0  0  0  0
   44.5870   34.4540   40.4890 C   0  0  0  0  0  0  0  0  0  0  0  0
   44.1060   33.6570   39.4710 C   0  0  0  0  0  0  0  0  0  0  0  0
   42.7550   33.5310   39.2270 C   0  0  0  0  0  0  0  0  0  0  0  0
   42.2840   32.7040   38.1740 N   0  0  0  0  0  0  0  0  0  0  0  0
   41.9490   34.2360   40.0430 N   0  0  0  0  0  0  0  0  0  0  0  0
   42.4350   35.0060   41.0270 C   0  0  0  0  0  0  0  0  0  0  0  0
   41.6580   35.6540   41.7760 O   0  0  0  0  0  0  0  0  0  0  0  0
   42.4770   31.6800   38.2440 H   0  0  0  0  0  0  0  0  0  0  0  0
   41.7610   33.0170   37.3330 H   0  0  0  0  0  0  0  0  0  0  0  0
  1  6  1  0  0  0  0
  2  1  2  0  0  0  0
  2  3  1  0  0  0  0
  3  4  2  0  0  0  0
  4  5  1  0  0  0  0
  5  8  1  0  0  0  0
  6  5  2  0  0  0  0
  7  2  1  0  0  0  0
  9 14  1  6  0  0  0
  9 19  1  0  0  0  0
  9 10  1  0  0  0  0
 10  3  1  0  0  0  0
 10 15  1  1  0  0  0
 11 10  1  0  0  0  0
 12 13  1  0  0  0  0
 12 11  1  0  0  0  0
 12 16  1  0  0  0  0
 13  9  1  0  0  0  0
 13 18  1  1  0  0  0
 17 12  1  0  0  0  0
 20 19  1  0  0  0  0
 21 22  1  0  0  0  0
 21 13  1  0  0  0  0
 23 25  1  0  0  0  0
 23  1  1  0  0  0  0
 24 23  1  0  0  0  0
 26 23  1  0  0  0  0
 27 26  1  0  0  0  0
 28 27  2  0  0  0  0
 29 28  1  0  0  0  0
 29 31  2  0  0  0  0
 30 34  1  0  0  0  0
 30 29  1  0  0  0  0
 31 32  1  0  0  0  0
 32 26  1  0  0  0  0
 32 33  2  0  0  0  0
 35 30  1  0  0  0  0
M  END
>  <minimizedAffinity>
-5.52951097

>  <minimizedRMSD>
4.34208822

$$$$
