
 OpenBabel03242511083D

 44 48  0  0  1  0  0  0  0  0999 V2000
   46.9130   32.6080   43.9410 C   0  0  0  0  0  0  0  0  0  0  0  0
   47.0050   31.9160   45.1410 C   0  0  0  0  0  0  0  0  0  0  0  0
   46.3840   32.3370   46.3160 C   0  0  0  0  0  0  0  0  0  0  0  0
   45.6360   33.4940   46.3130 C   0  0  0  0  0  0  0  0  0  0  0  0
   45.5220   34.1970   45.1620 C   0  0  0  0  0  0  0  0  0  0  0  0
   44.7760   35.3570   45.1250 C   0  0  0  0  0  0  0  0  0  0  0  0
   44.6170   36.1120   43.9940 C   0  0  0  0  0  0  0  0  0  0  0  0
   45.2530   35.6560   42.8450 C   0  0  0  0  0  0  0  0  0  0  0  0
   46.0030   34.4870   42.8850 C   0  0  0  0  0  0  0  0  0  0  0  0
   46.1540   33.7450   44.0160 C   0  0  0  0  0  0  0  0  0  0  0  0
   47.5610   30.9970   45.2570 H   0  0  0  0  0  0  0  0  0  0  0  0
   46.4660   31.7860   47.2410 H   0  0  0  0  0  0  0  0  0  0  0  0
   45.1520   33.8230   47.2260 H   0  0  0  0  0  0  0  0  0  0  0  0
   44.3060   35.6610   46.0480 H   0  0  0  0  0  0  0  0  0  0  0  0
   44.0060   37.0080   44.0840 H   0  0  0  0  0  0  0  0  0  0  0  0
   45.0670   36.3210   42.0010 H   0  0  0  0  0  0  0  0  0  0  0  0
   46.5230   34.2740   41.5870 N   0  0  0  0  0  0  0  0  0  0  0  0
   46.1500   33.6400   40.4640 C   0  0  0  0  0  3  0  0  0  0  0  0
   46.8950   33.6600   39.3100 C   0  0  0  0  0  3  0  0  0  0  0  0
   48.0900   34.3410   39.2380 C   0  0  0  0  0  0  0  0  0  0  0  0
   48.7490   34.2730   37.9860 N   0  0  0  0  0  0  0  0  0  0  0  0
   48.5160   34.9980   40.3400 N   0  0  0  0  0  0  0  0  0  0  0  0
   47.7220   34.9350   41.4490 C   0  0  0  0  0  0  0  0  0  0  0  0
   48.3050   35.6180   42.3640 O   0  0  0  0  0  0  0  0  0  0  0  0
   48.1680   34.5310   37.1530 H   0  0  0  0  0  0  0  0  0  0  0  0
   49.7240   33.9640   38.1770 H   0  0  0  0  0  0  0  0  0  0  0  0
   47.5770   32.0960   42.8190 N   0  0  0  0  0  0  0  0  0  0  0  0
   47.1600   32.8020   42.1880 H   0  0  0  0  0  0  0  0  0  0  0  0
   49.8460   31.0010   42.5560 C   0  0  1  0  0  0  0  0  0  0  0  0
   48.8980   30.3250   41.5860 C   0  0  0  0  0  0  0  0  0  0  0  0
   48.4320   30.9450   42.8970 C   0  0  2  0  0  0  0  0  0  0  0  0
   50.3520   31.8570   42.0420 H   0  0  0  0  0  0  0  0  0  0  0  0
   48.9630   29.2070   41.6160 H   0  0  0  0  0  0  0  0  0  0  0  0
   48.5570   30.8180   40.6780 H   0  0  0  0  0  0  0  0  0  0  0  0
   48.1670   30.2760   43.7490 H   0  0  0  0  0  0  0  0  0  0  0  0
   51.3500   28.7260   45.0590 C   0  0  0  0  0  0  0  0  0  0  0  0
   52.7060   28.6610   44.6120 C   0  0  0  0  0  0  0  0  0  0  0  0
   53.0620   29.3970   43.4520 C   0  0  0  0  0  0  0  0  0  0  0  0
   52.1250   30.1140   42.8260 N   0  0  0  0  0  0  0  0  0  0  0  0
   50.8450   30.1550   43.2760 C   0  0  0  0  0  0  0  0  0  0  0  0
   50.4530   29.4600   44.3940 N   0  0  0  0  0  0  0  0  0  0  0  0
   51.0840   28.1630   45.9440 H   0  0  0  0  0  0  0  0  0  0  0  0
   53.3860   28.0570   45.1830 H   0  0  0  0  0  0  0  0  0  0  0  0
   54.0840   29.3360   43.1310 H   0  0  0  0  0  0  0  0  0  0  0  0
  1 10  2  0  0  0  0
  1  2  1  0  0  0  0
  2 11  1  0  0  0  0
  2  3  2  0  0  0  0
  3 12  1  0  0  0  0
  4  3  1  0  0  0  0
  4 13  1  0  0  0  0
  5  4  2  0  0  0  0
  6  5  1  0  0  0  0
  6 14  1  0  0  0  0
  7 15  1  0  0  0  0
  7  6  2  0  0  0  0
  8  9  2  0  0  0  0
  8  7  1  0  0  0  0
  9 10  1  0  0  0  0
 10  5  1  0  0  0  0
 16  8  1  0  0  0  0
 17  9  1  0  0  0  0
 18 17  1  0  0  0  0
 19 18  2  0  0  0  0
 20 19  1  0  0  0  0
 20 22  2  0  0  0  0
 21 26  1  0  0  0  0
 21 20  1  0  0  0  0
 22 23  1  0  0  0  0
 23 17  1  0  0  0  0
 23 24  2  0  0  0  0
 25 21  1  0  0  0  0
 27 31  1  0  0  0  0
 27  1  1  0  0  0  0
 28 27  1  0  0  0  0
 29 32  1  6  0  0  0
 29 31  1  0  0  0  0
 29 40  1  0  0  0  0
 30 33  1  0  0  0  0
 30 29  1  0  0  0  0
 30 31  1  0  0  0  0
 31 35  1  1  0  0  0
 34 30  1  0  0  0  0
 36 42  1  0  0  0  0
 37 36  1  0  0  0  0
 37 43  1  0  0  0  0
 38 37  2  0  0  0  0
 39 40  2  0  0  0  0
 39 38  1  0  0  0  0
 40 41  1  0  0  0  0
 41 36  2  0  0  0  0
 44 38  1  0  0  0  0
M  END
>  <minimizedAffinity>
-5.94829893

>  <minimizedRMSD>
2.35605669

$$$$
