
 OpenBabel03242511083D

 44 48  0  0  1  0  0  0  0  0999 V2000
   46.3040   32.1530   43.9590 C   0  0  0  0  0  0  0  0  0  0  0  0
   46.6310   31.4510   45.1110 C   0  0  0  0  0  0  0  0  0  0  0  0
   46.3770   31.9300   46.3960 C   0  0  0  0  0  0  0  0  0  0  0  0
   45.7720   33.1580   46.5580 C   0  0  0  0  0  0  0  0  0  0  0  0
   45.4380   33.8720   45.4580 C   0  0  0  0  0  0  0  0  0  0  0  0
   44.8260   35.1020   45.5860 C   0  0  0  0  0  0  0  0  0  0  0  0
   44.4570   35.8730   44.5160 C   0  0  0  0  0  0  0  0  0  0  0  0
   44.7290   35.3570   43.2530 C   0  0  0  0  0  0  0  0  0  0  0  0
   45.3440   34.1190   43.1270 C   0  0  0  0  0  0  0  0  0  0  0  0
   45.7060   33.3610   44.2000 C   0  0  0  0  0  0  0  0  0  0  0  0
   47.1040   30.4800   45.1030 H   0  0  0  0  0  0  0  0  0  0  0  0
   46.6390   31.3710   47.2820 H   0  0  0  0  0  0  0  0  0  0  0  0
   45.5740   33.5320   47.5550 H   0  0  0  0  0  0  0  0  0  0  0  0
   44.6410   35.4500   46.5910 H   0  0  0  0  0  0  0  0  0  0  0  0
   43.9820   36.8260   44.7380 H   0  0  0  0  0  0  0  0  0  0  0  0
   44.4000   36.0400   42.4700 H   0  0  0  0  0  0  0  0  0  0  0  0
   45.4900   33.8570   41.7450 N   0  0  0  0  0  0  0  0  0  0  0  0
   46.3710   34.1410   40.7720 C   0  0  0  0  0  3  0  0  0  0  0  0
   46.2380   33.6820   39.4840 C   0  0  0  0  0  3  0  0  0  0  0  0
   45.1750   32.8920   39.1100 C   0  0  0  0  0  0  0  0  0  0  0  0
   45.1670   32.4930   37.7510 N   0  0  0  0  0  0  0  0  0  0  0  0
   44.2560   32.5740   40.0490 N   0  0  0  0  0  0  0  0  0  0  0  0
   44.4540   33.0660   41.3070 C   0  0  0  0  0  0  0  0  0  0  0  0
   43.4800   32.6470   42.0280 O   0  0  0  0  0  0  0  0  0  0  0  0
   46.0500   32.0490   37.4050 H   0  0  0  0  0  0  0  0  0  0  0  0
   44.2320   32.7440   37.3700 H   0  0  0  0  0  0  0  0  0  0  0  0
   46.6030   31.5800   42.7170 N   0  0  0  0  0  0  0  0  0  0  0  0
   45.6080   31.3920   42.5070 H   0  0  0  0  0  0  0  0  0  0  0  0
   49.0610   31.1420   43.1450 C   0  0  1  0  0  0  0  0  0  0  0  0
   48.9380   32.5450   42.5880 C   0  0  0  0  0  0  0  0  0  0  0  0
   47.9530   31.4350   42.2480 C   0  0  2  0  0  0  0  0  0  0  0  0
   49.0140   31.1820   44.2620 H   0  0  0  0  0  0  0  0  0  0  0  0
   49.6740   32.7590   41.7690 H   0  0  0  0  0  0  0  0  0  0  0  0
   48.5450   33.3670   43.1820 H   0  0  0  0  0  0  0  0  0  0  0  0
   48.0040   30.9530   41.2430 H   0  0  0  0  0  0  0  0  0  0  0  0
   51.0380   28.6110   41.3020 C   0  0  0  0  0  0  0  0  0  0  0  0
   52.3150   28.7270   41.9340 C   0  0  0  0  0  0  0  0  0  0  0  0
   52.4610   29.6820   42.9730 C   0  0  0  0  0  0  0  0  0  0  0  0
   51.4110   30.4330   43.3160 N   0  0  0  0  0  0  0  0  0  0  0  0
   50.2110   30.2990   42.6960 C   0  0  0  0  0  0  0  0  0  0  0  0
   50.0210   29.3890   41.6860 N   0  0  0  0  0  0  0  0  0  0  0  0
   50.9320   27.8810   40.5100 H   0  0  0  0  0  0  0  0  0  0  0  0
   53.0970   28.0790   41.5870 H   0  0  0  0  0  0  0  0  0  0  0  0
   53.4270   29.7550   43.4350 H   0  0  0  0  0  0  0  0  0  0  0  0
  1 10  2  0  0  0  0
  1  2  1  0  0  0  0
  2  3  2  0  0  0  0
  3  4  1  0  0  0  0
  3 12  1  0  0  0  0
  4 13  1  0  0  0  0
  5  6  1  0  0  0  0
  5  4  2  0  0  0  0
  6 14  1  0  0  0  0
  7 15  1  0  0  0  0
  7  6  2  0  0  0  0
  8  7  1  0  0  0  0
  9  8  2  0  0  0  0
  9 10  1  0  0  0  0
 10  5  1  0  0  0  0
 11  2  1  0  0  0  0
 16  8  1  0  0  0  0
 17  9  1  0  0  0  0
 18 17  1  0  0  0  0
 19 18  2  0  0  0  0
 20 19  1  0  0  0  0
 20 22  2  0  0  0  0
 21 20  1  0  0  0  0
 22 23  1  0  0  0  0
 23 17  1  0  0  0  0
 23 24  2  0  0  0  0
 25 21  1  0  0  0  0
 26 21  1  0  0  0  0
 27  1  1  0  0  0  0
 28 27  1  0  0  0  0
 29 32  1  1  0  0  0
 30 29  1  0  0  0  0
 30 34  1  0  0  0  0
 31 35  1  6  0  0  0
 31 30  1  0  0  0  0
 31 27  1  0  0  0  0
 31 29  1  0  0  0  0
 33 30  1  0  0  0  0
 36 41  2  0  0  0  0
 36 37  1  0  0  0  0
 37 38  2  0  0  0  0
 38 39  1  0  0  0  0
 38 44  1  0  0  0  0
 40 29  1  0  0  0  0
 40 39  2  0  0  0  0
 41 40  1  0  0  0  0
 42 36  1  0  0  0  0
 43 37  1  0  0  0  0
M  END
>  <minimizedAffinity>
-4.95842218

>  <minimizedRMSD>
1.31511033

$$$$
