
 OpenBabel03252500573D

 39 41  0  0  0  0  0  0  0  0999 V2000
   43.2380   35.4150   39.6360 O   0  0  0  0  0  0  0  0  0  0  0  0
   43.1760   34.8490   41.0480 P   0  0  1  0  0  0  0  0  0  0  0  0
   43.4740   33.1740   40.9700 O   0  0  0  0  0  0  0  0  0  0  0  0
   43.6350   32.8500   41.8790 H   0  0  0  0  0  0  0  0  0  0  0  0
   44.4120   35.5390   41.9940 O   0  0  0  0  0  0  0  0  0  0  0  0
   46.4030   34.4420   42.5970 C   0  0  0  0  0  0  0  0  0  0  0  0
   45.1610   34.9040   42.9740 C   0  0  0  0  0  0  0  0  0  0  0  0
   44.7510   34.7020   44.2980 C   0  0  0  0  0  0  0  0  0  0  0  0
   45.6000   34.0660   45.1250 N   0  0  0  0  0  0  0  0  0  0  0  0
   46.8030   33.6230   44.7440 C   0  0  0  0  0  0  0  0  0  0  0  0
   47.1950   33.8160   43.4810 N   0  0  0  0  0  0  0  0  0  0  0  0
   43.7900   35.0670   44.5640 H   0  0  0  0  0  0  0  0  0  0  0  0
   47.5010   33.1090   45.3970 H   0  0  0  0  0  0  0  0  0  0  0  0
   46.8890   34.6220   41.2280 C   0  0  0  0  0  0  0  0  0  0  0  0
   46.2430   35.3460   40.6850 H   0  0  0  0  0  0  0  0  0  0  0  0
   46.8800   33.6700   40.6620 H   0  0  0  0  0  0  0  0  0  0  0  0
   48.2950   35.1550   41.2770 C   0  0  0  0  0  0  0  0  0  0  0  0
   48.9840   34.3500   41.5320 H   0  0  0  0  0  0  0  0  0  0  0  0
   48.3220   35.9810   42.0170 H   0  0  0  0  0  0  0  0  0  0  0  0
   48.5490   35.5270   40.2550 H   0  0  0  0  0  0  0  0  0  0  0  0
   41.6380   35.0610   41.7180 O   0  0  0  0  0  0  0  0  0  0  0  0
   40.6180   34.2230   41.2940 C   0  0  0  0  0  0  0  0  0  0  0  0
   39.5900   34.7670   40.5450 C   0  0  0  0  0  0  0  0  0  0  0  0
   38.5290   33.9990   40.0800 C   0  0  0  0  0  0  0  0  0  0  0  0
   38.5220   32.6640   40.3820 N   0  0  0  0  0  0  0  0  0  0  0  0
   39.5170   32.1510   41.1030 C   0  0  0  0  0  0  0  0  0  0  0  0
   40.5290   32.8940   41.5450 N   0  0  0  0  0  0  0  0  0  0  0  0
   39.6150   35.8100   40.3200 H   0  0  0  0  0  0  0  0  0  0  0  0
   37.7370   34.4680   39.4910 H   0  0  0  0  0  0  0  0  0  0  0  0
   39.4440   30.7560   41.3800 N   0  0  0  0  0  0  0  0  0  0  0  0
   40.5790   30.0230   41.5170 C   0  0  0  0  0  3  0  0  0  0  0  0
   40.3950   28.6810   41.7840 C   0  0  0  0  0  3  0  0  0  0  0  0
   39.1720   28.0540   41.9170 C   0  0  0  0  0  0  0  0  0  0  0  0
   39.0550   26.6640   42.1930 N   0  0  0  0  0  0  0  0  0  0  0  0
   38.1050   28.8600   41.7640 N   0  0  0  0  0  0  0  0  0  0  0  0
   38.2370   30.1850   41.5010 C   0  0  0  0  0  0  0  0  0  0  0  0
   37.1950   30.8730   41.3720 O   0  0  0  0  0  0  0  0  0  0  0  0
   39.9350   26.1130   42.2460 H   0  0  0  0  0  0  0  0  0  0  0  0
   38.0860   26.2910   42.3250 H   0  0  0  0  0  0  0  0  0  0  0  0
  2  1  2  6  0  0  0
  2 21  1  0  0  0  0
  2  5  1  0  0  0  0
  3  2  1  0  0  0  0
  3  4  1  0  0  0  0
  5  7  1  0  0  0  0
  6  7  2  0  0  0  0
  6 11  1  0  0  0  0
  7  8  1  0  0  0  0
  8 12  1  0  0  0  0
  8  9  2  0  0  0  0
 10  9  1  0  0  0  0
 10 13  1  0  0  0  0
 11 10  2  0  0  0  0
 14 17  1  0  0  0  0
 14  6  1  0  0  0  0
 15 14  1  0  0  0  0
 16 14  1  0  0  0  0
 17 18  1  0  0  0  0
 17 19  1  0  0  0  0
 20 17  1  0  0  0  0
 22 27  1  0  0  0  0
 22 21  1  0  0  0  0
 23 22  2  0  0  0  0
 24 25  2  0  0  0  0
 24 23  1  0  0  0  0
 25 26  1  0  0  0  0
 26 30  1  0  0  0  0
 26 27  2  0  0  0  0
 28 23  1  0  0  0  0
 29 24  1  0  0  0  0
 30 36  1  0  0  0  0
 30 31  1  0  0  0  0
 31 32  2  0  0  0  0
 32 33  1  0  0  0  0
 33 34  1  0  0  0  0
 34 38  1  0  0  0  0
 34 39  1  0  0  0  0
 35 33  2  0  0  0  0
 36 35  1  0  0  0  0
 37 36  2  0  0  0  0
M  END
>  <minimizedAffinity>
-6.00040817

>  <minimizedRMSD>
1.25296605

$$$$
