
 OpenBabel03242510193D

 37 40  0  0  1  0  0  0  0  0999 V2000
   48.0420   33.1000   43.6560 N   0  0  0  0  0  0  0  0  0  0  0  0
   49.0400   32.9380   42.7120 C   0  0  0  0  0  0  0  0  0  0  0  0
   50.1060   32.2660   42.7580 O   0  0  0  0  0  0  0  0  0  0  0  0
   47.6950   34.0800   43.8100 H   0  0  0  0  0  0  0  0  0  0  0  0
   46.0400   32.1440   44.7610 C   0  0  1  0  0  0  0  0  0  0  0  0
   46.3460   31.2710   43.6890 C   0  0  0  0  0  0  0  0  0  0  0  0
   47.4850   32.0180   44.4050 C   0  0  1  0  0  0  0  0  0  0  0  0
   45.7860   31.7660   45.7780 H   0  0  0  0  0  0  0  0  0  0  0  0
   46.2500   30.1670   43.8460 H   0  0  0  0  0  0  0  0  0  0  0  0
   46.2540   31.5170   42.6160 H   0  0  0  0  0  0  0  0  0  0  0  0
   48.1620   31.2680   44.8430 H   0  0  0  0  0  0  0  0  0  0  0  0
   44.8970   33.7960   43.1290 C   0  0  0  0  0  0  0  0  0  0  0  0
   45.3710   33.4820   44.4280 C   0  0  0  0  0  0  0  0  0  0  0  0
   45.2300   34.4330   45.4070 C   0  0  0  0  0  0  0  0  0  0  0  0
   44.6530   35.6180   45.0980 N   0  0  0  0  0  0  0  0  0  0  0  0
   44.2040   35.9120   43.8600 C   0  0  0  0  0  0  0  0  0  0  0  0
   44.3330   34.9640   42.8400 N   0  0  0  0  0  0  0  0  0  0  0  0
   44.9960   33.0660   42.3520 H   0  0  0  0  0  0  0  0  0  0  0  0
   45.5980   34.1730   46.3900 H   0  0  0  0  0  0  0  0  0  0  0  0
   43.7900   36.8950   43.8440 H   0  0  0  0  0  0  0  0  0  0  0  0
   48.9240   33.6340   41.3630 C   0  0  2  0  0  0  0  0  0  0  0  0
   47.8690   34.7820   41.2630 C   0  0  0  0  0  0  0  0  0  0  0  0
   47.7490   33.4740   40.5180 C   0  0  1  0  0  0  0  0  0  0  0  0
   49.8840   34.0320   40.9440 H   0  0  0  0  0  0  0  0  0  0  0  0
   47.2820   35.0100   42.1450 H   0  0  0  0  0  0  0  0  0  0  0  0
   48.1140   35.6530   40.6310 H   0  0  0  0  0  0  0  0  0  0  0  0
   46.8020   33.0240   40.7400 H   0  0  0  0  0  0  0  0  0  0  0  0
   48.0150   33.4840   39.0720 N   0  0  0  0  0  0  0  0  0  0  0  0
   48.3420   34.5600   38.3430 C   0  0  0  0  0  0  0  0  0  0  0  0
   48.5660   34.4240   36.9840 C   0  0  0  0  0  0  0  0  0  0  0  0
   48.4520   33.1840   36.3810 C   0  0  0  0  0  0  0  0  0  0  0  0
   48.6730   32.9920   34.9750 N   0  0  0  0  0  0  0  0  0  0  0  0
   48.1180   32.1070   37.1490 N   0  0  0  0  0  0  0  0  0  0  0  0
   47.9010   32.2620   38.4880 C   0  0  0  0  0  0  0  0  0  0  0  0
   47.5990   31.1840   39.0780 O   0  0  0  0  0  0  0  0  0  0  0  0
   47.9480   33.0990   34.2320 H   0  0  0  0  0  0  0  0  0  0  0  0
   49.6860   32.7270   34.7910 H   0  0  0  0  0  0  0  0  0  0  0  0
  1  4  1  0  0  0  0
  1  7  1  0  0  0  0
  2  3  2  0  0  0  0
  2  1  1  0  0  0  0
  5  8  1  1  0  0  0
  6  9  1  0  0  0  0
  6  7  1  0  0  0  0
  6  5  1  0  0  0  0
  7  5  1  0  0  0  0
  7 11  1  1  0  0  0
 10  6  1  0  0  0  0
 12 13  1  0  0  0  0
 13  5  1  0  0  0  0
 13 14  2  0  0  0  0
 14 19  1  0  0  0  0
 15 14  1  0  0  0  0
 16 15  2  0  0  0  0
 17 12  2  0  0  0  0
 17 16  1  0  0  0  0
 18 12  1  0  0  0  0
 20 16  1  0  0  0  0
 21 24  1  6  0  0  0
 21  2  1  0  0  0  0
 22 21  1  0  0  0  0
 22 25  1  0  0  0  0
 23 27  1  1  0  0  0
 23 22  1  0  0  0  0
 23 21  1  0  0  0  0
 26 22  1  0  0  0  0
 28 23  1  0  0  0  0
 29 28  1  0  0  0  0
 30 29  2  0  0  0  0
 31 30  1  0  0  0  0
 31 33  2  0  0  0  0
 32 31  1  0  0  0  0
 33 34  1  0  0  0  0
 34 28  1  0  0  0  0
 34 35  2  0  0  0  0
 36 32  1  0  0  0  0
 37 32  1  0  0  0  0
M  END
>  <minimizedAffinity>
-5.01603937

>  <minimizedRMSD>
1.76272333

$$$$
