
 OpenBabel03252507083D

 25 26  0  0  0  0  0  0  0  0999 V2000
   44.6070   35.8650   44.7090 C   0  0  0  0  0  0  0  0  0  0  0  0
   45.0890   35.5430   43.4240 C   0  0  0  0  0  0  0  0  0  0  0  0
   45.8800   34.4160   43.2960 C   0  0  0  0  0  0  0  0  0  0  0  0
   46.1560   33.6750   44.4050 N   0  0  0  0  0  0  0  0  0  0  0  0
   45.6830   34.0070   45.6120 C   0  0  0  0  0  0  0  0  0  0  0  0
   44.9050   35.1030   45.7750 N   0  0  0  0  0  0  0  0  0  0  0  0
   43.9870   36.7150   44.9200 H   0  0  0  0  0  0  0  0  0  0  0  0
   44.7940   36.2190   42.6240 H   0  0  0  0  0  0  0  0  0  0  0  0
   46.0700   33.1190   46.6560 N   0  0  0  0  0  0  0  0  0  0  0  0
   47.3370   32.6690   46.6090 C   0  0  0  0  0  3  0  0  0  0  0  0
   47.7120   31.8090   47.6210 C   0  0  0  0  0  3  0  0  0  0  0  0
   46.7710   31.4900   48.5780 C   0  0  0  0  0  0  0  0  0  0  0  0
   47.0460   30.6140   49.6650 N   0  0  0  0  0  0  0  0  0  0  0  0
   45.5040   31.9840   48.5640 N   0  0  0  0  0  0  0  0  0  0  0  0
   45.1300   32.8300   47.5720 C   0  0  0  0  0  0  0  0  0  0  0  0
   43.9780   33.3260   47.4930 O   0  0  0  0  0  0  0  0  0  0  0  0
   46.5880   29.7170   49.3940 H   0  0  0  0  0  0  0  0  0  0  0  0
   47.4690   30.4080   50.5980 H   0  0  0  0  0  0  0  0  0  0  0  0
   46.3410   34.1230   42.0150 O   0  0  0  0  0  0  0  0  0  0  0  0
   48.3690   32.5190   41.4380 O   0  0  0  0  0  0  0  0  0  0  0  0
   48.0290   33.9740   41.7540 P   0  0  0  0  0  0  0  0  0  0  0  0
   48.4650   34.9990   40.5050 O   0  0  0  0  0  0  0  0  0  0  0  0
   48.7370   35.8710   40.8600 H   0  0  0  0  0  0  0  0  0  0  0  0
   48.8050   34.3740   43.2060 O   0  0  0  0  0  0  0  0  0  0  0  0
   48.7350   33.5500   43.7760 H   0  0  0  0  0  0  0  0  0  0  0  0
  1  7  1  0  0  0  0
  1  6  1  0  0  0  0
  2  1  2  0  0  0  0
  3  2  1  0  0  0  0
  3  4  2  0  0  0  0
  4  5  1  0  0  0  0
  5  6  2  0  0  0  0
  5  9  1  0  0  0  0
  8  2  1  0  0  0  0
  9 15  1  0  0  0  0
 10  9  1  0  0  0  0
 10 11  2  0  0  0  0
 11 12  1  0  0  0  0
 12 13  1  0  0  0  0
 13 18  1  0  0  0  0
 14 12  2  0  0  0  0
 15 14  1  0  0  0  0
 16 15  2  0  0  0  0
 17 13  1  0  0  0  0
 19  3  1  0  0  0  0
 20 21  2  0  0  0  0
 21 19  1  0  0  0  0
 21 24  1  0  0  0  0
 22 23  1  0  0  0  0
 22 21  1  0  0  0  0
 24 25  1  0  0  0  0
M  END
>  <minimizedAffinity>
-4.42424488

>  <minimizedRMSD>
0.886226058

$$$$
