
 OpenBabel03252500573D

 39 41  0  0  0  0  0  0  0  0999 V2000
   43.9160   34.5020   40.0560 O   0  0  0  0  0  0  0  0  0  0  0  0
   43.4180   34.5220   41.4940 P   0  0  1  0  0  0  0  0  0  0  0  0
   43.2190   32.9140   42.0180 O   0  0  0  0  0  0  0  0  0  0  0  0
   43.0980   32.9220   42.9890 H   0  0  0  0  0  0  0  0  0  0  0  0
   44.5950   35.2380   42.4950 O   0  0  0  0  0  0  0  0  0  0  0  0
   46.6880   34.2650   42.9430 C   0  0  0  0  0  0  0  0  0  0  0  0
   45.4270   34.5870   43.3950 C   0  0  0  0  0  0  0  0  0  0  0  0
   45.0820   34.2410   44.7070 C   0  0  0  0  0  0  0  0  0  0  0  0
   46.0090   33.6120   45.4510 N   0  0  0  0  0  0  0  0  0  0  0  0
   47.2290   33.3050   44.9990 C   0  0  0  0  0  0  0  0  0  0  0  0
   47.5590   33.6350   43.7470 N   0  0  0  0  0  0  0  0  0  0  0  0
   44.1050   34.5020   45.0310 H   0  0  0  0  0  0  0  0  0  0  0  0
   47.9900   32.7980   45.5850 H   0  0  0  0  0  0  0  0  0  0  0  0
   47.1090   34.6000   41.5820 C   0  0  0  0  0  0  0  0  0  0  0  0
   46.3430   35.2380   41.0910 H   0  0  0  0  0  0  0  0  0  0  0  0
   47.2410   33.6920   40.9600 H   0  0  0  0  0  0  0  0  0  0  0  0
   48.4110   35.3490   41.6460 C   0  0  0  0  0  0  0  0  0  0  0  0
   49.2270   34.6540   41.8440 H   0  0  0  0  0  0  0  0  0  0  0  0
   48.3210   36.1250   42.4330 H   0  0  0  0  0  0  0  0  0  0  0  0
   48.5800   35.8150   40.6450 H   0  0  0  0  0  0  0  0  0  0  0  0
   41.9110   35.2820   41.6020 O   0  0  0  0  0  0  0  0  0  0  0  0
   40.7980   34.5970   41.1390 C   0  0  0  0  0  0  0  0  0  0  0  0
   39.8850   35.2810   40.3560 C   0  0  0  0  0  0  0  0  0  0  0  0
   38.7440   34.6710   39.8510 C   0  0  0  0  0  0  0  0  0  0  0  0
   38.5350   33.3510   40.1490 N   0  0  0  0  0  0  0  0  0  0  0  0
   39.4200   32.7040   40.9040 C   0  0  0  0  0  0  0  0  0  0  0  0
   40.5120   33.2950   41.3840 N   0  0  0  0  0  0  0  0  0  0  0  0
   40.0670   36.3090   40.1340 H   0  0  0  0  0  0  0  0  0  0  0  0
   38.0470   35.2460   39.2350 H   0  0  0  0  0  0  0  0  0  0  0  0
   39.1390   31.3330   41.1740 N   0  0  0  0  0  0  0  0  0  0  0  0
   39.5770   30.7560   42.3230 C   0  0  0  0  0  3  0  0  0  0  0  0
   39.2490   29.4250   42.4850 C   0  0  0  0  0  3  0  0  0  0  0  0
   38.5290   28.6650   41.5860 C   0  0  0  0  0  0  0  0  0  0  0  0
   38.2270   27.2960   41.8170 N   0  0  0  0  0  0  0  0  0  0  0  0
   38.1380   29.3210   40.4780 N   0  0  0  0  0  0  0  0  0  0  0  0
   38.4360   30.6310   40.2750 C   0  0  0  0  0  0  0  0  0  0  0  0
   38.0360   31.1740   39.2170 O   0  0  0  0  0  0  0  0  0  0  0  0
   38.6130   26.8600   42.6800 H   0  0  0  0  0  0  0  0  0  0  0  0
   37.6330   26.8160   41.1000 H   0  0  0  0  0  0  0  0  0  0  0  0
  2  1  2  6  0  0  0
  2 21  1  0  0  0  0
  2  3  1  0  0  0  0
  2  5  1  0  0  0  0
  3  4  1  0  0  0  0
  5  7  1  0  0  0  0
  6  7  2  0  0  0  0
  6 11  1  0  0  0  0
  7  8  1  0  0  0  0
  8 12  1  0  0  0  0
  8  9  2  0  0  0  0
 10  9  1  0  0  0  0
 10 13  1  0  0  0  0
 11 10  2  0  0  0  0
 14 17  1  0  0  0  0
 14  6  1  0  0  0  0
 15 14  1  0  0  0  0
 16 14  1  0  0  0  0
 17 18  1  0  0  0  0
 17 19  1  0  0  0  0
 20 17  1  0  0  0  0
 22 27  1  0  0  0  0
 22 21  1  0  0  0  0
 23 22  2  0  0  0  0
 24 25  2  0  0  0  0
 24 23  1  0  0  0  0
 25 26  1  0  0  0  0
 26 30  1  0  0  0  0
 26 27  2  0  0  0  0
 28 23  1  0  0  0  0
 29 24  1  0  0  0  0
 30 31  1  0  0  0  0
 31 32  2  0  0  0  0
 33 34  1  0  0  0  0
 33 32  1  0  0  0  0
 34 38  1  0  0  0  0
 35 33  2  0  0  0  0
 36 35  1  0  0  0  0
 36 30  1  0  0  0  0
 37 36  2  0  0  0  0
 39 34  1  0  0  0  0
M  END
>  <minimizedAffinity>
-6.08491611

>  <minimizedRMSD>
0.750661731

$$$$
