
 OpenBabel03242511103D

 44 48  0  0  1  0  0  0  0  0999 V2000
   37.0960   28.7410   41.1710 C   0  0  0  0  0  0  0  0  0  0  0  0
   37.2910   29.3010   42.4260 C   0  0  0  0  0  0  0  0  0  0  0  0
   37.3800   28.5460   43.5950 C   0  0  0  0  0  0  0  0  0  0  0  0
   37.2740   27.1740   43.5280 C   0  0  0  0  0  0  0  0  0  0  0  0
   37.0840   26.5900   42.3220 C   0  0  0  0  0  0  0  0  0  0  0  0
   36.9790   25.2180   42.2210 C   0  0  0  0  0  0  0  0  0  0  0  0
   36.7920   24.5640   41.0320 C   0  0  0  0  0  0  0  0  0  0  0  0
   36.7080   25.3560   39.8920 C   0  0  0  0  0  0  0  0  0  0  0  0
   36.8140   26.7370   39.9960 C   0  0  0  0  0  0  0  0  0  0  0  0
   37.0010   27.3760   41.1850 C   0  0  0  0  0  0  0  0  0  0  0  0
   37.3900   30.3640   42.5950 H   0  0  0  0  0  0  0  0  0  0  0  0
   37.5310   28.9990   44.5630 H   0  0  0  0  0  0  0  0  0  0  0  0
   37.3440   26.5850   44.4350 H   0  0  0  0  0  0  0  0  0  0  0  0
   37.0520   24.6570   43.1400 H   0  0  0  0  0  0  0  0  0  0  0  0
   36.7240   23.4790   41.0750 H   0  0  0  0  0  0  0  0  0  0  0  0
   36.5600   24.7470   39.0000 H   0  0  0  0  0  0  0  0  0  0  0  0
   36.6950   27.2700   38.6920 N   0  0  0  0  0  0  0  0  0  0  0  0
   35.7330   27.8180   37.9310 C   0  0  0  0  0  3  0  0  0  0  0  0
   35.9610   28.2950   36.6640 C   0  0  0  0  0  3  0  0  0  0  0  0
   37.2110   28.2400   36.0900 C   0  0  0  0  0  0  0  0  0  0  0  0
   37.2980   28.7690   34.7790 N   0  0  0  0  0  0  0  0  0  0  0  0
   38.2200   27.6980   36.8100 N   0  0  0  0  0  0  0  0  0  0  0  0
   37.9180   27.2440   38.0630 C   0  0  0  0  0  0  0  0  0  0  0  0
   39.0030   26.7790   38.5620 O   0  0  0  0  0  0  0  0  0  0  0  0
   36.9190   29.7370   34.6560 H   0  0  0  0  0  0  0  0  0  0  0  0
   37.7450   28.0370   34.1890 H   0  0  0  0  0  0  0  0  0  0  0  0
   37.0200   29.5920   40.0610 N   0  0  0  0  0  0  0  0  0  0  0  0
   36.0410   29.3280   39.8610 H   0  0  0  0  0  0  0  0  0  0  0  0
   38.2460   31.8030   39.9030 C   0  0  1  0  0  0  0  0  0  0  0  0
   37.9040   31.3690   38.4920 C   0  0  0  0  0  0  0  0  0  0  0  0
   38.1400   30.3790   39.6250 C   0  0  2  0  0  0  0  0  0  0  0  0
   37.4210   32.4450   40.3010 H   0  0  0  0  0  0  0  0  0  0  0  0
   38.7690   31.4560   37.7840 H   0  0  0  0  0  0  0  0  0  0  0  0
   36.8880   31.4190   38.1050 H   0  0  0  0  0  0  0  0  0  0  0  0
   39.0980   29.8080   39.6560 H   0  0  0  0  0  0  0  0  0  0  0  0
   41.0910   34.1600   39.6680 C   0  0  0  0  0  0  0  0  0  0  0  0
   42.0350   33.5630   40.5610 C   0  0  0  0  0  0  0  0  0  0  0  0
   41.6590   32.3680   41.2270 C   0  0  0  0  0  0  0  0  0  0  0  0
   40.4480   31.8520   40.9990 N   0  0  0  0  0  0  0  0  0  0  0  0
   39.5750   32.4430   40.1460 C   0  0  0  0  0  0  0  0  0  0  0  0
   39.8930   33.6000   39.4780 N   0  0  0  0  0  0  0  0  0  0  0  0
   41.3830   35.0710   39.1630 H   0  0  0  0  0  0  0  0  0  0  0  0
   42.9830   34.0540   40.6780 H   0  0  0  0  0  0  0  0  0  0  0  0
   42.3790   31.9340   41.8930 H   0  0  0  0  0  0  0  0  0  0  0  0
  1 10  2  0  0  0  0
  1  2  1  0  0  0  0
  2 11  1  0  0  0  0
  2  3  2  0  0  0  0
  3 12  1  0  0  0  0
  4  3  1  0  0  0  0
  4 13  1  0  0  0  0
  5  4  2  0  0  0  0
  6  5  1  0  0  0  0
  6 14  1  0  0  0  0
  7 15  1  0  0  0  0
  7  6  2  0  0  0  0
  8  9  2  0  0  0  0
  8  7  1  0  0  0  0
  9 10  1  0  0  0  0
 10  5  1  0  0  0  0
 16  8  1  0  0  0  0
 17  9  1  0  0  0  0
 18 17  1  0  0  0  0
 19 18  2  0  0  0  0
 20 19  1  0  0  0  0
 20 22  2  0  0  0  0
 21 20  1  0  0  0  0
 22 23  1  0  0  0  0
 23 24  2  0  0  0  0
 23 17  1  0  0  0  0
 25 21  1  0  0  0  0
 26 21  1  0  0  0  0
 27  1  1  0  0  0  0
 28 27  1  0  0  0  0
 29 40  1  0  0  0  0
 29 32  1  1  0  0  0
 30 31  1  0  0  0  0
 30 29  1  0  0  0  0
 31 35  1  6  0  0  0
 31 29  1  0  0  0  0
 31 27  1  0  0  0  0
 33 30  1  0  0  0  0
 34 30  1  0  0  0  0
 36 37  1  0  0  0  0
 37 43  1  0  0  0  0
 37 38  2  0  0  0  0
 38 44  1  0  0  0  0
 39 38  1  0  0  0  0
 40 39  2  0  0  0  0
 41 36  2  0  0  0  0
 41 40  1  0  0  0  0
 42 36  1  0  0  0  0
M  END
>  <minimizedAffinity>
-6.42748833

$$$$

 OpenBabel03242511103D

 44 48  0  0  1  0  0  0  0  0999 V2000
   37.2590   27.7800   39.4970 C   0  0  0  0  0  0  0  0  0  0  0  0
   37.0620   26.5170   38.9560 C   0  0  0  0  0  0  0  0  0  0  0  0
   36.9160   25.3670   39.7310 C   0  0  0  0  0  0  0  0  0  0  0  0
   36.9640   25.4620   41.1050 C   0  0  0  0  0  0  0  0  0  0  0  0
   37.1530   26.6770   41.6700 C   0  0  0  0  0  0  0  0  0  0  0  0
   37.2000   26.8070   43.0430 C   0  0  0  0  0  0  0  0  0  0  0  0
   37.3830   28.0060   43.6790 C   0  0  0  0  0  0  0  0  0  0  0  0
   37.5250   29.1270   42.8670 C   0  0  0  0  0  0  0  0  0  0  0  0
   37.4770   28.9930   41.4860 C   0  0  0  0  0  0  0  0  0  0  0  0
   37.2940   27.7950   40.8650 C   0  0  0  0  0  0  0  0  0  0  0  0
   37.0060   26.3260   37.8940 H   0  0  0  0  0  0  0  0  0  0  0  0
   36.7640   24.3920   39.2930 H   0  0  0  0  0  0  0  0  0  0  0  0
   36.8500   24.5700   41.7090 H   0  0  0  0  0  0  0  0  0  0  0  0
   37.0830   25.9030   43.6200 H   0  0  0  0  0  0  0  0  0  0  0  0
   37.4030   27.9870   44.7670 H   0  0  0  0  0  0  0  0  0  0  0  0
   37.6650   30.0290   43.4630 H   0  0  0  0  0  0  0  0  0  0  0  0
   37.6460   30.2830   40.9300 N   0  0  0  0  0  0  0  0  0  0  0  0
   36.8780   31.3480   40.6490 C   0  0  0  0  0  3  0  0  0  0  0  0
   37.3780   32.5160   40.1280 C   0  0  0  0  0  3  0  0  0  0  0  0
   38.7200   32.6660   39.8590 C   0  0  0  0  0  0  0  0  0  0  0  0
   39.0920   33.9230   39.3240 N   0  0  0  0  0  0  0  0  0  0  0  0
   39.5420   31.6240   40.1220 N   0  0  0  0  0  0  0  0  0  0  0  0
   38.9740   30.4960   40.6390 C   0  0  0  0  0  0  0  0  0  0  0  0
   39.9190   29.6470   40.8120 O   0  0  0  0  0  0  0  0  0  0  0  0
   38.7660   34.7590   39.8640 H   0  0  0  0  0  0  0  0  0  0  0  0
   39.6400   33.7310   38.4590 H   0  0  0  0  0  0  0  0  0  0  0  0
   37.3940   28.8690   38.6260 N   0  0  0  0  0  0  0  0  0  0  0  0
   38.3860   29.0140   38.8810 H   0  0  0  0  0  0  0  0  0  0  0  0
   35.8270   28.6690   36.6460 C   0  0  1  0  0  0  0  0  0  0  0  0
   36.6210   29.9470   36.4720 C   0  0  0  0  0  0  0  0  0  0  0  0
   36.2970   29.3570   37.8390 C   0  0  2  0  0  0  0  0  0  0  0  0
   36.3610   27.8300   36.1340 H   0  0  0  0  0  0  0  0  0  0  0  0
   35.9810   30.8270   36.2000 H   0  0  0  0  0  0  0  0  0  0  0  0
   37.6700   29.9380   36.1850 H   0  0  0  0  0  0  0  0  0  0  0  0
   35.5070   29.8370   38.4630 H   0  0  0  0  0  0  0  0  0  0  0  0
   32.7120   28.2230   34.6960 C   0  0  0  0  0  0  0  0  0  0  0  0
   31.7330   28.7560   35.5900 C   0  0  0  0  0  0  0  0  0  0  0  0
   32.1730   29.2460   36.8470 C   0  0  0  0  0  0  0  0  0  0  0  0
   33.4740   29.1880   37.1460 N   0  0  0  0  0  0  0  0  0  0  0  0
   34.3790   28.6760   36.2740 C   0  0  0  0  0  0  0  0  0  0  0  0
   34.0010   28.1910   35.0460 N   0  0  0  0  0  0  0  0  0  0  0  0
   32.3700   27.8510   33.7390 H   0  0  0  0  0  0  0  0  0  0  0  0
   30.7110   28.7580   35.2590 H   0  0  0  0  0  0  0  0  0  0  0  0
   31.4240   29.6410   37.5060 H   0  0  0  0  0  0  0  0  0  0  0  0
  1 10  1  0  0  0  0
  2  1  2  0  0  0  0
  2  3  1  0  0  0  0
  3  4  2  0  0  0  0
  4  5  1  0  0  0  0
  4 13  1  0  0  0  0
  5  6  1  0  0  0  0
  6 14  1  0  0  0  0
  6  7  2  0  0  0  0
  7 15  1  0  0  0  0
  8 16  1  0  0  0  0
  8  7  1  0  0  0  0
  9  8  2  0  0  0  0
 10  9  1  0  0  0  0
 10  5  2  0  0  0  0
 11  2  1  0  0  0  0
 12  3  1  0  0  0  0
 17  9  1  0  0  0  0
 18 17  1  0  0  0  0
 19 18  2  0  0  0  0
 20 22  2  0  0  0  0
 20 19  1  0  0  0  0
 21 20  1  0  0  0  0
 21 25  1  0  0  0  0
 22 23  1  0  0  0  0
 23 24  2  0  0  0  0
 23 17  1  0  0  0  0
 26 21  1  0  0  0  0
 27 28  1  0  0  0  0
 27  1  1  0  0  0  0
 29 32  1  6  0  0  0
 29 31  1  0  0  0  0
 30 29  1  0  0  0  0
 30 31  1  0  0  0  0
 31 35  1  1  0  0  0
 31 27  1  0  0  0  0
 33 30  1  0  0  0  0
 34 30  1  0  0  0  0
 36 41  2  0  0  0  0
 36 37  1  0  0  0  0
 37 38  2  0  0  0  0
 38 39  1  0  0  0  0
 38 44  1  0  0  0  0
 40 29  1  0  0  0  0
 40 39  2  0  0  0  0
 41 40  1  0  0  0  0
 42 36  1  0  0  0  0
 43 37  1  0  0  0  0
M  END
>  <minimizedAffinity>
-6.27612925

$$$$

 OpenBabel03242511103D

 44 48  0  0  1  0  0  0  0  0999 V2000
   37.2130   26.2060   41.0530 C   0  0  0  0  0  0  0  0  0  0  0  0
   37.0020   24.8440   40.8820 C   0  0  0  0  0  0  0  0  0  0  0  0
   37.7630   23.8670   41.5220 C   0  0  0  0  0  0  0  0  0  0  0  0
   38.7800   24.2450   42.3730 C   0  0  0  0  0  0  0  0  0  0  0  0
   39.0150   25.5630   42.5660 C   0  0  0  0  0  0  0  0  0  0  0  0
   40.0220   25.9740   43.4150 C   0  0  0  0  0  0  0  0  0  0  0  0
   40.3090   27.2910   43.6580 C   0  0  0  0  0  0  0  0  0  0  0  0
   39.5260   28.2320   42.9990 C   0  0  0  0  0  0  0  0  0  0  0  0
   38.5130   27.8160   42.1450 C   0  0  0  0  0  0  0  0  0  0  0  0
   38.2370   26.5030   41.9110 C   0  0  0  0  0  0  0  0  0  0  0  0
   36.2330   24.4360   40.2430 H   0  0  0  0  0  0  0  0  0  0  0  0
   37.5860   22.8120   41.3780 H   0  0  0  0  0  0  0  0  0  0  0  0
   39.3720   23.4870   42.8720 H   0  0  0  0  0  0  0  0  0  0  0  0
   40.5960   25.1990   43.8980 H   0  0  0  0  0  0  0  0  0  0  0  0
   41.1260   27.4960   44.3470 H   0  0  0  0  0  0  0  0  0  0  0  0
   39.8300   29.2470   43.2560 H   0  0  0  0  0  0  0  0  0  0  0  0
   37.8930   28.9770   41.6250 N   0  0  0  0  0  0  0  0  0  0  0  0
   36.8080   29.7210   41.8900 C   0  0  0  0  0  3  0  0  0  0  0  0
   36.4950   30.8630   41.1950 C   0  0  0  0  0  3  0  0  0  0  0  0
   37.2900   31.3200   40.1690 C   0  0  0  0  0  0  0  0  0  0  0  0
   36.8440   32.5090   39.5420 N   0  0  0  0  0  0  0  0  0  0  0  0
   38.3980   30.6090   39.8570 N   0  0  0  0  0  0  0  0  0  0  0  0
   38.6450   29.4850   40.5920 C   0  0  0  0  0  0  0  0  0  0  0  0
   39.7290   28.9740   40.1380 O   0  0  0  0  0  0  0  0  0  0  0  0
   36.6400   33.3100   40.1850 H   0  0  0  0  0  0  0  0  0  0  0  0
   36.8150   32.3170   38.5190 H   0  0  0  0  0  0  0  0  0  0  0  0
   36.3900   27.1030   40.3610 N   0  0  0  0  0  0  0  0  0  0  0  0
   35.9230   27.4220   41.2270 H   0  0  0  0  0  0  0  0  0  0  0  0
   35.3600   27.8580   38.1720 C   0  0  1  0  0  0  0  0  0  0  0  0
   35.4960   26.3500   38.1170 C   0  0  0  0  0  0  0  0  0  0  0  0
   36.4330   27.2320   38.9310 C   0  0  2  0  0  0  0  0  0  0  0  0
   34.3530   28.1230   38.5800 H   0  0  0  0  0  0  0  0  0  0  0  0
   35.9440   25.9850   37.1560 H   0  0  0  0  0  0  0  0  0  0  0  0
   34.8430   25.6920   38.6880 H   0  0  0  0  0  0  0  0  0  0  0  0
   37.4660   27.4210   38.5530 H   0  0  0  0  0  0  0  0  0  0  0  0
   35.2310   29.0360   34.6650 C   0  0  0  0  0  0  0  0  0  0  0  0
   36.2390   30.0500   34.6640 C   0  0  0  0  0  0  0  0  0  0  0  0
   36.9290   30.3060   35.8780 C   0  0  0  0  0  0  0  0  0  0  0  0
   36.6120   29.5990   36.9660 N   0  0  0  0  0  0  0  0  0  0  0  0
   35.6500   28.6420   36.9340 C   0  0  0  0  0  0  0  0  0  0  0  0
   34.9550   28.3580   35.7830 N   0  0  0  0  0  0  0  0  0  0  0  0
   34.7090   28.8440   33.7370 H   0  0  0  0  0  0  0  0  0  0  0  0
   36.4210   30.5640   33.7390 H   0  0  0  0  0  0  0  0  0  0  0  0
   37.6810   31.0710   35.8580 H   0  0  0  0  0  0  0  0  0  0  0  0
  1 10  1  0  0  0  0
  2  1  2  0  0  0  0
  2  3  1  0  0  0  0
  3  4  2  0  0  0  0
  4  5  1  0  0  0  0
  4 13  1  0  0  0  0
  5  6  1  0  0  0  0
  6  7  2  0  0  0  0
  6 14  1  0  0  0  0
  7 15  1  0  0  0  0
  8 16  1  0  0  0  0
  8  7  1  0  0  0  0
  9  8  2  0  0  0  0
 10  9  1  0  0  0  0
 10  5  2  0  0  0  0
 11  2  1  0  0  0  0
 12  3  1  0  0  0  0
 17 18  1  0  0  0  0
 17  9  1  0  0  0  0
 19 18  2  0  0  0  0
 20 19  1  0  0  0  0
 21 20  1  0  0  0  0
 21 25  1  0  0  0  0
 22 20  2  0  0  0  0
 22 23  1  0  0  0  0
 23 17  1  0  0  0  0
 24 23  2  0  0  0  0
 26 21  1  0  0  0  0
 27  1  1  0  0  0  0
 27 28  1  0  0  0  0
 29 32  1  1  0  0  0
 29 31  1  0  0  0  0
 30 29  1  0  0  0  0
 30 34  1  0  0  0  0
 30 31  1  0  0  0  0
 31 35  1  6  0  0  0
 31 27  1  0  0  0  0
 33 30  1  0  0  0  0
 36 41  1  0  0  0  0
 37 36  2  0  0  0  0
 37 38  1  0  0  0  0
 38 39  2  0  0  0  0
 40 39  1  0  0  0  0
 40 29  1  0  0  0  0
 41 40  2  0  0  0  0
 42 36  1  0  0  0  0
 43 37  1  0  0  0  0
 44 38  1  0  0  0  0
M  END
>  <minimizedAffinity>
-6.2430687

$$$$

 OpenBabel03242511103D

 44 48  0  0  1  0  0  0  0  0999 V2000
   37.4880   26.6670   40.4770 C   0  0  0  0  0  0  0  0  0  0  0  0
   36.8220   25.4510   40.4240 C   0  0  0  0  0  0  0  0  0  0  0  0
   37.0270   24.4260   41.3470 C   0  0  0  0  0  0  0  0  0  0  0  0
   37.9300   24.6050   42.3730 C   0  0  0  0  0  0  0  0  0  0  0  0
   38.5990   25.7780   42.4580 C   0  0  0  0  0  0  0  0  0  0  0  0
   39.5060   25.9900   43.4770 C   0  0  0  0  0  0  0  0  0  0  0  0
   40.2110   27.1540   43.6240 C   0  0  0  0  0  0  0  0  0  0  0  0
   39.9760   28.1490   42.6810 C   0  0  0  0  0  0  0  0  0  0  0  0
   39.0630   27.9330   41.6580 C   0  0  0  0  0  0  0  0  0  0  0  0
   38.3660   26.7710   41.5220 C   0  0  0  0  0  0  0  0  0  0  0  0
   36.0920   25.2040   39.6660 H   0  0  0  0  0  0  0  0  0  0  0  0
   36.5000   23.4850   41.2900 H   0  0  0  0  0  0  0  0  0  0  0  0
   38.0910   23.8090   43.0910 H   0  0  0  0  0  0  0  0  0  0  0  0
   39.6460   25.1820   44.1780 H   0  0  0  0  0  0  0  0  0  0  0  0
   40.8990   27.2080   44.4650 H   0  0  0  0  0  0  0  0  0  0  0  0
   40.5820   29.0330   42.8830 H   0  0  0  0  0  0  0  0  0  0  0  0
   39.0320   29.1040   40.8650 N   0  0  0  0  0  0  0  0  0  0  0  0
   39.6340   29.5650   39.7560 C   0  0  0  0  0  3  0  0  0  0  0  0
   39.3380   30.7810   39.1930 C   0  0  0  0  0  3  0  0  0  0  0  0
   38.3880   31.6140   39.7400 C   0  0  0  0  0  0  0  0  0  0  0  0
   38.1870   32.8360   39.0530 N   0  0  0  0  0  0  0  0  0  0  0  0
   37.7480   31.2010   40.8580 N   0  0  0  0  0  0  0  0  0  0  0  0
   38.0950   29.9800   41.3610 C   0  0  0  0  0  0  0  0  0  0  0  0
   37.3760   29.7890   42.4050 O   0  0  0  0  0  0  0  0  0  0  0  0
   38.0030   32.7520   38.0260 H   0  0  0  0  0  0  0  0  0  0  0  0
   38.2720   33.5950   39.7600 H   0  0  0  0  0  0  0  0  0  0  0  0
   37.2070   27.6290   39.4990 N   0  0  0  0  0  0  0  0  0  0  0  0
   38.1980   27.9130   39.4200 H   0  0  0  0  0  0  0  0  0  0  0  0
   35.5070   29.1030   38.3340 C   0  0  1  0  0  0  0  0  0  0  0  0
   35.0640   28.9460   39.7740 C   0  0  0  0  0  0  0  0  0  0  0  0
   35.8700   27.8830   39.0390 C   0  0  2  0  0  0  0  0  0  0  0  0
   36.1540   30.0120   38.2440 H   0  0  0  0  0  0  0  0  0  0  0  0
   33.9760   28.6950   39.8740 H   0  0  0  0  0  0  0  0  0  0  0  0
   35.5740   29.4520   40.5910 H   0  0  0  0  0  0  0  0  0  0  0  0
   35.3560   26.9550   38.6940 H   0  0  0  0  0  0  0  0  0  0  0  0
   33.9210   29.1340   34.9890 C   0  0  0  0  0  0  0  0  0  0  0  0
   32.5330   29.1340   35.3280 C   0  0  0  0  0  0  0  0  0  0  0  0
   32.1810   29.1130   36.7030 C   0  0  0  0  0  0  0  0  0  0  0  0
   33.1520   29.0920   37.6200 N   0  0  0  0  0  0  0  0  0  0  0  0
   34.4620   29.0930   37.2650 C   0  0  0  0  0  0  0  0  0  0  0  0
   34.8510   29.1120   35.9480 N   0  0  0  0  0  0  0  0  0  0  0  0
   34.1830   29.1500   33.9390 H   0  0  0  0  0  0  0  0  0  0  0  0
   31.8270   29.1510   34.5190 H   0  0  0  0  0  0  0  0  0  0  0  0
   31.1350   29.1130   36.9390 H   0  0  0  0  0  0  0  0  0  0  0  0
  1 10  1  0  0  0  0
  2  1  2  0  0  0  0
  2  3  1  0  0  0  0
  3  4  2  0  0  0  0
  4  5  1  0  0  0  0
  4 13  1  0  0  0  0
  5  6  1  0  0  0  0
  6  7  2  0  0  0  0
  6 14  1  0  0  0  0
  7 15  1  0  0  0  0
  8 16  1  0  0  0  0
  8  7  1  0  0  0  0
  9  8  2  0  0  0  0
 10  9  1  0  0  0  0
 10  5  2  0  0  0  0
 11  2  1  0  0  0  0
 12  3  1  0  0  0  0
 17 23  1  0  0  0  0
 17  9  1  0  0  0  0
 18 17  1  0  0  0  0
 19 20  1  0  0  0  0
 19 18  2  0  0  0  0
 20 22  2  0  0  0  0
 21 20  1  0  0  0  0
 21 26  1  0  0  0  0
 22 23  1  0  0  0  0
 23 24  2  0  0  0  0
 25 21  1  0  0  0  0
 27  1  1  0  0  0  0
 28 27  1  0  0  0  0
 29 32  1  6  0  0  0
 29 31  1  0  0  0  0
 29 30  1  0  0  0  0
 30 33  1  0  0  0  0
 30 34  1  0  0  0  0
 31 35  1  6  0  0  0
 31 27  1  0  0  0  0
 31 30  1  0  0  0  0
 36 37  2  0  0  0  0
 36 41  1  0  0  0  0
 37 38  1  0  0  0  0
 38 44  1  0  0  0  0
 38 39  2  0  0  0  0
 40 39  1  0  0  0  0
 40 29  1  0  0  0  0
 41 40  2  0  0  0  0
 42 36  1  0  0  0  0
 43 37  1  0  0  0  0
M  END
>  <minimizedAffinity>
-6.20450068

$$$$

 OpenBabel03242511103D

 44 48  0  0  1  0  0  0  0  0999 V2000
   36.6450   27.4970   40.6060 C   0  0  0  0  0  0  0  0  0  0  0  0
   36.3610   28.1510   41.7960 C   0  0  0  0  0  0  0  0  0  0  0  0
   36.4910   27.5510   43.0480 C   0  0  0  0  0  0  0  0  0  0  0  0
   36.9230   26.2450   43.1360 C   0  0  0  0  0  0  0  0  0  0  0  0
   37.2110   25.5740   41.9960 C   0  0  0  0  0  0  0  0  0  0  0  0
   37.6500   24.2680   42.0500 C   0  0  0  0  0  0  0  0  0  0  0  0
   37.9630   23.5340   40.9360 C   0  0  0  0  0  0  0  0  0  0  0  0
   37.8180   24.1710   39.7090 C   0  0  0  0  0  0  0  0  0  0  0  0
   37.3760   25.4870   39.6580 C   0  0  0  0  0  0  0  0  0  0  0  0
   37.0680   26.2060   40.7720 C   0  0  0  0  0  0  0  0  0  0  0  0
   36.0190   29.1750   41.8470 H   0  0  0  0  0  0  0  0  0  0  0  0
   36.2650   28.0750   43.9650 H   0  0  0  0  0  0  0  0  0  0  0  0
   37.0250   25.7780   44.1070 H   0  0  0  0  0  0  0  0  0  0  0  0
   37.7430   23.8270   43.0300 H   0  0  0  0  0  0  0  0  0  0  0  0
   38.2990   22.5120   41.1010 H   0  0  0  0  0  0  0  0  0  0  0  0
   38.0900   23.5080   38.8870 H   0  0  0  0  0  0  0  0  0  0  0  0
   37.3280   25.8650   38.2960 N   0  0  0  0  0  0  0  0  0  0  0  0
   38.1370   26.4630   37.4060 C   0  0  0  0  0  3  0  0  0  0  0  0
   37.7940   26.6520   36.0900 C   0  0  0  0  0  3  0  0  0  0  0  0
   36.5790   26.2320   35.5970 C   0  0  0  0  0  0  0  0  0  0  0  0
   36.3620   26.4940   34.2230 N   0  0  0  0  0  0  0  0  0  0  0  0
   35.7230   25.6230   36.4490 N   0  0  0  0  0  0  0  0  0  0  0  0
   36.1330   25.4690   37.7430 C   0  0  0  0  0  0  0  0  0  0  0  0
   35.1830   24.8750   38.3670 O   0  0  0  0  0  0  0  0  0  0  0  0
   37.1150   26.1640   33.5750 H   0  0  0  0  0  0  0  0  0  0  0  0
   35.4470   26.9870   34.1530 H   0  0  0  0  0  0  0  0  0  0  0  0
   36.4790   28.1940   39.4020 N   0  0  0  0  0  0  0  0  0  0  0  0
   35.8310   27.4840   39.0220 H   0  0  0  0  0  0  0  0  0  0  0  0
   36.5980   30.7240   39.4370 C   0  0  1  0  0  0  0  0  0  0  0  0
   36.6490   30.2850   37.9880 C   0  0  0  0  0  0  0  0  0  0  0  0
   37.1710   29.4220   39.1290 C   0  0  2  0  0  0  0  0  0  0  0  0
   35.5330   30.9060   39.7300 H   0  0  0  0  0  0  0  0  0  0  0  0
   37.4590   30.7950   37.4030 H   0  0  0  0  0  0  0  0  0  0  0  0
   35.7700   29.9090   37.4690 H   0  0  0  0  0  0  0  0  0  0  0  0
   38.2730   29.3320   39.2810 H   0  0  0  0  0  0  0  0  0  0  0  0
   37.9480   34.1530   39.7870 C   0  0  0  0  0  0  0  0  0  0  0  0
   39.0960   33.9290   40.6080 C   0  0  0  0  0  0  0  0  0  0  0  0
   39.3680   32.6000   41.0270 C   0  0  0  0  0  0  0  0  0  0  0  0
   38.5460   31.6190   40.6450 N   0  0  0  0  0  0  0  0  0  0  0  0
   37.4640   31.8650   39.8640 C   0  0  0  0  0  0  0  0  0  0  0  0
   37.1600   33.1340   39.4330 N   0  0  0  0  0  0  0  0  0  0  0  0
   37.7470   35.1680   39.4690 H   0  0  0  0  0  0  0  0  0  0  0  0
   39.6950   34.7830   40.8630 H   0  0  0  0  0  0  0  0  0  0  0  0
   40.2330   32.4510   41.6430 H   0  0  0  0  0  0  0  0  0  0  0  0
  1 10  2  0  0  0  0
  1  2  1  0  0  0  0
  2 11  1  0  0  0  0
  2  3  2  0  0  0  0
  3  4  1  0  0  0  0
  3 12  1  0  0  0  0
  4 13  1  0  0  0  0
  5  6  1  0  0  0  0
  5  4  2  0  0  0  0
  6 14  1  0  0  0  0
  7 15  1  0  0  0  0
  7  6  2  0  0  0  0
  8  7  1  0  0  0  0
  9  8  2  0  0  0  0
  9 10  1  0  0  0  0
 10  5  1  0  0  0  0
 16  8  1  0  0  0  0
 17  9  1  0  0  0  0
 18 17  1  0  0  0  0
 19 18  2  0  0  0  0
 20 19  1  0  0  0  0
 20 22  2  0  0  0  0
 21 20  1  0  0  0  0
 22 23  1  0  0  0  0
 23 17  1  0  0  0  0
 23 24  2  0  0  0  0
 25 21  1  0  0  0  0
 26 21  1  0  0  0  0
 27  1  1  0  0  0  0
 28 27  1  0  0  0  0
 29 32  1  1  0  0  0
 29 40  1  0  0  0  0
 30 31  1  0  0  0  0
 30 29  1  0  0  0  0
 31 35  1  1  0  0  0
 31 27  1  0  0  0  0
 31 29  1  0  0  0  0
 33 30  1  0  0  0  0
 34 30  1  0  0  0  0
 36 37  1  0  0  0  0
 37 43  1  0  0  0  0
 37 38  2  0  0  0  0
 38 44  1  0  0  0  0
 39 38  1  0  0  0  0
 40 39  2  0  0  0  0
 41 36  2  0  0  0  0
 41 40  1  0  0  0  0
 42 36  1  0  0  0  0
M  END
>  <minimizedAffinity>
-6.16653013

$$$$

 OpenBabel03242511103D

 44 48  0  0  1  0  0  0  0  0999 V2000
   37.4210   30.9200   40.8410 C   0  0  0  0  0  0  0  0  0  0  0  0
   37.0950   32.1010   40.1900 C   0  0  0  0  0  0  0  0  0  0  0  0
   37.9770   33.1740   40.0650 C   0  0  0  0  0  0  0  0  0  0  0  0
   39.2410   33.0830   40.6060 C   0  0  0  0  0  0  0  0  0  0  0  0
   39.5960   31.9460   41.2490 C   0  0  0  0  0  0  0  0  0  0  0  0
   40.8560   31.8210   41.7970 C   0  0  0  0  0  0  0  0  0  0  0  0
   41.2810   30.6970   42.4550 C   0  0  0  0  0  0  0  0  0  0  0  0
   40.3700   29.6520   42.5570 C   0  0  0  0  0  0  0  0  0  0  0  0
   39.1020   29.7800   42.0040 C   0  0  0  0  0  0  0  0  0  0  0  0
   38.6910   30.9030   41.3510 C   0  0  0  0  0  0  0  0  0  0  0  0
   36.1350   32.2810   39.7270 H   0  0  0  0  0  0  0  0  0  0  0  0
   37.7060   34.0870   39.5550 H   0  0  0  0  0  0  0  0  0  0  0  0
   39.9280   33.9150   40.5110 H   0  0  0  0  0  0  0  0  0  0  0  0
   41.5200   32.6650   41.6870 H   0  0  0  0  0  0  0  0  0  0  0  0
   42.2970   30.7130   42.8470 H   0  0  0  0  0  0  0  0  0  0  0  0
   40.7990   28.8060   43.0950 H   0  0  0  0  0  0  0  0  0  0  0  0
   38.4060   28.5760   42.2570 N   0  0  0  0  0  0  0  0  0  0  0  0
   37.4830   28.1290   43.1250 C   0  0  0  0  0  3  0  0  0  0  0  0
   36.9600   26.8620   43.0760 C   0  0  0  0  0  3  0  0  0  0  0  0
   37.3550   25.9580   42.1160 C   0  0  0  0  0  0  0  0  0  0  0  0
   36.7310   24.6890   42.1870 N   0  0  0  0  0  0  0  0  0  0  0  0
   38.2830   26.3520   41.2140 N   0  0  0  0  0  0  0  0  0  0  0  0
   38.7590   27.6270   41.3250 C   0  0  0  0  0  0  0  0  0  0  0  0
   39.6140   27.7900   40.3840 O   0  0  0  0  0  0  0  0  0  0  0  0
   35.6840   24.7010   42.2200 H   0  0  0  0  0  0  0  0  0  0  0  0
   37.4930   23.9790   42.1910 H   0  0  0  0  0  0  0  0  0  0  0  0
   36.4600   29.9040   40.9090 N   0  0  0  0  0  0  0  0  0  0  0  0
   36.3390   30.0160   41.9300 H   0  0  0  0  0  0  0  0  0  0  0  0
   35.4990   29.7840   38.5680 C   0  0  1  0  0  0  0  0  0  0  0  0
   34.5680   29.0160   39.4830 C   0  0  0  0  0  0  0  0  0  0  0  0
   36.0600   29.1520   39.7520 C   0  0  2  0  0  0  0  0  0  0  0  0
   35.1590   30.8490   38.5060 H   0  0  0  0  0  0  0  0  0  0  0  0
   34.2750   28.0150   39.0710 H   0  0  0  0  0  0  0  0  0  0  0  0
   33.9080   29.5190   40.1870 H   0  0  0  0  0  0  0  0  0  0  0  0
   36.7280   28.2780   39.5630 H   0  0  0  0  0  0  0  0  0  0  0  0
   37.3020   28.4710   35.6130 C   0  0  0  0  0  0  0  0  0  0  0  0
   36.2340   28.2910   34.6810 C   0  0  0  0  0  0  0  0  0  0  0  0
   34.9180   28.6180   35.1010 C   0  0  0  0  0  0  0  0  0  0  0  0
   34.7290   29.0750   36.3410 N   0  0  0  0  0  0  0  0  0  0  0  0
   35.7650   29.2360   37.2030 C   0  0  0  0  0  0  0  0  0  0  0  0
   37.0550   28.9330   36.8430 N   0  0  0  0  0  0  0  0  0  0  0  0
   38.3030   28.2210   35.2880 H   0  0  0  0  0  0  0  0  0  0  0  0
   36.4870   27.9160   33.7070 H   0  0  0  0  0  0  0  0  0  0  0  0
   34.1300   28.4750   34.3880 H   0  0  0  0  0  0  0  0  0  0  0  0
  1 27  1  0  0  0  0
  1 10  1  0  0  0  0
  2  1  2  0  0  0  0
  3  2  1  0  0  0  0
  3  4  2  0  0  0  0
  4  5  1  0  0  0  0
  5 10  2  0  0  0  0
  5  6  1  0  0  0  0
  6  7  2  0  0  0  0
  7  8  1  0  0  0  0
  7 15  1  0  0  0  0
  8 16  1  0  0  0  0
  9 17  1  0  0  0  0
  9  8  2  0  0  0  0
 10  9  1  0  0  0  0
 11  2  1  0  0  0  0
 12  3  1  0  0  0  0
 13  4  1  0  0  0  0
 14  6  1  0  0  0  0
 17 18  1  0  0  0  0
 19 18  2  0  0  0  0
 20 21  1  0  0  0  0
 20 19  1  0  0  0  0
 21 26  1  0  0  0  0
 21 25  1  0  0  0  0
 22 23  1  0  0  0  0
 22 20  2  0  0  0  0
 23 17  1  0  0  0  0
 24 23  2  0  0  0  0
 27 28  1  0  0  0  0
 29 32  1  1  0  0  0
 29 30  1  0  0  0  0
 29 31  1  0  0  0  0
 30 31  1  0  0  0  0
 30 34  1  0  0  0  0
 31 35  1  6  0  0  0
 31 27  1  0  0  0  0
 33 30  1  0  0  0  0
 36 41  1  0  0  0  0
 37 38  1  0  0  0  0
 37 36  2  0  0  0  0
 38 39  2  0  0  0  0
 39 40  1  0  0  0  0
 40 29  1  0  0  0  0
 41 40  2  0  0  0  0
 42 36  1  0  0  0  0
 43 37  1  0  0  0  0
 44 38  1  0  0  0  0
M  END
>  <minimizedAffinity>
-6.14768744

$$$$

 OpenBabel03242511103D

 44 48  0  0  1  0  0  0  0  0999 V2000
   37.0870   26.3540   41.0180 C   0  0  0  0  0  0  0  0  0  0  0  0
   37.3880   25.0950   41.5170 C   0  0  0  0  0  0  0  0  0  0  0  0
   37.1070   23.9130   40.8320 C   0  0  0  0  0  0  0  0  0  0  0  0
   36.5030   23.9710   39.5950 C   0  0  0  0  0  0  0  0  0  0  0  0
   36.1950   25.1820   39.0730 C   0  0  0  0  0  0  0  0  0  0  0  0
   35.5940   25.2740   37.8350 C   0  0  0  0  0  0  0  0  0  0  0  0
   35.2610   26.4660   37.2480 C   0  0  0  0  0  0  0  0  0  0  0  0
   35.5580   27.6190   37.9670 C   0  0  0  0  0  0  0  0  0  0  0  0
   36.1630   27.5230   39.2130 C   0  0  0  0  0  0  0  0  0  0  0  0
   36.4900   26.3320   39.7860 C   0  0  0  0  0  0  0  0  0  0  0  0
   37.8630   24.9310   42.4740 H   0  0  0  0  0  0  0  0  0  0  0  0
   37.3480   22.9410   41.2360 H   0  0  0  0  0  0  0  0  0  0  0  0
   36.2840   23.0550   39.0600 H   0  0  0  0  0  0  0  0  0  0  0  0
   35.3880   24.3460   37.3250 H   0  0  0  0  0  0  0  0  0  0  0  0
   34.7910   26.4160   36.2680 H   0  0  0  0  0  0  0  0  0  0  0  0
   35.2570   28.5120   37.4190 H   0  0  0  0  0  0  0  0  0  0  0  0
   36.3430   28.8390   39.6990 N   0  0  0  0  0  0  0  0  0  0  0  0
   35.7270   29.6710   40.5540 C   0  0  0  0  0  3  0  0  0  0  0  0
   36.2000   30.9260   40.8510 C   0  0  0  0  0  3  0  0  0  0  0  0
   37.3540   31.4120   40.2790 C   0  0  0  0  0  0  0  0  0  0  0  0
   37.7200   32.7200   40.6780 N   0  0  0  0  0  0  0  0  0  0  0  0
   38.0170   30.6170   39.4080 N   0  0  0  0  0  0  0  0  0  0  0  0
   37.4870   29.3830   39.1620 C   0  0  0  0  0  0  0  0  0  0  0  0
   38.2640   28.8050   38.3230 O   0  0  0  0  0  0  0  0  0  0  0  0
   37.7690   32.8820   41.7110 H   0  0  0  0  0  0  0  0  0  0  0  0
   37.8700   33.2690   39.8050 H   0  0  0  0  0  0  0  0  0  0  0  0
   37.4120   27.4770   41.7890 N   0  0  0  0  0  0  0  0  0  0  0  0
   36.4190   27.7250   41.9380 H   0  0  0  0  0  0  0  0  0  0  0  0
   39.4060   27.6860   43.3380 C   0  0  1  0  0  0  0  0  0  0  0  0
   39.0060   29.0850   42.9180 C   0  0  0  0  0  0  0  0  0  0  0  0
   38.7720   27.8630   42.0400 C   0  0  2  0  0  0  0  0  0  0  0  0
   38.8720   27.4180   44.2850 H   0  0  0  0  0  0  0  0  0  0  0  0
   39.8770   29.7120   42.5940 H   0  0  0  0  0  0  0  0  0  0  0  0
   38.1130   29.5700   43.3090 H   0  0  0  0  0  0  0  0  0  0  0  0
   39.4310   27.6980   41.1550 H   0  0  0  0  0  0  0  0  0  0  0  0
   43.0840   28.1010   43.4220 C   0  0  0  0  0  0  0  0  0  0  0  0
   43.5220   26.7510   43.5900 C   0  0  0  0  0  0  0  0  0  0  0  0
   42.5360   25.7350   43.6800 C   0  0  0  0  0  0  0  0  0  0  0  0
   41.2460   26.0750   43.6070 N   0  0  0  0  0  0  0  0  0  0  0  0
   40.8620   27.3670   43.4470 C   0  0  0  0  0  0  0  0  0  0  0  0
   41.7790   28.3850   43.3550 N   0  0  0  0  0  0  0  0  0  0  0  0
   43.8400   28.8720   43.3540 H   0  0  0  0  0  0  0  0  0  0  0  0
   44.5810   26.5790   43.6370 H   0  0  0  0  0  0  0  0  0  0  0  0
   42.8840   24.7280   43.8060 H   0  0  0  0  0  0  0  0  0  0  0  0
  1  2  1  0  0  0  0
  1 27  1  0  0  0  0
  2 11  1  0  0  0  0
  3 12  1  0  0  0  0
  3  2  2  0  0  0  0
  4  3  1  0  0  0  0
  5  4  2  0  0  0  0
  5 10  1  0  0  0  0
  6  5  1  0  0  0  0
  7  6  2  0  0  0  0
  7  8  1  0  0  0  0
  8  9  2  0  0  0  0
  9 17  1  0  0  0  0
  9 10  1  0  0  0  0
 10  1  2  0  0  0  0
 13  4  1  0  0  0  0
 14  6  1  0  0  0  0
 15  7  1  0  0  0  0
 16  8  1  0  0  0  0
 17 18  1  0  0  0  0
 18 19  2  0  0  0  0
 20 21  1  0  0  0  0
 20 19  1  0  0  0  0
 21 25  1  0  0  0  0
 22 20  2  0  0  0  0
 23 22  1  0  0  0  0
 23 17  1  0  0  0  0
 24 23  2  0  0  0  0
 26 21  1  0  0  0  0
 27 28  1  0  0  0  0
 27 31  1  0  0  0  0
 29 40  1  0  0  0  0
 29 32  1  1  0  0  0
 30 34  1  0  0  0  0
 30 29  1  0  0  0  0
 31 35  1  6  0  0  0
 31 30  1  0  0  0  0
 31 29  1  0  0  0  0
 33 30  1  0  0  0  0
 36 37  1  0  0  0  0
 37 43  1  0  0  0  0
 37 38  2  0  0  0  0
 38 44  1  0  0  0  0
 39 38  1  0  0  0  0
 40 39  2  0  0  0  0
 41 36  2  0  0  0  0
 41 40  1  0  0  0  0
 42 36  1  0  0  0  0
M  END
>  <minimizedAffinity>
-6.14765596

$$$$

 OpenBabel03242511103D

 44 48  0  0  1  0  0  0  0  0999 V2000
   37.0850   28.7510   41.5590 C   0  0  0  0  0  0  0  0  0  0  0  0
   36.3960   27.8670   42.3770 C   0  0  0  0  0  0  0  0  0  0  0  0
   36.9980   27.1590   43.4170 C   0  0  0  0  0  0  0  0  0  0  0  0
   38.3430   27.3300   43.6670 C   0  0  0  0  0  0  0  0  0  0  0  0
   39.0490   28.1850   42.8910 C   0  0  0  0  0  0  0  0  0  0  0  0
   40.3950   28.3820   43.1190 C   0  0  0  0  0  0  0  0  0  0  0  0
   41.1660   29.2360   42.3760 C   0  0  0  0  0  0  0  0  0  0  0  0
   40.5250   29.9200   41.3490 C   0  0  0  0  0  0  0  0  0  0  0  0
   39.1700   29.7200   41.1220 C   0  0  0  0  0  0  0  0  0  0  0  0
   38.4130   28.8690   41.8680 C   0  0  0  0  0  0  0  0  0  0  0  0
   35.3410   27.6580   42.2730 H   0  0  0  0  0  0  0  0  0  0  0  0
   36.4470   26.4740   44.0430 H   0  0  0  0  0  0  0  0  0  0  0  0
   38.8120   26.7810   44.4750 H   0  0  0  0  0  0  0  0  0  0  0  0
   40.8370   27.8230   43.9300 H   0  0  0  0  0  0  0  0  0  0  0  0
   42.2170   29.3100   42.6470 H   0  0  0  0  0  0  0  0  0  0  0  0
   41.2190   30.5720   40.8180 H   0  0  0  0  0  0  0  0  0  0  0  0
   38.7980   30.5400   40.0310 N   0  0  0  0  0  0  0  0  0  0  0  0
   38.2630   31.7570   39.8450 C   0  0  0  0  0  3  0  0  0  0  0  0
   38.0590   32.3040   38.6020 C   0  0  0  0  0  3  0  0  0  0  0  0
   38.3980   31.6250   37.4540 C   0  0  0  0  0  0  0  0  0  0  0  0
   38.1300   32.3110   36.2450 N   0  0  0  0  0  0  0  0  0  0  0  0
   38.9410   30.3930   37.5800 N   0  0  0  0  0  0  0  0  0  0  0  0
   39.1150   29.9140   38.8470 C   0  0  0  0  0  0  0  0  0  0  0  0
   39.6380   28.7490   38.7370 O   0  0  0  0  0  0  0  0  0  0  0  0
   38.5150   33.2830   36.1810 H   0  0  0  0  0  0  0  0  0  0  0  0
   37.5760   31.6620   35.6470 H   0  0  0  0  0  0  0  0  0  0  0  0
   36.3830   29.4110   40.5420 N   0  0  0  0  0  0  0  0  0  0  0  0
   36.5190   30.3380   40.9800 H   0  0  0  0  0  0  0  0  0  0  0  0
   35.4690   29.3490   38.1810 C   0  0  1  0  0  0  0  0  0  0  0  0
   34.3290   29.0160   39.1200 C   0  0  0  0  0  0  0  0  0  0  0  0
   35.7830   28.7030   39.4470 C   0  0  2  0  0  0  0  0  0  0  0  0
   35.4870   30.4530   37.9980 H   0  0  0  0  0  0  0  0  0  0  0  0
   33.7380   28.1200   38.7940 H   0  0  0  0  0  0  0  0  0  0  0  0
   33.8530   29.7740   39.7380 H   0  0  0  0  0  0  0  0  0  0  0  0
   36.1400   27.6480   39.3750 H   0  0  0  0  0  0  0  0  0  0  0  0
   35.0750   28.4690   34.6060 C   0  0  0  0  0  0  0  0  0  0  0  0
   35.7050   27.1870   34.5540 C   0  0  0  0  0  0  0  0  0  0  0  0
   36.2580   26.6650   35.7520 C   0  0  0  0  0  0  0  0  0  0  0  0
   36.1720   27.3860   36.8730 N   0  0  0  0  0  0  0  0  0  0  0  0
   35.5670   28.6010   36.8900 C   0  0  0  0  0  0  0  0  0  0  0  0
   35.0170   29.1470   35.7560 N   0  0  0  0  0  0  0  0  0  0  0  0
   34.6550   28.8610   33.6900 H   0  0  0  0  0  0  0  0  0  0  0  0
   35.7240   26.6850   33.6040 H   0  0  0  0  0  0  0  0  0  0  0  0
   36.7270   25.7020   35.6930 H   0  0  0  0  0  0  0  0  0  0  0  0
  1 10  2  0  0  0  0
  1  2  1  0  0  0  0
  2  3  2  0  0  0  0
  3  4  1  0  0  0  0
  3 12  1  0  0  0  0
  4 13  1  0  0  0  0
  5  6  1  0  0  0  0
  5  4  2  0  0  0  0
  6 14  1  0  0  0  0
  7 15  1  0  0  0  0
  7  6  2  0  0  0  0
  8  7  1  0  0  0  0
  9  8  2  0  0  0  0
  9 10  1  0  0  0  0
 10  5  1  0  0  0  0
 11  2  1  0  0  0  0
 16  8  1  0  0  0  0
 17  9  1  0  0  0  0
 18 17  1  0  0  0  0
 19 18  2  0  0  0  0
 20 22  2  0  0  0  0
 20 19  1  0  0  0  0
 21 20  1  0  0  0  0
 22 23  1  0  0  0  0
 23 17  1  0  0  0  0
 24 23  2  0  0  0  0
 25 21  1  0  0  0  0
 26 21  1  0  0  0  0
 27 28  1  0  0  0  0
 27  1  1  0  0  0  0
 29 32  1  6  0  0  0
 29 30  1  0  0  0  0
 29 31  1  0  0  0  0
 30 31  1  0  0  0  0
 30 34  1  0  0  0  0
 31 35  1  6  0  0  0
 31 27  1  0  0  0  0
 33 30  1  0  0  0  0
 36 41  1  0  0  0  0
 37 36  2  0  0  0  0
 37 38  1  0  0  0  0
 38 39  2  0  0  0  0
 39 40  1  0  0  0  0
 40 29  1  0  0  0  0
 41 40  2  0  0  0  0
 42 36  1  0  0  0  0
 43 37  1  0  0  0  0
 44 38  1  0  0  0  0
M  END
>  <minimizedAffinity>
-6.14421225

$$$$

 OpenBabel03242511103D

 44 48  0  0  1  0  0  0  0  0999 V2000
   37.2020   26.8170   39.7010 C   0  0  0  0  0  0  0  0  0  0  0  0
   36.9410   25.4570   39.7930 C   0  0  0  0  0  0  0  0  0  0  0  0
   36.8540   24.7750   41.0060 C   0  0  0  0  0  0  0  0  0  0  0  0
   37.0310   25.4630   42.1880 C   0  0  0  0  0  0  0  0  0  0  0  0
   37.2860   26.7910   42.1390 C   0  0  0  0  0  0  0  0  0  0  0  0
   37.4630   27.5090   43.3040 C   0  0  0  0  0  0  0  0  0  0  0  0
   37.7190   28.8540   43.3260 C   0  0  0  0  0  0  0  0  0  0  0  0
   37.7980   29.4940   42.0930 C   0  0  0  0  0  0  0  0  0  0  0  0
   37.6190   28.7690   40.9220 C   0  0  0  0  0  0  0  0  0  0  0  0
   37.3650   27.4310   40.9130 C   0  0  0  0  0  0  0  0  0  0  0  0
   36.7840   24.8210   38.9340 H   0  0  0  0  0  0  0  0  0  0  0  0
   36.6510   23.7160   41.0590 H   0  0  0  0  0  0  0  0  0  0  0  0
   36.9630   24.9350   43.1310 H   0  0  0  0  0  0  0  0  0  0  0  0
   37.3900   26.9580   44.2290 H   0  0  0  0  0  0  0  0  0  0  0  0
   37.8400   29.3150   44.3040 H   0  0  0  0  0  0  0  0  0  0  0  0
   38.0030   30.5580   42.2140 H   0  0  0  0  0  0  0  0  0  0  0  0
   37.7510   29.6710   39.8410 N   0  0  0  0  0  0  0  0  0  0  0  0
   36.9470   30.4430   39.0920 C   0  0  0  0  0  3  0  0  0  0  0  0
   37.4130   31.2720   38.1030 C   0  0  0  0  0  3  0  0  0  0  0  0
   38.7560   31.3650   37.8170 C   0  0  0  0  0  0  0  0  0  0  0  0
   39.0910   32.2600   36.7720 N   0  0  0  0  0  0  0  0  0  0  0  0
   39.6150   30.6100   38.5400 N   0  0  0  0  0  0  0  0  0  0  0  0
   39.0780   29.8090   39.5070 C   0  0  0  0  0  0  0  0  0  0  0  0
   40.0550   29.1920   40.0630 O   0  0  0  0  0  0  0  0  0  0  0  0
   38.7040   33.2290   36.8650 H   0  0  0  0  0  0  0  0  0  0  0  0
   39.6830   31.7290   36.1000 H   0  0  0  0  0  0  0  0  0  0  0  0
   37.2690   27.4030   38.4310 N   0  0  0  0  0  0  0  0  0  0  0  0
   36.6250   28.1680   38.6940 H   0  0  0  0  0  0  0  0  0  0  0  0
   39.4530   27.1220   37.1780 C   0  0  1  0  0  0  0  0  0  0  0  0
   38.4560   27.7460   36.2230 C   0  0  0  0  0  0  0  0  0  0  0  0
   38.0390   26.8280   37.3640 C   0  0  2  0  0  0  0  0  0  0  0  0
   40.0170   27.9320   37.7050 H   0  0  0  0  0  0  0  0  0  0  0  0
   38.4410   27.2500   35.2180 H   0  0  0  0  0  0  0  0  0  0  0  0
   38.1490   28.7860   36.3110 H   0  0  0  0  0  0  0  0  0  0  0  0
   37.7290   25.7810   37.1320 H   0  0  0  0  0  0  0  0  0  0  0  0
   40.8050   23.8520   36.0890 C   0  0  0  0  0  0  0  0  0  0  0  0
   42.1440   24.1990   35.7300 C   0  0  0  0  0  0  0  0  0  0  0  0
   42.5410   25.5550   35.8640 C   0  0  0  0  0  0  0  0  0  0  0  0
   41.6560   26.4480   36.3140 N   0  0  0  0  0  0  0  0  0  0  0  0
   40.3910   26.0860   36.6470 C   0  0  0  0  0  0  0  0  0  0  0  0
   39.9610   24.7870   36.5350 N   0  0  0  0  0  0  0  0  0  0  0  0
   40.5080   22.8160   35.9860 H   0  0  0  0  0  0  0  0  0  0  0  0
   42.7810   23.4090   35.3780 H   0  0  0  0  0  0  0  0  0  0  0  0
   43.5490   25.7970   35.5890 H   0  0  0  0  0  0  0  0  0  0  0  0
  1  2  2  0  0  0  0
  1 10  1  0  0  0  0
  2  3  1  0  0  0  0
  3 12  1  0  0  0  0
  3  4  2  0  0  0  0
  4 13  1  0  0  0  0
  5  4  1  0  0  0  0
  5  6  1  0  0  0  0
  6  7  2  0  0  0  0
  6 14  1  0  0  0  0
  7 15  1  0  0  0  0
  8 16  1  0  0  0  0
  8  7  1  0  0  0  0
  9  8  2  0  0  0  0
 10  9  1  0  0  0  0
 10  5  2  0  0  0  0
 11  2  1  0  0  0  0
 17  9  1  0  0  0  0
 18 17  1  0  0  0  0
 19 18  2  0  0  0  0
 20 19  1  0  0  0  0
 20 22  2  0  0  0  0
 21 25  1  0  0  0  0
 21 20  1  0  0  0  0
 22 23  1  0  0  0  0
 23 17  1  0  0  0  0
 23 24  2  0  0  0  0
 26 21  1  0  0  0  0
 27 28  1  0  0  0  0
 27  1  1  0  0  0  0
 29 31  1  0  0  0  0
 29 32  1  1  0  0  0
 30 34  1  0  0  0  0
 30 29  1  0  0  0  0
 30 31  1  0  0  0  0
 31 35  1  6  0  0  0
 31 27  1  0  0  0  0
 33 30  1  0  0  0  0
 36 41  1  0  0  0  0
 37 38  1  0  0  0  0
 37 36  2  0  0  0  0
 38 39  2  0  0  0  0
 39 40  1  0  0  0  0
 40 29  1  0  0  0  0
 41 40  2  0  0  0  0
 42 36  1  0  0  0  0
 43 37  1  0  0  0  0
 44 38  1  0  0  0  0
M  END
>  <minimizedAffinity>
-6.14080477

$$$$
