
 OpenBabel03242511083D

 44 48  0  0  1  0  0  0  0  0999 V2000
   46.1640   32.2790   43.9540 C   0  0  0  0  0  0  0  0  0  0  0  0
   46.3730   31.5780   45.1330 C   0  0  0  0  0  0  0  0  0  0  0  0
   46.0720   32.0950   46.3930 C   0  0  0  0  0  0  0  0  0  0  0  0
   45.5390   33.3620   46.5000 C   0  0  0  0  0  0  0  0  0  0  0  0
   45.3200   34.0760   45.3710 C   0  0  0  0  0  0  0  0  0  0  0  0
   44.7820   35.3440   45.4440 C   0  0  0  0  0  0  0  0  0  0  0  0
   44.5310   36.1180   44.3420 C   0  0  0  0  0  0  0  0  0  0  0  0
   44.8470   35.5640   43.1060 C   0  0  0  0  0  0  0  0  0  0  0  0
   45.3870   34.2860   43.0360 C   0  0  0  0  0  0  0  0  0  0  0  0
   45.6320   33.5260   44.1390 C   0  0  0  0  0  0  0  0  0  0  0  0
   46.7830   30.5790   45.1680 H   0  0  0  0  0  0  0  0  0  0  0  0
   46.2420   31.5360   47.3010 H   0  0  0  0  0  0  0  0  0  0  0  0
   45.3040   33.7650   47.4770 H   0  0  0  0  0  0  0  0  0  0  0  0
   44.5580   35.7210   46.4300 H   0  0  0  0  0  0  0  0  0  0  0  0
   44.1060   37.1030   44.5210 H   0  0  0  0  0  0  0  0  0  0  0  0
   44.6110   36.2530   42.2940 H   0  0  0  0  0  0  0  0  0  0  0  0
   45.6010   33.9920   41.6690 N   0  0  0  0  0  0  0  0  0  0  0  0
   46.6190   34.0380   40.7940 C   0  0  0  0  0  3  0  0  0  0  0  0
   46.5050   33.6240   39.4900 C   0  0  0  0  0  3  0  0  0  0  0  0
   45.3200   33.1290   38.9950 C   0  0  0  0  0  0  0  0  0  0  0  0
   45.3500   32.7410   37.6330 N   0  0  0  0  0  0  0  0  0  0  0  0
   44.2600   33.0590   39.8320 N   0  0  0  0  0  0  0  0  0  0  0  0
   44.4480   33.4880   41.1140 C   0  0  0  0  0  0  0  0  0  0  0  0
   43.3320   33.3340   41.7260 O   0  0  0  0  0  0  0  0  0  0  0  0
   46.1210   32.0850   37.3660 H   0  0  0  0  0  0  0  0  0  0  0  0
   44.5500   33.2210   37.1670 H   0  0  0  0  0  0  0  0  0  0  0  0
   46.5020   31.6660   42.7410 N   0  0  0  0  0  0  0  0  0  0  0  0
   45.7140   32.1090   42.2390 H   0  0  0  0  0  0  0  0  0  0  0  0
   48.9860   31.2170   42.5310 C   0  0  1  0  0  0  0  0  0  0  0  0
   48.3190   30.6810   41.2810 C   0  0  0  0  0  0  0  0  0  0  0  0
   47.6090   30.7580   42.6260 C   0  0  2  0  0  0  0  0  0  0  0  0
   49.3020   32.2770   42.3550 H   0  0  0  0  0  0  0  0  0  0  0  0
   48.6590   29.6470   41.0110 H   0  0  0  0  0  0  0  0  0  0  0  0
   47.9400   31.3400   40.5030 H   0  0  0  0  0  0  0  0  0  0  0  0
   47.4520   29.8210   43.2110 H   0  0  0  0  0  0  0  0  0  0  0  0
   50.8530   28.9440   44.7800 C   0  0  0  0  0  0  0  0  0  0  0  0
   52.1770   29.0410   44.2530 C   0  0  0  0  0  0  0  0  0  0  0  0
   52.3890   29.8810   43.1280 C   0  0  0  0  0  0  0  0  0  0  0  0
   51.3510   30.5410   42.6080 N   0  0  0  0  0  0  0  0  0  0  0  0
   50.1040   30.4280   43.1320 C   0  0  0  0  0  0  0  0  0  0  0  0
   49.8500   29.6290   44.2190 N   0  0  0  0  0  0  0  0  0  0  0  0
   50.6970   28.3030   45.6370 H   0  0  0  0  0  0  0  0  0  0  0  0
   52.9460   28.4710   44.7410 H   0  0  0  0  0  0  0  0  0  0  0  0
   53.3900   29.9410   42.7460 H   0  0  0  0  0  0  0  0  0  0  0  0
  1 10  2  0  0  0  0
  1  2  1  0  0  0  0
  2 11  1  0  0  0  0
  2  3  2  0  0  0  0
  3  4  1  0  0  0  0
  3 12  1  0  0  0  0
  4 13  1  0  0  0  0
  5  6  1  0  0  0  0
  5  4  2  0  0  0  0
  6 14  1  0  0  0  0
  7 15  1  0  0  0  0
  7  6  2  0  0  0  0
  8  7  1  0  0  0  0
  9  8  2  0  0  0  0
  9 10  1  0  0  0  0
 10  5  1  0  0  0  0
 16  8  1  0  0  0  0
 17  9  1  0  0  0  0
 18 17  1  0  0  0  0
 19 18  2  0  0  0  0
 20 19  1  0  0  0  0
 20 22  2  0  0  0  0
 21 20  1  0  0  0  0
 22 23  1  0  0  0  0
 23 17  1  0  0  0  0
 23 24  2  0  0  0  0
 25 21  1  0  0  0  0
 26 21  1  0  0  0  0
 27  1  1  0  0  0  0
 28 27  1  0  0  0  0
 29 32  1  1  0  0  0
 29 31  1  0  0  0  0
 29 40  1  0  0  0  0
 30 29  1  0  0  0  0
 30 31  1  0  0  0  0
 31 27  1  0  0  0  0
 31 35  1  1  0  0  0
 33 30  1  0  0  0  0
 34 30  1  0  0  0  0
 36 42  1  0  0  0  0
 37 43  1  0  0  0  0
 37 36  1  0  0  0  0
 38 37  2  0  0  0  0
 39 38  1  0  0  0  0
 39 40  2  0  0  0  0
 40 41  1  0  0  0  0
 41 36  2  0  0  0  0
 44 38  1  0  0  0  0
M  END
>  <minimizedAffinity>
-5.05833626

>  <minimizedRMSD>
1.87496376

$$$$
