
 OpenBabel03252508253D

 42 46  0  0  1  0  0  0  0  0999 V2000
   45.8650   31.4570   46.4490 C   0  0  1  0  0  0  0  0  0  0  0  0
   46.1690   32.4140   47.5250 C   0  0  0  0  0  0  0  0  0  0  0  0
   46.6240   32.6130   46.0270 C   0  0  2  0  0  0  0  0  0  0  0  0
   44.7200   31.3630   46.4540 H   0  0  0  0  0  0  0  0  0  0  0  0
   45.5030   33.2410   47.8240 H   0  0  0  0  0  0  0  0  0  0  0  0
   46.9820   32.2540   48.2470 H   0  0  0  0  0  0  0  0  0  0  0  0
   47.7600   32.6860   46.1050 H   0  0  0  0  0  0  0  0  0  0  0  0
   46.1040   33.7490   45.2590 C   0  0  0  0  0  0  0  0  0  0  0  0
   45.0710   34.5690   45.5810 C   0  0  0  0  0  0  0  0  0  0  0  0
   44.5480   35.5630   44.7750 C   0  0  0  0  0  0  0  0  0  0  0  0
   45.1440   35.7280   43.5150 C   0  0  0  0  0  0  0  0  0  0  0  0
   46.2090   34.9000   43.1580 C   0  0  0  0  0  0  0  0  0  0  0  0
   46.8050   35.1370   41.9350 C   0  0  0  0  0  0  0  0  0  0  0  0
   47.9110   34.3870   41.5660 C   0  0  0  0  0  0  0  0  0  0  0  0
   48.4140   33.4180   42.4070 C   0  0  0  0  0  0  0  0  0  0  0  0
   47.7810   33.2230   43.6120 C   0  0  0  0  0  0  0  0  0  0  0  0
   46.6710   33.9370   44.0230 C   0  0  0  0  0  0  0  0  0  0  0  0
   44.6420   34.4010   46.5670 H   0  0  0  0  0  0  0  0  0  0  0  0
   43.7220   36.1850   45.0930 H   0  0  0  0  0  0  0  0  0  0  0  0
   44.7660   36.4920   42.8470 H   0  0  0  0  0  0  0  0  0  0  0  0
   46.3920   35.9060   41.2930 H   0  0  0  0  0  0  0  0  0  0  0  0
   48.3030   34.6570   40.5720 H   0  0  0  0  0  0  0  0  0  0  0  0
   49.2710   32.9470   41.9540 H   0  0  0  0  0  0  0  0  0  0  0  0
   48.3870   32.5130   44.0960 H   0  0  0  0  0  0  0  0  0  0  0  0
   46.7070   27.9640   47.2980 C   0  0  0  0  0  0  0  0  0  0  0  0
   47.7470   27.6640   46.3550 C   0  0  0  0  0  0  0  0  0  0  0  0
   48.1250   28.6890   45.4300 C   0  0  0  0  0  0  0  0  0  0  0  0
   47.4980   29.8870   45.4740 N   0  0  0  0  0  0  0  0  0  0  0  0
   46.5060   30.1080   46.4100 C   0  0  0  0  0  0  0  0  0  0  0  0
   46.1280   29.1790   47.2840 N   0  0  0  0  0  0  0  0  0  0  0  0
   46.4020   27.2230   48.0020 H   0  0  0  0  0  0  0  0  0  0  0  0
   48.2130   26.6930   46.3630 H   0  0  0  0  0  0  0  0  0  0  0  0
   49.1540   28.4070   44.4890 N   0  0  0  0  0  0  0  0  0  0  0  0
   48.9190   27.9000   43.2880 C   0  0  0  0  0  3  0  0  0  0  0  0
   49.9920   27.6640   42.4510 C   0  0  0  0  0  3  0  0  0  0  0  0
   51.2900   27.9500   42.8530 C   0  0  0  0  0  0  0  0  0  0  0  0
   52.4680   27.7520   42.0900 N   0  0  0  0  0  0  0  0  0  0  0  0
   51.4770   28.4640   44.0850 N   0  0  0  0  0  0  0  0  0  0  0  0
   50.4230   28.6890   44.8890 C   0  0  0  0  0  0  0  0  0  0  0  0
   50.6380   29.1710   46.0320 O   0  0  0  0  0  0  0  0  0  0  0  0
   53.0390   28.3220   41.4160 H   0  0  0  0  0  0  0  0  0  0  0  0
   52.7640   26.7660   42.3250 H   0  0  0  0  0  0  0  0  0  0  0  0
  1  4  1  6  0  0  0
  1  2  1  0  0  0  0
  2  5  1  0  0  0  0
  2  6  1  0  0  0  0
  3  7  1  6  0  0  0
  3  1  1  0  0  0  0
  3  2  1  0  0  0  0
  8  9  1  0  0  0  0
  8  3  1  0  0  0  0
  9 18  1  0  0  0  0
 10 19  1  0  0  0  0
 10  9  2  0  0  0  0
 11 10  1  0  0  0  0
 12 11  2  0  0  0  0
 12 17  1  0  0  0  0
 13 12  1  0  0  0  0
 14 13  2  0  0  0  0
 14 15  1  0  0  0  0
 15 16  2  0  0  0  0
 16 17  1  0  0  0  0
 16 24  1  0  0  0  0
 17  8  2  0  0  0  0
 20 11  1  0  0  0  0
 21 13  1  0  0  0  0
 22 14  1  0  0  0  0
 23 15  1  0  0  0  0
 25 31  1  0  0  0  0
 26 32  1  0  0  0  0
 26 25  2  0  0  0  0
 27 28  2  0  0  0  0
 27 26  1  0  0  0  0
 28 29  1  0  0  0  0
 29  1  1  0  0  0  0
 29 30  2  0  0  0  0
 30 25  1  0  0  0  0
 33 39  1  0  0  0  0
 33 27  1  0  0  0  0
 34 33  1  0  0  0  0
 35 36  1  0  0  0  0
 35 34  2  0  0  0  0
 36 38  2  0  0  0  0
 37 42  1  0  0  0  0
 37 36  1  0  0  0  0
 38 39  1  0  0  0  0
 39 40  2  0  0  0  0
 41 37  1  0  0  0  0
M  END
>  <minimizedAffinity>
-5.39478302

>  <minimizedRMSD>
7.16704798

$$$$
