
 OpenBabel03252503433D

 35 37  0  0  1  0  0  0  0  0999 V2000
   44.9440   34.9360   45.0890 C   0  0  0  0  0  0  0  0  0  0  0  0
   45.6600   34.6300   43.9240 C   0  0  0  0  0  0  0  0  0  0  0  0
   46.4260   33.4510   43.9520 C   0  0  0  0  0  0  0  0  0  0  0  0
   46.4380   32.6890   45.0610 N   0  0  0  0  0  0  0  0  0  0  0  0
   45.7370   33.0140   46.1600 C   0  0  0  0  0  0  0  0  0  0  0  0
   44.9790   34.1430   46.1910 N   0  0  0  0  0  0  0  0  0  0  0  0
   44.3190   35.8140   45.1890 H   0  0  0  0  0  0  0  0  0  0  0  0
   46.9770   33.2220   43.0480 H   0  0  0  0  0  0  0  0  0  0  0  0
   47.2710   31.7770   47.6810 C   0  0  2  0  0  0  0  0  0  0  0  0
   45.8130   32.1070   47.2930 C   0  0  1  0  0  0  0  0  0  0  0  0
   45.3620   32.6080   48.4830 O   0  0  0  0  0  0  0  0  0  0  0  0
   45.8010   31.7850   49.4740 C   0  0  0  0  0  0  0  0  0  0  0  0
   46.9620   30.9680   48.9450 C   0  0  2  0  0  0  0  0  0  0  0  0
   47.7760   31.1800   46.9220 H   0  0  0  0  0  0  0  0  0  0  0  0
   45.2920   31.1480   47.0390 H   0  0  0  0  0  0  0  0  0  0  0  0
   45.0080   31.1120   49.8620 H   0  0  0  0  0  0  0  0  0  0  0  0
   46.1730   32.3740   50.3430 H   0  0  0  0  0  0  0  0  0  0  0  0
   46.6140   29.9780   48.6130 H   0  0  0  0  0  0  0  0  0  0  0  0
   47.8910   32.9110   48.0920 O   0  0  0  0  0  0  0  0  0  0  0  0
   48.0290   33.6020   47.4010 H   0  0  0  0  0  0  0  0  0  0  0  0
   48.0240   30.8940   49.8090 O   0  0  0  0  0  0  0  0  0  0  0  0
   48.8620   30.8050   49.3050 H   0  0  0  0  0  0  0  0  0  0  0  0
   45.5450   35.5540   42.7970 C   0  0  0  0  0  0  0  0  0  0  0  0
   46.5640   35.6090   42.3110 H   0  0  0  0  0  0  0  0  0  0  0  0
   45.3760   36.5900   43.1550 H   0  0  0  0  0  0  0  0  0  0  0  0
   44.5360   35.1950   41.8250 N   0  0  0  0  0  0  0  0  0  0  0  0
   43.2630   35.5920   42.0170 C   0  0  0  0  0  3  0  0  0  0  0  0
   42.3000   35.2390   41.0730 C   0  0  0  0  0  3  0  0  0  0  0  0
   42.7370   34.4970   39.9940 C   0  0  0  0  0  0  0  0  0  0  0  0
   41.7940   34.1110   39.0030 N   0  0  0  0  0  0  0  0  0  0  0  0
   44.0290   34.1140   39.8340 N   0  0  0  0  0  0  0  0  0  0  0  0
   44.9390   34.4680   40.7620 C   0  0  0  0  0  0  0  0  0  0  0  0
   46.1010   34.0900   40.5610 O   0  0  0  0  0  0  0  0  0  0  0  0
   42.0180   34.7280   38.1700 H   0  0  0  0  0  0  0  0  0  0  0  0
   40.9990   33.4950   38.7590 H   0  0  0  0  0  0  0  0  0  0  0  0
  1  7  1  0  0  0  0
  1  6  1  0  0  0  0
  2  3  1  0  0  0  0
  2  1  2  0  0  0  0
  3  4  2  0  0  0  0
  4  5  1  0  0  0  0
  5  6  2  0  0  0  0
  5 10  1  0  0  0  0
  8  3  1  0  0  0  0
  9 14  1  6  0  0  0
  9 19  1  0  0  0  0
  9 13  1  0  0  0  0
 10 15  1  6  0  0  0
 10  9  1  0  0  0  0
 10 11  1  0  0  0  0
 11 12  1  0  0  0  0
 12 16  1  0  0  0  0
 12 17  1  0  0  0  0
 13 18  1  6  0  0  0
 13 12  1  0  0  0  0
 13 21  1  0  0  0  0
 20 19  1  0  0  0  0
 22 21  1  0  0  0  0
 23 25  1  0  0  0  0
 23  2  1  0  0  0  0
 24 23  1  0  0  0  0
 26 27  1  0  0  0  0
 26 23  1  0  0  0  0
 28 27  2  0  0  0  0
 29 28  1  0  0  0  0
 30 29  1  0  0  0  0
 31 29  2  0  0  0  0
 31 32  1  0  0  0  0
 32 26  1  0  0  0  0
 33 32  2  0  0  0  0
 34 30  1  0  0  0  0
 35 30  1  0  0  0  0
M  END
>  <minimizedAffinity>
-6.23207855

>  <minimizedRMSD>
0.984573126

$$$$
