
 OpenBabel03242511083D

 44 48  0  0  1  0  0  0  0  0999 V2000
   45.7900   32.0540   43.5710 C   0  0  0  0  0  0  0  0  0  0  0  0
   46.4410   31.5100   44.6690 C   0  0  0  0  0  0  0  0  0  0  0  0
   46.5870   32.1810   45.8820 C   0  0  0  0  0  0  0  0  0  0  0  0
   46.0680   33.4500   46.0240 C   0  0  0  0  0  0  0  0  0  0  0  0
   45.4250   34.0150   44.9760 C   0  0  0  0  0  0  0  0  0  0  0  0
   44.8900   35.2820   45.0880 C   0  0  0  0  0  0  0  0  0  0  0  0
   44.2240   35.9090   44.0680 C   0  0  0  0  0  0  0  0  0  0  0  0
   44.1020   35.2030   42.8760 C   0  0  0  0  0  0  0  0  0  0  0  0
   44.6420   33.9280   42.7660 C   0  0  0  0  0  0  0  0  0  0  0  0
   45.3020   33.3140   43.7880 C   0  0  0  0  0  0  0  0  0  0  0  0
   46.8830   30.5230   44.6710 H   0  0  0  0  0  0  0  0  0  0  0  0
   47.0970   31.7420   46.7270 H   0  0  0  0  0  0  0  0  0  0  0  0
   46.1800   33.9740   46.9660 H   0  0  0  0  0  0  0  0  0  0  0  0
   45.0160   35.7800   46.0360 H   0  0  0  0  0  0  0  0  0  0  0  0
   43.8450   36.9080   44.2720 H   0  0  0  0  0  0  0  0  0  0  0  0
   43.5590   35.7830   42.1290 H   0  0  0  0  0  0  0  0  0  0  0  0
   44.3660   33.4630   41.4600 N   0  0  0  0  0  0  0  0  0  0  0  0
   43.4060   32.7520   40.8450 C   0  0  0  0  0  3  0  0  0  0  0  0
   43.4120   32.4970   39.4960 C   0  0  0  0  0  3  0  0  0  0  0  0
   44.4190   32.9630   38.6810 C   0  0  0  0  0  0  0  0  0  0  0  0
   44.2940   32.6230   37.3110 N   0  0  0  0  0  0  0  0  0  0  0  0
   45.4130   33.6850   39.2460 N   0  0  0  0  0  0  0  0  0  0  0  0
   45.3400   33.8980   40.5920 C   0  0  0  0  0  0  0  0  0  0  0  0
   46.3660   34.5960   40.9150 O   0  0  0  0  0  0  0  0  0  0  0  0
   43.3740   32.8560   36.8690 H   0  0  0  0  0  0  0  0  0  0  0  0
   45.1970   32.1900   37.0260 H   0  0  0  0  0  0  0  0  0  0  0  0
   45.7000   31.2930   42.3990 N   0  0  0  0  0  0  0  0  0  0  0  0
   44.6730   31.3980   42.3490 H   0  0  0  0  0  0  0  0  0  0  0  0
   47.7790   31.4560   40.9610 C   0  0  1  0  0  0  0  0  0  0  0  0
   46.8250   30.4990   40.2760 C   0  0  0  0  0  0  0  0  0  0  0  0
   46.8530   30.6950   41.7860 C   0  0  2  0  0  0  0  0  0  0  0  0
   47.6000   32.4920   40.5790 H   0  0  0  0  0  0  0  0  0  0  0  0
   47.3210   29.5530   39.9360 H   0  0  0  0  0  0  0  0  0  0  0  0
   45.9290   30.8470   39.7660 H   0  0  0  0  0  0  0  0  0  0  0  0
   47.3140   29.9060   42.4270 H   0  0  0  0  0  0  0  0  0  0  0  0
   51.0640   30.0470   41.9260 C   0  0  0  0  0  0  0  0  0  0  0  0
   51.9220   30.6090   40.9310 C   0  0  0  0  0  0  0  0  0  0  0  0
   51.3420   31.4520   39.9470 C   0  0  0  0  0  0  0  0  0  0  0  0
   50.0270   31.6840   39.9860 N   0  0  0  0  0  0  0  0  0  0  0  0
   49.2390   31.1350   40.9450 C   0  0  0  0  0  0  0  0  0  0  0  0
   49.7540   30.3130   41.9170 N   0  0  0  0  0  0  0  0  0  0  0  0
   51.5120   29.4050   42.6730 H   0  0  0  0  0  0  0  0  0  0  0  0
   52.9660   30.3630   40.9830 H   0  0  0  0  0  0  0  0  0  0  0  0
   52.0020   31.8650   39.2090 H   0  0  0  0  0  0  0  0  0  0  0  0
  1 10  2  0  0  0  0
  1  2  1  0  0  0  0
  2 11  1  0  0  0  0
  2  3  2  0  0  0  0
  3  4  1  0  0  0  0
  3 12  1  0  0  0  0
  4 13  1  0  0  0  0
  5  6  1  0  0  0  0
  5  4  2  0  0  0  0
  6 14  1  0  0  0  0
  7 15  1  0  0  0  0
  7  6  2  0  0  0  0
  8  7  1  0  0  0  0
  9  8  2  0  0  0  0
  9 10  1  0  0  0  0
 10  5  1  0  0  0  0
 16  8  1  0  0  0  0
 17  9  1  0  0  0  0
 18 17  1  0  0  0  0
 19 18  2  0  0  0  0
 20 22  2  0  0  0  0
 20 19  1  0  0  0  0
 21 20  1  0  0  0  0
 22 23  1  0  0  0  0
 23 24  2  0  0  0  0
 23 17  1  0  0  0  0
 25 21  1  0  0  0  0
 26 21  1  0  0  0  0
 27  1  1  0  0  0  0
 28 27  1  0  0  0  0
 29 32  1  6  0  0  0
 29 31  1  0  0  0  0
 30 29  1  0  0  0  0
 30 31  1  0  0  0  0
 31 27  1  0  0  0  0
 31 35  1  1  0  0  0
 33 30  1  0  0  0  0
 34 30  1  0  0  0  0
 36 42  1  0  0  0  0
 37 43  1  0  0  0  0
 37 36  2  0  0  0  0
 38 39  2  0  0  0  0
 38 37  1  0  0  0  0
 39 40  1  0  0  0  0
 40 29  1  0  0  0  0
 40 41  2  0  0  0  0
 41 36  1  0  0  0  0
 44 38  1  0  0  0  0
M  END
>  <minimizedAffinity>
-4.87509632

>  <minimizedRMSD>
1.51941144

$$$$
