
 OpenBabel03252503433D

 35 37  0  0  1  0  0  0  0  0999 V2000
   45.1050   34.9150   44.7890 C   0  0  0  0  0  0  0  0  0  0  0  0
   45.3420   34.3810   43.5150 C   0  0  0  0  0  0  0  0  0  0  0  0
   45.7340   33.0310   43.4660 C   0  0  0  0  0  0  0  0  0  0  0  0
   45.8590   32.3310   44.6080 N   0  0  0  0  0  0  0  0  0  0  0  0
   45.6220   32.8770   45.8120 C   0  0  0  0  0  0  0  0  0  0  0  0
   45.2420   34.1770   45.9220 N   0  0  0  0  0  0  0  0  0  0  0  0
   44.8000   35.9400   44.9570 H   0  0  0  0  0  0  0  0  0  0  0  0
   45.9160   32.6270   42.4780 H   0  0  0  0  0  0  0  0  0  0  0  0
   47.2370   31.9530   47.4670 C   0  0  2  0  0  0  0  0  0  0  0  0
   45.7740   32.0190   46.9750 C   0  0  1  0  0  0  0  0  0  0  0  0
   45.1640   32.4580   48.1170 O   0  0  0  0  0  0  0  0  0  0  0  0
   45.6670   31.7430   49.1610 C   0  0  0  0  0  0  0  0  0  0  0  0
   46.9840   31.1280   48.7330 C   0  0  2  0  0  0  0  0  0  0  0  0
   47.8870   31.4370   46.7610 H   0  0  0  0  0  0  0  0  0  0  0  0
   45.4430   30.9800   46.7190 H   0  0  0  0  0  0  0  0  0  0  0  0
   44.9760   30.9510   49.5180 H   0  0  0  0  0  0  0  0  0  0  0  0
   45.8720   32.4050   50.0320 H   0  0  0  0  0  0  0  0  0  0  0  0
   46.8340   30.0870   48.4110 H   0  0  0  0  0  0  0  0  0  0  0  0
   47.6240   33.1850   47.8810 O   0  0  0  0  0  0  0  0  0  0  0  0
   47.6890   33.8750   47.1790 H   0  0  0  0  0  0  0  0  0  0  0  0
   47.9810   31.2560   49.6650 O   0  0  0  0  0  0  0  0  0  0  0  0
   48.8550   31.3030   49.2200 H   0  0  0  0  0  0  0  0  0  0  0  0
   45.1610   35.2660   42.3660 C   0  0  0  0  0  0  0  0  0  0  0  0
   46.1090   35.2080   41.7530 H   0  0  0  0  0  0  0  0  0  0  0  0
   45.1300   36.3270   42.6890 H   0  0  0  0  0  0  0  0  0  0  0  0
   44.0070   34.9630   41.5490 N   0  0  0  0  0  0  0  0  0  0  0  0
   42.7950   35.4130   41.9250 C   0  0  0  0  0  3  0  0  0  0  0  0
   41.6900   35.1130   41.1280 C   0  0  0  0  0  3  0  0  0  0  0  0
   41.9340   34.3630   39.9950 C   0  0  0  0  0  0  0  0  0  0  0  0
   40.8420   34.0310   39.1480 N   0  0  0  0  0  0  0  0  0  0  0  0
   43.1710   33.9270   39.6480 N   0  0  0  0  0  0  0  0  0  0  0  0
   44.2200   34.2320   40.4360 C   0  0  0  0  0  0  0  0  0  0  0  0
   45.3230   33.8050   40.0670 O   0  0  0  0  0  0  0  0  0  0  0  0
   40.9700   34.6470   38.2940 H   0  0  0  0  0  0  0  0  0  0  0  0
   39.9930   33.4520   39.0190 H   0  0  0  0  0  0  0  0  0  0  0  0
  1  7  1  0  0  0  0
  1  6  1  0  0  0  0
  2  1  2  0  0  0  0
  3  2  1  0  0  0  0
  3  4  2  0  0  0  0
  4  5  1  0  0  0  0
  5  6  2  0  0  0  0
  5 10  1  0  0  0  0
  8  3  1  0  0  0  0
  9 14  1  6  0  0  0
  9 19  1  0  0  0  0
  9 13  1  0  0  0  0
 10 15  1  6  0  0  0
 10  9  1  0  0  0  0
 10 11  1  0  0  0  0
 11 12  1  0  0  0  0
 12 16  1  0  0  0  0
 12 17  1  0  0  0  0
 13 18  1  6  0  0  0
 13 12  1  0  0  0  0
 13 21  1  0  0  0  0
 20 19  1  0  0  0  0
 22 21  1  0  0  0  0
 23 25  1  0  0  0  0
 23  2  1  0  0  0  0
 24 23  1  0  0  0  0
 26 27  1  0  0  0  0
 26 23  1  0  0  0  0
 28 27  2  0  0  0  0
 29 28  1  0  0  0  0
 30 29  1  0  0  0  0
 31 29  2  0  0  0  0
 31 32  1  0  0  0  0
 32 26  1  0  0  0  0
 33 32  2  0  0  0  0
 34 30  1  0  0  0  0
 35 30  1  0  0  0  0
M  END
>  <minimizedAffinity>
-6.13250875

>  <minimizedRMSD>
1.22323346

$$$$
