
 OpenBabel03252503433D

 35 37  0  0  1  0  0  0  0  0999 V2000
   45.3540   34.7160   44.6820 C   0  0  0  0  0  0  0  0  0  0  0  0
   45.9560   34.2510   43.5050 C   0  0  0  0  0  0  0  0  0  0  0  0
   46.5400   32.9720   43.5640 C   0  0  0  0  0  0  0  0  0  0  0  0
   46.4960   32.2710   44.7120 N   0  0  0  0  0  0  0  0  0  0  0  0
   45.9080   32.7500   45.8200 C   0  0  0  0  0  0  0  0  0  0  0  0
   45.3280   33.9800   45.8230 N   0  0  0  0  0  0  0  0  0  0  0  0
   44.8720   35.6820   44.7620 H   0  0  0  0  0  0  0  0  0  0  0  0
   47.0040   32.6210   42.6510 H   0  0  0  0  0  0  0  0  0  0  0  0
   47.3200   31.7280   47.5980 C   0  0  2  0  0  0  0  0  0  0  0  0
   45.9070   31.8960   46.9970 C   0  0  1  0  0  0  0  0  0  0  0  0
   45.2470   32.3930   48.0870 O   0  0  0  0  0  0  0  0  0  0  0  0
   45.6160   31.6530   49.1690 C   0  0  0  0  0  0  0  0  0  0  0  0
   46.9110   30.9380   48.8460 C   0  0  2  0  0  0  0  0  0  0  0  0
   47.9810   31.1570   46.9470 H   0  0  0  0  0  0  0  0  0  0  0  0
   45.5200   30.8820   46.7220 H   0  0  0  0  0  0  0  0  0  0  0  0
   44.8420   30.9190   49.4770 H   0  0  0  0  0  0  0  0  0  0  0  0
   45.8030   32.3080   50.0500 H   0  0  0  0  0  0  0  0  0  0  0  0
   46.7090   29.9070   48.5190 H   0  0  0  0  0  0  0  0  0  0  0  0
   47.7650   32.9320   48.0330 O   0  0  0  0  0  0  0  0  0  0  0  0
   47.9350   33.6080   47.3340 H   0  0  0  0  0  0  0  0  0  0  0  0
   47.8420   31.0020   49.8510 O   0  0  0  0  0  0  0  0  0  0  0  0
   48.7480   30.9790   49.4720 H   0  0  0  0  0  0  0  0  0  0  0  0
   45.9210   35.1270   42.3350 C   0  0  0  0  0  0  0  0  0  0  0  0
   46.9940   35.3620   42.0680 H   0  0  0  0  0  0  0  0  0  0  0  0
   45.5000   36.1190   42.6000 H   0  0  0  0  0  0  0  0  0  0  0  0
   45.2200   34.5800   41.1940 N   0  0  0  0  0  0  0  0  0  0  0  0
   45.8680   33.7470   40.3580 C   0  0  0  0  0  3  0  0  0  0  0  0
   45.1800   33.2270   39.2610 C   0  0  0  0  0  3  0  0  0  0  0  0
   43.8650   33.6150   39.1210 C   0  0  0  0  0  0  0  0  0  0  0  0
   43.1180   33.1130   38.0190 N   0  0  0  0  0  0  0  0  0  0  0  0
   43.2440   34.4560   39.9840 N   0  0  0  0  0  0  0  0  0  0  0  0
   43.9310   34.9460   41.0350 C   0  0  0  0  0  0  0  0  0  0  0  0
   43.3110   35.7080   41.7890 O   0  0  0  0  0  0  0  0  0  0  0  0
   42.4560   32.4050   38.4490 H   0  0  0  0  0  0  0  0  0  0  0  0
   42.9550   33.1470   36.9980 H   0  0  0  0  0  0  0  0  0  0  0  0
  1  7  1  0  0  0  0
  1  6  1  0  0  0  0
  2  3  1  0  0  0  0
  2  1  2  0  0  0  0
  3  4  2  0  0  0  0
  4  5  1  0  0  0  0
  5  6  2  0  0  0  0
  5 10  1  0  0  0  0
  8  3  1  0  0  0  0
  9 14  1  6  0  0  0
  9 19  1  0  0  0  0
  9 13  1  0  0  0  0
 10 15  1  6  0  0  0
 10  9  1  0  0  0  0
 10 11  1  0  0  0  0
 11 12  1  0  0  0  0
 12 16  1  0  0  0  0
 12 17  1  0  0  0  0
 13 18  1  6  0  0  0
 13 12  1  0  0  0  0
 13 21  1  0  0  0  0
 20 19  1  0  0  0  0
 22 21  1  0  0  0  0
 23 25  1  0  0  0  0
 23  2  1  0  0  0  0
 24 23  1  0  0  0  0
 26 23  1  0  0  0  0
 27 26  1  0  0  0  0
 28 27  2  0  0  0  0
 29 28  1  0  0  0  0
 29 31  2  0  0  0  0
 30 34  1  0  0  0  0
 30 29  1  0  0  0  0
 31 32  1  0  0  0  0
 32 26  1  0  0  0  0
 32 33  2  0  0  0  0
 35 30  1  0  0  0  0
M  END
>  <minimizedAffinity>
-6.18234968

>  <minimizedRMSD>
1.74116957

$$$$
