
 OpenBabel03252508263D

 42 46  0  0  1  0  0  0  0  0999 V2000
   46.3880   32.1720   46.0270 C   0  0  1  0  0  0  0  0  0  0  0  0
   46.4130   32.3750   47.4840 C   0  0  0  0  0  0  0  0  0  0  0  0
   45.3070   31.5290   46.7410 C   0  0  2  0  0  0  0  0  0  0  0  0
   47.4080   31.7050   45.7780 H   0  0  0  0  0  0  0  0  0  0  0  0
   46.9620   31.7300   48.1900 H   0  0  0  0  0  0  0  0  0  0  0  0
   46.0570   33.3010   47.9590 H   0  0  0  0  0  0  0  0  0  0  0  0
   44.3360   32.0570   47.0260 H   0  0  0  0  0  0  0  0  0  0  0  0
   45.1920   30.0930   47.0140 C   0  0  0  0  0  0  0  0  0  0  0  0
   45.1720   29.4730   48.2210 C   0  0  0  0  0  0  0  0  0  0  0  0
   45.1680   28.1070   48.4270 C   0  0  0  0  0  0  0  0  0  0  0  0
   45.1870   27.2980   47.2800 C   0  0  0  0  0  0  0  0  0  0  0  0
   45.2060   27.9080   46.0260 C   0  0  0  0  0  0  0  0  0  0  0  0
   45.1630   27.0770   44.9230 C   0  0  0  0  0  0  0  0  0  0  0  0
   45.1090   27.6360   43.6570 C   0  0  0  0  0  0  0  0  0  0  0  0
   45.0960   29.0050   43.4940 C   0  0  0  0  0  0  0  0  0  0  0  0
   45.1420   29.7850   44.6250 C   0  0  0  0  0  0  0  0  0  0  0  0
   45.2040   29.2780   45.9100 C   0  0  0  0  0  0  0  0  0  0  0  0
   45.1590   30.1420   49.0810 H   0  0  0  0  0  0  0  0  0  0  0  0
   45.1500   27.6750   49.4200 H   0  0  0  0  0  0  0  0  0  0  0  0
   45.1880   26.2210   47.3920 H   0  0  0  0  0  0  0  0  0  0  0  0
   45.1720   26.0040   45.0770 H   0  0  0  0  0  0  0  0  0  0  0  0
   45.0810   26.8830   42.8530 H   0  0  0  0  0  0  0  0  0  0  0  0
   45.0480   29.2510   42.4460 H   0  0  0  0  0  0  0  0  0  0  0  0
   45.0340   30.7630   44.2530 H   0  0  0  0  0  0  0  0  0  0  0  0
   44.9610   35.2970   44.6750 C   0  0  0  0  0  0  0  0  0  0  0  0
   45.4800   35.3130   43.3360 C   0  0  0  0  0  0  0  0  0  0  0  0
   46.3310   34.2340   42.9370 C   0  0  0  0  0  0  0  0  0  0  0  0
   46.6140   33.2500   43.8210 N   0  0  0  0  0  0  0  0  0  0  0  0
   46.0800   33.2970   45.0940 C   0  0  0  0  0  0  0  0  0  0  0  0
   45.2860   34.2850   45.5000 N   0  0  0  0  0  0  0  0  0  0  0  0
   44.3230   36.0860   45.0050 H   0  0  0  0  0  0  0  0  0  0  0  0
   45.2220   36.1220   42.6720 H   0  0  0  0  0  0  0  0  0  0  0  0
   46.8520   34.2360   41.6130 N   0  0  0  0  0  0  0  0  0  0  0  0
   46.2700   33.6050   40.6030 C   0  0  0  0  0  3  0  0  0  0  0  0
   46.8610   33.6730   39.3570 C   0  0  0  0  0  3  0  0  0  0  0  0
   48.0380   34.3830   39.1590 C   0  0  0  0  0  0  0  0  0  0  0  0
   48.7370   34.5240   37.9350 N   0  0  0  0  0  0  0  0  0  0  0  0
   48.5910   35.0060   40.2180 N   0  0  0  0  0  0  0  0  0  0  0  0
   48.0050   34.9330   41.4260 C   0  0  0  0  0  0  0  0  0  0  0  0
   48.5520   35.5300   42.3910 O   0  0  0  0  0  0  0  0  0  0  0  0
   48.7310   35.2030   37.1310 H   0  0  0  0  0  0  0  0  0  0  0  0
   49.4000   33.7020   37.9210 H   0  0  0  0  0  0  0  0  0  0  0  0
  1  4  1  6  0  0  0
  1  3  1  0  0  0  0
  1  2  1  0  0  0  0
  2  6  1  0  0  0  0
  2  5  1  0  0  0  0
  3  8  1  0  0  0  0
  3  7  1  6  0  0  0
  3  2  1  0  0  0  0
  8  9  1  0  0  0  0
  9 10  2  0  0  0  0
  9 18  1  0  0  0  0
 10 19  1  0  0  0  0
 11 20  1  0  0  0  0
 11 10  1  0  0  0  0
 12 11  2  0  0  0  0
 13 21  1  0  0  0  0
 13 12  1  0  0  0  0
 14 13  2  0  0  0  0
 15 14  1  0  0  0  0
 15 16  2  0  0  0  0
 16 17  1  0  0  0  0
 17 12  1  0  0  0  0
 17  8  2  0  0  0  0
 22 14  1  0  0  0  0
 23 15  1  0  0  0  0
 24 16  1  0  0  0  0
 25 31  1  0  0  0  0
 25 30  1  0  0  0  0
 26 25  2  0  0  0  0
 27 26  1  0  0  0  0
 27 28  2  0  0  0  0
 28 29  1  0  0  0  0
 29 30  2  0  0  0  0
 29  1  1  0  0  0  0
 32 26  1  0  0  0  0
 33 27  1  0  0  0  0
 34 33  1  0  0  0  0
 35 34  2  0  0  0  0
 36 35  1  0  0  0  0
 36 38  2  0  0  0  0
 37 36  1  0  0  0  0
 38 39  1  0  0  0  0
 39 33  1  0  0  0  0
 39 40  2  0  0  0  0
 41 37  1  0  0  0  0
 42 37  1  0  0  0  0
M  END
>  <minimizedAffinity>
-5.65364313

>  <minimizedRMSD>
1.17644799

$$$$
