
 OpenBabel03242511333D

 36 38  0  0  1  0  0  0  0  0999 V2000
   49.0220   33.3240   42.5150 C   0  0  0  0  0  0  0  0  0  0  0  0
   47.8070   32.9760   42.8920 C   0  0  0  0  0  0  0  0  0  0  0  0
   49.5790   32.7340   41.3030 C   0  0  0  0  0  0  0  0  0  0  0  0
   50.8240   32.0880   41.4120 C   0  0  0  0  0  0  0  0  0  0  0  0
   51.3870   31.5120   40.2710 C   0  0  0  0  0  0  0  0  0  0  0  0
   50.7020   31.6020   39.1010 N   0  0  0  0  0  0  0  0  0  0  0  0
   49.5130   32.2270   39.0290 C   0  0  0  0  0  0  0  0  0  0  0  0
   48.9730   32.7800   40.1240 N   0  0  0  0  0  0  0  0  0  0  0  0
   51.3530   32.0290   42.3640 H   0  0  0  0  0  0  0  0  0  0  0  0
   52.3390   31.0230   40.3760 H   0  0  0  0  0  0  0  0  0  0  0  0
   48.8660   32.2750   37.7620 N   0  0  0  0  0  0  0  0  0  0  0  0
   49.4700   31.7670   36.6720 C   0  0  0  0  0  0  0  0  0  0  0  0
   48.7870   31.8400   35.4530 C   0  0  0  0  0  0  0  0  0  0  0  0
   47.5500   32.4320   35.4890 C   0  0  0  0  0  0  0  0  0  0  0  0
   46.8720   32.4990   34.2450 N   0  0  0  0  0  0  0  0  0  0  0  0
   46.9620   32.9350   36.5910 N   0  0  0  0  0  0  0  0  0  0  0  0
   47.6360   32.8550   37.7570 C   0  0  0  0  0  0  0  0  0  0  0  0
   47.1170   33.3150   38.8050 O   0  0  0  0  0  0  0  0  0  0  0  0
   46.3240   33.0230   33.5470 H   0  0  0  0  0  0  0  0  0  0  0  0
   46.7660   31.7170   33.5310 H   0  0  0  0  0  0  0  0  0  0  0  0
   47.1820   33.5310   44.1030 C   0  0  0  0  0  0  0  0  0  0  0  0
   47.8150   34.3250   44.5390 H   0  0  0  0  0  0  0  0  0  0  0  0
   47.0400   32.6910   44.8230 H   0  0  0  0  0  0  0  0  0  0  0  0
   44.6210   36.0680   43.8550 C   0  0  1  0  0  0  0  0  0  0  0  0
   45.7760   35.3800   43.1230 C   0  0  0  0  0  0  0  0  0  0  0  0
   45.7790   34.0620   43.8150 C   0  0  2  0  0  0  0  0  0  0  0  0
   44.9920   34.1180   44.9230 O   0  0  0  0  0  0  0  0  0  0  0  0
   44.7440   35.4450   45.2250 C   0  0  0  0  0  0  0  0  0  0  0  0
   43.6500   35.8330   43.4070 H   0  0  0  0  0  0  0  0  0  0  0  0
   46.6730   35.9920   43.2900 H   0  0  0  0  0  0  0  0  0  0  0  0
   45.4870   35.3170   42.0340 H   0  0  0  0  0  0  0  0  0  0  0  0
   45.3080   33.3090   43.1190 H   0  0  0  0  0  0  0  0  0  0  0  0
   43.8210   35.5140   45.8290 H   0  0  0  0  0  0  0  0  0  0  0  0
   45.5470   35.9110   45.8160 H   0  0  0  0  0  0  0  0  0  0  0  0
   44.8230   37.4420   43.8700 O   0  0  0  0  0  0  0  0  0  0  0  0
   45.4000   37.7540   44.6090 H   0  0  0  0  0  0  0  0  0  0  0  0
  1  2  2  0  0  0  0
  2 21  1  0  0  0  0
  3  4  1  0  0  0  0
  3  1  1  0  0  0  0
  4  9  1  0  0  0  0
  5 10  1  0  0  0  0
  5  4  2  0  0  0  0
  6  5  1  0  0  0  0
  7  6  2  0  0  0  0
  7  8  1  0  0  0  0
  8  3  2  0  0  0  0
 11  7  1  0  0  0  0
 12 11  1  0  0  0  0
 13 14  1  0  0  0  0
 13 12  2  0  0  0  0
 14 16  2  0  0  0  0
 15 14  1  0  0  0  0
 16 17  1  0  0  0  0
 17 11  1  0  0  0  0
 17 18  2  0  0  0  0
 19 15  1  0  0  0  0
 20 15  1  0  0  0  0
 21 22  1  0  0  0  0
 21 23  1  0  0  0  0
 24 29  1  6  0  0  0
 24 35  1  0  0  0  0
 24 28  1  0  0  0  0
 25 30  1  0  0  0  0
 25 26  1  0  0  0  0
 25 24  1  0  0  0  0
 26 32  1  6  0  0  0
 26 21  1  0  0  0  0
 26 27  1  0  0  0  0
 27 28  1  0  0  0  0
 28 34  1  0  0  0  0
 28 33  1  0  0  0  0
 31 25  1  0  0  0  0
 35 36  1  0  0  0  0
M  END
>  <minimizedAffinity>
-5.68763161

>  <minimizedRMSD>
0.966037869

$$$$
