
 OpenBabel03242511083D

 44 48  0  0  1  0  0  0  0  0999 V2000
   47.2540   32.8210   44.2430 C   0  0  0  0  0  0  0  0  0  0  0  0
   47.2340   31.9320   45.3090 C   0  0  0  0  0  0  0  0  0  0  0  0
   46.3940   32.0800   46.4120 C   0  0  0  0  0  0  0  0  0  0  0  0
   45.5290   33.1510   46.4700 C   0  0  0  0  0  0  0  0  0  0  0  0
   45.5190   34.0390   45.4490 C   0  0  0  0  0  0  0  0  0  0  0  0
   44.6610   35.1200   45.4750 C   0  0  0  0  0  0  0  0  0  0  0  0
   44.5960   36.0520   44.4740 C   0  0  0  0  0  0  0  0  0  0  0  0
   45.4520   35.8670   43.3940 C   0  0  0  0  0  0  0  0  0  0  0  0
   46.3140   34.7780   43.3700 C   0  0  0  0  0  0  0  0  0  0  0  0
   46.3690   33.8570   44.3720 C   0  0  0  0  0  0  0  0  0  0  0  0
   47.8660   31.0570   45.3670 H   0  0  0  0  0  0  0  0  0  0  0  0
   46.3920   31.3780   47.2330 H   0  0  0  0  0  0  0  0  0  0  0  0
   44.8750   33.2670   47.3260 H   0  0  0  0  0  0  0  0  0  0  0  0
   44.0210   35.2110   46.3400 H   0  0  0  0  0  0  0  0  0  0  0  0
   43.8810   36.8620   44.6030 H   0  0  0  0  0  0  0  0  0  0  0  0
   45.3260   36.6560   42.6520 H   0  0  0  0  0  0  0  0  0  0  0  0
   47.0510   34.8480   42.1650 N   0  0  0  0  0  0  0  0  0  0  0  0
   48.1810   35.4270   41.7290 C   0  0  0  0  0  3  0  0  0  0  0  0
   48.6660   35.2580   40.4560 C   0  0  0  0  0  3  0  0  0  0  0  0
   48.0120   34.4690   39.5370 C   0  0  0  0  0  0  0  0  0  0  0  0
   48.6300   34.3860   38.2640 N   0  0  0  0  0  0  0  0  0  0  0  0
   46.8680   33.8590   39.9210 N   0  0  0  0  0  0  0  0  0  0  0  0
   46.4470   34.0740   41.2010 C   0  0  0  0  0  0  0  0  0  0  0  0
   45.3600   33.4100   41.3520 O   0  0  0  0  0  0  0  0  0  0  0  0
   49.6420   34.1200   38.2690 H   0  0  0  0  0  0  0  0  0  0  0  0
   47.8980   34.6210   37.5610 H   0  0  0  0  0  0  0  0  0  0  0  0
   48.1380   32.5790   43.1840 N   0  0  0  0  0  0  0  0  0  0  0  0
   47.9390   33.4930   42.7430 H   0  0  0  0  0  0  0  0  0  0  0  0
   50.1320   31.2580   42.3500 C   0  0  1  0  0  0  0  0  0  0  0  0
   48.8950   30.6760   41.6990 C   0  0  0  0  0  0  0  0  0  0  0  0
   48.8680   31.3480   43.0650 C   0  0  2  0  0  0  0  0  0  0  0  0
   50.5570   32.0550   41.6900 H   0  0  0  0  0  0  0  0  0  0  0  0
   48.8580   29.5560   41.7470 H   0  0  0  0  0  0  0  0  0  0  0  0
   48.3670   31.1950   40.9010 H   0  0  0  0  0  0  0  0  0  0  0  0
   48.7840   30.7140   43.9790 H   0  0  0  0  0  0  0  0  0  0  0  0
   53.2400   29.2460   42.3710 C   0  0  0  0  0  0  0  0  0  0  0  0
   53.1260   28.5520   43.6150 C   0  0  0  0  0  0  0  0  0  0  0  0
   51.9840   28.8060   44.4190 C   0  0  0  0  0  0  0  0  0  0  0  0
   51.0680   29.6770   43.9870 N   0  0  0  0  0  0  0  0  0  0  0  0
   51.2050   30.3190   42.8000 C   0  0  0  0  0  0  0  0  0  0  0  0
   52.2920   30.1070   41.9880 N   0  0  0  0  0  0  0  0  0  0  0  0
   54.1120   29.0480   41.7620 H   0  0  0  0  0  0  0  0  0  0  0  0
   53.9150   27.8720   43.8750 H   0  0  0  0  0  0  0  0  0  0  0  0
   51.9160   28.2760   45.3500 H   0  0  0  0  0  0  0  0  0  0  0  0
  1 10  2  0  0  0  0
  1  2  1  0  0  0  0
  2 11  1  0  0  0  0
  2  3  2  0  0  0  0
  3  4  1  0  0  0  0
  3 12  1  0  0  0  0
  4 13  1  0  0  0  0
  5  6  1  0  0  0  0
  5  4  2  0  0  0  0
  6 14  1  0  0  0  0
  7 15  1  0  0  0  0
  7  6  2  0  0  0  0
  8  7  1  0  0  0  0
  9  8  2  0  0  0  0
  9 10  1  0  0  0  0
 10  5  1  0  0  0  0
 16  8  1  0  0  0  0
 17  9  1  0  0  0  0
 18 17  1  0  0  0  0
 19 18  2  0  0  0  0
 20 22  2  0  0  0  0
 20 19  1  0  0  0  0
 21 25  1  0  0  0  0
 21 20  1  0  0  0  0
 22 23  1  0  0  0  0
 23 24  2  0  0  0  0
 23 17  1  0  0  0  0
 26 21  1  0  0  0  0
 27  1  1  0  0  0  0
 28 27  1  0  0  0  0
 29 32  1  6  0  0  0
 29 40  1  0  0  0  0
 29 31  1  0  0  0  0
 30 33  1  0  0  0  0
 30 29  1  0  0  0  0
 30 31  1  0  0  0  0
 31 27  1  0  0  0  0
 31 35  1  1  0  0  0
 34 30  1  0  0  0  0
 36 37  1  0  0  0  0
 37 43  1  0  0  0  0
 37 38  2  0  0  0  0
 38 44  1  0  0  0  0
 39 38  1  0  0  0  0
 40 39  2  0  0  0  0
 41 36  2  0  0  0  0
 41 40  1  0  0  0  0
 42 36  1  0  0  0  0
M  END
>  <minimizedAffinity>
-6.31339359

>  <minimizedRMSD>
2.67859316

$$$$
