
 OpenBabel03252505373D

 27 28  0  0  0  0  0  0  0  0999 V2000
   38.1740   29.4170   41.6410 C   0  0  0  0  0  0  0  0  0  0  0  0
   39.0560   28.7640   42.5060 C   0  0  0  0  0  0  0  0  0  0  0  0
   38.6440   27.6850   43.2990 C   0  0  0  0  0  0  0  0  0  0  0  0
   37.3420   27.2440   43.2380 C   0  0  0  0  0  0  0  0  0  0  0  0
   36.4870   27.8910   42.3860 C   0  0  0  0  0  0  0  0  0  0  0  0
   36.8850   28.9590   41.5970 C   0  0  0  0  0  0  0  0  0  0  0  0
   40.0880   29.0860   42.5800 H   0  0  0  0  0  0  0  0  0  0  0  0
   39.3060   27.1750   43.9670 H   0  0  0  0  0  0  0  0  0  0  0  0
   36.9070   26.4260   43.7960 H   0  0  0  0  0  0  0  0  0  0  0  0
   35.4490   27.6010   42.2820 H   0  0  0  0  0  0  0  0  0  0  0  0
   39.7640   31.5440   39.0010 C   0  0  0  0  0  0  0  0  0  0  0  0
   39.3060   30.3620   39.6530 C   0  0  0  0  0  0  0  0  0  0  0  0
   38.6880   30.5120   40.8750 C   0  0  0  0  0  0  0  0  0  0  0  0
   38.5420   31.7620   41.4030 N   0  0  0  0  0  0  0  0  0  0  0  0
   39.0020   32.8610   40.7320 C   0  0  0  0  0  0  0  0  0  0  0  0
   39.6080   32.7460   39.5380 N   0  0  0  0  0  0  0  0  0  0  0  0
   38.8590   34.1600   41.3070 N   0  0  0  0  0  0  0  0  0  0  0  0
   40.2470   31.4140   38.0410 H   0  0  0  0  0  0  0  0  0  0  0  0
   39.5910   34.9240   41.2870 H   0  0  0  0  0  0  0  0  0  0  0  0
   38.0230   34.5530   41.8290 H   0  0  0  0  0  0  0  0  0  0  0  0
   39.5400   29.0720   39.0460 C   0  0  0  0  0  0  0  0  0  0  0  0
   40.1440   28.3660   39.5980 H   0  0  0  0  0  0  0  0  0  0  0  0
   39.0450   28.8160   37.9220 O   0  0  0  0  0  0  0  0  0  0  0  0
   35.9320   29.6390   40.6940 C   0  0  0  0  0  0  0  0  0  0  0  0
   35.7720   30.9480   41.1360 F   0  0  0  0  0  0  0  0  0  0  0  0
   34.7200   28.9790   40.7180 F   0  0  0  0  0  0  0  0  0  0  0  0
   36.3330   29.6640   39.3810 F   0  0  0  0  0  0  0  0  0  0  0  0
  1  2  1  0  0  0  0
  2  7  1  0  0  0  0
  2  3  2  0  0  0  0
  3  8  1  0  0  0  0
  4  3  1  0  0  0  0
  4  9  1  0  0  0  0
  5  4  2  0  0  0  0
  6  1  2  0  0  0  0
  6  5  1  0  0  0  0
 10  5  1  0  0  0  0
 11 16  2  0  0  0  0
 11 12  1  0  0  0  0
 12 13  2  0  0  0  0
 13 14  1  0  0  0  0
 13  1  1  0  0  0  0
 15 17  1  0  0  0  0
 15 14  2  0  0  0  0
 16 15  1  0  0  0  0
 17 20  1  0  0  0  0
 18 11  1  0  0  0  0
 19 17  1  0  0  0  0
 21 22  1  0  0  0  0
 21 12  1  0  0  0  0
 23 21  2  0  0  0  0
 24 26  1  0  0  0  0
 24 25  1  0  0  0  0
 24  6  1  0  0  0  0
 27 24  1  0  0  0  0
M  END
>  <minimizedAffinity>
-5.39882183

$$$$

 OpenBabel03252505373D

 27 28  0  0  0  0  0  0  0  0999 V2000
   38.8840   28.7540   41.6720 C   0  0  0  0  0  0  0  0  0  0  0  0
   40.2580   28.8930   41.8790 C   0  0  0  0  0  0  0  0  0  0  0  0
   40.9280   28.1710   42.8760 C   0  0  0  0  0  0  0  0  0  0  0  0
   40.2310   27.2990   43.6800 C   0  0  0  0  0  0  0  0  0  0  0  0
   38.8840   27.1700   43.4670 C   0  0  0  0  0  0  0  0  0  0  0  0
   38.2130   27.8800   42.4840 C   0  0  0  0  0  0  0  0  0  0  0  0
   40.8380   29.5720   41.2650 H   0  0  0  0  0  0  0  0  0  0  0  0
   41.9800   28.2660   43.0480 H   0  0  0  0  0  0  0  0  0  0  0  0
   40.6330   26.6890   44.4780 H   0  0  0  0  0  0  0  0  0  0  0  0
   38.2690   26.5040   44.0580 H   0  0  0  0  0  0  0  0  0  0  0  0
   37.4770   29.9650   38.4200 C   0  0  0  0  0  0  0  0  0  0  0  0
   38.0860   29.0740   39.3510 C   0  0  0  0  0  0  0  0  0  0  0  0
   38.2880   29.5380   40.6320 C   0  0  0  0  0  0  0  0  0  0  0  0
   37.9080   30.8080   40.9520 N   0  0  0  0  0  0  0  0  0  0  0  0
   37.3290   31.6200   40.0180 C   0  0  0  0  0  0  0  0  0  0  0  0
   37.1160   31.1950   38.7600 N   0  0  0  0  0  0  0  0  0  0  0  0
   36.9520   32.9540   40.3640 N   0  0  0  0  0  0  0  0  0  0  0  0
   37.3210   29.5900   37.4170 H   0  0  0  0  0  0  0  0  0  0  0  0
   37.0830   33.8070   39.7510 H   0  0  0  0  0  0  0  0  0  0  0  0
   36.4980   33.2900   41.2620 H   0  0  0  0  0  0  0  0  0  0  0  0
   38.5010   27.7590   38.9180 C   0  0  0  0  0  0  0  0  0  0  0  0
   38.2140   26.9200   39.5370 H   0  0  0  0  0  0  0  0  0  0  0  0
   39.1650   27.6340   37.8620 O   0  0  0  0  0  0  0  0  0  0  0  0
   36.7560   27.7220   42.2870 C   0  0  0  0  0  0  0  0  0  0  0  0
   36.2010   27.2810   43.4830 F   0  0  0  0  0  0  0  0  0  0  0  0
   36.5210   26.7990   41.2870 F   0  0  0  0  0  0  0  0  0  0  0  0
   36.1180   28.8770   41.9060 F   0  0  0  0  0  0  0  0  0  0  0  0
  1  2  2  0  0  0  0
  1  6  1  0  0  0  0
  2  3  1  0  0  0  0
  3  8  1  0  0  0  0
  3  4  2  0  0  0  0
  4  9  1  0  0  0  0
  5  4  1  0  0  0  0
  5 10  1  0  0  0  0
  6  5  2  0  0  0  0
  7  2  1  0  0  0  0
 11 16  2  0  0  0  0
 11 12  1  0  0  0  0
 12 13  2  0  0  0  0
 13 14  1  0  0  0  0
 13  1  1  0  0  0  0
 15 17  1  0  0  0  0
 15 14  2  0  0  0  0
 16 15  1  0  0  0  0
 17 20  1  0  0  0  0
 18 11  1  0  0  0  0
 19 17  1  0  0  0  0
 21 12  1  0  0  0  0
 21 22  1  0  0  0  0
 23 21  2  0  0  0  0
 24  6  1  0  0  0  0
 24 25  1  0  0  0  0
 26 24  1  0  0  0  0
 27 24  1  0  0  0  0
M  END
>  <minimizedAffinity>
-5.14221573

$$$$

 OpenBabel03252505373D

 27 28  0  0  0  0  0  0  0  0999 V2000
   39.2190   27.0110   42.5080 C   0  0  0  0  0  0  0  0  0  0  0  0
   39.1750   28.3510   42.8990 C   0  0  0  0  0  0  0  0  0  0  0  0
   37.9960   28.9420   43.3730 C   0  0  0  0  0  0  0  0  0  0  0  0
   36.8430   28.1970   43.4640 C   0  0  0  0  0  0  0  0  0  0  0  0
   36.8970   26.8840   43.0790 C   0  0  0  0  0  0  0  0  0  0  0  0
   38.0580   26.2920   42.6080 C   0  0  0  0  0  0  0  0  0  0  0  0
   40.0650   28.9680   42.8400 H   0  0  0  0  0  0  0  0  0  0  0  0
   37.9460   29.9660   43.6760 H   0  0  0  0  0  0  0  0  0  0  0  0
   35.8770   28.5370   43.8130 H   0  0  0  0  0  0  0  0  0  0  0  0
   36.0320   26.2360   43.1220 H   0  0  0  0  0  0  0  0  0  0  0  0
   42.1530   26.0470   40.3920 C   0  0  0  0  0  0  0  0  0  0  0  0
   40.8800   26.5980   40.7210 C   0  0  0  0  0  0  0  0  0  0  0  0
   40.4690   26.5000   42.0320 C   0  0  0  0  0  0  0  0  0  0  0  0
   41.2780   25.8890   42.9440 N   0  0  0  0  0  0  0  0  0  0  0  0
   42.4890   25.3770   42.5710 C   0  0  0  0  0  0  0  0  0  0  0  0
   42.9190   25.4600   41.3000 N   0  0  0  0  0  0  0  0  0  0  0  0
   43.3170   24.7240   43.5340 N   0  0  0  0  0  0  0  0  0  0  0  0
   42.4670   26.1320   39.3590 H   0  0  0  0  0  0  0  0  0  0  0  0
   43.8730   23.8400   43.3670 H   0  0  0  0  0  0  0  0  0  0  0  0
   43.4980   25.0120   44.5390 H   0  0  0  0  0  0  0  0  0  0  0  0
   40.0650   27.1890   39.6850 C   0  0  0  0  0  0  0  0  0  0  0  0
   39.2750   26.5800   39.2680 H   0  0  0  0  0  0  0  0  0  0  0  0
   40.2930   28.3640   39.3100 O   0  0  0  0  0  0  0  0  0  0  0  0
   38.0780   24.8730   42.1940 C   0  0  0  0  0  0  0  0  0  0  0  0
   36.7830   24.3750   42.2810 F   0  0  0  0  0  0  0  0  0  0  0  0
   38.9180   24.1580   43.0250 F   0  0  0  0  0  0  0  0  0  0  0  0
   38.5400   24.6740   40.9150 F   0  0  0  0  0  0  0  0  0  0  0  0
  1  6  2  0  0  0  0
  1  2  1  0  0  0  0
  2  3  2  0  0  0  0
  3  4  1  0  0  0  0
  3  8  1  0  0  0  0
  4  9  1  0  0  0  0
  5 10  1  0  0  0  0
  5  4  2  0  0  0  0
  6  5  1  0  0  0  0
  7  2  1  0  0  0  0
 11 12  2  0  0  0  0
 11 16  1  0  0  0  0
 12 13  1  0  0  0  0
 13  1  1  0  0  0  0
 13 14  2  0  0  0  0
 15 14  1  0  0  0  0
 15 17  1  0  0  0  0
 16 15  2  0  0  0  0
 17 20  1  0  0  0  0
 18 11  1  0  0  0  0
 19 17  1  0  0  0  0
 21 12  1  0  0  0  0
 22 21  1  0  0  0  0
 23 21  2  0  0  0  0
 24 25  1  0  0  0  0
 24  6  1  0  0  0  0
 24 26  1  0  0  0  0
 27 24  1  0  0  0  0
M  END
>  <minimizedAffinity>
-5.06788731

$$$$

 OpenBabel03252505373D

 27 28  0  0  0  0  0  0  0  0999 V2000
   37.6550   29.2590   41.4710 C   0  0  0  0  0  0  0  0  0  0  0  0
   36.5340   28.4810   41.7650 C   0  0  0  0  0  0  0  0  0  0  0  0
   36.5120   27.6070   42.8600 C   0  0  0  0  0  0  0  0  0  0  0  0
   37.6140   27.4990   43.6770 C   0  0  0  0  0  0  0  0  0  0  0  0
   38.7080   28.2680   43.3790 C   0  0  0  0  0  0  0  0  0  0  0  0
   38.7390   29.1350   42.2980 C   0  0  0  0  0  0  0  0  0  0  0  0
   35.6480   28.5400   41.1430 H   0  0  0  0  0  0  0  0  0  0  0  0
   35.6610   27.0040   43.1000 H   0  0  0  0  0  0  0  0  0  0  0  0
   37.7180   26.8650   44.5460 H   0  0  0  0  0  0  0  0  0  0  0  0
   39.6110   28.2380   43.9750 H   0  0  0  0  0  0  0  0  0  0  0  0
   37.6930   30.6570   37.9980 C   0  0  0  0  0  0  0  0  0  0  0  0
   37.8030   29.6890   39.0380 C   0  0  0  0  0  0  0  0  0  0  0  0
   37.5840   30.1190   40.3280 C   0  0  0  0  0  0  0  0  0  0  0  0
   37.2790   31.4290   40.5550 N   0  0  0  0  0  0  0  0  0  0  0  0
   37.1880   32.3150   39.5170 C   0  0  0  0  0  0  0  0  0  0  0  0
   37.3940   31.9240   38.2480 N   0  0  0  0  0  0  0  0  0  0  0  0
   36.8870   33.6870   39.7730 N   0  0  0  0  0  0  0  0  0  0  0  0
   37.8650   30.3070   36.9870 H   0  0  0  0  0  0  0  0  0  0  0  0
   37.3390   34.5140   39.2930 H   0  0  0  0  0  0  0  0  0  0  0  0
   36.1850   34.0820   40.4630 H   0  0  0  0  0  0  0  0  0  0  0  0
   38.1730   28.3300   38.7160 C   0  0  0  0  0  0  0  0  0  0  0  0
   37.4710   27.5500   38.9770 H   0  0  0  0  0  0  0  0  0  0  0  0
   39.2720   28.1020   38.1580 O   0  0  0  0  0  0  0  0  0  0  0  0
   39.9410   29.9430   42.0020 C   0  0  0  0  0  0  0  0  0  0  0  0
   40.4140   29.5760   40.7470 F   0  0  0  0  0  0  0  0  0  0  0  0
   40.9060   29.7070   42.9600 F   0  0  0  0  0  0  0  0  0  0  0  0
   39.7140   31.2980   42.0080 F   0  0  0  0  0  0  0  0  0  0  0  0
  1  2  2  0  0  0  0
  1  6  1  0  0  0  0
  2  3  1  0  0  0  0
  3  8  1  0  0  0  0
  3  4  2  0  0  0  0
  4  9  1  0  0  0  0
  5  4  1  0  0  0  0
  5 10  1  0  0  0  0
  6  5  2  0  0  0  0
  7  2  1  0  0  0  0
 11 16  2  0  0  0  0
 11 12  1  0  0  0  0
 12 13  2  0  0  0  0
 13 14  1  0  0  0  0
 13  1  1  0  0  0  0
 15 17  1  0  0  0  0
 15 14  2  0  0  0  0
 16 15  1  0  0  0  0
 17 20  1  0  0  0  0
 18 11  1  0  0  0  0
 19 17  1  0  0  0  0
 21 22  1  0  0  0  0
 21 12  1  0  0  0  0
 23 21  2  0  0  0  0
 24 27  1  0  0  0  0
 24  6  1  0  0  0  0
 24 26  1  0  0  0  0
 25 24  1  0  0  0  0
M  END
>  <minimizedAffinity>
-5.04549217

$$$$

 OpenBabel03252505373D

 27 28  0  0  0  0  0  0  0  0999 V2000
   36.7520   30.1530   39.5580 C   0  0  0  0  0  0  0  0  0  0  0  0
   35.7820   29.6400   40.4220 C   0  0  0  0  0  0  0  0  0  0  0  0
   34.6210   29.0210   39.9400 C   0  0  0  0  0  0  0  0  0  0  0  0
   34.4140   28.9060   38.5840 C   0  0  0  0  0  0  0  0  0  0  0  0
   35.3720   29.4120   37.7470 C   0  0  0  0  0  0  0  0  0  0  0  0
   36.5240   30.0260   38.2140 C   0  0  0  0  0  0  0  0  0  0  0  0
   35.9110   29.7130   41.4960 H   0  0  0  0  0  0  0  0  0  0  0  0
   33.8680   28.6230   40.5880 H   0  0  0  0  0  0  0  0  0  0  0  0
   33.5640   28.4520   38.0930 H   0  0  0  0  0  0  0  0  0  0  0  0
   35.2810   29.3590   36.6690 H   0  0  0  0  0  0  0  0  0  0  0  0
   40.1320   30.8410   41.0120 C   0  0  0  0  0  0  0  0  0  0  0  0
   39.0660   30.0940   40.4320 C   0  0  0  0  0  0  0  0  0  0  0  0
   37.9020   30.7720   40.1450 C   0  0  0  0  0  0  0  0  0  0  0  0
   37.8150   32.1040   40.4240 N   0  0  0  0  0  0  0  0  0  0  0  0
   38.8700   32.7700   40.9830 C   0  0  0  0  0  0  0  0  0  0  0  0
   40.0200   32.1370   41.2720 N   0  0  0  0  0  0  0  0  0  0  0  0
   38.7580   34.1610   41.2860 N   0  0  0  0  0  0  0  0  0  0  0  0
   41.0440   30.3000   41.2320 H   0  0  0  0  0  0  0  0  0  0  0  0
   39.1270   34.6310   42.1590 H   0  0  0  0  0  0  0  0  0  0  0  0
   38.3000   34.9200   40.7020 H   0  0  0  0  0  0  0  0  0  0  0  0
   39.2240   28.6750   40.2100 C   0  0  0  0  0  0  0  0  0  0  0  0
   39.4370   28.3520   39.2000 H   0  0  0  0  0  0  0  0  0  0  0  0
   39.1110   27.8800   41.1720 O   0  0  0  0  0  0  0  0  0  0  0  0
   37.5330   30.5680   37.2800 C   0  0  0  0  0  0  0  0  0  0  0  0
   36.9770   30.5980   36.0060 F   0  0  0  0  0  0  0  0  0  0  0  0
   38.6540   29.7610   37.2890 F   0  0  0  0  0  0  0  0  0  0  0  0
   37.9650   31.8320   37.6010 F   0  0  0  0  0  0  0  0  0  0  0  0
  1 13  1  0  0  0  0
  1  2  1  0  0  0  0
  2  7  1  0  0  0  0
  3  2  2  0  0  0  0
  3  8  1  0  0  0  0
  4  3  1  0  0  0  0
  5  6  1  0  0  0  0
  5  4  2  0  0  0  0
  6  1  2  0  0  0  0
  9  4  1  0  0  0  0
 10  5  1  0  0  0  0
 11 18  1  0  0  0  0
 11 16  1  0  0  0  0
 12 11  2  0  0  0  0
 13 14  2  0  0  0  0
 13 12  1  0  0  0  0
 14 15  1  0  0  0  0
 15 16  2  0  0  0  0
 15 17  1  0  0  0  0
 17 19  1  0  0  0  0
 20 17  1  0  0  0  0
 21 12  1  0  0  0  0
 21 23  2  0  0  0  0
 22 21  1  0  0  0  0
 24 26  1  0  0  0  0
 24 27  1  0  0  0  0
 24  6  1  0  0  0  0
 25 24  1  0  0  0  0
M  END
>  <minimizedAffinity>
-5.02534437

$$$$

 OpenBabel03252505373D

 27 28  0  0  0  0  0  0  0  0999 V2000
   37.6910   26.7480   41.0080 C   0  0  0  0  0  0  0  0  0  0  0  0
   36.9540   25.7650   40.3430 C   0  0  0  0  0  0  0  0  0  0  0  0
   36.9710   24.4270   40.7580 C   0  0  0  0  0  0  0  0  0  0  0  0
   37.7260   24.0530   41.8460 C   0  0  0  0  0  0  0  0  0  0  0  0
   38.4440   25.0260   42.4900 C   0  0  0  0  0  0  0  0  0  0  0  0
   38.4340   26.3520   42.0870 C   0  0  0  0  0  0  0  0  0  0  0  0
   36.3480   26.0230   39.4820 H   0  0  0  0  0  0  0  0  0  0  0  0
   36.4130   23.6610   40.2600 H   0  0  0  0  0  0  0  0  0  0  0  0
   37.8210   23.0590   42.2600 H   0  0  0  0  0  0  0  0  0  0  0  0
   39.0610   24.8090   43.3530 H   0  0  0  0  0  0  0  0  0  0  0  0
   38.1910   29.9080   39.0640 C   0  0  0  0  0  0  0  0  0  0  0  0
   38.3790   28.5530   39.4600 C   0  0  0  0  0  0  0  0  0  0  0  0
   37.6130   28.0870   40.5060 C   0  0  0  0  0  0  0  0  0  0  0  0
   36.7230   28.9260   41.1100 N   0  0  0  0  0  0  0  0  0  0  0  0
   36.5860   30.2190   40.6880 C   0  0  0  0  0  0  0  0  0  0  0  0
   37.3180   30.7010   39.6700 N   0  0  0  0  0  0  0  0  0  0  0  0
   35.6640   31.0900   41.3440 N   0  0  0  0  0  0  0  0  0  0  0  0
   38.7970   30.2640   38.2400 H   0  0  0  0  0  0  0  0  0  0  0  0
   35.8410   32.1060   41.5800 H   0  0  0  0  0  0  0  0  0  0  0  0
   34.6860   30.8640   41.6880 H   0  0  0  0  0  0  0  0  0  0  0  0
   39.3750   27.7430   38.7960 C   0  0  0  0  0  0  0  0  0  0  0  0
   40.1120   27.2550   39.4180 H   0  0  0  0  0  0  0  0  0  0  0  0
   39.3530   27.6330   37.5470 O   0  0  0  0  0  0  0  0  0  0  0  0
   39.2270   27.3740   42.8020 C   0  0  0  0  0  0  0  0  0  0  0  0
   38.3510   28.1910   43.5080 F   0  0  0  0  0  0  0  0  0  0  0  0
   39.9450   28.1240   41.8910 F   0  0  0  0  0  0  0  0  0  0  0  0
   40.1450   26.8510   43.6800 F   0  0  0  0  0  0  0  0  0  0  0  0
  1  6  1  0  0  0  0
  2  3  1  0  0  0  0
  2  1  2  0  0  0  0
  3  4  2  0  0  0  0
  4  9  1  0  0  0  0
  4  5  1  0  0  0  0
  5 10  1  0  0  0  0
  6  5  2  0  0  0  0
  6 24  1  0  0  0  0
  7  2  1  0  0  0  0
  8  3  1  0  0  0  0
 11 12  2  0  0  0  0
 11 16  1  0  0  0  0
 12 13  1  0  0  0  0
 13  1  1  0  0  0  0
 13 14  2  0  0  0  0
 15 14  1  0  0  0  0
 15 17  1  0  0  0  0
 16 15  2  0  0  0  0
 17 19  1  0  0  0  0
 17 20  1  0  0  0  0
 18 11  1  0  0  0  0
 21 22  1  0  0  0  0
 21 12  1  0  0  0  0
 23 21  2  0  0  0  0
 24 25  1  0  0  0  0
 24 27  1  0  0  0  0
 26 24  1  0  0  0  0
M  END
>  <minimizedAffinity>
-4.90614462

$$$$

 OpenBabel03252505373D

 27 28  0  0  0  0  0  0  0  0999 V2000
   37.7970   27.0270   41.0120 C   0  0  0  0  0  0  0  0  0  0  0  0
   37.6870   26.9350   39.6220 C   0  0  0  0  0  0  0  0  0  0  0  0
   36.7490   27.6910   38.9070 C   0  0  0  0  0  0  0  0  0  0  0  0
   35.9060   28.5500   39.5730 C   0  0  0  0  0  0  0  0  0  0  0  0
   36.0230   28.6330   40.9350 C   0  0  0  0  0  0  0  0  0  0  0  0
   36.9470   27.8890   41.6510 C   0  0  0  0  0  0  0  0  0  0  0  0
   38.3350   26.2670   39.0650 H   0  0  0  0  0  0  0  0  0  0  0  0
   36.6520   27.6320   37.8430 H   0  0  0  0  0  0  0  0  0  0  0  0
   35.1450   29.1830   39.1350 H   0  0  0  0  0  0  0  0  0  0  0  0
   35.3960   29.2860   41.5270 H   0  0  0  0  0  0  0  0  0  0  0  0
   39.6010   24.2560   42.7670 C   0  0  0  0  0  0  0  0  0  0  0  0
   38.5200   24.9560   42.1580 C   0  0  0  0  0  0  0  0  0  0  0  0
   38.7820   26.2110   41.6540 C   0  0  0  0  0  0  0  0  0  0  0  0
   40.0420   26.7250   41.7580 N   0  0  0  0  0  0  0  0  0  0  0  0
   41.0410   26.0080   42.3550 C   0  0  0  0  0  0  0  0  0  0  0  0
   40.8160   24.7800   42.8540 N   0  0  0  0  0  0  0  0  0  0  0  0
   42.3500   26.5670   42.4720 N   0  0  0  0  0  0  0  0  0  0  0  0
   39.3840   23.2700   43.1580 H   0  0  0  0  0  0  0  0  0  0  0  0
   42.9770   26.4880   43.3210 H   0  0  0  0  0  0  0  0  0  0  0  0
   42.8830   27.1340   41.7510 H   0  0  0  0  0  0  0  0  0  0  0  0
   37.2050   24.3580   42.1280 C   0  0  0  0  0  0  0  0  0  0  0  0
   36.5650   24.5240   42.9840 H   0  0  0  0  0  0  0  0  0  0  0  0
   36.8530   23.6810   41.1330 O   0  0  0  0  0  0  0  0  0  0  0  0
   37.0400   27.9980   43.1230 C   0  0  0  0  0  0  0  0  0  0  0  0
   35.9910   27.2750   43.6800 F   0  0  0  0  0  0  0  0  0  0  0  0
   36.9520   29.3240   43.4960 F   0  0  0  0  0  0  0  0  0  0  0  0
   38.2220   27.5280   43.6410 F   0  0  0  0  0  0  0  0  0  0  0  0
  1  6  1  0  0  0  0
  1 13  1  0  0  0  0
  2  1  2  0  0  0  0
  3  4  2  0  0  0  0
  3  2  1  0  0  0  0
  4  5  1  0  0  0  0
  5 10  1  0  0  0  0
  5  6  2  0  0  0  0
  6 24  1  0  0  0  0
  7  2  1  0  0  0  0
  8  3  1  0  0  0  0
  9  4  1  0  0  0  0
 11 16  1  0  0  0  0
 11 18  1  0  0  0  0
 12 11  2  0  0  0  0
 13 14  2  0  0  0  0
 13 12  1  0  0  0  0
 14 15  1  0  0  0  0
 15 17  1  0  0  0  0
 15 16  2  0  0  0  0
 17 19  1  0  0  0  0
 20 17  1  0  0  0  0
 21 12  1  0  0  0  0
 21 22  1  0  0  0  0
 23 21  2  0  0  0  0
 24 26  1  0  0  0  0
 24 27  1  0  0  0  0
 24 25  1  0  0  0  0
M  END
>  <minimizedAffinity>
-4.84384346

$$$$

 OpenBabel03252505373D

 27 28  0  0  0  0  0  0  0  0999 V2000
   37.7640   29.4680   39.6100 C   0  0  0  0  0  0  0  0  0  0  0  0
   37.8940   28.5700   38.5480 C   0  0  0  0  0  0  0  0  0  0  0  0
   37.6340   28.9530   37.2250 C   0  0  0  0  0  0  0  0  0  0  0  0
   37.2400   30.2410   36.9460 C   0  0  0  0  0  0  0  0  0  0  0  0
   37.1170   31.1130   37.9960 C   0  0  0  0  0  0  0  0  0  0  0  0
   37.3710   30.7440   39.3070 C   0  0  0  0  0  0  0  0  0  0  0  0
   38.2010   27.5470   38.7310 H   0  0  0  0  0  0  0  0  0  0  0  0
   37.7290   28.2780   36.4010 H   0  0  0  0  0  0  0  0  0  0  0  0
   37.0130   30.6550   35.9730 H   0  0  0  0  0  0  0  0  0  0  0  0
   36.8130   32.1420   37.8550 H   0  0  0  0  0  0  0  0  0  0  0  0
   39.4430   28.4470   42.7970 C   0  0  0  0  0  0  0  0  0  0  0  0
   39.3120   28.9540   41.4710 C   0  0  0  0  0  0  0  0  0  0  0  0
   38.0470   28.9820   40.9270 C   0  0  0  0  0  0  0  0  0  0  0  0
   36.9910   28.5290   41.6620 N   0  0  0  0  0  0  0  0  0  0  0  0
   37.1760   28.0520   42.9290 C   0  0  0  0  0  0  0  0  0  0  0  0
   38.3980   28.0150   43.4880 N   0  0  0  0  0  0  0  0  0  0  0  0
   36.0630   27.5640   43.6790 N   0  0  0  0  0  0  0  0  0  0  0  0
   40.4410   28.4320   43.2160 H   0  0  0  0  0  0  0  0  0  0  0  0
   36.0660   26.7020   44.2930 H   0  0  0  0  0  0  0  0  0  0  0  0
   35.0870   27.9760   43.7380 H   0  0  0  0  0  0  0  0  0  0  0  0
   40.4890   29.3730   40.7440 C   0  0  0  0  0  0  0  0  0  0  0  0
   40.7570   28.8020   39.8660 H   0  0  0  0  0  0  0  0  0  0  0  0
   41.1470   30.3620   41.1450 O   0  0  0  0  0  0  0  0  0  0  0  0
   37.2200   31.7100   40.4160 C   0  0  0  0  0  0  0  0  0  0  0  0
   36.1530   31.3010   41.2070 F   0  0  0  0  0  0  0  0  0  0  0  0
   36.9750   32.9690   39.9040 F   0  0  0  0  0  0  0  0  0  0  0  0
   38.3360   31.8250   41.2080 F   0  0  0  0  0  0  0  0  0  0  0  0
  1 13  1  0  0  0  0
  2  7  1  0  0  0  0
  2  1  2  0  0  0  0
  3  2  1  0  0  0  0
  4  3  2  0  0  0  0
  4  5  1  0  0  0  0
  5  6  2  0  0  0  0
  6  1  1  0  0  0  0
  6 24  1  0  0  0  0
  8  3  1  0  0  0  0
  9  4  1  0  0  0  0
 10  5  1  0  0  0  0
 11 18  1  0  0  0  0
 11 16  1  0  0  0  0
 12 11  2  0  0  0  0
 13 12  1  0  0  0  0
 13 14  2  0  0  0  0
 14 15  1  0  0  0  0
 15 16  2  0  0  0  0
 15 17  1  0  0  0  0
 17 20  1  0  0  0  0
 17 19  1  0  0  0  0
 21 23  2  0  0  0  0
 21 12  1  0  0  0  0
 22 21  1  0  0  0  0
 24 25  1  0  0  0  0
 24 27  1  0  0  0  0
 26 24  1  0  0  0  0
M  END
>  <minimizedAffinity>
-4.79132652

$$$$

 OpenBabel03252505373D

 27 28  0  0  0  0  0  0  0  0999 V2000
   37.5180   28.3360   40.9580 C   0  0  0  0  0  0  0  0  0  0  0  0
   37.8220   29.2740   41.9470 C   0  0  0  0  0  0  0  0  0  0  0  0
   37.9160   28.9140   43.2980 C   0  0  0  0  0  0  0  0  0  0  0  0
   37.7080   27.6080   43.6780 C   0  0  0  0  0  0  0  0  0  0  0  0
   37.4120   26.6970   42.7000 C   0  0  0  0  0  0  0  0  0  0  0  0
   37.3160   27.0440   41.3610 C   0  0  0  0  0  0  0  0  0  0  0  0
   37.9910   30.3120   41.6840 H   0  0  0  0  0  0  0  0  0  0  0  0
   38.1480   29.6200   44.0680 H   0  0  0  0  0  0  0  0  0  0  0  0
   37.7530   27.2090   44.6830 H   0  0  0  0  0  0  0  0  0  0  0  0
   37.2350   25.6520   42.9210 H   0  0  0  0  0  0  0  0  0  0  0  0
   36.3840   29.8150   37.7110 C   0  0  0  0  0  0  0  0  0  0  0  0
   36.3170   29.3960   39.0710 C   0  0  0  0  0  0  0  0  0  0  0  0
   37.4390   28.8020   39.6060 C   0  0  0  0  0  0  0  0  0  0  0  0
   38.5460   28.6380   38.8270 N   0  0  0  0  0  0  0  0  0  0  0  0
   38.5530   29.0580   37.5260 C   0  0  0  0  0  0  0  0  0  0  0  0
   37.4750   29.6430   36.9770 N   0  0  0  0  0  0  0  0  0  0  0  0
   39.7140   28.8620   36.7180 N   0  0  0  0  0  0  0  0  0  0  0  0
   35.4980   30.2830   37.3010 H   0  0  0  0  0  0  0  0  0  0  0  0
   39.7130   28.5570   35.7050 H   0  0  0  0  0  0  0  0  0  0  0  0
   40.7300   28.9870   36.9970 H   0  0  0  0  0  0  0  0  0  0  0  0
   35.0890   29.5670   39.8140 C   0  0  0  0  0  0  0  0  0  0  0  0
   35.1430   30.1260   40.7380 H   0  0  0  0  0  0  0  0  0  0  0  0
   34.0240   29.0730   39.3740 O   0  0  0  0  0  0  0  0  0  0  0  0
   36.9860   26.0350   40.3320 C   0  0  0  0  0  0  0  0  0  0  0  0
   38.1230   25.8060   39.5660 F   0  0  0  0  0  0  0  0  0  0  0  0
   35.9620   26.5050   39.5330 F   0  0  0  0  0  0  0  0  0  0  0  0
   36.5540   24.8370   40.8470 F   0  0  0  0  0  0  0  0  0  0  0  0
  1  6  2  0  0  0  0
  1  2  1  0  0  0  0
  2  3  2  0  0  0  0
  3  4  1  0  0  0  0
  3  8  1  0  0  0  0
  4  9  1  0  0  0  0
  5 10  1  0  0  0  0
  5  4  2  0  0  0  0
  6  5  1  0  0  0  0
  7  2  1  0  0  0  0
 11 12  1  0  0  0  0
 12 13  2  0  0  0  0
 12 21  1  0  0  0  0
 13  1  1  0  0  0  0
 14 13  1  0  0  0  0
 15 14  2  0  0  0  0
 16 15  1  0  0  0  0
 16 11  2  0  0  0  0
 17 20  1  0  0  0  0
 17 15  1  0  0  0  0
 18 11  1  0  0  0  0
 19 17  1  0  0  0  0
 21 22  1  0  0  0  0
 23 21  2  0  0  0  0
 24 27  1  0  0  0  0
 24  6  1  0  0  0  0
 25 24  1  0  0  0  0
 26 24  1  0  0  0  0
M  END
>  <minimizedAffinity>
-4.77869272

$$$$
