
 OpenBabel03252509173D

 35 37  0  0  1  0  0  0  0  0999 V2000
   51.3900   31.2860   41.9690 C   0  0  1  0  0  0  0  0  0  0  0  0
   51.5270   30.3110   43.0860 C   0  0  0  0  0  0  0  0  0  0  0  0
   51.5740   28.8750   42.6670 C   0  0  0  0  0  0  0  0  0  0  0  0
   52.4460   28.6400   41.4560 C   0  0  0  0  0  0  0  0  0  0  0  0
   52.2230   29.6650   40.3700 C   0  0  0  0  0  0  0  0  0  0  0  0
   50.9770   30.4980   40.7030 C   0  0  2  0  0  0  0  0  0  0  0  0
   52.3750   31.6980   41.7110 H   0  0  0  0  0  0  0  0  0  0  0  0
   50.6300   30.4100   43.7570 H   0  0  0  0  0  0  0  0  0  0  0  0
   52.4070   30.4920   43.7520 H   0  0  0  0  0  0  0  0  0  0  0  0
   50.5420   28.5600   42.3690 H   0  0  0  0  0  0  0  0  0  0  0  0
   51.9510   28.2470   43.4730 H   0  0  0  0  0  0  0  0  0  0  0  0
   52.2150   27.6120   41.1120 H   0  0  0  0  0  0  0  0  0  0  0  0
   53.5020   28.6540   41.7340 H   0  0  0  0  0  0  0  0  0  0  0  0
   53.0550   30.3830   40.3310 H   0  0  0  0  0  0  0  0  0  0  0  0
   52.0220   29.1870   39.3970 H   0  0  0  0  0  0  0  0  0  0  0  0
   50.0950   29.8790   40.8740 H   0  0  0  0  0  0  0  0  0  0  0  0
   48.2900   33.8040   42.9060 C   0  0  0  0  0  0  0  0  0  0  0  0
   49.4890   34.4950   42.6760 C   0  0  0  0  0  0  0  0  0  0  0  0
   50.5770   33.7690   42.3560 C   0  0  0  0  0  0  0  0  0  0  0  0
   50.4960   32.3660   42.2590 C   0  0  0  0  0  0  0  0  0  0  0  0
   48.7430   32.0440   42.6500 S   0  0  0  0  0  0  0  0  0  0  0  0
   49.5520   35.5690   42.7510 H   0  0  0  0  0  0  0  0  0  0  0  0
   51.5780   34.1130   42.1440 H   0  0  0  0  0  0  0  0  0  0  0  0
   45.2250   35.9080   43.0640 C   0  0  0  0  0  0  0  0  0  0  0  0
   44.6310   35.3930   44.2270 C   0  0  0  0  0  0  0  0  0  0  0  0
   45.2980   34.3520   44.9060 C   0  0  0  0  0  0  0  0  0  0  0  0
   46.4850   33.9070   44.3910 N   0  0  0  0  0  0  0  0  0  0  0  0
   47.0120   34.4420   43.2650 C   0  0  0  0  0  0  0  0  0  0  0  0
   46.3810   35.4430   42.6010 N   0  0  0  0  0  0  0  0  0  0  0  0
   44.7230   36.6990   42.5410 H   0  0  0  0  0  0  0  0  0  0  0  0
   43.7010   35.7760   44.5880 H   0  0  0  0  0  0  0  0  0  0  0  0
   44.8910   33.9250   45.7950 H   0  0  0  0  0  0  0  0  0  0  0  0
   50.7960   31.4970   39.6120 C   0  0  0  0  0  0  0  0  0  0  0  0
   51.6640   32.1280   39.3930 H   0  0  0  0  0  0  0  0  0  0  0  0
   49.7540   31.6310   38.9780 O   0  0  0  0  0  0  0  0  0  0  0  0
  1  7  1  6  0  0  0
  1 20  1  0  0  0  0
  1  2  1  0  0  0  0
  2  9  1  0  0  0  0
  2  8  1  0  0  0  0
  3  2  1  0  0  0  0
  3 11  1  0  0  0  0
  4 13  1  0  0  0  0
  4  3  1  0  0  0  0
  5  6  1  0  0  0  0
  5  4  1  0  0  0  0
  6 16  1  1  0  0  0
  6  1  1  0  0  0  0
 10  3  1  0  0  0  0
 12  4  1  0  0  0  0
 14  5  1  0  0  0  0
 15  5  1  0  0  0  0
 17 28  1  0  0  0  0
 18 22  1  0  0  0  0
 18 17  2  0  0  0  0
 19 18  1  0  0  0  0
 20 19  2  0  0  0  0
 20 21  1  0  0  0  0
 21 17  1  0  0  0  0
 23 19  1  0  0  0  0
 24 25  1  0  0  0  0
 25 31  1  0  0  0  0
 25 26  2  0  0  0  0
 26 32  1  0  0  0  0
 27 26  1  0  0  0  0
 28 27  2  0  0  0  0
 29 24  2  0  0  0  0
 29 28  1  0  0  0  0
 30 24  1  0  0  0  0
 33  6  1  0  0  0  0
 34 33  1  0  0  0  0
 35 33  2  0  0  0  0
M  END
>  <minimizedAffinity>
-4.39724541

>  <minimizedRMSD>
6.68884706

$$$$
