
 OpenBabel03252500003D

 15 15  0  0  0  0  0  0  0  0999 V2000
   35.5020   29.7430   40.2160 C   0  0  0  0  0  0  0  0  0  0  0  0
   36.4760   30.7820   40.1810 C   0  0  0  0  0  0  0  0  0  0  0  0
   37.5570   30.6700   41.0440 C   0  0  0  0  0  0  0  0  0  0  0  0
   37.6460   29.5970   41.8750 N   0  0  0  0  0  0  0  0  0  0  0  0
   36.7030   28.6330   41.8790 C   0  0  0  0  0  0  0  0  0  0  0  0
   35.6350   28.7120   41.0470 N   0  0  0  0  0  0  0  0  0  0  0  0
   34.6740   29.8370   39.5480 H   0  0  0  0  0  0  0  0  0  0  0  0
   36.3590   31.6160   39.5010 H   0  0  0  0  0  0  0  0  0  0  0  0
   36.9800   27.5480   42.8520 C   0  0  0  0  0  0  0  0  0  0  0  0
   37.2650   26.3550   42.2280 F   0  0  0  0  0  0  0  0  0  0  0  0
   35.8870   27.3610   43.6790 F   0  0  0  0  0  0  0  0  0  0  0  0
   38.0390   27.9360   43.6800 F   0  0  0  0  0  0  0  0  0  0  0  0
   38.5910   31.6990   41.0610 C   0  0  0  0  0  0  0  0  0  0  0  0
   39.6000   31.4280   41.3210 H   0  0  0  0  0  0  0  0  0  0  0  0
   38.2890   32.8870   40.7720 O   0  0  0  0  0  0  0  0  0  0  0  0
  1  6  1  0  0  0  0
  2  1  2  0  0  0  0
  2  3  1  0  0  0  0
  3 13  1  0  0  0  0
  3  4  2  0  0  0  0
  4  5  1  0  0  0  0
  5  9  1  0  0  0  0
  6  5  2  0  0  0  0
  7  1  1  0  0  0  0
  8  2  1  0  0  0  0
  9 11  1  0  0  0  0
  9 12  1  0  0  0  0
 10  9  1  0  0  0  0
 13 14  1  0  0  0  0
 15 13  2  0  0  0  0
M  END
>  <minimizedAffinity>
-3.93303561

$$$$

 OpenBabel03252500003D

 15 15  0  0  0  0  0  0  0  0999 V2000
   40.0730   25.8710   43.6350 C   0  0  0  0  0  0  0  0  0  0  0  0
   39.8490   24.7160   42.8330 C   0  0  0  0  0  0  0  0  0  0  0  0
   38.6720   24.6690   42.0990 C   0  0  0  0  0  0  0  0  0  0  0  0
   37.7930   25.7040   42.1720 N   0  0  0  0  0  0  0  0  0  0  0  0
   38.0400   26.7820   42.9440 C   0  0  0  0  0  0  0  0  0  0  0  0
   39.1810   26.8580   43.6720 N   0  0  0  0  0  0  0  0  0  0  0  0
   40.9820   25.8980   44.1960 H   0  0  0  0  0  0  0  0  0  0  0  0
   40.5810   23.9190   42.8090 H   0  0  0  0  0  0  0  0  0  0  0  0
   36.9640   27.8010   42.8870 C   0  0  0  0  0  0  0  0  0  0  0  0
   36.5650   28.0590   41.5950 F   0  0  0  0  0  0  0  0  0  0  0  0
   37.3990   28.9840   43.4580 F   0  0  0  0  0  0  0  0  0  0  0  0
   35.8810   27.3650   43.6590 F   0  0  0  0  0  0  0  0  0  0  0  0
   38.3790   23.5150   41.2550 C   0  0  0  0  0  0  0  0  0  0  0  0
   39.1750   22.8390   40.9920 H   0  0  0  0  0  0  0  0  0  0  0  0
   37.2030   23.3270   40.8490 O   0  0  0  0  0  0  0  0  0  0  0  0
  1  6  1  0  0  0  0
  1  7  1  0  0  0  0
  2  1  2  0  0  0  0
  3  4  2  0  0  0  0
  3  2  1  0  0  0  0
  4  5  1  0  0  0  0
  5  6  2  0  0  0  0
  8  2  1  0  0  0  0
  9  5  1  0  0  0  0
  9 11  1  0  0  0  0
  9 12  1  0  0  0  0
 10  9  1  0  0  0  0
 13  3  1  0  0  0  0
 14 13  1  0  0  0  0
 15 13  2  0  0  0  0
M  END
>  <minimizedAffinity>
-3.84317303

$$$$

 OpenBabel03252500003D

 15 15  0  0  0  0  0  0  0  0999 V2000
   38.3660   28.7330   43.2740 C   0  0  0  0  0  0  0  0  0  0  0  0
   38.2240   27.3170   43.2240 C   0  0  0  0  0  0  0  0  0  0  0  0
   37.3240   26.7990   42.3040 C   0  0  0  0  0  0  0  0  0  0  0  0
   36.6220   27.6450   41.5010 N   0  0  0  0  0  0  0  0  0  0  0  0
   36.7840   28.9810   41.5780 C   0  0  0  0  0  0  0  0  0  0  0  0
   37.6570   29.5170   42.4670 N   0  0  0  0  0  0  0  0  0  0  0  0
   39.0620   29.1210   43.9850 H   0  0  0  0  0  0  0  0  0  0  0  0
   38.8060   26.6870   43.8850 H   0  0  0  0  0  0  0  0  0  0  0  0
   35.9330   29.7290   40.6220 C   0  0  0  0  0  0  0  0  0  0  0  0
   36.4800   29.7590   39.3590 F   0  0  0  0  0  0  0  0  0  0  0  0
   35.7590   31.0310   41.0570 F   0  0  0  0  0  0  0  0  0  0  0  0
   34.6600   29.1490   40.5930 F   0  0  0  0  0  0  0  0  0  0  0  0
   37.1290   25.3560   42.1990 C   0  0  0  0  0  0  0  0  0  0  0  0
   36.1470   24.9720   41.9830 H   0  0  0  0  0  0  0  0  0  0  0  0
   38.1100   24.5850   42.3630 O   0  0  0  0  0  0  0  0  0  0  0  0
  1  7  1  0  0  0  0
  2  1  1  0  0  0  0
  2  8  1  0  0  0  0
  3  2  2  0  0  0  0
  4  5  2  0  0  0  0
  4  3  1  0  0  0  0
  5  6  1  0  0  0  0
  6  1  2  0  0  0  0
  9 11  1  0  0  0  0
  9  5  1  0  0  0  0
 10  9  1  0  0  0  0
 12  9  1  0  0  0  0
 13  3  1  0  0  0  0
 13 15  2  0  0  0  0
 14 13  1  0  0  0  0
M  END
>  <minimizedAffinity>
-3.7321434

$$$$

 OpenBabel03252500003D

 15 15  0  0  0  0  0  0  0  0999 V2000
   36.6130   27.8130   39.2040 C   0  0  0  0  0  0  0  0  0  0  0  0
   36.5440   29.2300   39.3200 C   0  0  0  0  0  0  0  0  0  0  0  0
   36.6000   29.7680   40.5980 C   0  0  0  0  0  0  0  0  0  0  0  0
   36.7140   28.9390   41.6720 N   0  0  0  0  0  0  0  0  0  0  0  0
   36.7760   27.6010   41.5210 C   0  0  0  0  0  0  0  0  0  0  0  0
   36.7250   27.0450   40.2850 N   0  0  0  0  0  0  0  0  0  0  0  0
   36.5700   27.4080   38.2160 H   0  0  0  0  0  0  0  0  0  0  0  0
   36.4540   29.8460   38.4350 H   0  0  0  0  0  0  0  0  0  0  0  0
   36.9010   26.8730   42.8070 C   0  0  0  0  0  0  0  0  0  0  0  0
   38.1380   27.0500   43.3830 F   0  0  0  0  0  0  0  0  0  0  0  0
   36.6980   25.5190   42.6090 F   0  0  0  0  0  0  0  0  0  0  0  0
   35.8890   27.3010   43.6740 F   0  0  0  0  0  0  0  0  0  0  0  0
   36.5350   31.2130   40.7900 C   0  0  0  0  0  0  0  0  0  0  0  0
   36.2180   31.6040   41.7420 H   0  0  0  0  0  0  0  0  0  0  0  0
   36.8490   31.9790   39.8420 O   0  0  0  0  0  0  0  0  0  0  0  0
  1  2  2  0  0  0  0
  1  6  1  0  0  0  0
  2  3  1  0  0  0  0
  3 13  1  0  0  0  0
  3  4  2  0  0  0  0
  5  4  1  0  0  0  0
  5  9  1  0  0  0  0
  6  5  2  0  0  0  0
  7  1  1  0  0  0  0
  8  2  1  0  0  0  0
  9 10  1  0  0  0  0
  9 12  1  0  0  0  0
 11  9  1  0  0  0  0
 13 14  1  0  0  0  0
 15 13  2  0  0  0  0
M  END
>  <minimizedAffinity>
-3.71659374

$$$$

 OpenBabel03252500003D

 15 15  0  0  0  0  0  0  0  0999 V2000
   38.4020   28.5800   43.2980 C   0  0  0  0  0  0  0  0  0  0  0  0
   37.5210   29.3770   42.5140 C   0  0  0  0  0  0  0  0  0  0  0  0
   36.6980   28.7180   41.6120 C   0  0  0  0  0  0  0  0  0  0  0  0
   36.7620   27.3630   41.5100 N   0  0  0  0  0  0  0  0  0  0  0  0
   37.6090   26.6420   42.2700 C   0  0  0  0  0  0  0  0  0  0  0  0
   38.4260   27.2560   43.1610 N   0  0  0  0  0  0  0  0  0  0  0  0
   39.0320   29.0960   43.9890 H   0  0  0  0  0  0  0  0  0  0  0  0
   37.5090   30.4530   42.6320 H   0  0  0  0  0  0  0  0  0  0  0  0
   37.5280   25.1830   42.0140 C   0  0  0  0  0  0  0  0  0  0  0  0
   37.5250   24.8960   40.6680 F   0  0  0  0  0  0  0  0  0  0  0  0
   36.3760   24.6650   42.5770 F   0  0  0  0  0  0  0  0  0  0  0  0
   38.5990   24.5470   42.6510 F   0  0  0  0  0  0  0  0  0  0  0  0
   35.7710   29.4750   40.7770 C   0  0  0  0  0  0  0  0  0  0  0  0
   34.9890   28.9530   40.2520 H   0  0  0  0  0  0  0  0  0  0  0  0
   35.8980   30.7230   40.6830 O   0  0  0  0  0  0  0  0  0  0  0  0
  1  7  1  0  0  0  0
  2  8  1  0  0  0  0
  2  1  2  0  0  0  0
  3  2  1  0  0  0  0
  4  3  2  0  0  0  0
  4  5  1  0  0  0  0
  5  6  2  0  0  0  0
  6  1  1  0  0  0  0
  9  5  1  0  0  0  0
  9 11  1  0  0  0  0
  9 12  1  0  0  0  0
 10  9  1  0  0  0  0
 13  3  1  0  0  0  0
 14 13  1  0  0  0  0
 15 13  2  0  0  0  0
M  END
>  <minimizedAffinity>
-3.68921399

$$$$

 OpenBabel03252500003D

 15 15  0  0  0  0  0  0  0  0999 V2000
   36.3670   27.4530   39.0850 C   0  0  0  0  0  0  0  0  0  0  0  0
   36.2230   28.8610   39.2340 C   0  0  0  0  0  0  0  0  0  0  0  0
   36.3290   29.3800   40.5170 C   0  0  0  0  0  0  0  0  0  0  0  0
   36.5610   28.5420   41.5640 N   0  0  0  0  0  0  0  0  0  0  0  0
   36.6930   27.2130   41.3820 C   0  0  0  0  0  0  0  0  0  0  0  0
   36.5940   26.6760   40.1410 N   0  0  0  0  0  0  0  0  0  0  0  0
   36.2840   27.0630   38.0940 H   0  0  0  0  0  0  0  0  0  0  0  0
   36.0380   29.4850   38.3690 H   0  0  0  0  0  0  0  0  0  0  0  0
   36.9430   26.4730   42.6430 C   0  0  0  0  0  0  0  0  0  0  0  0
   36.5860   25.1470   42.5420 F   0  0  0  0  0  0  0  0  0  0  0  0
   36.2250   27.0430   43.6790 F   0  0  0  0  0  0  0  0  0  0  0  0
   38.2940   26.5950   42.9850 F   0  0  0  0  0  0  0  0  0  0  0  0
   36.1910   30.8150   40.7420 C   0  0  0  0  0  0  0  0  0  0  0  0
   35.2180   31.2690   40.6650 H   0  0  0  0  0  0  0  0  0  0  0  0
   37.2100   31.4990   41.0220 O   0  0  0  0  0  0  0  0  0  0  0  0
  1  2  2  0  0  0  0
  1  6  1  0  0  0  0
  2  3  1  0  0  0  0
  3 13  1  0  0  0  0
  3  4  2  0  0  0  0
  5  4  1  0  0  0  0
  5  9  1  0  0  0  0
  6  5  2  0  0  0  0
  7  1  1  0  0  0  0
  8  2  1  0  0  0  0
  9 12  1  0  0  0  0
  9 11  1  0  0  0  0
 10  9  1  0  0  0  0
 13 15  2  0  0  0  0
 14 13  1  0  0  0  0
M  END
>  <minimizedAffinity>
-3.54590058

$$$$

 OpenBabel03252500003D

 15 15  0  0  0  0  0  0  0  0999 V2000
   35.5230   28.9240   40.5470 C   0  0  0  0  0  0  0  0  0  0  0  0
   36.2190   28.5120   41.7190 C   0  0  0  0  0  0  0  0  0  0  0  0
   37.2940   29.2880   42.1270 C   0  0  0  0  0  0  0  0  0  0  0  0
   37.6390   30.3900   41.4070 N   0  0  0  0  0  0  0  0  0  0  0  0
   36.9550   30.7490   40.3020 C   0  0  0  0  0  0  0  0  0  0  0  0
   35.8990   30.0110   39.8780 N   0  0  0  0  0  0  0  0  0  0  0  0
   34.6960   28.3210   40.2410 H   0  0  0  0  0  0  0  0  0  0  0  0
   35.9040   27.6270   42.2560 H   0  0  0  0  0  0  0  0  0  0  0  0
   37.4840   31.9770   39.6600 C   0  0  0  0  0  0  0  0  0  0  0  0
   36.8500   32.2500   38.4690 F   0  0  0  0  0  0  0  0  0  0  0  0
   38.8390   31.8420   39.4170 F   0  0  0  0  0  0  0  0  0  0  0  0
   37.3480   33.0510   40.5470 F   0  0  0  0  0  0  0  0  0  0  0  0
   38.0520   28.9230   43.3190 C   0  0  0  0  0  0  0  0  0  0  0  0
   38.3090   29.6860   44.0340 H   0  0  0  0  0  0  0  0  0  0  0  0
   38.3930   27.7240   43.4940 O   0  0  0  0  0  0  0  0  0  0  0  0
  1  2  1  0  0  0  0
  2  3  2  0  0  0  0
  2  8  1  0  0  0  0
  3 13  1  0  0  0  0
  4  3  1  0  0  0  0
  5  4  2  0  0  0  0
  6  5  1  0  0  0  0
  6  1  2  0  0  0  0
  7  1  1  0  0  0  0
  9  5  1  0  0  0  0
  9 12  1  0  0  0  0
 10  9  1  0  0  0  0
 11  9  1  0  0  0  0
 13 15  2  0  0  0  0
 13 14  1  0  0  0  0
M  END
>  <minimizedAffinity>
-3.4870472

$$$$

 OpenBabel03252500003D

 15 15  0  0  0  0  0  0  0  0999 V2000
   36.8240   26.1360   40.0820 C   0  0  0  0  0  0  0  0  0  0  0  0
   37.3230   26.2380   41.4110 C   0  0  0  0  0  0  0  0  0  0  0  0
   37.0670   27.4150   42.1000 C   0  0  0  0  0  0  0  0  0  0  0  0
   36.3640   28.4090   41.4930 N   0  0  0  0  0  0  0  0  0  0  0  0
   35.9070   28.2750   40.2320 C   0  0  0  0  0  0  0  0  0  0  0  0
   36.1400   27.1370   39.5330 N   0  0  0  0  0  0  0  0  0  0  0  0
   37.0260   25.2260   39.5600 H   0  0  0  0  0  0  0  0  0  0  0  0
   37.8780   25.4170   41.8490 H   0  0  0  0  0  0  0  0  0  0  0  0
   35.1640   29.4650   39.7500 C   0  0  0  0  0  0  0  0  0  0  0  0
   33.8020   29.2620   39.7590 F   0  0  0  0  0  0  0  0  0  0  0  0
   35.5530   29.7790   38.4600 F   0  0  0  0  0  0  0  0  0  0  0  0
   35.5020   30.5670   40.5430 F   0  0  0  0  0  0  0  0  0  0  0  0
   37.5500   27.5860   43.4660 C   0  0  0  0  0  0  0  0  0  0  0  0
   36.8470   27.5630   44.2800 H   0  0  0  0  0  0  0  0  0  0  0  0
   38.7800   27.7570   43.6720 O   0  0  0  0  0  0  0  0  0  0  0  0
  1  2  1  0  0  0  0
  2  8  1  0  0  0  0
  2  3  2  0  0  0  0
  3 13  1  0  0  0  0
  4  3  1  0  0  0  0
  5  4  2  0  0  0  0
  6  1  2  0  0  0  0
  6  5  1  0  0  0  0
  7  1  1  0  0  0  0
  9 10  1  0  0  0  0
  9  5  1  0  0  0  0
  9 12  1  0  0  0  0
 11  9  1  0  0  0  0
 13 15  2  0  0  0  0
 13 14  1  0  0  0  0
M  END
>  <minimizedAffinity>
-3.45231199

$$$$

 OpenBabel03252500003D

 15 15  0  0  0  0  0  0  0  0999 V2000
   39.9830   30.4200   42.0110 C   0  0  0  0  0  0  0  0  0  0  0  0
   39.4070   29.4580   42.8870 C   0  0  0  0  0  0  0  0  0  0  0  0
   38.0430   29.2290   42.7730 C   0  0  0  0  0  0  0  0  0  0  0  0
   37.3200   29.9190   41.8500 N   0  0  0  0  0  0  0  0  0  0  0  0
   37.9030   30.8240   41.0370 C   0  0  0  0  0  0  0  0  0  0  0  0
   39.2330   31.0690   41.1230 N   0  0  0  0  0  0  0  0  0  0  0  0
   41.0340   30.5890   42.1060 H   0  0  0  0  0  0  0  0  0  0  0  0
   40.0250   28.9350   43.6060 H   0  0  0  0  0  0  0  0  0  0  0  0
   36.9500   31.4670   40.1000 C   0  0  0  0  0  0  0  0  0  0  0  0
   36.9710   32.8390   40.2040 F   0  0  0  0  0  0  0  0  0  0  0  0
   35.6630   31.0270   40.3550 F   0  0  0  0  0  0  0  0  0  0  0  0
   37.2520   31.0670   38.7940 F   0  0  0  0  0  0  0  0  0  0  0  0
   37.3870   28.2560   43.6410 C   0  0  0  0  0  0  0  0  0  0  0  0
   36.8940   28.5950   44.5350 H   0  0  0  0  0  0  0  0  0  0  0  0
   37.4080   27.0360   43.3290 O   0  0  0  0  0  0  0  0  0  0  0  0
  1  7  1  0  0  0  0
  1  2  1  0  0  0  0
  2  8  1  0  0  0  0
  3  2  2  0  0  0  0
  3 13  1  0  0  0  0
  4  3  1  0  0  0  0
  5  6  1  0  0  0  0
  5  4  2  0  0  0  0
  6  1  2  0  0  0  0
  9 10  1  0  0  0  0
  9 11  1  0  0  0  0
  9  5  1  0  0  0  0
 12  9  1  0  0  0  0
 13 14  1  0  0  0  0
 15 13  2  0  0  0  0
M  END
>  <minimizedAffinity>
-3.42459869

$$$$
