
 OpenBabel03252507403D

 13 13  0  0  0  0  0  0  0  0999 V2000
   38.4980   29.3790   42.4310 C   0  0  0  0  0  0  0  0  0  0  0  0
   37.1880   29.2350   41.9640 C   0  0  0  0  0  0  0  0  0  0  0  0
   36.5070   28.0550   42.2480 C   0  0  0  0  0  0  0  0  0  0  0  0
   37.1570   27.1040   42.9660 N   0  0  0  0  0  0  0  0  0  0  0  0
   38.4250   27.2820   43.3990 C   0  0  0  0  0  0  0  0  0  0  0  0
   39.1130   28.4140   43.1420 N   0  0  0  0  0  0  0  0  0  0  0  0
   35.4960   27.9590   41.8820 H   0  0  0  0  0  0  0  0  0  0  0  0
   38.8430   26.4520   43.9640 H   0  0  0  0  0  0  0  0  0  0  0  0
   39.1830   30.6140   42.1210 C   0  0  0  0  0  0  0  0  0  0  0  0
   39.0630   31.1720   41.2200 H   0  0  0  0  0  0  0  0  0  0  0  0
   40.0030   31.1560   42.9030 O   0  0  0  0  0  0  0  0  0  0  0  0
   36.3980   30.5500   41.0160 S   0  0  0  0  0  0  0  0  0  0  0  0
   36.8620   30.3270   39.6840 H   0  0  0  0  0  0  0  0  0  0  0  0
  1  6  1  0  0  0  0
  2  3  1  0  0  0  0
  2  1  2  0  0  0  0
  3  4  2  0  0  0  0
  4  5  1  0  0  0  0
  5  8  1  0  0  0  0
  6  5  2  0  0  0  0
  7  3  1  0  0  0  0
  9  1  1  0  0  0  0
  9 11  2  0  0  0  0
 10  9  1  0  0  0  0
 12  2  1  0  0  0  0
 13 12  1  0  0  0  0
M  END
>  <minimizedAffinity>
-2.86671305

$$$$

 OpenBabel03252507403D

 13 13  0  0  0  0  0  0  0  0999 V2000
   37.2630   29.2300   42.0220 C   0  0  0  0  0  0  0  0  0  0  0  0
   38.5640   29.2510   42.5320 C   0  0  0  0  0  0  0  0  0  0  0  0
   39.0410   28.1180   43.1830 C   0  0  0  0  0  0  0  0  0  0  0  0
   38.2110   27.0490   43.2880 N   0  0  0  0  0  0  0  0  0  0  0  0
   36.9590   27.0690   42.7810 C   0  0  0  0  0  0  0  0  0  0  0  0
   36.4650   28.1510   42.1430 N   0  0  0  0  0  0  0  0  0  0  0  0
   40.0480   28.1490   43.5710 H   0  0  0  0  0  0  0  0  0  0  0  0
   36.3850   26.1550   42.9250 H   0  0  0  0  0  0  0  0  0  0  0  0
   36.7910   30.4200   41.3500 C   0  0  0  0  0  0  0  0  0  0  0  0
   37.2460   31.3820   41.4180 H   0  0  0  0  0  0  0  0  0  0  0  0
   35.7780   30.4310   40.6080 O   0  0  0  0  0  0  0  0  0  0  0  0
   39.6010   30.7140   42.3490 S   0  0  0  0  0  0  0  0  0  0  0  0
   39.1980   31.5490   43.4340 H   0  0  0  0  0  0  0  0  0  0  0  0
  1  6  2  0  0  0  0
  1  2  1  0  0  0  0
  2  3  2  0  0  0  0
  3  4  1  0  0  0  0
  3  7  1  0  0  0  0
  5  8  1  0  0  0  0
  5  4  2  0  0  0  0
  6  5  1  0  0  0  0
  9 10  1  0  0  0  0
  9  1  1  0  0  0  0
 11  9  2  0  0  0  0
 12  2  1  0  0  0  0
 12 13  1  0  0  0  0
M  END
>  <minimizedAffinity>
-2.85486412

$$$$

 OpenBabel03252507403D

 13 13  0  0  0  0  0  0  0  0999 V2000
   36.4330   28.8730   41.5100 C   0  0  0  0  0  0  0  0  0  0  0  0
   37.3300   29.9430   41.5910 C   0  0  0  0  0  0  0  0  0  0  0  0
   38.3950   29.8520   42.4810 C   0  0  0  0  0  0  0  0  0  0  0  0
   38.5040   28.7220   43.2270 N   0  0  0  0  0  0  0  0  0  0  0  0
   37.6160   27.7100   43.1190 C   0  0  0  0  0  0  0  0  0  0  0  0
   36.5720   27.7660   42.2650 N   0  0  0  0  0  0  0  0  0  0  0  0
   39.0790   30.6850   42.5330 H   0  0  0  0  0  0  0  0  0  0  0  0
   37.8050   26.8560   43.7660 H   0  0  0  0  0  0  0  0  0  0  0  0
   35.3350   28.9940   40.5770 C   0  0  0  0  0  0  0  0  0  0  0  0
   34.4520   29.5670   40.7430 H   0  0  0  0  0  0  0  0  0  0  0  0
   35.3190   28.4180   39.4610 O   0  0  0  0  0  0  0  0  0  0  0  0
   37.1100   31.4080   40.5640 S   0  0  0  0  0  0  0  0  0  0  0  0
   36.1630   32.1890   41.2920 H   0  0  0  0  0  0  0  0  0  0  0  0
  1  2  2  0  0  0  0
  1  6  1  0  0  0  0
  2  3  1  0  0  0  0
  3  7  1  0  0  0  0
  3  4  2  0  0  0  0
  5  4  1  0  0  0  0
  5  8  1  0  0  0  0
  6  5  2  0  0  0  0
  9 10  1  0  0  0  0
  9  1  1  0  0  0  0
 11  9  2  0  0  0  0
 12 13  1  0  0  0  0
 12  2  1  0  0  0  0
M  END
>  <minimizedAffinity>
-2.80114222

$$$$

 OpenBabel03252507403D

 13 13  0  0  0  0  0  0  0  0999 V2000
   37.5050   28.8040   42.2480 C   0  0  0  0  0  0  0  0  0  0  0  0
   36.9730   29.6140   41.2410 C   0  0  0  0  0  0  0  0  0  0  0  0
   37.6420   30.7870   40.9070 C   0  0  0  0  0  0  0  0  0  0  0  0
   38.7820   31.0820   41.5830 N   0  0  0  0  0  0  0  0  0  0  0  0
   39.2640   30.2720   42.5520 C   0  0  0  0  0  0  0  0  0  0  0  0
   38.6400   29.1270   42.8990 N   0  0  0  0  0  0  0  0  0  0  0  0
   37.2200   31.4010   40.1270 H   0  0  0  0  0  0  0  0  0  0  0  0
   40.1840   30.6110   43.0240 H   0  0  0  0  0  0  0  0  0  0  0  0
   36.7900   27.5910   42.5760 C   0  0  0  0  0  0  0  0  0  0  0  0
   36.6790   26.7520   41.9280 H   0  0  0  0  0  0  0  0  0  0  0  0
   36.2190   27.4110   43.6800 O   0  0  0  0  0  0  0  0  0  0  0  0
   35.4520   29.1470   40.3920 S   0  0  0  0  0  0  0  0  0  0  0  0
   34.4240   29.6140   41.2660 H   0  0  0  0  0  0  0  0  0  0  0  0
  1  9  1  0  0  0  0
  1  6  1  0  0  0  0
  2  1  2  0  0  0  0
  3  2  1  0  0  0  0
  3  4  2  0  0  0  0
  4  5  1  0  0  0  0
  5  6  2  0  0  0  0
  5  8  1  0  0  0  0
  7  3  1  0  0  0  0
  9 11  2  0  0  0  0
 10  9  1  0  0  0  0
 12  2  1  0  0  0  0
 12 13  1  0  0  0  0
M  END
>  <minimizedAffinity>
-2.78604198

$$$$

 OpenBabel03252507403D

 13 13  0  0  0  0  0  0  0  0999 V2000
   37.5780   29.7670   41.9610 C   0  0  0  0  0  0  0  0  0  0  0  0
   36.7130   28.6760   41.8370 C   0  0  0  0  0  0  0  0  0  0  0  0
   35.6650   28.7570   40.9250 C   0  0  0  0  0  0  0  0  0  0  0  0
   35.5400   29.9000   40.2020 N   0  0  0  0  0  0  0  0  0  0  0  0
   36.3980   30.9330   40.3520 C   0  0  0  0  0  0  0  0  0  0  0  0
   37.4250   30.8870   41.2260 N   0  0  0  0  0  0  0  0  0  0  0  0
   35.0060   27.9070   40.8400 H   0  0  0  0  0  0  0  0  0  0  0  0
   36.1990   31.7970   39.7190 H   0  0  0  0  0  0  0  0  0  0  0  0
   38.6580   29.6570   42.9150 C   0  0  0  0  0  0  0  0  0  0  0  0
   38.5610   29.2790   43.9080 H   0  0  0  0  0  0  0  0  0  0  0  0
   39.8360   30.0050   42.6580 O   0  0  0  0  0  0  0  0  0  0  0  0
   36.9510   27.1950   42.8370 S   0  0  0  0  0  0  0  0  0  0  0  0
   36.3130   27.5190   44.0730 H   0  0  0  0  0  0  0  0  0  0  0  0
  1  9  1  0  0  0  0
  2  1  1  0  0  0  0
  2 12  1  0  0  0  0
  3  2  2  0  0  0  0
  4  5  2  0  0  0  0
  4  3  1  0  0  0  0
  5  6  1  0  0  0  0
  6  1  2  0  0  0  0
  7  3  1  0  0  0  0
  8  5  1  0  0  0  0
  9 10  1  0  0  0  0
 11  9  2  0  0  0  0
 12 13  1  0  0  0  0
M  END
>  <minimizedAffinity>
-2.77894998

$$$$

 OpenBabel03252507403D

 13 13  0  0  0  0  0  0  0  0999 V2000
   37.9660   29.8280   42.0600 C   0  0  0  0  0  0  0  0  0  0  0  0
   37.4930   28.5370   42.3120 C   0  0  0  0  0  0  0  0  0  0  0  0
   36.2850   28.1480   41.7430 C   0  0  0  0  0  0  0  0  0  0  0  0
   35.6270   29.0500   40.9700 N   0  0  0  0  0  0  0  0  0  0  0  0
   36.1180   30.2900   40.7510 C   0  0  0  0  0  0  0  0  0  0  0  0
   37.2870   30.6990   41.2870 N   0  0  0  0  0  0  0  0  0  0  0  0
   35.9330   27.1470   41.9460 H   0  0  0  0  0  0  0  0  0  0  0  0
   35.5040   30.9260   40.1160 H   0  0  0  0  0  0  0  0  0  0  0  0
   39.2240   30.2070   42.6630 C   0  0  0  0  0  0  0  0  0  0  0  0
   39.7760   29.6100   43.3520 H   0  0  0  0  0  0  0  0  0  0  0  0
   39.7930   31.3010   42.4270 O   0  0  0  0  0  0  0  0  0  0  0  0
   38.4310   27.4000   43.3510 S   0  0  0  0  0  0  0  0  0  0  0  0
   38.0470   27.7640   44.6770 H   0  0  0  0  0  0  0  0  0  0  0  0
  1  2  1  0  0  0  0
  1  9  1  0  0  0  0
  2 12  1  0  0  0  0
  3  7  1  0  0  0  0
  3  2  2  0  0  0  0
  4  3  1  0  0  0  0
  5  4  2  0  0  0  0
  5  6  1  0  0  0  0
  6  1  2  0  0  0  0
  8  5  1  0  0  0  0
  9 10  1  0  0  0  0
 11  9  2  0  0  0  0
 12 13  1  0  0  0  0
M  END
>  <minimizedAffinity>
-2.77546978

$$$$

 OpenBabel03252507403D

 13 13  0  0  0  0  0  0  0  0999 V2000
   37.5350   26.2120   42.4800 C   0  0  0  0  0  0  0  0  0  0  0  0
   38.8570   26.2530   42.9330 C   0  0  0  0  0  0  0  0  0  0  0  0
   39.3900   27.4780   43.3200 C   0  0  0  0  0  0  0  0  0  0  0  0
   38.5920   28.5730   43.2340 N   0  0  0  0  0  0  0  0  0  0  0  0
   37.3180   28.4920   42.7900 C   0  0  0  0  0  0  0  0  0  0  0  0
   36.7700   27.3190   42.4080 N   0  0  0  0  0  0  0  0  0  0  0  0
   40.4110   27.4930   43.6680 H   0  0  0  0  0  0  0  0  0  0  0  0
   36.7740   29.4350   42.7650 H   0  0  0  0  0  0  0  0  0  0  0  0
   37.0050   24.9270   42.0830 C   0  0  0  0  0  0  0  0  0  0  0  0
   36.8480   24.1010   42.7390 H   0  0  0  0  0  0  0  0  0  0  0  0
   36.6760   24.6570   40.9020 O   0  0  0  0  0  0  0  0  0  0  0  0
   39.8480   24.7490   43.0150 S   0  0  0  0  0  0  0  0  0  0  0  0
   40.3430   24.6010   41.6840 H   0  0  0  0  0  0  0  0  0  0  0  0
  1  2  1  0  0  0  0
  2 12  1  0  0  0  0
  2  3  2  0  0  0  0
  3  7  1  0  0  0  0
  4  3  1  0  0  0  0
  5  4  2  0  0  0  0
  6  1  2  0  0  0  0
  6  5  1  0  0  0  0
  8  5  1  0  0  0  0
  9  1  1  0  0  0  0
  9 10  1  0  0  0  0
 11  9  2  0  0  0  0
 13 12  1  0  0  0  0
M  END
>  <minimizedAffinity>
-2.77128935

$$$$

 OpenBabel03252507403D

 13 13  0  0  0  0  0  0  0  0999 V2000
   37.0290   28.9320   41.7960 C   0  0  0  0  0  0  0  0  0  0  0  0
   38.2930   29.5200   41.8950 C   0  0  0  0  0  0  0  0  0  0  0  0
   38.4790   30.7910   41.3600 C   0  0  0  0  0  0  0  0  0  0  0  0
   37.4160   31.3920   40.7660 N   0  0  0  0  0  0  0  0  0  0  0  0
   36.2100   30.7880   40.6890 C   0  0  0  0  0  0  0  0  0  0  0  0
   35.9950   29.5570   41.1990 N   0  0  0  0  0  0  0  0  0  0  0  0
   39.4600   31.2330   41.4460 H   0  0  0  0  0  0  0  0  0  0  0  0
   35.4330   31.3650   40.1910 H   0  0  0  0  0  0  0  0  0  0  0  0
   36.8620   27.6110   42.3590 C   0  0  0  0  0  0  0  0  0  0  0  0
   37.2140   26.7080   41.9160 H   0  0  0  0  0  0  0  0  0  0  0  0
   36.2720   27.4020   43.4480 O   0  0  0  0  0  0  0  0  0  0  0  0
   39.6510   28.6520   42.7020 S   0  0  0  0  0  0  0  0  0  0  0  0
   40.1640   27.8040   41.6740 H   0  0  0  0  0  0  0  0  0  0  0  0
  1  2  1  0  0  0  0
  1  9  1  0  0  0  0
  2 12  1  0  0  0  0
  3  7  1  0  0  0  0
  3  2  2  0  0  0  0
  4  3  1  0  0  0  0
  5  4  2  0  0  0  0
  5  6  1  0  0  0  0
  6  1  2  0  0  0  0
  8  5  1  0  0  0  0
  9 11  2  0  0  0  0
 10  9  1  0  0  0  0
 13 12  1  0  0  0  0
M  END
>  <minimizedAffinity>
-2.7399652

$$$$

 OpenBabel03252507403D

 13 13  0  0  0  0  0  0  0  0999 V2000
   37.2510   29.0670   41.7240 C   0  0  0  0  0  0  0  0  0  0  0  0
   36.9510   27.8700   41.0680 C   0  0  0  0  0  0  0  0  0  0  0  0
   37.1410   26.6720   41.7490 C   0  0  0  0  0  0  0  0  0  0  0  0
   37.6110   26.7330   43.0220 N   0  0  0  0  0  0  0  0  0  0  0  0
   37.8900   27.9120   43.6210 C   0  0  0  0  0  0  0  0  0  0  0  0
   37.7160   29.0920   42.9880 N   0  0  0  0  0  0  0  0  0  0  0  0
   36.9040   25.7560   41.2300 H   0  0  0  0  0  0  0  0  0  0  0  0
   38.2620   27.8380   44.6410 H   0  0  0  0  0  0  0  0  0  0  0  0
   37.0450   30.2970   40.9930 C   0  0  0  0  0  0  0  0  0  0  0  0
   37.6780   30.6610   40.2160 H   0  0  0  0  0  0  0  0  0  0  0  0
   36.0800   31.0700   41.2130 O   0  0  0  0  0  0  0  0  0  0  0  0
   36.3300   27.8790   39.3750 S   0  0  0  0  0  0  0  0  0  0  0  0
   37.5140   27.9770   38.5840 H   0  0  0  0  0  0  0  0  0  0  0  0
  1  6  1  0  0  0  0
  2  1  2  0  0  0  0
  2  3  1  0  0  0  0
  3  4  2  0  0  0  0
  4  5  1  0  0  0  0
  5  8  1  0  0  0  0
  6  5  2  0  0  0  0
  7  3  1  0  0  0  0
  9 11  2  0  0  0  0
  9  1  1  0  0  0  0
 10  9  1  0  0  0  0
 12  2  1  0  0  0  0
 13 12  1  0  0  0  0
M  END
>  <minimizedAffinity>
-2.73474717

$$$$
