
 OpenBabel03252505353D

 24 25  0  0  0  0  0  0  0  0999 V2000
   37.6010   29.3490   41.5280 C   0  0  0  0  0  0  0  0  0  0  0  0
   38.3120   29.2220   42.6910 C   0  0  0  0  0  0  0  0  0  0  0  0
   37.9990   28.2830   43.6790 C   0  0  0  0  0  0  0  0  0  0  0  0
   36.9150   27.4350   43.4740 C   0  0  0  0  0  0  0  0  0  0  0  0
   36.2140   27.5720   42.3090 C   0  0  0  0  0  0  0  0  0  0  0  0
   36.5380   28.5000   41.3540 C   0  0  0  0  0  0  0  0  0  0  0  0
   39.1640   29.8530   42.9040 H   0  0  0  0  0  0  0  0  0  0  0  0
   38.5890   28.2120   44.5920 H   0  0  0  0  0  0  0  0  0  0  0  0
   36.6280   26.6910   44.2030 H   0  0  0  0  0  0  0  0  0  0  0  0
   35.3670   26.9190   42.1370 H   0  0  0  0  0  0  0  0  0  0  0  0
   39.3350   31.2420   38.7790 C   0  0  0  0  0  0  0  0  0  0  0  0
   39.0290   30.1780   39.6630 C   0  0  0  0  0  0  0  0  0  0  0  0
   38.0090   30.3480   40.5780 C   0  0  0  0  0  0  0  0  0  0  0  0
   37.3390   31.5340   40.5880 N   0  0  0  0  0  0  0  0  0  0  0  0
   37.6640   32.5290   39.7240 C   0  0  0  0  0  0  0  0  0  0  0  0
   38.6540   32.3840   38.8260 N   0  0  0  0  0  0  0  0  0  0  0  0
   36.9490   33.7730   39.7490 N   0  0  0  0  0  0  0  0  0  0  0  0
   40.1510   31.0440   38.0830 H   0  0  0  0  0  0  0  0  0  0  0  0
   39.5290   29.2350   39.6870 H   0  0  0  0  0  0  0  0  0  0  0  0
   35.9460   33.9180   40.0140 H   0  0  0  0  0  0  0  0  0  0  0  0
   37.4500   34.6630   39.4760 H   0  0  0  0  0  0  0  0  0  0  0  0
   35.7590   28.6060   40.1280 C   0  0  0  0  0  0  0  0  0  0  0  0
   36.1170   28.1010   39.2170 H   0  0  0  0  0  0  0  0  0  0  0  0
   34.6860   29.2660   40.1100 O   0  0  0  0  0  0  0  0  0  0  0  0
  1  2  1  0  0  0  0
  2  7  1  0  0  0  0
  2  3  2  0  0  0  0
  3  8  1  0  0  0  0
  4  3  1  0  0  0  0
  4  9  1  0  0  0  0
  5  4  2  0  0  0  0
  6  1  2  0  0  0  0
  6  5  1  0  0  0  0
 10  5  1  0  0  0  0
 11 16  2  0  0  0  0
 11 12  1  0  0  0  0
 12 19  1  0  0  0  0
 12 13  2  0  0  0  0
 13 14  1  0  0  0  0
 13  1  1  0  0  0  0
 15 17  1  0  0  0  0
 15 14  2  0  0  0  0
 16 15  1  0  0  0  0
 17 20  1  0  0  0  0
 18 11  1  0  0  0  0
 21 17  1  0  0  0  0
 22  6  1  0  0  0  0
 23 22  1  0  0  0  0
 24 22  2  0  0  0  0
M  END
>  <minimizedAffinity>
-4.80284119

$$$$

 OpenBabel03252505353D

 24 25  0  0  0  0  0  0  0  0999 V2000
   37.6520   29.2030   41.4850 C   0  0  0  0  0  0  0  0  0  0  0  0
   36.5770   28.4190   41.8060 C   0  0  0  0  0  0  0  0  0  0  0  0
   36.5730   27.5330   42.8880 C   0  0  0  0  0  0  0  0  0  0  0  0
   37.7140   27.4420   43.6790 C   0  0  0  0  0  0  0  0  0  0  0  0
   38.7800   28.2310   43.3480 C   0  0  0  0  0  0  0  0  0  0  0  0
   38.7620   29.0910   42.2820 C   0  0  0  0  0  0  0  0  0  0  0  0
   35.6630   28.4480   41.2260 H   0  0  0  0  0  0  0  0  0  0  0  0
   35.6970   26.9260   43.1120 H   0  0  0  0  0  0  0  0  0  0  0  0
   37.7670   26.7760   44.5280 H   0  0  0  0  0  0  0  0  0  0  0  0
   39.6750   28.1690   43.9550 H   0  0  0  0  0  0  0  0  0  0  0  0
   37.5600   30.6340   38.0070 C   0  0  0  0  0  0  0  0  0  0  0  0
   37.6820   29.6700   39.0380 C   0  0  0  0  0  0  0  0  0  0  0  0
   37.5500   30.0800   40.3490 C   0  0  0  0  0  0  0  0  0  0  0  0
   37.3050   31.3970   40.5940 N   0  0  0  0  0  0  0  0  0  0  0  0
   37.1950   32.2900   39.5780 C   0  0  0  0  0  0  0  0  0  0  0  0
   37.3220   31.9100   38.2940 N   0  0  0  0  0  0  0  0  0  0  0  0
   36.9380   33.6740   39.8530 N   0  0  0  0  0  0  0  0  0  0  0  0
   37.6760   30.2450   36.9940 H   0  0  0  0  0  0  0  0  0  0  0  0
   37.8730   28.6300   38.8880 H   0  0  0  0  0  0  0  0  0  0  0  0
   36.3970   34.0660   40.6600 H   0  0  0  0  0  0  0  0  0  0  0  0
   37.3170   34.4110   39.1960 H   0  0  0  0  0  0  0  0  0  0  0  0
   39.9260   29.9100   41.9700 C   0  0  0  0  0  0  0  0  0  0  0  0
   40.6030   29.5960   41.1610 H   0  0  0  0  0  0  0  0  0  0  0  0
   40.1540   30.9660   42.6170 O   0  0  0  0  0  0  0  0  0  0  0  0
  1  2  2  0  0  0  0
  1  6  1  0  0  0  0
  2  3  1  0  0  0  0
  3  8  1  0  0  0  0
  3  4  2  0  0  0  0
  4  9  1  0  0  0  0
  5  4  1  0  0  0  0
  5 10  1  0  0  0  0
  6  5  2  0  0  0  0
  7  2  1  0  0  0  0
 11 16  2  0  0  0  0
 11 12  1  0  0  0  0
 12 13  2  0  0  0  0
 13 14  1  0  0  0  0
 13  1  1  0  0  0  0
 15 17  1  0  0  0  0
 15 14  2  0  0  0  0
 16 15  1  0  0  0  0
 17 20  1  0  0  0  0
 18 11  1  0  0  0  0
 19 12  1  0  0  0  0
 21 17  1  0  0  0  0
 22  6  1  0  0  0  0
 22 24  2  0  0  0  0
 23 22  1  0  0  0  0
M  END
>  <minimizedAffinity>
-4.7976408

$$$$

 OpenBabel03252505353D

 24 25  0  0  0  0  0  0  0  0999 V2000
   37.8910   29.2720   41.7030 C   0  0  0  0  0  0  0  0  0  0  0  0
   37.7720   29.1440   43.0610 C   0  0  0  0  0  0  0  0  0  0  0  0
   37.2730   27.9940   43.6800 C   0  0  0  0  0  0  0  0  0  0  0  0
   36.8780   26.9250   42.8810 C   0  0  0  0  0  0  0  0  0  0  0  0
   37.0020   27.0650   41.5270 C   0  0  0  0  0  0  0  0  0  0  0  0
   37.4930   28.2030   40.9420 C   0  0  0  0  0  0  0  0  0  0  0  0
   38.0640   29.9420   43.7310 H   0  0  0  0  0  0  0  0  0  0  0  0
   37.1940   27.9300   44.7640 H   0  0  0  0  0  0  0  0  0  0  0  0
   36.4850   26.0120   43.3040 H   0  0  0  0  0  0  0  0  0  0  0  0
   36.6980   26.2410   40.8930 H   0  0  0  0  0  0  0  0  0  0  0  0
   40.1550   32.0200   40.4900 C   0  0  0  0  0  0  0  0  0  0  0  0
   39.7640   30.7690   41.0290 C   0  0  0  0  0  0  0  0  0  0  0  0
   38.4170   30.5000   41.1710 C   0  0  0  0  0  0  0  0  0  0  0  0
   37.5230   31.4510   40.7840 N   0  0  0  0  0  0  0  0  0  0  0  0
   37.9380   32.6370   40.2720 C   0  0  0  0  0  0  0  0  0  0  0  0
   39.2450   32.9190   40.1260 N   0  0  0  0  0  0  0  0  0  0  0  0
   36.9820   33.6280   39.8690 N   0  0  0  0  0  0  0  0  0  0  0  0
   41.2330   32.1700   40.4060 H   0  0  0  0  0  0  0  0  0  0  0  0
   40.4320   29.9990   41.3440 H   0  0  0  0  0  0  0  0  0  0  0  0
   36.0190   33.4590   39.4960 H   0  0  0  0  0  0  0  0  0  0  0  0
   37.2380   34.6520   39.9410 H   0  0  0  0  0  0  0  0  0  0  0  0
   37.6060   28.3030   39.4930 C   0  0  0  0  0  0  0  0  0  0  0  0
   38.6050   28.3750   39.0340 H   0  0  0  0  0  0  0  0  0  0  0  0
   36.5730   28.3050   38.7720 O   0  0  0  0  0  0  0  0  0  0  0  0
  1  2  1  0  0  0  0
  2  3  2  0  0  0  0
  2  7  1  0  0  0  0
  3  8  1  0  0  0  0
  4  9  1  0  0  0  0
  4  3  1  0  0  0  0
  5  4  2  0  0  0  0
  6  5  1  0  0  0  0
  6  1  2  0  0  0  0
 10  5  1  0  0  0  0
 11 12  1  0  0  0  0
 12 13  2  0  0  0  0
 12 19  1  0  0  0  0
 13  1  1  0  0  0  0
 14 13  1  0  0  0  0
 15 14  2  0  0  0  0
 16 15  1  0  0  0  0
 16 11  2  0  0  0  0
 17 21  1  0  0  0  0
 17 15  1  0  0  0  0
 18 11  1  0  0  0  0
 20 17  1  0  0  0  0
 22  6  1  0  0  0  0
 23 22  1  0  0  0  0
 24 22  2  0  0  0  0
M  END
>  <minimizedAffinity>
-4.69285917

$$$$

 OpenBabel03252505353D

 24 25  0  0  0  0  0  0  0  0999 V2000
   37.1720   26.6080   40.8360 C   0  0  0  0  0  0  0  0  0  0  0  0
   36.6300   25.9270   39.7800 C   0  0  0  0  0  0  0  0  0  0  0  0
   36.3090   24.5670   39.8320 C   0  0  0  0  0  0  0  0  0  0  0  0
   36.5490   23.8700   41.0110 C   0  0  0  0  0  0  0  0  0  0  0  0
   37.0900   24.5620   42.0590 C   0  0  0  0  0  0  0  0  0  0  0  0
   37.3980   25.8950   41.9850 C   0  0  0  0  0  0  0  0  0  0  0  0
   36.4220   26.4180   38.8380 H   0  0  0  0  0  0  0  0  0  0  0  0
   35.8790   24.0590   38.9690 H   0  0  0  0  0  0  0  0  0  0  0  0
   36.3210   22.8180   41.1080 H   0  0  0  0  0  0  0  0  0  0  0  0
   37.2820   24.0310   42.9830 H   0  0  0  0  0  0  0  0  0  0  0  0
   38.8220   29.9010   40.0720 C   0  0  0  0  0  0  0  0  0  0  0  0
   38.6570   28.4990   40.1810 C   0  0  0  0  0  0  0  0  0  0  0  0
   37.4650   28.0070   40.6750 C   0  0  0  0  0  0  0  0  0  0  0  0
   36.4980   28.8960   41.0350 N   0  0  0  0  0  0  0  0  0  0  0  0
   36.6950   30.2330   40.9140 C   0  0  0  0  0  0  0  0  0  0  0  0
   37.8500   30.7320   40.4360 N   0  0  0  0  0  0  0  0  0  0  0  0
   35.6660   31.1560   41.2990 N   0  0  0  0  0  0  0  0  0  0  0  0
   39.7860   30.2240   39.6760 H   0  0  0  0  0  0  0  0  0  0  0  0
   39.3890   27.7700   39.9110 H   0  0  0  0  0  0  0  0  0  0  0  0
   34.6320   30.9990   41.2580 H   0  0  0  0  0  0  0  0  0  0  0  0
   35.9380   32.1090   41.6680 H   0  0  0  0  0  0  0  0  0  0  0  0
   37.9730   26.5880   43.1300 C   0  0  0  0  0  0  0  0  0  0  0  0
   37.3220   27.2080   43.7660 H   0  0  0  0  0  0  0  0  0  0  0  0
   39.2000   26.4770   43.3920 O   0  0  0  0  0  0  0  0  0  0  0  0
  1  6  1  0  0  0  0
  2  3  1  0  0  0  0
  2  1  2  0  0  0  0
  3  4  2  0  0  0  0
  4  9  1  0  0  0  0
  4  5  1  0  0  0  0
  5 10  1  0  0  0  0
  6  5  2  0  0  0  0
  6 22  1  0  0  0  0
  7  2  1  0  0  0  0
  8  3  1  0  0  0  0
 11 12  2  0  0  0  0
 11 16  1  0  0  0  0
 12 13  1  0  0  0  0
 13  1  1  0  0  0  0
 13 14  2  0  0  0  0
 15 14  1  0  0  0  0
 15 17  1  0  0  0  0
 16 15  2  0  0  0  0
 17 21  1  0  0  0  0
 18 11  1  0  0  0  0
 19 12  1  0  0  0  0
 20 17  1  0  0  0  0
 22 24  2  0  0  0  0
 22 23  1  0  0  0  0
M  END
>  <minimizedAffinity>
-4.61619473

$$$$

 OpenBabel03252505353D

 24 25  0  0  0  0  0  0  0  0999 V2000
   37.1560   26.5840   40.9230 C   0  0  0  0  0  0  0  0  0  0  0  0
   37.2010   25.8090   42.0500 C   0  0  0  0  0  0  0  0  0  0  0  0
   36.8780   24.4490   42.0560 C   0  0  0  0  0  0  0  0  0  0  0  0
   36.4920   23.8500   40.8600 C   0  0  0  0  0  0  0  0  0  0  0  0
   36.4520   24.6340   39.7410 C   0  0  0  0  0  0  0  0  0  0  0  0
   36.7730   25.9670   39.7590 C   0  0  0  0  0  0  0  0  0  0  0  0
   37.4940   26.2210   43.0070 H   0  0  0  0  0  0  0  0  0  0  0  0
   36.9250   23.8650   42.9740 H   0  0  0  0  0  0  0  0  0  0  0  0
   36.2320   22.8030   40.8060 H   0  0  0  0  0  0  0  0  0  0  0  0
   36.1540   24.1810   38.8040 H   0  0  0  0  0  0  0  0  0  0  0  0
   39.0230   29.8420   41.1400 C   0  0  0  0  0  0  0  0  0  0  0  0
   38.8070   28.4470   41.0300 C   0  0  0  0  0  0  0  0  0  0  0  0
   37.5100   27.9740   41.0280 C   0  0  0  0  0  0  0  0  0  0  0  0
   36.4930   28.8740   41.1320 N   0  0  0  0  0  0  0  0  0  0  0  0
   36.7420   30.2040   41.2360 C   0  0  0  0  0  0  0  0  0  0  0  0
   37.9980   30.6840   41.2400 N   0  0  0  0  0  0  0  0  0  0  0  0
   35.6590   31.1380   41.3460 N   0  0  0  0  0  0  0  0  0  0  0  0
   40.0700   30.1500   41.1360 H   0  0  0  0  0  0  0  0  0  0  0  0
   39.5750   27.7100   40.9460 H   0  0  0  0  0  0  0  0  0  0  0  0
   34.7000   31.0420   40.9360 H   0  0  0  0  0  0  0  0  0  0  0  0
   35.8020   32.0350   41.8900 H   0  0  0  0  0  0  0  0  0  0  0  0
   36.7140   26.7600   38.5390 C   0  0  0  0  0  0  0  0  0  0  0  0
   37.6520   27.1120   38.0810 H   0  0  0  0  0  0  0  0  0  0  0  0
   35.6050   27.0390   38.0130 O   0  0  0  0  0  0  0  0  0  0  0  0
  1 13  1  0  0  0  0
  1  2  1  0  0  0  0
  2  3  2  0  0  0  0
  2  7  1  0  0  0  0
  3  8  1  0  0  0  0
  4  3  1  0  0  0  0
  5  6  1  0  0  0  0
  5  4  2  0  0  0  0
  6  1  2  0  0  0  0
  9  4  1  0  0  0  0
 10  5  1  0  0  0  0
 11 16  1  0  0  0  0
 12 11  2  0  0  0  0
 13 12  1  0  0  0  0
 13 14  2  0  0  0  0
 14 15  1  0  0  0  0
 15 16  2  0  0  0  0
 15 17  1  0  0  0  0
 17 21  1  0  0  0  0
 18 11  1  0  0  0  0
 19 12  1  0  0  0  0
 20 17  1  0  0  0  0
 22  6  1  0  0  0  0
 23 22  1  0  0  0  0
 24 22  2  0  0  0  0
M  END
>  <minimizedAffinity>
-4.613729

$$$$

 OpenBabel03252505353D

 24 25  0  0  0  0  0  0  0  0999 V2000
   37.8580   31.1770   40.5400 C   0  0  0  0  0  0  0  0  0  0  0  0
   36.9740   31.9290   39.8140 C   0  0  0  0  0  0  0  0  0  0  0  0
   37.1620   33.2910   39.5550 C   0  0  0  0  0  0  0  0  0  0  0  0
   38.3000   33.9140   40.0570 C   0  0  0  0  0  0  0  0  0  0  0  0
   39.1750   33.1520   40.7790 C   0  0  0  0  0  0  0  0  0  0  0  0
   38.9700   31.8190   41.0210 C   0  0  0  0  0  0  0  0  0  0  0  0
   36.0730   31.4980   39.3990 H   0  0  0  0  0  0  0  0  0  0  0  0
   36.4350   33.8560   38.9730 H   0  0  0  0  0  0  0  0  0  0  0  0
   38.4960   34.9630   39.8880 H   0  0  0  0  0  0  0  0  0  0  0  0
   40.0640   33.6250   41.1760 H   0  0  0  0  0  0  0  0  0  0  0  0
   37.4600   27.4590   40.1330 C   0  0  0  0  0  0  0  0  0  0  0  0
   37.7890   28.7980   39.8060 C   0  0  0  0  0  0  0  0  0  0  0  0
   37.5680   29.7840   40.7470 C   0  0  0  0  0  0  0  0  0  0  0  0
   37.0440   29.4240   41.9510 N   0  0  0  0  0  0  0  0  0  0  0  0
   36.7430   28.1300   42.2250 C   0  0  0  0  0  0  0  0  0  0  0  0
   36.9490   27.1540   41.3220 N   0  0  0  0  0  0  0  0  0  0  0  0
   36.1900   27.7680   43.4990 N   0  0  0  0  0  0  0  0  0  0  0  0
   37.6580   26.7290   39.3460 H   0  0  0  0  0  0  0  0  0  0  0  0
   38.2010   29.1210   38.8750 H   0  0  0  0  0  0  0  0  0  0  0  0
   36.3650   28.2390   44.4180 H   0  0  0  0  0  0  0  0  0  0  0  0
   35.5310   26.9430   43.5620 H   0  0  0  0  0  0  0  0  0  0  0  0
   39.9330   31.0500   41.7980 C   0  0  0  0  0  0  0  0  0  0  0  0
   40.6320   30.3780   41.2750 H   0  0  0  0  0  0  0  0  0  0  0  0
   39.9680   31.1540   43.0530 O   0  0  0  0  0  0  0  0  0  0  0  0
  1 13  1  0  0  0  0
  1  6  1  0  0  0  0
  2  1  2  0  0  0  0
  3  2  1  0  0  0  0
  3  4  2  0  0  0  0
  4  5  1  0  0  0  0
  5  6  2  0  0  0  0
  5 10  1  0  0  0  0
  6 22  1  0  0  0  0
  7  2  1  0  0  0  0
  8  3  1  0  0  0  0
  9  4  1  0  0  0  0
 11 16  1  0  0  0  0
 12 11  2  0  0  0  0
 12 13  1  0  0  0  0
 13 14  2  0  0  0  0
 14 15  1  0  0  0  0
 15 17  1  0  0  0  0
 16 15  2  0  0  0  0
 17 21  1  0  0  0  0
 17 20  1  0  0  0  0
 18 11  1  0  0  0  0
 19 12  1  0  0  0  0
 22 24  2  0  0  0  0
 23 22  1  0  0  0  0
M  END
>  <minimizedAffinity>
-4.43415117

$$$$

 OpenBabel03252505353D

 24 25  0  0  0  0  0  0  0  0999 V2000
   39.2800   27.9010   42.1360 C   0  0  0  0  0  0  0  0  0  0  0  0
   40.4020   28.0910   42.8960 C   0  0  0  0  0  0  0  0  0  0  0  0
   40.9770   27.0810   43.6740 C   0  0  0  0  0  0  0  0  0  0  0  0
   40.3840   25.8220   43.6770 C   0  0  0  0  0  0  0  0  0  0  0  0
   39.2640   25.6460   42.9130 C   0  0  0  0  0  0  0  0  0  0  0  0
   38.7170   26.6510   42.1590 C   0  0  0  0  0  0  0  0  0  0  0  0
   40.9050   29.0480   42.9320 H   0  0  0  0  0  0  0  0  0  0  0  0
   41.8710   27.2700   44.2660 H   0  0  0  0  0  0  0  0  0  0  0  0
   40.7850   25.0050   44.2590 H   0  0  0  0  0  0  0  0  0  0  0  0
   38.7920   24.6710   42.9070 H   0  0  0  0  0  0  0  0  0  0  0  0
   38.8500   30.7140   39.6760 C   0  0  0  0  0  0  0  0  0  0  0  0
   39.4630   29.6310   40.3520 C   0  0  0  0  0  0  0  0  0  0  0  0
   38.7710   29.0090   41.3730 C   0  0  0  0  0  0  0  0  0  0  0  0
   37.5250   29.4660   41.6820 N   0  0  0  0  0  0  0  0  0  0  0  0
   36.9740   30.5070   41.0100 C   0  0  0  0  0  0  0  0  0  0  0  0
   37.6310   31.1270   40.0140 N   0  0  0  0  0  0  0  0  0  0  0  0
   35.6610   30.9760   41.3500 N   0  0  0  0  0  0  0  0  0  0  0  0
   39.4490   31.1620   38.8810 H   0  0  0  0  0  0  0  0  0  0  0  0
   40.4340   29.2430   40.1400 H   0  0  0  0  0  0  0  0  0  0  0  0
   34.8680   30.4080   41.7300 H   0  0  0  0  0  0  0  0  0  0  0  0
   35.4270   31.9990   41.2170 H   0  0  0  0  0  0  0  0  0  0  0  0
   37.5220   26.4130   41.3610 C   0  0  0  0  0  0  0  0  0  0  0  0
   36.5440   26.7440   41.7450 H   0  0  0  0  0  0  0  0  0  0  0  0
   37.6050   25.8360   40.2450 O   0  0  0  0  0  0  0  0  0  0  0  0
  1  6  2  0  0  0  0
  1  2  1  0  0  0  0
  2  7  1  0  0  0  0
  2  3  2  0  0  0  0
  3  4  1  0  0  0  0
  3  8  1  0  0  0  0
  4  9  1  0  0  0  0
  5  4  2  0  0  0  0
  6  5  1  0  0  0  0
 10  5  1  0  0  0  0
 11 16  2  0  0  0  0
 11 12  1  0  0  0  0
 12 13  2  0  0  0  0
 13 14  1  0  0  0  0
 13  1  1  0  0  0  0
 15 17  1  0  0  0  0
 15 14  2  0  0  0  0
 16 15  1  0  0  0  0
 17 20  1  0  0  0  0
 18 11  1  0  0  0  0
 19 12  1  0  0  0  0
 21 17  1  0  0  0  0
 22 23  1  0  0  0  0
 22  6  1  0  0  0  0
 24 22  2  0  0  0  0
M  END
>  <minimizedAffinity>
-4.40640354

$$$$

 OpenBabel03252505353D

 24 25  0  0  0  0  0  0  0  0999 V2000
   36.7130   26.9060   40.2690 C   0  0  0  0  0  0  0  0  0  0  0  0
   36.6840   25.5830   39.9160 C   0  0  0  0  0  0  0  0  0  0  0  0
   36.8310   24.5430   40.8390 C   0  0  0  0  0  0  0  0  0  0  0  0
   37.0150   24.8630   42.1810 C   0  0  0  0  0  0  0  0  0  0  0  0
   37.0410   26.1870   42.5200 C   0  0  0  0  0  0  0  0  0  0  0  0
   36.8960   27.1910   41.5980 C   0  0  0  0  0  0  0  0  0  0  0  0
   36.5440   25.2760   38.8880 H   0  0  0  0  0  0  0  0  0  0  0  0
   36.8030   23.5020   40.5200 H   0  0  0  0  0  0  0  0  0  0  0  0
   37.1340   24.1010   42.9370 H   0  0  0  0  0  0  0  0  0  0  0  0
   37.1840   26.4500   43.5600 H   0  0  0  0  0  0  0  0  0  0  0  0
   35.3050   29.3520   37.7820 C   0  0  0  0  0  0  0  0  0  0  0  0
   35.3300   28.3740   38.8070 C   0  0  0  0  0  0  0  0  0  0  0  0
   36.5510   27.8960   39.2390 C   0  0  0  0  0  0  0  0  0  0  0  0
   37.6810   28.3890   38.6580 N   0  0  0  0  0  0  0  0  0  0  0  0
   37.6140   29.3250   37.6780 C   0  0  0  0  0  0  0  0  0  0  0  0
   36.4350   29.8030   37.2440 N   0  0  0  0  0  0  0  0  0  0  0  0
   38.8140   29.8320   37.0770 N   0  0  0  0  0  0  0  0  0  0  0  0
   34.3100   29.6870   37.4870 H   0  0  0  0  0  0  0  0  0  0  0  0
   34.4690   27.9640   39.2870 H   0  0  0  0  0  0  0  0  0  0  0  0
   39.7510   29.9380   37.5330 H   0  0  0  0  0  0  0  0  0  0  0  0
   38.7940   30.1450   36.0670 H   0  0  0  0  0  0  0  0  0  0  0  0
   36.9310   28.5870   42.0090 C   0  0  0  0  0  0  0  0  0  0  0  0
   36.2890   29.3170   41.4920 H   0  0  0  0  0  0  0  0  0  0  0  0
   37.6870   28.9560   42.9470 O   0  0  0  0  0  0  0  0  0  0  0  0
  1  6  1  0  0  0  0
  2  1  2  0  0  0  0
  2  3  1  0  0  0  0
  3  4  2  0  0  0  0
  4  5  1  0  0  0  0
  4  9  1  0  0  0  0
  5 10  1  0  0  0  0
  6 22  1  0  0  0  0
  6  5  2  0  0  0  0
  7  2  1  0  0  0  0
  8  3  1  0  0  0  0
 11 12  1  0  0  0  0
 12 13  2  0  0  0  0
 12 19  1  0  0  0  0
 13  1  1  0  0  0  0
 14 13  1  0  0  0  0
 15 14  2  0  0  0  0
 16 15  1  0  0  0  0
 16 11  2  0  0  0  0
 17 20  1  0  0  0  0
 17 15  1  0  0  0  0
 18 11  1  0  0  0  0
 21 17  1  0  0  0  0
 22 24  2  0  0  0  0
 23 22  1  0  0  0  0
M  END
>  <minimizedAffinity>
-4.31351662

$$$$

 OpenBabel03252505353D

 24 25  0  0  0  0  0  0  0  0999 V2000
   36.4720   28.2930   40.4250 C   0  0  0  0  0  0  0  0  0  0  0  0
   36.7580   26.9910   40.7380 C   0  0  0  0  0  0  0  0  0  0  0  0
   37.2140   26.5910   41.9980 C   0  0  0  0  0  0  0  0  0  0  0  0
   37.3850   27.5580   42.9840 C   0  0  0  0  0  0  0  0  0  0  0  0
   37.0950   28.8540   42.6590 C   0  0  0  0  0  0  0  0  0  0  0  0
   36.6500   29.2240   41.4160 C   0  0  0  0  0  0  0  0  0  0  0  0
   36.6430   26.1970   40.0120 H   0  0  0  0  0  0  0  0  0  0  0  0
   37.4320   25.5450   42.2090 H   0  0  0  0  0  0  0  0  0  0  0  0
   37.7350   27.3060   43.9740 H   0  0  0  0  0  0  0  0  0  0  0  0
   37.2240   29.6170   43.4160 H   0  0  0  0  0  0  0  0  0  0  0  0
   34.3510   29.0210   37.4050 C   0  0  0  0  0  0  0  0  0  0  0  0
   34.6780   28.7200   38.7500 C   0  0  0  0  0  0  0  0  0  0  0  0
   36.0080   28.5950   39.0980 C   0  0  0  0  0  0  0  0  0  0  0  0
   36.9490   28.7690   38.1290 N   0  0  0  0  0  0  0  0  0  0  0  0
   36.5950   29.0570   36.8510 C   0  0  0  0  0  0  0  0  0  0  0  0
   35.3040   29.1820   36.4920 N   0  0  0  0  0  0  0  0  0  0  0  0
   37.5990   29.2360   35.8420 N   0  0  0  0  0  0  0  0  0  0  0  0
   33.2830   29.1050   37.1970 H   0  0  0  0  0  0  0  0  0  0  0  0
   33.9720   28.5770   39.5380 H   0  0  0  0  0  0  0  0  0  0  0  0
   38.5680   29.6080   35.9780 H   0  0  0  0  0  0  0  0  0  0  0  0
   37.3780   28.9770   34.8410 H   0  0  0  0  0  0  0  0  0  0  0  0
   36.3550   30.6190   41.1200 C   0  0  0  0  0  0  0  0  0  0  0  0
   35.3120   30.9700   41.1680 H   0  0  0  0  0  0  0  0  0  0  0  0
   37.2810   31.4150   40.8130 O   0  0  0  0  0  0  0  0  0  0  0  0
  1  2  2  0  0  0  0
  1  6  1  0  0  0  0
  2  3  1  0  0  0  0
  3  8  1  0  0  0  0
  3  4  2  0  0  0  0
  4  9  1  0  0  0  0
  5  4  1  0  0  0  0
  5 10  1  0  0  0  0
  6  5  2  0  0  0  0
  7  2  1  0  0  0  0
 11 12  1  0  0  0  0
 12 13  2  0  0  0  0
 12 19  1  0  0  0  0
 13  1  1  0  0  0  0
 14 13  1  0  0  0  0
 15 14  2  0  0  0  0
 16 15  1  0  0  0  0
 16 11  2  0  0  0  0
 17 20  1  0  0  0  0
 17 15  1  0  0  0  0
 18 11  1  0  0  0  0
 21 17  1  0  0  0  0
 22 23  1  0  0  0  0
 22  6  1  0  0  0  0
 24 22  2  0  0  0  0
M  END
>  <minimizedAffinity>
-4.26088381

$$$$
