
 OpenBabel03252509183D

 35 37  0  0  1  0  0  0  0  0999 V2000
   47.5770   29.9970   48.2470 C   0  0  1  0  0  0  0  0  0  0  0  0
   47.4720   28.8060   47.3600 C   0  0  0  0  0  0  0  0  0  0  0  0
   48.7460   28.0420   47.1770 C   0  0  0  0  0  0  0  0  0  0  0  0
   49.5170   27.8610   48.4640 C   0  0  0  0  0  0  0  0  0  0  0  0
   49.5870   29.1260   49.2840 C   0  0  0  0  0  0  0  0  0  0  0  0
   49.0810   30.3070   48.4450 C   0  0  2  0  0  0  0  0  0  0  0  0
   47.2260   29.7440   49.2560 H   0  0  0  0  0  0  0  0  0  0  0  0
   47.1660   29.1510   46.3340 H   0  0  0  0  0  0  0  0  0  0  0  0
   46.6850   28.0720   47.6640 H   0  0  0  0  0  0  0  0  0  0  0  0
   49.4150   28.6290   46.4980 H   0  0  0  0  0  0  0  0  0  0  0  0
   48.5500   27.0530   46.7660 H   0  0  0  0  0  0  0  0  0  0  0  0
   50.5220   27.5010   48.1650 H   0  0  0  0  0  0  0  0  0  0  0  0
   49.0660   27.0750   49.0740 H   0  0  0  0  0  0  0  0  0  0  0  0
   48.9110   29.0690   50.1510 H   0  0  0  0  0  0  0  0  0  0  0  0
   50.6250   29.3700   49.5640 H   0  0  0  0  0  0  0  0  0  0  0  0
   49.6090   30.4020   47.4960 H   0  0  0  0  0  0  0  0  0  0  0  0
   45.9200   33.1630   46.2310 C   0  0  0  0  0  0  0  0  0  0  0  0
   45.3250   32.9580   47.4860 C   0  0  0  0  0  0  0  0  0  0  0  0
   45.7930   31.9450   48.2400 C   0  0  0  0  0  0  0  0  0  0  0  0
   46.8420   31.1310   47.7710 C   0  0  0  0  0  0  0  0  0  0  0  0
   47.2000   31.8520   46.1330 S   0  0  0  0  0  0  0  0  0  0  0  0
   44.5210   33.5810   47.8450 H   0  0  0  0  0  0  0  0  0  0  0  0
   45.4700   31.6330   49.2210 H   0  0  0  0  0  0  0  0  0  0  0  0
   44.4160   36.1130   44.5330 C   0  0  0  0  0  0  0  0  0  0  0  0
   45.0390   36.0200   43.2780 C   0  0  0  0  0  0  0  0  0  0  0  0
   45.9440   34.9600   43.0650 C   0  0  0  0  0  0  0  0  0  0  0  0
   46.1610   34.0840   44.0940 N   0  0  0  0  0  0  0  0  0  0  0  0
   45.5300   34.2210   45.2840 C   0  0  0  0  0  0  0  0  0  0  0  0
   44.6570   35.2370   45.5030 N   0  0  0  0  0  0  0  0  0  0  0  0
   43.7270   36.9170   44.7040 H   0  0  0  0  0  0  0  0  0  0  0  0
   44.8360   36.7330   42.5080 H   0  0  0  0  0  0  0  0  0  0  0  0
   46.4450   34.8430   42.1300 H   0  0  0  0  0  0  0  0  0  0  0  0
   49.1610   31.5310   49.2920 C   0  0  0  0  0  0  0  0  0  0  0  0
   48.2070   32.0170   49.5210 H   0  0  0  0  0  0  0  0  0  0  0  0
   50.2140   31.9920   49.7240 O   0  0  0  0  0  0  0  0  0  0  0  0
  1  6  1  0  0  0  0
  1  7  1  1  0  0  0
  2  9  1  0  0  0  0
  2  1  1  0  0  0  0
  3  2  1  0  0  0  0
  3  4  1  0  0  0  0
  4 13  1  0  0  0  0
  4  5  1  0  0  0  0
  5 15  1  0  0  0  0
  5 14  1  0  0  0  0
  6 16  1  6  0  0  0
  6  5  1  0  0  0  0
  6 33  1  0  0  0  0
  8  2  1  0  0  0  0
 10  3  1  0  0  0  0
 11  3  1  0  0  0  0
 12  4  1  0  0  0  0
 17 18  2  0  0  0  0
 18 22  1  0  0  0  0
 18 19  1  0  0  0  0
 19 23  1  0  0  0  0
 20 19  2  0  0  0  0
 20  1  1  0  0  0  0
 21 17  1  0  0  0  0
 21 20  1  0  0  0  0
 24 30  1  0  0  0  0
 24 29  1  0  0  0  0
 25 24  2  0  0  0  0
 26 25  1  0  0  0  0
 26 27  2  0  0  0  0
 27 28  1  0  0  0  0
 28 29  2  0  0  0  0
 28 17  1  0  0  0  0
 31 25  1  0  0  0  0
 32 26  1  0  0  0  0
 33 34  1  0  0  0  0
 33 35  2  0  0  0  0
M  END
>  <minimizedAffinity>
-4.96607876

>  <minimizedRMSD>
1.13691092

$$$$
