
 OpenBabel03252501263D

 29 31  0  0  0  0  0  0  0  0999 V2000
   40.1590   33.0970   39.6940 C   0  0  0  0  0  0  0  0  0  0  0  0
   39.1660   33.9980   40.0310 C   0  0  0  0  0  0  0  0  0  0  0  0
   38.0660   33.3380   40.4570 C   0  0  0  0  0  0  0  0  0  0  0  0
   38.3740   32.0300   40.3850 N   0  0  0  0  0  0  0  0  0  0  0  0
   39.6300   31.8920   39.9270 N   0  0  0  0  0  0  0  0  0  0  0  0
   39.3090   35.0850   39.9440 H   0  0  0  0  0  0  0  0  0  0  0  0
   37.1230   33.7560   40.7920 H   0  0  0  0  0  0  0  0  0  0  0  0
   38.8600   30.3220   42.5820 F   0  0  0  0  0  0  0  0  0  0  0  0
   37.8160   30.0830   41.7830 C   0  0  0  0  0  0  0  0  0  0  0  0
   37.5800   30.9150   40.7130 C   0  0  0  0  0  0  0  0  0  0  0  0
   36.4970   30.6820   39.8660 C   0  0  0  0  0  0  0  0  0  0  0  0
   35.6340   29.6310   40.0600 C   0  0  0  0  0  0  0  0  0  0  0  0
   35.8920   28.8110   41.1390 C   0  0  0  0  0  0  0  0  0  0  0  0
   36.9570   29.0240   41.9870 C   0  0  0  0  0  0  0  0  0  0  0  0
   36.2900   31.3300   39.0110 H   0  0  0  0  0  0  0  0  0  0  0  0
   34.7850   29.4210   39.4230 H   0  0  0  0  0  0  0  0  0  0  0  0
   35.2190   27.9780   41.3040 H   0  0  0  0  0  0  0  0  0  0  0  0
   37.1520   28.1060   43.1030 C   0  0  0  0  0  0  0  0  0  0  0  0
   38.0290   28.0500   43.7010 H   0  0  0  0  0  0  0  0  0  0  0  0
   36.2600   27.2870   43.4470 O   0  0  0  0  0  0  0  0  0  0  0  0
   42.8480   34.0980   37.4320 C   0  0  0  0  0  0  0  0  0  0  0  0
   43.9800   34.0550   38.2730 C   0  0  0  0  0  0  0  0  0  0  0  0
   43.8120   33.6840   39.6090 C   0  0  0  0  0  0  0  0  0  0  0  0
   42.5460   33.3890   39.9910 N   0  0  0  0  0  0  0  0  0  0  0  0
   41.4780   33.4290   39.1970 C   0  0  0  0  0  0  0  0  0  0  0  0
   41.6250   33.7860   37.9060 N   0  0  0  0  0  0  0  0  0  0  0  0
   43.0620   34.3930   36.4180 H   0  0  0  0  0  0  0  0  0  0  0  0
   44.9800   34.3000   37.9250 H   0  0  0  0  0  0  0  0  0  0  0  0
   44.6400   33.6290   40.3170 H   0  0  0  0  0  0  0  0  0  0  0  0
  1  5  2  0  0  0  0
  1  2  1  0  0  0  0
  2  3  2  0  0  0  0
  3  7  1  0  0  0  0
  4  3  1  0  0  0  0
  4 10  1  0  0  0  0
  5  4  1  0  0  0  0
  6  2  1  0  0  0  0
  9 14  1  0  0  0  0
  9  8  1  0  0  0  0
 10  9  2  0  0  0  0
 11 12  2  0  0  0  0
 11 10  1  0  0  0  0
 12 13  1  0  0  0  0
 13 17  1  0  0  0  0
 13 14  2  0  0  0  0
 14 18  1  0  0  0  0
 15 11  1  0  0  0  0
 16 12  1  0  0  0  0
 18 20  2  0  0  0  0
 18 19  1  0  0  0  0
 21 26  2  0  0  0  0
 21 22  1  0  0  0  0
 22 23  2  0  0  0  0
 23 24  1  0  0  0  0
 23 29  1  0  0  0  0
 25  1  1  0  0  0  0
 25 24  2  0  0  0  0
 26 25  1  0  0  0  0
 27 21  1  0  0  0  0
 28 22  1  0  0  0  0
M  END
>  <minimizedAffinity>
-5.23730564

$$$$

 OpenBabel03252501263D

 29 31  0  0  0  0  0  0  0  0999 V2000
   38.8700   31.6180   39.8100 C   0  0  0  0  0  0  0  0  0  0  0  0
   37.5900   32.0830   40.0560 C   0  0  0  0  0  0  0  0  0  0  0  0
   36.8790   31.1490   40.7270 C   0  0  0  0  0  0  0  0  0  0  0  0
   37.7140   30.1070   40.8970 N   0  0  0  0  0  0  0  0  0  0  0  0
   38.9060   30.3940   40.3450 N   0  0  0  0  0  0  0  0  0  0  0  0
   37.2570   33.0780   39.7290 H   0  0  0  0  0  0  0  0  0  0  0  0
   35.8510   31.2080   41.0650 H   0  0  0  0  0  0  0  0  0  0  0  0
   37.4590   27.6400   39.5440 F   0  0  0  0  0  0  0  0  0  0  0  0
   37.3480   27.6730   40.8760 C   0  0  0  0  0  0  0  0  0  0  0  0
   37.4720   28.8750   41.5340 C   0  0  0  0  0  0  0  0  0  0  0  0
   37.3600   28.9320   42.9230 C   0  0  0  0  0  0  0  0  0  0  0  0
   37.1240   27.8100   43.6800 C   0  0  0  0  0  0  0  0  0  0  0  0
   37.0030   26.6170   42.9970 C   0  0  0  0  0  0  0  0  0  0  0  0
   37.1110   26.5400   41.6250 C   0  0  0  0  0  0  0  0  0  0  0  0
   37.4550   29.8740   43.4660 H   0  0  0  0  0  0  0  0  0  0  0  0
   37.0310   27.8170   44.7580 H   0  0  0  0  0  0  0  0  0  0  0  0
   36.8170   25.7240   43.5810 H   0  0  0  0  0  0  0  0  0  0  0  0
   36.9700   25.2370   40.9880 C   0  0  0  0  0  0  0  0  0  0  0  0
   37.0600   25.0540   39.9450 H   0  0  0  0  0  0  0  0  0  0  0  0
   36.7240   24.1990   41.6570 O   0  0  0  0  0  0  0  0  0  0  0  0
   41.3670   34.1610   39.0070 C   0  0  0  0  0  0  0  0  0  0  0  0
   41.9030   33.6830   37.7910 C   0  0  0  0  0  0  0  0  0  0  0  0
   41.4030   32.4930   37.2580 C   0  0  0  0  0  0  0  0  0  0  0  0
   40.4240   31.8860   37.9700 N   0  0  0  0  0  0  0  0  0  0  0  0
   39.9180   32.3360   39.1160 C   0  0  0  0  0  0  0  0  0  0  0  0
   40.3910   33.4830   39.6430 N   0  0  0  0  0  0  0  0  0  0  0  0
   41.8060   35.0830   39.3500 H   0  0  0  0  0  0  0  0  0  0  0  0
   42.6890   34.2030   37.2520 H   0  0  0  0  0  0  0  0  0  0  0  0
   41.7680   32.0640   36.3240 H   0  0  0  0  0  0  0  0  0  0  0  0
  1  2  1  0  0  0  0
  1  5  2  0  0  0  0
  2  3  2  0  0  0  0
  3  4  1  0  0  0  0
  3  7  1  0  0  0  0
  4 10  1  0  0  0  0
  5  4  1  0  0  0  0
  6  2  1  0  0  0  0
  8  9  1  0  0  0  0
  9 10  2  0  0  0  0
  9 14  1  0  0  0  0
 10 11  1  0  0  0  0
 11 15  1  0  0  0  0
 11 12  2  0  0  0  0
 12 16  1  0  0  0  0
 13 17  1  0  0  0  0
 13 12  1  0  0  0  0
 14 13  2  0  0  0  0
 18 14  1  0  0  0  0
 18 20  2  0  0  0  0
 19 18  1  0  0  0  0
 21 27  1  0  0  0  0
 21 26  1  0  0  0  0
 22 21  2  0  0  0  0
 23 22  1  0  0  0  0
 23 24  2  0  0  0  0
 24 25  1  0  0  0  0
 25 26  2  0  0  0  0
 25  1  1  0  0  0  0
 28 22  1  0  0  0  0
 29 23  1  0  0  0  0
M  END
>  <minimizedAffinity>
-5.22038984

$$$$

 OpenBabel03252501263D

 29 31  0  0  0  0  0  0  0  0999 V2000
   37.5470   30.4170   40.8490 C   0  0  0  0  0  0  0  0  0  0  0  0
   36.1960   30.1930   41.0410 C   0  0  0  0  0  0  0  0  0  0  0  0
   35.9660   28.8720   41.2180 C   0  0  0  0  0  0  0  0  0  0  0  0
   37.1700   28.2780   41.1360 N   0  0  0  0  0  0  0  0  0  0  0  0
   38.1140   29.2090   40.9150 N   0  0  0  0  0  0  0  0  0  0  0  0
   35.4620   31.0110   41.0400 H   0  0  0  0  0  0  0  0  0  0  0  0
   35.0180   28.3770   41.3900 H   0  0  0  0  0  0  0  0  0  0  0  0
   39.0160   27.2280   42.9990 F   0  0  0  0  0  0  0  0  0  0  0  0
   38.3910   26.3990   42.1560 C   0  0  0  0  0  0  0  0  0  0  0  0
   37.4920   26.9120   41.2490 C   0  0  0  0  0  0  0  0  0  0  0  0
   36.8290   26.0650   40.3610 C   0  0  0  0  0  0  0  0  0  0  0  0
   37.0420   24.7080   40.3540 C   0  0  0  0  0  0  0  0  0  0  0  0
   37.9470   24.2190   41.2720 C   0  0  0  0  0  0  0  0  0  0  0  0
   38.6120   25.0390   42.1580 C   0  0  0  0  0  0  0  0  0  0  0  0
   36.1120   26.4500   39.6320 H   0  0  0  0  0  0  0  0  0  0  0  0
   36.5450   24.0230   39.6790 H   0  0  0  0  0  0  0  0  0  0  0  0
   38.1250   23.1500   41.2780 H   0  0  0  0  0  0  0  0  0  0  0  0
   39.5520   24.4340   43.0950 C   0  0  0  0  0  0  0  0  0  0  0  0
   39.2880   23.7660   43.8780 H   0  0  0  0  0  0  0  0  0  0  0  0
   40.7870   24.6720   43.0360 O   0  0  0  0  0  0  0  0  0  0  0  0
   37.9960   33.9380   39.9840 C   0  0  0  0  0  0  0  0  0  0  0  0
   39.3750   34.1310   40.2140 C   0  0  0  0  0  0  0  0  0  0  0  0
   40.1400   33.0520   40.6640 C   0  0  0  0  0  0  0  0  0  0  0  0
   39.4750   31.8850   40.8450 N   0  0  0  0  0  0  0  0  0  0  0  0
   38.1740   31.7030   40.6280 C   0  0  0  0  0  0  0  0  0  0  0  0
   37.4240   32.7350   40.1940 N   0  0  0  0  0  0  0  0  0  0  0  0
   37.4790   34.8180   39.6380 H   0  0  0  0  0  0  0  0  0  0  0  0
   39.8690   35.0850   40.0550 H   0  0  0  0  0  0  0  0  0  0  0  0
   41.2090   33.1260   40.8630 H   0  0  0  0  0  0  0  0  0  0  0  0
  1  5  2  0  0  0  0
  1  2  1  0  0  0  0
  2  3  2  0  0  0  0
  3  7  1  0  0  0  0
  4  3  1  0  0  0  0
  4 10  1  0  0  0  0
  5  4  1  0  0  0  0
  6  2  1  0  0  0  0
  9 14  1  0  0  0  0
  9  8  1  0  0  0  0
 10  9  2  0  0  0  0
 11 10  1  0  0  0  0
 12 11  2  0  0  0  0
 12 13  1  0  0  0  0
 13 17  1  0  0  0  0
 13 14  2  0  0  0  0
 14 18  1  0  0  0  0
 15 11  1  0  0  0  0
 16 12  1  0  0  0  0
 18 19  1  0  0  0  0
 20 18  2  0  0  0  0
 21 26  2  0  0  0  0
 21 22  1  0  0  0  0
 22 23  2  0  0  0  0
 23 24  1  0  0  0  0
 23 29  1  0  0  0  0
 25 24  2  0  0  0  0
 25  1  1  0  0  0  0
 26 25  1  0  0  0  0
 27 21  1  0  0  0  0
 28 22  1  0  0  0  0
M  END
>  <minimizedAffinity>
-5.14732218

$$$$

 OpenBabel03252501263D

 29 31  0  0  0  0  0  0  0  0999 V2000
   37.7860   27.9900   41.7180 C   0  0  0  0  0  0  0  0  0  0  0  0
   38.2390   28.4150   42.9550 C   0  0  0  0  0  0  0  0  0  0  0  0
   38.5560   29.7280   42.9060 C   0  0  0  0  0  0  0  0  0  0  0  0
   38.3020   30.1180   41.6440 N   0  0  0  0  0  0  0  0  0  0  0  0
   37.8410   29.0730   40.9370 N   0  0  0  0  0  0  0  0  0  0  0  0
   38.3080   27.7350   43.8160 H   0  0  0  0  0  0  0  0  0  0  0  0
   38.9370   30.3530   43.7060 H   0  0  0  0  0  0  0  0  0  0  0  0
   40.7090   31.5960   41.6830 F   0  0  0  0  0  0  0  0  0  0  0  0
   39.6330   32.1110   41.0810 C   0  0  0  0  0  0  0  0  0  0  0  0
   38.4610   31.3910   41.0630 C   0  0  0  0  0  0  0  0  0  0  0  0
   37.3260   31.9100   40.4410 C   0  0  0  0  0  0  0  0  0  0  0  0
   37.3290   33.1410   39.8310 C   0  0  0  0  0  0  0  0  0  0  0  0
   38.5160   33.8440   39.8630 C   0  0  0  0  0  0  0  0  0  0  0  0
   39.6480   33.3480   40.4730 C   0  0  0  0  0  0  0  0  0  0  0  0
   36.3850   31.3570   40.4130 H   0  0  0  0  0  0  0  0  0  0  0  0
   36.4680   33.5740   39.3390 H   0  0  0  0  0  0  0  0  0  0  0  0
   38.5340   34.8170   39.3860 H   0  0  0  0  0  0  0  0  0  0  0  0
   40.8590   34.1600   40.4580 C   0  0  0  0  0  0  0  0  0  0  0  0
   40.9870   35.0750   40.9840 H   0  0  0  0  0  0  0  0  0  0  0  0
   41.8740   33.8180   39.7970 O   0  0  0  0  0  0  0  0  0  0  0  0
   36.5130   25.1460   39.8110 C   0  0  0  0  0  0  0  0  0  0  0  0
   36.5420   24.1070   40.7650 C   0  0  0  0  0  0  0  0  0  0  0  0
   36.9990   24.3900   42.0550 C   0  0  0  0  0  0  0  0  0  0  0  0
   37.3830   25.6690   42.2830 N   0  0  0  0  0  0  0  0  0  0  0  0
   37.3540   26.6500   41.3830 C   0  0  0  0  0  0  0  0  0  0  0  0
   36.9170   26.3910   40.1350 N   0  0  0  0  0  0  0  0  0  0  0  0
   36.1480   24.8460   38.8420 H   0  0  0  0  0  0  0  0  0  0  0  0
   36.2250   23.0930   40.5390 H   0  0  0  0  0  0  0  0  0  0  0  0
   37.0500   23.6380   42.8430 H   0  0  0  0  0  0  0  0  0  0  0  0
  1  2  1  0  0  0  0
  2  6  1  0  0  0  0
  3  2  2  0  0  0  0
  3  7  1  0  0  0  0
  4  3  1  0  0  0  0
  5  4  1  0  0  0  0
  5  1  2  0  0  0  0
  9  8  1  0  0  0  0
 10  9  1  0  0  0  0
 10  4  1  0  0  0  0
 11 10  2  0  0  0  0
 12 13  2  0  0  0  0
 12 11  1  0  0  0  0
 13 14  1  0  0  0  0
 14  9  2  0  0  0  0
 15 11  1  0  0  0  0
 16 12  1  0  0  0  0
 17 13  1  0  0  0  0
 18 14  1  0  0  0  0
 18 19  1  0  0  0  0
 20 18  2  0  0  0  0
 21 26  2  0  0  0  0
 21 22  1  0  0  0  0
 22 23  2  0  0  0  0
 23 24  1  0  0  0  0
 23 29  1  0  0  0  0
 25  1  1  0  0  0  0
 25 24  2  0  0  0  0
 26 25  1  0  0  0  0
 27 21  1  0  0  0  0
 28 22  1  0  0  0  0
M  END
>  <minimizedAffinity>
-5.1440196

$$$$

 OpenBabel03252501263D

 29 31  0  0  0  0  0  0  0  0999 V2000
   37.9780   30.3440   41.2640 C   0  0  0  0  0  0  0  0  0  0  0  0
   36.6700   29.9600   41.5000 C   0  0  0  0  0  0  0  0  0  0  0  0
   36.6290   28.6600   41.8720 C   0  0  0  0  0  0  0  0  0  0  0  0
   37.9070   28.2380   41.8650 N   0  0  0  0  0  0  0  0  0  0  0  0
   38.7110   29.2520   41.5000 N   0  0  0  0  0  0  0  0  0  0  0  0
   35.8270   30.6560   41.3870 H   0  0  0  0  0  0  0  0  0  0  0  0
   35.7590   28.0650   42.1250 H   0  0  0  0  0  0  0  0  0  0  0  0
   37.2620   25.8790   40.4530 F   0  0  0  0  0  0  0  0  0  0  0  0
   38.1060   25.8140   41.4870 C   0  0  0  0  0  0  0  0  0  0  0  0
   38.4190   26.9640   42.1750 C   0  0  0  0  0  0  0  0  0  0  0  0
   39.2970   26.9190   43.2580 C   0  0  0  0  0  0  0  0  0  0  0  0
   39.8750   25.7460   43.6770 C   0  0  0  0  0  0  0  0  0  0  0  0
   39.5450   24.6070   42.9720 C   0  0  0  0  0  0  0  0  0  0  0  0
   38.6800   24.6310   41.8990 C   0  0  0  0  0  0  0  0  0  0  0  0
   39.5600   27.8180   43.8180 H   0  0  0  0  0  0  0  0  0  0  0  0
   40.5590   25.6740   44.5120 H   0  0  0  0  0  0  0  0  0  0  0  0
   39.9940   23.6740   43.2910 H   0  0  0  0  0  0  0  0  0  0  0  0
   38.3890   23.3780   41.2120 C   0  0  0  0  0  0  0  0  0  0  0  0
   37.7700   22.6020   41.5930 H   0  0  0  0  0  0  0  0  0  0  0  0
   38.8670   23.1220   40.0760 O   0  0  0  0  0  0  0  0  0  0  0  0
   40.1380   33.2140   40.5950 C   0  0  0  0  0  0  0  0  0  0  0  0
   39.2320   34.1530   40.0580 C   0  0  0  0  0  0  0  0  0  0  0  0
   37.8890   33.7950   39.9300 C   0  0  0  0  0  0  0  0  0  0  0  0
   37.5630   32.5460   40.3420 N   0  0  0  0  0  0  0  0  0  0  0  0
   38.4170   31.6590   40.8490 C   0  0  0  0  0  0  0  0  0  0  0  0
   39.7170   31.9910   40.9770 N   0  0  0  0  0  0  0  0  0  0  0  0
   41.1540   33.5670   40.6600 H   0  0  0  0  0  0  0  0  0  0  0  0
   39.5370   35.1460   39.7390 H   0  0  0  0  0  0  0  0  0  0  0  0
   37.1330   34.4680   39.5240 H   0  0  0  0  0  0  0  0  0  0  0  0
  1  2  1  0  0  0  0
  1  5  2  0  0  0  0
  2  3  2  0  0  0  0
  3  7  1  0  0  0  0
  4  3  1  0  0  0  0
  4 10  1  0  0  0  0
  5  4  1  0  0  0  0
  6  2  1  0  0  0  0
  8  9  1  0  0  0  0
  9 14  2  0  0  0  0
  9 10  1  0  0  0  0
 10 11  2  0  0  0  0
 11 12  1  0  0  0  0
 11 15  1  0  0  0  0
 12 16  1  0  0  0  0
 13 17  1  0  0  0  0
 13 12  2  0  0  0  0
 14 13  1  0  0  0  0
 18 19  1  0  0  0  0
 18 14  1  0  0  0  0
 20 18  2  0  0  0  0
 21 27  1  0  0  0  0
 21 26  1  0  0  0  0
 22 21  2  0  0  0  0
 23 22  1  0  0  0  0
 23 24  2  0  0  0  0
 24 25  1  0  0  0  0
 25 26  2  0  0  0  0
 25  1  1  0  0  0  0
 28 22  1  0  0  0  0
 29 23  1  0  0  0  0
M  END
>  <minimizedAffinity>
-5.13833952

$$$$

 OpenBabel03252501263D

 29 31  0  0  0  0  0  0  0  0999 V2000
   37.5810   30.7200   40.6060 C   0  0  0  0  0  0  0  0  0  0  0  0
   36.1980   30.7510   40.5720 C   0  0  0  0  0  0  0  0  0  0  0  0
   35.7030   29.4990   40.6970 C   0  0  0  0  0  0  0  0  0  0  0  0
   36.7750   28.6920   40.8080 N   0  0  0  0  0  0  0  0  0  0  0  0
   37.8980   29.4300   40.7530 N   0  0  0  0  0  0  0  0  0  0  0  0
   35.6380   31.6890   40.4580 H   0  0  0  0  0  0  0  0  0  0  0  0
   34.6650   29.1890   40.7080 H   0  0  0  0  0  0  0  0  0  0  0  0
   36.3720   26.8500   38.7050 F   0  0  0  0  0  0  0  0  0  0  0  0
   36.6210   26.3960   39.9370 C   0  0  0  0  0  0  0  0  0  0  0  0
   36.8170   27.2930   40.9610 C   0  0  0  0  0  0  0  0  0  0  0  0
   37.0780   26.8400   42.2540 C   0  0  0  0  0  0  0  0  0  0  0  0
   37.1490   25.5020   42.5550 C   0  0  0  0  0  0  0  0  0  0  0  0
   36.9480   24.6220   41.5120 C   0  0  0  0  0  0  0  0  0  0  0  0
   36.6890   25.0490   40.2280 C   0  0  0  0  0  0  0  0  0  0  0  0
   37.2370   27.5340   43.0820 H   0  0  0  0  0  0  0  0  0  0  0  0
   37.3480   25.1150   43.5460 H   0  0  0  0  0  0  0  0  0  0  0  0
   37.0010   23.5630   41.7350 H   0  0  0  0  0  0  0  0  0  0  0  0
   36.4910   24.0480   39.1870 C   0  0  0  0  0  0  0  0  0  0  0  0
   37.0750   23.9610   38.3040 H   0  0  0  0  0  0  0  0  0  0  0  0
   35.5780   23.1840   39.2690 O   0  0  0  0  0  0  0  0  0  0  0  0
   38.7410   34.1610   40.2050 C   0  0  0  0  0  0  0  0  0  0  0  0
   40.1420   34.0200   40.3050 C   0  0  0  0  0  0  0  0  0  0  0  0
   40.6770   32.7460   40.5090 C   0  0  0  0  0  0  0  0  0  0  0  0
   39.7830   31.7310   40.5960 N   0  0  0  0  0  0  0  0  0  0  0  0
   38.4610   31.8640   40.5010 C   0  0  0  0  0  0  0  0  0  0  0  0
   37.9320   33.0870   40.3050 N   0  0  0  0  0  0  0  0  0  0  0  0
   38.4100   35.1740   40.0480 H   0  0  0  0  0  0  0  0  0  0  0  0
   40.8230   34.8620   40.2300 H   0  0  0  0  0  0  0  0  0  0  0  0
   41.7480   32.5610   40.5970 H   0  0  0  0  0  0  0  0  0  0  0  0
  1  5  2  0  0  0  0
  2  1  1  0  0  0  0
  2  3  2  0  0  0  0
  3  7  1  0  0  0  0
  3  4  1  0  0  0  0
  4 10  1  0  0  0  0
  5  4  1  0  0  0  0
  6  2  1  0  0  0  0
  8  9  1  0  0  0  0
  9 14  2  0  0  0  0
  9 10  1  0  0  0  0
 10 11  2  0  0  0  0
 11 12  1  0  0  0  0
 11 15  1  0  0  0  0
 12 16  1  0  0  0  0
 13 17  1  0  0  0  0
 13 12  2  0  0  0  0
 14 13  1  0  0  0  0
 18 20  2  0  0  0  0
 18 14  1  0  0  0  0
 19 18  1  0  0  0  0
 21 26  2  0  0  0  0
 21 22  1  0  0  0  0
 22 23  2  0  0  0  0
 23 24  1  0  0  0  0
 23 29  1  0  0  0  0
 25 24  2  0  0  0  0
 25  1  1  0  0  0  0
 26 25  1  0  0  0  0
 27 21  1  0  0  0  0
 28 22  1  0  0  0  0
M  END
>  <minimizedAffinity>
-4.99060202

$$$$

 OpenBabel03252501263D

 29 31  0  0  0  0  0  0  0  0999 V2000
   38.4770   30.0980   41.5060 C   0  0  0  0  0  0  0  0  0  0  0  0
   39.0650   29.8180   42.7260 C   0  0  0  0  0  0  0  0  0  0  0  0
   39.0660   28.4840   42.9450 C   0  0  0  0  0  0  0  0  0  0  0  0
   38.4800   27.9370   41.8640 N   0  0  0  0  0  0  0  0  0  0  0  0
   38.1300   28.9090   41.0050 N   0  0  0  0  0  0  0  0  0  0  0  0
   39.4570   30.6100   43.3810 H   0  0  0  0  0  0  0  0  0  0  0  0
   39.4520   27.9490   43.8050 H   0  0  0  0  0  0  0  0  0  0  0  0
   39.9280   26.4060   39.9830 F   0  0  0  0  0  0  0  0  0  0  0  0
   38.9350   25.8330   40.6700 C   0  0  0  0  0  0  0  0  0  0  0  0
   38.2300   26.5790   41.5860 C   0  0  0  0  0  0  0  0  0  0  0  0
   37.1900   26.0020   42.3140 C   0  0  0  0  0  0  0  0  0  0  0  0
   36.8310   24.6860   42.1500 C   0  0  0  0  0  0  0  0  0  0  0  0
   37.5520   23.9590   41.2260 C   0  0  0  0  0  0  0  0  0  0  0  0
   38.5830   24.5110   40.4970 C   0  0  0  0  0  0  0  0  0  0  0  0
   36.6170   26.5750   43.0460 H   0  0  0  0  0  0  0  0  0  0  0  0
   36.0300   24.2060   42.6960 H   0  0  0  0  0  0  0  0  0  0  0  0
   37.2790   22.9190   41.0850 H   0  0  0  0  0  0  0  0  0  0  0  0
   39.2910   23.6670   39.5420 C   0  0  0  0  0  0  0  0  0  0  0  0
   40.3360   23.4720   39.5560 H   0  0  0  0  0  0  0  0  0  0  0  0
   38.6880   23.0880   38.6010 O   0  0  0  0  0  0  0  0  0  0  0  0
   38.9600   33.6450   40.7710 C   0  0  0  0  0  0  0  0  0  0  0  0
   37.9400   33.8970   39.8280 C   0  0  0  0  0  0  0  0  0  0  0  0
   37.0960   32.8500   39.4530 C   0  0  0  0  0  0  0  0  0  0  0  0
   37.3350   31.6530   40.0400 N   0  0  0  0  0  0  0  0  0  0  0  0
   38.2960   31.4130   40.9290 C   0  0  0  0  0  0  0  0  0  0  0  0
   39.1180   32.4150   41.3000 N   0  0  0  0  0  0  0  0  0  0  0  0
   39.5660   34.5030   41.0060 H   0  0  0  0  0  0  0  0  0  0  0  0
   37.7840   34.8750   39.3810 H   0  0  0  0  0  0  0  0  0  0  0  0
   36.2880   32.9710   38.7310 H   0  0  0  0  0  0  0  0  0  0  0  0
  1  2  1  0  0  0  0
  2  3  2  0  0  0  0
  2  6  1  0  0  0  0
  3  7  1  0  0  0  0
  4  3  1  0  0  0  0
  5  1  2  0  0  0  0
  5  4  1  0  0  0  0
  8  9  1  0  0  0  0
  9 10  1  0  0  0  0
 10  4  1  0  0  0  0
 10 11  2  0  0  0  0
 11 15  1  0  0  0  0
 12 11  1  0  0  0  0
 12 16  1  0  0  0  0
 13 12  2  0  0  0  0
 14  9  2  0  0  0  0
 14 13  1  0  0  0  0
 17 13  1  0  0  0  0
 18 19  1  0  0  0  0
 18 14  1  0  0  0  0
 20 18  2  0  0  0  0
 21 27  1  0  0  0  0
 21 26  1  0  0  0  0
 22 21  2  0  0  0  0
 23 22  1  0  0  0  0
 23 24  2  0  0  0  0
 24 25  1  0  0  0  0
 25 26  2  0  0  0  0
 25  1  1  0  0  0  0
 28 22  1  0  0  0  0
 29 23  1  0  0  0  0
M  END
>  <minimizedAffinity>
-4.97576332

$$$$

 OpenBabel03252501263D

 29 31  0  0  0  0  0  0  0  0999 V2000
   37.4080   26.3620   41.5880 C   0  0  0  0  0  0  0  0  0  0  0  0
   36.9100   26.7240   42.8270 C   0  0  0  0  0  0  0  0  0  0  0  0
   37.0940   28.0480   43.0320 C   0  0  0  0  0  0  0  0  0  0  0  0
   37.7040   28.5070   41.9230 N   0  0  0  0  0  0  0  0  0  0  0  0
   37.8890   27.4920   41.0620 N   0  0  0  0  0  0  0  0  0  0  0  0
   36.4430   25.9950   43.5040 H   0  0  0  0  0  0  0  0  0  0  0  0
   36.8160   28.6340   43.8990 H   0  0  0  0  0  0  0  0  0  0  0  0
   36.2850   30.2780   40.2420 F   0  0  0  0  0  0  0  0  0  0  0  0
   37.4290   30.6810   40.8030 C   0  0  0  0  0  0  0  0  0  0  0  0
   38.1200   29.8180   41.6210 C   0  0  0  0  0  0  0  0  0  0  0  0
   39.3160   30.2170   42.2160 C   0  0  0  0  0  0  0  0  0  0  0  0
   39.8470   31.4680   42.0140 C   0  0  0  0  0  0  0  0  0  0  0  0
   39.1360   32.3150   41.1890 C   0  0  0  0  0  0  0  0  0  0  0  0
   37.9520   31.9390   40.5920 C   0  0  0  0  0  0  0  0  0  0  0  0
   39.8810   29.5490   42.8690 H   0  0  0  0  0  0  0  0  0  0  0  0
   40.7720   31.8110   42.4580 H   0  0  0  0  0  0  0  0  0  0  0  0
   39.5430   33.3050   41.0200 H   0  0  0  0  0  0  0  0  0  0  0  0
   37.2680   32.9000   39.7350 C   0  0  0  0  0  0  0  0  0  0  0  0
   36.4940   32.6620   39.0470 H   0  0  0  0  0  0  0  0  0  0  0  0
   37.5600   34.1250   39.7540 O   0  0  0  0  0  0  0  0  0  0  0  0
   36.2870   23.3900   39.7820 C   0  0  0  0  0  0  0  0  0  0  0  0
   37.3760   22.5080   39.9490 C   0  0  0  0  0  0  0  0  0  0  0  0
   38.4860   22.9400   40.6790 C   0  0  0  0  0  0  0  0  0  0  0  0
   38.4190   24.1990   41.1760 N   0  0  0  0  0  0  0  0  0  0  0  0
   37.3910   25.0310   41.0200 C   0  0  0  0  0  0  0  0  0  0  0  0
   36.3140   24.6280   40.3170 N   0  0  0  0  0  0  0  0  0  0  0  0
   35.4720   22.9810   39.2080 H   0  0  0  0  0  0  0  0  0  0  0  0
   37.3880   21.5050   39.5320 H   0  0  0  0  0  0  0  0  0  0  0  0
   39.3630   22.3150   40.8480 H   0  0  0  0  0  0  0  0  0  0  0  0
  1  2  1  0  0  0  0
  2  3  2  0  0  0  0
  2  6  1  0  0  0  0
  3  7  1  0  0  0  0
  4  3  1  0  0  0  0
  5  1  2  0  0  0  0
  5  4  1  0  0  0  0
  8  9  1  0  0  0  0
  9 10  1  0  0  0  0
 10  4  1  0  0  0  0
 10 11  2  0  0  0  0
 11 15  1  0  0  0  0
 12 11  1  0  0  0  0
 12 16  1  0  0  0  0
 13 12  2  0  0  0  0
 14  9  2  0  0  0  0
 14 13  1  0  0  0  0
 17 13  1  0  0  0  0
 18 20  2  0  0  0  0
 18 14  1  0  0  0  0
 19 18  1  0  0  0  0
 21 22  2  0  0  0  0
 21 26  1  0  0  0  0
 22 23  1  0  0  0  0
 23 29  1  0  0  0  0
 23 24  2  0  0  0  0
 25 24  1  0  0  0  0
 25  1  1  0  0  0  0
 26 25  2  0  0  0  0
 27 21  1  0  0  0  0
 28 22  1  0  0  0  0
M  END
>  <minimizedAffinity>
-4.84076738

$$$$

 OpenBabel03252501263D

 29 31  0  0  0  0  0  0  0  0999 V2000
   35.6260   28.3440   39.0500 C   0  0  0  0  0  0  0  0  0  0  0  0
   35.3670   29.0560   40.2080 C   0  0  0  0  0  0  0  0  0  0  0  0
   35.9780   28.4660   41.2610 C   0  0  0  0  0  0  0  0  0  0  0  0
   36.6140   27.3920   40.7590 N   0  0  0  0  0  0  0  0  0  0  0  0
   36.3990   27.3240   39.4340 N   0  0  0  0  0  0  0  0  0  0  0  0
   34.7470   29.9630   40.2090 H   0  0  0  0  0  0  0  0  0  0  0  0
   35.9690   28.7780   42.2990 H   0  0  0  0  0  0  0  0  0  0  0  0
   38.8310   28.0180   42.3920 F   0  0  0  0  0  0  0  0  0  0  0  0
   38.4790   26.7400   42.2260 C   0  0  0  0  0  0  0  0  0  0  0  0
   37.3990   26.4350   41.4300 C   0  0  0  0  0  0  0  0  0  0  0  0
   37.0150   25.1080   41.2430 C   0  0  0  0  0  0  0  0  0  0  0  0
   37.6860   24.0660   41.8350 C   0  0  0  0  0  0  0  0  0  0  0  0
   38.7660   24.3970   42.6270 C   0  0  0  0  0  0  0  0  0  0  0  0
   39.1610   25.7020   42.8250 C   0  0  0  0  0  0  0  0  0  0  0  0
   36.1610   24.8430   40.6160 H   0  0  0  0  0  0  0  0  0  0  0  0
   37.4160   23.0250   41.7110 H   0  0  0  0  0  0  0  0  0  0  0  0
   39.3060   23.5850   43.1000 H   0  0  0  0  0  0  0  0  0  0  0  0
   40.3140   25.9580   43.6800 C   0  0  0  0  0  0  0  0  0  0  0  0
   40.3220   26.6180   44.5130 H   0  0  0  0  0  0  0  0  0  0  0  0
   41.4210   25.3930   43.4810 O   0  0  0  0  0  0  0  0  0  0  0  0
   33.3550   28.9500   36.2530 C   0  0  0  0  0  0  0  0  0  0  0  0
   34.2450   29.2880   35.2110 C   0  0  0  0  0  0  0  0  0  0  0  0
   35.6160   29.3060   35.4770 C   0  0  0  0  0  0  0  0  0  0  0  0
   35.9820   28.9890   36.7420 N   0  0  0  0  0  0  0  0  0  0  0  0
   35.1430   28.6690   37.7250 C   0  0  0  0  0  0  0  0  0  0  0  0
   33.8180   28.6490   37.4830 N   0  0  0  0  0  0  0  0  0  0  0  0
   32.3170   28.9590   35.9670 H   0  0  0  0  0  0  0  0  0  0  0  0
   33.9080   29.5360   34.2090 H   0  0  0  0  0  0  0  0  0  0  0  0
   36.3620   29.5580   34.7220 H   0  0  0  0  0  0  0  0  0  0  0  0
  1  5  2  0  0  0  0
  1  2  1  0  0  0  0
  2  6  1  0  0  0  0
  2  3  2  0  0  0  0
  3  7  1  0  0  0  0
  4  3  1  0  0  0  0
  4 10  1  0  0  0  0
  5  4  1  0  0  0  0
  9  8  1  0  0  0  0
  9 14  1  0  0  0  0
 10  9  2  0  0  0  0
 11 10  1  0  0  0  0
 11 12  2  0  0  0  0
 12 13  1  0  0  0  0
 13 14  2  0  0  0  0
 13 17  1  0  0  0  0
 14 18  1  0  0  0  0
 15 11  1  0  0  0  0
 16 12  1  0  0  0  0
 18 19  1  0  0  0  0
 20 18  2  0  0  0  0
 21 26  1  0  0  0  0
 22 23  1  0  0  0  0
 22 21  2  0  0  0  0
 23 24  2  0  0  0  0
 24 25  1  0  0  0  0
 25  1  1  0  0  0  0
 26 25  2  0  0  0  0
 27 21  1  0  0  0  0
 28 22  1  0  0  0  0
 29 23  1  0  0  0  0
M  END
>  <minimizedAffinity>
-4.71014547

$$$$
