
 OpenBabel03252509183D

 35 37  0  0  1  0  0  0  0  0999 V2000
   51.8480   28.2550   42.9030 C   0  0  1  0  0  0  0  0  0  0  0  0
   52.1070   27.6440   41.5700 C   0  0  0  0  0  0  0  0  0  0  0  0
   53.5140   27.1870   41.3490 C   0  0  0  0  0  0  0  0  0  0  0  0
   54.0980   26.4710   42.5450 C   0  0  0  0  0  0  0  0  0  0  0  0
   53.8010   27.1740   43.8470 C   0  0  0  0  0  0  0  0  0  0  0  0
   53.2170   28.5630   43.5550 C   0  0  2  0  0  0  0  0  0  0  0  0
   51.4000   27.5090   43.5750 H   0  0  0  0  0  0  0  0  0  0  0  0
   51.9030   28.4170   40.7790 H   0  0  0  0  0  0  0  0  0  0  0  0
   51.4340   26.7870   41.3170 H   0  0  0  0  0  0  0  0  0  0  0  0
   54.1570   28.0890   41.1870 H   0  0  0  0  0  0  0  0  0  0  0  0
   53.5740   26.5120   40.4970 H   0  0  0  0  0  0  0  0  0  0  0  0
   55.1870   26.3960   42.3500 H   0  0  0  0  0  0  0  0  0  0  0  0
   53.7150   25.4500   42.6060 H   0  0  0  0  0  0  0  0  0  0  0  0
   53.0240   26.6400   44.4130 H   0  0  0  0  0  0  0  0  0  0  0  0
   54.7190   27.3440   44.4340 H   0  0  0  0  0  0  0  0  0  0  0  0
   53.8580   29.1570   42.9030 H   0  0  0  0  0  0  0  0  0  0  0  0
   49.9880   31.8640   42.3140 C   0  0  0  0  0  0  0  0  0  0  0  0
   49.2010   30.9720   43.0580 C   0  0  0  0  0  0  0  0  0  0  0  0
   49.7130   29.7540   43.3170 C   0  0  0  0  0  0  0  0  0  0  0  0
   50.9950   29.4040   42.8510 C   0  0  0  0  0  0  0  0  0  0  0  0
   51.5230   30.9150   41.9750 S   0  0  0  0  0  0  0  0  0  0  0  0
   48.2190   31.2390   43.4150 H   0  0  0  0  0  0  0  0  0  0  0  0
   49.2670   28.9400   43.8670 H   0  0  0  0  0  0  0  0  0  0  0  0
   49.4940   35.5440   42.0770 C   0  0  0  0  0  0  0  0  0  0  0  0
   48.6230   35.6070   40.9780 C   0  0  0  0  0  0  0  0  0  0  0  0
   48.2420   34.3950   40.3660 C   0  0  0  0  0  0  0  0  0  0  0  0
   48.7440   33.2300   40.8790 N   0  0  0  0  0  0  0  0  0  0  0  0
   49.5820   33.2300   41.9420 C   0  0  0  0  0  0  0  0  0  0  0  0
   49.9570   34.3880   42.5410 N   0  0  0  0  0  0  0  0  0  0  0  0
   49.7900   36.4620   42.5480 H   0  0  0  0  0  0  0  0  0  0  0  0
   48.2590   36.5440   40.6150 H   0  0  0  0  0  0  0  0  0  0  0  0
   47.5810   34.3860   39.5280 H   0  0  0  0  0  0  0  0  0  0  0  0
   52.9350   29.2190   44.8640 C   0  0  0  0  0  0  0  0  0  0  0  0
   52.2450   28.6860   45.5280 H   0  0  0  0  0  0  0  0  0  0  0  0
   53.4250   30.2910   45.2070 O   0  0  0  0  0  0  0  0  0  0  0  0
  1  6  1  0  0  0  0
  1  7  1  1  0  0  0
  2  1  1  0  0  0  0
  3  2  1  0  0  0  0
  3  4  1  0  0  0  0
  4 13  1  0  0  0  0
  4  5  1  0  0  0  0
  5 14  1  0  0  0  0
  5 15  1  0  0  0  0
  6 16  1  6  0  0  0
  6  5  1  0  0  0  0
  6 33  1  0  0  0  0
  8  2  1  0  0  0  0
  9  2  1  0  0  0  0
 10  3  1  0  0  0  0
 11  3  1  0  0  0  0
 12  4  1  0  0  0  0
 17 18  2  0  0  0  0
 18 19  1  0  0  0  0
 18 22  1  0  0  0  0
 19 23  1  0  0  0  0
 20  1  1  0  0  0  0
 20 19  2  0  0  0  0
 21 17  1  0  0  0  0
 21 20  1  0  0  0  0
 24 29  1  0  0  0  0
 24 30  1  0  0  0  0
 25 24  2  0  0  0  0
 26 27  2  0  0  0  0
 26 25  1  0  0  0  0
 27 28  1  0  0  0  0
 28 17  1  0  0  0  0
 28 29  2  0  0  0  0
 31 25  1  0  0  0  0
 32 26  1  0  0  0  0
 33 35  2  0  0  0  0
 33 34  1  0  0  0  0
M  END
>  <minimizedAffinity>
-2.98240185

>  <minimizedRMSD>
6.79711533

$$$$
