
 OpenBabel03252505043D

 28 29  0  0  1  0  0  0  0  0999 V2000
   36.7160   29.3200   39.8370 C   0  0  2  0  0  0  0  0  0  0  0  0
   37.7480   29.1280   38.7770 C   0  0  0  0  0  0  0  0  0  0  0  0
   38.6530   30.2680   38.5280 C   0  0  0  0  0  0  0  0  0  0  0  0
   37.7420   31.4490   38.2170 C   0  0  0  0  0  0  0  0  0  0  0  0
   36.9390   31.8570   39.3860 C   0  0  0  0  0  0  0  0  0  0  0  0
   36.4240   30.6970   40.2060 C   0  0  0  0  0  0  0  0  0  0  0  0
   35.7750   28.8260   39.5220 H   0  0  0  0  0  0  0  0  0  0  0  0
   38.3250   28.1870   38.9430 H   0  0  0  0  0  0  0  0  0  0  0  0
   37.2150   28.9310   37.8060 H   0  0  0  0  0  0  0  0  0  0  0  0
   39.2770   30.0710   37.6590 H   0  0  0  0  0  0  0  0  0  0  0  0
   39.2760   30.4590   39.4360 H   0  0  0  0  0  0  0  0  0  0  0  0
   37.1380   31.1680   37.3430 H   0  0  0  0  0  0  0  0  0  0  0  0
   38.4250   32.2930   38.0370 H   0  0  0  0  0  0  0  0  0  0  0  0
   36.6510   32.8270   39.7660 H   0  0  0  0  0  0  0  0  0  0  0  0
   38.2750   28.4740   43.0930 C   0  0  0  0  0  0  0  0  0  0  0  0
   38.0230   27.0810   43.1960 C   0  0  0  0  0  0  0  0  0  0  0  0
   37.3180   26.4730   42.1270 C   0  0  0  0  0  0  0  0  0  0  0  0
   36.9240   27.2350   41.0790 N   0  0  0  0  0  0  0  0  0  0  0  0
   37.1900   28.5600   41.0300 C   0  0  0  0  0  0  0  0  0  0  0  0
   37.8650   29.1890   42.0340 N   0  0  0  0  0  0  0  0  0  0  0  0
   38.8100   28.9480   43.8980 H   0  0  0  0  0  0  0  0  0  0  0  0
   38.3360   26.4840   44.0240 H   0  0  0  0  0  0  0  0  0  0  0  0
   37.0330   25.0440   42.1830 C   0  0  0  0  0  0  0  0  0  0  0  0
   36.0070   24.7340   42.1230 H   0  0  0  0  0  0  0  0  0  0  0  0
   37.9790   24.2280   42.2980 O   0  0  0  0  0  0  0  0  0  0  0  0
   35.6400   30.9600   41.3600 N   0  0  0  0  0  0  0  0  0  0  0  0
   35.7280   31.1860   42.3840 H   0  0  0  0  0  0  0  0  0  0  0  0
   34.6130   30.9210   41.1540 H   0  0  0  0  0  0  0  0  0  0  0  0
  1  7  1  6  0  0  0
  1  6  1  0  0  0  0
  1 19  1  0  0  0  0
  2  8  1  0  0  0  0
  2  1  1  0  0  0  0
  3  2  1  0  0  0  0
  3 11  1  0  0  0  0
  4  3  1  0  0  0  0
  4  5  1  0  0  0  0
  5 14  1  0  0  0  0
  5  6  2  0  0  0  0
  6 26  1  0  0  0  0
  9  2  1  0  0  0  0
 10  3  1  0  0  0  0
 12  4  1  0  0  0  0
 13  4  1  0  0  0  0
 15 16  1  0  0  0  0
 15 21  1  0  0  0  0
 16 22  1  0  0  0  0
 17 23  1  0  0  0  0
 17 16  2  0  0  0  0
 18 17  1  0  0  0  0
 19 18  2  0  0  0  0
 19 20  1  0  0  0  0
 20 15  2  0  0  0  0
 23 25  2  0  0  0  0
 24 23  1  0  0  0  0
 26 27  1  0  0  0  0
 28 26  1  0  0  0  0
M  END
>  <minimizedAffinity>
-4.79030085

$$$$

 OpenBabel03252505043D

 28 29  0  0  1  0  0  0  0  0999 V2000
   36.7010   29.1200   40.0360 C   0  0  2  0  0  0  0  0  0  0  0  0
   37.7090   28.7800   38.9920 C   0  0  0  0  0  0  0  0  0  0  0  0
   38.6030   29.8750   38.5630 C   0  0  0  0  0  0  0  0  0  0  0  0
   37.6810   30.9990   38.1080 C   0  0  0  0  0  0  0  0  0  0  0  0
   36.9020   31.5670   39.2250 C   0  0  0  0  0  0  0  0  0  0  0  0
   36.4110   30.5350   40.2130 C   0  0  0  0  0  0  0  0  0  0  0  0
   35.7550   28.5850   39.8160 H   0  0  0  0  0  0  0  0  0  0  0  0
   38.2940   27.8730   39.2760 H   0  0  0  0  0  0  0  0  0  0  0  0
   37.1560   28.4470   38.0700 H   0  0  0  0  0  0  0  0  0  0  0  0
   39.2090   29.5570   37.7170 H   0  0  0  0  0  0  0  0  0  0  0  0
   39.2460   30.1930   39.4200 H   0  0  0  0  0  0  0  0  0  0  0  0
   37.0590   30.5960   37.2960 H   0  0  0  0  0  0  0  0  0  0  0  0
   38.3560   31.8090   37.7950 H   0  0  0  0  0  0  0  0  0  0  0  0
   36.6190   32.5810   39.4710 H   0  0  0  0  0  0  0  0  0  0  0  0
   36.8320   27.4510   43.3440 C   0  0  0  0  0  0  0  0  0  0  0  0
   38.2190   27.4840   43.6440 C   0  0  0  0  0  0  0  0  0  0  0  0
   39.0720   28.0870   42.6860 C   0  0  0  0  0  0  0  0  0  0  0  0
   38.5350   28.5940   41.5510 N   0  0  0  0  0  0  0  0  0  0  0  0
   37.2040   28.5370   41.3140 C   0  0  0  0  0  0  0  0  0  0  0  0
   36.3440   27.9660   42.2060 N   0  0  0  0  0  0  0  0  0  0  0  0
   36.1740   26.9960   44.0650 H   0  0  0  0  0  0  0  0  0  0  0  0
   38.6390   27.0830   44.5410 H   0  0  0  0  0  0  0  0  0  0  0  0
   40.5060   28.1470   42.9460 C   0  0  0  0  0  0  0  0  0  0  0  0
   40.9990   27.2420   43.2500 H   0  0  0  0  0  0  0  0  0  0  0  0
   41.1160   29.2340   42.8090 O   0  0  0  0  0  0  0  0  0  0  0  0
   35.6520   30.9580   41.3360 N   0  0  0  0  0  0  0  0  0  0  0  0
   35.7620   31.3270   42.3150 H   0  0  0  0  0  0  0  0  0  0  0  0
   34.6210   30.8890   41.1600 H   0  0  0  0  0  0  0  0  0  0  0  0
  1  7  1  6  0  0  0
  1  6  1  0  0  0  0
  1 19  1  0  0  0  0
  2  8  1  0  0  0  0
  2  1  1  0  0  0  0
  3  2  1  0  0  0  0
  3 11  1  0  0  0  0
  4  3  1  0  0  0  0
  4  5  1  0  0  0  0
  5 14  1  0  0  0  0
  5  6  2  0  0  0  0
  6 26  1  0  0  0  0
  9  2  1  0  0  0  0
 10  3  1  0  0  0  0
 12  4  1  0  0  0  0
 13  4  1  0  0  0  0
 15 16  1  0  0  0  0
 15 21  1  0  0  0  0
 16 22  1  0  0  0  0
 17 23  1  0  0  0  0
 17 16  2  0  0  0  0
 18 17  1  0  0  0  0
 19 18  2  0  0  0  0
 19 20  1  0  0  0  0
 20 15  2  0  0  0  0
 23 24  1  0  0  0  0
 25 23  2  0  0  0  0
 26 27  1  0  0  0  0
 28 26  1  0  0  0  0
M  END
>  <minimizedAffinity>
-4.71911716

$$$$

 OpenBabel03252505043D

 28 29  0  0  1  0  0  0  0  0999 V2000
   36.4700   29.6770   39.2860 C   0  0  2  0  0  0  0  0  0  0  0  0
   37.3880   29.6880   38.1100 C   0  0  0  0  0  0  0  0  0  0  0  0
   38.4200   30.7440   38.0940 C   0  0  0  0  0  0  0  0  0  0  0  0
   37.6600   32.0580   38.2250 C   0  0  0  0  0  0  0  0  0  0  0  0
   37.0050   32.1950   39.5400 C   0  0  0  0  0  0  0  0  0  0  0  0
   36.3960   30.9110   40.0530 C   0  0  0  0  0  0  0  0  0  0  0  0
   35.4500   29.4030   38.9480 H   0  0  0  0  0  0  0  0  0  0  0  0
   37.8410   28.6820   37.9430 H   0  0  0  0  0  0  0  0  0  0  0  0
   36.7660   29.8430   37.1860 H   0  0  0  0  0  0  0  0  0  0  0  0
   38.9480   30.7400   37.1430 H   0  0  0  0  0  0  0  0  0  0  0  0
   39.1270   30.5920   38.9460 H   0  0  0  0  0  0  0  0  0  0  0  0
   36.9630   32.1120   37.3770 H   0  0  0  0  0  0  0  0  0  0  0  0
   38.4380   32.8360   38.2150 H   0  0  0  0  0  0  0  0  0  0  0  0
   36.8810   33.0380   40.2050 H   0  0  0  0  0  0  0  0  0  0  0  0
   36.9040   26.2990   40.7500 C   0  0  0  0  0  0  0  0  0  0  0  0
   37.8000   26.5470   41.8220 C   0  0  0  0  0  0  0  0  0  0  0  0
   38.2290   27.8850   42.0080 C   0  0  0  0  0  0  0  0  0  0  0  0
   37.7730   28.8460   41.1690 N   0  0  0  0  0  0  0  0  0  0  0  0
   36.9190   28.5560   40.1610 C   0  0  0  0  0  0  0  0  0  0  0  0
   36.4790   27.2830   39.9430 N   0  0  0  0  0  0  0  0  0  0  0  0
   36.5700   25.2860   40.5990 H   0  0  0  0  0  0  0  0  0  0  0  0
   38.1570   25.7860   42.4820 H   0  0  0  0  0  0  0  0  0  0  0  0
   39.1490   28.1940   43.0950 C   0  0  0  0  0  0  0  0  0  0  0  0
   39.2580   29.2230   43.3840 H   0  0  0  0  0  0  0  0  0  0  0  0
   39.7790   27.2660   43.6570 O   0  0  0  0  0  0  0  0  0  0  0  0
   35.7400   30.9120   41.3130 N   0  0  0  0  0  0  0  0  0  0  0  0
   35.9310   30.8190   42.3430 H   0  0  0  0  0  0  0  0  0  0  0  0
   34.7050   31.0490   41.2150 H   0  0  0  0  0  0  0  0  0  0  0  0
  1  7  1  6  0  0  0
  1  6  1  0  0  0  0
  1 19  1  0  0  0  0
  2  1  1  0  0  0  0
  3  2  1  0  0  0  0
  3  4  1  0  0  0  0
  3 11  1  0  0  0  0
  4  5  1  0  0  0  0
  5  6  2  0  0  0  0
  5 14  1  0  0  0  0
  6 26  1  0  0  0  0
  8  2  1  0  0  0  0
  9  2  1  0  0  0  0
 10  3  1  0  0  0  0
 12  4  1  0  0  0  0
 13  4  1  0  0  0  0
 15 16  1  0  0  0  0
 16 17  2  0  0  0  0
 16 22  1  0  0  0  0
 17 23  1  0  0  0  0
 18 17  1  0  0  0  0
 19 18  2  0  0  0  0
 20 19  1  0  0  0  0
 20 15  2  0  0  0  0
 21 15  1  0  0  0  0
 23 24  1  0  0  0  0
 23 25  2  0  0  0  0
 26 27  1  0  0  0  0
 28 26  1  0  0  0  0
M  END
>  <minimizedAffinity>
-4.55971718

$$$$

 OpenBabel03252505043D

 28 29  0  0  1  0  0  0  0  0999 V2000
   36.0580   29.8360   40.3480 C   0  0  2  0  0  0  0  0  0  0  0  0
   34.8360   29.0930   39.9240 C   0  0  0  0  0  0  0  0  0  0  0  0
   34.9170   28.3790   38.6340 C   0  0  0  0  0  0  0  0  0  0  0  0
   35.3160   29.4350   37.6100 C   0  0  0  0  0  0  0  0  0  0  0  0
   36.6800   29.9480   37.8390 C   0  0  0  0  0  0  0  0  0  0  0  0
   37.0200   30.1400   39.2990 C   0  0  0  0  0  0  0  0  0  0  0  0
   35.7560   30.7820   40.8410 H   0  0  0  0  0  0  0  0  0  0  0  0
   34.4750   28.4170   40.7340 H   0  0  0  0  0  0  0  0  0  0  0  0
   33.9980   29.8350   39.8200 H   0  0  0  0  0  0  0  0  0  0  0  0
   33.9420   27.9810   38.3620 H   0  0  0  0  0  0  0  0  0  0  0  0
   35.6800   27.5650   38.7010 H   0  0  0  0  0  0  0  0  0  0  0  0
   34.5410   30.2140   37.6330 H   0  0  0  0  0  0  0  0  0  0  0  0
   35.3760   28.8920   36.6540 H   0  0  0  0  0  0  0  0  0  0  0  0
   37.4810   30.2100   37.1620 H   0  0  0  0  0  0  0  0  0  0  0  0
   37.9270   28.8400   43.3900 C   0  0  0  0  0  0  0  0  0  0  0  0
   37.8630   27.4240   43.3350 C   0  0  0  0  0  0  0  0  0  0  0  0
   37.1700   26.8520   42.2380 C   0  0  0  0  0  0  0  0  0  0  0  0
   36.6130   27.6690   41.3120 N   0  0  0  0  0  0  0  0  0  0  0  0
   36.7030   29.0150   41.4120 C   0  0  0  0  0  0  0  0  0  0  0  0
   37.3600   29.6100   42.4500 N   0  0  0  0  0  0  0  0  0  0  0  0
   38.4510   29.2860   44.2190 H   0  0  0  0  0  0  0  0  0  0  0  0
   38.3040   26.7830   44.0670 H   0  0  0  0  0  0  0  0  0  0  0  0
   37.0750   25.4010   42.1330 C   0  0  0  0  0  0  0  0  0  0  0  0
   36.1200   24.9780   41.8810 H   0  0  0  0  0  0  0  0  0  0  0  0
   38.0930   24.6970   42.3350 O   0  0  0  0  0  0  0  0  0  0  0  0
   38.3070   30.6260   39.6510 N   0  0  0  0  0  0  0  0  0  0  0  0
   39.2920   30.3010   39.8280 H   0  0  0  0  0  0  0  0  0  0  0  0
   38.3090   31.6650   39.7910 H   0  0  0  0  0  0  0  0  0  0  0  0
  1  7  1  1  0  0  0
  1 19  1  0  0  0  0
  2  1  1  0  0  0  0
  2  8  1  0  0  0  0
  3 11  1  0  0  0  0
  3  2  1  0  0  0  0
  4 12  1  0  0  0  0
  4  5  1  0  0  0  0
  4  3  1  0  0  0  0
  5  6  2  0  0  0  0
  6 26  1  0  0  0  0
  6  1  1  0  0  0  0
  9  2  1  0  0  0  0
 10  3  1  0  0  0  0
 13  4  1  0  0  0  0
 14  5  1  0  0  0  0
 15 21  1  0  0  0  0
 16 15  1  0  0  0  0
 16 22  1  0  0  0  0
 17 16  2  0  0  0  0
 18 19  2  0  0  0  0
 18 17  1  0  0  0  0
 19 20  1  0  0  0  0
 20 15  2  0  0  0  0
 23 17  1  0  0  0  0
 23 25  2  0  0  0  0
 24 23  1  0  0  0  0
 26 28  1  0  0  0  0
 26 27  1  0  0  0  0
M  END
>  <minimizedAffinity>
-4.48706436

$$$$

 OpenBabel03252505043D

 28 29  0  0  1  0  0  0  0  0999 V2000
   37.1130   27.3360   42.5140 C   0  0  2  0  0  0  0  0  0  0  0  0
   38.0270   27.7660   43.6120 C   0  0  0  0  0  0  0  0  0  0  0  0
   39.4420   27.3650   43.4810 C   0  0  0  0  0  0  0  0  0  0  0  0
   39.4230   25.8490   43.3270 C   0  0  0  0  0  0  0  0  0  0  0  0
   38.7960   25.4250   42.0610 C   0  0  0  0  0  0  0  0  0  0  0  0
   37.5840   26.2410   41.6780 C   0  0  0  0  0  0  0  0  0  0  0  0
   36.1300   27.0580   42.9470 H   0  0  0  0  0  0  0  0  0  0  0  0
   37.9360   28.8600   43.8050 H   0  0  0  0  0  0  0  0  0  0  0  0
   37.6580   27.3070   44.5700 H   0  0  0  0  0  0  0  0  0  0  0  0
   39.9900   27.6170   44.3860 H   0  0  0  0  0  0  0  0  0  0  0  0
   39.8930   27.8620   42.5870 H   0  0  0  0  0  0  0  0  0  0  0  0
   38.9330   25.4420   44.2220 H   0  0  0  0  0  0  0  0  0  0  0  0
   40.4810   25.5630   43.2270 H   0  0  0  0  0  0  0  0  0  0  0  0
   39.0400   24.6420   41.3560 H   0  0  0  0  0  0  0  0  0  0  0  0
   35.4650   29.8180   40.3090 C   0  0  0  0  0  0  0  0  0  0  0  0
   36.4720   30.8070   40.1610 C   0  0  0  0  0  0  0  0  0  0  0  0
   37.6990   30.5820   40.8330 C   0  0  0  0  0  0  0  0  0  0  0  0
   37.8510   29.4570   41.5710 N   0  0  0  0  0  0  0  0  0  0  0  0
   36.8580   28.5440   41.6800 C   0  0  0  0  0  0  0  0  0  0  0  0
   35.6590   28.7180   41.0510 N   0  0  0  0  0  0  0  0  0  0  0  0
   34.5270   29.9770   39.8030 H   0  0  0  0  0  0  0  0  0  0  0  0
   36.3490   31.6940   39.5780 H   0  0  0  0  0  0  0  0  0  0  0  0
   38.7680   31.5680   40.7140 C   0  0  0  0  0  0  0  0  0  0  0  0
   39.7010   31.2470   40.2890 H   0  0  0  0  0  0  0  0  0  0  0  0
   38.5730   32.7440   41.1040 O   0  0  0  0  0  0  0  0  0  0  0  0
   36.8930   25.9330   40.4770 N   0  0  0  0  0  0  0  0  0  0  0  0
   36.9090   26.1240   39.4420 H   0  0  0  0  0  0  0  0  0  0  0  0
   36.0770   25.2960   40.6470 H   0  0  0  0  0  0  0  0  0  0  0  0
  1  7  1  1  0  0  0
  1  2  1  0  0  0  0
  2  8  1  0  0  0  0
  2  9  1  0  0  0  0
  3  2  1  0  0  0  0
  3 10  1  0  0  0  0
  4  3  1  0  0  0  0
  4 12  1  0  0  0  0
  5  4  1  0  0  0  0
  6  5  2  0  0  0  0
  6  1  1  0  0  0  0
 11  3  1  0  0  0  0
 13  4  1  0  0  0  0
 14  5  1  0  0  0  0
 15 20  1  0  0  0  0
 16 15  2  0  0  0  0
 16 17  1  0  0  0  0
 17 18  2  0  0  0  0
 18 19  1  0  0  0  0
 19  1  1  0  0  0  0
 20 19  2  0  0  0  0
 21 15  1  0  0  0  0
 22 16  1  0  0  0  0
 23 17  1  0  0  0  0
 23 25  2  0  0  0  0
 24 23  1  0  0  0  0
 26 28  1  0  0  0  0
 26  6  1  0  0  0  0
 27 26  1  0  0  0  0
M  END
>  <minimizedAffinity>
-4.48300457

$$$$

 OpenBabel03252505043D

 28 29  0  0  1  0  0  0  0  0999 V2000
   38.4060   28.5060   41.5960 C   0  0  2  0  0  0  0  0  0  0  0  0
   38.3930   27.4820   40.5130 C   0  0  0  0  0  0  0  0  0  0  0  0
   37.2240   26.5800   40.4770 C   0  0  0  0  0  0  0  0  0  0  0  0
   37.1630   25.9380   41.8570 C   0  0  0  0  0  0  0  0  0  0  0  0
   36.8470   26.9180   42.9140 C   0  0  0  0  0  0  0  0  0  0  0  0
   37.5260   28.2540   42.7290 C   0  0  0  0  0  0  0  0  0  0  0  0
   39.4430   28.6290   41.9690 H   0  0  0  0  0  0  0  0  0  0  0  0
   38.5700   27.9480   39.5150 H   0  0  0  0  0  0  0  0  0  0  0  0
   39.2940   26.8220   40.6480 H   0  0  0  0  0  0  0  0  0  0  0  0
   37.3740   25.7980   39.7350 H   0  0  0  0  0  0  0  0  0  0  0  0
   36.3000   27.1700   40.2570 H   0  0  0  0  0  0  0  0  0  0  0  0
   38.1170   25.4150   42.0110 H   0  0  0  0  0  0  0  0  0  0  0  0
   36.2870   25.2720   41.8200 H   0  0  0  0  0  0  0  0  0  0  0  0
   36.2210   26.8600   43.7940 H   0  0  0  0  0  0  0  0  0  0  0  0
   36.5730   31.1490   39.7530 C   0  0  0  0  0  0  0  0  0  0  0  0
   37.4840   32.2370   39.7980 C   0  0  0  0  0  0  0  0  0  0  0  0
   38.7130   32.0200   40.4690 C   0  0  0  0  0  0  0  0  0  0  0  0
   38.9570   30.8090   41.0250 N   0  0  0  0  0  0  0  0  0  0  0  0
   38.0530   29.8050   40.9530 C   0  0  0  0  0  0  0  0  0  0  0  0
   36.8570   29.9670   40.3180 N   0  0  0  0  0  0  0  0  0  0  0  0
   35.6350   31.3010   39.2450 H   0  0  0  0  0  0  0  0  0  0  0  0
   37.2880   33.1900   39.3570 H   0  0  0  0  0  0  0  0  0  0  0  0
   39.6850   33.1050   40.5440 C   0  0  0  0  0  0  0  0  0  0  0  0
   40.5530   32.9600   41.1600 H   0  0  0  0  0  0  0  0  0  0  0  0
   39.4860   34.1610   39.8960 O   0  0  0  0  0  0  0  0  0  0  0  0
   37.2990   29.2850   43.6790 N   0  0  0  0  0  0  0  0  0  0  0  0
   36.6240   30.0580   43.9130 H   0  0  0  0  0  0  0  0  0  0  0  0
   38.0450   29.3100   44.4150 H   0  0  0  0  0  0  0  0  0  0  0  0
  1  7  1  1  0  0  0
  1  6  1  0  0  0  0
  2  9  1  0  0  0  0
  2  1  1  0  0  0  0
  3  2  1  0  0  0  0
  3  4  1  0  0  0  0
  4 12  1  0  0  0  0
  4  5  1  0  0  0  0
  5 14  1  0  0  0  0
  6  5  2  0  0  0  0
  6 26  1  0  0  0  0
  8  2  1  0  0  0  0
 10  3  1  0  0  0  0
 11  3  1  0  0  0  0
 13  4  1  0  0  0  0
 15 16  2  0  0  0  0
 15 20  1  0  0  0  0
 16 17  1  0  0  0  0
 17 23  1  0  0  0  0
 17 18  2  0  0  0  0
 19 18  1  0  0  0  0
 19  1  1  0  0  0  0
 20 19  2  0  0  0  0
 21 15  1  0  0  0  0
 22 16  1  0  0  0  0
 23 24  1  0  0  0  0
 25 23  2  0  0  0  0
 26 27  1  0  0  0  0
 26 28  1  0  0  0  0
M  END
>  <minimizedAffinity>
-4.46060467

$$$$

 OpenBabel03252505043D

 28 29  0  0  1  0  0  0  0  0999 V2000
   36.8900   31.1160   39.5160 C   0  0  2  0  0  0  0  0  0  0  0  0
   36.4030   29.8330   38.9330 C   0  0  0  0  0  0  0  0  0  0  0  0
   37.0890   29.3660   37.7100 C   0  0  0  0  0  0  0  0  0  0  0  0
   36.9720   30.5150   36.7160 C   0  0  0  0  0  0  0  0  0  0  0  0
   37.7360   31.7030   37.1430 C   0  0  0  0  0  0  0  0  0  0  0  0
   37.6600   31.9740   38.6270 C   0  0  0  0  0  0  0  0  0  0  0  0
   36.0240   31.6900   39.9060 H   0  0  0  0  0  0  0  0  0  0  0  0
   36.3680   29.0280   39.7040 H   0  0  0  0  0  0  0  0  0  0  0  0
   35.3220   29.9660   38.6550 H   0  0  0  0  0  0  0  0  0  0  0  0
   36.5790   28.4970   37.3010 H   0  0  0  0  0  0  0  0  0  0  0  0
   38.1570   29.1330   37.9430 H   0  0  0  0  0  0  0  0  0  0  0  0
   35.8990   30.7080   36.5720 H   0  0  0  0  0  0  0  0  0  0  0  0
   37.4880   30.1580   35.8120 H   0  0  0  0  0  0  0  0  0  0  0  0
   38.3390   32.4130   36.5960 H   0  0  0  0  0  0  0  0  0  0  0  0
   39.6040   31.0170   42.0390 C   0  0  0  0  0  0  0  0  0  0  0  0
   39.1390   30.0290   42.9450 C   0  0  0  0  0  0  0  0  0  0  0  0
   37.8920   29.4220   42.6520 C   0  0  0  0  0  0  0  0  0  0  0  0
   37.2160   29.8060   41.5440 N   0  0  0  0  0  0  0  0  0  0  0  0
   37.7040   30.7550   40.7120 C   0  0  0  0  0  0  0  0  0  0  0  0
   38.8990   31.3670   40.9520 N   0  0  0  0  0  0  0  0  0  0  0  0
   40.5510   31.4860   42.2500 H   0  0  0  0  0  0  0  0  0  0  0  0
   39.6770   29.7280   43.8180 H   0  0  0  0  0  0  0  0  0  0  0  0
   37.3690   28.4000   43.5510 C   0  0  0  0  0  0  0  0  0  0  0  0
   37.8070   28.3190   44.5290 H   0  0  0  0  0  0  0  0  0  0  0  0
   36.4370   27.6540   43.1660 O   0  0  0  0  0  0  0  0  0  0  0  0
   38.3580   33.0880   39.1640 N   0  0  0  0  0  0  0  0  0  0  0  0
   39.3060   33.3760   39.5180 H   0  0  0  0  0  0  0  0  0  0  0  0
   37.7410   33.9310   39.2510 H   0  0  0  0  0  0  0  0  0  0  0  0
  1  7  1  1  0  0  0
  1 19  1  0  0  0  0
  2  1  1  0  0  0  0
  2  8  1  0  0  0  0
  3 11  1  0  0  0  0
  3  2  1  0  0  0  0
  4  5  1  0  0  0  0
  4  3  1  0  0  0  0
  5  6  2  0  0  0  0
  6 26  1  0  0  0  0
  6  1  1  0  0  0  0
  9  2  1  0  0  0  0
 10  3  1  0  0  0  0
 12  4  1  0  0  0  0
 13  4  1  0  0  0  0
 14  5  1  0  0  0  0
 15 21  1  0  0  0  0
 15 16  1  0  0  0  0
 16 22  1  0  0  0  0
 17 16  2  0  0  0  0
 17 23  1  0  0  0  0
 18 17  1  0  0  0  0
 19 20  1  0  0  0  0
 19 18  2  0  0  0  0
 20 15  2  0  0  0  0
 23 24  1  0  0  0  0
 25 23  2  0  0  0  0
 26 28  1  0  0  0  0
 26 27  1  0  0  0  0
M  END
>  <minimizedAffinity>
-4.4242506

$$$$

 OpenBabel03252505043D

 28 29  0  0  1  0  0  0  0  0999 V2000
   37.2430   29.9350   39.6740 C   0  0  2  0  0  0  0  0  0  0  0  0
   37.2430   29.5480   38.2340 C   0  0  0  0  0  0  0  0  0  0  0  0
   35.9410   29.6030   37.5400 C   0  0  0  0  0  0  0  0  0  0  0  0
   35.0060   28.7210   38.3590 C   0  0  0  0  0  0  0  0  0  0  0  0
   34.7410   29.2820   39.6980 C   0  0  0  0  0  0  0  0  0  0  0  0
   35.9520   29.9100   40.3460 C   0  0  0  0  0  0  0  0  0  0  0  0
   37.9470   29.2810   40.2270 H   0  0  0  0  0  0  0  0  0  0  0  0
   38.0240   30.1070   37.6670 H   0  0  0  0  0  0  0  0  0  0  0  0
   37.5920   28.4810   38.1620 H   0  0  0  0  0  0  0  0  0  0  0  0
   36.0280   29.1840   36.5410 H   0  0  0  0  0  0  0  0  0  0  0  0
   35.5790   30.6600   37.5030 H   0  0  0  0  0  0  0  0  0  0  0  0
   35.4490   27.7160   38.3810 H   0  0  0  0  0  0  0  0  0  0  0  0
   34.0390   28.7730   37.8360 H   0  0  0  0  0  0  0  0  0  0  0  0
   33.8450   29.3290   40.3010 H   0  0  0  0  0  0  0  0  0  0  0  0
   37.5920   33.6250   39.7650 C   0  0  0  0  0  0  0  0  0  0  0  0
   38.9970   33.7930   39.8790 C   0  0  0  0  0  0  0  0  0  0  0  0
   39.7860   32.6170   39.9200 C   0  0  0  0  0  0  0  0  0  0  0  0
   39.1740   31.4100   39.8510 N   0  0  0  0  0  0  0  0  0  0  0  0
   37.8300   31.3050   39.7430 C   0  0  0  0  0  0  0  0  0  0  0  0
   37.0300   32.4090   39.6990 N   0  0  0  0  0  0  0  0  0  0  0  0
   36.9820   34.5120   39.7320 H   0  0  0  0  0  0  0  0  0  0  0  0
   39.4750   34.7470   39.9330 H   0  0  0  0  0  0  0  0  0  0  0  0
   41.2340   32.7340   40.0360 C   0  0  0  0  0  0  0  0  0  0  0  0
   41.8370   32.2980   39.2610 H   0  0  0  0  0  0  0  0  0  0  0  0
   41.7310   33.3300   41.0220 O   0  0  0  0  0  0  0  0  0  0  0  0
   35.8250   30.4900   41.6360 N   0  0  0  0  0  0  0  0  0  0  0  0
   35.5440   31.3830   42.1160 H   0  0  0  0  0  0  0  0  0  0  0  0
   36.1000   29.8210   42.3950 H   0  0  0  0  0  0  0  0  0  0  0  0
  1 19  1  0  0  0  0
  1  7  1  1  0  0  0
  1  6  1  0  0  0  0
  2  1  1  0  0  0  0
  3  2  1  0  0  0  0
  3  4  1  0  0  0  0
  4 12  1  0  0  0  0
  4  5  1  0  0  0  0
  5 14  1  0  0  0  0
  5  6  2  0  0  0  0
  6 26  1  0  0  0  0
  8  2  1  0  0  0  0
  9  2  1  0  0  0  0
 10  3  1  0  0  0  0
 11  3  1  0  0  0  0
 13  4  1  0  0  0  0
 15 16  1  0  0  0  0
 16 17  2  0  0  0  0
 16 22  1  0  0  0  0
 17 23  1  0  0  0  0
 18 17  1  0  0  0  0
 19 18  2  0  0  0  0
 20 19  1  0  0  0  0
 20 15  2  0  0  0  0
 21 15  1  0  0  0  0
 23 25  2  0  0  0  0
 24 23  1  0  0  0  0
 26 27  1  0  0  0  0
 26 28  1  0  0  0  0
M  END
>  <minimizedAffinity>
-4.42240524

$$$$

 OpenBabel03252505043D

 28 29  0  0  1  0  0  0  0  0999 V2000
   38.1320   29.8290   42.2660 C   0  0  2  0  0  0  0  0  0  0  0  0
   39.0280   28.6460   42.4180 C   0  0  0  0  0  0  0  0  0  0  0  0
   38.6270   27.4220   41.6950 C   0  0  0  0  0  0  0  0  0  0  0  0
   37.2100   27.1180   42.1660 C   0  0  0  0  0  0  0  0  0  0  0  0
   36.2450   28.1450   41.7280 C   0  0  0  0  0  0  0  0  0  0  0  0
   36.7810   29.5550   41.8000 C   0  0  0  0  0  0  0  0  0  0  0  0
   38.0750   30.3690   43.2330 H   0  0  0  0  0  0  0  0  0  0  0  0
   40.0880   28.9130   42.1970 H   0  0  0  0  0  0  0  0  0  0  0  0
   39.0570   28.3710   43.5080 H   0  0  0  0  0  0  0  0  0  0  0  0
   39.2720   26.5920   41.9720 H   0  0  0  0  0  0  0  0  0  0  0  0
   38.6620   27.6080   40.5930 H   0  0  0  0  0  0  0  0  0  0  0  0
   37.2540   26.9890   43.2560 H   0  0  0  0  0  0  0  0  0  0  0  0
   36.9210   26.2080   41.6190 H   0  0  0  0  0  0  0  0  0  0  0  0
   35.2280   28.0780   41.3660 H   0  0  0  0  0  0  0  0  0  0  0  0
   40.3430   32.4760   40.9060 C   0  0  0  0  0  0  0  0  0  0  0  0
   40.0410   32.4400   39.5200 C   0  0  0  0  0  0  0  0  0  0  0  0
   39.0730   31.4950   39.0950 C   0  0  0  0  0  0  0  0  0  0  0  0
   38.4950   30.6850   40.0150 N   0  0  0  0  0  0  0  0  0  0  0  0
   38.8190   30.7600   41.3260 C   0  0  0  0  0  0  0  0  0  0  0  0
   39.7440   31.6540   41.7810 N   0  0  0  0  0  0  0  0  0  0  0  0
   41.0770   33.1900   41.2410 H   0  0  0  0  0  0  0  0  0  0  0  0
   40.4990   33.0800   38.7980 H   0  0  0  0  0  0  0  0  0  0  0  0
   38.7260   31.4170   37.6820 C   0  0  0  0  0  0  0  0  0  0  0  0
   39.5180   31.2370   36.9790 H   0  0  0  0  0  0  0  0  0  0  0  0
   37.5300   31.5580   37.3290 O   0  0  0  0  0  0  0  0  0  0  0  0
   35.9480   30.6340   41.4010 N   0  0  0  0  0  0  0  0  0  0  0  0
   35.6420   31.1700   40.5490 H   0  0  0  0  0  0  0  0  0  0  0  0
   35.4520   31.0670   42.2170 H   0  0  0  0  0  0  0  0  0  0  0  0
  1  2  1  0  0  0  0
  1  7  1  1  0  0  0
  2  9  1  0  0  0  0
  3 10  1  0  0  0  0
  3  4  1  0  0  0  0
  3  2  1  0  0  0  0
  4 12  1  0  0  0  0
  5  6  2  0  0  0  0
  5  4  1  0  0  0  0
  6  1  1  0  0  0  0
  8  2  1  0  0  0  0
 11  3  1  0  0  0  0
 13  4  1  0  0  0  0
 14  5  1  0  0  0  0
 15 21  1  0  0  0  0
 15 20  1  0  0  0  0
 16 15  2  0  0  0  0
 17 16  1  0  0  0  0
 17 18  2  0  0  0  0
 18 19  1  0  0  0  0
 19 20  2  0  0  0  0
 19  1  1  0  0  0  0
 22 16  1  0  0  0  0
 23 17  1  0  0  0  0
 24 23  1  0  0  0  0
 25 23  2  0  0  0  0
 26  6  1  0  0  0  0
 26 28  1  0  0  0  0
 27 26  1  0  0  0  0
M  END
>  <minimizedAffinity>
-4.40324926

$$$$
