
 OpenBabel03252505203D

 28 30  0  0  0  0  0  0  0  0999 V2000
   37.5390   28.5170   43.5150 C   0  0  0  0  0  0  0  0  0  0  0  0
   37.5620   27.1530   43.1400 C   0  0  0  0  0  0  0  0  0  0  0  0
   37.5380   26.9080   41.7870 C   0  0  0  0  0  0  0  0  0  0  0  0
   37.4970   27.9330   40.8620 N   0  0  0  0  0  0  0  0  0  0  0  0
   37.4770   29.2280   41.2870 C   0  0  0  0  0  0  0  0  0  0  0  0
   37.4990   29.5070   42.5950 N   0  0  0  0  0  0  0  0  0  0  0  0
   37.5550   28.7870   44.5620 H   0  0  0  0  0  0  0  0  0  0  0  0
   37.5930   26.3760   43.8700 H   0  0  0  0  0  0  0  0  0  0  0  0
   37.4570   30.2890   40.2680 C   0  0  0  0  0  0  0  0  0  0  0  0
   37.0790   29.9320   38.9790 C   0  0  0  0  0  0  0  0  0  0  0  0
   37.0320   30.8970   37.9950 C   0  0  0  0  0  0  0  0  0  0  0  0
   37.3700   32.1970   38.3460 C   0  0  0  0  0  0  0  0  0  0  0  0
   37.7420   32.4980   39.6590 C   0  0  0  0  0  0  0  0  0  0  0  0
   37.7840   31.5330   40.6230 N   0  0  0  0  0  0  0  0  0  0  0  0
   36.8210   28.9040   38.7390 H   0  0  0  0  0  0  0  0  0  0  0  0
   36.7470   30.6910   36.9690 H   0  0  0  0  0  0  0  0  0  0  0  0
   37.3560   33.0100   37.6280 H   0  0  0  0  0  0  0  0  0  0  0  0
   38.0930   33.8710   40.0050 C   0  0  0  0  0  0  0  0  0  0  0  0
   37.7210   34.6860   39.4250 H   0  0  0  0  0  0  0  0  0  0  0  0
   38.8340   34.1070   40.9850 O   0  0  0  0  0  0  0  0  0  0  0  0
   37.5950   25.4990   41.2680 C   0  0  0  0  0  0  0  0  0  0  0  0
   38.3070   24.5360   42.2180 C   0  0  0  0  0  0  0  0  0  0  0  0
   36.7800   24.4840   41.8780 C   0  0  0  0  0  0  0  0  0  0  0  0
   37.8820   25.4270   40.2000 H   0  0  0  0  0  0  0  0  0  0  0  0
   38.9310   23.7920   41.7280 H   0  0  0  0  0  0  0  0  0  0  0  0
   38.5280   24.8910   43.2470 H   0  0  0  0  0  0  0  0  0  0  0  0
   36.4760   23.5900   41.2620 H   0  0  0  0  0  0  0  0  0  0  0  0
   36.1040   24.6220   42.7310 H   0  0  0  0  0  0  0  0  0  0  0  0
  1  7  1  0  0  0  0
  2  1  1  0  0  0  0
  2  8  1  0  0  0  0
  3  2  2  0  0  0  0
  4  5  2  0  0  0  0
  4  3  1  0  0  0  0
  5  6  1  0  0  0  0
  6  1  2  0  0  0  0
  9 14  1  0  0  0  0
  9  5  1  0  0  0  0
 10  9  2  0  0  0  0
 11 12  2  0  0  0  0
 11 10  1  0  0  0  0
 12 13  1  0  0  0  0
 13 18  1  0  0  0  0
 13 14  2  0  0  0  0
 15 10  1  0  0  0  0
 16 11  1  0  0  0  0
 17 12  1  0  0  0  0
 18 20  2  0  0  0  0
 19 18  1  0  0  0  0
 21  3  1  0  0  0  0
 21 23  1  0  0  0  0
 21 22  1  0  0  0  0
 22 26  1  0  0  0  0
 23 22  1  0  0  0  0
 23 28  1  0  0  0  0
 24 21  1  0  0  0  0
 25 22  1  0  0  0  0
 27 23  1  0  0  0  0
M  END
>  <minimizedAffinity>
-4.91014099

$$$$

 OpenBabel03252505203D

 28 30  0  0  0  0  0  0  0  0999 V2000
   40.4150   27.2970   43.6300 C   0  0  0  0  0  0  0  0  0  0  0  0
   39.9850   25.9570   43.4830 C   0  0  0  0  0  0  0  0  0  0  0  0
   38.8500   25.7770   42.7260 C   0  0  0  0  0  0  0  0  0  0  0  0
   38.1820   26.8410   42.1500 N   0  0  0  0  0  0  0  0  0  0  0  0
   38.6480   28.1090   42.3290 C   0  0  0  0  0  0  0  0  0  0  0  0
   39.7480   28.3250   43.0580 N   0  0  0  0  0  0  0  0  0  0  0  0
   41.2990   27.5170   44.2120 H   0  0  0  0  0  0  0  0  0  0  0  0
   40.5140   25.1500   43.9350 H   0  0  0  0  0  0  0  0  0  0  0  0
   37.9190   29.2090   41.6790 C   0  0  0  0  0  0  0  0  0  0  0  0
   36.6070   28.9680   41.2910 C   0  0  0  0  0  0  0  0  0  0  0  0
   35.8820   29.9760   40.6900 C   0  0  0  0  0  0  0  0  0  0  0  0
   36.5090   31.2010   40.5000 C   0  0  0  0  0  0  0  0  0  0  0  0
   37.8310   31.3860   40.9110 C   0  0  0  0  0  0  0  0  0  0  0  0
   38.5380   30.3800   41.5050 N   0  0  0  0  0  0  0  0  0  0  0  0
   36.1480   27.9970   41.4540 H   0  0  0  0  0  0  0  0  0  0  0  0
   34.8550   29.8590   40.3620 H   0  0  0  0  0  0  0  0  0  0  0  0
   36.0040   32.0410   40.0360 H   0  0  0  0  0  0  0  0  0  0  0  0
   38.4690   32.6800   40.7020 C   0  0  0  0  0  0  0  0  0  0  0  0
   39.4410   32.8740   41.0990 H   0  0  0  0  0  0  0  0  0  0  0  0
   37.8840   33.5770   40.0540 O   0  0  0  0  0  0  0  0  0  0  0  0
   38.3180   24.3960   42.4700 C   0  0  0  0  0  0  0  0  0  0  0  0
   36.9570   24.3930   41.7750 C   0  0  0  0  0  0  0  0  0  0  0  0
   38.2870   23.8830   41.1270 C   0  0  0  0  0  0  0  0  0  0  0  0
   38.4220   23.7100   43.3340 H   0  0  0  0  0  0  0  0  0  0  0  0
   36.2690   23.6250   42.1230 H   0  0  0  0  0  0  0  0  0  0  0  0
   36.5880   25.3530   41.3530 H   0  0  0  0  0  0  0  0  0  0  0  0
   38.3240   22.7670   40.9710 H   0  0  0  0  0  0  0  0  0  0  0  0
   38.6030   24.4170   40.2230 H   0  0  0  0  0  0  0  0  0  0  0  0
  1  7  1  0  0  0  0
  2  1  1  0  0  0  0
  2  8  1  0  0  0  0
  3  2  2  0  0  0  0
  4  5  2  0  0  0  0
  4  3  1  0  0  0  0
  5  6  1  0  0  0  0
  6  1  2  0  0  0  0
  9  5  1  0  0  0  0
 10 15  1  0  0  0  0
 10  9  2  0  0  0  0
 11 10  1  0  0  0  0
 12 11  2  0  0  0  0
 12 13  1  0  0  0  0
 13 14  2  0  0  0  0
 14  9  1  0  0  0  0
 16 11  1  0  0  0  0
 17 12  1  0  0  0  0
 18 13  1  0  0  0  0
 18 19  1  0  0  0  0
 20 18  2  0  0  0  0
 21  3  1  0  0  0  0
 21 24  1  0  0  0  0
 22 25  1  0  0  0  0
 22 21  1  0  0  0  0
 23 22  1  0  0  0  0
 23 21  1  0  0  0  0
 26 22  1  0  0  0  0
 27 23  1  0  0  0  0
 28 23  1  0  0  0  0
M  END
>  <minimizedAffinity>
-4.83213758

$$$$

 OpenBabel03252505203D

 28 30  0  0  0  0  0  0  0  0999 V2000
   35.9340   29.6020   40.0630 C   0  0  0  0  0  0  0  0  0  0  0  0
   36.0920   28.9210   41.2930 C   0  0  0  0  0  0  0  0  0  0  0  0
   37.1830   29.2950   42.0440 C   0  0  0  0  0  0  0  0  0  0  0  0
   38.0600   30.2730   41.6160 N   0  0  0  0  0  0  0  0  0  0  0  0
   37.8520   30.8940   40.4210 C   0  0  0  0  0  0  0  0  0  0  0  0
   36.8020   30.5580   39.6620 N   0  0  0  0  0  0  0  0  0  0  0  0
   35.0990   29.3620   39.4190 H   0  0  0  0  0  0  0  0  0  0  0  0
   35.4050   28.1680   41.6040 H   0  0  0  0  0  0  0  0  0  0  0  0
   38.7960   31.9460   40.0160 C   0  0  0  0  0  0  0  0  0  0  0  0
   38.8630   33.0860   40.8070 C   0  0  0  0  0  0  0  0  0  0  0  0
   39.7450   34.0930   40.4730 C   0  0  0  0  0  0  0  0  0  0  0  0
   40.5340   33.9140   39.3450 C   0  0  0  0  0  0  0  0  0  0  0  0
   40.4240   32.7460   38.5860 C   0  0  0  0  0  0  0  0  0  0  0  0
   39.5470   31.7570   38.9280 N   0  0  0  0  0  0  0  0  0  0  0  0
   38.2300   33.1940   41.6840 H   0  0  0  0  0  0  0  0  0  0  0  0
   39.8500   35.0090   41.0440 H   0  0  0  0  0  0  0  0  0  0  0  0
   41.2510   34.6600   39.0180 H   0  0  0  0  0  0  0  0  0  0  0  0
   41.2630   32.5800   37.4050 C   0  0  0  0  0  0  0  0  0  0  0  0
   41.4870   33.4160   36.7800 H   0  0  0  0  0  0  0  0  0  0  0  0
   41.7280   31.4560   37.1110 O   0  0  0  0  0  0  0  0  0  0  0  0
   37.4350   28.6660   43.3840 C   0  0  0  0  0  0  0  0  0  0  0  0
   36.5860   27.4200   43.6350 C   0  0  0  0  0  0  0  0  0  0  0  0
   38.1410   27.4160   43.4620 C   0  0  0  0  0  0  0  0  0  0  0  0
   37.4830   29.3950   44.2180 H   0  0  0  0  0  0  0  0  0  0  0  0
   36.2170   27.3170   44.6530 H   0  0  0  0  0  0  0  0  0  0  0  0
   36.0340   26.9860   42.7730 H   0  0  0  0  0  0  0  0  0  0  0  0
   38.7080   27.1700   44.4050 H   0  0  0  0  0  0  0  0  0  0  0  0
   38.5170   26.8310   42.6140 H   0  0  0  0  0  0  0  0  0  0  0  0
  1  2  1  0  0  0  0
  2  8  1  0  0  0  0
  2  3  2  0  0  0  0
  3 21  1  0  0  0  0
  4  3  1  0  0  0  0
  5  4  2  0  0  0  0
  6  1  2  0  0  0  0
  6  5  1  0  0  0  0
  7  1  1  0  0  0  0
  9  5  1  0  0  0  0
  9 10  1  0  0  0  0
 10 15  1  0  0  0  0
 11 10  2  0  0  0  0
 11 16  1  0  0  0  0
 12 11  1  0  0  0  0
 13 14  1  0  0  0  0
 13 12  2  0  0  0  0
 14  9  2  0  0  0  0
 17 12  1  0  0  0  0
 18 13  1  0  0  0  0
 19 18  1  0  0  0  0
 20 18  2  0  0  0  0
 21 23  1  0  0  0  0
 21 22  1  0  0  0  0
 21 24  1  0  0  0  0
 22 25  1  0  0  0  0
 23 22  1  0  0  0  0
 23 27  1  0  0  0  0
 26 22  1  0  0  0  0
 28 23  1  0  0  0  0
M  END
>  <minimizedAffinity>
-4.77461815

$$$$

 OpenBabel03252505203D

 28 30  0  0  0  0  0  0  0  0999 V2000
   36.5940   27.9650   38.9650 C   0  0  0  0  0  0  0  0  0  0  0  0
   36.6910   27.1750   40.1350 C   0  0  0  0  0  0  0  0  0  0  0  0
   37.2480   27.7970   41.2290 C   0  0  0  0  0  0  0  0  0  0  0  0
   37.6800   29.1090   41.1770 N   0  0  0  0  0  0  0  0  0  0  0  0
   37.5580   29.8170   40.0200 C   0  0  0  0  0  0  0  0  0  0  0  0
   37.0210   29.2470   38.9350 N   0  0  0  0  0  0  0  0  0  0  0  0
   36.1670   27.5430   38.0660 H   0  0  0  0  0  0  0  0  0  0  0  0
   36.3520   26.1640   40.1530 H   0  0  0  0  0  0  0  0  0  0  0  0
   38.0090   31.2170   40.0170 C   0  0  0  0  0  0  0  0  0  0  0  0
   37.0850   32.1870   39.6500 C   0  0  0  0  0  0  0  0  0  0  0  0
   37.4590   33.5150   39.6470 C   0  0  0  0  0  0  0  0  0  0  0  0
   38.7630   33.8200   40.0170 C   0  0  0  0  0  0  0  0  0  0  0  0
   39.6500   32.8020   40.3760 C   0  0  0  0  0  0  0  0  0  0  0  0
   39.2660   31.4930   40.3750 N   0  0  0  0  0  0  0  0  0  0  0  0
   36.0720   31.9130   39.3660 H   0  0  0  0  0  0  0  0  0  0  0  0
   36.7910   34.3230   39.3720 H   0  0  0  0  0  0  0  0  0  0  0  0
   39.1320   34.8400   40.0390 H   0  0  0  0  0  0  0  0  0  0  0  0
   41.0140   33.1470   40.7600 C   0  0  0  0  0  0  0  0  0  0  0  0
   41.2040   34.0060   41.3640 H   0  0  0  0  0  0  0  0  0  0  0  0
   41.9750   32.4390   40.3850 O   0  0  0  0  0  0  0  0  0  0  0  0
   37.3710   27.0700   42.5370 C   0  0  0  0  0  0  0  0  0  0  0  0
   37.8540   27.9630   43.6800 C   0  0  0  0  0  0  0  0  0  0  0  0
   36.4260   27.3310   43.5880 C   0  0  0  0  0  0  0  0  0  0  0  0
   37.8640   26.0810   42.4530 H   0  0  0  0  0  0  0  0  0  0  0  0
   38.5450   27.4840   44.3710 H   0  0  0  0  0  0  0  0  0  0  0  0
   37.8750   29.0600   43.5070 H   0  0  0  0  0  0  0  0  0  0  0  0
   36.2280   26.5270   44.3520 H   0  0  0  0  0  0  0  0  0  0  0  0
   35.5970   28.0490   43.5480 H   0  0  0  0  0  0  0  0  0  0  0  0
  1  2  1  0  0  0  0
  2  8  1  0  0  0  0
  2  3  2  0  0  0  0
  3 21  1  0  0  0  0
  4  3  1  0  0  0  0
  5  4  2  0  0  0  0
  6  1  2  0  0  0  0
  6  5  1  0  0  0  0
  7  1  1  0  0  0  0
  9  5  1  0  0  0  0
  9 14  1  0  0  0  0
 10  9  2  0  0  0  0
 11 10  1  0  0  0  0
 11 12  2  0  0  0  0
 12 17  1  0  0  0  0
 12 13  1  0  0  0  0
 13 18  1  0  0  0  0
 14 13  2  0  0  0  0
 15 10  1  0  0  0  0
 16 11  1  0  0  0  0
 18 19  1  0  0  0  0
 20 18  2  0  0  0  0
 21 23  1  0  0  0  0
 21 22  1  0  0  0  0
 22 25  1  0  0  0  0
 23 22  1  0  0  0  0
 23 27  1  0  0  0  0
 24 21  1  0  0  0  0
 26 22  1  0  0  0  0
 28 23  1  0  0  0  0
M  END
>  <minimizedAffinity>
-4.68844318

$$$$

 OpenBabel03252505203D

 28 30  0  0  0  0  0  0  0  0999 V2000
   36.1990   30.7830   40.6920 C   0  0  0  0  0  0  0  0  0  0  0  0
   37.0870   31.8750   40.5560 C   0  0  0  0  0  0  0  0  0  0  0  0
   38.3710   31.6580   41.0020 C   0  0  0  0  0  0  0  0  0  0  0  0
   38.7570   30.4470   41.5440 N   0  0  0  0  0  0  0  0  0  0  0  0
   37.8540   29.4330   41.6470 C   0  0  0  0  0  0  0  0  0  0  0  0
   36.5960   29.6050   41.2250 N   0  0  0  0  0  0  0  0  0  0  0  0
   35.1740   30.8790   40.3630 H   0  0  0  0  0  0  0  0  0  0  0  0
   36.7690   32.8020   40.1350 H   0  0  0  0  0  0  0  0  0  0  0  0
   38.3140   28.1530   42.2090 C   0  0  0  0  0  0  0  0  0  0  0  0
   39.4350   28.1800   43.0300 C   0  0  0  0  0  0  0  0  0  0  0  0
   39.8940   27.0060   43.5900 C   0  0  0  0  0  0  0  0  0  0  0  0
   39.2020   25.8370   43.3020 C   0  0  0  0  0  0  0  0  0  0  0  0
   38.0800   25.8700   42.4690 C   0  0  0  0  0  0  0  0  0  0  0  0
   37.6370   27.0390   41.9210 N   0  0  0  0  0  0  0  0  0  0  0  0
   39.9540   29.1140   43.2340 H   0  0  0  0  0  0  0  0  0  0  0  0
   40.7610   26.9530   44.2390 H   0  0  0  0  0  0  0  0  0  0  0  0
   39.5010   24.8760   43.7040 H   0  0  0  0  0  0  0  0  0  0  0  0
   37.3690   24.6310   42.1800 C   0  0  0  0  0  0  0  0  0  0  0  0
   37.4420   23.7990   42.8440 H   0  0  0  0  0  0  0  0  0  0  0  0
   36.6670   24.5290   41.1490 O   0  0  0  0  0  0  0  0  0  0  0  0
   39.4120   32.7330   40.8770 C   0  0  0  0  0  0  0  0  0  0  0  0
   39.8530   32.9800   39.4340 C   0  0  0  0  0  0  0  0  0  0  0  0
   39.0560   34.0050   40.3070 C   0  0  0  0  0  0  0  0  0  0  0  0
   40.2250   32.6580   41.6260 H   0  0  0  0  0  0  0  0  0  0  0  0
   40.9150   33.1810   39.3110 H   0  0  0  0  0  0  0  0  0  0  0  0
   39.2530   32.5160   38.6220 H   0  0  0  0  0  0  0  0  0  0  0  0
   39.6490   34.9170   40.6030 H   0  0  0  0  0  0  0  0  0  0  0  0
   38.0700   34.2860   39.9180 H   0  0  0  0  0  0  0  0  0  0  0  0
  1  6  1  0  0  0  0
  2  1  2  0  0  0  0
  2  3  1  0  0  0  0
  3  4  2  0  0  0  0
  4  5  1  0  0  0  0
  5  9  1  0  0  0  0
  6  5  2  0  0  0  0
  7  1  1  0  0  0  0
  8  2  1  0  0  0  0
  9 10  1  0  0  0  0
 10 15  1  0  0  0  0
 10 11  2  0  0  0  0
 11 16  1  0  0  0  0
 12 11  1  0  0  0  0
 12 17  1  0  0  0  0
 13 12  2  0  0  0  0
 14  9  2  0  0  0  0
 14 13  1  0  0  0  0
 18 13  1  0  0  0  0
 18 19  1  0  0  0  0
 20 18  2  0  0  0  0
 21  3  1  0  0  0  0
 21 24  1  0  0  0  0
 22 23  1  0  0  0  0
 22 21  1  0  0  0  0
 23 27  1  0  0  0  0
 23 21  1  0  0  0  0
 25 22  1  0  0  0  0
 26 22  1  0  0  0  0
 28 23  1  0  0  0  0
M  END
>  <minimizedAffinity>
-4.60571337

$$$$

 OpenBabel03252505203D

 28 30  0  0  0  0  0  0  0  0999 V2000
   37.0910   30.3990   37.8040 C   0  0  0  0  0  0  0  0  0  0  0  0
   37.4190   31.7480   38.0800 C   0  0  0  0  0  0  0  0  0  0  0  0
   37.6890   32.0360   39.3990 C   0  0  0  0  0  0  0  0  0  0  0  0
   37.6420   31.0640   40.3800 N   0  0  0  0  0  0  0  0  0  0  0  0
   37.3210   29.7820   40.0490 C   0  0  0  0  0  0  0  0  0  0  0  0
   37.0510   29.4630   38.7780 N   0  0  0  0  0  0  0  0  0  0  0  0
   36.8650   30.0980   36.7900 H   0  0  0  0  0  0  0  0  0  0  0  0
   37.4490   32.4820   37.3080 H   0  0  0  0  0  0  0  0  0  0  0  0
   37.3060   28.7760   41.1220 C   0  0  0  0  0  0  0  0  0  0  0  0
   37.3870   29.2330   42.4310 C   0  0  0  0  0  0  0  0  0  0  0  0
   37.3630   28.3260   43.4690 C   0  0  0  0  0  0  0  0  0  0  0  0
   37.2560   26.9790   43.1500 C   0  0  0  0  0  0  0  0  0  0  0  0
   37.1770   26.5760   41.8140 C   0  0  0  0  0  0  0  0  0  0  0  0
   37.2030   27.4850   40.7960 N   0  0  0  0  0  0  0  0  0  0  0  0
   37.4710   30.2960   42.6460 H   0  0  0  0  0  0  0  0  0  0  0  0
   37.4220   28.6110   44.5140 H   0  0  0  0  0  0  0  0  0  0  0  0
   37.2300   26.2060   43.9100 H   0  0  0  0  0  0  0  0  0  0  0  0
   37.0660   25.1560   41.5010 C   0  0  0  0  0  0  0  0  0  0  0  0
   36.6250   24.8380   40.5830 H   0  0  0  0  0  0  0  0  0  0  0  0
   37.4850   24.2960   42.3080 O   0  0  0  0  0  0  0  0  0  0  0  0
   38.0840   33.4260   39.8070 C   0  0  0  0  0  0  0  0  0  0  0  0
   38.9250   33.4630   41.0830 C   0  0  0  0  0  0  0  0  0  0  0  0
   39.4500   33.8500   39.6610 C   0  0  0  0  0  0  0  0  0  0  0  0
   37.2560   34.1600   39.7520 H   0  0  0  0  0  0  0  0  0  0  0  0
   38.7020   34.2920   41.7520 H   0  0  0  0  0  0  0  0  0  0  0  0
   39.3280   32.5010   41.4670 H   0  0  0  0  0  0  0  0  0  0  0  0
   39.6670   34.9490   39.5330 H   0  0  0  0  0  0  0  0  0  0  0  0
   40.2800   33.2390   39.2850 H   0  0  0  0  0  0  0  0  0  0  0  0
  1  2  2  0  0  0  0
  1  6  1  0  0  0  0
  2  3  1  0  0  0  0
  3 21  1  0  0  0  0
  3  4  2  0  0  0  0
  5  4  1  0  0  0  0
  5  9  1  0  0  0  0
  6  5  2  0  0  0  0
  7  1  1  0  0  0  0
  8  2  1  0  0  0  0
  9 10  1  0  0  0  0
 10 15  1  0  0  0  0
 10 11  2  0  0  0  0
 11 16  1  0  0  0  0
 12 11  1  0  0  0  0
 12 17  1  0  0  0  0
 13 12  2  0  0  0  0
 14  9  2  0  0  0  0
 14 13  1  0  0  0  0
 18 13  1  0  0  0  0
 18 20  2  0  0  0  0
 19 18  1  0  0  0  0
 21 22  1  0  0  0  0
 22 26  1  0  0  0  0
 22 25  1  0  0  0  0
 23 21  1  0  0  0  0
 23 22  1  0  0  0  0
 24 21  1  0  0  0  0
 27 23  1  0  0  0  0
 28 23  1  0  0  0  0
M  END
>  <minimizedAffinity>
-4.51467562

$$$$

 OpenBabel03252505203D

 28 30  0  0  0  0  0  0  0  0999 V2000
   37.3570   28.5240   43.2910 C   0  0  0  0  0  0  0  0  0  0  0  0
   37.2230   27.1210   43.4220 C   0  0  0  0  0  0  0  0  0  0  0  0
   37.1060   26.4220   42.2420 C   0  0  0  0  0  0  0  0  0  0  0  0
   37.1200   27.0580   41.0150 N   0  0  0  0  0  0  0  0  0  0  0  0
   37.2530   28.4130   40.9570 C   0  0  0  0  0  0  0  0  0  0  0  0
   37.3690   29.1280   42.0820 N   0  0  0  0  0  0  0  0  0  0  0  0
   37.4530   29.1390   44.1750 H   0  0  0  0  0  0  0  0  0  0  0  0
   37.2130   26.6500   44.3780 H   0  0  0  0  0  0  0  0  0  0  0  0
   37.2870   29.0460   39.6290 C   0  0  0  0  0  0  0  0  0  0  0  0
   36.9510   30.3920   39.5520 C   0  0  0  0  0  0  0  0  0  0  0  0
   36.9830   31.0300   38.3290 C   0  0  0  0  0  0  0  0  0  0  0  0
   37.3560   30.2840   37.2190 C   0  0  0  0  0  0  0  0  0  0  0  0
   37.6830   28.9320   37.3570 C   0  0  0  0  0  0  0  0  0  0  0  0
   37.6470   28.3130   38.5720 N   0  0  0  0  0  0  0  0  0  0  0  0
   36.6630   30.9460   40.4420 H   0  0  0  0  0  0  0  0  0  0  0  0
   36.7340   32.0760   38.1950 H   0  0  0  0  0  0  0  0  0  0  0  0
   37.4050   30.7150   36.2250 H   0  0  0  0  0  0  0  0  0  0  0  0
   38.0710   28.1680   36.1770 C   0  0  0  0  0  0  0  0  0  0  0  0
   38.2440   28.6620   35.2460 H   0  0  0  0  0  0  0  0  0  0  0  0
   38.2050   26.9260   36.2430 O   0  0  0  0  0  0  0  0  0  0  0  0
   36.9940   24.9250   42.2540 C   0  0  0  0  0  0  0  0  0  0  0  0
   36.6180   24.3380   40.8930 C   0  0  0  0  0  0  0  0  0  0  0  0
   37.9980   24.1310   41.6000 C   0  0  0  0  0  0  0  0  0  0  0  0
   36.4360   24.5250   43.1240 H   0  0  0  0  0  0  0  0  0  0  0  0
   35.9290   23.4970   40.9340 H   0  0  0  0  0  0  0  0  0  0  0  0
   36.6600   25.0110   40.0090 H   0  0  0  0  0  0  0  0  0  0  0  0
   38.1780   23.0780   41.9600 H   0  0  0  0  0  0  0  0  0  0  0  0
   38.8690   24.5130   41.0520 H   0  0  0  0  0  0  0  0  0  0  0  0
  1  2  1  0  0  0  0
  1  7  1  0  0  0  0
  2  8  1  0  0  0  0
  3 21  1  0  0  0  0
  3  2  2  0  0  0  0
  4  3  1  0  0  0  0
  5  4  2  0  0  0  0
  5  6  1  0  0  0  0
  6  1  2  0  0  0  0
  9  5  1  0  0  0  0
 10  9  1  0  0  0  0
 10 15  1  0  0  0  0
 11 10  2  0  0  0  0
 12 13  2  0  0  0  0
 12 11  1  0  0  0  0
 13 14  1  0  0  0  0
 14  9  2  0  0  0  0
 16 11  1  0  0  0  0
 17 12  1  0  0  0  0
 18 20  2  0  0  0  0
 18 13  1  0  0  0  0
 19 18  1  0  0  0  0
 21 24  1  0  0  0  0
 22 25  1  0  0  0  0
 22 23  1  0  0  0  0
 22 21  1  0  0  0  0
 23 27  1  0  0  0  0
 23 21  1  0  0  0  0
 26 22  1  0  0  0  0
 28 23  1  0  0  0  0
M  END
>  <minimizedAffinity>
-4.46415186

$$$$

 OpenBabel03252505203D

 28 30  0  0  0  0  0  0  0  0999 V2000
   36.7760   25.6740   39.0110 C   0  0  0  0  0  0  0  0  0  0  0  0
   36.8370   25.4080   40.3990 C   0  0  0  0  0  0  0  0  0  0  0  0
   37.0550   26.5020   41.2060 C   0  0  0  0  0  0  0  0  0  0  0  0
   37.2020   27.7730   40.6840 N   0  0  0  0  0  0  0  0  0  0  0  0
   37.1320   27.9640   39.3370 C   0  0  0  0  0  0  0  0  0  0  0  0
   36.9210   26.9250   38.5190 N   0  0  0  0  0  0  0  0  0  0  0  0
   36.6070   24.8640   38.3150 H   0  0  0  0  0  0  0  0  0  0  0  0
   36.7210   24.4200   40.7810 H   0  0  0  0  0  0  0  0  0  0  0  0
   37.2710   29.3360   38.8260 C   0  0  0  0  0  0  0  0  0  0  0  0
   37.3860   29.5000   37.4510 C   0  0  0  0  0  0  0  0  0  0  0  0
   37.5030   30.7710   36.9270 C   0  0  0  0  0  0  0  0  0  0  0  0
   37.5010   31.8400   37.8140 C   0  0  0  0  0  0  0  0  0  0  0  0
   37.3820   31.6150   39.1880 C   0  0  0  0  0  0  0  0  0  0  0  0
   37.2660   30.3520   39.6930 N   0  0  0  0  0  0  0  0  0  0  0  0
   37.3850   28.6410   36.7860 H   0  0  0  0  0  0  0  0  0  0  0  0
   37.5970   30.9730   35.8660 H   0  0  0  0  0  0  0  0  0  0  0  0
   37.5890   32.8670   37.4780 H   0  0  0  0  0  0  0  0  0  0  0  0
   37.3820   32.7520   40.1000 C   0  0  0  0  0  0  0  0  0  0  0  0
   37.3680   32.5980   41.1560 H   0  0  0  0  0  0  0  0  0  0  0  0
   37.3980   33.9210   39.6540 O   0  0  0  0  0  0  0  0  0  0  0  0
   37.1040   26.3480   42.6990 C   0  0  0  0  0  0  0  0  0  0  0  0
   38.1570   27.2350   43.3620 C   0  0  0  0  0  0  0  0  0  0  0  0
   36.6120   27.4050   43.5400 C   0  0  0  0  0  0  0  0  0  0  0  0
   37.0740   25.2940   43.0400 H   0  0  0  0  0  0  0  0  0  0  0  0
   38.6860   26.7720   44.1920 H   0  0  0  0  0  0  0  0  0  0  0  0
   38.6310   28.0290   42.7440 H   0  0  0  0  0  0  0  0  0  0  0  0
   36.2360   27.1480   44.5710 H   0  0  0  0  0  0  0  0  0  0  0  0
   36.2030   28.3650   43.2000 H   0  0  0  0  0  0  0  0  0  0  0  0
  1  2  1  0  0  0  0
  2  8  1  0  0  0  0
  2  3  2  0  0  0  0
  3 21  1  0  0  0  0
  4  3  1  0  0  0  0
  5  4  2  0  0  0  0
  6  1  2  0  0  0  0
  6  5  1  0  0  0  0
  7  1  1  0  0  0  0
  9  5  1  0  0  0  0
  9 14  1  0  0  0  0
 10  9  2  0  0  0  0
 11 10  1  0  0  0  0
 11 12  2  0  0  0  0
 12 13  1  0  0  0  0
 13 14  2  0  0  0  0
 13 18  1  0  0  0  0
 15 10  1  0  0  0  0
 16 11  1  0  0  0  0
 17 12  1  0  0  0  0
 18 19  1  0  0  0  0
 20 18  2  0  0  0  0
 21 24  1  0  0  0  0
 21 22  1  0  0  0  0
 21 23  1  0  0  0  0
 22 23  1  0  0  0  0
 22 25  1  0  0  0  0
 23 27  1  0  0  0  0
 26 22  1  0  0  0  0
 28 23  1  0  0  0  0
M  END
>  <minimizedAffinity>
-4.44318771

$$$$

 OpenBabel03252505203D

 28 30  0  0  0  0  0  0  0  0999 V2000
   36.7450   30.4090   41.7350 C   0  0  0  0  0  0  0  0  0  0  0  0
   35.8350   30.3170   40.6560 C   0  0  0  0  0  0  0  0  0  0  0  0
   35.7280   29.0750   40.0720 C   0  0  0  0  0  0  0  0  0  0  0  0
   36.4650   27.9950   40.5190 N   0  0  0  0  0  0  0  0  0  0  0  0
   37.3240   28.1490   41.5650 C   0  0  0  0  0  0  0  0  0  0  0  0
   37.4560   29.3400   42.1590 N   0  0  0  0  0  0  0  0  0  0  0  0
   36.8820   31.3540   42.2430 H   0  0  0  0  0  0  0  0  0  0  0  0
   35.2760   31.1630   40.3260 H   0  0  0  0  0  0  0  0  0  0  0  0
   38.0710   26.9670   42.0240 C   0  0  0  0  0  0  0  0  0  0  0  0
   38.9200   27.1280   43.1120 C   0  0  0  0  0  0  0  0  0  0  0  0
   39.6290   26.0440   43.5850 C   0  0  0  0  0  0  0  0  0  0  0  0
   39.4560   24.8250   42.9410 C   0  0  0  0  0  0  0  0  0  0  0  0
   38.5880   24.7230   41.8510 C   0  0  0  0  0  0  0  0  0  0  0  0
   37.8920   25.8040   41.3930 N   0  0  0  0  0  0  0  0  0  0  0  0
   39.0330   28.0960   43.5920 H   0  0  0  0  0  0  0  0  0  0  0  0
   40.3090   26.0960   44.4280 H   0  0  0  0  0  0  0  0  0  0  0  0
   39.9780   23.9280   43.2540 H   0  0  0  0  0  0  0  0  0  0  0  0
   38.4220   23.4340   41.1900 C   0  0  0  0  0  0  0  0  0  0  0  0
   39.2230   22.7290   41.1700 H   0  0  0  0  0  0  0  0  0  0  0  0
   37.3380   23.1400   40.6380 O   0  0  0  0  0  0  0  0  0  0  0  0
   34.7680   28.8470   38.9400 C   0  0  0  0  0  0  0  0  0  0  0  0
   35.3380   29.2420   37.5770 C   0  0  0  0  0  0  0  0  0  0  0  0
   35.0040   27.7760   38.0110 C   0  0  0  0  0  0  0  0  0  0  0  0
   33.7370   29.1940   39.1520 H   0  0  0  0  0  0  0  0  0  0  0  0
   34.6260   29.7150   36.9050 H   0  0  0  0  0  0  0  0  0  0  0  0
   36.4260   29.4570   37.5130 H   0  0  0  0  0  0  0  0  0  0  0  0
   34.1260   27.3240   37.4690 H   0  0  0  0  0  0  0  0  0  0  0  0
   35.8560   27.0850   38.0240 H   0  0  0  0  0  0  0  0  0  0  0  0
  1  6  1  0  0  0  0
  1  7  1  0  0  0  0
  2  1  2  0  0  0  0
  3  4  2  0  0  0  0
  3  2  1  0  0  0  0
  4  5  1  0  0  0  0
  5  9  1  0  0  0  0
  5  6  2  0  0  0  0
  8  2  1  0  0  0  0
  9 10  1  0  0  0  0
 10 11  2  0  0  0  0
 10 15  1  0  0  0  0
 11 16  1  0  0  0  0
 12 17  1  0  0  0  0
 12 11  1  0  0  0  0
 13 12  2  0  0  0  0
 14 13  1  0  0  0  0
 14  9  2  0  0  0  0
 18 13  1  0  0  0  0
 19 18  1  0  0  0  0
 20 18  2  0  0  0  0
 21 24  1  0  0  0  0
 21  3  1  0  0  0  0
 22 23  1  0  0  0  0
 22 21  1  0  0  0  0
 23 28  1  0  0  0  0
 23 21  1  0  0  0  0
 25 22  1  0  0  0  0
 26 22  1  0  0  0  0
 27 23  1  0  0  0  0
M  END
>  <minimizedAffinity>
-4.38985777

$$$$
