
 OpenBabel03252509183D

 35 37  0  0  1  0  0  0  0  0999 V2000
   47.4760   29.6700   47.9560 C   0  0  1  0  0  0  0  0  0  0  0  0
   47.2660   28.5360   47.0130 C   0  0  0  0  0  0  0  0  0  0  0  0
   48.4830   27.7110   46.7390 C   0  0  0  0  0  0  0  0  0  0  0  0
   49.2890   27.4150   47.9830 C   0  0  0  0  0  0  0  0  0  0  0  0
   49.4660   28.6270   48.8650 C   0  0  0  0  0  0  0  0  0  0  0  0
   49.0010   29.8800   48.1090 C   0  0  2  0  0  0  0  0  0  0  0  0
   47.1480   29.3830   48.9640 H   0  0  0  0  0  0  0  0  0  0  0  0
   46.9430   28.9550   46.0200 H   0  0  0  0  0  0  0  0  0  0  0  0
   46.4470   27.8340   47.3100 H   0  0  0  0  0  0  0  0  0  0  0  0
   49.1610   28.2940   46.0660 H   0  0  0  0  0  0  0  0  0  0  0  0
   48.2130   26.7590   46.2860 H   0  0  0  0  0  0  0  0  0  0  0  0
   50.2590   27.0140   47.6260 H   0  0  0  0  0  0  0  0  0  0  0  0
   48.8150   26.6250   48.5690 H   0  0  0  0  0  0  0  0  0  0  0  0
   48.8210   28.5630   49.7540 H   0  0  0  0  0  0  0  0  0  0  0  0
   50.5270   28.7950   49.1140 H   0  0  0  0  0  0  0  0  0  0  0  0
   49.4990   29.9950   47.1460 H   0  0  0  0  0  0  0  0  0  0  0  0
   45.9200   33.0180   46.1670 C   0  0  0  0  0  0  0  0  0  0  0  0
   45.3930   32.8040   47.4500 C   0  0  0  0  0  0  0  0  0  0  0  0
   45.8350   31.7330   48.1350 C   0  0  0  0  0  0  0  0  0  0  0  0
   46.7930   30.8690   47.5700 C   0  0  0  0  0  0  0  0  0  0  0  0
   47.0960   31.6280   45.9390 S   0  0  0  0  0  0  0  0  0  0  0  0
   44.6590   33.4650   47.8830 H   0  0  0  0  0  0  0  0  0  0  0  0
   45.5540   31.4040   49.1240 H   0  0  0  0  0  0  0  0  0  0  0  0
   44.4630   36.0880   44.6510 C   0  0  0  0  0  0  0  0  0  0  0  0
   45.0830   36.0600   43.3920 C   0  0  0  0  0  0  0  0  0  0  0  0
   45.9700   35.0000   43.1140 C   0  0  0  0  0  0  0  0  0  0  0  0
   46.1730   34.0610   44.0870 N   0  0  0  0  0  0  0  0  0  0  0  0
   45.5470   34.1370   45.2850 C   0  0  0  0  0  0  0  0  0  0  0  0
   44.6910   35.1520   45.5670 N   0  0  0  0  0  0  0  0  0  0  0  0
   43.7870   36.8920   44.8710 H   0  0  0  0  0  0  0  0  0  0  0  0
   44.8890   36.8210   42.6650 H   0  0  0  0  0  0  0  0  0  0  0  0
   46.4670   34.9320   42.1720 H   0  0  0  0  0  0  0  0  0  0  0  0
   49.1870   31.0490   49.0140 C   0  0  0  0  0  0  0  0  0  0  0  0
   49.0510   32.0360   48.5560 H   0  0  0  0  0  0  0  0  0  0  0  0
   49.4740   30.9510   50.2030 O   0  0  0  0  0  0  0  0  0  0  0  0
  1  6  1  0  0  0  0
  1  7  1  1  0  0  0
  2  9  1  0  0  0  0
  2  1  1  0  0  0  0
  3  2  1  0  0  0  0
  3  4  1  0  0  0  0
  4 13  1  0  0  0  0
  4  5  1  0  0  0  0
  5 15  1  0  0  0  0
  5 14  1  0  0  0  0
  6 16  1  6  0  0  0
  6  5  1  0  0  0  0
  6 33  1  0  0  0  0
  8  2  1  0  0  0  0
 10  3  1  0  0  0  0
 11  3  1  0  0  0  0
 12  4  1  0  0  0  0
 17 18  2  0  0  0  0
 18 22  1  0  0  0  0
 18 19  1  0  0  0  0
 19 23  1  0  0  0  0
 20  1  1  0  0  0  0
 20 19  2  0  0  0  0
 21 17  1  0  0  0  0
 21 20  1  0  0  0  0
 24 30  1  0  0  0  0
 24 29  1  0  0  0  0
 25 24  2  0  0  0  0
 26 25  1  0  0  0  0
 26 27  2  0  0  0  0
 27 28  1  0  0  0  0
 28 29  2  0  0  0  0
 28 17  1  0  0  0  0
 31 25  1  0  0  0  0
 32 26  1  0  0  0  0
 33 35  2  0  0  0  0
 34 33  1  0  0  0  0
M  END
>  <minimizedAffinity>
-4.87563658

>  <minimizedRMSD>
1.47032845

$$$$
