
 OpenBabel03252509173D

 35 37  0  0  1  0  0  0  0  0999 V2000
   51.4820   29.0240   43.7100 C   0  0  1  0  0  0  0  0  0  0  0  0
   52.8130   29.6850   43.8060 C   0  0  0  0  0  0  0  0  0  0  0  0
   53.2080   30.1090   45.1850 C   0  0  0  0  0  0  0  0  0  0  0  0
   52.8930   29.0700   46.2360 C   0  0  0  0  0  0  0  0  0  0  0  0
   51.5170   28.4720   46.0700 C   0  0  0  0  0  0  0  0  0  0  0  0
   50.7280   29.2870   45.0360 C   0  0  2  0  0  0  0  0  0  0  0  0
   51.6080   27.9330   43.6920 H   0  0  0  0  0  0  0  0  0  0  0  0
   52.7890   30.6240   43.1860 H   0  0  0  0  0  0  0  0  0  0  0  0
   53.6580   29.0840   43.3870 H   0  0  0  0  0  0  0  0  0  0  0  0
   52.6110   31.0150   45.4600 H   0  0  0  0  0  0  0  0  0  0  0  0
   54.2750   30.3190   45.2360 H   0  0  0  0  0  0  0  0  0  0  0  0
   53.0090   29.5830   47.2120 H   0  0  0  0  0  0  0  0  0  0  0  0
   53.6280   28.2630   46.2110 H   0  0  0  0  0  0  0  0  0  0  0  0
   51.5790   27.4540   45.6580 H   0  0  0  0  0  0  0  0  0  0  0  0
   50.9380   28.5220   47.0070 H   0  0  0  0  0  0  0  0  0  0  0  0
   50.6880   30.3480   45.2820 H   0  0  0  0  0  0  0  0  0  0  0  0
   49.4220   30.9040   40.7010 C   0  0  0  0  0  0  0  0  0  0  0  0
   49.4870   29.5150   40.5170 C   0  0  0  0  0  0  0  0  0  0  0  0
   50.1370   28.7920   41.4480 C   0  0  0  0  0  0  0  0  0  0  0  0
   50.7260   29.4230   42.5610 C   0  0  0  0  0  0  0  0  0  0  0  0
   50.3290   31.1810   42.2720 S   0  0  0  0  0  0  0  0  0  0  0  0
   49.0370   29.0300   39.6650 H   0  0  0  0  0  0  0  0  0  0  0  0
   50.2920   27.7240   41.4830 H   0  0  0  0  0  0  0  0  0  0  0  0
   47.6280   32.5200   37.8690 C   0  0  0  0  0  0  0  0  0  0  0  0
   47.5840   33.8450   38.3290 C   0  0  0  0  0  0  0  0  0  0  0  0
   48.1640   34.1320   39.5810 C   0  0  0  0  0  0  0  0  0  0  0  0
   48.7370   33.1010   40.2740 N   0  0  0  0  0  0  0  0  0  0  0  0
   48.7520   31.8400   39.7820 C   0  0  0  0  0  0  0  0  0  0  0  0
   48.1970   31.5490   38.5780 N   0  0  0  0  0  0  0  0  0  0  0  0
   47.1880   32.2930   36.9180 H   0  0  0  0  0  0  0  0  0  0  0  0
   47.1220   34.6150   37.7470 H   0  0  0  0  0  0  0  0  0  0  0  0
   48.1580   35.1230   39.9770 H   0  0  0  0  0  0  0  0  0  0  0  0
   49.3820   28.6610   44.8980 C   0  0  0  0  0  0  0  0  0  0  0  0
   49.3710   27.6110   44.5860 H   0  0  0  0  0  0  0  0  0  0  0  0
   48.3290   29.2570   45.1130 O   0  0  0  0  0  0  0  0  0  0  0  0
  1  7  1  6  0  0  0
  1  2  1  0  0  0  0
  1  6  1  0  0  0  0
  2  3  1  0  0  0  0
  3 11  1  0  0  0  0
  3 10  1  0  0  0  0
  3  4  1  0  0  0  0
  4 12  1  0  0  0  0
  5  4  1  0  0  0  0
  5 15  1  0  0  0  0
  6 16  1  1  0  0  0
  6  5  1  0  0  0  0
  8  2  1  0  0  0  0
  9  2  1  0  0  0  0
 13  4  1  0  0  0  0
 14  5  1  0  0  0  0
 17 21  1  0  0  0  0
 18 17  2  0  0  0  0
 18 19  1  0  0  0  0
 19 23  1  0  0  0  0
 19 20  2  0  0  0  0
 20  1  1  0  0  0  0
 21 20  1  0  0  0  0
 22 18  1  0  0  0  0
 24 25  2  0  0  0  0
 24 29  1  0  0  0  0
 25 26  1  0  0  0  0
 26 32  1  0  0  0  0
 26 27  2  0  0  0  0
 28 27  1  0  0  0  0
 28 17  1  0  0  0  0
 29 28  2  0  0  0  0
 30 24  1  0  0  0  0
 31 25  1  0  0  0  0
 33  6  1  0  0  0  0
 33 35  2  0  0  0  0
 34 33  1  0  0  0  0
M  END
>  <minimizedAffinity>
-2.26303101

>  <minimizedRMSD>
6.5719862

$$$$
