
 OpenBabel03252500163D

 32 34  0  0  0  0  0  0  0  0999 V2000
   40.4150   29.6860   40.2500 Cl  0  0  0  0  0  0  0  0  0  0  0  0
   38.9440   30.0520   39.3950 C   0  0  0  0  0  0  0  0  0  0  0  0
   37.7430   29.6300   39.8750 C   0  0  0  0  0  0  0  0  0  0  0  0
   36.5420   29.9100   39.2060 C   0  0  0  0  0  0  0  0  0  0  0  0
   36.6560   30.6360   38.0390 C   0  0  0  0  0  0  0  0  0  0  0  0
   37.8750   31.0540   37.5670 C   0  0  0  0  0  0  0  0  0  0  0  0
   39.0110   30.7800   38.2160 C   0  0  0  0  0  0  0  0  0  0  0  0
   35.5830   29.5770   39.5820 H   0  0  0  0  0  0  0  0  0  0  0  0
   35.7490   30.8750   37.4900 H   0  0  0  0  0  0  0  0  0  0  0  0
   37.8720   31.6200   36.6420 H   0  0  0  0  0  0  0  0  0  0  0  0
   37.6330   28.8010   43.4640 C   0  0  0  0  0  0  0  0  0  0  0  0
   37.5870   27.3860   43.4500 C   0  0  0  0  0  0  0  0  0  0  0  0
   37.5940   26.7470   42.2140 C   0  0  0  0  0  0  0  0  0  0  0  0
   37.6450   27.5130   41.0810 N   0  0  0  0  0  0  0  0  0  0  0  0
   37.6880   28.8590   41.1260 C   0  0  0  0  0  0  0  0  0  0  0  0
   37.6820   29.4950   42.3180 N   0  0  0  0  0  0  0  0  0  0  0  0
   37.6270   29.3050   44.4220 H   0  0  0  0  0  0  0  0  0  0  0  0
   37.5460   26.7870   44.3580 H   0  0  0  0  0  0  0  0  0  0  0  0
   37.5490   25.2640   42.0730 C   0  0  0  0  0  0  0  0  0  0  0  0
   38.6330   24.6830   42.6660 F   0  0  0  0  0  0  0  0  0  0  0  0
   36.4030   24.8000   42.6870 F   0  0  0  0  0  0  0  0  0  0  0  0
   37.5100   24.9960   40.7220 F   0  0  0  0  0  0  0  0  0  0  0  0
   40.3080   31.2140   37.7350 C   0  0  0  0  0  0  0  0  0  0  0  0
   40.8250   32.4910   37.8580 C   0  0  0  0  0  0  0  0  0  0  0  0
   42.0700   32.5580   37.2970 C   0  0  0  0  0  0  0  0  0  0  0  0
   42.2760   31.2700   36.8340 C   0  0  0  0  0  0  0  0  0  0  0  0
   41.2240   30.5210   37.1100 O   0  0  0  0  0  0  0  0  0  0  0  0
   40.3430   33.3600   38.3310 H   0  0  0  0  0  0  0  0  0  0  0  0
   42.7970   33.3490   37.1840 H   0  0  0  0  0  0  0  0  0  0  0  0
   43.4020   30.6610   36.1350 C   0  0  0  0  0  0  0  0  0  0  0  0
   44.3870   30.8540   36.5220 H   0  0  0  0  0  0  0  0  0  0  0  0
   43.3640   29.9260   35.1250 O   0  0  0  0  0  0  0  0  0  0  0  0
  2  3  1  0  0  0  0
  2  1  1  0  0  0  0
  3 15  1  0  0  0  0
  4  8  1  0  0  0  0
  4  3  2  0  0  0  0
  5  4  1  0  0  0  0
  6  5  2  0  0  0  0
  6  7  1  0  0  0  0
  7  2  2  0  0  0  0
  9  5  1  0  0  0  0
 10  6  1  0  0  0  0
 11 17  1  0  0  0  0
 12 11  1  0  0  0  0
 12 18  1  0  0  0  0
 13 12  2  0  0  0  0
 14 15  2  0  0  0  0
 14 13  1  0  0  0  0
 15 16  1  0  0  0  0
 16 11  2  0  0  0  0
 19 13  1  0  0  0  0
 19 20  1  0  0  0  0
 19 21  1  0  0  0  0
 22 19  1  0  0  0  0
 23 24  2  0  0  0  0
 23  7  1  0  0  0  0
 24 28  1  0  0  0  0
 25 24  1  0  0  0  0
 26 27  1  0  0  0  0
 26 25  2  0  0  0  0
 27 23  1  0  0  0  0
 29 25  1  0  0  0  0
 30 31  1  0  0  0  0
 30 26  1  0  0  0  0
 32 30  2  0  0  0  0
M  END
>  <minimizedAffinity>
-5.67438173

$$$$

 OpenBabel03252500163D

 32 34  0  0  0  0  0  0  0  0999 V2000
   39.1230   30.2130   41.6830 Cl  0  0  0  0  0  0  0  0  0  0  0  0
   37.9830   30.1290   40.3710 C   0  0  0  0  0  0  0  0  0  0  0  0
   37.8820   31.1500   39.4770 C   0  0  0  0  0  0  0  0  0  0  0  0
   36.9710   31.1100   38.4110 C   0  0  0  0  0  0  0  0  0  0  0  0
   36.1920   29.9750   38.3260 C   0  0  0  0  0  0  0  0  0  0  0  0
   36.3060   28.9530   39.2350 C   0  0  0  0  0  0  0  0  0  0  0  0
   37.1780   29.0070   40.2460 C   0  0  0  0  0  0  0  0  0  0  0  0
   36.8850   31.9180   37.6970 H   0  0  0  0  0  0  0  0  0  0  0  0
   35.4740   29.9030   37.5130 H   0  0  0  0  0  0  0  0  0  0  0  0
   35.6540   28.0980   39.0920 H   0  0  0  0  0  0  0  0  0  0  0  0
   39.1200   34.4580   40.5270 C   0  0  0  0  0  0  0  0  0  0  0  0
   40.3760   34.5360   39.8760 C   0  0  0  0  0  0  0  0  0  0  0  0
   40.7710   33.4550   39.0940 C   0  0  0  0  0  0  0  0  0  0  0  0
   39.9320   32.3790   38.9920 N   0  0  0  0  0  0  0  0  0  0  0  0
   38.7420   32.3340   39.6240 C   0  0  0  0  0  0  0  0  0  0  0  0
   38.3430   33.3750   40.3870 N   0  0  0  0  0  0  0  0  0  0  0  0
   38.8070   35.2960   41.1370 H   0  0  0  0  0  0  0  0  0  0  0  0
   41.0350   35.3980   39.9640 H   0  0  0  0  0  0  0  0  0  0  0  0
   42.0690   33.4220   38.3620 C   0  0  0  0  0  0  0  0  0  0  0  0
   41.9870   34.1180   37.1910 F   0  0  0  0  0  0  0  0  0  0  0  0
   43.0370   34.0000   39.1580 F   0  0  0  0  0  0  0  0  0  0  0  0
   42.3630   32.0940   38.1390 F   0  0  0  0  0  0  0  0  0  0  0  0
   37.3140   27.9370   41.2160 C   0  0  0  0  0  0  0  0  0  0  0  0
   36.5890   27.8200   42.3890 C   0  0  0  0  0  0  0  0  0  0  0  0
   36.9650   26.6960   43.0710 C   0  0  0  0  0  0  0  0  0  0  0  0
   37.9420   26.1470   42.2590 C   0  0  0  0  0  0  0  0  0  0  0  0
   38.1130   26.9030   41.1900 O   0  0  0  0  0  0  0  0  0  0  0  0
   35.8130   28.5050   42.7620 H   0  0  0  0  0  0  0  0  0  0  0  0
   36.6540   26.2500   44.0040 H   0  0  0  0  0  0  0  0  0  0  0  0
   38.7540   24.9430   42.3990 C   0  0  0  0  0  0  0  0  0  0  0  0
   38.5690   24.1390   41.7090 H   0  0  0  0  0  0  0  0  0  0  0  0
   39.6560   24.7260   43.2370 O   0  0  0  0  0  0  0  0  0  0  0  0
  2  1  1  0  0  0  0
  3 15  1  0  0  0  0
  3  2  2  0  0  0  0
  4  3  1  0  0  0  0
  5  4  2  0  0  0  0
  5  6  1  0  0  0  0
  6  7  2  0  0  0  0
  7  2  1  0  0  0  0
  7 23  1  0  0  0  0
  8  4  1  0  0  0  0
  9  5  1  0  0  0  0
 10  6  1  0  0  0  0
 11 17  1  0  0  0  0
 12 18  1  0  0  0  0
 12 11  2  0  0  0  0
 13 12  1  0  0  0  0
 14 13  2  0  0  0  0
 14 15  1  0  0  0  0
 15 16  2  0  0  0  0
 16 11  1  0  0  0  0
 19 13  1  0  0  0  0
 19 21  1  0  0  0  0
 20 19  1  0  0  0  0
 22 19  1  0  0  0  0
 23 24  2  0  0  0  0
 24 28  1  0  0  0  0
 24 25  1  0  0  0  0
 25 29  1  0  0  0  0
 26 30  1  0  0  0  0
 26 25  2  0  0  0  0
 27 23  1  0  0  0  0
 27 26  1  0  0  0  0
 30 32  2  0  0  0  0
 31 30  1  0  0  0  0
M  END
>  <minimizedAffinity>
-5.63060474

$$$$

 OpenBabel03252500163D

 32 34  0  0  0  0  0  0  0  0999 V2000
   40.6420   30.5470   40.2310 Cl  0  0  0  0  0  0  0  0  0  0  0  0
   39.3210   31.6620   40.0410 C   0  0  0  0  0  0  0  0  0  0  0  0
   38.0340   31.2180   40.0510 C   0  0  0  0  0  0  0  0  0  0  0  0
   36.9500   32.0950   39.8990 C   0  0  0  0  0  0  0  0  0  0  0  0
   37.2690   33.4270   39.7420 C   0  0  0  0  0  0  0  0  0  0  0  0
   38.5710   33.8610   39.7340 C   0  0  0  0  0  0  0  0  0  0  0  0
   39.5930   33.0130   39.8800 C   0  0  0  0  0  0  0  0  0  0  0  0
   35.9250   31.7480   39.9060 H   0  0  0  0  0  0  0  0  0  0  0  0
   36.4570   34.1410   39.6220 H   0  0  0  0  0  0  0  0  0  0  0  0
   38.7300   34.9260   39.6060 H   0  0  0  0  0  0  0  0  0  0  0  0
   37.3840   27.6720   39.2900 C   0  0  0  0  0  0  0  0  0  0  0  0
   37.2480   27.1020   40.5790 C   0  0  0  0  0  0  0  0  0  0  0  0
   37.3820   27.9430   41.6800 C   0  0  0  0  0  0  0  0  0  0  0  0
   37.6360   29.2700   41.4630 N   0  0  0  0  0  0  0  0  0  0  0  0
   37.7610   29.7840   40.2230 C   0  0  0  0  0  0  0  0  0  0  0  0
   37.6330   28.9810   39.1440 N   0  0  0  0  0  0  0  0  0  0  0  0
   37.2800   27.0240   38.4300 H   0  0  0  0  0  0  0  0  0  0  0  0
   37.0450   26.0440   40.7400 H   0  0  0  0  0  0  0  0  0  0  0  0
   37.2590   27.4580   43.0840 C   0  0  0  0  0  0  0  0  0  0  0  0
   35.9520   27.4110   43.4720 F   0  0  0  0  0  0  0  0  0  0  0  0
   37.7920   26.1860   43.1570 F   0  0  0  0  0  0  0  0  0  0  0  0
   37.9880   28.3270   43.8670 F   0  0  0  0  0  0  0  0  0  0  0  0
   40.9760   33.4510   39.8750 C   0  0  0  0  0  0  0  0  0  0  0  0
   41.7680   33.5980   38.7500 C   0  0  0  0  0  0  0  0  0  0  0  0
   43.0180   34.0280   39.1000 C   0  0  0  0  0  0  0  0  0  0  0  0
   42.9410   34.1310   40.4780 C   0  0  0  0  0  0  0  0  0  0  0  0
   41.7340   33.7850   40.8860 O   0  0  0  0  0  0  0  0  0  0  0  0
   41.4790   33.4110   37.7050 H   0  0  0  0  0  0  0  0  0  0  0  0
   43.9120   34.2600   38.5400 H   0  0  0  0  0  0  0  0  0  0  0  0
   43.9260   34.5350   41.4750 C   0  0  0  0  0  0  0  0  0  0  0  0
   44.8680   34.9120   41.1160 H   0  0  0  0  0  0  0  0  0  0  0  0
   43.8090   34.5000   42.7190 O   0  0  0  0  0  0  0  0  0  0  0  0
  2  3  1  0  0  0  0
  2  1  1  0  0  0  0
  3 15  1  0  0  0  0
  4  8  1  0  0  0  0
  4  3  2  0  0  0  0
  5  4  1  0  0  0  0
  6  5  2  0  0  0  0
  6  7  1  0  0  0  0
  7  2  2  0  0  0  0
  9  5  1  0  0  0  0
 10  6  1  0  0  0  0
 11 12  1  0  0  0  0
 12 18  1  0  0  0  0
 12 13  2  0  0  0  0
 13 19  1  0  0  0  0
 14 13  1  0  0  0  0
 15 14  2  0  0  0  0
 16 11  2  0  0  0  0
 16 15  1  0  0  0  0
 17 11  1  0  0  0  0
 19 21  1  0  0  0  0
 19 20  1  0  0  0  0
 19 22  1  0  0  0  0
 23  7  1  0  0  0  0
 23 27  1  0  0  0  0
 24 25  1  0  0  0  0
 24 23  2  0  0  0  0
 25 26  2  0  0  0  0
 26 27  1  0  0  0  0
 26 30  1  0  0  0  0
 28 24  1  0  0  0  0
 29 25  1  0  0  0  0
 30 32  2  0  0  0  0
 31 30  1  0  0  0  0
M  END
>  <minimizedAffinity>
-5.60912895

$$$$

 OpenBabel03252500163D

 32 34  0  0  0  0  0  0  0  0999 V2000
   41.0730   30.7980   40.2800 Cl  0  0  0  0  0  0  0  0  0  0  0  0
   39.8970   32.0760   40.1760 C   0  0  0  0  0  0  0  0  0  0  0  0
   38.5660   31.7930   40.1800 C   0  0  0  0  0  0  0  0  0  0  0  0
   37.5960   32.8030   40.0960 C   0  0  0  0  0  0  0  0  0  0  0  0
   38.0750   34.0930   40.0130 C   0  0  0  0  0  0  0  0  0  0  0  0
   39.4210   34.3640   40.0110 C   0  0  0  0  0  0  0  0  0  0  0  0
   40.3330   33.3900   40.0910 C   0  0  0  0  0  0  0  0  0  0  0  0
   36.5370   32.5850   40.0980 H   0  0  0  0  0  0  0  0  0  0  0  0
   37.3570   34.9070   39.9480 H   0  0  0  0  0  0  0  0  0  0  0  0
   39.7090   35.4080   39.9430 H   0  0  0  0  0  0  0  0  0  0  0  0
   37.4950   28.4000   39.2200 C   0  0  0  0  0  0  0  0  0  0  0  0
   37.2840   27.7790   40.4750 C   0  0  0  0  0  0  0  0  0  0  0  0
   37.5130   28.5340   41.6210 C   0  0  0  0  0  0  0  0  0  0  0  0
   37.9280   29.8310   41.4800 N   0  0  0  0  0  0  0  0  0  0  0  0
   38.1200   30.3950   40.2700 C   0  0  0  0  0  0  0  0  0  0  0  0
   37.9020   29.6760   39.1480 N   0  0  0  0  0  0  0  0  0  0  0  0
   37.3180   27.8190   38.3250 H   0  0  0  0  0  0  0  0  0  0  0  0
   36.9530   26.7470   40.5760 H   0  0  0  0  0  0  0  0  0  0  0  0
   37.3250   27.9900   42.9960 C   0  0  0  0  0  0  0  0  0  0  0  0
   36.0840   27.4390   43.1380 F   0  0  0  0  0  0  0  0  0  0  0  0
   38.2750   27.0120   43.2140 F   0  0  0  0  0  0  0  0  0  0  0  0
   37.5130   29.0410   43.8670 F   0  0  0  0  0  0  0  0  0  0  0  0
   41.7590   33.6560   40.0910 C   0  0  0  0  0  0  0  0  0  0  0  0
   42.5050   34.0350   41.1920 C   0  0  0  0  0  0  0  0  0  0  0  0
   43.8170   34.2020   40.8440 C   0  0  0  0  0  0  0  0  0  0  0  0
   43.8240   33.9080   39.4920 C   0  0  0  0  0  0  0  0  0  0  0  0
   42.6040   33.5950   39.0950 O   0  0  0  0  0  0  0  0  0  0  0  0
   42.1420   34.1910   42.2190 H   0  0  0  0  0  0  0  0  0  0  0  0
   44.7050   34.4860   41.3900 H   0  0  0  0  0  0  0  0  0  0  0  0
   44.9020   33.8940   38.5090 C   0  0  0  0  0  0  0  0  0  0  0  0
   45.8570   34.2810   38.8170 H   0  0  0  0  0  0  0  0  0  0  0  0
   44.8540   33.4780   37.3310 O   0  0  0  0  0  0  0  0  0  0  0  0
  2  3  1  0  0  0  0
  2  1  1  0  0  0  0
  3 15  1  0  0  0  0
  4  8  1  0  0  0  0
  4  3  2  0  0  0  0
  5  4  1  0  0  0  0
  6  5  2  0  0  0  0
  6  7  1  0  0  0  0
  7 23  1  0  0  0  0
  7  2  2  0  0  0  0
  9  5  1  0  0  0  0
 10  6  1  0  0  0  0
 11 12  1  0  0  0  0
 12 18  1  0  0  0  0
 12 13  2  0  0  0  0
 13 19  1  0  0  0  0
 14 13  1  0  0  0  0
 15 14  2  0  0  0  0
 16 11  2  0  0  0  0
 16 15  1  0  0  0  0
 17 11  1  0  0  0  0
 19 20  1  0  0  0  0
 19 21  1  0  0  0  0
 19 22  1  0  0  0  0
 23 24  2  0  0  0  0
 24 28  1  0  0  0  0
 25 24  1  0  0  0  0
 25 29  1  0  0  0  0
 26 25  2  0  0  0  0
 27 26  1  0  0  0  0
 27 23  1  0  0  0  0
 30 31  1  0  0  0  0
 30 26  1  0  0  0  0
 32 30  2  0  0  0  0
M  END
>  <minimizedAffinity>
-5.5960741

$$$$

 OpenBabel03252500163D

 32 34  0  0  0  0  0  0  0  0999 V2000
   39.1660   27.8610   40.0110 Cl  0  0  0  0  0  0  0  0  0  0  0  0
   38.2950   27.8400   41.5160 C   0  0  0  0  0  0  0  0  0  0  0  0
   38.3940   28.8810   42.3870 C   0  0  0  0  0  0  0  0  0  0  0  0
   37.7030   28.8900   43.6080 C   0  0  0  0  0  0  0  0  0  0  0  0
   36.9210   27.7840   43.8670 C   0  0  0  0  0  0  0  0  0  0  0  0
   36.8310   26.7420   42.9790 C   0  0  0  0  0  0  0  0  0  0  0  0
   37.4950   26.7480   41.8190 C   0  0  0  0  0  0  0  0  0  0  0  0
   37.7780   29.7150   44.3040 H   0  0  0  0  0  0  0  0  0  0  0  0
   36.3680   27.7520   44.8020 H   0  0  0  0  0  0  0  0  0  0  0  0
   36.1920   25.9120   43.2630 H   0  0  0  0  0  0  0  0  0  0  0  0
   41.3480   31.0570   42.0480 C   0  0  0  0  0  0  0  0  0  0  0  0
   40.8130   32.2030   41.4110 C   0  0  0  0  0  0  0  0  0  0  0  0
   39.4540   32.2060   41.1110 C   0  0  0  0  0  0  0  0  0  0  0  0
   38.7070   31.1090   41.4450 N   0  0  0  0  0  0  0  0  0  0  0  0
   39.2450   30.0320   42.0510 C   0  0  0  0  0  0  0  0  0  0  0  0
   40.5630   30.0130   42.3490 N   0  0  0  0  0  0  0  0  0  0  0  0
   42.4040   31.0490   42.2840 H   0  0  0  0  0  0  0  0  0  0  0  0
   41.4160   33.0710   41.1500 H   0  0  0  0  0  0  0  0  0  0  0  0
   38.7780   33.3540   40.4430 C   0  0  0  0  0  0  0  0  0  0  0  0
   37.4590   33.0820   40.2200 F   0  0  0  0  0  0  0  0  0  0  0  0
   38.8720   34.4580   41.2660 F   0  0  0  0  0  0  0  0  0  0  0  0
   39.4530   33.5790   39.2630 F   0  0  0  0  0  0  0  0  0  0  0  0
   37.4120   25.6560   40.8680 C   0  0  0  0  0  0  0  0  0  0  0  0
   36.5480   25.5950   39.7890 C   0  0  0  0  0  0  0  0  0  0  0  0
   36.7320   24.4300   39.0960 C   0  0  0  0  0  0  0  0  0  0  0  0
   37.7390   23.7990   39.8050 C   0  0  0  0  0  0  0  0  0  0  0  0
   38.1050   24.5490   40.8280 O   0  0  0  0  0  0  0  0  0  0  0  0
   35.8040   26.3490   39.4890 H   0  0  0  0  0  0  0  0  0  0  0  0
   36.2740   24.0040   38.2160 H   0  0  0  0  0  0  0  0  0  0  0  0
   38.4090   22.5190   39.6030 C   0  0  0  0  0  0  0  0  0  0  0  0
   39.0920   22.4430   38.7750 H   0  0  0  0  0  0  0  0  0  0  0  0
   38.2890   21.4800   40.2880 O   0  0  0  0  0  0  0  0  0  0  0  0
  1  2  1  0  0  0  0
  2  7  2  0  0  0  0
  2  3  1  0  0  0  0
  3  4  2  0  0  0  0
  4  5  1  0  0  0  0
  4  8  1  0  0  0  0
  5  9  1  0  0  0  0
  6 10  1  0  0  0  0
  6  5  2  0  0  0  0
  7  6  1  0  0  0  0
 11 17  1  0  0  0  0
 11 16  1  0  0  0  0
 12 11  2  0  0  0  0
 13 12  1  0  0  0  0
 13 14  2  0  0  0  0
 14 15  1  0  0  0  0
 15 16  2  0  0  0  0
 15  3  1  0  0  0  0
 18 12  1  0  0  0  0
 19 13  1  0  0  0  0
 19 21  1  0  0  0  0
 20 19  1  0  0  0  0
 22 19  1  0  0  0  0
 23  7  1  0  0  0  0
 24 23  2  0  0  0  0
 25 24  1  0  0  0  0
 25 26  2  0  0  0  0
 26 27  1  0  0  0  0
 27 23  1  0  0  0  0
 28 24  1  0  0  0  0
 29 25  1  0  0  0  0
 30 26  1  0  0  0  0
 30 32  2  0  0  0  0
 31 30  1  0  0  0  0
M  END
>  <minimizedAffinity>
-5.55870771

$$$$

 OpenBabel03252500163D

 32 34  0  0  0  0  0  0  0  0999 V2000
   38.4980   27.1240   39.6720 Cl  0  0  0  0  0  0  0  0  0  0  0  0
   37.8910   27.3810   41.2820 C   0  0  0  0  0  0  0  0  0  0  0  0
   37.9640   28.6110   41.8610 C   0  0  0  0  0  0  0  0  0  0  0  0
   37.4840   28.8460   43.1580 C   0  0  0  0  0  0  0  0  0  0  0  0
   36.9340   27.7590   43.8040 C   0  0  0  0  0  0  0  0  0  0  0  0
   36.8670   26.5240   43.2080 C   0  0  0  0  0  0  0  0  0  0  0  0
   37.3290   26.3160   41.9710 C   0  0  0  0  0  0  0  0  0  0  0  0
   37.5390   29.8210   43.6230 H   0  0  0  0  0  0  0  0  0  0  0  0
   36.5490   27.8980   44.8110 H   0  0  0  0  0  0  0  0  0  0  0  0
   36.4190   25.7250   43.7890 H   0  0  0  0  0  0  0  0  0  0  0  0
   40.3400   31.2130   40.7840 C   0  0  0  0  0  0  0  0  0  0  0  0
   39.6540   31.8280   39.7080 C   0  0  0  0  0  0  0  0  0  0  0  0
   38.3950   31.3380   39.3750 C   0  0  0  0  0  0  0  0  0  0  0  0
   37.8850   30.2940   40.0980 N   0  0  0  0  0  0  0  0  0  0  0  0
   38.5620   29.7300   41.1180 C   0  0  0  0  0  0  0  0  0  0  0  0
   39.7860   30.1930   41.4540 N   0  0  0  0  0  0  0  0  0  0  0  0
   41.3190   31.5890   41.0480 H   0  0  0  0  0  0  0  0  0  0  0  0
   40.0690   32.6580   39.1390 H   0  0  0  0  0  0  0  0  0  0  0  0
   37.5780   31.9030   38.2630 C   0  0  0  0  0  0  0  0  0  0  0  0
   36.5440   31.0710   37.9440 F   0  0  0  0  0  0  0  0  0  0  0  0
   37.0630   33.1180   38.6710 F   0  0  0  0  0  0  0  0  0  0  0  0
   38.4310   32.0800   37.1960 F   0  0  0  0  0  0  0  0  0  0  0  0
   37.2670   25.0190   41.3240 C   0  0  0  0  0  0  0  0  0  0  0  0
   38.1890   23.9990   41.4790 C   0  0  0  0  0  0  0  0  0  0  0  0
   37.8300   22.9140   40.7280 C   0  0  0  0  0  0  0  0  0  0  0  0
   36.6580   23.3270   40.1190 C   0  0  0  0  0  0  0  0  0  0  0  0
   36.3680   24.5600   40.4950 O   0  0  0  0  0  0  0  0  0  0  0  0
   39.0950   24.0110   42.1040 H   0  0  0  0  0  0  0  0  0  0  0  0
   38.2650   21.9380   40.5700 H   0  0  0  0  0  0  0  0  0  0  0  0
   35.7590   22.6510   39.1890 C   0  0  0  0  0  0  0  0  0  0  0  0
   36.2070   22.0480   38.4190 H   0  0  0  0  0  0  0  0  0  0  0  0
   34.5100   22.6850   39.1770 O   0  0  0  0  0  0  0  0  0  0  0  0
  1  2  1  0  0  0  0
  2  3  2  0  0  0  0
  2  7  1  0  0  0  0
  3  4  1  0  0  0  0
  4  8  1  0  0  0  0
  4  5  2  0  0  0  0
  5  9  1  0  0  0  0
  6 10  1  0  0  0  0
  6  5  1  0  0  0  0
  7  6  2  0  0  0  0
 11 17  1  0  0  0  0
 11 16  1  0  0  0  0
 12 11  2  0  0  0  0
 13 12  1  0  0  0  0
 13 14  2  0  0  0  0
 14 15  1  0  0  0  0
 15 16  2  0  0  0  0
 15  3  1  0  0  0  0
 18 12  1  0  0  0  0
 19 21  1  0  0  0  0
 19 13  1  0  0  0  0
 20 19  1  0  0  0  0
 22 19  1  0  0  0  0
 23 24  2  0  0  0  0
 23  7  1  0  0  0  0
 24 28  1  0  0  0  0
 25 24  1  0  0  0  0
 26 27  1  0  0  0  0
 26 25  2  0  0  0  0
 27 23  1  0  0  0  0
 29 25  1  0  0  0  0
 30 26  1  0  0  0  0
 31 30  1  0  0  0  0
 32 30  2  0  0  0  0
M  END
>  <minimizedAffinity>
-5.51629782

$$$$

 OpenBabel03252500163D

 32 34  0  0  0  0  0  0  0  0999 V2000
   39.2040   27.3950   40.2720 Cl  0  0  0  0  0  0  0  0  0  0  0  0
   38.1810   27.4980   41.6750 C   0  0  0  0  0  0  0  0  0  0  0  0
   38.1720   28.6210   42.4430 C   0  0  0  0  0  0  0  0  0  0  0  0
   37.3580   28.7310   43.5800 C   0  0  0  0  0  0  0  0  0  0  0  0
   36.5700   27.6360   43.8660 C   0  0  0  0  0  0  0  0  0  0  0  0
   36.5900   26.5100   43.0820 C   0  0  0  0  0  0  0  0  0  0  0  0
   37.3710   26.4200   42.0010 C   0  0  0  0  0  0  0  0  0  0  0  0
   37.3470   29.6210   44.1950 H   0  0  0  0  0  0  0  0  0  0  0  0
   35.9240   27.6800   44.7390 H   0  0  0  0  0  0  0  0  0  0  0  0
   35.9380   25.6960   43.3800 H   0  0  0  0  0  0  0  0  0  0  0  0
   41.1540   30.7480   42.0370 C   0  0  0  0  0  0  0  0  0  0  0  0
   40.6260   31.8970   41.3990 C   0  0  0  0  0  0  0  0  0  0  0  0
   39.2630   31.9180   41.1210 C   0  0  0  0  0  0  0  0  0  0  0  0
   38.5050   30.8350   41.4770 N   0  0  0  0  0  0  0  0  0  0  0  0
   39.0360   29.7550   42.0840 C   0  0  0  0  0  0  0  0  0  0  0  0
   40.3580   29.7190   42.3600 N   0  0  0  0  0  0  0  0  0  0  0  0
   42.2130   30.7250   42.2560 H   0  0  0  0  0  0  0  0  0  0  0  0
   41.2390   32.7530   41.1200 H   0  0  0  0  0  0  0  0  0  0  0  0
   38.5940   33.0710   40.4540 C   0  0  0  0  0  0  0  0  0  0  0  0
   39.1220   33.2910   39.2140 F   0  0  0  0  0  0  0  0  0  0  0  0
   37.2500   32.7810   40.3210 F   0  0  0  0  0  0  0  0  0  0  0  0
   38.7680   34.1610   41.2770 F   0  0  0  0  0  0  0  0  0  0  0  0
   37.4050   25.2390   41.1590 C   0  0  0  0  0  0  0  0  0  0  0  0
   38.1340   24.0910   41.4160 C   0  0  0  0  0  0  0  0  0  0  0  0
   37.9410   23.1720   40.4220 C   0  0  0  0  0  0  0  0  0  0  0  0
   37.0680   23.8170   39.5620 C   0  0  0  0  0  0  0  0  0  0  0  0
   36.7840   25.0190   40.0320 O   0  0  0  0  0  0  0  0  0  0  0  0
   38.7870   23.8980   42.2800 H   0  0  0  0  0  0  0  0  0  0  0  0
   38.3140   22.1750   40.2440 H   0  0  0  0  0  0  0  0  0  0  0  0
   36.4600   23.3970   38.3050 C   0  0  0  0  0  0  0  0  0  0  0  0
   36.2930   24.1550   37.5590 H   0  0  0  0  0  0  0  0  0  0  0  0
   36.1040   22.2450   37.9780 O   0  0  0  0  0  0  0  0  0  0  0  0
  1  2  1  0  0  0  0
  2  7  2  0  0  0  0
  2  3  1  0  0  0  0
  3  4  2  0  0  0  0
  4  5  1  0  0  0  0
  4  8  1  0  0  0  0
  5  9  1  0  0  0  0
  6 10  1  0  0  0  0
  6  5  2  0  0  0  0
  7  6  1  0  0  0  0
 11 17  1  0  0  0  0
 11 16  1  0  0  0  0
 12 11  2  0  0  0  0
 13 12  1  0  0  0  0
 13 14  2  0  0  0  0
 14 15  1  0  0  0  0
 15 16  2  0  0  0  0
 15  3  1  0  0  0  0
 18 12  1  0  0  0  0
 19 13  1  0  0  0  0
 19 22  1  0  0  0  0
 20 19  1  0  0  0  0
 21 19  1  0  0  0  0
 23 24  2  0  0  0  0
 23  7  1  0  0  0  0
 24 28  1  0  0  0  0
 25 24  1  0  0  0  0
 26 27  1  0  0  0  0
 26 25  2  0  0  0  0
 27 23  1  0  0  0  0
 29 25  1  0  0  0  0
 30 26  1  0  0  0  0
 31 30  1  0  0  0  0
 32 30  2  0  0  0  0
M  END
>  <minimizedAffinity>
-5.46715832

$$$$

 OpenBabel03252500163D

 32 34  0  0  0  0  0  0  0  0999 V2000
   37.9440   28.0720   39.3960 Cl  0  0  0  0  0  0  0  0  0  0  0  0
   37.7620   27.9580   41.1230 C   0  0  0  0  0  0  0  0  0  0  0  0
   37.6950   26.7420   41.7320 C   0  0  0  0  0  0  0  0  0  0  0  0
   37.5470   26.6200   43.1210 C   0  0  0  0  0  0  0  0  0  0  0  0
   37.4760   27.8030   43.8260 C   0  0  0  0  0  0  0  0  0  0  0  0
   37.5460   29.0220   43.1990 C   0  0  0  0  0  0  0  0  0  0  0  0
   37.6870   29.1220   41.8730 C   0  0  0  0  0  0  0  0  0  0  0  0
   37.4930   25.6570   43.6110 H   0  0  0  0  0  0  0  0  0  0  0  0
   37.3620   27.7530   44.9060 H   0  0  0  0  0  0  0  0  0  0  0  0
   37.4820   29.9010   43.8310 H   0  0  0  0  0  0  0  0  0  0  0  0
   39.0640   23.8930   39.8380 C   0  0  0  0  0  0  0  0  0  0  0  0
   37.8940   23.2220   39.4060 C   0  0  0  0  0  0  0  0  0  0  0  0
   36.6640   23.7580   39.7720 C   0  0  0  0  0  0  0  0  0  0  0  0
   36.6450   24.9000   40.5260 N   0  0  0  0  0  0  0  0  0  0  0  0
   37.7760   25.5170   40.9220 C   0  0  0  0  0  0  0  0  0  0  0  0
   38.9790   25.0100   40.5750 N   0  0  0  0  0  0  0  0  0  0  0  0
   40.0250   23.4820   39.5560 H   0  0  0  0  0  0  0  0  0  0  0  0
   37.9210   22.3140   38.8060 H   0  0  0  0  0  0  0  0  0  0  0  0
   35.3660   23.1410   39.3780 C   0  0  0  0  0  0  0  0  0  0  0  0
   35.5280   21.8250   39.0560 F   0  0  0  0  0  0  0  0  0  0  0  0
   34.4940   23.2350   40.4440 F   0  0  0  0  0  0  0  0  0  0  0  0
   34.8910   23.8680   38.3070 F   0  0  0  0  0  0  0  0  0  0  0  0
   37.7620   30.4000   41.1910 C   0  0  0  0  0  0  0  0  0  0  0  0
   36.6820   31.1220   40.7190 C   0  0  0  0  0  0  0  0  0  0  0  0
   37.1050   32.2810   40.1280 C   0  0  0  0  0  0  0  0  0  0  0  0
   38.4800   32.2210   40.2680 C   0  0  0  0  0  0  0  0  0  0  0  0
   38.8190   31.1080   40.8920 O   0  0  0  0  0  0  0  0  0  0  0  0
   35.6180   30.8480   40.7840 H   0  0  0  0  0  0  0  0  0  0  0  0
   36.5960   33.1040   39.6470 H   0  0  0  0  0  0  0  0  0  0  0  0
   39.5370   33.1390   39.8560 C   0  0  0  0  0  0  0  0  0  0  0  0
   40.4050   32.7140   39.3830 H   0  0  0  0  0  0  0  0  0  0  0  0
   39.5590   34.3820   39.9850 O   0  0  0  0  0  0  0  0  0  0  0  0
  1  2  1  0  0  0  0
  2  3  2  0  0  0  0
  2  7  1  0  0  0  0
  3  4  1  0  0  0  0
  4  8  1  0  0  0  0
  4  5  2  0  0  0  0
  5  9  1  0  0  0  0
  6  5  1  0  0  0  0
  6 10  1  0  0  0  0
  7  6  2  0  0  0  0
 11 16  1  0  0  0  0
 12 13  1  0  0  0  0
 12 11  2  0  0  0  0
 13 14  2  0  0  0  0
 14 15  1  0  0  0  0
 15  3  1  0  0  0  0
 16 15  2  0  0  0  0
 17 11  1  0  0  0  0
 18 12  1  0  0  0  0
 19 13  1  0  0  0  0
 19 21  1  0  0  0  0
 20 19  1  0  0  0  0
 22 19  1  0  0  0  0
 23  7  1  0  0  0  0
 24 28  1  0  0  0  0
 24 23  2  0  0  0  0
 25 26  2  0  0  0  0
 25 24  1  0  0  0  0
 26 27  1  0  0  0  0
 27 23  1  0  0  0  0
 29 25  1  0  0  0  0
 30 32  2  0  0  0  0
 30 26  1  0  0  0  0
 31 30  1  0  0  0  0
M  END
>  <minimizedAffinity>
-5.43811941

$$$$

 OpenBabel03252500163D

 32 34  0  0  0  0  0  0  0  0999 V2000
   40.4520   30.0990   41.4420 Cl  0  0  0  0  0  0  0  0  0  0  0  0
   39.1090   30.9560   40.7420 C   0  0  0  0  0  0  0  0  0  0  0  0
   37.8370   30.4980   40.9030 C   0  0  0  0  0  0  0  0  0  0  0  0
   36.7360   31.1690   40.3490 C   0  0  0  0  0  0  0  0  0  0  0  0
   37.0230   32.3140   39.6370 C   0  0  0  0  0  0  0  0  0  0  0  0
   38.3110   32.7640   39.4830 C   0  0  0  0  0  0  0  0  0  0  0  0
   39.3500   32.1140   40.0170 C   0  0  0  0  0  0  0  0  0  0  0  0
   35.7230   30.8100   40.4730 H   0  0  0  0  0  0  0  0  0  0  0  0
   36.1980   32.8640   39.1920 H   0  0  0  0  0  0  0  0  0  0  0  0
   38.4440   33.6730   38.9080 H   0  0  0  0  0  0  0  0  0  0  0  0
   37.3160   28.2000   43.7350 C   0  0  0  0  0  0  0  0  0  0  0  0
   37.1500   26.9500   43.0890 C   0  0  0  0  0  0  0  0  0  0  0  0
   37.2200   26.9220   41.7000 C   0  0  0  0  0  0  0  0  0  0  0  0
   37.4440   28.0950   41.0310 N   0  0  0  0  0  0  0  0  0  0  0  0
   37.5980   29.2700   41.6740 C   0  0  0  0  0  0  0  0  0  0  0  0
   37.5330   29.3140   43.0230 N   0  0  0  0  0  0  0  0  0  0  0  0
   37.2620   28.2290   44.8150 H   0  0  0  0  0  0  0  0  0  0  0  0
   36.9720   26.0230   43.6310 H   0  0  0  0  0  0  0  0  0  0  0  0
   37.0620   25.6680   40.9090 C   0  0  0  0  0  0  0  0  0  0  0  0
   36.4870   24.6850   41.6630 F   0  0  0  0  0  0  0  0  0  0  0  0
   36.2470   25.9330   39.8260 F   0  0  0  0  0  0  0  0  0  0  0  0
   38.3210   25.3070   40.4840 F   0  0  0  0  0  0  0  0  0  0  0  0
   40.7170   32.5730   39.8660 C   0  0  0  0  0  0  0  0  0  0  0  0
   41.2880   33.6330   40.5480 C   0  0  0  0  0  0  0  0  0  0  0  0
   42.5920   33.7960   40.1690 C   0  0  0  0  0  0  0  0  0  0  0  0
   42.7760   32.7920   39.2350 C   0  0  0  0  0  0  0  0  0  0  0  0
   41.6580   32.1040   39.0900 O   0  0  0  0  0  0  0  0  0  0  0  0
   40.8050   34.2800   41.2950 H   0  0  0  0  0  0  0  0  0  0  0  0
   43.3720   34.4870   40.4530 H   0  0  0  0  0  0  0  0  0  0  0  0
   43.9390   32.4070   38.4430 C   0  0  0  0  0  0  0  0  0  0  0  0
   44.8290   32.1230   38.9760 H   0  0  0  0  0  0  0  0  0  0  0  0
   44.0320   32.3640   37.1970 O   0  0  0  0  0  0  0  0  0  0  0  0
  2  3  1  0  0  0  0
  2  1  1  0  0  0  0
  3 15  1  0  0  0  0
  4  8  1  0  0  0  0
  4  3  2  0  0  0  0
  5  4  1  0  0  0  0
  6  5  2  0  0  0  0
  6  7  1  0  0  0  0
  7  2  2  0  0  0  0
  9  5  1  0  0  0  0
 10  6  1  0  0  0  0
 11 17  1  0  0  0  0
 12 18  1  0  0  0  0
 12 11  1  0  0  0  0
 13 12  2  0  0  0  0
 14 15  2  0  0  0  0
 14 13  1  0  0  0  0
 15 16  1  0  0  0  0
 16 11  2  0  0  0  0
 19 20  1  0  0  0  0
 19 13  1  0  0  0  0
 21 19  1  0  0  0  0
 22 19  1  0  0  0  0
 23  7  1  0  0  0  0
 23 24  2  0  0  0  0
 24 28  1  0  0  0  0
 25 29  1  0  0  0  0
 25 24  1  0  0  0  0
 26 25  2  0  0  0  0
 27 26  1  0  0  0  0
 27 23  1  0  0  0  0
 30 31  1  0  0  0  0
 30 26  1  0  0  0  0
 32 30  2  0  0  0  0
M  END
>  <minimizedAffinity>
-5.36170053

$$$$
