
 OpenBabel03252500593D

 32 33  0  0  0  0  0  0  0  0999 V2000
   37.1980   28.8570   40.6440 O   0  0  0  0  0  0  0  0  0  0  0  0
   37.0550   26.8400   41.8570 C   0  0  0  0  0  0  0  0  0  0  0  0
   37.0660   27.4780   40.6400 C   0  0  0  0  0  0  0  0  0  0  0  0
   36.9440   26.6810   39.4790 C   0  0  0  0  0  0  0  0  0  0  0  0
   36.8240   25.3510   39.6550 N   0  0  0  0  0  0  0  0  0  0  0  0
   36.8160   24.7600   40.8410 C   0  0  0  0  0  0  0  0  0  0  0  0
   36.9320   25.5060   41.9530 N   0  0  0  0  0  0  0  0  0  0  0  0
   36.9580   27.2220   38.5680 H   0  0  0  0  0  0  0  0  0  0  0  0
   36.7190   23.6880   40.9660 H   0  0  0  0  0  0  0  0  0  0  0  0
   37.1800   27.6040   43.1040 C   0  0  0  0  0  0  0  0  0  0  0  0
   37.0170   28.6950   42.9730 H   0  0  0  0  0  0  0  0  0  0  0  0
   36.4490   27.2210   43.8470 H   0  0  0  0  0  0  0  0  0  0  0  0
   38.5570   27.4070   43.6680 C   0  0  0  0  0  0  0  0  0  0  0  0
   39.2740   27.5160   42.8080 H   0  0  0  0  0  0  0  0  0  0  0  0
   38.7130   26.4270   44.1600 H   0  0  0  0  0  0  0  0  0  0  0  0
   38.7850   28.2770   44.3310 H   0  0  0  0  0  0  0  0  0  0  0  0
   34.7870   29.2540   39.6590 O   0  0  0  0  0  0  0  0  0  0  0  0
   36.0170   29.9850   40.1670 P   0  0  1  0  0  0  0  0  0  0  0  0
   35.5920   30.8920   41.5300 O   0  0  0  0  0  0  0  0  0  0  0  0
   34.6150   30.8140   41.6980 H   0  0  0  0  0  0  0  0  0  0  0  0
   36.5730   31.0660   38.9960 O   0  0  0  0  0  0  0  0  0  0  0  0
   37.6300   31.9150   39.3120 C   0  0  0  0  0  0  0  0  0  0  0  0
   37.2840   33.2230   39.6500 C   0  0  0  0  0  0  0  0  0  0  0  0
   38.2820   34.1440   39.9820 C   0  0  0  0  0  0  0  0  0  0  0  0
   39.5740   33.7420   39.9690 N   0  0  0  0  0  0  0  0  0  0  0  0
   39.8770   32.4830   39.6430 C   0  0  0  0  0  0  0  0  0  0  0  0
   38.9450   31.5930   39.3240 N   0  0  0  0  0  0  0  0  0  0  0  0
   36.2770   33.6300   39.6860 H   0  0  0  0  0  0  0  0  0  0  0  0
   38.0670   35.1710   40.2510 H   0  0  0  0  0  0  0  0  0  0  0  0
   41.2820   32.0950   39.6420 C   0  0  0  0  0  0  0  0  0  0  0  0
   42.0830   32.8060   39.4880 H   0  0  0  0  0  0  0  0  0  0  0  0
   41.7380   30.9520   39.8080 O   0  0  0  0  0  0  0  0  0  0  0  0
  2  7  1  0  0  0  0
  2 10  1  0  0  0  0
  3  1  1  0  0  0  0
  3  2  2  0  0  0  0
  4  5  2  0  0  0  0
  4  3  1  0  0  0  0
  5  6  1  0  0  0  0
  6  9  1  0  0  0  0
  6  7  2  0  0  0  0
  8  4  1  0  0  0  0
 10 13  1  0  0  0  0
 10 12  1  0  0  0  0
 11 10  1  0  0  0  0
 13 15  1  0  0  0  0
 13 16  1  0  0  0  0
 14 13  1  0  0  0  0
 18 17  2  6  0  0  0
 18  1  1  0  0  0  0
 18 19  1  0  0  0  0
 19 20  1  0  0  0  0
 21 22  1  0  0  0  0
 21 18  1  0  0  0  0
 22 27  2  0  0  0  0
 22 23  1  0  0  0  0
 23 28  1  0  0  0  0
 23 24  2  0  0  0  0
 24 29  1  0  0  0  0
 25 24  1  0  0  0  0
 26 25  2  0  0  0  0
 27 26  1  0  0  0  0
 30 26  1  0  0  0  0
 30 32  2  0  0  0  0
 31 30  1  0  0  0  0
M  END
>  <minimizedAffinity>
-5.05922079

$$$$

 OpenBabel03252500593D

 32 33  0  0  0  0  0  0  0  0999 V2000
   36.0280   28.2220   41.4370 O   0  0  0  0  0  0  0  0  0  0  0  0
   37.8120   26.7230   41.7980 C   0  0  0  0  0  0  0  0  0  0  0  0
   37.2750   27.9750   41.9850 C   0  0  0  0  0  0  0  0  0  0  0  0
   38.0350   28.9130   42.7220 C   0  0  0  0  0  0  0  0  0  0  0  0
   39.2320   28.5060   43.1860 N   0  0  0  0  0  0  0  0  0  0  0  0
   39.7270   27.2930   42.9920 C   0  0  0  0  0  0  0  0  0  0  0  0
   39.0150   26.3910   42.2940 N   0  0  0  0  0  0  0  0  0  0  0  0
   37.5760   29.8610   42.8370 H   0  0  0  0  0  0  0  0  0  0  0  0
   40.6930   26.9810   43.3730 H   0  0  0  0  0  0  0  0  0  0  0  0
   37.0800   25.6990   41.0450 C   0  0  0  0  0  0  0  0  0  0  0  0
   36.0870   26.0420   40.6830 H   0  0  0  0  0  0  0  0  0  0  0  0
   37.6850   25.3780   40.1720 H   0  0  0  0  0  0  0  0  0  0  0  0
   36.8630   24.5010   41.9230 C   0  0  0  0  0  0  0  0  0  0  0  0
   36.5200   24.8920   42.9200 H   0  0  0  0  0  0  0  0  0  0  0  0
   37.7620   23.8690   42.0610 H   0  0  0  0  0  0  0  0  0  0  0  0
   35.9830   23.9390   41.5270 H   0  0  0  0  0  0  0  0  0  0  0  0
   34.2300   29.2690   39.8210 O   0  0  0  0  0  0  0  0  0  0  0  0
   35.6250   29.4910   40.3770 P   0  0  1  0  0  0  0  0  0  0  0  0
   35.6380   30.9290   41.2690 O   0  0  0  0  0  0  0  0  0  0  0  0
   34.7500   31.3730   41.2080 H   0  0  0  0  0  0  0  0  0  0  0  0
   36.7300   29.6720   39.1140 O   0  0  0  0  0  0  0  0  0  0  0  0
   37.9680   30.2490   39.3820 C   0  0  0  0  0  0  0  0  0  0  0  0
   39.0840   29.4550   39.1140 C   0  0  0  0  0  0  0  0  0  0  0  0
   40.3680   29.9550   39.3540 C   0  0  0  0  0  0  0  0  0  0  0  0
   40.5000   31.2090   39.8430 N   0  0  0  0  0  0  0  0  0  0  0  0
   39.4160   31.9480   40.0900 C   0  0  0  0  0  0  0  0  0  0  0  0
   38.1870   31.4930   39.8700 N   0  0  0  0  0  0  0  0  0  0  0  0
   39.0690   28.4430   38.7220 H   0  0  0  0  0  0  0  0  0  0  0  0
   41.2650   29.3800   39.1640 H   0  0  0  0  0  0  0  0  0  0  0  0
   39.6070   33.2930   40.6180 C   0  0  0  0  0  0  0  0  0  0  0  0
   40.5780   33.6720   40.9070 H   0  0  0  0  0  0  0  0  0  0  0  0
   38.7290   34.1510   40.8020 O   0  0  0  0  0  0  0  0  0  0  0  0
  1  3  1  0  0  0  0
  2  3  2  0  0  0  0
  2  7  1  0  0  0  0
  3  4  1  0  0  0  0
  4  8  1  0  0  0  0
  4  5  2  0  0  0  0
  6  5  1  0  0  0  0
  6  9  1  0  0  0  0
  7  6  2  0  0  0  0
 10  2  1  0  0  0  0
 10 13  1  0  0  0  0
 11 10  1  0  0  0  0
 12 10  1  0  0  0  0
 13 15  1  0  0  0  0
 13 14  1  0  0  0  0
 16 13  1  0  0  0  0
 18 17  2  6  0  0  0
 18 19  1  0  0  0  0
 18  1  1  0  0  0  0
 20 19  1  0  0  0  0
 21 22  1  0  0  0  0
 21 18  1  0  0  0  0
 22 27  1  0  0  0  0
 23 24  1  0  0  0  0
 23 22  2  0  0  0  0
 24 25  2  0  0  0  0
 25 26  1  0  0  0  0
 26 30  1  0  0  0  0
 27 26  2  0  0  0  0
 28 23  1  0  0  0  0
 29 24  1  0  0  0  0
 30 32  2  0  0  0  0
 30 31  1  0  0  0  0
M  END
>  <minimizedAffinity>
-4.92273474

$$$$

 OpenBabel03252500593D

 32 33  0  0  0  0  0  0  0  0999 V2000
   37.5830   29.2510   40.2190 O   0  0  0  0  0  0  0  0  0  0  0  0
   39.0180   28.8260   42.0400 C   0  0  0  0  0  0  0  0  0  0  0  0
   37.8490   28.5390   41.3760 C   0  0  0  0  0  0  0  0  0  0  0  0
   37.0100   27.5410   41.9220 C   0  0  0  0  0  0  0  0  0  0  0  0
   37.4220   26.9450   43.0580 N   0  0  0  0  0  0  0  0  0  0  0  0
   38.5550   27.2410   43.6790 C   0  0  0  0  0  0  0  0  0  0  0  0
   39.3620   28.1870   43.1710 N   0  0  0  0  0  0  0  0  0  0  0  0
   36.1230   27.3590   41.3720 H   0  0  0  0  0  0  0  0  0  0  0  0
   38.8720   26.7520   44.5930 H   0  0  0  0  0  0  0  0  0  0  0  0
   39.9380   29.8500   41.5300 C   0  0  0  0  0  0  0  0  0  0  0  0
   41.0090   29.5770   41.6430 H   0  0  0  0  0  0  0  0  0  0  0  0
   39.7280   30.0350   40.4570 H   0  0  0  0  0  0  0  0  0  0  0  0
   39.7070   31.1340   42.2730 C   0  0  0  0  0  0  0  0  0  0  0  0
   39.6310   30.8650   43.3630 H   0  0  0  0  0  0  0  0  0  0  0  0
   38.7980   31.6840   41.9620 H   0  0  0  0  0  0  0  0  0  0  0  0
   40.6400   31.7450   42.2020 H   0  0  0  0  0  0  0  0  0  0  0  0
   35.0920   29.4380   39.3800 O   0  0  0  0  0  0  0  0  0  0  0  0
   36.2400   30.2590   39.9400 P   0  0  1  0  0  0  0  0  0  0  0  0
   35.7710   30.9150   41.4280 O   0  0  0  0  0  0  0  0  0  0  0  0
   34.8240   30.6820   41.6170 H   0  0  0  0  0  0  0  0  0  0  0  0
   36.5870   31.5490   38.9080 O   0  0  0  0  0  0  0  0  0  0  0  0
   37.7690   32.2600   39.0940 C   0  0  0  0  0  0  0  0  0  0  0  0
   37.6830   33.3880   39.9110 C   0  0  0  0  0  0  0  0  0  0  0  0
   38.8230   34.1610   40.1530 C   0  0  0  0  0  0  0  0  0  0  0  0
   39.9950   33.7950   39.5840 N   0  0  0  0  0  0  0  0  0  0  0  0
   40.0490   32.7100   38.8070 C   0  0  0  0  0  0  0  0  0  0  0  0
   38.9790   31.9620   38.5640 N   0  0  0  0  0  0  0  0  0  0  0  0
   36.7880   33.7520   40.4060 H   0  0  0  0  0  0  0  0  0  0  0  0
   38.8100   35.0450   40.7780 H   0  0  0  0  0  0  0  0  0  0  0  0
   41.3330   32.3550   38.2160 C   0  0  0  0  0  0  0  0  0  0  0  0
   41.9740   31.5890   38.6320 H   0  0  0  0  0  0  0  0  0  0  0  0
   41.8490   32.8540   37.2030 O   0  0  0  0  0  0  0  0  0  0  0  0
  1  3  1  0  0  0  0
  2  7  1  0  0  0  0
  3  4  1  0  0  0  0
  3  2  2  0  0  0  0
  4  5  2  0  0  0  0
  5  6  1  0  0  0  0
  6  9  1  0  0  0  0
  7  6  2  0  0  0  0
  8  4  1  0  0  0  0
 10 11  1  0  0  0  0
 10  2  1  0  0  0  0
 10 13  1  0  0  0  0
 12 10  1  0  0  0  0
 13 14  1  0  0  0  0
 15 13  1  0  0  0  0
 16 13  1  0  0  0  0
 18 17  2  6  0  0  0
 18  1  1  0  0  0  0
 18 19  1  0  0  0  0
 19 20  1  0  0  0  0
 21 22  1  0  0  0  0
 21 18  1  0  0  0  0
 22 23  1  0  0  0  0
 23 24  2  0  0  0  0
 23 28  1  0  0  0  0
 24 29  1  0  0  0  0
 25 24  1  0  0  0  0
 26 25  2  0  0  0  0
 27 26  1  0  0  0  0
 27 22  2  0  0  0  0
 30 31  1  0  0  0  0
 30 26  1  0  0  0  0
 32 30  2  0  0  0  0
M  END
>  <minimizedAffinity>
-4.91702938

$$$$

 OpenBabel03252500593D

 32 33  0  0  0  0  0  0  0  0999 V2000
   36.5510   31.2380   40.9710 O   0  0  0  0  0  0  0  0  0  0  0  0
   36.0440   28.9400   41.1000 C   0  0  0  0  0  0  0  0  0  0  0  0
   36.8450   29.9880   41.4870 C   0  0  0  0  0  0  0  0  0  0  0  0
   37.9060   29.7100   42.3790 C   0  0  0  0  0  0  0  0  0  0  0  0
   38.0510   28.4330   42.7840 N   0  0  0  0  0  0  0  0  0  0  0  0
   37.2630   27.4410   42.3970 C   0  0  0  0  0  0  0  0  0  0  0  0
   36.2510   27.6910   41.5490 N   0  0  0  0  0  0  0  0  0  0  0  0
   38.4920   30.5510   42.6450 H   0  0  0  0  0  0  0  0  0  0  0  0
   37.3940   26.4180   42.7320 H   0  0  0  0  0  0  0  0  0  0  0  0
   34.9230   29.1540   40.1770 C   0  0  0  0  0  0  0  0  0  0  0  0
   33.9900   28.6390   40.4880 H   0  0  0  0  0  0  0  0  0  0  0  0
   34.7180   30.2410   40.0900 H   0  0  0  0  0  0  0  0  0  0  0  0
   35.3010   28.6450   38.8160 C   0  0  0  0  0  0  0  0  0  0  0  0
   35.7840   27.6410   38.9720 H   0  0  0  0  0  0  0  0  0  0  0  0
   35.9910   29.3070   38.2570 H   0  0  0  0  0  0  0  0  0  0  0  0
   34.3590   28.4170   38.2610 H   0  0  0  0  0  0  0  0  0  0  0  0
   37.2800   31.5960   38.4650 O   0  0  0  0  0  0  0  0  0  0  0  0
   37.4990   32.1250   39.8710 P   0  0  1  0  0  0  0  0  0  0  0  0
   36.9910   33.7380   39.9360 O   0  0  0  0  0  0  0  0  0  0  0  0
   36.7020   34.0380   39.0340 H   0  0  0  0  0  0  0  0  0  0  0  0
   39.1440   32.1000   40.2490 O   0  0  0  0  0  0  0  0  0  0  0  0
   40.0700   32.0180   39.2130 C   0  0  0  0  0  0  0  0  0  0  0  0
   40.5860   33.2310   38.7550 C   0  0  0  0  0  0  0  0  0  0  0  0
   41.5220   33.2420   37.7170 C   0  0  0  0  0  0  0  0  0  0  0  0
   41.9110   32.0660   37.1740 N   0  0  0  0  0  0  0  0  0  0  0  0
   41.4020   30.9190   37.6310 C   0  0  0  0  0  0  0  0  0  0  0  0
   40.5110   30.8850   38.6160 N   0  0  0  0  0  0  0  0  0  0  0  0
   40.3310   34.2170   39.1320 H   0  0  0  0  0  0  0  0  0  0  0  0
   41.9520   34.1550   37.3250 H   0  0  0  0  0  0  0  0  0  0  0  0
   41.8500   29.6760   37.0150 C   0  0  0  0  0  0  0  0  0  0  0  0
   41.7060   28.7110   37.4800 H   0  0  0  0  0  0  0  0  0  0  0  0
   42.4320   29.5540   35.9250 O   0  0  0  0  0  0  0  0  0  0  0  0
  1  3  1  0  0  0  0
  2  3  2  0  0  0  0
  2  7  1  0  0  0  0
  3  4  1  0  0  0  0
  4  8  1  0  0  0  0
  4  5  2  0  0  0  0
  6  9  1  0  0  0  0
  6  5  1  0  0  0  0
  7  6  2  0  0  0  0
 10 11  1  0  0  0  0
 10  2  1  0  0  0  0
 12 10  1  0  0  0  0
 13 14  1  0  0  0  0
 13 10  1  0  0  0  0
 15 13  1  0  0  0  0
 16 13  1  0  0  0  0
 18 17  2  6  0  0  0
 18 19  1  0  0  0  0
 18 21  1  0  0  0  0
 18  1  1  0  0  0  0
 20 19  1  0  0  0  0
 22 21  1  0  0  0  0
 23 28  1  0  0  0  0
 23 22  1  0  0  0  0
 24 23  2  0  0  0  0
 25 26  2  0  0  0  0
 25 24  1  0  0  0  0
 26 27  1  0  0  0  0
 27 22  2  0  0  0  0
 29 24  1  0  0  0  0
 30 31  1  0  0  0  0
 30 26  1  0  0  0  0
 32 30  2  0  0  0  0
M  END
>  <minimizedAffinity>
-4.88855791

$$$$

 OpenBabel03252500593D

 32 33  0  0  0  0  0  0  0  0999 V2000
   38.3540   28.3950   41.2580 O   0  0  0  0  0  0  0  0  0  0  0  0
   38.9180   26.2670   42.1010 C   0  0  0  0  0  0  0  0  0  0  0  0
   39.1450   27.6230   42.0910 C   0  0  0  0  0  0  0  0  0  0  0  0
   40.1660   28.1240   42.9310 C   0  0  0  0  0  0  0  0  0  0  0  0
   40.8420   27.2310   43.6790 N   0  0  0  0  0  0  0  0  0  0  0  0
   40.6030   25.9280   43.6700 C   0  0  0  0  0  0  0  0  0  0  0  0
   39.6350   25.4370   42.8770 N   0  0  0  0  0  0  0  0  0  0  0  0
   40.3000   29.1740   42.8850 H   0  0  0  0  0  0  0  0  0  0  0  0
   41.1560   25.2220   44.2790 H   0  0  0  0  0  0  0  0  0  0  0  0
   37.8740   25.6760   41.2560 C   0  0  0  0  0  0  0  0  0  0  0  0
   37.2700   26.4300   40.7080 H   0  0  0  0  0  0  0  0  0  0  0  0
   38.3390   24.9880   40.5190 H   0  0  0  0  0  0  0  0  0  0  0  0
   36.9410   24.8710   42.1140 C   0  0  0  0  0  0  0  0  0  0  0  0
   36.7160   25.5000   43.0190 H   0  0  0  0  0  0  0  0  0  0  0  0
   37.3470   23.8910   42.4340 H   0  0  0  0  0  0  0  0  0  0  0  0
   35.9640   24.7920   41.5790 H   0  0  0  0  0  0  0  0  0  0  0  0
   35.7250   28.5540   41.1920 O   0  0  0  0  0  0  0  0  0  0  0  0
   36.9630   29.2650   41.7090 P   0  0  1  0  0  0  0  0  0  0  0  0
   36.9060   29.3050   43.4000 O   0  0  0  0  0  0  0  0  0  0  0  0
   36.0530   28.9080   43.7190 H   0  0  0  0  0  0  0  0  0  0  0  0
   36.9810   30.8630   41.1680 O   0  0  0  0  0  0  0  0  0  0  0  0
   37.6200   31.1590   39.9670 C   0  0  0  0  0  0  0  0  0  0  0  0
   36.9150   30.8430   38.8050 C   0  0  0  0  0  0  0  0  0  0  0  0
   37.4810   31.1060   37.5530 C   0  0  0  0  0  0  0  0  0  0  0  0
   38.7110   31.6660   37.4970 N   0  0  0  0  0  0  0  0  0  0  0  0
   39.3640   31.9590   38.6250 C   0  0  0  0  0  0  0  0  0  0  0  0
   38.8450   31.7170   39.8230 N   0  0  0  0  0  0  0  0  0  0  0  0
   35.9270   30.3940   38.7580 H   0  0  0  0  0  0  0  0  0  0  0  0
   36.9770   30.8800   36.6220 H   0  0  0  0  0  0  0  0  0  0  0  0
   40.6870   32.5610   38.5150 C   0  0  0  0  0  0  0  0  0  0  0  0
   41.5620   31.9950   38.2300 H   0  0  0  0  0  0  0  0  0  0  0  0
   40.9820   33.7490   38.7230 O   0  0  0  0  0  0  0  0  0  0  0  0
  1 18  1  0  0  0  0
  1  3  1  0  0  0  0
  2  7  1  0  0  0  0
  3  2  2  0  0  0  0
  3  4  1  0  0  0  0
  4  5  2  0  0  0  0
  6  5  1  0  0  0  0
  6  9  1  0  0  0  0
  7  6  2  0  0  0  0
  8  4  1  0  0  0  0
 10  2  1  0  0  0  0
 10 13  1  0  0  0  0
 11 10  1  0  0  0  0
 12 10  1  0  0  0  0
 13 15  1  0  0  0  0
 13 14  1  0  0  0  0
 16 13  1  0  0  0  0
 18 17  2  6  0  0  0
 18 19  1  0  0  0  0
 19 20  1  0  0  0  0
 21 18  1  0  0  0  0
 22 21  1  0  0  0  0
 23 22  2  0  0  0  0
 24 23  1  0  0  0  0
 25 24  2  0  0  0  0
 25 26  1  0  0  0  0
 26 27  2  0  0  0  0
 27 22  1  0  0  0  0
 28 23  1  0  0  0  0
 29 24  1  0  0  0  0
 30 26  1  0  0  0  0
 30 32  2  0  0  0  0
 31 30  1  0  0  0  0
M  END
>  <minimizedAffinity>
-4.78434324

$$$$

 OpenBabel03252500593D

 32 33  0  0  0  0  0  0  0  0999 V2000
   36.3220   28.4780   41.2520 O   0  0  0  0  0  0  0  0  0  0  0  0
   37.4270   26.4090   41.0180 C   0  0  0  0  0  0  0  0  0  0  0  0
   37.1960   27.5370   41.7690 C   0  0  0  0  0  0  0  0  0  0  0  0
   37.8650   27.6490   43.0090 C   0  0  0  0  0  0  0  0  0  0  0  0
   38.6820   26.6380   43.3610 N   0  0  0  0  0  0  0  0  0  0  0  0
   38.8880   25.5610   42.6180 C   0  0  0  0  0  0  0  0  0  0  0  0
   38.2580   25.4410   41.4370 N   0  0  0  0  0  0  0  0  0  0  0  0
   37.6520   28.5370   43.5470 H   0  0  0  0  0  0  0  0  0  0  0  0
   39.5500   24.7560   42.9160 H   0  0  0  0  0  0  0  0  0  0  0  0
   36.7660   26.2240   39.7210 C   0  0  0  0  0  0  0  0  0  0  0  0
   35.8770   26.8760   39.5800 H   0  0  0  0  0  0  0  0  0  0  0  0
   37.4890   26.4270   38.9040 H   0  0  0  0  0  0  0  0  0  0  0  0
   36.3160   24.7970   39.5950 C   0  0  0  0  0  0  0  0  0  0  0  0
   35.8340   24.5250   40.5740 H   0  0  0  0  0  0  0  0  0  0  0  0
   37.1310   24.0810   39.3710 H   0  0  0  0  0  0  0  0  0  0  0  0
   35.4810   24.7640   38.8550 H   0  0  0  0  0  0  0  0  0  0  0  0
   36.5880   30.1090   39.2000 O   0  0  0  0  0  0  0  0  0  0  0  0
   36.7250   30.0400   40.7100 P   0  0  1  0  0  0  0  0  0  0  0  0
   35.6330   31.1260   41.4110 O   0  0  0  0  0  0  0  0  0  0  0  0
   35.1580   31.6330   40.7000 H   0  0  0  0  0  0  0  0  0  0  0  0
   38.2770   30.5170   41.1730 O   0  0  0  0  0  0  0  0  0  0  0  0
   38.8930   31.5580   40.4830 C   0  0  0  0  0  0  0  0  0  0  0  0
   38.7270   32.8330   41.0230 C   0  0  0  0  0  0  0  0  0  0  0  0
   39.3110   33.9370   40.3950 C   0  0  0  0  0  0  0  0  0  0  0  0
   40.0320   33.7420   39.2670 N   0  0  0  0  0  0  0  0  0  0  0  0
   40.1760   32.5110   38.7710 C   0  0  0  0  0  0  0  0  0  0  0  0
   39.6290   31.4480   39.3510 N   0  0  0  0  0  0  0  0  0  0  0  0
   38.1670   33.0800   41.9210 H   0  0  0  0  0  0  0  0  0  0  0  0
   39.2120   34.9470   40.7730 H   0  0  0  0  0  0  0  0  0  0  0  0
   40.9610   32.3490   37.5540 C   0  0  0  0  0  0  0  0  0  0  0  0
   41.2300   33.1820   36.9190 H   0  0  0  0  0  0  0  0  0  0  0  0
   41.4090   31.2860   37.0940 O   0  0  0  0  0  0  0  0  0  0  0  0
  1  3  1  0  0  0  0
  2  7  2  0  0  0  0
  2  3  1  0  0  0  0
  3  4  2  0  0  0  0
  4  5  1  0  0  0  0
  4  8  1  0  0  0  0
  6  9  1  0  0  0  0
  6  5  2  0  0  0  0
  7  6  1  0  0  0  0
 10  2  1  0  0  0  0
 11 10  1  0  0  0  0
 12 10  1  0  0  0  0
 13 10  1  0  0  0  0
 13 14  1  0  0  0  0
 15 13  1  0  0  0  0
 16 13  1  0  0  0  0
 18 17  2  6  0  0  0
 18 21  1  0  0  0  0
 18  1  1  0  0  0  0
 18 19  1  0  0  0  0
 20 19  1  0  0  0  0
 22 23  1  0  0  0  0
 22 21  1  0  0  0  0
 23 28  1  0  0  0  0
 24 29  1  0  0  0  0
 24 23  2  0  0  0  0
 25 24  1  0  0  0  0
 26 25  2  0  0  0  0
 26 27  1  0  0  0  0
 27 22  2  0  0  0  0
 30 26  1  0  0  0  0
 31 30  1  0  0  0  0
 32 30  2  0  0  0  0
M  END
>  <minimizedAffinity>
-4.74915361

$$$$

 OpenBabel03252500593D

 32 33  0  0  0  0  0  0  0  0999 V2000
   37.1240   29.8180   39.4750 O   0  0  0  0  0  0  0  0  0  0  0  0
   38.5040   31.3840   38.3790 C   0  0  0  0  0  0  0  0  0  0  0  0
   38.3570   30.1330   38.9300 C   0  0  0  0  0  0  0  0  0  0  0  0
   39.4730   29.2650   38.8960 C   0  0  0  0  0  0  0  0  0  0  0  0
   40.6000   29.7330   38.3260 N   0  0  0  0  0  0  0  0  0  0  0  0
   40.7150   30.9450   37.8020 C   0  0  0  0  0  0  0  0  0  0  0  0
   39.6620   31.7800   37.8260 N   0  0  0  0  0  0  0  0  0  0  0  0
   39.3070   28.3150   39.3330 H   0  0  0  0  0  0  0  0  0  0  0  0
   41.6300   31.3060   37.3460 H   0  0  0  0  0  0  0  0  0  0  0  0
   37.3880   32.3380   38.3770 C   0  0  0  0  0  0  0  0  0  0  0  0
   37.3310   32.9490   37.4520 H   0  0  0  0  0  0  0  0  0  0  0  0
   36.4320   31.7890   38.5020 H   0  0  0  0  0  0  0  0  0  0  0  0
   37.5380   33.2750   39.5410 C   0  0  0  0  0  0  0  0  0  0  0  0
   38.6170   33.5930   39.5600 H   0  0  0  0  0  0  0  0  0  0  0  0
   37.2630   32.8340   40.5190 H   0  0  0  0  0  0  0  0  0  0  0  0
   36.9760   34.2100   39.3030 H   0  0  0  0  0  0  0  0  0  0  0  0
   37.9740   30.0790   41.9560 O   0  0  0  0  0  0  0  0  0  0  0  0
   36.7460   29.7330   41.1320 P   0  0  1  0  0  0  0  0  0  0  0  0
   35.5370   30.8760   41.4430 O   0  0  0  0  0  0  0  0  0  0  0  0
   35.8450   31.5130   42.1410 H   0  0  0  0  0  0  0  0  0  0  0  0
   36.1450   28.2250   41.5950 O   0  0  0  0  0  0  0  0  0  0  0  0
   36.9400   27.0980   41.4060 C   0  0  0  0  0  0  0  0  0  0  0  0
   36.8270   26.4700   40.1660 C   0  0  0  0  0  0  0  0  0  0  0  0
   37.5890   25.3310   39.8900 C   0  0  0  0  0  0  0  0  0  0  0  0
   38.4280   24.8590   40.8410 N   0  0  0  0  0  0  0  0  0  0  0  0
   38.5170   25.4800   42.0200 C   0  0  0  0  0  0  0  0  0  0  0  0
   37.8020   26.5630   42.3030 N   0  0  0  0  0  0  0  0  0  0  0  0
   36.1820   26.7800   39.3480 H   0  0  0  0  0  0  0  0  0  0  0  0
   37.5380   24.8060   38.9440 H   0  0  0  0  0  0  0  0  0  0  0  0
   39.4330   24.9350   43.0130 C   0  0  0  0  0  0  0  0  0  0  0  0
   39.4610   23.8840   43.2660 H   0  0  0  0  0  0  0  0  0  0  0  0
   40.2700   25.5670   43.6790 O   0  0  0  0  0  0  0  0  0  0  0  0
  1 18  1  0  0  0  0
  2  3  1  0  0  0  0
  3  1  1  0  0  0  0
  4  3  2  0  0  0  0
  4  8  1  0  0  0  0
  5  4  1  0  0  0  0
  6  7  1  0  0  0  0
  6  5  2  0  0  0  0
  7  2  2  0  0  0  0
  9  6  1  0  0  0  0
 10  2  1  0  0  0  0
 10 12  1  0  0  0  0
 10 13  1  0  0  0  0
 11 10  1  0  0  0  0
 13 14  1  0  0  0  0
 13 15  1  0  0  0  0
 16 13  1  0  0  0  0
 18 19  1  0  0  0  0
 18 21  1  0  0  0  0
 18 17  2  1  0  0  0
 19 20  1  0  0  0  0
 22 21  1  0  0  0  0
 22 27  1  0  0  0  0
 23 22  2  0  0  0  0
 24 23  1  0  0  0  0
 24 25  2  0  0  0  0
 25 26  1  0  0  0  0
 26 27  2  0  0  0  0
 26 30  1  0  0  0  0
 28 23  1  0  0  0  0
 29 24  1  0  0  0  0
 30 31  1  0  0  0  0
 30 32  2  0  0  0  0
M  END
>  <minimizedAffinity>
-4.74210691

$$$$

 OpenBabel03252500593D

 32 33  0  0  0  0  0  0  0  0999 V2000
   38.2230   27.2140   41.8840 O   0  0  0  0  0  0  0  0  0  0  0  0
   38.8130   24.9340   41.9750 C   0  0  0  0  0  0  0  0  0  0  0  0
   38.1190   25.9420   41.3490 C   0  0  0  0  0  0  0  0  0  0  0  0
   37.3540   25.6030   40.2090 C   0  0  0  0  0  0  0  0  0  0  0  0
   37.3640   24.3130   39.8220 N   0  0  0  0  0  0  0  0  0  0  0  0
   38.0420   23.3600   40.4440 C   0  0  0  0  0  0  0  0  0  0  0  0
   38.7740   23.6680   41.5290 N   0  0  0  0  0  0  0  0  0  0  0  0
   36.8390   26.4160   39.7650 H   0  0  0  0  0  0  0  0  0  0  0  0
   38.0400   22.3260   40.1200 H   0  0  0  0  0  0  0  0  0  0  0  0
   39.6290   25.2120   43.1630 C   0  0  0  0  0  0  0  0  0  0  0  0
   39.4850   26.2360   43.5680 H   0  0  0  0  0  0  0  0  0  0  0  0
   39.3870   24.4770   43.9590 H   0  0  0  0  0  0  0  0  0  0  0  0
   41.0800   25.0530   42.8130 C   0  0  0  0  0  0  0  0  0  0  0  0
   41.2320   25.5750   41.8290 H   0  0  0  0  0  0  0  0  0  0  0  0
   41.4160   24.0010   42.7320 H   0  0  0  0  0  0  0  0  0  0  0  0
   41.6770   25.6530   43.5420 H   0  0  0  0  0  0  0  0  0  0  0  0
   36.2960   27.2990   43.6780 O   0  0  0  0  0  0  0  0  0  0  0  0
   36.9660   28.1180   42.5890 P   0  0  1  0  0  0  0  0  0  0  0  0
   37.6520   29.4990   43.2860 O   0  0  0  0  0  0  0  0  0  0  0  0
   37.4370   29.5320   44.2550 H   0  0  0  0  0  0  0  0  0  0  0  0
   35.8170   28.6380   41.4670 O   0  0  0  0  0  0  0  0  0  0  0  0
   36.1970   29.5580   40.4940 C   0  0  0  0  0  0  0  0  0  0  0  0
   36.1080   29.1210   39.1720 C   0  0  0  0  0  0  0  0  0  0  0  0
   36.4700   29.9790   38.1290 C   0  0  0  0  0  0  0  0  0  0  0  0
   36.9020   31.2260   38.4280 N   0  0  0  0  0  0  0  0  0  0  0  0
   36.9770   31.6190   39.7020 C   0  0  0  0  0  0  0  0  0  0  0  0
   36.6390   30.8200   40.7070 N   0  0  0  0  0  0  0  0  0  0  0  0
   35.7730   28.1420   38.8420 H   0  0  0  0  0  0  0  0  0  0  0  0
   36.4200   29.6890   37.0870 H   0  0  0  0  0  0  0  0  0  0  0  0
   37.4480   32.9700   39.9760 C   0  0  0  0  0  0  0  0  0  0  0  0
   36.7780   33.8140   40.0670 H   0  0  0  0  0  0  0  0  0  0  0  0
   38.6270   33.3290   40.1340 O   0  0  0  0  0  0  0  0  0  0  0  0
  1 18  1  0  0  0  0
  2 10  1  0  0  0  0
  3  1  1  0  0  0  0
  3  2  2  0  0  0  0
  4  3  1  0  0  0  0
  5  4  2  0  0  0  0
  5  6  1  0  0  0  0
  6  7  2  0  0  0  0
  7  2  1  0  0  0  0
  8  4  1  0  0  0  0
  9  6  1  0  0  0  0
 10 11  1  0  0  0  0
 10 12  1  0  0  0  0
 13 10  1  0  0  0  0
 13 16  1  0  0  0  0
 14 13  1  0  0  0  0
 15 13  1  0  0  0  0
 18 19  1  0  0  0  0
 18 17  2  1  0  0  0
 19 20  1  0  0  0  0
 21 18  1  0  0  0  0
 22 27  1  0  0  0  0
 22 21  1  0  0  0  0
 23 22  2  0  0  0  0
 24 25  2  0  0  0  0
 24 23  1  0  0  0  0
 25 26  1  0  0  0  0
 26 30  1  0  0  0  0
 26 27  2  0  0  0  0
 28 23  1  0  0  0  0
 29 24  1  0  0  0  0
 30 31  1  0  0  0  0
 30 32  2  0  0  0  0
M  END
>  <minimizedAffinity>
-4.69314384

$$$$

 OpenBabel03252500593D

 32 33  0  0  0  0  0  0  0  0999 V2000
   37.1040   30.2220   41.7910 O   0  0  0  0  0  0  0  0  0  0  0  0
   39.1190   31.3900   41.4290 C   0  0  0  0  0  0  0  0  0  0  0  0
   37.8210   31.1450   41.0480 C   0  0  0  0  0  0  0  0  0  0  0  0
   37.3190   31.8500   39.9310 C   0  0  0  0  0  0  0  0  0  0  0  0
   38.1540   32.7140   39.3220 N   0  0  0  0  0  0  0  0  0  0  0  0
   39.4020   32.9330   39.7090 C   0  0  0  0  0  0  0  0  0  0  0  0
   39.8930   32.2690   40.7700 N   0  0  0  0  0  0  0  0  0  0  0  0
   36.3150   31.6240   39.6800 H   0  0  0  0  0  0  0  0  0  0  0  0
   40.0620   33.6310   39.2080 H   0  0  0  0  0  0  0  0  0  0  0  0
   39.7070   30.6950   42.5800 C   0  0  0  0  0  0  0  0  0  0  0  0
   40.3230   31.3550   43.2270 H   0  0  0  0  0  0  0  0  0  0  0  0
   38.8990   30.2470   43.1940 H   0  0  0  0  0  0  0  0  0  0  0  0
   40.5840   29.5800   42.0870 C   0  0  0  0  0  0  0  0  0  0  0  0
   41.2000   30.0040   41.2460 H   0  0  0  0  0  0  0  0  0  0  0  0
   40.0320   28.6890   41.7310 H   0  0  0  0  0  0  0  0  0  0  0  0
   41.3280   29.3500   42.8880 H   0  0  0  0  0  0  0  0  0  0  0  0
   35.2790   28.7590   40.5770 O   0  0  0  0  0  0  0  0  0  0  0  0
   36.6210   28.6720   41.2810 P   0  0  1  0  0  0  0  0  0  0  0  0
   37.7800   28.1070   40.1850 O   0  0  0  0  0  0  0  0  0  0  0  0
   37.3470   27.8910   39.3160 H   0  0  0  0  0  0  0  0  0  0  0  0
   36.5390   27.5580   42.5460 O   0  0  0  0  0  0  0  0  0  0  0  0
   37.4480   26.5040   42.5730 C   0  0  0  0  0  0  0  0  0  0  0  0
   36.9620   25.2650   42.1540 C   0  0  0  0  0  0  0  0  0  0  0  0
   37.8060   24.1510   42.1480 C   0  0  0  0  0  0  0  0  0  0  0  0
   39.0880   24.3000   42.5540 N   0  0  0  0  0  0  0  0  0  0  0  0
   39.5280   25.4970   42.9500 C   0  0  0  0  0  0  0  0  0  0  0  0
   38.7430   26.5680   42.9630 N   0  0  0  0  0  0  0  0  0  0  0  0
   35.9520   25.0570   41.8140 H   0  0  0  0  0  0  0  0  0  0  0  0
   37.4780   23.1680   41.8330 H   0  0  0  0  0  0  0  0  0  0  0  0
   40.9170   25.6090   43.3780 C   0  0  0  0  0  0  0  0  0  0  0  0
   41.2200   26.2200   44.2170 H   0  0  0  0  0  0  0  0  0  0  0  0
   41.9010   25.0490   42.8670 O   0  0  0  0  0  0  0  0  0  0  0  0
  2 10  1  0  0  0  0
  3  2  1  0  0  0  0
  3  1  1  0  0  0  0
  4  3  2  0  0  0  0
  5  6  2  0  0  0  0
  5  4  1  0  0  0  0
  6  7  1  0  0  0  0
  7  2  2  0  0  0  0
  8  4  1  0  0  0  0
  9  6  1  0  0  0  0
 10 12  1  0  0  0  0
 10 11  1  0  0  0  0
 13 10  1  0  0  0  0
 13 16  1  0  0  0  0
 14 13  1  0  0  0  0
 15 13  1  0  0  0  0
 18 17  2  6  0  0  0
 18  1  1  0  0  0  0
 18 21  1  0  0  0  0
 19 18  1  0  0  0  0
 20 19  1  0  0  0  0
 21 22  1  0  0  0  0
 22 27  1  0  0  0  0
 23 22  2  0  0  0  0
 24 23  1  0  0  0  0
 24 25  2  0  0  0  0
 25 26  1  0  0  0  0
 26 27  2  0  0  0  0
 26 30  1  0  0  0  0
 28 23  1  0  0  0  0
 29 24  1  0  0  0  0
 30 31  1  0  0  0  0
 32 30  2  0  0  0  0
M  END
>  <minimizedAffinity>
-4.64996243

$$$$
