
 OpenBabel03242514363D

 27 28  0  0  0  0  0  0  0  0999 V2000
   49.3920   35.4820   42.4450 O   0  0  0  0  0  0  0  0  0  0  0  0
   48.8050   34.2850   41.7520 P   0  0  1  0  0  0  0  0  0  0  0  0
   50.0570   33.2570   41.3140 O   0  0  0  0  0  0  0  0  0  0  0  0
   49.7180   32.3210   41.3290 H   0  0  0  0  0  0  0  0  0  0  0  0
   47.6860   33.4820   42.7930 O   0  0  0  0  0  0  0  0  0  0  0  0
   46.1380   35.3060   42.7840 C   0  0  0  0  0  0  0  0  0  0  0  0
   46.6660   34.2010   43.4240 C   0  0  0  0  0  0  0  0  0  0  0  0
   46.1550   33.8460   44.6790 C   0  0  0  0  0  0  0  0  0  0  0  0
   45.1570   34.6220   45.2020 N   0  0  0  0  0  0  0  0  0  0  0  0
   44.6720   35.6820   44.5550 C   0  0  0  0  0  0  0  0  0  0  0  0
   45.1580   36.0200   43.3610 N   0  0  0  0  0  0  0  0  0  0  0  0
   46.4560   35.6650   41.8220 H   0  0  0  0  0  0  0  0  0  0  0  0
   46.6070   32.9880   45.1110 H   0  0  0  0  0  0  0  0  0  0  0  0
   43.8780   36.2870   44.9880 H   0  0  0  0  0  0  0  0  0  0  0  0
   48.0210   34.7850   40.3800 O   0  0  0  0  0  0  0  0  0  0  0  0
   47.4340   34.0140   39.4380 C   0  0  0  0  0  0  0  0  0  0  0  0
   46.3140   33.5350   39.8380 O   0  0  0  0  0  0  0  0  0  0  0  0
   47.6340   33.5120   38.0640 C   0  0  0  0  0  0  0  0  0  0  0  0
   48.7720   33.7250   37.2310 C   0  0  0  0  0  0  0  0  0  0  0  0
   48.6700   33.1390   35.9950 C   0  0  0  0  0  0  0  0  0  0  0  0
   47.5990   32.4340   35.6100 C   0  0  0  0  0  0  0  0  0  0  0  0
   46.4970   32.5460   37.1560 S   0  0  0  0  0  0  0  0  0  0  0  0
   49.5720   34.2900   37.6120 H   0  0  0  0  0  0  0  0  0  0  0  0
   49.4710   33.2300   35.2690 H   0  0  0  0  0  0  0  0  0  0  0  0
   47.1620   31.7160   34.4580 C   0  0  0  0  0  0  0  0  0  0  0  0
   46.4680   30.9390   34.7380 H   0  0  0  0  0  0  0  0  0  0  0  0
   47.5850   32.0210   33.3140 O   0  0  0  0  0  0  0  0  0  0  0  0
  2  1  2  1  0  0  0
  2  5  1  0  0  0  0
  3  4  1  0  0  0  0
  3  2  1  0  0  0  0
  5  7  1  0  0  0  0
  6 11  2  0  0  0  0
  6  7  1  0  0  0  0
  7  8  2  0  0  0  0
  8 13  1  0  0  0  0
  8  9  1  0  0  0  0
 10 14  1  0  0  0  0
 10  9  2  0  0  0  0
 11 10  1  0  0  0  0
 12  6  1  0  0  0  0
 15  2  1  0  0  0  0
 16 17  2  0  0  0  0
 16 15  1  0  0  0  0
 18 16  1  0  0  0  0
 19 23  1  0  0  0  0
 19 18  2  0  0  0  0
 20 19  1  0  0  0  0
 21 20  2  0  0  0  0
 21 22  1  0  0  0  0
 22 18  1  0  0  0  0
 24 20  1  0  0  0  0
 25 26  1  0  0  0  0
 25 21  1  0  0  0  0
 27 25  2  0  0  0  0
M  END
>  <minimizedAffinity>
-4.61396456

>  <minimizedRMSD>
0.241158649

$$$$
