
 OpenBabel03252508313D

 26 27  0  0  1  0  0  0  0  0999 V2000
   45.7260   34.4080   41.8180 N   0  0  0  0  0  0  0  0  0  0  0  0
   47.0770   34.1410   41.4060 C   0  0  1  0  0  0  0  0  0  0  0  0
   47.2760   33.9960   39.9520 C   0  0  0  0  0  0  0  0  0  0  0  0
   46.2360   33.4150   39.2140 N   0  0  0  0  0  0  0  0  0  0  0  0
   44.9320   33.4610   39.7300 C   0  0  0  0  0  0  0  0  0  0  0  0
   44.8020   34.5890   40.7460 C   0  0  0  0  0  0  0  0  0  0  0  0
   47.4790   33.2770   41.9840 H   0  0  0  0  0  0  0  0  0  0  0  0
   47.5990   34.9760   39.5230 H   0  0  0  0  0  0  0  0  0  0  0  0
   48.1890   33.3450   39.8120 H   0  0  0  0  0  0  0  0  0  0  0  0
   46.2390   33.8190   38.2400 H   0  0  0  0  0  0  0  0  0  0  0  0
   44.7590   32.5250   40.3370 H   0  0  0  0  0  0  0  0  0  0  0  0
   44.1420   33.4710   38.9810 H   0  0  0  0  0  0  0  0  0  0  0  0
   43.7660   34.7790   40.9930 H   0  0  0  0  0  0  0  0  0  0  0  0
   45.1500   35.5110   40.1900 H   0  0  0  0  0  0  0  0  0  0  0  0
   44.7840   35.5840   43.6600 C   0  0  0  0  0  0  0  0  0  0  0  0
   45.4670   34.4640   43.2010 C   0  0  0  0  0  0  0  0  0  0  0  0
   45.8260   33.5250   44.1490 C   0  0  0  0  0  0  0  0  0  0  0  0
   45.5240   33.6930   45.4620 N   0  0  0  0  0  0  0  0  0  0  0  0
   44.8520   34.8080   45.8710 C   0  0  0  0  0  0  0  0  0  0  0  0
   44.4890   35.7360   44.9810 N   0  0  0  0  0  0  0  0  0  0  0  0
   44.4180   36.4250   43.0920 H   0  0  0  0  0  0  0  0  0  0  0  0
   46.3480   32.6680   43.8060 H   0  0  0  0  0  0  0  0  0  0  0  0
   44.6580   34.8510   46.9320 H   0  0  0  0  0  0  0  0  0  0  0  0
   47.8790   35.3330   41.8790 C   0  0  0  0  0  0  0  0  0  0  0  0
   47.7280   35.8470   42.8210 H   0  0  0  0  0  0  0  0  0  0  0  0
   48.7230   35.6420   41.0600 O   0  0  0  0  0  0  0  0  0  0  0  0
  1 16  1  0  0  0  0
  2  1  1  0  0  0  0
  2 24  1  0  0  0  0
  2  7  1  1  0  0  0
  3  2  1  0  0  0  0
  4  5  1  0  0  0  0
  4  3  1  0  0  0  0
  5 11  1  0  0  0  0
  5  6  1  0  0  0  0
  6 13  1  0  0  0  0
  6  1  1  0  0  0  0
  8  3  1  0  0  0  0
  9  3  1  0  0  0  0
 10  4  1  0  0  0  0
 12  5  1  0  0  0  0
 14  6  1  0  0  0  0
 15 20  1  0  0  0  0
 16 15  2  0  0  0  0
 16 17  1  0  0  0  0
 17 18  2  0  0  0  0
 18 19  1  0  0  0  0
 19 23  1  0  0  0  0
 20 19  2  0  0  0  0
 21 15  1  0  0  0  0
 22 17  1  0  0  0  0
 24 25  1  0  0  0  0
 26 24  2  0  0  0  0
M  END
>  <minimizedAffinity>
-4.0057497

>  <minimizedRMSD>
2.47128558

$$$$
