
 OpenBabel03252504113D

 19 19  0  0  0  0  0  0  0  0999 V2000
   39.1510   27.4310   43.2480 C   0  0  0  0  0  0  0  0  0  0  0  0
   38.4230   26.2800   42.9170 C   0  0  0  0  0  0  0  0  0  0  0  0
   39.1370   25.0680   42.8470 C   0  0  0  0  0  0  0  0  0  0  0  0
   40.4700   25.0800   43.1010 N   0  0  0  0  0  0  0  0  0  0  0  0
   41.1170   26.2200   43.4150 C   0  0  0  0  0  0  0  0  0  0  0  0
   40.4690   27.3840   43.4890 N   0  0  0  0  0  0  0  0  0  0  0  0
   38.5810   24.1630   42.5900 H   0  0  0  0  0  0  0  0  0  0  0  0
   36.9700   26.3720   42.6580 C   0  0  0  0  0  0  0  0  0  0  0  0
   36.7480   26.9950   41.4440 F   0  0  0  0  0  0  0  0  0  0  0  0
   36.4760   25.0780   42.5440 F   0  0  0  0  0  0  0  0  0  0  0  0
   36.2660   27.0510   43.6080 F   0  0  0  0  0  0  0  0  0  0  0  0
   42.5500   26.1670   43.6770 C   0  0  0  0  0  0  0  0  0  0  0  0
   43.0500   26.9990   44.1670 H   0  0  0  0  0  0  0  0  0  0  0  0
   43.2380   25.1670   43.3450 O   0  0  0  0  0  0  0  0  0  0  0  0
   38.4520   28.5880   43.3110 O   0  0  0  0  0  0  0  0  0  0  0  0
   38.4730   29.6390   42.3710 C   0  0  0  0  0  0  0  0  0  0  0  0
   39.1740   30.6950   42.9380 F   0  0  0  0  0  0  0  0  0  0  0  0
   39.0290   29.1920   41.2010 F   0  0  0  0  0  0  0  0  0  0  0  0
   37.1830   30.1160   42.1860 F   0  0  0  0  0  0  0  0  0  0  0  0
  1 15  1  0  0  0  0
  1  6  1  0  0  0  0
  2  1  2  0  0  0  0
  3  2  1  0  0  0  0
  3  4  2  0  0  0  0
  4  5  1  0  0  0  0
  5  6  2  0  0  0  0
  5 12  1  0  0  0  0
  7  3  1  0  0  0  0
  8  2  1  0  0  0  0
  8 11  1  0  0  0  0
  9  8  1  0  0  0  0
 10  8  1  0  0  0  0
 12 13  1  0  0  0  0
 14 12  2  0  0  0  0
 16 17  1  0  0  0  0
 16 15  1  0  0  0  0
 18 16  1  0  0  0  0
 19 16  1  0  0  0  0
M  END
>  <minimizedAffinity>
-4.43277264

$$$$

 OpenBabel03252504113D

 19 19  0  0  0  0  0  0  0  0999 V2000
   38.1860   29.3660   42.4350 C   0  0  0  0  0  0  0  0  0  0  0  0
   38.5440   28.0350   42.6910 C   0  0  0  0  0  0  0  0  0  0  0  0
   39.9120   27.7670   42.8910 C   0  0  0  0  0  0  0  0  0  0  0  0
   40.7950   28.7960   42.8260 N   0  0  0  0  0  0  0  0  0  0  0  0
   40.3910   30.0570   42.5760 C   0  0  0  0  0  0  0  0  0  0  0  0
   39.1020   30.3430   42.3820 N   0  0  0  0  0  0  0  0  0  0  0  0
   40.2050   26.7340   43.0920 H   0  0  0  0  0  0  0  0  0  0  0  0
   37.5050   26.9850   42.7400 C   0  0  0  0  0  0  0  0  0  0  0  0
   36.8820   26.8810   41.5100 F   0  0  0  0  0  0  0  0  0  0  0  0
   38.1380   25.7710   42.9760 F   0  0  0  0  0  0  0  0  0  0  0  0
   36.5370   27.1890   43.6790 F   0  0  0  0  0  0  0  0  0  0  0  0
   41.3890   31.1180   42.5200 C   0  0  0  0  0  0  0  0  0  0  0  0
   41.4450   31.7720   41.6530 H   0  0  0  0  0  0  0  0  0  0  0  0
   42.2020   31.3010   43.4620 O   0  0  0  0  0  0  0  0  0  0  0  0
   36.8680   29.6080   42.2440 O   0  0  0  0  0  0  0  0  0  0  0  0
   36.2540   30.0420   41.0510 C   0  0  0  0  0  0  0  0  0  0  0  0
   35.0980   29.2930   40.8780 F   0  0  0  0  0  0  0  0  0  0  0  0
   36.0150   31.3890   41.1260 F   0  0  0  0  0  0  0  0  0  0  0  0
   37.0650   29.7150   39.9720 F   0  0  0  0  0  0  0  0  0  0  0  0
  1  2  1  0  0  0  0
  2  8  1  0  0  0  0
  2  3  2  0  0  0  0
  3  7  1  0  0  0  0
  4  3  1  0  0  0  0
  5  4  2  0  0  0  0
  6  1  2  0  0  0  0
  6  5  1  0  0  0  0
  8 10  1  0  0  0  0
  8 11  1  0  0  0  0
  9  8  1  0  0  0  0
 12  5  1  0  0  0  0
 12 14  2  0  0  0  0
 13 12  1  0  0  0  0
 15  1  1  0  0  0  0
 16 18  1  0  0  0  0
 16 15  1  0  0  0  0
 17 16  1  0  0  0  0
 19 16  1  0  0  0  0
M  END
>  <minimizedAffinity>
-4.42420626

$$$$

 OpenBabel03252504113D

 19 19  0  0  0  0  0  0  0  0999 V2000
   38.1360   29.5700   41.1660 C   0  0  0  0  0  0  0  0  0  0  0  0
   36.7590   29.6730   40.9210 C   0  0  0  0  0  0  0  0  0  0  0  0
   36.2570   30.9520   40.6120 C   0  0  0  0  0  0  0  0  0  0  0  0
   37.1200   31.9990   40.5690 N   0  0  0  0  0  0  0  0  0  0  0  0
   38.4350   31.8390   40.8150 C   0  0  0  0  0  0  0  0  0  0  0  0
   38.9420   30.6410   41.1110 N   0  0  0  0  0  0  0  0  0  0  0  0
   35.1860   31.0450   40.4180 H   0  0  0  0  0  0  0  0  0  0  0  0
   35.9030   28.4700   40.9920 C   0  0  0  0  0  0  0  0  0  0  0  0
   35.8140   28.0330   42.3010 F   0  0  0  0  0  0  0  0  0  0  0  0
   34.6210   28.8360   40.6020 F   0  0  0  0  0  0  0  0  0  0  0  0
   36.3330   27.4220   40.2330 F   0  0  0  0  0  0  0  0  0  0  0  0
   39.3090   33.0040   40.7540 C   0  0  0  0  0  0  0  0  0  0  0  0
   40.3830   32.8910   40.8820 H   0  0  0  0  0  0  0  0  0  0  0  0
   38.8480   34.1570   40.5530 O   0  0  0  0  0  0  0  0  0  0  0  0
   38.6040   28.3350   41.4620 O   0  0  0  0  0  0  0  0  0  0  0  0
   38.9530   27.8490   42.7390 C   0  0  0  0  0  0  0  0  0  0  0  0
   38.3970   28.7060   43.6800 F   0  0  0  0  0  0  0  0  0  0  0  0
   38.5210   26.5560   42.8680 F   0  0  0  0  0  0  0  0  0  0  0  0
   40.3260   27.9600   42.9130 F   0  0  0  0  0  0  0  0  0  0  0  0
  1 15  1  0  0  0  0
  2  8  1  0  0  0  0
  2  1  2  0  0  0  0
  3  2  1  0  0  0  0
  4  3  2  0  0  0  0
  4  5  1  0  0  0  0
  5  6  2  0  0  0  0
  6  1  1  0  0  0  0
  7  3  1  0  0  0  0
  8  9  1  0  0  0  0
 10  8  1  0  0  0  0
 11  8  1  0  0  0  0
 12  5  1  0  0  0  0
 12 13  1  0  0  0  0
 14 12  2  0  0  0  0
 15 16  1  0  0  0  0
 16 18  1  0  0  0  0
 16 19  1  0  0  0  0
 16 17  1  0  0  0  0
M  END
>  <minimizedAffinity>
-4.41730404

$$$$

 OpenBabel03252504113D

 19 19  0  0  0  0  0  0  0  0999 V2000
   38.6590   26.6590   42.2410 C   0  0  0  0  0  0  0  0  0  0  0  0
   38.5310   25.2630   42.2670 C   0  0  0  0  0  0  0  0  0  0  0  0
   39.6140   24.5320   42.7920 C   0  0  0  0  0  0  0  0  0  0  0  0
   40.7040   25.2070   43.2370 N   0  0  0  0  0  0  0  0  0  0  0  0
   40.7700   26.5520   43.1860 C   0  0  0  0  0  0  0  0  0  0  0  0
   39.7610   27.2740   42.6940 N   0  0  0  0  0  0  0  0  0  0  0  0
   39.5280   23.4430   42.8190 H   0  0  0  0  0  0  0  0  0  0  0  0
   37.3010   24.6220   41.7580 C   0  0  0  0  0  0  0  0  0  0  0  0
   36.9880   25.1300   40.5100 F   0  0  0  0  0  0  0  0  0  0  0  0
   37.5650   23.2690   41.5880 F   0  0  0  0  0  0  0  0  0  0  0  0
   36.2070   24.7800   42.5560 F   0  0  0  0  0  0  0  0  0  0  0  0
   41.9680   27.2180   43.6800 C   0  0  0  0  0  0  0  0  0  0  0  0
   42.6610   26.6890   44.3300 H   0  0  0  0  0  0  0  0  0  0  0  0
   42.2290   28.4090   43.3700 O   0  0  0  0  0  0  0  0  0  0  0  0
   37.6110   27.3500   41.7330 O   0  0  0  0  0  0  0  0  0  0  0  0
   36.6950   28.1430   42.4530 C   0  0  0  0  0  0  0  0  0  0  0  0
   36.2370   27.3870   43.5240 F   0  0  0  0  0  0  0  0  0  0  0  0
   37.3060   29.3060   42.8400 F   0  0  0  0  0  0  0  0  0  0  0  0
   35.5740   28.3780   41.6690 F   0  0  0  0  0  0  0  0  0  0  0  0
  1  2  2  0  0  0  0
  1  6  1  0  0  0  0
  2  3  1  0  0  0  0
  3  7  1  0  0  0  0
  3  4  2  0  0  0  0
  5  4  1  0  0  0  0
  5 12  1  0  0  0  0
  6  5  2  0  0  0  0
  8  2  1  0  0  0  0
  8 11  1  0  0  0  0
  9  8  1  0  0  0  0
 10  8  1  0  0  0  0
 12 13  1  0  0  0  0
 14 12  2  0  0  0  0
 15  1  1  0  0  0  0
 15 16  1  0  0  0  0
 16 18  1  0  0  0  0
 16 17  1  0  0  0  0
 19 16  1  0  0  0  0
M  END
>  <minimizedAffinity>
-4.40457535

$$$$

 OpenBabel03252504113D

 19 19  0  0  0  0  0  0  0  0999 V2000
   37.2220   29.8700   41.5880 C   0  0  0  0  0  0  0  0  0  0  0  0
   37.9910   29.0080   42.3820 C   0  0  0  0  0  0  0  0  0  0  0  0
   39.3100   29.4100   42.6710 C   0  0  0  0  0  0  0  0  0  0  0  0
   39.7570   30.5910   42.1730 N   0  0  0  0  0  0  0  0  0  0  0  0
   38.9690   31.3790   41.4140 C   0  0  0  0  0  0  0  0  0  0  0  0
   37.7160   31.0260   41.1220 N   0  0  0  0  0  0  0  0  0  0  0  0
   39.9200   28.7470   43.2890 H   0  0  0  0  0  0  0  0  0  0  0  0
   37.4120   27.7410   42.8760 C   0  0  0  0  0  0  0  0  0  0  0  0
   38.3280   27.0870   43.6800 F   0  0  0  0  0  0  0  0  0  0  0  0
   36.3230   28.0560   43.6800 F   0  0  0  0  0  0  0  0  0  0  0  0
   37.0250   26.8740   41.8970 F   0  0  0  0  0  0  0  0  0  0  0  0
   39.5080   32.6350   40.9100 C   0  0  0  0  0  0  0  0  0  0  0  0
   40.4850   32.6610   40.4330 H   0  0  0  0  0  0  0  0  0  0  0  0
   38.8640   33.7110   41.0120 O   0  0  0  0  0  0  0  0  0  0  0  0
   35.9570   29.4710   41.3180 O   0  0  0  0  0  0  0  0  0  0  0  0
   35.4100   29.2050   40.0460 C   0  0  0  0  0  0  0  0  0  0  0  0
   34.0600   28.9290   40.2200 F   0  0  0  0  0  0  0  0  0  0  0  0
   35.6370   30.2740   39.2200 F   0  0  0  0  0  0  0  0  0  0  0  0
   35.9590   28.0330   39.5450 F   0  0  0  0  0  0  0  0  0  0  0  0
  1  2  1  0  0  0  0
  2  3  2  0  0  0  0
  2  8  1  0  0  0  0
  3  7  1  0  0  0  0
  4  3  1  0  0  0  0
  5  4  2  0  0  0  0
  6  5  1  0  0  0  0
  6  1  2  0  0  0  0
  8 10  1  0  0  0  0
  8  9  1  0  0  0  0
 11  8  1  0  0  0  0
 12 14  2  0  0  0  0
 12  5  1  0  0  0  0
 13 12  1  0  0  0  0
 15  1  1  0  0  0  0
 16 17  1  0  0  0  0
 16 15  1  0  0  0  0
 18 16  1  0  0  0  0
 19 16  1  0  0  0  0
M  END
>  <minimizedAffinity>
-4.37166643

$$$$

 OpenBabel03252504113D

 19 19  0  0  0  0  0  0  0  0999 V2000
   37.1420   26.5610   40.7160 C   0  0  0  0  0  0  0  0  0  0  0  0
   36.7880   27.7000   41.4520 C   0  0  0  0  0  0  0  0  0  0  0  0
   35.9570   28.6410   40.8140 C   0  0  0  0  0  0  0  0  0  0  0  0
   35.5500   28.3980   39.5420 N   0  0  0  0  0  0  0  0  0  0  0  0
   35.9240   27.2830   38.8840 C   0  0  0  0  0  0  0  0  0  0  0  0
   36.7100   26.3720   39.4610 N   0  0  0  0  0  0  0  0  0  0  0  0
   35.6740   29.5340   41.3770 H   0  0  0  0  0  0  0  0  0  0  0  0
   37.2840   27.8730   42.8330 C   0  0  0  0  0  0  0  0  0  0  0  0
   37.1510   29.1940   43.2190 F   0  0  0  0  0  0  0  0  0  0  0  0
   36.4720   27.1230   43.6740 F   0  0  0  0  0  0  0  0  0  0  0  0
   38.5880   27.5170   43.0160 F   0  0  0  0  0  0  0  0  0  0  0  0
   35.4530   27.0800   37.5200 C   0  0  0  0  0  0  0  0  0  0  0  0
   35.9000   26.3110   36.8940 H   0  0  0  0  0  0  0  0  0  0  0  0
   34.5280   27.7820   37.0360 O   0  0  0  0  0  0  0  0  0  0  0  0
   37.9410   25.6650   41.3410 O   0  0  0  0  0  0  0  0  0  0  0  0
   37.5550   24.4190   41.8770 C   0  0  0  0  0  0  0  0  0  0  0  0
   38.4630   24.0930   42.8760 F   0  0  0  0  0  0  0  0  0  0  0  0
   36.2640   24.4990   42.3300 F   0  0  0  0  0  0  0  0  0  0  0  0
   37.7090   23.4350   40.9110 F   0  0  0  0  0  0  0  0  0  0  0  0
  1 15  1  0  0  0  0
  1  2  1  0  0  0  0
  2  8  1  0  0  0  0
  3  7  1  0  0  0  0
  3  2  2  0  0  0  0
  4  3  1  0  0  0  0
  5  6  1  0  0  0  0
  5  4  2  0  0  0  0
  6  1  2  0  0  0  0
  8 11  1  0  0  0  0
  8  9  1  0  0  0  0
  8 10  1  0  0  0  0
 12  5  1  0  0  0  0
 13 12  1  0  0  0  0
 14 12  2  0  0  0  0
 15 16  1  0  0  0  0
 16 18  1  0  0  0  0
 16 17  1  0  0  0  0
 19 16  1  0  0  0  0
M  END
>  <minimizedAffinity>
-4.25910425

$$$$

 OpenBabel03252504113D

 19 19  0  0  0  0  0  0  0  0999 V2000
   37.0100   30.6190   40.8330 C   0  0  0  0  0  0  0  0  0  0  0  0
   36.4570   30.3670   39.5700 C   0  0  0  0  0  0  0  0  0  0  0  0
   36.8930   31.1790   38.5060 C   0  0  0  0  0  0  0  0  0  0  0  0
   37.8120   32.1460   38.7560 N   0  0  0  0  0  0  0  0  0  0  0  0
   38.3090   32.3420   39.9940 C   0  0  0  0  0  0  0  0  0  0  0  0
   37.9160   31.5900   41.0230 N   0  0  0  0  0  0  0  0  0  0  0  0
   36.4700   30.9930   37.5160 H   0  0  0  0  0  0  0  0  0  0  0  0
   35.4600   29.2880   39.4000 C   0  0  0  0  0  0  0  0  0  0  0  0
   34.8790   29.3780   38.1490 F   0  0  0  0  0  0  0  0  0  0  0  0
   36.1350   28.0750   39.4460 F   0  0  0  0  0  0  0  0  0  0  0  0
   34.4580   29.2920   40.3250 F   0  0  0  0  0  0  0  0  0  0  0  0
   39.2940   33.3980   40.1980 C   0  0  0  0  0  0  0  0  0  0  0  0
   38.9910   34.4420   40.1770 H   0  0  0  0  0  0  0  0  0  0  0  0
   40.5060   33.1300   40.4000 O   0  0  0  0  0  0  0  0  0  0  0  0
   36.5810   29.8320   41.8470 O   0  0  0  0  0  0  0  0  0  0  0  0
   37.3060   28.8010   42.4790 C   0  0  0  0  0  0  0  0  0  0  0  0
   38.2290   28.3140   41.5630 F   0  0  0  0  0  0  0  0  0  0  0  0
   37.8880   29.2880   43.6200 F   0  0  0  0  0  0  0  0  0  0  0  0
   36.4560   27.7350   42.7400 F   0  0  0  0  0  0  0  0  0  0  0  0
  1  6  1  0  0  0  0
  1 15  1  0  0  0  0
  2  1  2  0  0  0  0
  3  4  2  0  0  0  0
  3  2  1  0  0  0  0
  4  5  1  0  0  0  0
  5 12  1  0  0  0  0
  5  6  2  0  0  0  0
  7  3  1  0  0  0  0
  8 10  1  0  0  0  0
  8  2  1  0  0  0  0
  8 11  1  0  0  0  0
  9  8  1  0  0  0  0
 12 14  2  0  0  0  0
 13 12  1  0  0  0  0
 15 16  1  0  0  0  0
 16 19  1  0  0  0  0
 16 18  1  0  0  0  0
 17 16  1  0  0  0  0
M  END
>  <minimizedAffinity>
-4.22929382

$$$$

 OpenBabel03252504113D

 19 19  0  0  0  0  0  0  0  0999 V2000
   37.8690   26.8010   41.5160 C   0  0  0  0  0  0  0  0  0  0  0  0
   38.8220   27.2040   42.4620 C   0  0  0  0  0  0  0  0  0  0  0  0
   38.7470   28.5350   42.9180 C   0  0  0  0  0  0  0  0  0  0  0  0
   37.7730   29.3410   42.4250 N   0  0  0  0  0  0  0  0  0  0  0  0
   36.8830   28.8960   41.5150 C   0  0  0  0  0  0  0  0  0  0  0  0
   36.9280   27.6420   41.0630 N   0  0  0  0  0  0  0  0  0  0  0  0
   39.4840   28.8620   43.6550 H   0  0  0  0  0  0  0  0  0  0  0  0
   39.8450   26.2490   42.9360 C   0  0  0  0  0  0  0  0  0  0  0  0
   40.5190   25.7070   41.8570 F   0  0  0  0  0  0  0  0  0  0  0  0
   40.7790   26.9600   43.6790 F   0  0  0  0  0  0  0  0  0  0  0  0
   39.3550   25.2160   43.6800 F   0  0  0  0  0  0  0  0  0  0  0  0
   35.8610   29.8120   41.0250 C   0  0  0  0  0  0  0  0  0  0  0  0
   34.8080   29.5590   41.1190 H   0  0  0  0  0  0  0  0  0  0  0  0
   36.1680   30.9060   40.4850 O   0  0  0  0  0  0  0  0  0  0  0  0
   37.9520   25.5200   41.0850 O   0  0  0  0  0  0  0  0  0  0  0  0
   37.0610   24.4700   41.3850 C   0  0  0  0  0  0  0  0  0  0  0  0
   36.0370   24.5090   40.4480 F   0  0  0  0  0  0  0  0  0  0  0  0
   37.7420   23.2810   41.3870 F   0  0  0  0  0  0  0  0  0  0  0  0
   36.4480   24.7220   42.6050 F   0  0  0  0  0  0  0  0  0  0  0  0
  1  2  1  0  0  0  0
  2  3  2  0  0  0  0
  2  8  1  0  0  0  0
  3  7  1  0  0  0  0
  4  3  1  0  0  0  0
  5  4  2  0  0  0  0
  6  5  1  0  0  0  0
  6  1  2  0  0  0  0
  8 10  1  0  0  0  0
  8 11  1  0  0  0  0
  9  8  1  0  0  0  0
 12 13  1  0  0  0  0
 12  5  1  0  0  0  0
 14 12  2  0  0  0  0
 15 16  1  0  0  0  0
 15  1  1  0  0  0  0
 16 18  1  0  0  0  0
 16 19  1  0  0  0  0
 17 16  1  0  0  0  0
M  END
>  <minimizedAffinity>
-4.16627026

$$$$

 OpenBabel03252504113D

 19 19  0  0  0  0  0  0  0  0999 V2000
   36.8450   30.3540   40.6760 C   0  0  0  0  0  0  0  0  0  0  0  0
   37.9090   31.2260   40.4050 C   0  0  0  0  0  0  0  0  0  0  0  0
   39.0090   31.1860   41.2840 C   0  0  0  0  0  0  0  0  0  0  0  0
   38.9790   30.3200   42.3290 N   0  0  0  0  0  0  0  0  0  0  0  0
   37.9270   29.5050   42.5390 C   0  0  0  0  0  0  0  0  0  0  0  0
   36.8700   29.5190   41.7250 N   0  0  0  0  0  0  0  0  0  0  0  0
   39.8450   31.8600   41.0840 H   0  0  0  0  0  0  0  0  0  0  0  0
   37.8450   32.1320   39.2400 C   0  0  0  0  0  0  0  0  0  0  0  0
   36.9200   33.1330   39.4730 F   0  0  0  0  0  0  0  0  0  0  0  0
   39.0830   32.7500   39.1120 F   0  0  0  0  0  0  0  0  0  0  0  0
   37.5110   31.5240   38.0660 F   0  0  0  0  0  0  0  0  0  0  0  0
   37.9560   28.5980   43.6800 C   0  0  0  0  0  0  0  0  0  0  0  0
   38.3400   28.9360   44.6390 H   0  0  0  0  0  0  0  0  0  0  0  0
   37.5430   27.4140   43.5830 O   0  0  0  0  0  0  0  0  0  0  0  0
   35.7950   30.4030   39.8240 O   0  0  0  0  0  0  0  0  0  0  0  0
   35.1490   29.3060   39.2180 C   0  0  0  0  0  0  0  0  0  0  0  0
   36.0950   28.3030   39.0500 F   0  0  0  0  0  0  0  0  0  0  0  0
   34.0870   28.9180   39.9920 F   0  0  0  0  0  0  0  0  0  0  0  0
   34.7580   29.6560   37.9330 F   0  0  0  0  0  0  0  0  0  0  0  0
  1  6  1  0  0  0  0
  2  1  2  0  0  0  0
  2  3  1  0  0  0  0
  3  4  2  0  0  0  0
  4  5  1  0  0  0  0
  5 12  1  0  0  0  0
  6  5  2  0  0  0  0
  7  3  1  0  0  0  0
  8  9  1  0  0  0  0
  8  2  1  0  0  0  0
 10  8  1  0  0  0  0
 11  8  1  0  0  0  0
 12 13  1  0  0  0  0
 14 12  2  0  0  0  0
 15  1  1  0  0  0  0
 16 15  1  0  0  0  0
 16 18  1  0  0  0  0
 17 16  1  0  0  0  0
 19 16  1  0  0  0  0
M  END
>  <minimizedAffinity>
-4.03577995

$$$$
