
 OpenBabel03252504483D

 18 18  0  0  0  0  0  0  0  0999 V2000
   45.5440   34.8160   44.0020 C   0  0  0  0  0  0  0  0  0  0  0  0
   46.6150   34.4100   43.1760 C   0  0  0  0  0  0  0  0  0  0  0  0
   47.4290   33.3890   43.6780 C   0  0  0  0  0  0  0  0  0  0  0  0
   47.1430   32.8700   44.8930 N   0  0  0  0  0  0  0  0  0  0  0  0
   46.1080   33.2910   45.6460 C   0  0  0  0  0  0  0  0  0  0  0  0
   45.2970   34.2800   45.1920 N   0  0  0  0  0  0  0  0  0  0  0  0
   44.9170   35.5930   43.6300 H   0  0  0  0  0  0  0  0  0  0  0  0
   48.2600   33.0530   43.0710 H   0  0  0  0  0  0  0  0  0  0  0  0
   46.8210   35.0410   41.8910 C   0  0  0  0  0  0  0  0  0  0  0  0
   46.2050   35.9350   41.8020 H   0  0  0  0  0  0  0  0  0  0  0  0
   46.5820   34.2750   41.1080 H   0  0  0  0  0  0  0  0  0  0  0  0
   48.3010   35.3140   41.7300 C   0  0  0  0  0  0  0  0  0  0  0  0
   48.9060   34.7970   42.4940 H   0  0  0  0  0  0  0  0  0  0  0  0
   48.4540   36.4130   41.9280 H   0  0  0  0  0  0  0  0  0  0  0  0
   48.6690   35.0810   40.7160 H   0  0  0  0  0  0  0  0  0  0  0  0
   45.8550   32.6930   46.9440 C   0  0  0  0  0  0  0  0  0  0  0  0
   46.4400   31.8730   47.2930 H   0  0  0  0  0  0  0  0  0  0  0  0
   44.9310   33.1390   47.6820 O   0  0  0  0  0  0  0  0  0  0  0  0
  1  6  1  0  0  0  0
  2  3  1  0  0  0  0
  2  1  2  0  0  0  0
  3  4  2  0  0  0  0
  4  5  1  0  0  0  0
  5 16  1  0  0  0  0
  6  5  2  0  0  0  0
  7  1  1  0  0  0  0
  8  3  1  0  0  0  0
  9  2  1  0  0  0  0
 10  9  1  0  0  0  0
 11  9  1  0  0  0  0
 12  9  1  0  0  0  0
 12 14  1  0  0  0  0
 12 13  1  0  0  0  0
 15 12  1  0  0  0  0
 16 17  1  0  0  0  0
 16 18  2  0  0  0  0
M  END
>  <minimizedAffinity>
-3.40945411

>  <minimizedRMSD>
0.769767106

$$$$
