
 OpenBabel03252500563D

 32 33  0  0  0  0  0  0  0  0999 V2000
   44.4440   35.3990   42.6150 O   0  0  0  0  0  0  0  0  0  0  0  0
   46.5210   34.3590   43.0210 C   0  0  0  0  0  0  0  0  0  0  0  0
   45.2820   34.7270   43.4890 C   0  0  0  0  0  0  0  0  0  0  0  0
   44.9580   34.3920   44.8240 C   0  0  0  0  0  0  0  0  0  0  0  0
   45.8930   33.7350   45.5380 N   0  0  0  0  0  0  0  0  0  0  0  0
   47.0800   33.3920   45.0620 C   0  0  0  0  0  0  0  0  0  0  0  0
   47.4020   33.7040   43.7950 N   0  0  0  0  0  0  0  0  0  0  0  0
   43.9920   34.6980   45.1350 H   0  0  0  0  0  0  0  0  0  0  0  0
   47.8220   32.8630   45.6500 H   0  0  0  0  0  0  0  0  0  0  0  0
   46.9260   34.6730   41.6450 C   0  0  0  0  0  0  0  0  0  0  0  0
   46.9910   33.7790   40.9890 H   0  0  0  0  0  0  0  0  0  0  0  0
   46.2040   35.3900   41.2010 H   0  0  0  0  0  0  0  0  0  0  0  0
   48.2750   35.3310   41.6660 C   0  0  0  0  0  0  0  0  0  0  0  0
   48.9140   34.7310   42.3720 H   0  0  0  0  0  0  0  0  0  0  0  0
   48.2610   36.3910   41.9870 H   0  0  0  0  0  0  0  0  0  0  0  0
   48.7470   35.1780   40.6650 H   0  0  0  0  0  0  0  0  0  0  0  0
   43.6970   34.8520   40.1480 O   0  0  0  0  0  0  0  0  0  0  0  0
   43.2740   34.6970   41.5990 P   0  0  1  0  0  0  0  0  0  0  0  0
   43.1910   33.0480   41.9720 O   0  0  0  0  0  0  0  0  0  0  0  0
   43.3790   32.5070   41.1600 H   0  0  0  0  0  0  0  0  0  0  0  0
   41.7320   35.3430   41.8240 O   0  0  0  0  0  0  0  0  0  0  0  0
   40.6390   34.6820   41.2710 C   0  0  0  0  0  0  0  0  0  0  0  0
   39.9400   35.3760   40.2830 C   0  0  0  0  0  0  0  0  0  0  0  0
   38.8280   34.7870   39.6720 C   0  0  0  0  0  0  0  0  0  0  0  0
   38.4520   33.5460   40.0560 N   0  0  0  0  0  0  0  0  0  0  0  0
   39.1390   32.9040   41.0040 C   0  0  0  0  0  0  0  0  0  0  0  0
   40.1970   33.4440   41.5970 N   0  0  0  0  0  0  0  0  0  0  0  0
   40.1710   36.3710   39.9150 H   0  0  0  0  0  0  0  0  0  0  0  0
   38.2520   35.2830   38.9010 H   0  0  0  0  0  0  0  0  0  0  0  0
   38.6960   31.5690   41.3860 C   0  0  0  0  0  0  0  0  0  0  0  0
   39.3540   30.8470   41.8510 H   0  0  0  0  0  0  0  0  0  0  0  0
   37.5590   31.0920   41.2390 O   0  0  0  0  0  0  0  0  0  0  0  0
  1  3  1  0  0  0  0
  2  3  2  0  0  0  0
  2  7  1  0  0  0  0
  3  4  1  0  0  0  0
  4  8  1  0  0  0  0
  4  5  2  0  0  0  0
  6  5  1  0  0  0  0
  6  9  1  0  0  0  0
  7  6  2  0  0  0  0
 10 13  1  0  0  0  0
 10  2  1  0  0  0  0
 11 10  1  0  0  0  0
 12 10  1  0  0  0  0
 13 15  1  0  0  0  0
 13 14  1  0  0  0  0
 16 13  1  0  0  0  0
 18 17  2  6  0  0  0
 18 21  1  0  0  0  0
 18 19  1  0  0  0  0
 18  1  1  0  0  0  0
 20 19  1  0  0  0  0
 22 27  1  0  0  0  0
 22 21  1  0  0  0  0
 23 22  2  0  0  0  0
 24 25  2  0  0  0  0
 24 23  1  0  0  0  0
 25 26  1  0  0  0  0
 26 30  1  0  0  0  0
 26 27  2  0  0  0  0
 28 23  1  0  0  0  0
 29 24  1  0  0  0  0
 30 31  1  0  0  0  0
 32 30  2  0  0  0  0
M  END
>  <minimizedAffinity>
-5.19479084

>  <minimizedRMSD>
0.240626529

$$$$
