
 OpenBabel03252508333D

 26 27  0  0  1  0  0  0  0  0999 V2000
   38.3070   30.8260   41.1240 N   0  0  0  0  0  0  0  0  0  0  0  0
   37.0180   31.1510   40.5770 C   0  0  1  0  0  0  0  0  0  0  0  0
   36.9490   32.4300   39.8440 C   0  0  0  0  0  0  0  0  0  0  0  0
   37.7530   33.4800   40.3050 N   0  0  0  0  0  0  0  0  0  0  0  0
   38.8990   33.1770   41.0550 C   0  0  0  0  0  0  0  0  0  0  0  0
   39.3450   31.7440   40.7890 C   0  0  0  0  0  0  0  0  0  0  0  0
   36.2430   31.0700   41.3730 H   0  0  0  0  0  0  0  0  0  0  0  0
   37.0910   32.2380   38.7520 H   0  0  0  0  0  0  0  0  0  0  0  0
   35.8760   32.7800   39.9010 H   0  0  0  0  0  0  0  0  0  0  0  0
   38.0240   34.0890   39.4870 H   0  0  0  0  0  0  0  0  0  0  0  0
   38.6160   33.1770   42.1480 H   0  0  0  0  0  0  0  0  0  0  0  0
   39.7110   33.8970   40.9650 H   0  0  0  0  0  0  0  0  0  0  0  0
   40.3350   31.5600   41.1840 H   0  0  0  0  0  0  0  0  0  0  0  0
   39.4560   31.6870   39.6650 H   0  0  0  0  0  0  0  0  0  0  0  0
   39.4510   28.7970   41.6160 C   0  0  0  0  0  0  0  0  0  0  0  0
   38.4020   29.6610   41.9110 C   0  0  0  0  0  0  0  0  0  0  0  0
   37.5610   29.2860   42.9400 C   0  0  0  0  0  0  0  0  0  0  0  0
   37.7530   28.1300   43.6260 N   0  0  0  0  0  0  0  0  0  0  0  0
   38.7950   27.3100   43.3050 C   0  0  0  0  0  0  0  0  0  0  0  0
   39.6290   27.6430   42.3150 N   0  0  0  0  0  0  0  0  0  0  0  0
   40.2130   28.9030   40.8590 H   0  0  0  0  0  0  0  0  0  0  0  0
   36.7590   29.9400   43.1710 H   0  0  0  0  0  0  0  0  0  0  0  0
   38.8660   26.4160   43.9060 H   0  0  0  0  0  0  0  0  0  0  0  0
   36.7030   30.0310   39.6110 C   0  0  0  0  0  0  0  0  0  0  0  0
   36.6010   28.9880   39.8840 H   0  0  0  0  0  0  0  0  0  0  0  0
   36.5750   30.4570   38.4790 O   0  0  0  0  0  0  0  0  0  0  0  0
  1 16  1  0  0  0  0
  2  1  1  0  0  0  0
  2  7  1  1  0  0  0
  3  9  1  0  0  0  0
  3  4  1  0  0  0  0
  3  2  1  0  0  0  0
  4  5  1  0  0  0  0
  5 11  1  0  0  0  0
  6  5  1  0  0  0  0
  6  1  1  0  0  0  0
  6 13  1  0  0  0  0
  8  3  1  0  0  0  0
 10  4  1  0  0  0  0
 12  5  1  0  0  0  0
 14  6  1  0  0  0  0
 15 16  2  0  0  0  0
 15 20  1  0  0  0  0
 16 17  1  0  0  0  0
 17 22  1  0  0  0  0
 17 18  2  0  0  0  0
 19 18  1  0  0  0  0
 19 23  1  0  0  0  0
 20 19  2  0  0  0  0
 21 15  1  0  0  0  0
 24 25  1  0  0  0  0
 24  2  1  0  0  0  0
 26 24  2  0  0  0  0
M  END
>  <minimizedAffinity>
-3.79044604

$$$$

 OpenBabel03252508333D

 26 27  0  0  1  0  0  0  0  0999 V2000
   38.4240   30.6930   40.9900 N   0  0  0  0  0  0  0  0  0  0  0  0
   37.1020   31.0300   40.5370 C   0  0  1  0  0  0  0  0  0  0  0  0
   36.9770   32.3450   39.8800 C   0  0  0  0  0  0  0  0  0  0  0  0
   37.7960   33.3800   40.3500 N   0  0  0  0  0  0  0  0  0  0  0  0
   38.9870   33.0520   41.0140 C   0  0  0  0  0  0  0  0  0  0  0  0
   39.4310   31.6420   40.6450 C   0  0  0  0  0  0  0  0  0  0  0  0
   36.3760   30.8950   41.3720 H   0  0  0  0  0  0  0  0  0  0  0  0
   37.0560   32.2150   38.7730 H   0  0  0  0  0  0  0  0  0  0  0  0
   35.9050   32.6770   40.0190 H   0  0  0  0  0  0  0  0  0  0  0  0
   38.0110   34.0360   39.5530 H   0  0  0  0  0  0  0  0  0  0  0  0
   38.7690   32.9900   42.1200 H   0  0  0  0  0  0  0  0  0  0  0  0
   39.7840   33.7870   40.9170 H   0  0  0  0  0  0  0  0  0  0  0  0
   40.4450   31.4510   40.9710 H   0  0  0  0  0  0  0  0  0  0  0  0
   39.4760   31.6480   39.5150 H   0  0  0  0  0  0  0  0  0  0  0  0
   37.8020   29.3420   42.8480 C   0  0  0  0  0  0  0  0  0  0  0  0
   38.5780   29.4890   41.7040 C   0  0  0  0  0  0  0  0  0  0  0  0
   39.4230   28.4430   41.3900 C   0  0  0  0  0  0  0  0  0  0  0  0
   39.4880   27.3280   42.1630 N   0  0  0  0  0  0  0  0  0  0  0  0
   38.7090   27.2240   43.2780 C   0  0  0  0  0  0  0  0  0  0  0  0
   37.8800   28.2170   43.6110 N   0  0  0  0  0  0  0  0  0  0  0  0
   37.0850   30.0330   43.2640 H   0  0  0  0  0  0  0  0  0  0  0  0
   40.0190   28.5480   40.5190 H   0  0  0  0  0  0  0  0  0  0  0  0
   38.8300   26.3020   43.8270 H   0  0  0  0  0  0  0  0  0  0  0  0
   36.7410   29.9600   39.5310 C   0  0  0  0  0  0  0  0  0  0  0  0
   36.7980   28.8940   39.7140 H   0  0  0  0  0  0  0  0  0  0  0  0
   36.3760   30.4550   38.4820 O   0  0  0  0  0  0  0  0  0  0  0  0
  1 16  1  0  0  0  0
  2  1  1  0  0  0  0
  2  7  1  1  0  0  0
  3  9  1  0  0  0  0
  3  4  1  0  0  0  0
  3  2  1  0  0  0  0
  4  5  1  0  0  0  0
  5 11  1  0  0  0  0
  6 13  1  0  0  0  0
  6  1  1  0  0  0  0
  6  5  1  0  0  0  0
  8  3  1  0  0  0  0
 10  4  1  0  0  0  0
 12  5  1  0  0  0  0
 14  6  1  0  0  0  0
 15 21  1  0  0  0  0
 15 20  1  0  0  0  0
 16 15  2  0  0  0  0
 17 16  1  0  0  0  0
 17 18  2  0  0  0  0
 18 19  1  0  0  0  0
 19 20  2  0  0  0  0
 19 23  1  0  0  0  0
 22 17  1  0  0  0  0
 24 25  1  0  0  0  0
 24  2  1  0  0  0  0
 26 24  2  0  0  0  0
M  END
>  <minimizedAffinity>
-3.74501944

$$$$

 OpenBabel03252508333D

 26 27  0  0  1  0  0  0  0  0999 V2000
   38.0250   30.8910   40.4090 N   0  0  0  0  0  0  0  0  0  0  0  0
   38.3230   30.4240   39.0820 C   0  0  1  0  0  0  0  0  0  0  0  0
   38.4970   31.4810   38.0670 C   0  0  0  0  0  0  0  0  0  0  0  0
   37.7150   32.6360   38.1990 N   0  0  0  0  0  0  0  0  0  0  0  0
   37.2130   32.9730   39.4650 C   0  0  0  0  0  0  0  0  0  0  0  0
   38.0410   32.3090   40.5590 C   0  0  0  0  0  0  0  0  0  0  0  0
   37.5740   29.6560   38.7800 H   0  0  0  0  0  0  0  0  0  0  0  0
   39.5830   31.7180   37.9610 H   0  0  0  0  0  0  0  0  0  0  0  0
   38.2420   31.0170   37.0680 H   0  0  0  0  0  0  0  0  0  0  0  0
   38.2470   33.4570   37.8060 H   0  0  0  0  0  0  0  0  0  0  0  0
   36.1910   32.5070   39.5750 H   0  0  0  0  0  0  0  0  0  0  0  0
   37.0660   34.0390   39.6320 H   0  0  0  0  0  0  0  0  0  0  0  0
   37.8110   32.7210   41.5320 H   0  0  0  0  0  0  0  0  0  0  0  0
   39.1040   32.6310   40.3420 H   0  0  0  0  0  0  0  0  0  0  0  0
   36.7050   29.0510   41.1410 C   0  0  0  0  0  0  0  0  0  0  0  0
   37.7600   29.9200   41.3940 C   0  0  0  0  0  0  0  0  0  0  0  0
   38.4350   29.7450   42.5860 C   0  0  0  0  0  0  0  0  0  0  0  0
   38.0820   28.7700   43.4630 N   0  0  0  0  0  0  0  0  0  0  0  0
   37.0400   27.9380   43.1770 C   0  0  0  0  0  0  0  0  0  0  0  0
   36.3650   28.0790   42.0320 N   0  0  0  0  0  0  0  0  0  0  0  0
   36.0570   29.0170   40.2790 H   0  0  0  0  0  0  0  0  0  0  0  0
   39.2410   30.4040   42.7860 H   0  0  0  0  0  0  0  0  0  0  0  0
   36.8350   27.1960   43.9340 H   0  0  0  0  0  0  0  0  0  0  0  0
   39.6260   29.6690   39.2100 C   0  0  0  0  0  0  0  0  0  0  0  0
   39.7120   28.6220   39.4730 H   0  0  0  0  0  0  0  0  0  0  0  0
   40.5740   30.3940   38.9750 O   0  0  0  0  0  0  0  0  0  0  0  0
  1  6  1  0  0  0  0
  1 16  1  0  0  0  0
  2  7  1  6  0  0  0
  2 24  1  0  0  0  0
  2  1  1  0  0  0  0
  3  4  1  0  0  0  0
  3  2  1  0  0  0  0
  4  5  1  0  0  0  0
  5 11  1  0  0  0  0
  5 12  1  0  0  0  0
  5  6  1  0  0  0  0
  6 13  1  0  0  0  0
  8  3  1  0  0  0  0
  9  3  1  0  0  0  0
 10  4  1  0  0  0  0
 14  6  1  0  0  0  0
 15 16  2  0  0  0  0
 15 20  1  0  0  0  0
 16 17  1  0  0  0  0
 17 22  1  0  0  0  0
 17 18  2  0  0  0  0
 19 18  1  0  0  0  0
 19 23  1  0  0  0  0
 20 19  2  0  0  0  0
 21 15  1  0  0  0  0
 24 25  1  0  0  0  0
 26 24  2  0  0  0  0
M  END
>  <minimizedAffinity>
-3.73231936

$$$$

 OpenBabel03252508333D

 26 27  0  0  1  0  0  0  0  0999 V2000
   38.4460   31.0150   39.2370 N   0  0  0  0  0  0  0  0  0  0  0  0
   39.8320   31.1970   38.9010 C   0  0  1  0  0  0  0  0  0  0  0  0
   40.0920   32.1220   37.7810 C   0  0  0  0  0  0  0  0  0  0  0  0
   39.1530   32.1570   36.7420 N   0  0  0  0  0  0  0  0  0  0  0  0
   37.8370   31.7470   37.0060 C   0  0  0  0  0  0  0  0  0  0  0  0
   37.5410   31.8350   38.4980 C   0  0  0  0  0  0  0  0  0  0  0  0
   40.3150   30.2030   38.7590 H   0  0  0  0  0  0  0  0  0  0  0  0
   40.3110   33.1400   38.1850 H   0  0  0  0  0  0  0  0  0  0  0  0
   41.0810   31.8130   37.3280 H   0  0  0  0  0  0  0  0  0  0  0  0
   39.1390   33.1250   36.3250 H   0  0  0  0  0  0  0  0  0  0  0  0
   37.7580   30.6450   36.7750 H   0  0  0  0  0  0  0  0  0  0  0  0
   37.0750   32.2280   36.3940 H   0  0  0  0  0  0  0  0  0  0  0  0
   36.4830   31.7320   38.6970 H   0  0  0  0  0  0  0  0  0  0  0  0
   37.7960   32.9020   38.7740 H   0  0  0  0  0  0  0  0  0  0  0  0
   38.5180   28.7590   39.9900 C   0  0  0  0  0  0  0  0  0  0  0  0
   38.1390   30.0730   40.2380 C   0  0  0  0  0  0  0  0  0  0  0  0
   37.4970   30.3180   41.4360 C   0  0  0  0  0  0  0  0  0  0  0  0
   37.2520   29.3210   42.3240 N   0  0  0  0  0  0  0  0  0  0  0  0
   37.6400   28.0430   42.0420 C   0  0  0  0  0  0  0  0  0  0  0  0
   38.2640   27.7710   40.8920 N   0  0  0  0  0  0  0  0  0  0  0  0
   39.0250   28.3590   39.1250 H   0  0  0  0  0  0  0  0  0  0  0  0
   37.2050   31.3180   41.6320 H   0  0  0  0  0  0  0  0  0  0  0  0
   37.4010   27.3210   42.8080 H   0  0  0  0  0  0  0  0  0  0  0  0
   40.4710   31.7670   40.1470 C   0  0  0  0  0  0  0  0  0  0  0  0
   40.8820   31.1780   40.9570 H   0  0  0  0  0  0  0  0  0  0  0  0
   40.4660   32.9830   40.1210 O   0  0  0  0  0  0  0  0  0  0  0  0
  1 16  1  0  0  0  0
  2  7  1  6  0  0  0
  2  1  1  0  0  0  0
  2 24  1  0  0  0  0
  3  8  1  0  0  0  0
  3  2  1  0  0  0  0
  4  5  1  0  0  0  0
  4  3  1  0  0  0  0
  5  6  1  0  0  0  0
  6 13  1  0  0  0  0
  6 14  1  0  0  0  0
  6  1  1  0  0  0  0
  9  3  1  0  0  0  0
 10  4  1  0  0  0  0
 11  5  1  0  0  0  0
 12  5  1  0  0  0  0
 15 16  2  0  0  0  0
 15 20  1  0  0  0  0
 16 17  1  0  0  0  0
 17 22  1  0  0  0  0
 17 18  2  0  0  0  0
 19 18  1  0  0  0  0
 19 23  1  0  0  0  0
 20 19  2  0  0  0  0
 21 15  1  0  0  0  0
 24 25  1  0  0  0  0
 26 24  2  0  0  0  0
M  END
>  <minimizedAffinity>
-3.67727423

$$$$

 OpenBabel03252508333D

 26 27  0  0  1  0  0  0  0  0999 V2000
   38.6640   30.4580   41.0960 N   0  0  0  0  0  0  0  0  0  0  0  0
   37.8250   31.6240   41.0630 C   0  0  1  0  0  0  0  0  0  0  0  0
   38.4970   32.8740   40.6570 C   0  0  0  0  0  0  0  0  0  0  0  0
   39.8360   33.0360   41.0360 N   0  0  0  0  0  0  0  0  0  0  0  0
   40.6060   31.8960   41.3070 C   0  0  0  0  0  0  0  0  0  0  0  0
   39.9980   30.6710   40.6360 C   0  0  0  0  0  0  0  0  0  0  0  0
   37.2840   31.7220   42.0320 H   0  0  0  0  0  0  0  0  0  0  0  0
   38.3470   33.0360   39.5620 H   0  0  0  0  0  0  0  0  0  0  0  0
   37.9130   33.7230   41.1210 H   0  0  0  0  0  0  0  0  0  0  0  0
   40.3290   33.6250   40.3120 H   0  0  0  0  0  0  0  0  0  0  0  0
   40.5280   31.6710   42.4110 H   0  0  0  0  0  0  0  0  0  0  0  0
   41.6720   32.0030   41.1080 H   0  0  0  0  0  0  0  0  0  0  0  0
   40.6810   29.8330   40.6500 H   0  0  0  0  0  0  0  0  0  0  0  0
   39.9050   30.9620   39.5470 H   0  0  0  0  0  0  0  0  0  0  0  0
   37.7390   29.2240   42.9090 C   0  0  0  0  0  0  0  0  0  0  0  0
   38.0920   29.2590   41.5650 C   0  0  0  0  0  0  0  0  0  0  0  0
   37.8500   28.1150   40.8300 C   0  0  0  0  0  0  0  0  0  0  0  0
   37.2940   27.0140   41.3970 N   0  0  0  0  0  0  0  0  0  0  0  0
   36.9620   27.0200   42.7200 C   0  0  0  0  0  0  0  0  0  0  0  0
   37.1820   28.1110   43.4610 N   0  0  0  0  0  0  0  0  0  0  0  0
   37.8420   30.0020   43.6490 H   0  0  0  0  0  0  0  0  0  0  0  0
   38.1170   28.1350   39.8040 H   0  0  0  0  0  0  0  0  0  0  0  0
   36.5270   26.1000   43.0800 H   0  0  0  0  0  0  0  0  0  0  0  0
   36.7500   31.3110   40.0460 C   0  0  0  0  0  0  0  0  0  0  0  0
   35.9210   30.6340   40.2100 H   0  0  0  0  0  0  0  0  0  0  0  0
   36.9370   31.9250   39.0130 O   0  0  0  0  0  0  0  0  0  0  0  0
  1 16  1  0  0  0  0
  2  1  1  0  0  0  0
  2  7  1  1  0  0  0
  3  4  1  0  0  0  0
  3  2  1  0  0  0  0
  3  9  1  0  0  0  0
  4  5  1  0  0  0  0
  5 11  1  0  0  0  0
  6 13  1  0  0  0  0
  6  1  1  0  0  0  0
  6  5  1  0  0  0  0
  8  3  1  0  0  0  0
 10  4  1  0  0  0  0
 12  5  1  0  0  0  0
 14  6  1  0  0  0  0
 15 20  1  0  0  0  0
 15 21  1  0  0  0  0
 16 15  2  0  0  0  0
 17 18  2  0  0  0  0
 17 16  1  0  0  0  0
 18 19  1  0  0  0  0
 19 23  1  0  0  0  0
 19 20  2  0  0  0  0
 22 17  1  0  0  0  0
 24 25  1  0  0  0  0
 24  2  1  0  0  0  0
 26 24  2  0  0  0  0
M  END
>  <minimizedAffinity>
-3.65384126

$$$$

 OpenBabel03252508333D

 26 27  0  0  1  0  0  0  0  0999 V2000
   37.6210   29.5650   39.6840 N   0  0  0  0  0  0  0  0  0  0  0  0
   38.0250   30.9160   39.4030 C   0  0  1  0  0  0  0  0  0  0  0  0
   38.1120   31.2630   37.9710 C   0  0  0  0  0  0  0  0  0  0  0  0
   38.5220   30.2550   37.0880 N   0  0  0  0  0  0  0  0  0  0  0  0
   38.3480   28.9150   37.4630 C   0  0  0  0  0  0  0  0  0  0  0  0
   37.2710   28.7970   38.5340 C   0  0  0  0  0  0  0  0  0  0  0  0
   38.9620   31.1480   39.9600 H   0  0  0  0  0  0  0  0  0  0  0  0
   37.1560   31.7420   37.6480 H   0  0  0  0  0  0  0  0  0  0  0  0
   38.8590   32.1070   37.8860 H   0  0  0  0  0  0  0  0  0  0  0  0
   38.0680   30.4150   36.1500 H   0  0  0  0  0  0  0  0  0  0  0  0
   39.2890   28.5690   37.9820 H   0  0  0  0  0  0  0  0  0  0  0  0
   38.2020   28.2220   36.6360 H   0  0  0  0  0  0  0  0  0  0  0  0
   36.9720   27.7680   38.6810 H   0  0  0  0  0  0  0  0  0  0  0  0
   36.3680   29.3090   38.0840 H   0  0  0  0  0  0  0  0  0  0  0  0
   36.5880   28.2980   41.4140 C   0  0  0  0  0  0  0  0  0  0  0  0
   37.6110   29.1580   41.0320 C   0  0  0  0  0  0  0  0  0  0  0  0
   38.5090   29.5280   42.0150 C   0  0  0  0  0  0  0  0  0  0  0  0
   38.3930   29.0700   43.2880 N   0  0  0  0  0  0  0  0  0  0  0  0
   37.3730   28.2270   43.6210 C   0  0  0  0  0  0  0  0  0  0  0  0
   36.4870   27.8490   42.6950 N   0  0  0  0  0  0  0  0  0  0  0  0
   35.7930   27.8920   40.8070 H   0  0  0  0  0  0  0  0  0  0  0  0
   39.2920   30.1840   41.7310 H   0  0  0  0  0  0  0  0  0  0  0  0
   37.3650   27.9180   44.6560 H   0  0  0  0  0  0  0  0  0  0  0  0
   36.9660   31.7880   40.0400 C   0  0  0  0  0  0  0  0  0  0  0  0
   35.9830   31.4480   40.3420 H   0  0  0  0  0  0  0  0  0  0  0  0
   37.3650   32.9290   40.1710 O   0  0  0  0  0  0  0  0  0  0  0  0
  1 16  1  0  0  0  0
  2  1  1  0  0  0  0
  2  7  1  1  0  0  0
  2 24  1  0  0  0  0
  3  2  1  0  0  0  0
  4  5  1  0  0  0  0
  4  3  1  0  0  0  0
  5 11  1  0  0  0  0
  5  6  1  0  0  0  0
  6 13  1  0  0  0  0
  6  1  1  0  0  0  0
  8  3  1  0  0  0  0
  9  3  1  0  0  0  0
 10  4  1  0  0  0  0
 12  5  1  0  0  0  0
 14  6  1  0  0  0  0
 15 20  1  0  0  0  0
 16 15  2  0  0  0  0
 16 17  1  0  0  0  0
 17 18  2  0  0  0  0
 18 19  1  0  0  0  0
 19 23  1  0  0  0  0
 20 19  2  0  0  0  0
 21 15  1  0  0  0  0
 22 17  1  0  0  0  0
 24 26  2  0  0  0  0
 24 25  1  0  0  0  0
M  END
>  <minimizedAffinity>
-3.64860296

$$$$

 OpenBabel03252508333D

 26 27  0  0  1  0  0  0  0  0999 V2000
   37.0120   30.5280   39.5170 N   0  0  0  0  0  0  0  0  0  0  0  0
   36.0770   30.2610   40.5760 C   0  0  1  0  0  0  0  0  0  0  0  0
   35.1260   29.1630   40.3150 C   0  0  0  0  0  0  0  0  0  0  0  0
   34.6940   28.9860   38.9940 N   0  0  0  0  0  0  0  0  0  0  0  0
   35.4990   29.4640   37.9490 C   0  0  0  0  0  0  0  0  0  0  0  0
   36.9400   29.6230   38.4170 C   0  0  0  0  0  0  0  0  0  0  0  0
   35.5700   31.2080   40.8730 H   0  0  0  0  0  0  0  0  0  0  0  0
   35.5220   28.2170   40.7590 H   0  0  0  0  0  0  0  0  0  0  0  0
   34.2090   29.3720   40.9420 H   0  0  0  0  0  0  0  0  0  0  0  0
   34.4880   27.9640   38.8340 H   0  0  0  0  0  0  0  0  0  0  0  0
   35.1720   30.5170   37.7050 H   0  0  0  0  0  0  0  0  0  0  0  0
   35.4140   28.9110   37.0150 H   0  0  0  0  0  0  0  0  0  0  0  0
   37.6100   29.7810   37.5820 H   0  0  0  0  0  0  0  0  0  0  0  0
   37.2150   28.6080   38.8330 H   0  0  0  0  0  0  0  0  0  0  0  0
   37.2850   32.8750   39.8030 C   0  0  0  0  0  0  0  0  0  0  0  0
   37.8810   31.6250   39.6800 C   0  0  0  0  0  0  0  0  0  0  0  0
   39.2610   31.5880   39.7230 C   0  0  0  0  0  0  0  0  0  0  0  0
   39.9950   32.7200   39.8800 N   0  0  0  0  0  0  0  0  0  0  0  0
   39.3710   33.9280   39.9980 C   0  0  0  0  0  0  0  0  0  0  0  0
   38.0370   33.9990   39.9600 N   0  0  0  0  0  0  0  0  0  0  0  0
   36.2350   33.1200   39.7960 H   0  0  0  0  0  0  0  0  0  0  0  0
   39.7220   30.6380   39.6290 H   0  0  0  0  0  0  0  0  0  0  0  0
   40.0370   34.7680   40.1190 H   0  0  0  0  0  0  0  0  0  0  0  0
   36.9250   29.8810   41.7690 C   0  0  0  0  0  0  0  0  0  0  0  0
   37.4230   30.5860   42.4240 H   0  0  0  0  0  0  0  0  0  0  0  0
   36.9760   28.6740   41.9000 O   0  0  0  0  0  0  0  0  0  0  0  0
  1 16  1  0  0  0  0
  1  2  1  0  0  0  0
  2  7  1  1  0  0  0
  2 24  1  0  0  0  0
  3  2  1  0  0  0  0
  3  8  1  0  0  0  0
  3  9  1  0  0  0  0
  4  3  1  0  0  0  0
  5  6  1  0  0  0  0
  5  4  1  0  0  0  0
  6 14  1  0  0  0  0
  6  1  1  0  0  0  0
 10  4  1  0  0  0  0
 11  5  1  0  0  0  0
 12  5  1  0  0  0  0
 13  6  1  0  0  0  0
 15 20  1  0  0  0  0
 16 17  1  0  0  0  0
 16 15  2  0  0  0  0
 17 18  2  0  0  0  0
 18 19  1  0  0  0  0
 19 23  1  0  0  0  0
 20 19  2  0  0  0  0
 21 15  1  0  0  0  0
 22 17  1  0  0  0  0
 24 26  2  0  0  0  0
 24 25  1  0  0  0  0
M  END
>  <minimizedAffinity>
-3.62651038

$$$$

 OpenBabel03252508333D

 26 27  0  0  1  0  0  0  0  0999 V2000
   37.7580   28.6180   41.2280 N   0  0  0  0  0  0  0  0  0  0  0  0
   36.4520   28.0320   41.0930 C   0  0  1  0  0  0  0  0  0  0  0  0
   35.3960   28.9480   40.6190 C   0  0  0  0  0  0  0  0  0  0  0  0
   35.4790   30.2880   41.0200 N   0  0  0  0  0  0  0  0  0  0  0  0
   36.7280   30.8080   41.3880 C   0  0  0  0  0  0  0  0  0  0  0  0
   37.8510   29.9720   40.7880 C   0  0  0  0  0  0  0  0  0  0  0  0
   36.1770   27.5110   42.0390 H   0  0  0  0  0  0  0  0  0  0  0  0
   35.2870   28.8450   39.5120 H   0  0  0  0  0  0  0  0  0  0  0  0
   34.4160   28.5420   41.0090 H   0  0  0  0  0  0  0  0  0  0  0  0
   35.0560   30.8970   40.2700 H   0  0  0  0  0  0  0  0  0  0  0  0
   36.8520   30.6740   42.5020 H   0  0  0  0  0  0  0  0  0  0  0  0
   36.8520   31.8750   41.2090 H   0  0  0  0  0  0  0  0  0  0  0  0
   38.8060   30.4710   40.8770 H   0  0  0  0  0  0  0  0  0  0  0  0
   37.6270   29.9520   39.6790 H   0  0  0  0  0  0  0  0  0  0  0  0
   38.5680   27.3080   43.0420 C   0  0  0  0  0  0  0  0  0  0  0  0
   38.7800   27.8100   41.7630 C   0  0  0  0  0  0  0  0  0  0  0  0
   39.9710   27.4690   41.1520 C   0  0  0  0  0  0  0  0  0  0  0  0
   40.8860   26.6820   41.7750 N   0  0  0  0  0  0  0  0  0  0  0  0
   40.6390   26.2100   43.0310 C   0  0  0  0  0  0  0  0  0  0  0  0
   39.4970   26.5200   43.6510 N   0  0  0  0  0  0  0  0  0  0  0  0
   37.7140   27.4530   43.6860 H   0  0  0  0  0  0  0  0  0  0  0  0
   40.1390   27.8480   40.1770 H   0  0  0  0  0  0  0  0  0  0  0  0
   41.4240   25.5940   43.4420 H   0  0  0  0  0  0  0  0  0  0  0  0
   36.6160   26.9270   40.0730 C   0  0  0  0  0  0  0  0  0  0  0  0
   37.0860   25.9710   40.2670 H   0  0  0  0  0  0  0  0  0  0  0  0
   36.1460   27.2530   39.0000 O   0  0  0  0  0  0  0  0  0  0  0  0
  1 16  1  0  0  0  0
  2  1  1  0  0  0  0
  2  7  1  1  0  0  0
  3  9  1  0  0  0  0
  3  4  1  0  0  0  0
  3  2  1  0  0  0  0
  4  5  1  0  0  0  0
  5 11  1  0  0  0  0
  6 13  1  0  0  0  0
  6  1  1  0  0  0  0
  6  5  1  0  0  0  0
  8  3  1  0  0  0  0
 10  4  1  0  0  0  0
 12  5  1  0  0  0  0
 14  6  1  0  0  0  0
 15 20  1  0  0  0  0
 15 21  1  0  0  0  0
 16 15  2  0  0  0  0
 17 16  1  0  0  0  0
 17 18  2  0  0  0  0
 18 19  1  0  0  0  0
 19 23  1  0  0  0  0
 19 20  2  0  0  0  0
 22 17  1  0  0  0  0
 24 25  1  0  0  0  0
 24  2  1  0  0  0  0
 26 24  2  0  0  0  0
M  END
>  <minimizedAffinity>
-3.61231947

$$$$

 OpenBabel03252508333D

 26 27  0  0  1  0  0  0  0  0999 V2000
   38.1950   29.9110   40.9980 N   0  0  0  0  0  0  0  0  0  0  0  0
   38.3380   29.7180   42.4150 C   0  0  1  0  0  0  0  0  0  0  0  0
   37.5340   28.6200   42.9860 C   0  0  0  0  0  0  0  0  0  0  0  0
   36.2800   28.3730   42.4110 N   0  0  0  0  0  0  0  0  0  0  0  0
   36.0510   28.7800   41.0890 C   0  0  0  0  0  0  0  0  0  0  0  0
   37.3710   28.9470   40.3460 C   0  0  0  0  0  0  0  0  0  0  0  0
   38.1780   30.6860   42.9420 H   0  0  0  0  0  0  0  0  0  0  0  0
   38.1590   27.6950   43.0450 H   0  0  0  0  0  0  0  0  0  0  0  0
   37.3590   28.8760   44.0730 H   0  0  0  0  0  0  0  0  0  0  0  0
   36.0570   27.3470   42.5030 H   0  0  0  0  0  0  0  0  0  0  0  0
   35.6150   29.8220   41.1100 H   0  0  0  0  0  0  0  0  0  0  0  0
   35.3290   28.1760   40.5410 H   0  0  0  0  0  0  0  0  0  0  0  0
   37.2130   29.0480   39.2810 H   0  0  0  0  0  0  0  0  0  0  0  0
   37.8950   27.9530   40.4770 H   0  0  0  0  0  0  0  0  0  0  0  0
   38.5220   32.2660   40.8890 C   0  0  0  0  0  0  0  0  0  0  0  0
   38.8700   31.0040   40.4210 C   0  0  0  0  0  0  0  0  0  0  0  0
   39.8370   30.9520   39.4360 C   0  0  0  0  0  0  0  0  0  0  0  0
   40.4160   32.0820   38.9520 N   0  0  0  0  0  0  0  0  0  0  0  0
   40.0460   33.3020   39.4390 C   0  0  0  0  0  0  0  0  0  0  0  0
   39.1140   33.3880   40.3920 N   0  0  0  0  0  0  0  0  0  0  0  0
   37.7990   32.5240   41.6470 H   0  0  0  0  0  0  0  0  0  0  0  0
   40.1070   29.9930   39.0740 H   0  0  0  0  0  0  0  0  0  0  0  0
   40.5610   34.1390   38.9930 H   0  0  0  0  0  0  0  0  0  0  0  0
   39.8000   29.3960   42.6260 C   0  0  0  0  0  0  0  0  0  0  0  0
   40.6200   30.0690   42.4100 H   0  0  0  0  0  0  0  0  0  0  0  0
   39.9380   28.2740   43.0750 O   0  0  0  0  0  0  0  0  0  0  0  0
  1  2  1  0  0  0  0
  2 24  1  0  0  0  0
  2  7  1  1  0  0  0
  2  3  1  0  0  0  0
  3  8  1  0  0  0  0
  3  9  1  0  0  0  0
  4 10  1  0  0  0  0
  4  3  1  0  0  0  0
  5 11  1  0  0  0  0
  5  4  1  0  0  0  0
  6 14  1  0  0  0  0
  6  1  1  0  0  0  0
  6  5  1  0  0  0  0
 12  5  1  0  0  0  0
 13  6  1  0  0  0  0
 15 21  1  0  0  0  0
 16 15  1  0  0  0  0
 16  1  1  0  0  0  0
 17 16  2  0  0  0  0
 18 17  1  0  0  0  0
 18 19  2  0  0  0  0
 19 20  1  0  0  0  0
 20 15  2  0  0  0  0
 22 17  1  0  0  0  0
 23 19  1  0  0  0  0
 24 26  2  0  0  0  0
 25 24  1  0  0  0  0
M  END
>  <minimizedAffinity>
-3.59846616

$$$$
