
 OpenBabel03242516483D

 37 39  0  0  1  0  0  0  0  0999 V2000
   47.8710   32.9340   41.8220 C   0  0  1  0  0  0  0  0  0  0  0  0
   47.5630   32.1770   40.5920 C   0  0  0  0  0  0  0  0  0  0  0  0
   48.5950   32.6310   39.5570 C   0  0  0  0  0  0  0  0  0  0  0  0
   48.2500   34.0650   39.2040 C   0  0  0  0  0  0  0  0  0  0  0  0
   48.1640   34.9800   40.3800 C   0  0  0  0  0  0  0  0  0  0  0  0
   47.6650   34.4240   41.6450 C   0  0  1  0  0  0  0  0  0  0  0  0
   48.9820   32.8480   42.0250 H   0  0  0  0  0  0  0  0  0  0  0  0
   46.5570   32.3800   40.1920 H   0  0  0  0  0  0  0  0  0  0  0  0
   47.6700   31.0900   40.8060 H   0  0  0  0  0  0  0  0  0  0  0  0
   48.4590   32.0270   38.6430 H   0  0  0  0  0  0  0  0  0  0  0  0
   49.5990   32.5600   39.9940 H   0  0  0  0  0  0  0  0  0  0  0  0
   47.3220   34.0330   38.5840 H   0  0  0  0  0  0  0  0  0  0  0  0
   49.0450   34.3980   38.5080 H   0  0  0  0  0  0  0  0  0  0  0  0
   47.5030   35.8260   40.0750 H   0  0  0  0  0  0  0  0  0  0  0  0
   49.1730   35.4560   40.4970 H   0  0  0  0  0  0  0  0  0  0  0  0
   48.2570   34.8950   42.4890 H   0  0  0  0  0  0  0  0  0  0  0  0
   45.4860   31.0880   44.0980 C   0  0  0  0  0  0  0  0  0  0  0  0
   46.1630   31.5620   42.9730 C   0  0  0  0  0  0  0  0  0  0  0  0
   47.2110   32.4700   43.0350 C   0  0  0  0  0  0  0  0  0  0  0  0
   47.5560   32.8880   44.2650 N   0  0  0  0  0  0  0  0  0  0  0  0
   46.9080   32.4380   45.3690 C   0  0  0  0  0  0  0  0  0  0  0  0
   45.9000   31.5620   45.3010 N   0  0  0  0  0  0  0  0  0  0  0  0
   44.6750   30.3810   44.0100 H   0  0  0  0  0  0  0  0  0  0  0  0
   45.8030   31.1620   42.0410 H   0  0  0  0  0  0  0  0  0  0  0  0
   47.3020   32.8680   46.2980 H   0  0  0  0  0  0  0  0  0  0  0  0
   46.2720   34.8090   41.9300 C   0  0  0  0  0  0  0  0  0  0  0  0
   45.8060   35.4970   43.0550 C   0  0  0  0  0  0  0  0  0  0  0  0
   44.4390   35.7670   43.0830 C   0  0  0  0  0  0  0  0  0  0  0  0
   43.6650   35.3440   42.0220 C   0  0  0  0  0  0  0  0  0  0  0  0
   44.1390   34.6690   40.9220 C   0  0  0  0  0  0  0  0  0  0  0  0
   45.4720   34.4080   40.9000 N   0  0  0  0  0  0  0  0  0  0  0  0
   46.5270   35.7440   43.7700 H   0  0  0  0  0  0  0  0  0  0  0  0
   44.0720   36.2970   43.9470 H   0  0  0  0  0  0  0  0  0  0  0  0
   42.5970   35.5660   42.0640 H   0  0  0  0  0  0  0  0  0  0  0  0
   43.2380   34.2570   39.8370 C   0  0  0  0  0  0  0  0  0  0  0  0
   43.3630   33.2700   39.4170 H   0  0  0  0  0  0  0  0  0  0  0  0
   42.3650   35.0750   39.4500 O   0  0  0  0  0  0  0  0  0  0  0  0
  1  7  1  1  0  0  0
  1 19  1  0  0  0  0
  2  9  1  0  0  0  0
  2  1  1  0  0  0  0
  3 11  1  0  0  0  0
  3  2  1  0  0  0  0
  4  3  1  0  0  0  0
  4  5  1  0  0  0  0
  5 15  1  0  0  0  0
  5  6  1  0  0  0  0
  6  1  1  0  0  0  0
  6 26  1  0  0  0  0
  6 16  1  1  0  0  0
  8  2  1  0  0  0  0
 10  3  1  0  0  0  0
 12  4  1  0  0  0  0
 13  4  1  0  0  0  0
 14  5  1  0  0  0  0
 17 22  1  0  0  0  0
 18 19  1  0  0  0  0
 18 17  2  0  0  0  0
 19 20  2  0  0  0  0
 20 21  1  0  0  0  0
 21 25  1  0  0  0  0
 22 21  2  0  0  0  0
 23 17  1  0  0  0  0
 24 18  1  0  0  0  0
 26 27  1  0  0  0  0
 27 28  2  0  0  0  0
 27 32  1  0  0  0  0
 28 33  1  0  0  0  0
 29 34  1  0  0  0  0
 29 28  1  0  0  0  0
 30 29  2  0  0  0  0
 31 30  1  0  0  0  0
 31 26  2  0  0  0  0
 35 30  1  0  0  0  0
 36 35  1  0  0  0  0
 37 35  2  0  0  0  0
M  END
>  <minimizedAffinity>
-4.82664394

>  <minimizedRMSD>
0.339444906

$$$$
