
 OpenBabel03252501283D

 36 39  0  0  0  0  0  0  0  0999 V2000
   40.6680   31.8090   38.9520 F   0  0  0  0  0  0  0  0  0  0  0  0
   40.3330   32.9870   39.4620 C   0  0  0  0  0  0  0  0  0  0  0  0
   39.1390   33.1280   40.1360 C   0  0  0  0  0  0  0  0  0  0  0  0
   38.7700   34.3640   40.6810 C   0  0  0  0  0  0  0  0  0  0  0  0
   39.5740   35.4730   40.5660 C   0  0  0  0  0  0  0  0  0  0  0  0
   40.7640   35.3120   39.8890 C   0  0  0  0  0  0  0  0  0  0  0  0
   41.1430   34.0960   39.3440 C   0  0  0  0  0  0  0  0  0  0  0  0
   37.8390   34.4990   41.2140 H   0  0  0  0  0  0  0  0  0  0  0  0
   39.2810   36.4230   40.9900 H   0  0  0  0  0  0  0  0  0  0  0  0
   41.4140   36.1730   39.7870 H   0  0  0  0  0  0  0  0  0  0  0  0
   42.4250   34.0380   38.6480 C   0  0  0  0  0  0  0  0  0  0  0  0
   42.7380   34.0320   37.3060 C   0  0  0  0  0  0  0  0  0  0  0  0
   44.0760   33.9690   37.1330 N   0  0  0  0  0  0  0  0  0  0  0  0
   44.6160   33.9340   38.3610 C   0  0  0  0  0  0  0  0  0  0  0  0
   43.6240   33.9760   39.2730 N   0  0  0  0  0  0  0  0  0  0  0  0
   41.9980   34.0740   36.5280 H   0  0  0  0  0  0  0  0  0  0  0  0
   44.6310   33.9480   36.2620 H   0  0  0  0  0  0  0  0  0  0  0  0
   45.6380   33.8820   38.7070 H   0  0  0  0  0  0  0  0  0  0  0  0
   37.4720   30.1830   41.0860 C   0  0  0  0  0  0  0  0  0  0  0  0
   36.4680   30.8160   40.3410 C   0  0  0  0  0  0  0  0  0  0  0  0
   36.9520   32.0010   39.8840 C   0  0  0  0  0  0  0  0  0  0  0  0
   38.2140   32.0940   40.3360 N   0  0  0  0  0  0  0  0  0  0  0  0
   38.5070   31.0030   41.0490 N   0  0  0  0  0  0  0  0  0  0  0  0
   35.4710   30.4210   40.1610 H   0  0  0  0  0  0  0  0  0  0  0  0
   36.4270   32.7240   39.2800 H   0  0  0  0  0  0  0  0  0  0  0  0
   37.1890   27.6320   43.6830 C   0  0  0  0  0  0  0  0  0  0  0  0
   37.0620   26.4380   42.9300 C   0  0  0  0  0  0  0  0  0  0  0  0
   37.0760   26.5420   41.5360 C   0  0  0  0  0  0  0  0  0  0  0  0
   37.2110   27.7700   41.0180 N   0  0  0  0  0  0  0  0  0  0  0  0
   37.3310   28.8970   41.7360 C   0  0  0  0  0  0  0  0  0  0  0  0
   37.3220   28.8390   43.1040 N   0  0  0  0  0  0  0  0  0  0  0  0
   37.1780   27.5510   44.7600 H   0  0  0  0  0  0  0  0  0  0  0  0
   36.9570   25.4820   43.4260 H   0  0  0  0  0  0  0  0  0  0  0  0
   36.9500   25.3590   40.7010 C   0  0  0  0  0  0  0  0  0  0  0  0
   37.0160   25.4710   39.6400 H   0  0  0  0  0  0  0  0  0  0  0  0
   36.7690   24.2420   41.2490 O   0  0  0  0  0  0  0  0  0  0  0  0
  1  2  1  0  0  0  0
  2  3  1  0  0  0  0
  3 22  1  0  0  0  0
  3  4  2  0  0  0  0
  4  8  1  0  0  0  0
  5  4  1  0  0  0  0
  5  9  1  0  0  0  0
  6  5  2  0  0  0  0
  7  2  2  0  0  0  0
  7  6  1  0  0  0  0
 10  6  1  0  0  0  0
 11 15  1  0  0  0  0
 11  7  1  0  0  0  0
 12 11  2  0  0  0  0
 13 12  1  0  0  0  0
 13 14  1  0  0  0  0
 14 18  1  0  0  0  0
 14 15  2  0  0  0  0
 16 12  1  0  0  0  0
 17 13  1  0  0  0  0
 19 30  1  0  0  0  0
 20 19  1  0  0  0  0
 21 22  1  0  0  0  0
 21 20  2  0  0  0  0
 22 23  1  0  0  0  0
 23 19  2  0  0  0  0
 24 20  1  0  0  0  0
 25 21  1  0  0  0  0
 26 32  1  0  0  0  0
 27 33  1  0  0  0  0
 27 26  2  0  0  0  0
 28 27  1  0  0  0  0
 29 28  2  0  0  0  0
 29 30  1  0  0  0  0
 30 31  2  0  0  0  0
 31 26  1  0  0  0  0
 34 36  2  0  0  0  0
 34 28  1  0  0  0  0
 35 34  1  0  0  0  0
M  END
>  <minimizedAffinity>
-6.53714609

$$$$

 OpenBabel03252501283D

 36 39  0  0  0  0  0  0  0  0999 V2000
   37.5400   27.6160   39.9770 F   0  0  0  0  0  0  0  0  0  0  0  0
   37.4690   27.7180   41.2980 C   0  0  0  0  0  0  0  0  0  0  0  0
   37.4150   28.9630   41.8860 C   0  0  0  0  0  0  0  0  0  0  0  0
   37.3390   29.0900   43.2790 C   0  0  0  0  0  0  0  0  0  0  0  0
   37.3160   27.9910   44.1040 C   0  0  0  0  0  0  0  0  0  0  0  0
   37.3700   26.7550   43.4970 C   0  0  0  0  0  0  0  0  0  0  0  0
   37.4450   26.6130   42.1200 C   0  0  0  0  0  0  0  0  0  0  0  0
   37.2960   30.0560   43.7640 H   0  0  0  0  0  0  0  0  0  0  0  0
   37.2570   28.0990   45.1780 H   0  0  0  0  0  0  0  0  0  0  0  0
   37.3530   25.8740   44.1280 H   0  0  0  0  0  0  0  0  0  0  0  0
   37.4980   25.2560   41.5830 C   0  0  0  0  0  0  0  0  0  0  0  0
   38.3700   24.2140   41.8130 C   0  0  0  0  0  0  0  0  0  0  0  0
   38.0170   23.1340   41.0820 N   0  0  0  0  0  0  0  0  0  0  0  0
   36.9240   23.4860   40.3880 C   0  0  0  0  0  0  0  0  0  0  0  0
   36.6100   24.7610   40.6890 N   0  0  0  0  0  0  0  0  0  0  0  0
   39.2050   24.2810   42.4860 H   0  0  0  0  0  0  0  0  0  0  0  0
   38.4580   22.2010   41.0250 H   0  0  0  0  0  0  0  0  0  0  0  0
   36.3050   22.9500   39.6830 H   0  0  0  0  0  0  0  0  0  0  0  0
   38.2530   32.0580   40.4470 C   0  0  0  0  0  0  0  0  0  0  0  0
   36.9490   31.8950   39.9600 C   0  0  0  0  0  0  0  0  0  0  0  0
   36.4580   30.7180   40.4300 C   0  0  0  0  0  0  0  0  0  0  0  0
   37.4300   30.1750   41.1820 N   0  0  0  0  0  0  0  0  0  0  0  0
   38.4910   30.9860   41.1810 N   0  0  0  0  0  0  0  0  0  0  0  0
   36.4240   32.5950   39.3150 H   0  0  0  0  0  0  0  0  0  0  0  0
   35.4810   30.3030   40.2380 H   0  0  0  0  0  0  0  0  0  0  0  0
   39.5350   35.4740   40.3120 C   0  0  0  0  0  0  0  0  0  0  0  0
   40.7500   35.3200   39.5990 C   0  0  0  0  0  0  0  0  0  0  0  0
   41.1010   34.0330   39.1790 C   0  0  0  0  0  0  0  0  0  0  0  0
   40.2550   33.0410   39.4850 N   0  0  0  0  0  0  0  0  0  0  0  0
   39.1050   33.1930   40.1610 C   0  0  0  0  0  0  0  0  0  0  0  0
   38.7250   34.4360   40.5890 N   0  0  0  0  0  0  0  0  0  0  0  0
   39.2640   36.4680   40.6360 H   0  0  0  0  0  0  0  0  0  0  0  0
   41.3800   36.1760   39.3910 H   0  0  0  0  0  0  0  0  0  0  0  0
   42.3330   33.8010   38.4430 C   0  0  0  0  0  0  0  0  0  0  0  0
   43.0510   33.1220   38.8490 H   0  0  0  0  0  0  0  0  0  0  0  0
   42.5160   34.4040   37.3550 O   0  0  0  0  0  0  0  0  0  0  0  0
  1  2  1  0  0  0  0
  2  3  2  0  0  0  0
  2  7  1  0  0  0  0
  3  4  1  0  0  0  0
  4  8  1  0  0  0  0
  4  5  2  0  0  0  0
  5  9  1  0  0  0  0
  6  5  1  0  0  0  0
  6 10  1  0  0  0  0
  7  6  2  0  0  0  0
 11 12  2  0  0  0  0
 11  7  1  0  0  0  0
 12 16  1  0  0  0  0
 13 12  1  0  0  0  0
 14 15  2  0  0  0  0
 14 13  1  0  0  0  0
 15 11  1  0  0  0  0
 17 13  1  0  0  0  0
 18 14  1  0  0  0  0
 19 23  2  0  0  0  0
 20 21  2  0  0  0  0
 20 19  1  0  0  0  0
 21 22  1  0  0  0  0
 22  3  1  0  0  0  0
 23 22  1  0  0  0  0
 24 20  1  0  0  0  0
 25 21  1  0  0  0  0
 26 31  1  0  0  0  0
 26 32  1  0  0  0  0
 27 26  2  0  0  0  0
 28 29  2  0  0  0  0
 28 27  1  0  0  0  0
 29 30  1  0  0  0  0
 30 19  1  0  0  0  0
 30 31  2  0  0  0  0
 33 27  1  0  0  0  0
 34 35  1  0  0  0  0
 34 28  1  0  0  0  0
 36 34  2  0  0  0  0
M  END
>  <minimizedAffinity>
-6.4888835

$$$$

 OpenBabel03252501283D

 36 39  0  0  0  0  0  0  0  0999 V2000
   40.7370   31.7990   39.0600 F   0  0  0  0  0  0  0  0  0  0  0  0
   40.3110   32.9810   39.4840 C   0  0  0  0  0  0  0  0  0  0  0  0
   39.0960   33.0800   40.1280 C   0  0  0  0  0  0  0  0  0  0  0  0
   38.6300   34.3210   40.5830 C   0  0  0  0  0  0  0  0  0  0  0  0
   39.3580   35.4740   40.4090 C   0  0  0  0  0  0  0  0  0  0  0  0
   40.5700   35.3530   39.7640 C   0  0  0  0  0  0  0  0  0  0  0  0
   41.0440   34.1340   39.3070 C   0  0  0  0  0  0  0  0  0  0  0  0
   37.6810   34.4240   41.0900 H   0  0  0  0  0  0  0  0  0  0  0  0
   38.9900   36.4260   40.7640 H   0  0  0  0  0  0  0  0  0  0  0  0
   41.1600   36.2500   39.6150 H   0  0  0  0  0  0  0  0  0  0  0  0
   42.3420   34.1220   38.6370 C   0  0  0  0  0  0  0  0  0  0  0  0
   42.6840   34.1880   37.3040 C   0  0  0  0  0  0  0  0  0  0  0  0
   44.0260   34.1440   37.1590 N   0  0  0  0  0  0  0  0  0  0  0  0
   44.5390   34.0490   38.3950 C   0  0  0  0  0  0  0  0  0  0  0  0
   43.5270   34.0370   39.2850 N   0  0  0  0  0  0  0  0  0  0  0  0
   41.9610   34.2640   36.5130 H   0  0  0  0  0  0  0  0  0  0  0  0
   44.6000   34.1720   36.3000 H   0  0  0  0  0  0  0  0  0  0  0  0
   45.5530   33.9880   38.7600 H   0  0  0  0  0  0  0  0  0  0  0  0
   37.6900   29.9790   40.9960 C   0  0  0  0  0  0  0  0  0  0  0  0
   36.5420   30.6760   40.5970 C   0  0  0  0  0  0  0  0  0  0  0  0
   36.9090   31.9290   40.2170 C   0  0  0  0  0  0  0  0  0  0  0  0
   38.2410   31.9990   40.3800 N   0  0  0  0  0  0  0  0  0  0  0  0
   38.6890   30.8290   40.8440 N   0  0  0  0  0  0  0  0  0  0  0  0
   35.5310   30.2780   40.5920 H   0  0  0  0  0  0  0  0  0  0  0  0
   36.2600   32.7110   39.8580 H   0  0  0  0  0  0  0  0  0  0  0  0
   36.8540   26.4460   41.3840 C   0  0  0  0  0  0  0  0  0  0  0  0
   37.7560   26.0240   42.3920 C   0  0  0  0  0  0  0  0  0  0  0  0
   38.6360   26.9740   42.9180 C   0  0  0  0  0  0  0  0  0  0  0  0
   38.5570   28.2160   42.4240 N   0  0  0  0  0  0  0  0  0  0  0  0
   37.7010   28.6110   41.4690 C   0  0  0  0  0  0  0  0  0  0  0  0
   36.8220   27.7110   40.9280 N   0  0  0  0  0  0  0  0  0  0  0  0
   36.1740   25.7110   40.9770 H   0  0  0  0  0  0  0  0  0  0  0  0
   37.7560   24.9980   42.7380 H   0  0  0  0  0  0  0  0  0  0  0  0
   39.5890   26.6110   43.9550 C   0  0  0  0  0  0  0  0  0  0  0  0
   39.7840   27.3120   44.7380 H   0  0  0  0  0  0  0  0  0  0  0  0
   40.1510   25.4880   43.9010 O   0  0  0  0  0  0  0  0  0  0  0  0
  1  2  1  0  0  0  0
  2  3  1  0  0  0  0
  3 22  1  0  0  0  0
  3  4  2  0  0  0  0
  4  8  1  0  0  0  0
  5  4  1  0  0  0  0
  5  9  1  0  0  0  0
  6  5  2  0  0  0  0
  7  2  2  0  0  0  0
  7  6  1  0  0  0  0
 10  6  1  0  0  0  0
 11 15  1  0  0  0  0
 11  7  1  0  0  0  0
 12 11  2  0  0  0  0
 13 12  1  0  0  0  0
 13 14  1  0  0  0  0
 14 18  1  0  0  0  0
 14 15  2  0  0  0  0
 16 12  1  0  0  0  0
 17 13  1  0  0  0  0
 19 30  1  0  0  0  0
 20 19  1  0  0  0  0
 21 22  1  0  0  0  0
 21 20  2  0  0  0  0
 22 23  1  0  0  0  0
 23 19  2  0  0  0  0
 24 20  1  0  0  0  0
 25 21  1  0  0  0  0
 26 27  1  0  0  0  0
 27 33  1  0  0  0  0
 27 28  2  0  0  0  0
 28 34  1  0  0  0  0
 29 28  1  0  0  0  0
 30 29  2  0  0  0  0
 31 26  2  0  0  0  0
 31 30  1  0  0  0  0
 32 26  1  0  0  0  0
 34 35  1  0  0  0  0
 36 34  2  0  0  0  0
M  END
>  <minimizedAffinity>
-6.47104645

$$$$

 OpenBabel03252501283D

 36 39  0  0  0  0  0  0  0  0999 V2000
   38.7220   28.3320   41.9930 F   0  0  0  0  0  0  0  0  0  0  0  0
   38.0670   27.7940   40.9730 C   0  0  0  0  0  0  0  0  0  0  0  0
   37.4110   28.6080   40.0740 C   0  0  0  0  0  0  0  0  0  0  0  0
   36.7140   28.0570   38.9910 C   0  0  0  0  0  0  0  0  0  0  0  0
   36.6580   26.6990   38.7830 C   0  0  0  0  0  0  0  0  0  0  0  0
   37.3210   25.9030   39.6920 C   0  0  0  0  0  0  0  0  0  0  0  0
   38.0140   26.4320   40.7690 C   0  0  0  0  0  0  0  0  0  0  0  0
   36.1920   28.6740   38.2730 H   0  0  0  0  0  0  0  0  0  0  0  0
   36.1190   26.2830   37.9440 H   0  0  0  0  0  0  0  0  0  0  0  0
   37.2910   24.8290   39.5480 H   0  0  0  0  0  0  0  0  0  0  0  0
   38.6800   25.4960   41.6700 C   0  0  0  0  0  0  0  0  0  0  0  0
   38.2310   24.3570   42.3020 C   0  0  0  0  0  0  0  0  0  0  0  0
   39.2160   23.8100   43.0470 N   0  0  0  0  0  0  0  0  0  0  0  0
   40.2920   24.5980   42.8900 C   0  0  0  0  0  0  0  0  0  0  0  0
   39.9710   25.6110   42.0620 N   0  0  0  0  0  0  0  0  0  0  0  0
   37.2290   23.9810   42.1980 H   0  0  0  0  0  0  0  0  0  0  0  0
   39.2070   22.9630   43.6370 H   0  0  0  0  0  0  0  0  0  0  0  0
   41.2930   24.5500   43.2910 H   0  0  0  0  0  0  0  0  0  0  0  0
   38.1650   32.0400   40.0840 C   0  0  0  0  0  0  0  0  0  0  0  0
   36.7950   32.0800   40.3760 C   0  0  0  0  0  0  0  0  0  0  0  0
   36.3260   30.8040   40.4130 C   0  0  0  0  0  0  0  0  0  0  0  0
   37.3750   30.0070   40.1500 N   0  0  0  0  0  0  0  0  0  0  0  0
   38.4620   30.7590   39.9580 N   0  0  0  0  0  0  0  0  0  0  0  0
   36.2110   32.9800   40.5440 H   0  0  0  0  0  0  0  0  0  0  0  0
   35.3130   30.4940   40.6120 H   0  0  0  0  0  0  0  0  0  0  0  0
   39.3910   35.4710   40.3280 C   0  0  0  0  0  0  0  0  0  0  0  0
   40.6620   35.3900   39.7070 C   0  0  0  0  0  0  0  0  0  0  0  0
   41.0690   34.1460   39.2150 C   0  0  0  0  0  0  0  0  0  0  0  0
   40.2190   33.1220   39.3710 N   0  0  0  0  0  0  0  0  0  0  0  0
   39.0160   33.2050   39.9600 C   0  0  0  0  0  0  0  0  0  0  0  0
   38.5800   34.4050   40.4550 N   0  0  0  0  0  0  0  0  0  0  0  0
   39.0760   36.4320   40.7080 H   0  0  0  0  0  0  0  0  0  0  0  0
   41.2900   36.2670   39.6200 H   0  0  0  0  0  0  0  0  0  0  0  0
   42.3600   33.9890   38.5660 C   0  0  0  0  0  0  0  0  0  0  0  0
   43.0600   33.2960   38.9800 H   0  0  0  0  0  0  0  0  0  0  0  0
   42.6140   34.6710   37.5410 O   0  0  0  0  0  0  0  0  0  0  0  0
  2  1  1  0  0  0  0
  3 22  1  0  0  0  0
  3  2  2  0  0  0  0
  4  3  1  0  0  0  0
  5  4  2  0  0  0  0
  5  6  1  0  0  0  0
  6  7  2  0  0  0  0
  7  2  1  0  0  0  0
  7 11  1  0  0  0  0
  8  4  1  0  0  0  0
  9  5  1  0  0  0  0
 10  6  1  0  0  0  0
 11 15  1  0  0  0  0
 11 12  2  0  0  0  0
 12 13  1  0  0  0  0
 13 17  1  0  0  0  0
 14 13  1  0  0  0  0
 14 18  1  0  0  0  0
 15 14  2  0  0  0  0
 16 12  1  0  0  0  0
 19 20  1  0  0  0  0
 20 21  2  0  0  0  0
 20 24  1  0  0  0  0
 21 25  1  0  0  0  0
 22 21  1  0  0  0  0
 23 19  2  0  0  0  0
 23 22  1  0  0  0  0
 26 31  1  0  0  0  0
 26 32  1  0  0  0  0
 27 26  2  0  0  0  0
 28 29  2  0  0  0  0
 28 27  1  0  0  0  0
 29 30  1  0  0  0  0
 30 19  1  0  0  0  0
 30 31  2  0  0  0  0
 33 27  1  0  0  0  0
 34 35  1  0  0  0  0
 34 28  1  0  0  0  0
 36 34  2  0  0  0  0
M  END
>  <minimizedAffinity>
-5.88652325

$$$$

 OpenBabel03252501283D

 36 39  0  0  0  0  0  0  0  0999 V2000
   39.8590   26.7160   40.9830 F   0  0  0  0  0  0  0  0  0  0  0  0
   38.8900   27.0490   41.8260 C   0  0  0  0  0  0  0  0  0  0  0  0
   38.9180   28.2780   42.4500 C   0  0  0  0  0  0  0  0  0  0  0  0
   37.9040   28.6480   43.3420 C   0  0  0  0  0  0  0  0  0  0  0  0
   36.8530   27.8100   43.6280 C   0  0  0  0  0  0  0  0  0  0  0  0
   36.8420   26.5860   42.9940 C   0  0  0  0  0  0  0  0  0  0  0  0
   37.8380   26.2060   42.1080 C   0  0  0  0  0  0  0  0  0  0  0  0
   37.9040   29.6060   43.8430 H   0  0  0  0  0  0  0  0  0  0  0  0
   36.0740   28.1040   44.3170 H   0  0  0  0  0  0  0  0  0  0  0  0
   36.0220   25.9090   43.2030 H   0  0  0  0  0  0  0  0  0  0  0  0
   37.7270   24.8860   41.4930 C   0  0  0  0  0  0  0  0  0  0  0  0
   38.4100   23.7110   41.7180 C   0  0  0  0  0  0  0  0  0  0  0  0
   37.9580   22.7370   40.8990 N   0  0  0  0  0  0  0  0  0  0  0  0
   36.9890   23.2890   40.1520 C   0  0  0  0  0  0  0  0  0  0  0  0
   36.8490   24.5810   40.5090 N   0  0  0  0  0  0  0  0  0  0  0  0
   39.1900   23.6140   42.4520 H   0  0  0  0  0  0  0  0  0  0  0  0
   38.2550   21.7520   40.8150 H   0  0  0  0  0  0  0  0  0  0  0  0
   36.3540   22.8930   39.3740 H   0  0  0  0  0  0  0  0  0  0  0  0
   40.8080   31.0990   41.5420 C   0  0  0  0  0  0  0  0  0  0  0  0
   41.7640   30.3750   42.2660 C   0  0  0  0  0  0  0  0  0  0  0  0
   41.1900   29.2230   42.7040 C   0  0  0  0  0  0  0  0  0  0  0  0
   39.9210   29.2400   42.2630 N   0  0  0  0  0  0  0  0  0  0  0  0
   39.7110   30.3640   41.5730 N   0  0  0  0  0  0  0  0  0  0  0  0
   42.7900   30.6860   42.4450 H   0  0  0  0  0  0  0  0  0  0  0  0
   41.6600   28.4490   43.2900 H   0  0  0  0  0  0  0  0  0  0  0  0
   42.4800   33.8590   39.8330 C   0  0  0  0  0  0  0  0  0  0  0  0
   41.4530   34.8320   39.7400 C   0  0  0  0  0  0  0  0  0  0  0  0
   40.2010   34.5110   40.2720 C   0  0  0  0  0  0  0  0  0  0  0  0
   40.0700   33.3010   40.8320 N   0  0  0  0  0  0  0  0  0  0  0  0
   41.0450   32.3840   40.9170 C   0  0  0  0  0  0  0  0  0  0  0  0
   42.2860   32.6590   40.4090 N   0  0  0  0  0  0  0  0  0  0  0  0
   43.4480   34.1070   39.4220 H   0  0  0  0  0  0  0  0  0  0  0  0
   41.6420   35.7890   39.2700 H   0  0  0  0  0  0  0  0  0  0  0  0
   39.1020   35.4610   40.2110 C   0  0  0  0  0  0  0  0  0  0  0  0
   39.2890   36.4770   40.4820 H   0  0  0  0  0  0  0  0  0  0  0  0
   37.9690   35.0600   39.8410 O   0  0  0  0  0  0  0  0  0  0  0  0
  1  2  1  0  0  0  0
  2  7  2  0  0  0  0
  2  3  1  0  0  0  0
  3  4  2  0  0  0  0
  4  5  1  0  0  0  0
  4  8  1  0  0  0  0
  5  9  1  0  0  0  0
  6 10  1  0  0  0  0
  6  5  2  0  0  0  0
  7  6  1  0  0  0  0
 11 12  2  0  0  0  0
 11  7  1  0  0  0  0
 12 16  1  0  0  0  0
 13 12  1  0  0  0  0
 14 15  2  0  0  0  0
 14 13  1  0  0  0  0
 15 11  1  0  0  0  0
 17 13  1  0  0  0  0
 18 14  1  0  0  0  0
 19 23  2  0  0  0  0
 19 20  1  0  0  0  0
 20 24  1  0  0  0  0
 20 21  2  0  0  0  0
 21 25  1  0  0  0  0
 22  3  1  0  0  0  0
 22 21  1  0  0  0  0
 23 22  1  0  0  0  0
 26 31  1  0  0  0  0
 27 26  2  0  0  0  0
 27 28  1  0  0  0  0
 28 29  2  0  0  0  0
 29 30  1  0  0  0  0
 30 19  1  0  0  0  0
 31 30  2  0  0  0  0
 32 26  1  0  0  0  0
 33 27  1  0  0  0  0
 34 28  1  0  0  0  0
 34 35  1  0  0  0  0
 36 34  2  0  0  0  0
M  END
>  <minimizedAffinity>
-5.77393913

$$$$

 OpenBabel03252501283D

 36 39  0  0  0  0  0  0  0  0999 V2000
   39.8880   27.0450   41.0290 F   0  0  0  0  0  0  0  0  0  0  0  0
   38.9590   27.4060   41.9040 C   0  0  0  0  0  0  0  0  0  0  0  0
   38.9980   28.6660   42.4620 C   0  0  0  0  0  0  0  0  0  0  0  0
   38.0250   29.0660   43.3880 C   0  0  0  0  0  0  0  0  0  0  0  0
   37.0050   28.2280   43.7710 C   0  0  0  0  0  0  0  0  0  0  0  0
   36.9830   26.9730   43.2010 C   0  0  0  0  0  0  0  0  0  0  0  0
   37.9380   26.5630   42.2840 C   0  0  0  0  0  0  0  0  0  0  0  0
   38.0350   30.0480   43.8390 H   0  0  0  0  0  0  0  0  0  0  0  0
   36.2580   28.5450   44.4850 H   0  0  0  0  0  0  0  0  0  0  0  0
   36.1870   26.2960   43.4880 H   0  0  0  0  0  0  0  0  0  0  0  0
   37.8190   25.2120   41.7430 C   0  0  0  0  0  0  0  0  0  0  0  0
   38.5960   24.0870   41.9100 C   0  0  0  0  0  0  0  0  0  0  0  0
   38.0890   23.0530   41.2050 N   0  0  0  0  0  0  0  0  0  0  0  0
   36.9910   23.5170   40.5890 C   0  0  0  0  0  0  0  0  0  0  0  0
   36.8260   24.8140   40.9120 N   0  0  0  0  0  0  0  0  0  0  0  0
   39.4790   24.0660   42.5240 H   0  0  0  0  0  0  0  0  0  0  0  0
   38.4300   22.0820   41.1170 H   0  0  0  0  0  0  0  0  0  0  0  0
   36.2750   23.0510   39.9280 H   0  0  0  0  0  0  0  0  0  0  0  0
   40.7980   31.4440   41.2810 C   0  0  0  0  0  0  0  0  0  0  0  0
   41.7860   30.8060   42.0430 C   0  0  0  0  0  0  0  0  0  0  0  0
   41.2500   29.6820   42.5870 C   0  0  0  0  0  0  0  0  0  0  0  0
   39.9720   29.6320   42.1740 N   0  0  0  0  0  0  0  0  0  0  0  0
   39.7200   30.6890   41.3970 N   0  0  0  0  0  0  0  0  0  0  0  0
   42.8070   31.1540   42.1720 H   0  0  0  0  0  0  0  0  0  0  0  0
   41.7500   28.9710   43.2250 H   0  0  0  0  0  0  0  0  0  0  0  0
   40.2250   34.7780   39.9080 C   0  0  0  0  0  0  0  0  0  0  0  0
   41.3950   35.0010   39.1390 C   0  0  0  0  0  0  0  0  0  0  0  0
   42.3590   33.9900   39.1130 C   0  0  0  0  0  0  0  0  0  0  0  0
   42.1000   32.8830   39.8210 N   0  0  0  0  0  0  0  0  0  0  0  0
   40.9900   32.6770   40.5470 C   0  0  0  0  0  0  0  0  0  0  0  0
   40.0210   33.6420   40.5980 N   0  0  0  0  0  0  0  0  0  0  0  0
   39.4790   35.5600   39.9280 H   0  0  0  0  0  0  0  0  0  0  0  0
   41.5280   35.9270   38.5940 H   0  0  0  0  0  0  0  0  0  0  0  0
   43.5840   34.1500   38.3460 C   0  0  0  0  0  0  0  0  0  0  0  0
   44.2120   34.9900   38.5540 H   0  0  0  0  0  0  0  0  0  0  0  0
   43.8680   33.2990   37.4650 O   0  0  0  0  0  0  0  0  0  0  0  0
  1  2  1  0  0  0  0
  2  7  2  0  0  0  0
  2  3  1  0  0  0  0
  3  4  2  0  0  0  0
  4  5  1  0  0  0  0
  4  8  1  0  0  0  0
  5  9  1  0  0  0  0
  6 10  1  0  0  0  0
  6  5  2  0  0  0  0
  7  6  1  0  0  0  0
 11 12  2  0  0  0  0
 11  7  1  0  0  0  0
 12 16  1  0  0  0  0
 13 12  1  0  0  0  0
 14 15  2  0  0  0  0
 14 13  1  0  0  0  0
 15 11  1  0  0  0  0
 17 13  1  0  0  0  0
 18 14  1  0  0  0  0
 19 23  2  0  0  0  0
 19 20  1  0  0  0  0
 20 24  1  0  0  0  0
 20 21  2  0  0  0  0
 21 25  1  0  0  0  0
 22  3  1  0  0  0  0
 22 21  1  0  0  0  0
 23 22  1  0  0  0  0
 26 32  1  0  0  0  0
 26 31  1  0  0  0  0
 27 26  2  0  0  0  0
 28 27  1  0  0  0  0
 28 29  2  0  0  0  0
 29 30  1  0  0  0  0
 30 31  2  0  0  0  0
 30 19  1  0  0  0  0
 33 27  1  0  0  0  0
 34 35  1  0  0  0  0
 34 28  1  0  0  0  0
 36 34  2  0  0  0  0
M  END
>  <minimizedAffinity>
-5.77375364

$$$$

 OpenBabel03252501283D

 36 39  0  0  0  0  0  0  0  0999 V2000
   36.9950   30.0860   40.8620 F   0  0  0  0  0  0  0  0  0  0  0  0
   38.2110   30.1490   41.3890 C   0  0  0  0  0  0  0  0  0  0  0  0
   38.7530   29.0360   41.9950 C   0  0  0  0  0  0  0  0  0  0  0  0
   40.0360   29.0840   42.5570 C   0  0  0  0  0  0  0  0  0  0  0  0
   40.7950   30.2290   42.5270 C   0  0  0  0  0  0  0  0  0  0  0  0
   40.2350   31.3310   41.9170 C   0  0  0  0  0  0  0  0  0  0  0  0
   38.9680   31.3000   41.3570 C   0  0  0  0  0  0  0  0  0  0  0  0
   40.4820   28.2240   43.0370 H   0  0  0  0  0  0  0  0  0  0  0  0
   41.7840   30.2570   42.9630 H   0  0  0  0  0  0  0  0  0  0  0  0
   40.8160   32.2450   41.8810 H   0  0  0  0  0  0  0  0  0  0  0  0
   38.4730   32.5260   40.7360 C   0  0  0  0  0  0  0  0  0  0  0  0
   37.3600   32.7750   39.9630 C   0  0  0  0  0  0  0  0  0  0  0  0
   37.3130   34.0780   39.6100 N   0  0  0  0  0  0  0  0  0  0  0  0
   38.3940   34.6580   40.1540 C   0  0  0  0  0  0  0  0  0  0  0  0
   39.0920   33.7260   40.8320 N   0  0  0  0  0  0  0  0  0  0  0  0
   36.6460   32.0180   39.6970 H   0  0  0  0  0  0  0  0  0  0  0  0
   36.6160   34.5840   39.0400 H   0  0  0  0  0  0  0  0  0  0  0  0
   38.7620   35.6730   40.1370 H   0  0  0  0  0  0  0  0  0  0  0  0
   37.5410   25.7700   41.5260 C   0  0  0  0  0  0  0  0  0  0  0  0
   36.9080   26.1070   42.7300 C   0  0  0  0  0  0  0  0  0  0  0  0
   37.2730   27.3720   43.0700 C   0  0  0  0  0  0  0  0  0  0  0  0
   38.1050   27.7980   42.1050 N   0  0  0  0  0  0  0  0  0  0  0  0
   38.2530   26.8320   41.1940 N   0  0  0  0  0  0  0  0  0  0  0  0
   36.2380   25.4630   43.2930 H   0  0  0  0  0  0  0  0  0  0  0  0
   36.9580   27.9230   43.9410 H   0  0  0  0  0  0  0  0  0  0  0  0
   38.3090   22.4760   40.1530 C   0  0  0  0  0  0  0  0  0  0  0  0
   37.0840   22.1010   39.5450 C   0  0  0  0  0  0  0  0  0  0  0  0
   36.0160   23.0000   39.6240 C   0  0  0  0  0  0  0  0  0  0  0  0
   36.2360   24.1520   40.2710 N   0  0  0  0  0  0  0  0  0  0  0  0
   37.3980   24.5010   40.8450 C   0  0  0  0  0  0  0  0  0  0  0  0
   38.4680   23.6490   40.7900 N   0  0  0  0  0  0  0  0  0  0  0  0
   39.1340   21.7810   40.0920 H   0  0  0  0  0  0  0  0  0  0  0  0
   36.9890   21.1490   39.0390 H   0  0  0  0  0  0  0  0  0  0  0  0
   34.7310   22.6820   39.0230 C   0  0  0  0  0  0  0  0  0  0  0  0
   34.7010   22.4250   37.9860 H   0  0  0  0  0  0  0  0  0  0  0  0
   33.6980   22.7160   39.7390 O   0  0  0  0  0  0  0  0  0  0  0  0
  1  2  1  0  0  0  0
  2  3  1  0  0  0  0
  3 22  1  0  0  0  0
  3  4  2  0  0  0  0
  4  8  1  0  0  0  0
  5  4  1  0  0  0  0
  5  9  1  0  0  0  0
  6  5  2  0  0  0  0
  7  2  2  0  0  0  0
  7  6  1  0  0  0  0
 10  6  1  0  0  0  0
 11 15  1  0  0  0  0
 11  7  1  0  0  0  0
 12 11  2  0  0  0  0
 13 12  1  0  0  0  0
 13 14  1  0  0  0  0
 14 15  2  0  0  0  0
 16 12  1  0  0  0  0
 17 13  1  0  0  0  0
 18 14  1  0  0  0  0
 19 20  1  0  0  0  0
 20 21  2  0  0  0  0
 20 24  1  0  0  0  0
 21 25  1  0  0  0  0
 22 21  1  0  0  0  0
 23 19  2  0  0  0  0
 23 22  1  0  0  0  0
 26 31  1  0  0  0  0
 27 28  1  0  0  0  0
 27 26  2  0  0  0  0
 28 29  2  0  0  0  0
 29 30  1  0  0  0  0
 30 19  1  0  0  0  0
 31 30  2  0  0  0  0
 32 26  1  0  0  0  0
 33 27  1  0  0  0  0
 34 28  1  0  0  0  0
 34 36  2  0  0  0  0
 35 34  1  0  0  0  0
M  END
>  <minimizedAffinity>
-5.74076557

$$$$

 OpenBabel03252501283D

 36 39  0  0  0  0  0  0  0  0999 V2000
   40.5130   31.2480   41.5040 F   0  0  0  0  0  0  0  0  0  0  0  0
   39.3970   31.7060   40.9540 C   0  0  0  0  0  0  0  0  0  0  0  0
   38.2340   30.9710   41.0510 C   0  0  0  0  0  0  0  0  0  0  0  0
   37.0450   31.4390   40.4760 C   0  0  0  0  0  0  0  0  0  0  0  0
   36.9920   32.6350   39.8020 C   0  0  0  0  0  0  0  0  0  0  0  0
   38.1640   33.3550   39.7160 C   0  0  0  0  0  0  0  0  0  0  0  0
   39.3480   32.9060   40.2790 C   0  0  0  0  0  0  0  0  0  0  0  0
   36.1220   30.8810   40.5390 H   0  0  0  0  0  0  0  0  0  0  0  0
   36.0700   32.9890   39.3620 H   0  0  0  0  0  0  0  0  0  0  0  0
   38.1450   34.3020   39.1890 H   0  0  0  0  0  0  0  0  0  0  0  0
   40.5310   33.7490   40.1280 C   0  0  0  0  0  0  0  0  0  0  0  0
   40.8160   35.0160   40.5890 C   0  0  0  0  0  0  0  0  0  0  0  0
   42.0520   35.3930   40.1970 N   0  0  0  0  0  0  0  0  0  0  0  0
   42.5540   34.3710   39.4870 C   0  0  0  0  0  0  0  0  0  0  0  0
   41.6400   33.3810   39.4460 N   0  0  0  0  0  0  0  0  0  0  0  0
   40.1300   35.5970   41.1780 H   0  0  0  0  0  0  0  0  0  0  0  0
   42.5630   36.2740   40.3750 H   0  0  0  0  0  0  0  0  0  0  0  0
   43.5000   34.2270   38.9860 H   0  0  0  0  0  0  0  0  0  0  0  0
   37.9390   27.5690   41.8800 C   0  0  0  0  0  0  0  0  0  0  0  0
   37.9920   28.1390   43.1590 C   0  0  0  0  0  0  0  0  0  0  0  0
   38.1100   29.4860   43.0250 C   0  0  0  0  0  0  0  0  0  0  0  0
   38.1280   29.7360   41.7050 N   0  0  0  0  0  0  0  0  0  0  0  0
   38.0250   28.5830   41.0380 N   0  0  0  0  0  0  0  0  0  0  0  0
   37.9470   27.5910   44.0970 H   0  0  0  0  0  0  0  0  0  0  0  0
   38.1750   30.2120   43.8200 H   0  0  0  0  0  0  0  0  0  0  0  0
   38.4590   23.9590   42.0460 C   0  0  0  0  0  0  0  0  0  0  0  0
   37.5490   23.4700   41.0770 C   0  0  0  0  0  0  0  0  0  0  0  0
   36.7720   24.4040   40.3840 C   0  0  0  0  0  0  0  0  0  0  0  0
   36.9510   25.6940   40.6940 N   0  0  0  0  0  0  0  0  0  0  0  0
   37.8150   26.1510   41.6130 C   0  0  0  0  0  0  0  0  0  0  0  0
   38.5950   25.2700   42.3130 N   0  0  0  0  0  0  0  0  0  0  0  0
   39.0600   23.2370   42.5820 H   0  0  0  0  0  0  0  0  0  0  0  0
   37.4640   22.4080   40.8860 H   0  0  0  0  0  0  0  0  0  0  0  0
   35.8160   23.9730   39.3760 C   0  0  0  0  0  0  0  0  0  0  0  0
   35.4290   22.9790   39.4300 H   0  0  0  0  0  0  0  0  0  0  0  0
   35.4760   24.7810   38.4750 O   0  0  0  0  0  0  0  0  0  0  0  0
  2  3  1  0  0  0  0
  2  1  1  0  0  0  0
  3 22  1  0  0  0  0
  4  8  1  0  0  0  0
  4  3  2  0  0  0  0
  5  4  1  0  0  0  0
  6  5  2  0  0  0  0
  6  7  1  0  0  0  0
  7  2  2  0  0  0  0
  9  5  1  0  0  0  0
 10  6  1  0  0  0  0
 11  7  1  0  0  0  0
 11 12  2  0  0  0  0
 12 16  1  0  0  0  0
 13 17  1  0  0  0  0
 13 12  1  0  0  0  0
 14 13  1  0  0  0  0
 15 14  2  0  0  0  0
 15 11  1  0  0  0  0
 18 14  1  0  0  0  0
 19 20  1  0  0  0  0
 20 24  1  0  0  0  0
 21 20  2  0  0  0  0
 21 25  1  0  0  0  0
 22 21  1  0  0  0  0
 23 22  1  0  0  0  0
 23 19  2  0  0  0  0
 26 31  1  0  0  0  0
 26 32  1  0  0  0  0
 27 26  2  0  0  0  0
 28 29  2  0  0  0  0
 28 27  1  0  0  0  0
 29 30  1  0  0  0  0
 30 19  1  0  0  0  0
 30 31  2  0  0  0  0
 33 27  1  0  0  0  0
 34 35  1  0  0  0  0
 34 28  1  0  0  0  0
 36 34  2  0  0  0  0
M  END
>  <minimizedAffinity>
-5.73714113

$$$$

 OpenBabel03252501283D

 36 39  0  0  0  0  0  0  0  0999 V2000
   40.9160   30.7150   39.8710 F   0  0  0  0  0  0  0  0  0  0  0  0
   39.8200   31.4600   39.9170 C   0  0  0  0  0  0  0  0  0  0  0  0
   38.7280   31.0260   40.6390 C   0  0  0  0  0  0  0  0  0  0  0  0
   37.5610   31.7990   40.6990 C   0  0  0  0  0  0  0  0  0  0  0  0
   37.4600   33.0060   40.0500 C   0  0  0  0  0  0  0  0  0  0  0  0
   38.5630   33.4220   39.3340 C   0  0  0  0  0  0  0  0  0  0  0  0
   39.7240   32.6690   39.2640 C   0  0  0  0  0  0  0  0  0  0  0  0
   36.6920   31.4810   41.2580 H   0  0  0  0  0  0  0  0  0  0  0  0
   36.5560   33.5960   40.1020 H   0  0  0  0  0  0  0  0  0  0  0  0
   38.5060   34.3710   38.8140 H   0  0  0  0  0  0  0  0  0  0  0  0
   40.8310   33.2050   38.4780 C   0  0  0  0  0  0  0  0  0  0  0  0
   41.4060   32.7820   37.3000 C   0  0  0  0  0  0  0  0  0  0  0  0
   42.4160   33.6050   36.9450 N   0  0  0  0  0  0  0  0  0  0  0  0
   42.4870   34.5500   37.8950 C   0  0  0  0  0  0  0  0  0  0  0  0
   41.5330   34.3120   38.8160 N   0  0  0  0  0  0  0  0  0  0  0  0
   41.0740   31.9130   36.7600 H   0  0  0  0  0  0  0  0  0  0  0  0
   43.0440   33.5670   36.1250 H   0  0  0  0  0  0  0  0  0  0  0  0
   43.1340   35.4050   38.0250 H   0  0  0  0  0  0  0  0  0  0  0  0
   38.4140   27.6750   41.6510 C   0  0  0  0  0  0  0  0  0  0  0  0
   38.7150   28.2840   42.8760 C   0  0  0  0  0  0  0  0  0  0  0  0
   38.8730   29.6180   42.6670 C   0  0  0  0  0  0  0  0  0  0  0  0
   38.6760   29.8210   41.3530 N   0  0  0  0  0  0  0  0  0  0  0  0
   38.4040   28.6540   40.7640 N   0  0  0  0  0  0  0  0  0  0  0  0
   38.8050   27.7720   43.8300 H   0  0  0  0  0  0  0  0  0  0  0  0
   39.1100   30.3650   43.4080 H   0  0  0  0  0  0  0  0  0  0  0  0
   37.0730   24.3080   42.0910 C   0  0  0  0  0  0  0  0  0  0  0  0
   37.7560   23.5700   41.0920 C   0  0  0  0  0  0  0  0  0  0  0  0
   38.6680   24.2560   40.2850 C   0  0  0  0  0  0  0  0  0  0  0  0
   38.8270   25.5650   40.5220 N   0  0  0  0  0  0  0  0  0  0  0  0
   38.1770   26.2590   41.4690 C   0  0  0  0  0  0  0  0  0  0  0  0
   37.2750   25.6240   42.2810 N   0  0  0  0  0  0  0  0  0  0  0  0
   36.3670   23.7780   42.7150 H   0  0  0  0  0  0  0  0  0  0  0  0
   37.5700   22.5110   40.9650 H   0  0  0  0  0  0  0  0  0  0  0  0
   39.4040   23.5630   39.2400 C   0  0  0  0  0  0  0  0  0  0  0  0
   40.0930   24.1200   38.6440 H   0  0  0  0  0  0  0  0  0  0  0  0
   39.2090   22.3320   39.0720 O   0  0  0  0  0  0  0  0  0  0  0  0
  1  2  1  0  0  0  0
  2  3  1  0  0  0  0
  3  4  2  0  0  0  0
  3 22  1  0  0  0  0
  4  8  1  0  0  0  0
  5  9  1  0  0  0  0
  5  4  1  0  0  0  0
  6  5  2  0  0  0  0
  7  6  1  0  0  0  0
  7  2  2  0  0  0  0
 10  6  1  0  0  0  0
 11 15  1  0  0  0  0
 11  7  1  0  0  0  0
 12 11  2  0  0  0  0
 13 12  1  0  0  0  0
 13 14  1  0  0  0  0
 14 18  1  0  0  0  0
 14 15  2  0  0  0  0
 16 12  1  0  0  0  0
 17 13  1  0  0  0  0
 19 20  1  0  0  0  0
 20 24  1  0  0  0  0
 21 20  2  0  0  0  0
 21 25  1  0  0  0  0
 22 21  1  0  0  0  0
 23 22  1  0  0  0  0
 23 19  2  0  0  0  0
 26 31  1  0  0  0  0
 26 32  1  0  0  0  0
 27 26  2  0  0  0  0
 28 29  2  0  0  0  0
 28 27  1  0  0  0  0
 29 30  1  0  0  0  0
 30 19  1  0  0  0  0
 30 31  2  0  0  0  0
 33 27  1  0  0  0  0
 34 28  1  0  0  0  0
 35 34  1  0  0  0  0
 36 34  2  0  0  0  0
M  END
>  <minimizedAffinity>
-5.68344641

$$$$
