
 OpenBabel03252508313D

 26 27  0  0  1  0  0  0  0  0999 V2000
   44.2940   34.2750   41.9530 N   0  0  0  0  0  0  0  0  0  0  0  0
   44.9640   33.6060   40.8720 C   0  0  1  0  0  0  0  0  0  0  0  0
   44.3700   33.8150   39.5370 C   0  0  0  0  0  0  0  0  0  0  0  0
   42.9770   33.9520   39.4660 N   0  0  0  0  0  0  0  0  0  0  0  0
   42.2800   34.3800   40.6050 C   0  0  0  0  0  0  0  0  0  0  0  0
   43.2150   35.1190   41.5550 C   0  0  0  0  0  0  0  0  0  0  0  0
   45.0910   32.5270   41.1210 H   0  0  0  0  0  0  0  0  0  0  0  0
   44.9020   34.6530   39.0230 H   0  0  0  0  0  0  0  0  0  0  0  0
   44.6500   32.9160   38.9120 H   0  0  0  0  0  0  0  0  0  0  0  0
   42.7350   34.5790   38.6540 H   0  0  0  0  0  0  0  0  0  0  0  0
   41.9620   33.4670   41.1890 H   0  0  0  0  0  0  0  0  0  0  0  0
   41.3620   34.9290   40.4020 H   0  0  0  0  0  0  0  0  0  0  0  0
   42.6630   35.6390   42.3260 H   0  0  0  0  0  0  0  0  0  0  0  0
   43.6780   35.9320   40.9190 H   0  0  0  0  0  0  0  0  0  0  0  0
   44.6510   35.0800   44.1640 C   0  0  0  0  0  0  0  0  0  0  0  0
   44.7670   34.0330   43.2580 C   0  0  0  0  0  0  0  0  0  0  0  0
   45.3370   32.8660   43.7280 C   0  0  0  0  0  0  0  0  0  0  0  0
   45.7620   32.7530   45.0130 N   0  0  0  0  0  0  0  0  0  0  0  0
   45.6300   33.8060   45.8710 C   0  0  0  0  0  0  0  0  0  0  0  0
   45.0820   34.9500   45.4490 N   0  0  0  0  0  0  0  0  0  0  0  0
   44.2390   36.0640   44.0020 H   0  0  0  0  0  0  0  0  0  0  0  0
   45.4290   32.0630   43.0430 H   0  0  0  0  0  0  0  0  0  0  0  0
   45.9960   33.6210   46.8700 H   0  0  0  0  0  0  0  0  0  0  0  0
   46.3660   34.1710   40.8620 C   0  0  0  0  0  0  0  0  0  0  0  0
   46.6170   35.2070   41.0490 H   0  0  0  0  0  0  0  0  0  0  0  0
   47.1820   33.3040   40.6160 O   0  0  0  0  0  0  0  0  0  0  0  0
  1 16  1  0  0  0  0
  2  7  1  1  0  0  0
  2  1  1  0  0  0  0
  3  2  1  0  0  0  0
  4  3  1  0  0  0  0
  4  5  1  0  0  0  0
  5 11  1  0  0  0  0
  5  6  1  0  0  0  0
  6  1  1  0  0  0  0
  6 13  1  0  0  0  0
  8  3  1  0  0  0  0
  9  3  1  0  0  0  0
 10  4  1  0  0  0  0
 12  5  1  0  0  0  0
 14  6  1  0  0  0  0
 15 20  1  0  0  0  0
 16 17  1  0  0  0  0
 16 15  2  0  0  0  0
 17 18  2  0  0  0  0
 18 19  1  0  0  0  0
 19 23  1  0  0  0  0
 20 19  2  0  0  0  0
 21 15  1  0  0  0  0
 22 17  1  0  0  0  0
 24  2  1  0  0  0  0
 24 25  1  0  0  0  0
 26 24  2  0  0  0  0
M  END
>  <minimizedAffinity>
-3.26170945

>  <minimizedRMSD>
0.664601207

$$$$
