
 OpenBabel03252508583D

 33 34  0  0  1  0  0  0  0  0999 V2000
   48.4620   33.1640   42.3810 N   0  0  0  0  0  0  0  0  0  0  0  0
   48.7790   31.8090   42.5470 C   0  0  0  0  0  0  0  0  0  0  0  0
   48.3970   30.8800   41.4390 C   0  0  0  0  0  0  0  0  0  0  0  0
   48.4300   31.4920   40.0630 C   0  0  0  0  0  0  0  0  0  0  0  0
   48.9000   32.9110   40.0840 C   0  0  0  0  0  0  0  0  0  0  0  0
   48.0040   33.6150   41.1340 C   0  0  2  0  0  0  0  0  0  0  0  0
   48.3340   31.4190   43.4990 H   0  0  0  0  0  0  0  0  0  0  0  0
   49.8860   31.7240   42.6960 H   0  0  0  0  0  0  0  0  0  0  0  0
   47.3300   30.5920   41.6280 H   0  0  0  0  0  0  0  0  0  0  0  0
   48.9730   29.9500   41.5250 H   0  0  0  0  0  0  0  0  0  0  0  0
   47.4730   31.4320   39.5400 H   0  0  0  0  0  0  0  0  0  0  0  0
   49.1660   30.8920   39.4720 H   0  0  0  0  0  0  0  0  0  0  0  0
   48.6870   33.3820   39.1050 H   0  0  0  0  0  0  0  0  0  0  0  0
   49.9490   33.0050   40.4110 H   0  0  0  0  0  0  0  0  0  0  0  0
   46.9920   33.3870   40.8170 H   0  0  0  0  0  0  0  0  0  0  0  0
   47.9580   33.8530   43.5380 C   0  0  0  0  0  0  0  0  0  0  0  0
   48.0670   34.9440   43.4400 H   0  0  0  0  0  0  0  0  0  0  0  0
   48.5520   33.5300   44.4140 H   0  0  0  0  0  0  0  0  0  0  0  0
   46.5320   33.4880   43.8010 C   0  0  0  0  0  0  0  0  0  0  0  0
   45.8910   34.3490   43.6330 H   0  0  0  0  0  0  0  0  0  0  0  0
   46.1390   32.6520   43.1890 H   0  0  0  0  0  0  0  0  0  0  0  0
   45.3440   33.2130   47.3540 C   0  0  0  0  0  0  0  0  0  0  0  0
   45.4790   33.6690   46.0270 C   0  0  0  0  0  0  0  0  0  0  0  0
   46.3770   33.0290   45.1980 C   0  0  0  0  0  0  0  0  0  0  0  0
   47.0840   32.0020   45.6930 N   0  0  0  0  0  0  0  0  0  0  0  0
   46.9480   31.5730   46.9650 C   0  0  0  0  0  0  0  0  0  0  0  0
   46.0760   32.1770   47.8070 N   0  0  0  0  0  0  0  0  0  0  0  0
   44.6250   33.7510   47.9580 H   0  0  0  0  0  0  0  0  0  0  0  0
   44.8870   34.5030   45.6730 H   0  0  0  0  0  0  0  0  0  0  0  0
   47.5230   30.7440   47.3510 H   0  0  0  0  0  0  0  0  0  0  0  0
   48.3060   35.0600   40.9090 C   0  0  0  0  0  0  0  0  0  0  0  0
   47.5980   35.7110   40.4070 H   0  0  0  0  0  0  0  0  0  0  0  0
   49.0620   35.9740   41.0340 O   0  0  0  0  0  0  0  0  0  0  0  0
  1  2  1  0  0  0  0
  1 16  1  0  0  0  0
  2  8  1  0  0  0  0
  2  7  1  0  0  0  0
  3 10  1  0  0  0  0
  3  9  1  0  0  0  0
  3  2  1  0  0  0  0
  4  5  1  0  0  0  0
  4  3  1  0  0  0  0
  5 14  1  0  0  0  0
  5  6  1  0  0  0  0
  6 15  1  6  0  0  0
  6  1  1  0  0  0  0
 11  4  1  0  0  0  0
 12  4  1  0  0  0  0
 13  5  1  0  0  0  0
 16 19  1  0  0  0  0
 16 18  1  0  0  0  0
 17 16  1  0  0  0  0
 19 24  1  0  0  0  0
 20 19  1  0  0  0  0
 21 19  1  0  0  0  0
 22 27  1  0  0  0  0
 22 28  1  0  0  0  0
 23 22  2  0  0  0  0
 24 25  2  0  0  0  0
 24 23  1  0  0  0  0
 25 26  1  0  0  0  0
 26 30  1  0  0  0  0
 26 27  2  0  0  0  0
 29 23  1  0  0  0  0
 31 33  2  0  0  0  0
 31  6  1  0  0  0  0
 32 31  1  0  0  0  0
M  END
>  <minimizedAffinity>
-3.36670899

>  <minimizedRMSD>
2.61005497

$$$$
