
 OpenBabel03252508573D

 33 34  0  0  1  0  0  0  0  0999 V2000
   48.8720   33.5020   40.4940 N   0  0  0  0  0  0  0  0  0  0  0  0
   49.3950   33.5040   41.7940 C   0  0  0  0  0  0  0  0  0  0  0  0
   49.7210   32.1750   42.3970 C   0  0  0  0  0  0  0  0  0  0  0  0
   50.1700   31.1270   41.4110 C   0  0  0  0  0  0  0  0  0  0  0  0
   50.2520   31.6590   40.0170 C   0  0  0  0  0  0  0  0  0  0  0  0
   48.8710   32.3100   39.7540 C   0  0  2  0  0  0  0  0  0  0  0  0
   48.7030   34.0430   42.4920 H   0  0  0  0  0  0  0  0  0  0  0  0
   50.3330   34.1160   41.7930 H   0  0  0  0  0  0  0  0  0  0  0  0
   48.7670   31.7930   42.8450 H   0  0  0  0  0  0  0  0  0  0  0  0
   50.4090   32.3140   43.2420 H   0  0  0  0  0  0  0  0  0  0  0  0
   49.5510   30.2280   41.4240 H   0  0  0  0  0  0  0  0  0  0  0  0
   51.1990   30.8230   41.7270 H   0  0  0  0  0  0  0  0  0  0  0  0
   50.3540   30.8140   39.3080 H   0  0  0  0  0  0  0  0  0  0  0  0
   51.0250   32.4370   39.9040 H   0  0  0  0  0  0  0  0  0  0  0  0
   48.1580   31.5280   39.9920 H   0  0  0  0  0  0  0  0  0  0  0  0
   47.7970   34.4210   40.2330 C   0  0  0  0  0  0  0  0  0  0  0  0
   47.8930   34.8850   39.2390 H   0  0  0  0  0  0  0  0  0  0  0  0
   47.8440   35.2270   40.9890 H   0  0  0  0  0  0  0  0  0  0  0  0
   46.4690   33.7480   40.3740 C   0  0  0  0  0  0  0  0  0  0  0  0
   45.9250   33.7970   39.4340 H   0  0  0  0  0  0  0  0  0  0  0  0
   46.5100   32.6840   40.6830 H   0  0  0  0  0  0  0  0  0  0  0  0
   43.6330   35.4030   42.1980 C   0  0  0  0  0  0  0  0  0  0  0  0
   44.3720   34.7760   41.1740 C   0  0  0  0  0  0  0  0  0  0  0  0
   45.6770   34.4110   41.4320 C   0  0  0  0  0  0  0  0  0  0  0  0
   46.1850   34.6700   42.6460 N   0  0  0  0  0  0  0  0  0  0  0  0
   45.4700   35.2720   43.6200 C   0  0  0  0  0  0  0  0  0  0  0  0
   44.1860   35.6430   43.4030 N   0  0  0  0  0  0  0  0  0  0  0  0
   42.6150   35.6670   41.9410 H   0  0  0  0  0  0  0  0  0  0  0  0
   43.9180   34.5880   40.2100 H   0  0  0  0  0  0  0  0  0  0  0  0
   45.8920   35.4740   44.5930 H   0  0  0  0  0  0  0  0  0  0  0  0
   48.8980   32.5580   38.2810 C   0  0  0  0  0  0  0  0  0  0  0  0
   48.1250   32.1630   37.6310 H   0  0  0  0  0  0  0  0  0  0  0  0
   49.4420   33.0510   37.3410 O   0  0  0  0  0  0  0  0  0  0  0  0
  1  2  1  0  0  0  0
  2  3  1  0  0  0  0
  2  7  1  0  0  0  0
  3  9  1  0  0  0  0
  3 10  1  0  0  0  0
  4 11  1  0  0  0  0
  4 12  1  0  0  0  0
  4  3  1  0  0  0  0
  5  4  1  0  0  0  0
  6 15  1  1  0  0  0
  6  5  1  0  0  0  0
  6  1  1  0  0  0  0
  8  2  1  0  0  0  0
 13  5  1  0  0  0  0
 14  5  1  0  0  0  0
 16 19  1  0  0  0  0
 16  1  1  0  0  0  0
 16 18  1  0  0  0  0
 17 16  1  0  0  0  0
 19 21  1  0  0  0  0
 19 24  1  0  0  0  0
 20 19  1  0  0  0  0
 22 27  1  0  0  0  0
 23 24  1  0  0  0  0
 23 22  2  0  0  0  0
 24 25  2  0  0  0  0
 25 26  1  0  0  0  0
 26 30  1  0  0  0  0
 27 26  2  0  0  0  0
 28 22  1  0  0  0  0
 29 23  1  0  0  0  0
 31  6  1  0  0  0  0
 32 31  1  0  0  0  0
 33 31  2  0  0  0  0
M  END
>  <minimizedAffinity>
-3.4652617

>  <minimizedRMSD>
2.43255568

$$$$
