
 OpenBabel03252508573D

 33 34  0  0  1  0  0  0  0  0999 V2000
   48.8810   33.4650   40.3940 N   0  0  0  0  0  0  0  0  0  0  0  0
   49.3520   33.5090   41.7130 C   0  0  0  0  0  0  0  0  0  0  0  0
   49.6620   32.2010   42.3680 C   0  0  0  0  0  0  0  0  0  0  0  0
   50.1560   31.1270   41.4330 C   0  0  0  0  0  0  0  0  0  0  0  0
   50.2900   31.6180   40.0270 C   0  0  0  0  0  0  0  0  0  0  0  0
   48.9170   32.2520   39.6910 C   0  0  2  0  0  0  0  0  0  0  0  0
   48.6300   34.0640   42.3670 H   0  0  0  0  0  0  0  0  0  0  0  0
   50.2850   34.1280   41.7310 H   0  0  0  0  0  0  0  0  0  0  0  0
   48.6930   31.8250   42.7900 H   0  0  0  0  0  0  0  0  0  0  0  0
   50.3150   32.3700   43.2350 H   0  0  0  0  0  0  0  0  0  0  0  0
   49.5430   30.2250   41.4480 H   0  0  0  0  0  0  0  0  0  0  0  0
   51.1740   30.8400   41.7980 H   0  0  0  0  0  0  0  0  0  0  0  0
   50.4250   30.7530   39.3480 H   0  0  0  0  0  0  0  0  0  0  0  0
   51.0620   32.3990   39.9220 H   0  0  0  0  0  0  0  0  0  0  0  0
   48.1990   31.4720   39.9240 H   0  0  0  0  0  0  0  0  0  0  0  0
   47.8120   34.3680   40.0630 C   0  0  0  0  0  0  0  0  0  0  0  0
   47.9210   34.7710   39.0450 H   0  0  0  0  0  0  0  0  0  0  0  0
   47.8500   35.2180   40.7700 H   0  0  0  0  0  0  0  0  0  0  0  0
   46.4800   33.7060   40.2270 C   0  0  0  0  0  0  0  0  0  0  0  0
   45.9470   33.7040   39.2800 H   0  0  0  0  0  0  0  0  0  0  0  0
   46.5150   32.6610   40.5950 H   0  0  0  0  0  0  0  0  0  0  0  0
   43.5770   35.2850   42.0140 C   0  0  0  0  0  0  0  0  0  0  0  0
   44.3240   34.5960   41.0360 C   0  0  0  0  0  0  0  0  0  0  0  0
   45.6780   34.4290   41.2380 C   0  0  0  0  0  0  0  0  0  0  0  0
   46.2250   34.9290   42.3550 N   0  0  0  0  0  0  0  0  0  0  0  0
   45.5010   35.5870   43.2860 C   0  0  0  0  0  0  0  0  0  0  0  0
   44.1700   35.7700   43.1210 N   0  0  0  0  0  0  0  0  0  0  0  0
   42.5200   35.3850   41.8040 H   0  0  0  0  0  0  0  0  0  0  0  0
   43.8390   34.2100   40.1490 H   0  0  0  0  0  0  0  0  0  0  0  0
   45.9550   35.9850   44.1820 H   0  0  0  0  0  0  0  0  0  0  0  0
   49.0000   32.4550   38.2140 C   0  0  0  0  0  0  0  0  0  0  0  0
   48.3750   31.8890   37.5320 H   0  0  0  0  0  0  0  0  0  0  0  0
   49.4980   33.0240   37.2900 O   0  0  0  0  0  0  0  0  0  0  0  0
  1  2  1  0  0  0  0
  2  8  1  0  0  0  0
  2  7  1  0  0  0  0
  2  3  1  0  0  0  0
  3  9  1  0  0  0  0
  3 10  1  0  0  0  0
  4 11  1  0  0  0  0
  4 12  1  0  0  0  0
  4  3  1  0  0  0  0
  5  4  1  0  0  0  0
  6 15  1  1  0  0  0
  6  5  1  0  0  0  0
  6  1  1  0  0  0  0
 13  5  1  0  0  0  0
 14  5  1  0  0  0  0
 16 19  1  0  0  0  0
 16  1  1  0  0  0  0
 16 18  1  0  0  0  0
 17 16  1  0  0  0  0
 19 21  1  0  0  0  0
 19 24  1  0  0  0  0
 20 19  1  0  0  0  0
 22 27  1  0  0  0  0
 23 24  1  0  0  0  0
 23 22  2  0  0  0  0
 24 25  2  0  0  0  0
 25 26  1  0  0  0  0
 26 30  1  0  0  0  0
 27 26  2  0  0  0  0
 28 22  1  0  0  0  0
 29 23  1  0  0  0  0
 31  6  1  0  0  0  0
 32 31  1  0  0  0  0
 33 31  2  0  0  0  0
M  END
>  <minimizedAffinity>
-3.48174596

>  <minimizedRMSD>
2.6112709

$$$$
