
 OpenBabel03242516513D

 37 39  0  0  1  0  0  0  0  0999 V2000
   36.6120   30.4060   39.2360 C   0  0  1  0  0  0  0  0  0  0  0  0
   36.7460   29.4860   38.0870 C   0  0  0  0  0  0  0  0  0  0  0  0
   35.3430   29.3720   37.4830 C   0  0  0  0  0  0  0  0  0  0  0  0
   34.5050   28.5970   38.4820 C   0  0  0  0  0  0  0  0  0  0  0  0
   34.5020   29.1770   39.8570 C   0  0  0  0  0  0  0  0  0  0  0  0
   35.7270   29.8370   40.3260 C   0  0  1  0  0  0  0  0  0  0  0  0
   36.0450   31.3240   38.8930 H   0  0  0  0  0  0  0  0  0  0  0  0
   37.0850   28.4770   38.3700 H   0  0  0  0  0  0  0  0  0  0  0  0
   37.4560   29.9310   37.3550 H   0  0  0  0  0  0  0  0  0  0  0  0
   35.4100   28.7610   36.5670 H   0  0  0  0  0  0  0  0  0  0  0  0
   34.9380   30.3790   37.3210 H   0  0  0  0  0  0  0  0  0  0  0  0
   34.8460   27.5350   38.4380 H   0  0  0  0  0  0  0  0  0  0  0  0
   33.4800   28.5840   38.0610 H   0  0  0  0  0  0  0  0  0  0  0  0
   34.2560   28.3400   40.5530 H   0  0  0  0  0  0  0  0  0  0  0  0
   33.6070   29.8510   39.9230 H   0  0  0  0  0  0  0  0  0  0  0  0
   35.4230   30.7380   40.9430 H   0  0  0  0  0  0  0  0  0  0  0  0
   39.0750   32.6510   41.0150 C   0  0  0  0  0  0  0  0  0  0  0  0
   37.9090   32.1210   40.4620 C   0  0  0  0  0  0  0  0  0  0  0  0
   37.8600   30.9010   39.8010 C   0  0  0  0  0  0  0  0  0  0  0  0
   39.0220   30.2320   39.7130 N   0  0  0  0  0  0  0  0  0  0  0  0
   40.1660   30.7340   40.2450 C   0  0  0  0  0  0  0  0  0  0  0  0
   40.2040   31.9090   40.8810 N   0  0  0  0  0  0  0  0  0  0  0  0
   39.0740   33.6040   41.5230 H   0  0  0  0  0  0  0  0  0  0  0  0
   37.0380   32.7400   40.5900 H   0  0  0  0  0  0  0  0  0  0  0  0
   41.0290   30.0750   40.0940 H   0  0  0  0  0  0  0  0  0  0  0  0
   36.5010   29.0080   41.2650 C   0  0  0  0  0  0  0  0  0  0  0  0
   37.1170   29.4330   42.4470 C   0  0  0  0  0  0  0  0  0  0  0  0
   37.7740   28.4480   43.1810 C   0  0  0  0  0  0  0  0  0  0  0  0
   37.7680   27.1550   42.6970 C   0  0  0  0  0  0  0  0  0  0  0  0
   37.1580   26.7540   41.5340 C   0  0  0  0  0  0  0  0  0  0  0  0
   36.5180   27.7180   40.8210 N   0  0  0  0  0  0  0  0  0  0  0  0
   37.0270   30.4500   42.6680 H   0  0  0  0  0  0  0  0  0  0  0  0
   38.2520   28.7670   44.0930 H   0  0  0  0  0  0  0  0  0  0  0  0
   38.2890   26.3990   43.2880 H   0  0  0  0  0  0  0  0  0  0  0  0
   37.2030   25.3520   41.0960 C   0  0  0  0  0  0  0  0  0  0  0  0
   37.6110   25.1350   40.1200 H   0  0  0  0  0  0  0  0  0  0  0  0
   36.7640   24.4720   41.8800 O   0  0  0  0  0  0  0  0  0  0  0  0
  1  7  1  6  0  0  0
  1 19  1  0  0  0  0
  1  6  1  0  0  0  0
  2  8  1  0  0  0  0
  2  1  1  0  0  0  0
  3  2  1  0  0  0  0
  3  4  1  0  0  0  0
  4  5  1  0  0  0  0
  5 15  1  0  0  0  0
  5  6  1  0  0  0  0
  5 14  1  0  0  0  0
  6 16  1  1  0  0  0
  6 26  1  0  0  0  0
  9  2  1  0  0  0  0
 10  3  1  0  0  0  0
 11  3  1  0  0  0  0
 12  4  1  0  0  0  0
 13  4  1  0  0  0  0
 17 23  1  0  0  0  0
 18 24  1  0  0  0  0
 18 17  2  0  0  0  0
 19 18  1  0  0  0  0
 20 19  2  0  0  0  0
 20 21  1  0  0  0  0
 21 22  2  0  0  0  0
 22 17  1  0  0  0  0
 25 21  1  0  0  0  0
 26 27  1  0  0  0  0
 27 32  1  0  0  0  0
 27 28  2  0  0  0  0
 28 33  1  0  0  0  0
 29 28  1  0  0  0  0
 29 34  1  0  0  0  0
 30 29  2  0  0  0  0
 31 26  2  0  0  0  0
 31 30  1  0  0  0  0
 35 30  1  0  0  0  0
 35 37  2  0  0  0  0
 36 35  1  0  0  0  0
M  END
>  <minimizedAffinity>
-5.36287642

$$$$

 OpenBabel03242516513D

 37 39  0  0  1  0  0  0  0  0999 V2000
   38.2580   29.0930   41.6010 C   0  0  1  0  0  0  0  0  0  0  0  0
   37.4330   29.2440   42.8170 C   0  0  0  0  0  0  0  0  0  0  0  0
   37.6650   27.9710   43.6360 C   0  0  0  0  0  0  0  0  0  0  0  0
   36.9980   26.8410   42.8750 C   0  0  0  0  0  0  0  0  0  0  0  0
   37.4460   26.7120   41.4570 C   0  0  0  0  0  0  0  0  0  0  0  0
   37.7940   27.9410   40.7330 C   0  0  1  0  0  0  0  0  0  0  0  0
   39.3000   28.7790   41.9140 H   0  0  0  0  0  0  0  0  0  0  0  0
   36.3550   29.3300   42.6080 H   0  0  0  0  0  0  0  0  0  0  0  0
   37.7820   30.1410   43.3760 H   0  0  0  0  0  0  0  0  0  0  0  0
   37.1350   28.0760   44.5980 H   0  0  0  0  0  0  0  0  0  0  0  0
   38.7440   27.7990   43.7370 H   0  0  0  0  0  0  0  0  0  0  0  0
   35.8960   26.9750   42.9930 H   0  0  0  0  0  0  0  0  0  0  0  0
   37.2350   25.9200   43.4440 H   0  0  0  0  0  0  0  0  0  0  0  0
   36.6210   26.1950   40.9100 H   0  0  0  0  0  0  0  0  0  0  0  0
   38.2830   25.9650   41.4470 H   0  0  0  0  0  0  0  0  0  0  0  0
   38.6820   27.7130   40.0660 H   0  0  0  0  0  0  0  0  0  0  0  0
   37.6390   32.5220   40.1410 C   0  0  0  0  0  0  0  0  0  0  0  0
   37.5310   31.3490   40.8890 C   0  0  0  0  0  0  0  0  0  0  0  0
   38.4320   30.2960   40.7990 C   0  0  0  0  0  0  0  0  0  0  0  0
   39.4450   30.4610   39.9330 N   0  0  0  0  0  0  0  0  0  0  0  0
   39.5660   31.5950   39.1970 C   0  0  0  0  0  0  0  0  0  0  0  0
   38.6930   32.6040   39.2890 N   0  0  0  0  0  0  0  0  0  0  0  0
   36.9190   33.3200   40.2380 H   0  0  0  0  0  0  0  0  0  0  0  0
   36.6820   31.3240   41.5500 H   0  0  0  0  0  0  0  0  0  0  0  0
   40.4410   31.5820   38.5360 H   0  0  0  0  0  0  0  0  0  0  0  0
   36.7450   28.3690   39.7930 C   0  0  0  0  0  0  0  0  0  0  0  0
   35.4200   28.6940   40.1070 C   0  0  0  0  0  0  0  0  0  0  0  0
   34.6210   29.0960   39.0390 C   0  0  0  0  0  0  0  0  0  0  0  0
   35.1830   29.1420   37.7800 C   0  0  0  0  0  0  0  0  0  0  0  0
   36.4860   28.8200   37.4880 C   0  0  0  0  0  0  0  0  0  0  0  0
   37.2620   28.4280   38.5320 N   0  0  0  0  0  0  0  0  0  0  0  0
   35.1550   28.6040   41.1140 H   0  0  0  0  0  0  0  0  0  0  0  0
   33.5990   29.3490   39.2730 H   0  0  0  0  0  0  0  0  0  0  0  0
   34.5380   29.4600   36.9580 H   0  0  0  0  0  0  0  0  0  0  0  0
   36.9990   28.8990   36.1130 C   0  0  0  0  0  0  0  0  0  0  0  0
   36.5370   29.6010   35.4350 H   0  0  0  0  0  0  0  0  0  0  0  0
   37.9530   28.1440   35.7930 O   0  0  0  0  0  0  0  0  0  0  0  0
  1  7  1  1  0  0  0
  1  2  1  0  0  0  0
  2  9  1  0  0  0  0
  2  3  1  0  0  0  0
  3 11  1  0  0  0  0
  3 10  1  0  0  0  0
  4 12  1  0  0  0  0
  4 13  1  0  0  0  0
  4  3  1  0  0  0  0
  5  4  1  0  0  0  0
  6 16  1  6  0  0  0
  6  5  1  0  0  0  0
  6  1  1  0  0  0  0
  8  2  1  0  0  0  0
 14  5  1  0  0  0  0
 15  5  1  0  0  0  0
 17 23  1  0  0  0  0
 17 18  1  0  0  0  0
 18 24  1  0  0  0  0
 19 18  2  0  0  0  0
 19  1  1  0  0  0  0
 20 19  1  0  0  0  0
 21 22  1  0  0  0  0
 21 20  2  0  0  0  0
 22 17  2  0  0  0  0
 25 21  1  0  0  0  0
 26 27  1  0  0  0  0
 26  6  1  0  0  0  0
 27 32  1  0  0  0  0
 28 33  1  0  0  0  0
 28 27  2  0  0  0  0
 29 28  1  0  0  0  0
 30 29  2  0  0  0  0
 30 31  1  0  0  0  0
 31 26  2  0  0  0  0
 34 29  1  0  0  0  0
 35 30  1  0  0  0  0
 36 35  1  0  0  0  0
 37 35  2  0  0  0  0
M  END
>  <minimizedAffinity>
-5.02402782

$$$$

 OpenBabel03242516513D

 37 39  0  0  1  0  0  0  0  0999 V2000
   38.8900   24.8710   40.9080 C   0  0  1  0  0  0  0  0  0  0  0  0
   38.2580   23.7250   41.5940 C   0  0  0  0  0  0  0  0  0  0  0  0
   37.3450   23.0710   40.5530 C   0  0  0  0  0  0  0  0  0  0  0  0
   36.2000   24.0360   40.3160 C   0  0  0  0  0  0  0  0  0  0  0  0
   36.6310   25.4120   39.9300 C   0  0  0  0  0  0  0  0  0  0  0  0
   37.8800   25.9270   40.5070 C   0  0  1  0  0  0  0  0  0  0  0  0
   39.2970   24.5110   39.9140 H   0  0  0  0  0  0  0  0  0  0  0  0
   37.6440   24.0170   42.4600 H   0  0  0  0  0  0  0  0  0  0  0  0
   39.0550   23.0190   41.9180 H   0  0  0  0  0  0  0  0  0  0  0  0
   36.9160   22.1550   40.9950 H   0  0  0  0  0  0  0  0  0  0  0  0
   37.9160   22.8970   39.6320 H   0  0  0  0  0  0  0  0  0  0  0  0
   35.5520   24.0010   41.2240 H   0  0  0  0  0  0  0  0  0  0  0  0
   35.5890   23.5800   39.5120 H   0  0  0  0  0  0  0  0  0  0  0  0
   35.7960   26.0970   40.2140 H   0  0  0  0  0  0  0  0  0  0  0  0
   36.6380   25.4490   38.8090 H   0  0  0  0  0  0  0  0  0  0  0  0
   38.4070   26.5350   39.7090 H   0  0  0  0  0  0  0  0  0  0  0  0
   41.2600   25.8560   43.6800 C   0  0  0  0  0  0  0  0  0  0  0  0
   40.2060   25.2910   42.9610 C   0  0  0  0  0  0  0  0  0  0  0  0
   40.0170   25.4820   41.5990 C   0  0  0  0  0  0  0  0  0  0  0  0
   40.9220   26.2600   40.9830 N   0  0  0  0  0  0  0  0  0  0  0  0
   41.9530   26.8180   41.6660 C   0  0  0  0  0  0  0  0  0  0  0  0
   42.1280   26.6290   42.9780 N   0  0  0  0  0  0  0  0  0  0  0  0
   41.3740   25.6840   44.7390 H   0  0  0  0  0  0  0  0  0  0  0  0
   39.5410   24.6860   43.5540 H   0  0  0  0  0  0  0  0  0  0  0  0
   42.6060   27.4260   41.0280 H   0  0  0  0  0  0  0  0  0  0  0  0
   37.6530   26.8900   41.5970 C   0  0  0  0  0  0  0  0  0  0  0  0
   36.9570   26.6580   42.7890 C   0  0  0  0  0  0  0  0  0  0  0  0
   36.8990   27.7280   43.6800 C   0  0  0  0  0  0  0  0  0  0  0  0
   37.5180   28.9100   43.3270 C   0  0  0  0  0  0  0  0  0  0  0  0
   38.1980   29.1220   42.1510 C   0  0  0  0  0  0  0  0  0  0  0  0
   38.2520   28.0760   41.2860 N   0  0  0  0  0  0  0  0  0  0  0  0
   36.5460   25.7040   42.8990 H   0  0  0  0  0  0  0  0  0  0  0  0
   36.3650   27.5580   44.6010 H   0  0  0  0  0  0  0  0  0  0  0  0
   37.4600   29.7360   44.0390 H   0  0  0  0  0  0  0  0  0  0  0  0
   38.8270   30.4170   41.8600 C   0  0  0  0  0  0  0  0  0  0  0  0
   38.5260   30.9410   40.9650 H   0  0  0  0  0  0  0  0  0  0  0  0
   39.6860   30.8530   42.6680 O   0  0  0  0  0  0  0  0  0  0  0  0
  1  7  1  6  0  0  0
  1  2  1  0  0  0  0
  1 19  1  0  0  0  0
  2  9  1  0  0  0  0
  2  8  1  0  0  0  0
  3 10  1  0  0  0  0
  3  2  1  0  0  0  0
  4  3  1  0  0  0  0
  4 12  1  0  0  0  0
  5 14  1  0  0  0  0
  5  4  1  0  0  0  0
  5  6  1  0  0  0  0
  6 16  1  6  0  0  0
  6  1  1  0  0  0  0
  6 26  1  0  0  0  0
 11  3  1  0  0  0  0
 13  4  1  0  0  0  0
 15  5  1  0  0  0  0
 17 23  1  0  0  0  0
 18 24  1  0  0  0  0
 18 17  2  0  0  0  0
 19 18  1  0  0  0  0
 20 19  2  0  0  0  0
 20 21  1  0  0  0  0
 21 22  2  0  0  0  0
 22 17  1  0  0  0  0
 25 21  1  0  0  0  0
 26 27  1  0  0  0  0
 27 32  1  0  0  0  0
 27 28  2  0  0  0  0
 28 33  1  0  0  0  0
 29 28  1  0  0  0  0
 29 34  1  0  0  0  0
 30 29  2  0  0  0  0
 31 26  2  0  0  0  0
 31 30  1  0  0  0  0
 35 30  1  0  0  0  0
 35 37  2  0  0  0  0
 36 35  1  0  0  0  0
M  END
>  <minimizedAffinity>
-4.97057867

$$$$

 OpenBabel03242516513D

 37 39  0  0  1  0  0  0  0  0999 V2000
   36.8430   27.6500   40.6740 C   0  0  1  0  0  0  0  0  0  0  0  0
   38.1360   26.9500   40.8170 C   0  0  0  0  0  0  0  0  0  0  0  0
   38.0540   26.1960   42.1480 C   0  0  0  0  0  0  0  0  0  0  0  0
   38.0790   27.2470   43.2410 C   0  0  0  0  0  0  0  0  0  0  0  0
   37.0290   28.2980   43.1020 C   0  0  0  0  0  0  0  0  0  0  0  0
   36.6380   28.7020   41.7440 C   0  0  1  0  0  0  0  0  0  0  0  0
   36.0120   26.9080   40.8760 H   0  0  0  0  0  0  0  0  0  0  0  0
   39.0010   27.6310   40.8570 H   0  0  0  0  0  0  0  0  0  0  0  0
   38.2540   26.2400   39.9690 H   0  0  0  0  0  0  0  0  0  0  0  0
   38.9670   25.5870   42.2580 H   0  0  0  0  0  0  0  0  0  0  0  0
   37.1230   25.6160   42.1750 H   0  0  0  0  0  0  0  0  0  0  0  0
   39.1190   27.6470   43.2840 H   0  0  0  0  0  0  0  0  0  0  0  0
   37.9480   26.6900   44.1900 H   0  0  0  0  0  0  0  0  0  0  0  0
   37.4050   29.1960   43.6480 H   0  0  0  0  0  0  0  0  0  0  0  0
   36.1490   27.9630   43.7120 H   0  0  0  0  0  0  0  0  0  0  0  0
   35.5210   28.8920   41.7450 H   0  0  0  0  0  0  0  0  0  0  0  0
   34.9300   28.9510   37.6870 C   0  0  0  0  0  0  0  0  0  0  0  0
   35.2600   28.4310   38.9390 C   0  0  0  0  0  0  0  0  0  0  0  0
   36.5650   28.2040   39.3560 C   0  0  0  0  0  0  0  0  0  0  0  0
   37.5270   28.5160   38.4720 N   0  0  0  0  0  0  0  0  0  0  0  0
   37.2240   29.0220   37.2490 C   0  0  0  0  0  0  0  0  0  0  0  0
   35.9650   29.2380   36.8560 N   0  0  0  0  0  0  0  0  0  0  0  0
   33.9030   29.1140   37.3990 H   0  0  0  0  0  0  0  0  0  0  0  0
   34.4110   28.2170   39.5660 H   0  0  0  0  0  0  0  0  0  0  0  0
   38.1140   29.2260   36.6420 H   0  0  0  0  0  0  0  0  0  0  0  0
   37.2180   29.9940   41.3420 C   0  0  0  0  0  0  0  0  0  0  0  0
   36.5420   31.0690   40.7540 C   0  0  0  0  0  0  0  0  0  0  0  0
   37.3110   32.2000   40.4870 C   0  0  0  0  0  0  0  0  0  0  0  0
   38.6510   32.1750   40.8140 C   0  0  0  0  0  0  0  0  0  0  0  0
   39.3010   31.1110   41.3910 C   0  0  0  0  0  0  0  0  0  0  0  0
   38.5470   30.0100   41.6500 N   0  0  0  0  0  0  0  0  0  0  0  0
   35.5240   30.9230   40.5710 H   0  0  0  0  0  0  0  0  0  0  0  0
   36.7980   33.0340   40.0330 H   0  0  0  0  0  0  0  0  0  0  0  0
   39.2350   33.0720   40.5950 H   0  0  0  0  0  0  0  0  0  0  0  0
   40.7350   31.1740   41.7060 C   0  0  0  0  0  0  0  0  0  0  0  0
   41.4330   31.2690   40.8870 H   0  0  0  0  0  0  0  0  0  0  0  0
   41.0790   31.1150   42.9140 O   0  0  0  0  0  0  0  0  0  0  0  0
  1  2  1  0  0  0  0
  1  7  1  1  0  0  0
  1  6  1  0  0  0  0
  2  8  1  0  0  0  0
  2  3  1  0  0  0  0
  3 11  1  0  0  0  0
  3 10  1  0  0  0  0
  3  4  1  0  0  0  0
  4 12  1  0  0  0  0
  4 13  1  0  0  0  0
  5  4  1  0  0  0  0
  5 14  1  0  0  0  0
  5 15  1  0  0  0  0
  6 16  1  1  0  0  0
  6  5  1  0  0  0  0
  9  2  1  0  0  0  0
 17 18  1  0  0  0  0
 18 19  2  0  0  0  0
 18 24  1  0  0  0  0
 19  1  1  0  0  0  0
 20 19  1  0  0  0  0
 21 20  2  0  0  0  0
 22 21  1  0  0  0  0
 22 17  2  0  0  0  0
 23 17  1  0  0  0  0
 25 21  1  0  0  0  0
 26 31  1  0  0  0  0
 26  6  1  0  0  0  0
 27 26  2  0  0  0  0
 28 27  1  0  0  0  0
 28 29  2  0  0  0  0
 29 30  1  0  0  0  0
 30 31  2  0  0  0  0
 30 35  1  0  0  0  0
 32 27  1  0  0  0  0
 33 28  1  0  0  0  0
 34 29  1  0  0  0  0
 35 37  2  0  0  0  0
 36 35  1  0  0  0  0
M  END
>  <minimizedAffinity>
-4.96022081

$$$$

 OpenBabel03242516513D

 37 39  0  0  1  0  0  0  0  0999 V2000
   35.9970   28.2110   39.8490 C   0  0  1  0  0  0  0  0  0  0  0  0
   34.8280   29.1140   39.8840 C   0  0  0  0  0  0  0  0  0  0  0  0
   34.0370   28.8170   38.6070 C   0  0  0  0  0  0  0  0  0  0  0  0
   34.8710   29.3380   37.4520 C   0  0  0  0  0  0  0  0  0  0  0  0
   36.2630   28.8000   37.4130 C   0  0  0  0  0  0  0  0  0  0  0  0
   36.9270   28.5210   38.6930 C   0  0  1  0  0  0  0  0  0  0  0  0
   35.6330   27.1650   39.6150 H   0  0  0  0  0  0  0  0  0  0  0  0
   35.0990   30.1820   39.8840 H   0  0  0  0  0  0  0  0  0  0  0  0
   34.2220   28.8790   40.7870 H   0  0  0  0  0  0  0  0  0  0  0  0
   33.1060   29.4090   38.6310 H   0  0  0  0  0  0  0  0  0  0  0  0
   33.8770   27.7350   38.5260 H   0  0  0  0  0  0  0  0  0  0  0  0
   34.8150   30.4520   37.4860 H   0  0  0  0  0  0  0  0  0  0  0  0
   34.3180   29.0530   36.5350 H   0  0  0  0  0  0  0  0  0  0  0  0
   36.8740   29.5440   36.8470 H   0  0  0  0  0  0  0  0  0  0  0  0
   36.2460   27.9010   36.7420 H   0  0  0  0  0  0  0  0  0  0  0  0
   37.5460   27.5800   38.5670 H   0  0  0  0  0  0  0  0  0  0  0  0
   38.1710   26.7650   42.5790 C   0  0  0  0  0  0  0  0  0  0  0  0
   37.4420   26.9360   41.4020 C   0  0  0  0  0  0  0  0  0  0  0  0
   36.7500   28.0990   41.0910 C   0  0  0  0  0  0  0  0  0  0  0  0
   36.8150   29.0840   42.0010 N   0  0  0  0  0  0  0  0  0  0  0  0
   37.5200   28.9350   43.1520 C   0  0  0  0  0  0  0  0  0  0  0  0
   38.1840   27.8120   43.4440 N   0  0  0  0  0  0  0  0  0  0  0  0
   38.6980   25.8460   42.7860 H   0  0  0  0  0  0  0  0  0  0  0  0
   37.4570   26.0840   40.7450 H   0  0  0  0  0  0  0  0  0  0  0  0
   37.4790   29.8240   43.7930 H   0  0  0  0  0  0  0  0  0  0  0  0
   37.9140   29.5500   39.0620 C   0  0  0  0  0  0  0  0  0  0  0  0
   39.2740   29.3510   39.3230 C   0  0  0  0  0  0  0  0  0  0  0  0
   40.0100   30.4930   39.6300 C   0  0  0  0  0  0  0  0  0  0  0  0
   39.3570   31.7080   39.6530 C   0  0  0  0  0  0  0  0  0  0  0  0
   38.0190   31.8870   39.3950 C   0  0  0  0  0  0  0  0  0  0  0  0
   37.3050   30.7710   39.0960 N   0  0  0  0  0  0  0  0  0  0  0  0
   39.6100   28.3630   39.2630 H   0  0  0  0  0  0  0  0  0  0  0  0
   41.0600   30.3480   39.8320 H   0  0  0  0  0  0  0  0  0  0  0  0
   39.9520   32.5910   39.8960 H   0  0  0  0  0  0  0  0  0  0  0  0
   37.4070   33.2230   39.4430 C   0  0  0  0  0  0  0  0  0  0  0  0
   36.4600   33.3680   38.9450 H   0  0  0  0  0  0  0  0  0  0  0  0
   38.0170   34.1310   40.0620 O   0  0  0  0  0  0  0  0  0  0  0  0
  1  7  1  6  0  0  0
  1  2  1  0  0  0  0
  1 19  1  0  0  0  0
  2  9  1  0  0  0  0
  3 10  1  0  0  0  0
  3  2  1  0  0  0  0
  4 12  1  0  0  0  0
  4  3  1  0  0  0  0
  5  4  1  0  0  0  0
  5  6  1  0  0  0  0
  6 16  1  6  0  0  0
  6 26  1  0  0  0  0
  6  1  1  0  0  0  0
  8  2  1  0  0  0  0
 11  3  1  0  0  0  0
 13  4  1  0  0  0  0
 14  5  1  0  0  0  0
 15  5  1  0  0  0  0
 17 23  1  0  0  0  0
 17 22  1  0  0  0  0
 18 17  2  0  0  0  0
 19 18  1  0  0  0  0
 19 20  2  0  0  0  0
 20 21  1  0  0  0  0
 21 22  2  0  0  0  0
 21 25  1  0  0  0  0
 24 18  1  0  0  0  0
 26 31  2  0  0  0  0
 26 27  1  0  0  0  0
 27 28  2  0  0  0  0
 28 29  1  0  0  0  0
 28 33  1  0  0  0  0
 29 34  1  0  0  0  0
 30 35  1  0  0  0  0
 30 29  2  0  0  0  0
 31 30  1  0  0  0  0
 32 27  1  0  0  0  0
 35 37  2  0  0  0  0
 36 35  1  0  0  0  0
M  END
>  <minimizedAffinity>
-4.91488934

$$$$

 OpenBabel03242516513D

 37 39  0  0  1  0  0  0  0  0999 V2000
   36.2610   30.0650   38.2740 C   0  0  1  0  0  0  0  0  0  0  0  0
   36.6940   29.2930   37.0920 C   0  0  0  0  0  0  0  0  0  0  0  0
   35.4480   29.1450   36.2150 C   0  0  0  0  0  0  0  0  0  0  0  0
   34.5120   28.2040   36.9490 C   0  0  0  0  0  0  0  0  0  0  0  0
   34.1950   28.6250   38.3450 C   0  0  0  0  0  0  0  0  0  0  0  0
   35.2430   29.3160   39.1080 C   0  0  1  0  0  0  0  0  0  0  0  0
   35.6860   30.9730   37.9160 H   0  0  0  0  0  0  0  0  0  0  0  0
   37.0660   28.2850   37.3380 H   0  0  0  0  0  0  0  0  0  0  0  0
   37.4850   29.8670   36.5600 H   0  0  0  0  0  0  0  0  0  0  0  0
   35.7420   28.6470   35.2750 H   0  0  0  0  0  0  0  0  0  0  0  0
   34.9890   30.1320   36.0730 H   0  0  0  0  0  0  0  0  0  0  0  0
   34.9520   27.1820   36.8720 H   0  0  0  0  0  0  0  0  0  0  0  0
   33.5900   28.1650   36.3350 H   0  0  0  0  0  0  0  0  0  0  0  0
   33.9010   27.7000   38.8960 H   0  0  0  0  0  0  0  0  0  0  0  0
   33.2450   29.2210   38.2980 H   0  0  0  0  0  0  0  0  0  0  0  0
   34.7450   30.1170   39.7370 H   0  0  0  0  0  0  0  0  0  0  0  0
   38.1330   32.2850   40.6910 C   0  0  0  0  0  0  0  0  0  0  0  0
   37.1470   31.7360   39.8710 C   0  0  0  0  0  0  0  0  0  0  0  0
   37.3290   30.5830   39.1190 C   0  0  0  0  0  0  0  0  0  0  0  0
   38.5350   30.0000   39.2180 N   0  0  0  0  0  0  0  0  0  0  0  0
   39.5060   30.5210   40.0110 C   0  0  0  0  0  0  0  0  0  0  0  0
   39.3230   31.6320   40.7320 N   0  0  0  0  0  0  0  0  0  0  0  0
   37.9550   33.1840   41.2620 H   0  0  0  0  0  0  0  0  0  0  0  0
   36.2210   32.2850   39.8670 H   0  0  0  0  0  0  0  0  0  0  0  0
   40.4330   29.9350   39.9870 H   0  0  0  0  0  0  0  0  0  0  0  0
   35.8990   28.4450   40.0970 C   0  0  0  0  0  0  0  0  0  0  0  0
   36.0920   28.7160   41.4570 C   0  0  0  0  0  0  0  0  0  0  0  0
   36.7220   27.7170   42.1950 C   0  0  0  0  0  0  0  0  0  0  0  0
   37.1000   26.5600   41.5450 C   0  0  0  0  0  0  0  0  0  0  0  0
   36.9030   26.3080   40.2090 C   0  0  0  0  0  0  0  0  0  0  0  0
   36.2890   27.2850   39.4920 N   0  0  0  0  0  0  0  0  0  0  0  0
   35.7460   29.6440   41.7900 H   0  0  0  0  0  0  0  0  0  0  0  0
   36.8750   27.9180   43.2440 H   0  0  0  0  0  0  0  0  0  0  0  0
   37.5930   25.7900   42.1430 H   0  0  0  0  0  0  0  0  0  0  0  0
   37.3400   25.0440   39.6010 C   0  0  0  0  0  0  0  0  0  0  0  0
   37.6020   25.0450   38.5530 H   0  0  0  0  0  0  0  0  0  0  0  0
   37.3900   24.0210   40.3310 O   0  0  0  0  0  0  0  0  0  0  0  0
  1  7  1  6  0  0  0
  1  6  1  0  0  0  0
  1 19  1  0  0  0  0
  2  8  1  0  0  0  0
  2  1  1  0  0  0  0
  3  4  1  0  0  0  0
  3  2  1  0  0  0  0
  4  5  1  0  0  0  0
  5 14  1  0  0  0  0
  5  6  1  0  0  0  0
  6 16  1  1  0  0  0
  6 26  1  0  0  0  0
  9  2  1  0  0  0  0
 10  3  1  0  0  0  0
 11  3  1  0  0  0  0
 12  4  1  0  0  0  0
 13  4  1  0  0  0  0
 15  5  1  0  0  0  0
 17 22  1  0  0  0  0
 17 23  1  0  0  0  0
 18 17  2  0  0  0  0
 19 20  2  0  0  0  0
 19 18  1  0  0  0  0
 20 21  1  0  0  0  0
 21 22  2  0  0  0  0
 24 18  1  0  0  0  0
 25 21  1  0  0  0  0
 26 27  1  0  0  0  0
 27 32  1  0  0  0  0
 27 28  2  0  0  0  0
 28 33  1  0  0  0  0
 29 34  1  0  0  0  0
 29 28  1  0  0  0  0
 30 29  2  0  0  0  0
 31 26  2  0  0  0  0
 31 30  1  0  0  0  0
 35 30  1  0  0  0  0
 35 37  2  0  0  0  0
 36 35  1  0  0  0  0
M  END
>  <minimizedAffinity>
-4.8696146

$$$$

 OpenBabel03242516513D

 37 39  0  0  1  0  0  0  0  0999 V2000
   38.0640   30.5600   39.9620 C   0  0  1  0  0  0  0  0  0  0  0  0
   37.8470   31.8020   40.7320 C   0  0  0  0  0  0  0  0  0  0  0  0
   39.2080   32.5000   40.7860 C   0  0  0  0  0  0  0  0  0  0  0  0
   40.0900   31.6560   41.6860 C   0  0  0  0  0  0  0  0  0  0  0  0
   40.1850   30.2230   41.2790 C   0  0  0  0  0  0  0  0  0  0  0  0
   39.0020   29.6030   40.6690 C   0  0  1  0  0  0  0  0  0  0  0  0
   38.6260   30.8220   39.0140 H   0  0  0  0  0  0  0  0  0  0  0  0
   37.5070   31.6240   41.7650 H   0  0  0  0  0  0  0  0  0  0  0  0
   37.1030   32.4310   40.1930 H   0  0  0  0  0  0  0  0  0  0  0  0
   39.0770   33.4780   41.2790 H   0  0  0  0  0  0  0  0  0  0  0  0
   39.6210   32.5620   39.7710 H   0  0  0  0  0  0  0  0  0  0  0  0
   39.7290   31.8080   42.7310 H   0  0  0  0  0  0  0  0  0  0  0  0
   41.0880   32.1360   41.6580 H   0  0  0  0  0  0  0  0  0  0  0  0
   40.4560   29.6500   42.1980 H   0  0  0  0  0  0  0  0  0  0  0  0
   41.0940   30.1290   40.6280 H   0  0  0  0  0  0  0  0  0  0  0  0
   39.3570   28.9010   39.8540 H   0  0  0  0  0  0  0  0  0  0  0  0
   35.7300   28.4360   37.8850 C   0  0  0  0  0  0  0  0  0  0  0  0
   36.8520   29.1160   38.3580 C   0  0  0  0  0  0  0  0  0  0  0  0
   36.8600   29.8640   39.5270 C   0  0  0  0  0  0  0  0  0  0  0  0
   35.7020   29.9060   40.2070 N   0  0  0  0  0  0  0  0  0  0  0  0
   34.6000   29.2510   39.7620 C   0  0  0  0  0  0  0  0  0  0  0  0
   34.6010   28.5320   38.6340 N   0  0  0  0  0  0  0  0  0  0  0  0
   35.7620   27.8630   36.9710 H   0  0  0  0  0  0  0  0  0  0  0  0
   37.7250   29.0140   37.7350 H   0  0  0  0  0  0  0  0  0  0  0  0
   33.7340   29.3790   40.4210 H   0  0  0  0  0  0  0  0  0  0  0  0
   38.2700   28.7280   41.6000 C   0  0  0  0  0  0  0  0  0  0  0  0
   37.7620   29.0770   42.8560 C   0  0  0  0  0  0  0  0  0  0  0  0
   37.0820   28.0720   43.5410 C   0  0  0  0  0  0  0  0  0  0  0  0
   36.9640   26.8340   42.9420 C   0  0  0  0  0  0  0  0  0  0  0  0
   37.4690   26.5070   41.7070 C   0  0  0  0  0  0  0  0  0  0  0  0
   38.1310   27.4900   41.0430 N   0  0  0  0  0  0  0  0  0  0  0  0
   37.9400   30.0600   43.1630 H   0  0  0  0  0  0  0  0  0  0  0  0
   36.6870   28.3340   44.5100 H   0  0  0  0  0  0  0  0  0  0  0  0
   36.4280   26.0610   43.4960 H   0  0  0  0  0  0  0  0  0  0  0  0
   37.2950   25.1590   41.1470 C   0  0  0  0  0  0  0  0  0  0  0  0
   37.7410   24.9430   40.1880 H   0  0  0  0  0  0  0  0  0  0  0  0
   36.6340   24.3220   41.8140 O   0  0  0  0  0  0  0  0  0  0  0  0
  1  7  1  6  0  0  0
  1  6  1  0  0  0  0
  1  2  1  0  0  0  0
  2  3  1  0  0  0  0
  2  8  1  0  0  0  0
  3 10  1  0  0  0  0
  3  4  1  0  0  0  0
  4 12  1  0  0  0  0
  5  4  1  0  0  0  0
  5 14  1  0  0  0  0
  6 16  1  6  0  0  0
  6  5  1  0  0  0  0
  6 26  1  0  0  0  0
  9  2  1  0  0  0  0
 11  3  1  0  0  0  0
 13  4  1  0  0  0  0
 15  5  1  0  0  0  0
 17 18  2  0  0  0  0
 17 22  1  0  0  0  0
 18 19  1  0  0  0  0
 19  1  1  0  0  0  0
 19 20  2  0  0  0  0
 21 20  1  0  0  0  0
 21 25  1  0  0  0  0
 22 21  2  0  0  0  0
 23 17  1  0  0  0  0
 24 18  1  0  0  0  0
 26 27  1  0  0  0  0
 27 32  1  0  0  0  0
 27 28  2  0  0  0  0
 28 33  1  0  0  0  0
 29 34  1  0  0  0  0
 29 28  1  0  0  0  0
 30 29  2  0  0  0  0
 31 26  2  0  0  0  0
 31 30  1  0  0  0  0
 35 30  1  0  0  0  0
 35 37  2  0  0  0  0
 36 35  1  0  0  0  0
M  END
>  <minimizedAffinity>
-4.82651711

$$$$

 OpenBabel03242516513D

 37 39  0  0  1  0  0  0  0  0999 V2000
   36.6620   26.7170   40.6610 C   0  0  1  0  0  0  0  0  0  0  0  0
   37.0410   25.8850   39.5010 C   0  0  0  0  0  0  0  0  0  0  0  0
   36.2960   24.5590   39.6810 C   0  0  0  0  0  0  0  0  0  0  0  0
   36.9390   23.8600   40.8630 C   0  0  0  0  0  0  0  0  0  0  0  0
   36.9780   24.6800   42.1100 C   0  0  0  0  0  0  0  0  0  0  0  0
   37.1490   26.1320   41.9710 C   0  0  1  0  0  0  0  0  0  0  0  0
   35.5340   26.6880   40.7670 H   0  0  0  0  0  0  0  0  0  0  0  0
   38.1210   25.6720   39.4480 H   0  0  0  0  0  0  0  0  0  0  0  0
   36.7130   26.3990   38.5700 H   0  0  0  0  0  0  0  0  0  0  0  0
   36.4810   23.9340   38.7910 H   0  0  0  0  0  0  0  0  0  0  0  0
   35.2350   24.7660   39.8700 H   0  0  0  0  0  0  0  0  0  0  0  0
   37.9400   23.5010   40.5250 H   0  0  0  0  0  0  0  0  0  0  0  0
   36.3440   22.9390   41.0220 H   0  0  0  0  0  0  0  0  0  0  0  0
   37.8170   24.2780   42.7270 H   0  0  0  0  0  0  0  0  0  0  0  0
   36.0620   24.4180   42.7010 H   0  0  0  0  0  0  0  0  0  0  0  0
   36.5110   26.6350   42.7610 H   0  0  0  0  0  0  0  0  0  0  0  0
   36.5550   30.4560   41.1920 C   0  0  0  0  0  0  0  0  0  0  0  0
   36.2740   29.0910   41.2460 C   0  0  0  0  0  0  0  0  0  0  0  0
   37.0130   28.1280   40.5720 C   0  0  0  0  0  0  0  0  0  0  0  0
   38.0450   28.5830   39.8420 N   0  0  0  0  0  0  0  0  0  0  0  0
   38.3330   29.9080   39.7780 C   0  0  0  0  0  0  0  0  0  0  0  0
   37.6160   30.8290   40.4300 N   0  0  0  0  0  0  0  0  0  0  0  0
   35.9570   31.1760   41.7300 H   0  0  0  0  0  0  0  0  0  0  0  0
   35.4260   28.8390   41.8590 H   0  0  0  0  0  0  0  0  0  0  0  0
   39.2020   30.1240   39.1440 H   0  0  0  0  0  0  0  0  0  0  0  0
   38.5170   26.5800   42.2800 C   0  0  0  0  0  0  0  0  0  0  0  0
   38.8890   27.5620   43.2050 C   0  0  0  0  0  0  0  0  0  0  0  0
   40.2570   27.7920   43.3350 C   0  0  0  0  0  0  0  0  0  0  0  0
   41.1230   27.0490   42.5600 C   0  0  0  0  0  0  0  0  0  0  0  0
   40.7420   26.0870   41.6550 C   0  0  0  0  0  0  0  0  0  0  0  0
   39.4080   25.8670   41.5310 N   0  0  0  0  0  0  0  0  0  0  0  0
   38.1040   28.0320   43.7110 H   0  0  0  0  0  0  0  0  0  0  0  0
   40.5510   28.5470   44.0460 H   0  0  0  0  0  0  0  0  0  0  0  0
   42.1910   27.2450   42.6780 H   0  0  0  0  0  0  0  0  0  0  0  0
   41.7380   25.3440   40.8700 C   0  0  0  0  0  0  0  0  0  0  0  0
   42.3260   24.5920   41.3740 H   0  0  0  0  0  0  0  0  0  0  0  0
   41.8560   25.6220   39.6490 O   0  0  0  0  0  0  0  0  0  0  0  0
  1  7  1  1  0  0  0
  1  6  1  0  0  0  0
  2  3  1  0  0  0  0
  2  1  1  0  0  0  0
  3 11  1  0  0  0  0
  3  4  1  0  0  0  0
  4 13  1  0  0  0  0
  4  5  1  0  0  0  0
  5 15  1  0  0  0  0
  5 14  1  0  0  0  0
  6  5  1  0  0  0  0
  6 26  1  0  0  0  0
  6 16  1  1  0  0  0
  8  2  1  0  0  0  0
  9  2  1  0  0  0  0
 10  3  1  0  0  0  0
 12  4  1  0  0  0  0
 17 18  1  0  0  0  0
 17 23  1  0  0  0  0
 18 24  1  0  0  0  0
 19  1  1  0  0  0  0
 19 18  2  0  0  0  0
 20 19  1  0  0  0  0
 21 20  2  0  0  0  0
 21 22  1  0  0  0  0
 22 17  2  0  0  0  0
 25 21  1  0  0  0  0
 26 27  1  0  0  0  0
 27 28  2  0  0  0  0
 27 32  1  0  0  0  0
 28 33  1  0  0  0  0
 29 34  1  0  0  0  0
 29 28  1  0  0  0  0
 30 29  2  0  0  0  0
 31 30  1  0  0  0  0
 31 26  2  0  0  0  0
 35 36  1  0  0  0  0
 35 30  1  0  0  0  0
 37 35  2  0  0  0  0
M  END
>  <minimizedAffinity>
-4.79656458

$$$$

 OpenBabel03242516513D

 37 39  0  0  1  0  0  0  0  0999 V2000
   36.3480   29.7540   38.1380 C   0  0  1  0  0  0  0  0  0  0  0  0
   36.3220   29.0210   36.8560 C   0  0  0  0  0  0  0  0  0  0  0  0
   34.9170   29.2360   36.2840 C   0  0  0  0  0  0  0  0  0  0  0  0
   33.9660   28.4590   37.1740 C   0  0  0  0  0  0  0  0  0  0  0  0
   34.0640   28.8050   38.6220 C   0  0  0  0  0  0  0  0  0  0  0  0
   35.3850   29.1720   39.1520 C   0  0  1  0  0  0  0  0  0  0  0  0
   35.9400   30.7960   37.9610 H   0  0  0  0  0  0  0  0  0  0  0  0
   36.4890   27.9370   36.9660 H   0  0  0  0  0  0  0  0  0  0  0  0
   37.0930   29.4540   36.1800 H   0  0  0  0  0  0  0  0  0  0  0  0
   34.8770   28.7760   35.2820 H   0  0  0  0  0  0  0  0  0  0  0  0
   34.6850   30.3080   36.2940 H   0  0  0  0  0  0  0  0  0  0  0  0
   34.1250   27.3770   36.9540 H   0  0  0  0  0  0  0  0  0  0  0  0
   32.9510   28.6820   36.7880 H   0  0  0  0  0  0  0  0  0  0  0  0
   33.6860   27.9190   39.1860 H   0  0  0  0  0  0  0  0  0  0  0  0
   33.2950   29.5970   38.8210 H   0  0  0  0  0  0  0  0  0  0  0  0
   35.2370   30.0000   39.9110 H   0  0  0  0  0  0  0  0  0  0  0  0
   40.0230   29.2900   38.8770 C   0  0  0  0  0  0  0  0  0  0  0  0
   38.7430   29.1650   38.3370 C   0  0  0  0  0  0  0  0  0  0  0  0
   37.6630   29.9410   38.7350 C   0  0  0  0  0  0  0  0  0  0  0  0
   37.9120   30.8470   39.6950 N   0  0  0  0  0  0  0  0  0  0  0  0
   39.1510   30.9830   40.2320 C   0  0  0  0  0  0  0  0  0  0  0  0
   40.1860   30.2310   39.8430 N   0  0  0  0  0  0  0  0  0  0  0  0
   40.8400   28.6690   38.5420 H   0  0  0  0  0  0  0  0  0  0  0  0
   38.6580   28.4080   37.5760 H   0  0  0  0  0  0  0  0  0  0  0  0
   39.1970   31.7610   41.0030 H   0  0  0  0  0  0  0  0  0  0  0  0
   36.0130   28.0880   39.9250 C   0  0  0  0  0  0  0  0  0  0  0  0
   36.3410   26.8090   39.4610 C   0  0  0  0  0  0  0  0  0  0  0  0
   36.9540   25.9640   40.3840 C   0  0  0  0  0  0  0  0  0  0  0  0
   37.1860   26.4410   41.6580 C   0  0  0  0  0  0  0  0  0  0  0  0
   36.8570   27.7000   42.0980 C   0  0  0  0  0  0  0  0  0  0  0  0
   36.2590   28.5210   41.1950 N   0  0  0  0  0  0  0  0  0  0  0  0
   36.0960   26.6080   38.4660 H   0  0  0  0  0  0  0  0  0  0  0  0
   37.2110   24.9760   40.0340 H   0  0  0  0  0  0  0  0  0  0  0  0
   37.6670   25.7620   42.3650 H   0  0  0  0  0  0  0  0  0  0  0  0
   37.1430   28.1230   43.4760 C   0  0  0  0  0  0  0  0  0  0  0  0
   36.6650   27.5870   44.2830 H   0  0  0  0  0  0  0  0  0  0  0  0
   37.9310   29.0880   43.6480 O   0  0  0  0  0  0  0  0  0  0  0  0
  1  7  1  6  0  0  0
  1 19  1  0  0  0  0
  1  6  1  0  0  0  0
  2  8  1  0  0  0  0
  2  1  1  0  0  0  0
  3 11  1  0  0  0  0
  3  2  1  0  0  0  0
  3  4  1  0  0  0  0
  4  5  1  0  0  0  0
  5 15  1  0  0  0  0
  5  6  1  0  0  0  0
  5 14  1  0  0  0  0
  6 16  1  1  0  0  0
  6 26  1  0  0  0  0
  9  2  1  0  0  0  0
 10  3  1  0  0  0  0
 12  4  1  0  0  0  0
 13  4  1  0  0  0  0
 17 22  1  0  0  0  0
 18 19  1  0  0  0  0
 18 17  2  0  0  0  0
 19 20  2  0  0  0  0
 20 21  1  0  0  0  0
 21 25  1  0  0  0  0
 22 21  2  0  0  0  0
 23 17  1  0  0  0  0
 24 18  1  0  0  0  0
 26 31  1  0  0  0  0
 27 26  2  0  0  0  0
 27 28  1  0  0  0  0
 28 29  2  0  0  0  0
 29 30  1  0  0  0  0
 29 34  1  0  0  0  0
 30 35  1  0  0  0  0
 31 30  2  0  0  0  0
 32 27  1  0  0  0  0
 33 28  1  0  0  0  0
 35 37  2  0  0  0  0
 35 36  1  0  0  0  0
M  END
>  <minimizedAffinity>
-4.7828331

$$$$
