
 OpenBabel03252506243D

 39 42  0  0  0  0  0  0  0  0999 V2000
   45.7920   30.0590   48.4370 C   0  0  0  0  0  0  0  0  0  0  0  0
   45.9230   29.7370   49.5000 H   0  0  0  0  0  0  0  0  0  0  0  0
   45.1640   30.9910   48.5120 H   0  0  0  0  0  0  0  0  0  0  0  0
   45.0060   27.6500   48.0150 C   0  0  0  0  0  0  0  0  0  0  0  0
   45.0600   29.0010   47.7560 C   0  0  0  0  0  0  0  0  0  0  0  0
   44.3030   29.4430   46.6740 C   0  0  0  0  0  0  0  0  0  0  0  0
   43.5460   28.5860   45.9100 C   0  0  0  0  0  0  0  0  0  0  0  0
   42.7390   28.7220   44.8410 N   0  0  0  0  0  0  0  0  0  0  0  0
   42.2220   27.5500   44.4630 C   0  0  0  0  0  0  0  0  0  0  0  0
   42.6990   26.5600   45.3160 C   0  0  0  0  0  0  0  0  0  0  0  0
   43.5040   27.2470   46.1830 C   0  0  0  0  0  0  0  0  0  0  0  0
   44.2490   26.7940   47.2520 C   0  0  0  0  0  0  0  0  0  0  0  0
   45.6200   27.3530   48.8760 H   0  0  0  0  0  0  0  0  0  0  0  0
   44.2480   30.4710   46.3530 H   0  0  0  0  0  0  0  0  0  0  0  0
   42.5310   29.6260   44.3530 H   0  0  0  0  0  0  0  0  0  0  0  0
   41.5440   27.3990   43.6280 H   0  0  0  0  0  0  0  0  0  0  0  0
   42.4880   25.4950   45.3050 H   0  0  0  0  0  0  0  0  0  0  0  0
   44.2450   25.3750   47.5920 C   0  0  0  0  0  0  0  0  0  0  0  0
   43.6430   24.6770   47.0050 H   0  0  0  0  0  0  0  0  0  0  0  0
   44.9220   24.9240   48.5510 O   0  0  0  0  0  0  0  0  0  0  0  0
   47.1470   30.3780   47.9200 C   0  0  0  0  0  0  0  0  0  0  0  0
   47.7160   30.9430   48.6910 H   0  0  0  0  0  0  0  0  0  0  0  0
   47.6860   29.4420   47.7660 H   0  0  0  0  0  0  0  0  0  0  0  0
   46.5090   32.7130   45.2880 C   0  0  0  0  0  0  0  0  0  0  0  0
   47.2570   31.7190   44.6250 C   0  0  0  0  0  0  0  0  0  0  0  0
   47.5750   30.7520   45.5110 C   0  0  0  0  0  0  0  0  0  0  0  0
   47.0480   31.1290   46.6800 N   0  0  0  0  0  0  0  0  0  0  0  0
   46.4090   32.2980   46.5600 N   0  0  0  0  0  0  0  0  0  0  0  0
   47.5580   31.6830   43.5740 H   0  0  0  0  0  0  0  0  0  0  0  0
   48.1430   29.8400   45.3490 H   0  0  0  0  0  0  0  0  0  0  0  0
   44.5630   35.7560   44.7390 C   0  0  0  0  0  0  0  0  0  0  0  0
   44.9880   36.1870   43.4850 C   0  0  0  0  0  0  0  0  0  0  0  0
   45.9570   35.4120   42.8290 C   0  0  0  0  0  0  0  0  0  0  0  0
   46.4090   34.3060   43.4590 N   0  0  0  0  0  0  0  0  0  0  0  0
   45.9900   33.9110   44.6580 C   0  0  0  0  0  0  0  0  0  0  0  0
   45.0620   34.6450   45.2950 N   0  0  0  0  0  0  0  0  0  0  0  0
   43.8160   36.3830   45.2080 H   0  0  0  0  0  0  0  0  0  0  0  0
   44.6490   37.0680   42.9500 H   0  0  0  0  0  0  0  0  0  0  0  0
   46.3710   35.6350   41.8570 H   0  0  0  0  0  0  0  0  0  0  0  0
  1  3  1  0  0  0  0
  1  2  1  0  0  0  0
  4 13  1  0  0  0  0
  5  4  1  0  0  0  0
  5  1  1  0  0  0  0
  6  5  2  0  0  0  0
  7 11  2  0  0  0  0
  7  6  1  0  0  0  0
  8  7  1  0  0  0  0
  9  8  1  0  0  0  0
  9 10  2  0  0  0  0
 10 11  1  0  0  0  0
 11 12  1  0  0  0  0
 12 18  1  0  0  0  0
 12  4  2  0  0  0  0
 14  6  1  0  0  0  0
 15  8  1  0  0  0  0
 16  9  1  0  0  0  0
 17 10  1  0  0  0  0
 18 20  2  0  0  0  0
 19 18  1  0  0  0  0
 21  1  1  0  0  0  0
 21 22  1  0  0  0  0
 23 21  1  0  0  0  0
 24 28  2  0  0  0  0
 25 24  1  0  0  0  0
 25 26  2  0  0  0  0
 26 27  1  0  0  0  0
 27 21  1  0  0  0  0
 28 27  1  0  0  0  0
 29 25  1  0  0  0  0
 30 26  1  0  0  0  0
 31 37  1  0  0  0  0
 31 36  1  0  0  0  0
 32 31  2  0  0  0  0
 33 34  2  0  0  0  0
 33 32  1  0  0  0  0
 34 35  1  0  0  0  0
 35 24  1  0  0  0  0
 35 36  2  0  0  0  0
 38 32  1  0  0  0  0
 39 33  1  0  0  0  0
M  END
>  <minimizedAffinity>
-5.22531652

>  <minimizedRMSD>
0.462755412

$$$$
