
 OpenBabel03252508583D

 33 34  0  0  1  0  0  0  0  0999 V2000
   36.7240   30.5090   39.3980 N   0  0  0  0  0  0  0  0  0  0  0  0
   36.6960   29.6230   38.3130 C   0  0  0  0  0  0  0  0  0  0  0  0
   36.8320   30.2170   36.9470 C   0  0  0  0  0  0  0  0  0  0  0  0
   37.6870   31.4560   36.8800 C   0  0  0  0  0  0  0  0  0  0  0  0
   38.2790   31.8090   38.2060 C   0  0  0  0  0  0  0  0  0  0  0  0
   37.0770   31.8490   39.1830 C   0  0  2  0  0  0  0  0  0  0  0  0
   35.7580   29.0090   38.3350 H   0  0  0  0  0  0  0  0  0  0  0  0
   37.5240   28.8810   38.4450 H   0  0  0  0  0  0  0  0  0  0  0  0
   35.8010   30.5320   36.6400 H   0  0  0  0  0  0  0  0  0  0  0  0
   37.1250   29.4350   36.2340 H   0  0  0  0  0  0  0  0  0  0  0  0
   37.1610   32.3220   36.4710 H   0  0  0  0  0  0  0  0  0  0  0  0
   38.5250   31.2180   36.1780 H   0  0  0  0  0  0  0  0  0  0  0  0
   38.6950   32.8350   38.1590 H   0  0  0  0  0  0  0  0  0  0  0  0
   38.9900   31.0500   38.5690 H   0  0  0  0  0  0  0  0  0  0  0  0
   36.3710   32.5240   38.7110 H   0  0  0  0  0  0  0  0  0  0  0  0
   35.7890   30.2530   40.4600 C   0  0  0  0  0  0  0  0  0  0  0  0
   34.8050   30.7020   40.2520 H   0  0  0  0  0  0  0  0  0  0  0  0
   36.1840   30.7180   41.3840 H   0  0  0  0  0  0  0  0  0  0  0  0
   35.6540   28.7860   40.7160 C   0  0  0  0  0  0  0  0  0  0  0  0
   34.6600   28.5640   41.0950 H   0  0  0  0  0  0  0  0  0  0  0  0
   35.8310   28.1360   39.8360 H   0  0  0  0  0  0  0  0  0  0  0  0
   37.9730   26.6250   42.7330 C   0  0  0  0  0  0  0  0  0  0  0  0
   37.0060   27.0170   41.7840 C   0  0  0  0  0  0  0  0  0  0  0  0
   36.6630   28.3510   41.7060 C   0  0  0  0  0  0  0  0  0  0  0  0
   37.2630   29.2160   42.5380 N   0  0  0  0  0  0  0  0  0  0  0  0
   38.1870   28.8300   43.4430 C   0  0  0  0  0  0  0  0  0  0  0  0
   38.5500   27.5300   43.5470 N   0  0  0  0  0  0  0  0  0  0  0  0
   38.2040   25.5680   42.7490 H   0  0  0  0  0  0  0  0  0  0  0  0
   36.5490   26.2830   41.1350 H   0  0  0  0  0  0  0  0  0  0  0  0
   38.6640   29.5380   44.1060 H   0  0  0  0  0  0  0  0  0  0  0  0
   37.6640   32.4820   40.4020 C   0  0  0  0  0  0  0  0  0  0  0  0
   37.0420   32.9980   41.1240 H   0  0  0  0  0  0  0  0  0  0  0  0
   38.6320   32.7280   41.0550 O   0  0  0  0  0  0  0  0  0  0  0  0
  1 16  1  0  0  0  0
  2  7  1  0  0  0  0
  2  8  1  0  0  0  0
  2  1  1  0  0  0  0
  3  2  1  0  0  0  0
  4  3  1  0  0  0  0
  4  5  1  0  0  0  0
  5 14  1  0  0  0  0
  5  6  1  0  0  0  0
  6 15  1  6  0  0  0
  6  1  1  0  0  0  0
  6 31  1  0  0  0  0
  9  3  1  0  0  0  0
 10  3  1  0  0  0  0
 11  4  1  0  0  0  0
 12  4  1  0  0  0  0
 13  5  1  0  0  0  0
 16 19  1  0  0  0  0
 16 18  1  0  0  0  0
 17 16  1  0  0  0  0
 19 20  1  0  0  0  0
 19 24  1  0  0  0  0
 21 19  1  0  0  0  0
 22 28  1  0  0  0  0
 22 27  1  0  0  0  0
 23 22  2  0  0  0  0
 24 23  1  0  0  0  0
 24 25  2  0  0  0  0
 25 26  1  0  0  0  0
 26 27  2  0  0  0  0
 26 30  1  0  0  0  0
 29 23  1  0  0  0  0
 31 33  2  0  0  0  0
 31 32  1  0  0  0  0
M  END
>  <minimizedAffinity>
-4.29784393

$$$$

 OpenBabel03252508583D

 33 34  0  0  1  0  0  0  0  0999 V2000
   38.8620   26.5050   42.7620 N   0  0  0  0  0  0  0  0  0  0  0  0
   37.4980   26.3030   42.5130 C   0  0  0  0  0  0  0  0  0  0  0  0
   37.1320   25.1590   41.6220 C   0  0  0  0  0  0  0  0  0  0  0  0
   38.0630   23.9760   41.6990 C   0  0  0  0  0  0  0  0  0  0  0  0
   39.1460   24.1710   42.7100 C   0  0  0  0  0  0  0  0  0  0  0  0
   39.7880   25.5350   42.3510 C   0  0  2  0  0  0  0  0  0  0  0  0
   37.0360   27.2340   42.0930 H   0  0  0  0  0  0  0  0  0  0  0  0
   36.9820   26.1470   43.4950 H   0  0  0  0  0  0  0  0  0  0  0  0
   37.2060   25.5450   40.5720 H   0  0  0  0  0  0  0  0  0  0  0  0
   36.0750   24.9030   41.7680 H   0  0  0  0  0  0  0  0  0  0  0  0
   38.5040   23.7100   40.7370 H   0  0  0  0  0  0  0  0  0  0  0  0
   37.4370   23.1080   42.0250 H   0  0  0  0  0  0  0  0  0  0  0  0
   39.9250   23.3970   42.5670 H   0  0  0  0  0  0  0  0  0  0  0  0
   38.7590   24.2370   43.7400 H   0  0  0  0  0  0  0  0  0  0  0  0
   40.0410   25.4420   41.3000 H   0  0  0  0  0  0  0  0  0  0  0  0
   39.3190   27.8690   42.7640 C   0  0  0  0  0  0  0  0  0  0  0  0
   39.6690   28.1810   41.7690 H   0  0  0  0  0  0  0  0  0  0  0  0
   40.1740   27.9420   43.4630 H   0  0  0  0  0  0  0  0  0  0  0  0
   38.2520   28.7920   43.2610 C   0  0  0  0  0  0  0  0  0  0  0  0
   37.3220   28.2460   43.3970 H   0  0  0  0  0  0  0  0  0  0  0  0
   38.4810   29.3080   44.2140 H   0  0  0  0  0  0  0  0  0  0  0  0
   38.8640   31.7520   41.0300 C   0  0  0  0  0  0  0  0  0  0  0  0
   39.0890   30.7180   41.9630 C   0  0  0  0  0  0  0  0  0  0  0  0
   38.0380   29.8860   42.2880 C   0  0  0  0  0  0  0  0  0  0  0  0
   36.8500   30.0980   41.7050 N   0  0  0  0  0  0  0  0  0  0  0  0
   36.6450   31.0900   40.8130 C   0  0  0  0  0  0  0  0  0  0  0  0
   37.6530   31.9260   40.4690 N   0  0  0  0  0  0  0  0  0  0  0  0
   39.7240   32.3730   40.8120 H   0  0  0  0  0  0  0  0  0  0  0  0
   40.0660   30.5860   42.4080 H   0  0  0  0  0  0  0  0  0  0  0  0
   35.6820   31.2500   40.3500 H   0  0  0  0  0  0  0  0  0  0  0  0
   41.0270   25.5460   43.1840 C   0  0  0  0  0  0  0  0  0  0  0  0
   41.0460   26.0210   44.1580 H   0  0  0  0  0  0  0  0  0  0  0  0
   42.1730   25.2370   43.3080 O   0  0  0  0  0  0  0  0  0  0  0  0
  1 16  1  0  0  0  0
  2  1  1  0  0  0  0
  2  8  1  0  0  0  0
  3  4  1  0  0  0  0
  3 10  1  0  0  0  0
  3  2  1  0  0  0  0
  4 12  1  0  0  0  0
  4  5  1  0  0  0  0
  5 14  1  0  0  0  0
  6 15  1  6  0  0  0
  6  5  1  0  0  0  0
  6  1  1  0  0  0  0
  6 31  1  0  0  0  0
  7  2  1  0  0  0  0
  9  3  1  0  0  0  0
 11  4  1  0  0  0  0
 13  5  1  0  0  0  0
 16 19  1  0  0  0  0
 16 18  1  0  0  0  0
 17 16  1  0  0  0  0
 19 20  1  0  0  0  0
 19 21  1  0  0  0  0
 22 23  1  0  0  0  0
 23 24  2  0  0  0  0
 23 29  1  0  0  0  0
 24 19  1  0  0  0  0
 25 24  1  0  0  0  0
 26 25  2  0  0  0  0
 27 26  1  0  0  0  0
 27 22  2  0  0  0  0
 28 22  1  0  0  0  0
 30 26  1  0  0  0  0
 31 33  2  0  0  0  0
 31 32  1  0  0  0  0
M  END
>  <minimizedAffinity>
-4.23297691

$$$$

 OpenBabel03252508583D

 33 34  0  0  1  0  0  0  0  0999 V2000
   38.0410   28.3510   40.9070 N   0  0  0  0  0  0  0  0  0  0  0  0
   39.0810   27.7040   41.5870 C   0  0  0  0  0  0  0  0  0  0  0  0
   39.0450   27.7440   43.0820 C   0  0  0  0  0  0  0  0  0  0  0  0
   37.6620   27.7680   43.6790 C   0  0  0  0  0  0  0  0  0  0  0  0
   36.5930   27.6890   42.6380 C   0  0  0  0  0  0  0  0  0  0  0  0
   36.9310   28.8150   41.6290 C   0  0  2  0  0  0  0  0  0  0  0  0
   40.0740   28.1030   41.2510 H   0  0  0  0  0  0  0  0  0  0  0  0
   39.0870   26.6280   41.2760 H   0  0  0  0  0  0  0  0  0  0  0  0
   39.5300   28.7090   43.3800 H   0  0  0  0  0  0  0  0  0  0  0  0
   39.6900   26.9530   43.4860 H   0  0  0  0  0  0  0  0  0  0  0  0
   37.4830   28.6330   44.3210 H   0  0  0  0  0  0  0  0  0  0  0  0
   37.5860   26.8580   44.3250 H   0  0  0  0  0  0  0  0  0  0  0  0
   35.6160   27.9430   43.0950 H   0  0  0  0  0  0  0  0  0  0  0  0
   36.6000   26.7300   42.0940 H   0  0  0  0  0  0  0  0  0  0  0  0
   37.0210   29.7050   42.2430 H   0  0  0  0  0  0  0  0  0  0  0  0
   38.4080   29.1050   39.7390 C   0  0  0  0  0  0  0  0  0  0  0  0
   37.5330   29.5860   39.2750 H   0  0  0  0  0  0  0  0  0  0  0  0
   38.8400   28.4030   39.0000 H   0  0  0  0  0  0  0  0  0  0  0  0
   39.4570   30.1200   40.0620 C   0  0  0  0  0  0  0  0  0  0  0  0
   39.8590   29.9360   41.0550 H   0  0  0  0  0  0  0  0  0  0  0  0
   40.3100   30.1580   39.3560 H   0  0  0  0  0  0  0  0  0  0  0  0
   37.2220   33.0160   39.2080 C   0  0  0  0  0  0  0  0  0  0  0  0
   37.7630   31.7140   39.2350 C   0  0  0  0  0  0  0  0  0  0  0  0
   38.8760   31.4790   40.0150 C   0  0  0  0  0  0  0  0  0  0  0  0
   39.3960   32.5000   40.7120 N   0  0  0  0  0  0  0  0  0  0  0  0
   38.8710   33.7440   40.6790 C   0  0  0  0  0  0  0  0  0  0  0  0
   37.7790   34.0110   39.9250 N   0  0  0  0  0  0  0  0  0  0  0  0
   36.3500   33.1430   38.5800 H   0  0  0  0  0  0  0  0  0  0  0  0
   37.3090   30.9220   38.6550 H   0  0  0  0  0  0  0  0  0  0  0  0
   39.3000   34.5570   41.2460 H   0  0  0  0  0  0  0  0  0  0  0  0
   35.6980   28.8870   40.7890 C   0  0  0  0  0  0  0  0  0  0  0  0
   34.9940   28.0640   40.7520 H   0  0  0  0  0  0  0  0  0  0  0  0
   35.0200   29.5060   40.0280 O   0  0  0  0  0  0  0  0  0  0  0  0
  1  2  1  0  0  0  0
  1  6  1  0  0  0  0
  2  3  1  0  0  0  0
  3  9  1  0  0  0  0
  3 10  1  0  0  0  0
  3  4  1  0  0  0  0
  4 11  1  0  0  0  0
  4 12  1  0  0  0  0
  5 13  1  0  0  0  0
  5  4  1  0  0  0  0
  6 15  1  1  0  0  0
  6  5  1  0  0  0  0
  7  2  1  0  0  0  0
  8  2  1  0  0  0  0
 14  5  1  0  0  0  0
 16 19  1  0  0  0  0
 16  1  1  0  0  0  0
 17 16  1  0  0  0  0
 18 16  1  0  0  0  0
 19 20  1  0  0  0  0
 21 19  1  0  0  0  0
 22 23  2  0  0  0  0
 22 27  1  0  0  0  0
 23 24  1  0  0  0  0
 24 19  1  0  0  0  0
 24 25  2  0  0  0  0
 26 25  1  0  0  0  0
 26 30  1  0  0  0  0
 27 26  2  0  0  0  0
 28 22  1  0  0  0  0
 29 23  1  0  0  0  0
 31  6  1  0  0  0  0
 32 31  1  0  0  0  0
 33 31  2  0  0  0  0
M  END
>  <minimizedAffinity>
-4.224998

$$$$

 OpenBabel03252508583D

 33 34  0  0  1  0  0  0  0  0999 V2000
   36.2070   29.3380   40.7160 N   0  0  0  0  0  0  0  0  0  0  0  0
   36.2000   30.6970   41.0560 C   0  0  0  0  0  0  0  0  0  0  0  0
   37.0310   31.6130   40.2150 C   0  0  0  0  0  0  0  0  0  0  0  0
   37.1540   31.2040   38.7700 C   0  0  0  0  0  0  0  0  0  0  0  0
   36.3600   29.9770   38.4580 C   0  0  0  0  0  0  0  0  0  0  0  0
   36.8050   28.9330   39.5130 C   0  0  2  0  0  0  0  0  0  0  0  0
   36.5070   30.8320   42.1270 H   0  0  0  0  0  0  0  0  0  0  0  0
   35.1420   31.0630   41.0150 H   0  0  0  0  0  0  0  0  0  0  0  0
   38.0680   31.5730   40.6400 H   0  0  0  0  0  0  0  0  0  0  0  0
   36.6950   32.6480   40.3570 H   0  0  0  0  0  0  0  0  0  0  0  0
   38.1880   31.0630   38.4470 H   0  0  0  0  0  0  0  0  0  0  0  0
   36.7350   32.0510   38.1710 H   0  0  0  0  0  0  0  0  0  0  0  0
   36.6630   29.5880   37.4660 H   0  0  0  0  0  0  0  0  0  0  0  0
   35.2750   30.1350   38.5680 H   0  0  0  0  0  0  0  0  0  0  0  0
   37.8860   28.9120   39.4280 H   0  0  0  0  0  0  0  0  0  0  0  0
   36.2610   28.4030   41.8070 C   0  0  0  0  0  0  0  0  0  0  0  0
   36.1590   27.3640   41.4560 H   0  0  0  0  0  0  0  0  0  0  0  0
   35.4130   28.6160   42.4840 H   0  0  0  0  0  0  0  0  0  0  0  0
   37.5210   28.5700   42.5960 C   0  0  0  0  0  0  0  0  0  0  0  0
   38.1810   29.2750   42.0980 H   0  0  0  0  0  0  0  0  0  0  0  0
   37.3800   28.9200   43.6380 H   0  0  0  0  0  0  0  0  0  0  0  0
   39.9440   25.9120   43.6800 C   0  0  0  0  0  0  0  0  0  0  0  0
   39.3050   27.1640   43.5620 C   0  0  0  0  0  0  0  0  0  0  0  0
   38.2090   27.2690   42.7310 C   0  0  0  0  0  0  0  0  0  0  0  0
   37.8000   26.1750   42.0710 N   0  0  0  0  0  0  0  0  0  0  0  0
   38.4190   24.9810   42.1900 C   0  0  0  0  0  0  0  0  0  0  0  0
   39.4970   24.8410   42.9970 N   0  0  0  0  0  0  0  0  0  0  0  0
   40.7970   25.8880   44.3460 H   0  0  0  0  0  0  0  0  0  0  0  0
   39.6710   28.0180   44.1150 H   0  0  0  0  0  0  0  0  0  0  0  0
   38.0790   24.1080   41.6520 H   0  0  0  0  0  0  0  0  0  0  0  0
   36.2180   27.6640   38.9880 C   0  0  0  0  0  0  0  0  0  0  0  0
   35.3850   27.6730   38.2950 H   0  0  0  0  0  0  0  0  0  0  0  0
   36.2300   26.4710   38.9640 O   0  0  0  0  0  0  0  0  0  0  0  0
  1  2  1  0  0  0  0
  1 16  1  0  0  0  0
  2  7  1  0  0  0  0
  3 10  1  0  0  0  0
  3  9  1  0  0  0  0
  3  2  1  0  0  0  0
  4  3  1  0  0  0  0
  5 14  1  0  0  0  0
  5  4  1  0  0  0  0
  5  6  1  0  0  0  0
  6 15  1  1  0  0  0
  6  1  1  0  0  0  0
  8  2  1  0  0  0  0
 11  4  1  0  0  0  0
 12  4  1  0  0  0  0
 13  5  1  0  0  0  0
 16 18  1  0  0  0  0
 16 19  1  0  0  0  0
 17 16  1  0  0  0  0
 19 24  1  0  0  0  0
 19 21  1  0  0  0  0
 20 19  1  0  0  0  0
 22 28  1  0  0  0  0
 23 22  1  0  0  0  0
 23 29  1  0  0  0  0
 24 23  2  0  0  0  0
 25 26  2  0  0  0  0
 25 24  1  0  0  0  0
 26 27  1  0  0  0  0
 27 22  2  0  0  0  0
 30 26  1  0  0  0  0
 31  6  1  0  0  0  0
 32 31  1  0  0  0  0
 33 31  2  0  0  0  0
M  END
>  <minimizedAffinity>
-4.16345263

$$$$

 OpenBabel03252508583D

 33 34  0  0  1  0  0  0  0  0999 V2000
   37.9070   29.7550   41.9950 N   0  0  0  0  0  0  0  0  0  0  0  0
   36.7520   29.9110   41.2170 C   0  0  0  0  0  0  0  0  0  0  0  0
   36.5000   31.2670   40.6400 C   0  0  0  0  0  0  0  0  0  0  0  0
   37.7420   32.0500   40.3000 C   0  0  0  0  0  0  0  0  0  0  0  0
   38.9910   31.2730   40.5630 C   0  0  0  0  0  0  0  0  0  0  0  0
   38.8590   30.7850   42.0280 C   0  0  2  0  0  0  0  0  0  0  0  0
   35.8450   29.6060   41.8010 H   0  0  0  0  0  0  0  0  0  0  0  0
   36.8020   29.1830   40.3670 H   0  0  0  0  0  0  0  0  0  0  0  0
   35.9710   31.8520   41.4360 H   0  0  0  0  0  0  0  0  0  0  0  0
   35.7860   31.1860   39.8100 H   0  0  0  0  0  0  0  0  0  0  0  0
   37.7970   33.0150   40.8090 H   0  0  0  0  0  0  0  0  0  0  0  0
   37.6880   32.2590   39.2030 H   0  0  0  0  0  0  0  0  0  0  0  0
   39.8630   31.9570   40.5250 H   0  0  0  0  0  0  0  0  0  0  0  0
   39.0850   30.3870   39.9140 H   0  0  0  0  0  0  0  0  0  0  0  0
   38.6570   31.6890   42.5930 H   0  0  0  0  0  0  0  0  0  0  0  0
   37.7760   28.9640   43.1880 C   0  0  0  0  0  0  0  0  0  0  0  0
   37.2100   29.4960   43.9680 H   0  0  0  0  0  0  0  0  0  0  0  0
   38.7910   28.7660   43.5820 H   0  0  0  0  0  0  0  0  0  0  0  0
   37.1430   27.6420   42.8890 C   0  0  0  0  0  0  0  0  0  0  0  0
   36.3630   27.4300   43.6160 H   0  0  0  0  0  0  0  0  0  0  0  0
   36.6960   27.5510   41.8800 H   0  0  0  0  0  0  0  0  0  0  0  0
   40.2940   25.7510   43.6700 C   0  0  0  0  0  0  0  0  0  0  0  0
   39.3370   26.7860   43.6310 C   0  0  0  0  0  0  0  0  0  0  0  0
   38.1630   26.5710   42.9410 C   0  0  0  0  0  0  0  0  0  0  0  0
   37.9830   25.3870   42.3370 N   0  0  0  0  0  0  0  0  0  0  0  0
   38.9040   24.4020   42.3810 C   0  0  0  0  0  0  0  0  0  0  0  0
   40.0690   24.5770   43.0490 N   0  0  0  0  0  0  0  0  0  0  0  0
   41.1950   25.9740   44.2260 H   0  0  0  0  0  0  0  0  0  0  0  0
   39.5280   27.7250   44.1330 H   0  0  0  0  0  0  0  0  0  0  0  0
   38.7460   23.4530   41.8900 H   0  0  0  0  0  0  0  0  0  0  0  0
   40.2310   30.2790   42.3320 C   0  0  0  0  0  0  0  0  0  0  0  0
   40.4420   29.2170   42.3760 H   0  0  0  0  0  0  0  0  0  0  0  0
   41.3710   30.5200   42.5870 O   0  0  0  0  0  0  0  0  0  0  0  0
  1  6  1  0  0  0  0
  1 16  1  0  0  0  0
  2  7  1  0  0  0  0
  2  1  1  0  0  0  0
  3  2  1  0  0  0  0
  3  9  1  0  0  0  0
  4  5  1  0  0  0  0
  4  3  1  0  0  0  0
  4 11  1  0  0  0  0
  5  6  1  0  0  0  0
  6 31  1  0  0  0  0
  6 15  1  1  0  0  0
  8  2  1  0  0  0  0
 10  3  1  0  0  0  0
 12  4  1  0  0  0  0
 13  5  1  0  0  0  0
 14  5  1  0  0  0  0
 16 18  1  0  0  0  0
 16 17  1  0  0  0  0
 19 24  1  0  0  0  0
 19 16  1  0  0  0  0
 19 20  1  0  0  0  0
 21 19  1  0  0  0  0
 22 28  1  0  0  0  0
 23 22  1  0  0  0  0
 23 29  1  0  0  0  0
 24 23  2  0  0  0  0
 25 26  2  0  0  0  0
 25 24  1  0  0  0  0
 26 27  1  0  0  0  0
 27 22  2  0  0  0  0
 30 26  1  0  0  0  0
 31 32  1  0  0  0  0
 31 33  2  0  0  0  0
M  END
>  <minimizedAffinity>
-4.14854527

$$$$

 OpenBabel03252508583D

 33 34  0  0  1  0  0  0  0  0999 V2000
   38.7330   29.2250   42.4470 N   0  0  0  0  0  0  0  0  0  0  0  0
   39.3680   28.0740   42.9330 C   0  0  0  0  0  0  0  0  0  0  0  0
   38.4990   27.0370   43.5700 C   0  0  0  0  0  0  0  0  0  0  0  0
   37.1090   26.9380   42.9960 C   0  0  0  0  0  0  0  0  0  0  0  0
   36.9010   27.8770   41.8520 C   0  0  0  0  0  0  0  0  0  0  0  0
   37.3330   29.2650   42.3880 C   0  0  2  0  0  0  0  0  0  0  0  0
   40.1720   28.3520   43.6630 H   0  0  0  0  0  0  0  0  0  0  0  0
   39.9110   27.5880   42.0830 H   0  0  0  0  0  0  0  0  0  0  0  0
   38.3750   27.3470   44.6390 H   0  0  0  0  0  0  0  0  0  0  0  0
   39.0350   26.0790   43.6020 H   0  0  0  0  0  0  0  0  0  0  0  0
   36.3240   27.0870   43.7400 H   0  0  0  0  0  0  0  0  0  0  0  0
   37.0040   25.8940   42.6110 H   0  0  0  0  0  0  0  0  0  0  0  0
   35.8190   27.9390   41.6210 H   0  0  0  0  0  0  0  0  0  0  0  0
   37.5330   27.6340   40.9830 H   0  0  0  0  0  0  0  0  0  0  0  0
   36.7570   29.3900   43.3000 H   0  0  0  0  0  0  0  0  0  0  0  0
   39.4020   30.4760   42.6830 C   0  0  0  0  0  0  0  0  0  0  0  0
   39.6140   30.6270   43.7530 H   0  0  0  0  0  0  0  0  0  0  0  0
   38.7310   31.2910   42.3520 H   0  0  0  0  0  0  0  0  0  0  0  0
   40.6590   30.5730   41.8780 C   0  0  0  0  0  0  0  0  0  0  0  0
   41.5240   30.5610   42.5360 H   0  0  0  0  0  0  0  0  0  0  0  0
   40.8000   29.7720   41.1250 H   0  0  0  0  0  0  0  0  0  0  0  0
   41.8350   33.6550   40.0810 C   0  0  0  0  0  0  0  0  0  0  0  0
   41.8560   32.4640   40.8350 C   0  0  0  0  0  0  0  0  0  0  0  0
   40.6610   31.8260   41.0920 C   0  0  0  0  0  0  0  0  0  0  0  0
   39.5310   32.3670   40.6140 N   0  0  0  0  0  0  0  0  0  0  0  0
   39.5210   33.5080   39.8930 C   0  0  0  0  0  0  0  0  0  0  0  0
   40.6750   34.1610   39.6200 N   0  0  0  0  0  0  0  0  0  0  0  0
   42.8010   34.1120   39.9090 H   0  0  0  0  0  0  0  0  0  0  0  0
   42.7930   32.0650   41.2010 H   0  0  0  0  0  0  0  0  0  0  0  0
   38.6030   33.9330   39.5130 H   0  0  0  0  0  0  0  0  0  0  0  0
   36.8360   30.1960   41.3300 C   0  0  0  0  0  0  0  0  0  0  0  0
   37.0970   30.0540   40.2880 H   0  0  0  0  0  0  0  0  0  0  0  0
   36.1980   31.1620   41.0430 O   0  0  0  0  0  0  0  0  0  0  0  0
  1 16  1  0  0  0  0
  1  2  1  0  0  0  0
  2  3  1  0  0  0  0
  2  7  1  0  0  0  0
  3 10  1  0  0  0  0
  3  9  1  0  0  0  0
  4  3  1  0  0  0  0
  4 11  1  0  0  0  0
  5  6  1  0  0  0  0
  5  4  1  0  0  0  0
  6  1  1  0  0  0  0
  6 15  1  1  0  0  0
  8  2  1  0  0  0  0
 12  4  1  0  0  0  0
 13  5  1  0  0  0  0
 14  5  1  0  0  0  0
 16 17  1  0  0  0  0
 18 16  1  0  0  0  0
 19 20  1  0  0  0  0
 19 16  1  0  0  0  0
 21 19  1  0  0  0  0
 22 23  1  0  0  0  0
 23 24  2  0  0  0  0
 23 29  1  0  0  0  0
 24 19  1  0  0  0  0
 25 24  1  0  0  0  0
 26 25  2  0  0  0  0
 27 26  1  0  0  0  0
 27 22  2  0  0  0  0
 28 22  1  0  0  0  0
 30 26  1  0  0  0  0
 31  6  1  0  0  0  0
 32 31  1  0  0  0  0
 33 31  2  0  0  0  0
M  END
>  <minimizedAffinity>
-4.14276266

$$$$

 OpenBabel03252508583D

 33 34  0  0  1  0  0  0  0  0999 V2000
   38.0730   28.2420   41.3110 N   0  0  0  0  0  0  0  0  0  0  0  0
   38.4650   28.7670   42.5490 C   0  0  0  0  0  0  0  0  0  0  0  0
   37.4950   28.6390   43.6800 C   0  0  0  0  0  0  0  0  0  0  0  0
   36.6260   27.4080   43.6300 C   0  0  0  0  0  0  0  0  0  0  0  0
   36.9590   26.5260   42.4710 C   0  0  0  0  0  0  0  0  0  0  0  0
   36.9130   27.4560   41.2330 C   0  0  2  0  0  0  0  0  0  0  0  0
   38.7380   29.8500   42.4440 H   0  0  0  0  0  0  0  0  0  0  0  0
   39.4160   28.2620   42.8580 H   0  0  0  0  0  0  0  0  0  0  0  0
   36.8000   29.5150   43.5950 H   0  0  0  0  0  0  0  0  0  0  0  0
   38.0220   28.7720   44.6330 H   0  0  0  0  0  0  0  0  0  0  0  0
   35.5580   27.6330   43.6240 H   0  0  0  0  0  0  0  0  0  0  0  0
   36.8380   26.8400   44.5700 H   0  0  0  0  0  0  0  0  0  0  0  0
   36.1580   25.7720   42.3420 H   0  0  0  0  0  0  0  0  0  0  0  0
   37.9730   26.0980   42.5400 H   0  0  0  0  0  0  0  0  0  0  0  0
   35.9380   27.9270   41.2890 H   0  0  0  0  0  0  0  0  0  0  0  0
   38.3980   29.0250   40.1490 C   0  0  0  0  0  0  0  0  0  0  0  0
   38.4780   28.3980   39.2470 H   0  0  0  0  0  0  0  0  0  0  0  0
   39.3830   29.4990   40.3200 H   0  0  0  0  0  0  0  0  0  0  0  0
   37.4000   30.1190   39.9420 C   0  0  0  0  0  0  0  0  0  0  0  0
   36.8930   29.9860   38.9910 H   0  0  0  0  0  0  0  0  0  0  0  0
   36.6230   30.2030   40.7280 H   0  0  0  0  0  0  0  0  0  0  0  0
   37.9970   33.8280   39.9380 C   0  0  0  0  0  0  0  0  0  0  0  0
   37.3280   32.5870   39.9230 C   0  0  0  0  0  0  0  0  0  0  0  0
   38.0810   31.4320   39.9530 C   0  0  0  0  0  0  0  0  0  0  0  0
   39.4170   31.5400   39.9950 N   0  0  0  0  0  0  0  0  0  0  0  0
   40.0490   32.7330   40.0090 C   0  0  0  0  0  0  0  0  0  0  0  0
   39.3420   33.8880   39.9810 N   0  0  0  0  0  0  0  0  0  0  0  0
   37.3570   34.7000   39.9140 H   0  0  0  0  0  0  0  0  0  0  0  0
   36.2470   32.5500   39.8890 H   0  0  0  0  0  0  0  0  0  0  0  0
   41.1260   32.8060   40.0430 H   0  0  0  0  0  0  0  0  0  0  0  0
   36.9580   26.4910   40.0930 C   0  0  0  0  0  0  0  0  0  0  0  0
   36.6160   25.4690   40.2080 H   0  0  0  0  0  0  0  0  0  0  0  0
   37.2300   26.2770   38.9520 O   0  0  0  0  0  0  0  0  0  0  0  0
  1  2  1  0  0  0  0
  2  8  1  0  0  0  0
  2  3  1  0  0  0  0
  3 10  1  0  0  0  0
  4  3  1  0  0  0  0
  4 12  1  0  0  0  0
  5 14  1  0  0  0  0
  5  4  1  0  0  0  0
  6 15  1  6  0  0  0
  6  1  1  0  0  0  0
  6  5  1  0  0  0  0
  7  2  1  0  0  0  0
  9  3  1  0  0  0  0
 11  4  1  0  0  0  0
 13  5  1  0  0  0  0
 16 18  1  0  0  0  0
 16  1  1  0  0  0  0
 17 16  1  0  0  0  0
 19 24  1  0  0  0  0
 19 16  1  0  0  0  0
 19 21  1  0  0  0  0
 20 19  1  0  0  0  0
 22 27  1  0  0  0  0
 23 22  2  0  0  0  0
 23 24  1  0  0  0  0
 24 25  2  0  0  0  0
 25 26  1  0  0  0  0
 26 30  1  0  0  0  0
 27 26  2  0  0  0  0
 28 22  1  0  0  0  0
 29 23  1  0  0  0  0
 31 32  1  0  0  0  0
 31  6  1  0  0  0  0
 33 31  2  0  0  0  0
M  END
>  <minimizedAffinity>
-4.12715292

$$$$

 OpenBabel03252508583D

 33 34  0  0  1  0  0  0  0  0999 V2000
   37.9730   27.9070   42.9500 N   0  0  0  0  0  0  0  0  0  0  0  0
   36.9060   27.0000   42.9960 C   0  0  0  0  0  0  0  0  0  0  0  0
   37.0700   25.7180   42.2450 C   0  0  0  0  0  0  0  0  0  0  0  0
   38.4850   25.2050   42.1730 C   0  0  0  0  0  0  0  0  0  0  0  0
   39.4410   26.0690   42.9300 C   0  0  0  0  0  0  0  0  0  0  0  0
   39.1960   27.5020   42.3940 C   0  0  2  0  0  0  0  0  0  0  0  0
   35.9610   27.4920   42.6450 H   0  0  0  0  0  0  0  0  0  0  0  0
   36.7120   26.7440   44.0690 H   0  0  0  0  0  0  0  0  0  0  0  0
   36.7630   25.9340   41.1880 H   0  0  0  0  0  0  0  0  0  0  0  0
   36.3480   24.9790   42.6170 H   0  0  0  0  0  0  0  0  0  0  0  0
   38.8450   25.0690   41.1510 H   0  0  0  0  0  0  0  0  0  0  0  0
   38.4750   24.1950   42.6550 H   0  0  0  0  0  0  0  0  0  0  0  0
   40.4790   25.7930   42.6590 H   0  0  0  0  0  0  0  0  0  0  0  0
   39.2440   26.0720   44.0150 H   0  0  0  0  0  0  0  0  0  0  0  0
   39.2930   27.4040   41.3180 H   0  0  0  0  0  0  0  0  0  0  0  0
   37.6300   29.2960   42.8050 C   0  0  0  0  0  0  0  0  0  0  0  0
   38.4720   29.9520   43.0760 H   0  0  0  0  0  0  0  0  0  0  0  0
   36.7940   29.5160   43.4960 H   0  0  0  0  0  0  0  0  0  0  0  0
   37.1580   29.5910   41.4170 C   0  0  0  0  0  0  0  0  0  0  0  0
   37.5080   28.8220   40.7340 H   0  0  0  0  0  0  0  0  0  0  0  0
   36.0590   29.6700   41.3000 H   0  0  0  0  0  0  0  0  0  0  0  0
   37.4160   32.9400   39.7340 C   0  0  0  0  0  0  0  0  0  0  0  0
   36.9080   31.6880   40.1370 C   0  0  0  0  0  0  0  0  0  0  0  0
   37.6730   30.9060   40.9780 C   0  0  0  0  0  0  0  0  0  0  0  0
   38.8670   31.3710   41.3730 N   0  0  0  0  0  0  0  0  0  0  0  0
   39.3450   32.5710   40.9810 C   0  0  0  0  0  0  0  0  0  0  0  0
   38.6210   33.3660   40.1570 N   0  0  0  0  0  0  0  0  0  0  0  0
   36.7730   33.5110   39.0760 H   0  0  0  0  0  0  0  0  0  0  0  0
   35.9380   31.3540   39.7920 H   0  0  0  0  0  0  0  0  0  0  0  0
   40.3090   32.9340   41.3070 H   0  0  0  0  0  0  0  0  0  0  0  0
   40.3520   28.2660   42.9520 C   0  0  0  0  0  0  0  0  0  0  0  0
   40.7930   28.0020   43.9060 H   0  0  0  0  0  0  0  0  0  0  0  0
   41.1370   29.1560   42.8320 O   0  0  0  0  0  0  0  0  0  0  0  0
  1  2  1  0  0  0  0
  2  8  1  0  0  0  0
  3 10  1  0  0  0  0
  3  2  1  0  0  0  0
  4  3  1  0  0  0  0
  4 12  1  0  0  0  0
  4  5  1  0  0  0  0
  5 14  1  0  0  0  0
  6 15  1  6  0  0  0
  6  5  1  0  0  0  0
  6  1  1  0  0  0  0
  6 31  1  0  0  0  0
  7  2  1  0  0  0  0
  9  3  1  0  0  0  0
 11  4  1  0  0  0  0
 13  5  1  0  0  0  0
 16  1  1  0  0  0  0
 16 17  1  0  0  0  0
 16 18  1  0  0  0  0
 19 16  1  0  0  0  0
 20 19  1  0  0  0  0
 21 19  1  0  0  0  0
 22 23  2  0  0  0  0
 22 27  1  0  0  0  0
 23 24  1  0  0  0  0
 24 25  2  0  0  0  0
 24 19  1  0  0  0  0
 26 30  1  0  0  0  0
 26 25  1  0  0  0  0
 27 26  2  0  0  0  0
 28 22  1  0  0  0  0
 29 23  1  0  0  0  0
 31 32  1  0  0  0  0
 33 31  2  0  0  0  0
M  END
>  <minimizedAffinity>
-4.10323572

$$$$

 OpenBabel03252508583D

 33 34  0  0  1  0  0  0  0  0999 V2000
   39.1000   28.2860   42.6990 N   0  0  0  0  0  0  0  0  0  0  0  0
   40.4500   28.0240   42.9660 C   0  0  0  0  0  0  0  0  0  0  0  0
   40.7660   26.7490   43.6800 C   0  0  0  0  0  0  0  0  0  0  0  0
   39.8280   25.6080   43.3810 C   0  0  0  0  0  0  0  0  0  0  0  0
   38.7890   25.9790   42.3710 C   0  0  0  0  0  0  0  0  0  0  0  0
   38.1470   27.2800   42.9150 C   0  0  2  0  0  0  0  0  0  0  0  0
   40.9040   28.8700   43.5450 H   0  0  0  0  0  0  0  0  0  0  0  0
   41.0040   28.0160   41.9930 H   0  0  0  0  0  0  0  0  0  0  0  0
   40.6540   26.9670   44.7730 H   0  0  0  0  0  0  0  0  0  0  0  0
   41.8260   26.5010   43.5360 H   0  0  0  0  0  0  0  0  0  0  0  0
   39.3440   25.2020   44.2710 H   0  0  0  0  0  0  0  0  0  0  0  0
   40.4570   24.7920   42.9470 H   0  0  0  0  0  0  0  0  0  0  0  0
   37.9970   25.2040   42.3600 H   0  0  0  0  0  0  0  0  0  0  0  0
   39.2200   26.1980   41.3800 H   0  0  0  0  0  0  0  0  0  0  0  0
   37.8500   27.0270   43.9270 H   0  0  0  0  0  0  0  0  0  0  0  0
   38.6580   29.6410   42.8930 C   0  0  0  0  0  0  0  0  0  0  0  0
   38.5420   29.8810   43.9610 H   0  0  0  0  0  0  0  0  0  0  0  0
   37.6670   29.7510   42.4120 H   0  0  0  0  0  0  0  0  0  0  0  0
   39.5880   30.6090   42.2340 C   0  0  0  0  0  0  0  0  0  0  0  0
   40.0990   31.2040   42.9860 H   0  0  0  0  0  0  0  0  0  0  0  0
   40.3610   30.1520   41.5840 H   0  0  0  0  0  0  0  0  0  0  0  0
   36.9480   31.9310   39.9110 C   0  0  0  0  0  0  0  0  0  0  0  0
   37.6570   31.0590   40.7620 C   0  0  0  0  0  0  0  0  0  0  0  0
   38.8300   31.5060   41.3340 C   0  0  0  0  0  0  0  0  0  0  0  0
   39.2440   32.7500   41.0540 N   0  0  0  0  0  0  0  0  0  0  0  0
   38.5580   33.5770   40.2370 C   0  0  0  0  0  0  0  0  0  0  0  0
   37.4030   33.1730   39.6590 N   0  0  0  0  0  0  0  0  0  0  0  0
   36.0350   31.5280   39.4920 H   0  0  0  0  0  0  0  0  0  0  0  0
   37.2830   30.0620   40.9590 H   0  0  0  0  0  0  0  0  0  0  0  0
   38.9040   34.5780   40.0210 H   0  0  0  0  0  0  0  0  0  0  0  0
   36.9440   27.4420   42.0460 C   0  0  0  0  0  0  0  0  0  0  0  0
   35.9480   27.5030   42.4690 H   0  0  0  0  0  0  0  0  0  0  0  0
   36.4880   27.5530   40.9490 O   0  0  0  0  0  0  0  0  0  0  0  0
  1 16  1  0  0  0  0
  1  6  1  0  0  0  0
  1  2  1  0  0  0  0
  2  7  1  0  0  0  0
  2  3  1  0  0  0  0
  3  9  1  0  0  0  0
  4  3  1  0  0  0  0
  4 11  1  0  0  0  0
  5  6  1  0  0  0  0
  5  4  1  0  0  0  0
  6 15  1  1  0  0  0
  8  2  1  0  0  0  0
 10  3  1  0  0  0  0
 12  4  1  0  0  0  0
 13  5  1  0  0  0  0
 14  5  1  0  0  0  0
 16 17  1  0  0  0  0
 18 16  1  0  0  0  0
 19 16  1  0  0  0  0
 19 20  1  0  0  0  0
 21 19  1  0  0  0  0
 22 23  1  0  0  0  0
 23 29  1  0  0  0  0
 23 24  2  0  0  0  0
 24 19  1  0  0  0  0
 25 24  1  0  0  0  0
 26 25  2  0  0  0  0
 27 22  2  0  0  0  0
 27 26  1  0  0  0  0
 28 22  1  0  0  0  0
 30 26  1  0  0  0  0
 31 32  1  0  0  0  0
 31  6  1  0  0  0  0
 33 31  2  0  0  0  0
M  END
>  <minimizedAffinity>
-4.09649658

$$$$
