
 OpenBabel03252502443D

 25 26  0  0  1  0  0  0  0  0999 V2000
   37.7020   31.0430   40.5840 C   0  0  0  0  0  0  0  0  0  0  0  0
   38.3090   31.7330   41.1980 H   0  0  0  0  0  0  0  0  0  0  0  0
   38.3480   30.3470   39.9870 H   0  0  0  0  0  0  0  0  0  0  0  0
   36.9110   31.7930   39.5520 C   0  0  1  0  0  0  0  0  0  0  0  0
   37.2040   33.2570   39.4020 C   0  0  0  0  0  0  0  0  0  0  0  0
   37.5560   32.2970   38.3650 C   0  0  1  0  0  0  0  0  0  0  0  0
   35.8350   31.4480   39.6130 H   0  0  0  0  0  0  0  0  0  0  0  0
   36.2590   33.8770   39.3750 H   0  0  0  0  0  0  0  0  0  0  0  0
   37.8890   33.8030   40.0740 H   0  0  0  0  0  0  0  0  0  0  0  0
   36.7540   32.3570   37.5450 H   0  0  0  0  0  0  0  0  0  0  0  0
   38.6920   32.0190   37.5720 C   0  0  0  0  0  0  0  0  0  0  0  0
   39.3590   31.2070   37.3790 H   0  0  0  0  0  0  0  0  0  0  0  0
   39.6170   32.1050   36.7950 O   0  0  0  0  0  0  0  0  0  0  0  0
   36.6770   30.3040   41.3790 C   0  0  0  0  0  0  0  0  0  0  0  0
   36.0820   30.8400   42.0800 H   0  0  0  0  0  0  0  0  0  0  0  0
   36.1270   29.6680   40.6150 H   0  0  0  0  0  0  0  0  0  0  0  0
   37.1980   26.8960   42.8350 C   0  0  0  0  0  0  0  0  0  0  0  0
   36.5720   27.9620   42.1570 C   0  0  0  0  0  0  0  0  0  0  0  0
   37.2990   29.1140   42.0210 C   0  0  0  0  0  0  0  0  0  0  0  0
   38.5630   29.1930   42.5240 N   0  0  0  0  0  0  0  0  0  0  0  0
   39.1290   28.1760   43.1550 C   0  0  0  0  0  0  0  0  0  0  0  0
   38.4540   27.0310   43.3140 N   0  0  0  0  0  0  0  0  0  0  0  0
   36.7400   25.9390   43.0120 H   0  0  0  0  0  0  0  0  0  0  0  0
   35.5860   27.6920   41.8300 H   0  0  0  0  0  0  0  0  0  0  0  0
   40.1320   28.3920   43.4950 H   0  0  0  0  0  0  0  0  0  0  0  0
  1  2  1  0  0  0  0
  1 14  1  0  0  0  0
  3  1  1  0  0  0  0
  4  7  1  6  0  0  0
  4  1  1  0  0  0  0
  5  4  1  0  0  0  0
  5  9  1  0  0  0  0
  6 10  1  6  0  0  0
  6  5  1  0  0  0  0
  6  4  1  0  0  0  0
  8  5  1  0  0  0  0
 11  6  1  0  0  0  0
 12 11  1  0  0  0  0
 13 11  2  0  0  0  0
 14 19  1  0  0  0  0
 14 15  1  0  0  0  0
 16 14  1  0  0  0  0
 17 23  1  0  0  0  0
 17 22  1  0  0  0  0
 18 17  2  0  0  0  0
 19 18  1  0  0  0  0
 19 20  2  0  0  0  0
 20 21  1  0  0  0  0
 21 22  2  0  0  0  0
 21 25  1  0  0  0  0
 24 18  1  0  0  0  0
M  END
>  <minimizedAffinity>
-4.08351421

$$$$

 OpenBabel03252502443D

 25 26  0  0  1  0  0  0  0  0999 V2000
   35.9650   29.9480   40.0710 C   0  0  0  0  0  0  0  0  0  0  0  0
   35.6380   28.8930   40.0130 H   0  0  0  0  0  0  0  0  0  0  0  0
   35.1800   30.6440   39.6730 H   0  0  0  0  0  0  0  0  0  0  0  0
   37.1570   30.1930   39.1910 C   0  0  1  0  0  0  0  0  0  0  0  0
   36.8840   30.6020   37.7740 C   0  0  0  0  0  0  0  0  0  0  0  0
   37.4670   31.5250   38.7380 C   0  0  1  0  0  0  0  0  0  0  0  0
   37.9180   29.3800   39.3960 H   0  0  0  0  0  0  0  0  0  0  0  0
   37.5020   30.0080   37.0360 H   0  0  0  0  0  0  0  0  0  0  0  0
   35.8690   30.6310   37.3430 H   0  0  0  0  0  0  0  0  0  0  0  0
   38.5990   31.5620   38.5490 H   0  0  0  0  0  0  0  0  0  0  0  0
   37.2440   32.8630   39.1360 C   0  0  0  0  0  0  0  0  0  0  0  0
   37.4860   33.8500   38.8080 H   0  0  0  0  0  0  0  0  0  0  0  0
   36.8820   33.8540   39.7300 O   0  0  0  0  0  0  0  0  0  0  0  0
   36.4170   30.3430   41.4370 C   0  0  0  0  0  0  0  0  0  0  0  0
   36.9920   31.2310   41.5550 H   0  0  0  0  0  0  0  0  0  0  0  0
   35.4900   30.2400   42.0860 H   0  0  0  0  0  0  0  0  0  0  0  0
   38.9390   28.2130   43.2000 C   0  0  0  0  0  0  0  0  0  0  0  0
   38.3300   29.3610   42.6500 C   0  0  0  0  0  0  0  0  0  0  0  0
   37.0890   29.1930   42.0980 C   0  0  0  0  0  0  0  0  0  0  0  0
   36.4980   27.9640   42.0980 N   0  0  0  0  0  0  0  0  0  0  0  0
   37.0900   26.9030   42.6210 C   0  0  0  0  0  0  0  0  0  0  0  0
   38.3050   27.0200   43.1690 N   0  0  0  0  0  0  0  0  0  0  0  0
   39.9110   28.2050   43.6620 H   0  0  0  0  0  0  0  0  0  0  0  0
   38.9540   30.2260   42.7650 H   0  0  0  0  0  0  0  0  0  0  0  0
   36.4960   26.0040   42.5440 H   0  0  0  0  0  0  0  0  0  0  0  0
  1 14  1  0  0  0  0
  2  1  1  0  0  0  0
  3  1  1  0  0  0  0
  4  7  1  1  0  0  0
  4  1  1  0  0  0  0
  5  6  1  0  0  0  0
  5  4  1  0  0  0  0
  6 10  1  6  0  0  0
  6 11  1  0  0  0  0
  6  4  1  0  0  0  0
  8  5  1  0  0  0  0
  9  5  1  0  0  0  0
 11 13  2  0  0  0  0
 12 11  1  0  0  0  0
 14 15  1  0  0  0  0
 14 16  1  0  0  0  0
 14 19  1  0  0  0  0
 17 23  1  0  0  0  0
 18 24  1  0  0  0  0
 18 17  2  0  0  0  0
 19 20  2  0  0  0  0
 19 18  1  0  0  0  0
 20 21  1  0  0  0  0
 21 22  2  0  0  0  0
 22 17  1  0  0  0  0
 25 21  1  0  0  0  0
M  END
>  <minimizedAffinity>
-4.06692648

$$$$

 OpenBabel03252502443D

 25 26  0  0  1  0  0  0  0  0999 V2000
   36.4360   27.9630   40.9410 C   0  0  0  0  0  0  0  0  0  0  0  0
   36.1000   27.0190   40.4740 H   0  0  0  0  0  0  0  0  0  0  0  0
   37.4770   28.2330   40.6200 H   0  0  0  0  0  0  0  0  0  0  0  0
   36.5320   27.8230   42.4320 C   0  0  1  0  0  0  0  0  0  0  0  0
   37.6340   26.9540   42.9650 C   0  0  0  0  0  0  0  0  0  0  0  0
   37.6430   28.4000   43.1480 C   0  0  1  0  0  0  0  0  0  0  0  0
   35.4840   27.7010   42.8430 H   0  0  0  0  0  0  0  0  0  0  0  0
   37.2620   26.2340   43.7530 H   0  0  0  0  0  0  0  0  0  0  0  0
   38.2930   26.3560   42.3130 H   0  0  0  0  0  0  0  0  0  0  0  0
   37.2790   28.6200   44.2150 H   0  0  0  0  0  0  0  0  0  0  0  0
   38.5820   29.4440   42.9920 C   0  0  0  0  0  0  0  0  0  0  0  0
   39.5700   29.6910   43.3120 H   0  0  0  0  0  0  0  0  0  0  0  0
   39.1350   30.4710   42.6660 O   0  0  0  0  0  0  0  0  0  0  0  0
   35.4800   29.0900   40.7290 C   0  0  0  0  0  0  0  0  0  0  0  0
   34.5460   28.8930   40.2580 H   0  0  0  0  0  0  0  0  0  0  0  0
   35.4500   29.6310   41.7270 H   0  0  0  0  0  0  0  0  0  0  0  0
   37.1580   31.2350   38.1620 C   0  0  0  0  0  0  0  0  0  0  0  0
   36.4360   30.1590   38.7190 C   0  0  0  0  0  0  0  0  0  0  0  0
   36.1750   30.2220   40.0610 C   0  0  0  0  0  0  0  0  0  0  0  0
   36.6040   31.2890   40.7940 N   0  0  0  0  0  0  0  0  0  0  0  0
   37.2790   32.2870   40.2480 C   0  0  0  0  0  0  0  0  0  0  0  0
   37.5590   32.2660   38.9390 N   0  0  0  0  0  0  0  0  0  0  0  0
   37.4300   31.3100   37.1240 H   0  0  0  0  0  0  0  0  0  0  0  0
   36.1820   29.4320   37.9710 H   0  0  0  0  0  0  0  0  0  0  0  0
   37.5490   33.0570   40.9570 H   0  0  0  0  0  0  0  0  0  0  0  0
  1  4  1  0  0  0  0
  2  1  1  0  0  0  0
  3  1  1  0  0  0  0
  4  7  1  1  0  0  0
  4  5  1  0  0  0  0
  4  6  1  0  0  0  0
  5  6  1  0  0  0  0
  5  8  1  0  0  0  0
  6 10  1  1  0  0  0
  9  5  1  0  0  0  0
 11  6  1  0  0  0  0
 11 12  1  0  0  0  0
 13 11  2  0  0  0  0
 14  1  1  0  0  0  0
 14 16  1  0  0  0  0
 15 14  1  0  0  0  0
 17 18  2  0  0  0  0
 17 22  1  0  0  0  0
 18 19  1  0  0  0  0
 19 14  1  0  0  0  0
 19 20  2  0  0  0  0
 21 20  1  0  0  0  0
 21 25  1  0  0  0  0
 22 21  2  0  0  0  0
 23 17  1  0  0  0  0
 24 18  1  0  0  0  0
M  END
>  <minimizedAffinity>
-4.00699425

$$$$

 OpenBabel03252502443D

 25 26  0  0  1  0  0  0  0  0999 V2000
   37.1370   26.1410   41.2870 C   0  0  0  0  0  0  0  0  0  0  0  0
   36.3890   26.1790   40.4730 H   0  0  0  0  0  0  0  0  0  0  0  0
   38.1830   26.2060   40.8870 H   0  0  0  0  0  0  0  0  0  0  0  0
   37.0930   24.8200   41.9990 C   0  0  1  0  0  0  0  0  0  0  0  0
   37.6200   23.6280   41.2550 C   0  0  0  0  0  0  0  0  0  0  0  0
   38.3130   24.1750   42.4130 C   0  0  1  0  0  0  0  0  0  0  0  0
   36.0990   24.7420   42.5350 H   0  0  0  0  0  0  0  0  0  0  0  0
   36.9150   22.7460   41.3160 H   0  0  0  0  0  0  0  0  0  0  0  0
   37.9360   23.6730   40.1990 H   0  0  0  0  0  0  0  0  0  0  0  0
   38.0560   23.5170   43.3190 H   0  0  0  0  0  0  0  0  0  0  0  0
   39.6430   24.5240   42.7380 C   0  0  0  0  0  0  0  0  0  0  0  0
   40.2380   25.4030   42.8570 H   0  0  0  0  0  0  0  0  0  0  0  0
   40.8160   24.4830   43.0370 O   0  0  0  0  0  0  0  0  0  0  0  0
   36.8860   27.1540   42.3550 C   0  0  0  0  0  0  0  0  0  0  0  0
   36.1190   26.9710   43.0690 H   0  0  0  0  0  0  0  0  0  0  0  0
   37.9180   27.4040   42.7590 H   0  0  0  0  0  0  0  0  0  0  0  0
   35.6130   30.0190   40.3120 C   0  0  0  0  0  0  0  0  0  0  0  0
   35.6680   28.7430   40.9100 C   0  0  0  0  0  0  0  0  0  0  0  0
   36.7250   28.5010   41.7450 C   0  0  0  0  0  0  0  0  0  0  0  0
   37.6590   29.4680   41.9690 N   0  0  0  0  0  0  0  0  0  0  0  0
   37.5840   30.6580   41.3970 C   0  0  0  0  0  0  0  0  0  0  0  0
   36.5690   30.9380   40.5700 N   0  0  0  0  0  0  0  0  0  0  0  0
   34.8390   30.3380   39.6360 H   0  0  0  0  0  0  0  0  0  0  0  0
   34.8320   28.1370   40.6140 H   0  0  0  0  0  0  0  0  0  0  0  0
   38.3960   31.3150   41.6720 H   0  0  0  0  0  0  0  0  0  0  0  0
  1  4  1  0  0  0  0
  1 14  1  0  0  0  0
  2  1  1  0  0  0  0
  3  1  1  0  0  0  0
  4  6  1  0  0  0  0
  4  7  1  1  0  0  0
  5  8  1  0  0  0  0
  5  4  1  0  0  0  0
  5  6  1  0  0  0  0
  6 11  1  0  0  0  0
  6 10  1  1  0  0  0
  9  5  1  0  0  0  0
 11 12  1  0  0  0  0
 11 13  2  0  0  0  0
 14 16  1  0  0  0  0
 14 15  1  0  0  0  0
 17 22  2  0  0  0  0
 17 18  1  0  0  0  0
 18 19  2  0  0  0  0
 19 20  1  0  0  0  0
 19 14  1  0  0  0  0
 21 25  1  0  0  0  0
 21 20  2  0  0  0  0
 22 21  1  0  0  0  0
 23 17  1  0  0  0  0
 24 18  1  0  0  0  0
M  END
>  <minimizedAffinity>
-3.97133112

$$$$

 OpenBabel03252502443D

 25 26  0  0  1  0  0  0  0  0999 V2000
   37.4620   29.6580   37.8940 C   0  0  0  0  0  0  0  0  0  0  0  0
   37.9810   28.9530   37.2180 H   0  0  0  0  0  0  0  0  0  0  0  0
   37.8860   29.6210   38.9320 H   0  0  0  0  0  0  0  0  0  0  0  0
   36.0210   29.2750   38.0680 C   0  0  1  0  0  0  0  0  0  0  0  0
   35.7390   28.0240   38.8480 C   0  0  0  0  0  0  0  0  0  0  0  0
   35.4020   29.3420   39.3680 C   0  0  1  0  0  0  0  0  0  0  0  0
   35.4900   29.4440   37.0830 H   0  0  0  0  0  0  0  0  0  0  0  0
   34.9910   27.3580   38.3220 H   0  0  0  0  0  0  0  0  0  0  0  0
   36.5340   27.3450   39.2000 H   0  0  0  0  0  0  0  0  0  0  0  0
   34.2790   29.5100   39.1980 H   0  0  0  0  0  0  0  0  0  0  0  0
   35.5670   30.0320   40.5910 C   0  0  0  0  0  0  0  0  0  0  0  0
   35.8100   29.8170   41.6080 H   0  0  0  0  0  0  0  0  0  0  0  0
   35.6320   30.8920   41.4410 O   0  0  0  0  0  0  0  0  0  0  0  0
   37.4200   31.0510   37.3600 C   0  0  0  0  0  0  0  0  0  0  0  0
   37.7780   31.2380   36.3750 H   0  0  0  0  0  0  0  0  0  0  0  0
   36.3750   31.4200   37.6070 H   0  0  0  0  0  0  0  0  0  0  0  0
   37.9340   33.7300   39.9210 C   0  0  0  0  0  0  0  0  0  0  0  0
   37.2660   32.8260   39.0690 C   0  0  0  0  0  0  0  0  0  0  0  0
   38.0520   31.9830   38.3320 C   0  0  0  0  0  0  0  0  0  0  0  0
   39.4100   32.0370   38.4420 N   0  0  0  0  0  0  0  0  0  0  0  0
   40.0120   32.8930   39.2500 C   0  0  0  0  0  0  0  0  0  0  0  0
   39.2840   33.7400   39.9880 N   0  0  0  0  0  0  0  0  0  0  0  0
   37.4380   34.4470   40.5520 H   0  0  0  0  0  0  0  0  0  0  0  0
   36.2010   32.9370   39.1410 H   0  0  0  0  0  0  0  0  0  0  0  0
   41.0900   32.8150   39.2270 H   0  0  0  0  0  0  0  0  0  0  0  0
  1  4  1  0  0  0  0
  1  3  1  0  0  0  0
  2  1  1  0  0  0  0
  4  7  1  6  0  0  0
  4  5  1  0  0  0  0
  4  6  1  0  0  0  0
  5  9  1  0  0  0  0
  5  6  1  0  0  0  0
  6 10  1  6  0  0  0
  6 11  1  0  0  0  0
  8  5  1  0  0  0  0
 11 13  2  0  0  0  0
 11 12  1  0  0  0  0
 14 16  1  0  0  0  0
 14  1  1  0  0  0  0
 14 19  1  0  0  0  0
 15 14  1  0  0  0  0
 17 22  1  0  0  0  0
 17 23  1  0  0  0  0
 18 24  1  0  0  0  0
 18 17  2  0  0  0  0
 19 20  2  0  0  0  0
 19 18  1  0  0  0  0
 20 21  1  0  0  0  0
 21 22  2  0  0  0  0
 25 21  1  0  0  0  0
M  END
>  <minimizedAffinity>
-3.96105814

$$$$

 OpenBabel03252502443D

 25 26  0  0  1  0  0  0  0  0999 V2000
   39.5540   30.8430   42.5240 C   0  0  0  0  0  0  0  0  0  0  0  0
   40.2680   30.8440   43.3670 H   0  0  0  0  0  0  0  0  0  0  0  0
   38.6680   31.4970   42.7340 H   0  0  0  0  0  0  0  0  0  0  0  0
   38.9660   29.4770   42.3170 C   0  0  1  0  0  0  0  0  0  0  0  0
   38.0740   28.9490   43.4010 C   0  0  0  0  0  0  0  0  0  0  0  0
   37.5510   29.3190   42.0930 C   0  0  1  0  0  0  0  0  0  0  0  0
   39.7730   28.8070   41.8890 H   0  0  0  0  0  0  0  0  0  0  0  0
   38.3350   27.8850   43.6840 H   0  0  0  0  0  0  0  0  0  0  0  0
   37.9210   29.4740   44.3600 H   0  0  0  0  0  0  0  0  0  0  0  0
   37.4110   28.3550   41.4850 H   0  0  0  0  0  0  0  0  0  0  0  0
   36.4610   30.0740   41.6040 C   0  0  0  0  0  0  0  0  0  0  0  0
   35.6340   29.9540   40.9380 H   0  0  0  0  0  0  0  0  0  0  0  0
   35.6630   30.9590   41.3890 O   0  0  0  0  0  0  0  0  0  0  0  0
   40.1950   31.1790   41.2180 C   0  0  0  0  0  0  0  0  0  0  0  0
   41.1050   31.7320   41.2160 H   0  0  0  0  0  0  0  0  0  0  0  0
   40.1840   30.2040   40.6350 H   0  0  0  0  0  0  0  0  0  0  0  0
   37.6090   33.4890   39.8120 C   0  0  0  0  0  0  0  0  0  0  0  0
   38.5950   32.9820   40.6830 C   0  0  0  0  0  0  0  0  0  0  0  0
   39.1970   31.8090   40.3140 C   0  0  0  0  0  0  0  0  0  0  0  0
   38.8400   31.1900   39.1530 N   0  0  0  0  0  0  0  0  0  0  0  0
   37.9130   31.6880   38.3510 C   0  0  0  0  0  0  0  0  0  0  0  0
   37.2950   32.8310   38.6740 N   0  0  0  0  0  0  0  0  0  0  0  0
   37.0590   34.3980   39.9830 H   0  0  0  0  0  0  0  0  0  0  0  0
   38.7350   33.6250   41.5310 H   0  0  0  0  0  0  0  0  0  0  0  0
   37.7410   31.0840   37.4720 H   0  0  0  0  0  0  0  0  0  0  0  0
  1  3  1  0  0  0  0
  1  2  1  0  0  0  0
  4  7  1  6  0  0  0
  4  1  1  0  0  0  0
  4  5  1  0  0  0  0
  5  8  1  0  0  0  0
  5  9  1  0  0  0  0
  6 10  1  6  0  0  0
  6  4  1  0  0  0  0
  6  5  1  0  0  0  0
 11  6  1  0  0  0  0
 12 11  1  0  0  0  0
 13 11  2  0  0  0  0
 14  1  1  0  0  0  0
 15 14  1  0  0  0  0
 16 14  1  0  0  0  0
 17 23  1  0  0  0  0
 17 18  1  0  0  0  0
 18 24  1  0  0  0  0
 19 18  2  0  0  0  0
 19 14  1  0  0  0  0
 20 19  1  0  0  0  0
 21 22  1  0  0  0  0
 21 20  2  0  0  0  0
 22 17  2  0  0  0  0
 25 21  1  0  0  0  0
M  END
>  <minimizedAffinity>
-3.9493258

$$$$

 OpenBabel03252502443D

 25 26  0  0  1  0  0  0  0  0999 V2000
   36.6570   27.3060   43.2720 C   0  0  0  0  0  0  0  0  0  0  0  0
   36.1560   26.8250   44.1330 H   0  0  0  0  0  0  0  0  0  0  0  0
   35.9140   27.6700   42.5140 H   0  0  0  0  0  0  0  0  0  0  0  0
   37.5010   26.3180   42.5200 C   0  0  1  0  0  0  0  0  0  0  0  0
   36.8390   25.0390   42.0990 C   0  0  0  0  0  0  0  0  0  0  0  0
   37.2400   26.0480   41.1280 C   0  0  1  0  0  0  0  0  0  0  0  0
   38.5190   26.2770   43.0130 H   0  0  0  0  0  0  0  0  0  0  0  0
   37.4700   24.1340   42.3460 H   0  0  0  0  0  0  0  0  0  0  0  0
   35.8130   24.7670   42.4020 H   0  0  0  0  0  0  0  0  0  0  0  0
   38.2310   25.7090   40.6590 H   0  0  0  0  0  0  0  0  0  0  0  0
   36.6500   26.6860   40.0140 C   0  0  0  0  0  0  0  0  0  0  0  0
   36.2710   26.4300   39.0480 H   0  0  0  0  0  0  0  0  0  0  0  0
   36.1860   27.5090   39.2560 O   0  0  0  0  0  0  0  0  0  0  0  0
   37.6080   28.3810   43.6800 C   0  0  0  0  0  0  0  0  0  0  0  0
   37.4770   28.8570   44.6230 H   0  0  0  0  0  0  0  0  0  0  0  0
   38.6360   27.9520   43.4570 H   0  0  0  0  0  0  0  0  0  0  0  0
   38.9190   31.0540   41.4110 C   0  0  0  0  0  0  0  0  0  0  0  0
   38.9010   30.0610   42.4130 C   0  0  0  0  0  0  0  0  0  0  0  0
   37.7210   29.3920   42.5940 C   0  0  0  0  0  0  0  0  0  0  0  0
   36.6360   29.6920   41.8260 N   0  0  0  0  0  0  0  0  0  0  0  0
   36.6780   30.6280   40.8910 C   0  0  0  0  0  0  0  0  0  0  0  0
   37.8110   31.3090   40.6810 N   0  0  0  0  0  0  0  0  0  0  0  0
   39.7780   31.6530   41.1670 H   0  0  0  0  0  0  0  0  0  0  0  0
   39.8580   29.9720   42.8900 H   0  0  0  0  0  0  0  0  0  0  0  0
   35.7410   30.7490   40.3680 H   0  0  0  0  0  0  0  0  0  0  0  0
  1 14  1  0  0  0  0
  1  2  1  0  0  0  0
  3  1  1  0  0  0  0
  4  7  1  1  0  0  0
  4  1  1  0  0  0  0
  5  8  1  0  0  0  0
  5  9  1  0  0  0  0
  5  4  1  0  0  0  0
  6 10  1  6  0  0  0
  6  5  1  0  0  0  0
  6  4  1  0  0  0  0
 11  6  1  0  0  0  0
 12 11  1  0  0  0  0
 13 11  2  0  0  0  0
 14 15  1  0  0  0  0
 16 14  1  0  0  0  0
 17 18  1  0  0  0  0
 18 19  2  0  0  0  0
 18 24  1  0  0  0  0
 19 14  1  0  0  0  0
 20 19  1  0  0  0  0
 21 20  2  0  0  0  0
 22 21  1  0  0  0  0
 22 17  2  0  0  0  0
 23 17  1  0  0  0  0
 25 21  1  0  0  0  0
M  END
>  <minimizedAffinity>
-3.90783858

$$$$

 OpenBabel03252502443D

 25 26  0  0  1  0  0  0  0  0999 V2000
   36.2040   27.4160   39.3870 C   0  0  0  0  0  0  0  0  0  0  0  0
   35.7350   26.6230   38.7760 H   0  0  0  0  0  0  0  0  0  0  0  0
   35.5070   27.7900   40.1820 H   0  0  0  0  0  0  0  0  0  0  0  0
   36.5030   28.6300   38.5560 C   0  0  1  0  0  0  0  0  0  0  0  0
   35.3280   29.3960   38.0230 C   0  0  0  0  0  0  0  0  0  0  0  0
   36.1970   29.9480   39.0540 C   0  0  1  0  0  0  0  0  0  0  0  0
   37.3610   28.3790   37.8610 H   0  0  0  0  0  0  0  0  0  0  0  0
   35.4440   29.6380   36.9240 H   0  0  0  0  0  0  0  0  0  0  0  0
   34.2870   29.0500   38.1350 H   0  0  0  0  0  0  0  0  0  0  0  0
   36.9240   30.6780   38.5470 H   0  0  0  0  0  0  0  0  0  0  0  0
   36.0220   30.6020   40.2950 C   0  0  0  0  0  0  0  0  0  0  0  0
   36.4000   31.4550   40.8140 H   0  0  0  0  0  0  0  0  0  0  0  0
   35.6480   30.9080   41.4050 O   0  0  0  0  0  0  0  0  0  0  0  0
   37.5250   27.0110   39.9520 C   0  0  0  0  0  0  0  0  0  0  0  0
   37.7840   25.9790   39.9720 H   0  0  0  0  0  0  0  0  0  0  0  0
   38.2710   27.7210   39.4720 H   0  0  0  0  0  0  0  0  0  0  0  0
   37.0150   27.9930   43.5270 C   0  0  0  0  0  0  0  0  0  0  0  0
   36.8240   27.3260   42.2990 C   0  0  0  0  0  0  0  0  0  0  0  0
   37.7070   27.6220   41.2960 C   0  0  0  0  0  0  0  0  0  0  0  0
   38.7120   28.5190   41.5070 N   0  0  0  0  0  0  0  0  0  0  0  0
   38.8700   29.1300   42.6700 C   0  0  0  0  0  0  0  0  0  0  0  0
   38.0280   28.8730   43.6790 N   0  0  0  0  0  0  0  0  0  0  0  0
   36.3930   27.8540   44.3940 H   0  0  0  0  0  0  0  0  0  0  0  0
   35.9890   26.6540   42.3450 H   0  0  0  0  0  0  0  0  0  0  0  0
   39.7090   29.8110   42.6830 H   0  0  0  0  0  0  0  0  0  0  0  0
  1 14  1  0  0  0  0
  1  3  1  0  0  0  0
  2  1  1  0  0  0  0
  4  7  1  6  0  0  0
  4  6  1  0  0  0  0
  4  1  1  0  0  0  0
  5  9  1  0  0  0  0
  5  4  1  0  0  0  0
  5  6  1  0  0  0  0
  6 10  1  6  0  0  0
  6 11  1  0  0  0  0
  8  5  1  0  0  0  0
 11 12  1  0  0  0  0
 11 13  2  0  0  0  0
 14 15  1  0  0  0  0
 14 19  1  0  0  0  0
 16 14  1  0  0  0  0
 17 22  1  0  0  0  0
 17 23  1  0  0  0  0
 18 24  1  0  0  0  0
 18 17  2  0  0  0  0
 19 20  2  0  0  0  0
 19 18  1  0  0  0  0
 20 21  1  0  0  0  0
 21 25  1  0  0  0  0
 21 22  2  0  0  0  0
M  END
>  <minimizedAffinity>
-3.88333631

$$$$

 OpenBabel03252502443D

 25 26  0  0  1  0  0  0  0  0999 V2000
   39.3420   27.7250   42.3930 C   0  0  0  0  0  0  0  0  0  0  0  0
   39.1780   27.7820   41.3010 H   0  0  0  0  0  0  0  0  0  0  0  0
   40.4330   27.6490   42.6420 H   0  0  0  0  0  0  0  0  0  0  0  0
   38.7430   26.4720   42.9620 C   0  0  1  0  0  0  0  0  0  0  0  0
   38.4000   25.3790   41.9920 C   0  0  0  0  0  0  0  0  0  0  0  0
   39.4880   25.2380   42.9520 C   0  0  1  0  0  0  0  0  0  0  0  0
   37.9850   26.7700   43.7490 H   0  0  0  0  0  0  0  0  0  0  0  0
   37.3630   24.9660   42.1690 H   0  0  0  0  0  0  0  0  0  0  0  0
   38.4800   25.5030   40.8990 H   0  0  0  0  0  0  0  0  0  0  0  0
   39.1020   24.6040   43.8280 H   0  0  0  0  0  0  0  0  0  0  0  0
   40.8330   24.8090   42.9160 C   0  0  0  0  0  0  0  0  0  0  0  0
   41.3960   23.9490   42.6230 H   0  0  0  0  0  0  0  0  0  0  0  0
   42.0390   24.7520   43.0170 O   0  0  0  0  0  0  0  0  0  0  0  0
   38.6770   28.8340   43.1400 C   0  0  0  0  0  0  0  0  0  0  0  0
   37.9360   28.5960   43.8650 H   0  0  0  0  0  0  0  0  0  0  0  0
   39.5310   29.5030   43.4760 H   0  0  0  0  0  0  0  0  0  0  0  0
   38.4560   31.7780   40.8400 C   0  0  0  0  0  0  0  0  0  0  0  0
   39.0190   30.8020   41.6890 C   0  0  0  0  0  0  0  0  0  0  0  0
   38.1680   29.8520   42.1830 C   0  0  0  0  0  0  0  0  0  0  0  0
   36.8460   29.8730   41.8480 N   0  0  0  0  0  0  0  0  0  0  0  0
   36.3420   30.7980   41.0490 C   0  0  0  0  0  0  0  0  0  0  0  0
   37.1380   31.7500   40.5450 N   0  0  0  0  0  0  0  0  0  0  0  0
   39.0110   32.5800   40.3870 H   0  0  0  0  0  0  0  0  0  0  0  0
   40.0740   30.9560   41.8130 H   0  0  0  0  0  0  0  0  0  0  0  0
   35.2810   30.6820   40.8780 H   0  0  0  0  0  0  0  0  0  0  0  0
  1  3  1  0  0  0  0
  1  4  1  0  0  0  0
  1 14  1  0  0  0  0
  2  1  1  0  0  0  0
  4  7  1  1  0  0  0
  5  8  1  0  0  0  0
  5  6  1  0  0  0  0
  5  4  1  0  0  0  0
  6  4  1  0  0  0  0
  6 10  1  1  0  0  0
  9  5  1  0  0  0  0
 11  6  1  0  0  0  0
 11 13  2  0  0  0  0
 12 11  1  0  0  0  0
 14 16  1  0  0  0  0
 14 15  1  0  0  0  0
 17 18  1  0  0  0  0
 18 24  1  0  0  0  0
 18 19  2  0  0  0  0
 19 14  1  0  0  0  0
 20 19  1  0  0  0  0
 21 20  2  0  0  0  0
 22 17  2  0  0  0  0
 22 21  1  0  0  0  0
 23 17  1  0  0  0  0
 25 21  1  0  0  0  0
M  END
>  <minimizedAffinity>
-3.79767203

$$$$
