
 OpenBabel03252507533D

 32 34  0  0  1  0  0  0  0  0999 V2000
   46.9240   34.9940   42.0790 C   0  0  2  0  0  0  0  0  0  0  0  0
   46.2980   34.1760   40.9760 C   0  0  0  0  0  0  0  0  0  0  0  0
   47.5080   34.1290   40.0240 C   0  0  0  0  0  0  0  0  0  0  0  0
   48.7090   34.0500   40.9280 C   0  0  1  0  0  0  0  0  0  0  0  0
   48.1830   34.1670   42.3230 C   0  0  0  0  0  0  0  0  0  0  0  0
   47.1420   35.9860   41.6910 H   0  0  0  0  0  0  0  0  0  0  0  0
   46.0580   33.1620   41.3720 H   0  0  0  0  0  0  0  0  0  0  0  0
   45.4310   34.6680   40.5020 H   0  0  0  0  0  0  0  0  0  0  0  0
   47.4550   35.0590   39.4360 H   0  0  0  0  0  0  0  0  0  0  0  0
   47.4170   33.2570   39.3430 H   0  0  0  0  0  0  0  0  0  0  0  0
   49.3690   34.9020   40.7370 H   0  0  0  0  0  0  0  0  0  0  0  0
   48.8700   34.6580   43.0300 H   0  0  0  0  0  0  0  0  0  0  0  0
   47.6800   33.2660   42.7260 H   0  0  0  0  0  0  0  0  0  0  0  0
   44.4340   36.0670   44.7060 C   0  0  0  0  0  0  0  0  0  0  0  0
   45.1640   36.0920   43.5120 C   0  0  0  0  0  0  0  0  0  0  0  0
   46.0830   35.0580   43.3030 C   0  0  0  0  0  0  0  0  0  0  0  0
   46.2340   34.0740   44.2560 N   0  0  0  0  0  0  0  0  0  0  0  0
   45.5010   34.0990   45.3950 C   0  0  0  0  0  0  0  0  0  0  0  0
   44.6120   35.0840   45.6170 N   0  0  0  0  0  0  0  0  0  0  0  0
   43.7260   36.8700   44.8610 H   0  0  0  0  0  0  0  0  0  0  0  0
   45.0590   36.8480   42.7630 H   0  0  0  0  0  0  0  0  0  0  0  0
   45.6890   33.2830   46.0860 H   0  0  0  0  0  0  0  0  0  0  0  0
   49.4520   32.7510   40.8590 C   0  0  2  0  0  0  0  0  0  0  0  0
   49.3310   31.8240   41.9580 C   0  0  0  0  0  0  0  0  0  0  0  0
   50.6630   32.4580   41.5910 C   0  0  1  0  0  0  0  0  0  0  0  0
   49.4210   32.3340   39.8320 H   0  0  0  0  0  0  0  0  0  0  0  0
   49.2290   30.7240   41.6870 H   0  0  0  0  0  0  0  0  0  0  0  0
   49.2320   31.9090   43.0260 H   0  0  0  0  0  0  0  0  0  0  0  0
   51.1110   33.2650   42.1640 H   0  0  0  0  0  0  0  0  0  0  0  0
   51.6900   31.5190   41.0360 C   0  0  0  0  0  0  0  0  0  0  0  0
   52.0230   30.6050   41.5560 H   0  0  0  0  0  0  0  0  0  0  0  0
   52.2640   31.6670   39.9530 O   0  0  0  0  0  0  0  0  0  0  0  0
  1  6  1  6  0  0  0
  1  5  1  0  0  0  0
  1 16  1  0  0  0  0
  2  7  1  0  0  0  0
  2  1  1  0  0  0  0
  3  4  1  0  0  0  0
  3  2  1  0  0  0  0
  4 11  1  6  0  0  0
  4  5  1  0  0  0  0
  5 13  1  0  0  0  0
  5 12  1  0  0  0  0
  8  2  1  0  0  0  0
  9  3  1  0  0  0  0
 10  3  1  0  0  0  0
 14 20  1  0  0  0  0
 14 19  1  0  0  0  0
 15 14  2  0  0  0  0
 16 15  1  0  0  0  0
 16 17  2  0  0  0  0
 17 18  1  0  0  0  0
 18 19  2  0  0  0  0
 18 22  1  0  0  0  0
 21 15  1  0  0  0  0
 23 26  1  6  0  0  0
 23  4  1  0  0  0  0
 23 25  1  0  0  0  0
 23 24  1  0  0  0  0
 24 28  1  0  0  0  0
 25 24  1  0  0  0  0
 25 29  1  1  0  0  0
 27 24  1  0  0  0  0
 30 31  1  0  0  0  0
 30 25  1  0  0  0  0
 32 30  2  0  0  0  0
M  END
>  <minimizedAffinity>
-4.75653267

>  <minimizedRMSD>
0.344338179

$$$$
