
 OpenBabel03242512393D

 28 30  0  0  0  0  0  0  0  0999 V2000
   36.5000   27.9980   42.2150 C   0  0  0  0  0  0  0  0  0  0  0  0
   36.2570   28.0760   40.8370 C   0  0  0  0  0  0  0  0  0  0  0  0
   36.5320   26.9750   40.0660 C   0  0  0  0  0  0  0  0  0  0  0  0
   37.0360   25.7830   40.5460 C   0  0  0  0  0  0  0  0  0  0  0  0
   37.3710   24.6040   39.9930 N   0  0  0  0  0  0  0  0  0  0  0  0
   37.8150   23.7740   40.9340 C   0  0  0  0  0  0  0  0  0  0  0  0
   37.7660   24.4440   42.1530 C   0  0  0  0  0  0  0  0  0  0  0  0
   37.2730   25.7210   41.9210 C   0  0  0  0  0  0  0  0  0  0  0  0
   37.0090   26.8030   42.7220 C   0  0  0  0  0  0  0  0  0  0  0  0
   36.2810   28.8720   42.8230 H   0  0  0  0  0  0  0  0  0  0  0  0
   36.3750   26.9400   38.9740 H   0  0  0  0  0  0  0  0  0  0  0  0
   37.2980   24.3600   38.9670 H   0  0  0  0  0  0  0  0  0  0  0  0
   38.1510   22.7510   40.7410 H   0  0  0  0  0  0  0  0  0  0  0  0
   38.0600   24.0400   43.1120 H   0  0  0  0  0  0  0  0  0  0  0  0
   37.1950   26.7480   43.7870 H   0  0  0  0  0  0  0  0  0  0  0  0
   35.7150   29.2780   40.1850 C   0  0  0  0  0  0  0  0  0  0  0  0
   34.4550   29.2710   40.1140 O   0  0  0  0  0  0  0  0  0  0  0  0
   36.5910   30.3060   39.7060 C   0  0  0  0  0  0  0  0  0  0  0  0
   36.6790   30.4160   38.3110 C   0  0  0  0  0  0  0  0  0  0  0  0
   37.5440   31.4300   37.8390 C   0  0  0  0  0  0  0  0  0  0  0  0
   38.2110   32.2060   38.7360 N   0  0  0  0  0  0  0  0  0  0  0  0
   38.0750   32.0400   40.0700 C   0  0  0  0  0  0  0  0  0  0  0  0
   37.2550   31.0790   40.5470 N   0  0  0  0  0  0  0  0  0  0  0  0
   36.1500   29.8000   37.6240 H   0  0  0  0  0  0  0  0  0  0  0  0
   37.6720   31.5840   36.7940 H   0  0  0  0  0  0  0  0  0  0  0  0
   38.8250   32.9130   40.9660 C   0  0  0  0  0  0  0  0  0  0  0  0
   39.4100   32.5040   41.7790 H   0  0  0  0  0  0  0  0  0  0  0  0
   38.7500   34.1610   40.7350 O   0  0  0  0  0  0  0  0  0  0  0  0
  1  9  1  0  0  0  0
  1 10  1  0  0  0  0
  2  1  2  0  0  0  0
  3  4  2  0  0  0  0
  3  2  1  0  0  0  0
  4  8  1  0  0  0  0
  5  4  1  0  0  0  0
  5  6  1  0  0  0  0
  6  7  2  0  0  0  0
  7 14  1  0  0  0  0
  8  7  1  0  0  0  0
  8  9  2  0  0  0  0
  9 15  1  0  0  0  0
 11  3  1  0  0  0  0
 12  5  1  0  0  0  0
 13  6  1  0  0  0  0
 16  2  1  0  0  0  0
 17 16  2  0  0  0  0
 18 16  1  0  0  0  0
 18 23  1  0  0  0  0
 19 18  2  0  0  0  0
 20 19  1  0  0  0  0
 20 21  2  0  0  0  0
 21 22  1  0  0  0  0
 22 23  2  0  0  0  0
 22 26  1  0  0  0  0
 24 19  1  0  0  0  0
 25 20  1  0  0  0  0
 26 27  1  0  0  0  0
 28 26  2  0  0  0  0
M  END
>  <minimizedAffinity>
-5.31223679

$$$$

 OpenBabel03242512393D

 28 30  0  0  0  0  0  0  0  0999 V2000
   35.8180   28.9070   41.0060 C   0  0  0  0  0  0  0  0  0  0  0  0
   36.8690   28.6080   41.8840 C   0  0  0  0  0  0  0  0  0  0  0  0
   37.8900   29.5150   42.0070 C   0  0  0  0  0  0  0  0  0  0  0  0
   37.9650   30.7140   41.3260 C   0  0  0  0  0  0  0  0  0  0  0  0
   38.8450   31.7300   41.2900 N   0  0  0  0  0  0  0  0  0  0  0  0
   38.4210   32.6640   40.4420 C   0  0  0  0  0  0  0  0  0  0  0  0
   37.2120   32.2340   39.9030 C   0  0  0  0  0  0  0  0  0  0  0  0
   36.9110   30.9970   40.4560 C   0  0  0  0  0  0  0  0  0  0  0  0
   35.8730   30.1120   40.3080 C   0  0  0  0  0  0  0  0  0  0  0  0
   35.0100   28.1850   40.9110 H   0  0  0  0  0  0  0  0  0  0  0  0
   38.7600   29.3690   42.6710 H   0  0  0  0  0  0  0  0  0  0  0  0
   39.7410   31.7910   41.8470 H   0  0  0  0  0  0  0  0  0  0  0  0
   38.9590   33.5930   40.2340 H   0  0  0  0  0  0  0  0  0  0  0  0
   36.6130   32.7710   39.1800 H   0  0  0  0  0  0  0  0  0  0  0  0
   35.0590   30.3380   39.6310 H   0  0  0  0  0  0  0  0  0  0  0  0
   36.9210   27.3720   42.6810 C   0  0  0  0  0  0  0  0  0  0  0  0
   36.1460   27.3990   43.6780 O   0  0  0  0  0  0  0  0  0  0  0  0
   37.7860   26.2950   42.3030 C   0  0  0  0  0  0  0  0  0  0  0  0
   37.2330   25.3680   41.4100 C   0  0  0  0  0  0  0  0  0  0  0  0
   38.0870   24.3040   41.0380 C   0  0  0  0  0  0  0  0  0  0  0  0
   39.3450   24.2510   41.5530 N   0  0  0  0  0  0  0  0  0  0  0  0
   39.8100   25.1840   42.4120 C   0  0  0  0  0  0  0  0  0  0  0  0
   39.0140   26.2100   42.7830 N   0  0  0  0  0  0  0  0  0  0  0  0
   36.2460   25.4250   41.0170 H   0  0  0  0  0  0  0  0  0  0  0  0
   37.7490   23.5530   40.3630 H   0  0  0  0  0  0  0  0  0  0  0  0
   41.1720   25.0550   42.9190 C   0  0  0  0  0  0  0  0  0  0  0  0
   41.3620   24.9550   43.9790 H   0  0  0  0  0  0  0  0  0  0  0  0
   42.1020   25.0660   42.0530 O   0  0  0  0  0  0  0  0  0  0  0  0
  1  2  1  0  0  0  0
  2  3  2  0  0  0  0
  2 16  1  0  0  0  0
  3 11  1  0  0  0  0
  4  3  1  0  0  0  0
  5  4  1  0  0  0  0
  5 12  1  0  0  0  0
  6  5  1  0  0  0  0
  7  6  2  0  0  0  0
  7  8  1  0  0  0  0
  8  4  2  0  0  0  0
  9  8  1  0  0  0  0
  9  1  2  0  0  0  0
 10  1  1  0  0  0  0
 13  6  1  0  0  0  0
 14  7  1  0  0  0  0
 15  9  1  0  0  0  0
 16 17  2  0  0  0  0
 18 16  1  0  0  0  0
 18 23  1  0  0  0  0
 19 18  2  0  0  0  0
 20 19  1  0  0  0  0
 20 21  2  0  0  0  0
 21 22  1  0  0  0  0
 22 23  2  0  0  0  0
 22 26  1  0  0  0  0
 24 19  1  0  0  0  0
 25 20  1  0  0  0  0
 26 27  1  0  0  0  0
 28 26  2  0  0  0  0
M  END
>  <minimizedAffinity>
-5.23709965

$$$$

 OpenBabel03242512393D

 28 30  0  0  0  0  0  0  0  0999 V2000
   35.8300   28.8670   41.0530 C   0  0  0  0  0  0  0  0  0  0  0  0
   36.9100   28.6760   41.9270 C   0  0  0  0  0  0  0  0  0  0  0  0
   37.8830   29.6400   41.9770 C   0  0  0  0  0  0  0  0  0  0  0  0
   37.8850   30.7980   41.2250 C   0  0  0  0  0  0  0  0  0  0  0  0
   38.7100   31.8540   41.1120 N   0  0  0  0  0  0  0  0  0  0  0  0
   38.2240   32.7130   40.2190 C   0  0  0  0  0  0  0  0  0  0  0  0
   37.0310   32.1900   39.7290 C   0  0  0  0  0  0  0  0  0  0  0  0
   36.8040   30.9740   40.3590 C   0  0  0  0  0  0  0  0  0  0  0  0
   35.8120   30.0300   40.2840 C   0  0  0  0  0  0  0  0  0  0  0  0
   35.0600   28.1010   41.0170 H   0  0  0  0  0  0  0  0  0  0  0  0
   38.7710   29.5780   42.6310 H   0  0  0  0  0  0  0  0  0  0  0  0
   39.6110   31.9940   41.6470 H   0  0  0  0  0  0  0  0  0  0  0  0
   38.7090   33.6540   39.9450 H   0  0  0  0  0  0  0  0  0  0  0  0
   36.3930   32.6510   38.9870 H   0  0  0  0  0  0  0  0  0  0  0  0
   34.9760   30.1720   39.6100 H   0  0  0  0  0  0  0  0  0  0  0  0
   37.0390   27.4950   42.7950 C   0  0  0  0  0  0  0  0  0  0  0  0
   36.1400   27.4360   43.6800 O   0  0  0  0  0  0  0  0  0  0  0  0
   38.1010   26.5540   42.5950 C   0  0  0  0  0  0  0  0  0  0  0  0
   39.0930   26.5520   43.5840 C   0  0  0  0  0  0  0  0  0  0  0  0
   40.1410   25.6240   43.3860 C   0  0  0  0  0  0  0  0  0  0  0  0
   40.1200   24.8230   42.2860 N   0  0  0  0  0  0  0  0  0  0  0  0
   39.1280   24.8830   41.3720 C   0  0  0  0  0  0  0  0  0  0  0  0
   38.1150   25.7600   41.5390 N   0  0  0  0  0  0  0  0  0  0  0  0
   39.0940   27.1860   44.4380 H   0  0  0  0  0  0  0  0  0  0  0  0
   40.9380   25.5540   44.0880 H   0  0  0  0  0  0  0  0  0  0  0  0
   39.1790   23.9890   40.2200 C   0  0  0  0  0  0  0  0  0  0  0  0
   39.6730   24.2900   39.3060 H   0  0  0  0  0  0  0  0  0  0  0  0
   38.6180   22.8560   40.3560 O   0  0  0  0  0  0  0  0  0  0  0  0
  1  2  1  0  0  0  0
  2  3  2  0  0  0  0
  2 16  1  0  0  0  0
  3 11  1  0  0  0  0
  4  3  1  0  0  0  0
  5  4  1  0  0  0  0
  5 12  1  0  0  0  0
  6  5  1  0  0  0  0
  7  6  2  0  0  0  0
  7  8  1  0  0  0  0
  8  4  2  0  0  0  0
  9  8  1  0  0  0  0
  9  1  2  0  0  0  0
 10  1  1  0  0  0  0
 13  6  1  0  0  0  0
 14  7  1  0  0  0  0
 15  9  1  0  0  0  0
 16 17  2  0  0  0  0
 18 16  1  0  0  0  0
 18 19  1  0  0  0  0
 19 24  1  0  0  0  0
 20 19  2  0  0  0  0
 20 25  1  0  0  0  0
 21 20  1  0  0  0  0
 22 23  1  0  0  0  0
 22 21  2  0  0  0  0
 23 18  2  0  0  0  0
 26 28  2  0  0  0  0
 26 22  1  0  0  0  0
 27 26  1  0  0  0  0
M  END
>  <minimizedAffinity>
-5.20513582

$$$$

 OpenBabel03242512393D

 28 30  0  0  0  0  0  0  0  0999 V2000
   34.6610   29.0670   39.2650 C   0  0  0  0  0  0  0  0  0  0  0  0
   35.9330   29.5760   39.5640 C   0  0  0  0  0  0  0  0  0  0  0  0
   36.7810   29.8570   38.5240 C   0  0  0  0  0  0  0  0  0  0  0  0
   36.4770   29.6760   37.1890 C   0  0  0  0  0  0  0  0  0  0  0  0
   37.1320   29.8780   36.0320 N   0  0  0  0  0  0  0  0  0  0  0  0
   36.3570   29.5300   35.0080 C   0  0  0  0  0  0  0  0  0  0  0  0
   35.1450   29.0810   35.5230 C   0  0  0  0  0  0  0  0  0  0  0  0
   35.2080   29.1690   36.9070 C   0  0  0  0  0  0  0  0  0  0  0  0
   34.3330   28.8770   37.9240 C   0  0  0  0  0  0  0  0  0  0  0  0
   33.9920   28.8460   40.0920 H   0  0  0  0  0  0  0  0  0  0  0  0
   37.8000   30.2580   38.6590 H   0  0  0  0  0  0  0  0  0  0  0  0
   38.1150   30.2560   35.9360 H   0  0  0  0  0  0  0  0  0  0  0  0
   36.6580   29.5990   33.9590 H   0  0  0  0  0  0  0  0  0  0  0  0
   34.3020   28.7270   34.9450 H   0  0  0  0  0  0  0  0  0  0  0  0
   33.3510   28.4840   37.6980 H   0  0  0  0  0  0  0  0  0  0  0  0
   36.3930   29.8270   40.9390 C   0  0  0  0  0  0  0  0  0  0  0  0
   36.1120   30.9890   41.3450 O   0  0  0  0  0  0  0  0  0  0  0  0
   37.0810   28.8090   41.6760 C   0  0  0  0  0  0  0  0  0  0  0  0
   38.1220   29.2650   42.4960 C   0  0  0  0  0  0  0  0  0  0  0  0
   38.8020   28.2600   43.2220 C   0  0  0  0  0  0  0  0  0  0  0  0
   38.4160   26.9630   43.0830 N   0  0  0  0  0  0  0  0  0  0  0  0
   37.4010   26.5990   42.2700 C   0  0  0  0  0  0  0  0  0  0  0  0
   36.7350   27.5390   41.5660 N   0  0  0  0  0  0  0  0  0  0  0  0
   38.4110   30.2840   42.5930 H   0  0  0  0  0  0  0  0  0  0  0  0
   39.6070   28.5160   43.8710 H   0  0  0  0  0  0  0  0  0  0  0  0
   37.0490   25.1860   42.1760 C   0  0  0  0  0  0  0  0  0  0  0  0
   36.0160   24.8770   42.0830 H   0  0  0  0  0  0  0  0  0  0  0  0
   38.0120   24.3580   42.2100 O   0  0  0  0  0  0  0  0  0  0  0  0
  1  2  1  0  0  0  0
  1 10  1  0  0  0  0
  2 16  1  0  0  0  0
  3 11  1  0  0  0  0
  3  2  2  0  0  0  0
  4  3  1  0  0  0  0
  5  4  1  0  0  0  0
  6  7  2  0  0  0  0
  6  5  1  0  0  0  0
  7  8  1  0  0  0  0
  8  4  2  0  0  0  0
  8  9  1  0  0  0  0
  9  1  2  0  0  0  0
 12  5  1  0  0  0  0
 13  6  1  0  0  0  0
 14  7  1  0  0  0  0
 15  9  1  0  0  0  0
 16 17  2  0  0  0  0
 16 18  1  0  0  0  0
 18 19  1  0  0  0  0
 19 24  1  0  0  0  0
 19 20  2  0  0  0  0
 20 25  1  0  0  0  0
 21 20  1  0  0  0  0
 22 21  2  0  0  0  0
 23 18  2  0  0  0  0
 23 22  1  0  0  0  0
 26 28  2  0  0  0  0
 26 22  1  0  0  0  0
 27 26  1  0  0  0  0
M  END
>  <minimizedAffinity>
-5.19894981

$$$$

 OpenBabel03242512393D

 28 30  0  0  0  0  0  0  0  0999 V2000
   36.6310   26.6450   40.2120 C   0  0  0  0  0  0  0  0  0  0  0  0
   37.0450   26.5560   41.5480 C   0  0  0  0  0  0  0  0  0  0  0  0
   37.5380   25.3580   41.9960 C   0  0  0  0  0  0  0  0  0  0  0  0
   37.6600   24.2180   41.2260 C   0  0  0  0  0  0  0  0  0  0  0  0
   38.1040   22.9690   41.4460 N   0  0  0  0  0  0  0  0  0  0  0  0
   38.0010   22.2500   40.3300 C   0  0  0  0  0  0  0  0  0  0  0  0
   37.4650   23.0700   39.3420 C   0  0  0  0  0  0  0  0  0  0  0  0
   37.2440   24.3230   39.8980 C   0  0  0  0  0  0  0  0  0  0  0  0
   36.7460   25.5070   39.4160 C   0  0  0  0  0  0  0  0  0  0  0  0
   36.2410   27.5970   39.8600 H   0  0  0  0  0  0  0  0  0  0  0  0
   37.8870   25.1890   43.0300 H   0  0  0  0  0  0  0  0  0  0  0  0
   38.4820   22.5990   42.3610 H   0  0  0  0  0  0  0  0  0  0  0  0
   38.2970   21.2000   40.2460 H   0  0  0  0  0  0  0  0  0  0  0  0
   37.2580   22.7810   38.3200 H   0  0  0  0  0  0  0  0  0  0  0  0
   36.4250   25.5810   38.3850 H   0  0  0  0  0  0  0  0  0  0  0  0
   36.9800   27.6890   42.4850 C   0  0  0  0  0  0  0  0  0  0  0  0
   36.2800   27.4410   43.5060 O   0  0  0  0  0  0  0  0  0  0  0  0
   37.6660   28.9130   42.1990 C   0  0  0  0  0  0  0  0  0  0  0  0
   38.9140   29.0600   42.8200 C   0  0  0  0  0  0  0  0  0  0  0  0
   39.5900   30.2690   42.5380 C   0  0  0  0  0  0  0  0  0  0  0  0
   39.0070   31.1800   41.7120 N   0  0  0  0  0  0  0  0  0  0  0  0
   37.7980   30.9680   41.1490 C   0  0  0  0  0  0  0  0  0  0  0  0
   37.1320   29.8210   41.4020 N   0  0  0  0  0  0  0  0  0  0  0  0
   39.3550   28.3370   43.4640 H   0  0  0  0  0  0  0  0  0  0  0  0
   40.5440   30.4650   42.9680 H   0  0  0  0  0  0  0  0  0  0  0  0
   37.2410   31.9950   40.2750 C   0  0  0  0  0  0  0  0  0  0  0  0
   36.3910   31.7820   39.6410 H   0  0  0  0  0  0  0  0  0  0  0  0
   37.8080   33.1320   40.3040 O   0  0  0  0  0  0  0  0  0  0  0  0
  1  2  1  0  0  0  0
  2  3  2  0  0  0  0
  2 16  1  0  0  0  0
  3 11  1  0  0  0  0
  4  5  1  0  0  0  0
  4  3  1  0  0  0  0
  5 12  1  0  0  0  0
  6  5  1  0  0  0  0
  7  8  1  0  0  0  0
  7  6  2  0  0  0  0
  8  4  2  0  0  0  0
  9  8  1  0  0  0  0
  9  1  2  0  0  0  0
 10  1  1  0  0  0  0
 13  6  1  0  0  0  0
 14  7  1  0  0  0  0
 15  9  1  0  0  0  0
 16 17  2  0  0  0  0
 18 16  1  0  0  0  0
 18 19  1  0  0  0  0
 19 24  1  0  0  0  0
 20 19  2  0  0  0  0
 20 25  1  0  0  0  0
 21 20  1  0  0  0  0
 22 23  1  0  0  0  0
 22 21  2  0  0  0  0
 23 18  2  0  0  0  0
 26 28  2  0  0  0  0
 26 22  1  0  0  0  0
 27 26  1  0  0  0  0
M  END
>  <minimizedAffinity>
-5.15908194

$$$$

 OpenBabel03242512393D

 28 30  0  0  0  0  0  0  0  0999 V2000
   37.2620   28.2900   39.1440 C   0  0  0  0  0  0  0  0  0  0  0  0
   37.2740   29.6200   39.5880 C   0  0  0  0  0  0  0  0  0  0  0  0
   37.1590   29.8560   40.9330 C   0  0  0  0  0  0  0  0  0  0  0  0
   37.0300   28.8760   41.8980 C   0  0  0  0  0  0  0  0  0  0  0  0
   36.9070   28.8740   43.2360 N   0  0  0  0  0  0  0  0  0  0  0  0
   36.8170   27.6220   43.6800 C   0  0  0  0  0  0  0  0  0  0  0  0
   36.8840   26.7740   42.5780 C   0  0  0  0  0  0  0  0  0  0  0  0
   37.0190   27.5570   41.4400 C   0  0  0  0  0  0  0  0  0  0  0  0
   37.1330   27.2840   40.1000 C   0  0  0  0  0  0  0  0  0  0  0  0
   37.3530   28.1070   38.0760 H   0  0  0  0  0  0  0  0  0  0  0  0
   37.1580   30.8670   41.3780 H   0  0  0  0  0  0  0  0  0  0  0  0
   36.8850   29.7300   43.8560 H   0  0  0  0  0  0  0  0  0  0  0  0
   36.7100   27.3500   44.7330 H   0  0  0  0  0  0  0  0  0  0  0  0
   36.8390   25.6930   42.6050 H   0  0  0  0  0  0  0  0  0  0  0  0
   37.1230   26.2590   39.7530 H   0  0  0  0  0  0  0  0  0  0  0  0
   37.4120   30.7670   38.6780 C   0  0  0  0  0  0  0  0  0  0  0  0
   36.8350   30.5860   37.5690 O   0  0  0  0  0  0  0  0  0  0  0  0
   38.1410   31.9340   39.0780 C   0  0  0  0  0  0  0  0  0  0  0  0
   37.3560   33.0100   39.5160 C   0  0  0  0  0  0  0  0  0  0  0  0
   38.0760   34.1600   39.9100 C   0  0  0  0  0  0  0  0  0  0  0  0
   39.4350   34.1510   39.8410 N   0  0  0  0  0  0  0  0  0  0  0  0
   40.1250   33.0740   39.4060 C   0  0  0  0  0  0  0  0  0  0  0  0
   39.4610   31.9620   39.0250 N   0  0  0  0  0  0  0  0  0  0  0  0
   36.2940   33.0000   39.5630 H   0  0  0  0  0  0  0  0  0  0  0  0
   37.5610   35.0260   40.2570 H   0  0  0  0  0  0  0  0  0  0  0  0
   41.5810   33.1440   39.3620 C   0  0  0  0  0  0  0  0  0  0  0  0
   42.1860   32.5350   40.0210 H   0  0  0  0  0  0  0  0  0  0  0  0
   42.0840   33.9490   38.5180 O   0  0  0  0  0  0  0  0  0  0  0  0
  1  2  2  0  0  0  0
  1  9  1  0  0  0  0
  2  3  1  0  0  0  0
  3 11  1  0  0  0  0
  3  4  2  0  0  0  0
  4  5  1  0  0  0  0
  5  6  1  0  0  0  0
  5 12  1  0  0  0  0
  6 13  1  0  0  0  0
  7 14  1  0  0  0  0
  7  6  2  0  0  0  0
  8  4  1  0  0  0  0
  8  7  1  0  0  0  0
  9  8  2  0  0  0  0
 10  1  1  0  0  0  0
 15  9  1  0  0  0  0
 16 18  1  0  0  0  0
 16  2  1  0  0  0  0
 17 16  2  0  0  0  0
 18 19  1  0  0  0  0
 19 24  1  0  0  0  0
 19 20  2  0  0  0  0
 20 25  1  0  0  0  0
 21 20  1  0  0  0  0
 22 21  2  0  0  0  0
 23 18  2  0  0  0  0
 23 22  1  0  0  0  0
 26 22  1  0  0  0  0
 26 27  1  0  0  0  0
 28 26  2  0  0  0  0
M  END
>  <minimizedAffinity>
-5.03363037

$$$$

 OpenBabel03242512393D

 28 30  0  0  0  0  0  0  0  0999 V2000
   36.4960   29.6210   38.1330 C   0  0  0  0  0  0  0  0  0  0  0  0
   35.6800   29.5260   39.2690 C   0  0  0  0  0  0  0  0  0  0  0  0
   34.3680   29.1650   39.0970 C   0  0  0  0  0  0  0  0  0  0  0  0
   33.7810   28.8850   37.8790 C   0  0  0  0  0  0  0  0  0  0  0  0
   32.5490   28.5210   37.4820 N   0  0  0  0  0  0  0  0  0  0  0  0
   32.5250   28.3760   36.1590 C   0  0  0  0  0  0  0  0  0  0  0  0
   33.7990   28.6590   35.6760 C   0  0  0  0  0  0  0  0  0  0  0  0
   34.6060   28.9850   36.7580 C   0  0  0  0  0  0  0  0  0  0  0  0
   35.9240   29.3430   36.8930 C   0  0  0  0  0  0  0  0  0  0  0  0
   37.5350   29.9080   38.2730 H   0  0  0  0  0  0  0  0  0  0  0  0
   33.6480   29.0650   39.9280 H   0  0  0  0  0  0  0  0  0  0  0  0
   31.7160   28.3680   38.1140 H   0  0  0  0  0  0  0  0  0  0  0  0
   31.6390   28.0830   35.5890 H   0  0  0  0  0  0  0  0  0  0  0  0
   34.1060   28.6310   34.6390 H   0  0  0  0  0  0  0  0  0  0  0  0
   36.5580   29.4190   36.0190 H   0  0  0  0  0  0  0  0  0  0  0  0
   36.1680   29.7880   40.6310 C   0  0  0  0  0  0  0  0  0  0  0  0
   36.0740   31.0040   40.9610 O   0  0  0  0  0  0  0  0  0  0  0  0
   36.6840   28.7240   41.4400 C   0  0  0  0  0  0  0  0  0  0  0  0
   37.2380   29.1170   42.6650 C   0  0  0  0  0  0  0  0  0  0  0  0
   37.7470   28.0660   43.4620 C   0  0  0  0  0  0  0  0  0  0  0  0
   37.6690   26.7870   43.0040 N   0  0  0  0  0  0  0  0  0  0  0  0
   37.1190   26.4840   41.8080 C   0  0  0  0  0  0  0  0  0  0  0  0
   36.6260   27.4690   41.0290 N   0  0  0  0  0  0  0  0  0  0  0  0
   37.2910   30.1220   43.0070 H   0  0  0  0  0  0  0  0  0  0  0  0
   38.1880   28.2730   44.4090 H   0  0  0  0  0  0  0  0  0  0  0  0
   37.0740   25.0870   41.3900 C   0  0  0  0  0  0  0  0  0  0  0  0
   36.6310   24.8050   40.4450 H   0  0  0  0  0  0  0  0  0  0  0  0
   37.5780   24.2390   42.1910 O   0  0  0  0  0  0  0  0  0  0  0  0
  1 10  1  0  0  0  0
  1  2  1  0  0  0  0
  2 16  1  0  0  0  0
  3  2  2  0  0  0  0
  3 11  1  0  0  0  0
  4  3  1  0  0  0  0
  5  4  1  0  0  0  0
  5 12  1  0  0  0  0
  6  5  1  0  0  0  0
  7  6  2  0  0  0  0
  7  8  1  0  0  0  0
  8  9  1  0  0  0  0
  8  4  2  0  0  0  0
  9  1  2  0  0  0  0
 13  6  1  0  0  0  0
 14  7  1  0  0  0  0
 15  9  1  0  0  0  0
 16 17  2  0  0  0  0
 16 18  1  0  0  0  0
 18 19  1  0  0  0  0
 19 24  1  0  0  0  0
 19 20  2  0  0  0  0
 20 25  1  0  0  0  0
 21 20  1  0  0  0  0
 22 21  2  0  0  0  0
 23 18  2  0  0  0  0
 23 22  1  0  0  0  0
 26 22  1  0  0  0  0
 26 28  2  0  0  0  0
 27 26  1  0  0  0  0
M  END
>  <minimizedAffinity>
-5.01151848

$$$$

 OpenBabel03242512393D

 28 30  0  0  0  0  0  0  0  0999 V2000
   36.7570   28.2330   43.0530 C   0  0  0  0  0  0  0  0  0  0  0  0
   37.1890   28.7120   41.8080 C   0  0  0  0  0  0  0  0  0  0  0  0
   37.5220   27.7990   40.8410 C   0  0  0  0  0  0  0  0  0  0  0  0
   37.4660   26.4290   40.9980 C   0  0  0  0  0  0  0  0  0  0  0  0
   37.7350   25.3720   40.2110 N   0  0  0  0  0  0  0  0  0  0  0  0
   37.5010   24.2430   40.8760 C   0  0  0  0  0  0  0  0  0  0  0  0
   37.0610   24.5820   42.1520 C   0  0  0  0  0  0  0  0  0  0  0  0
   37.0340   25.9670   42.2430 C   0  0  0  0  0  0  0  0  0  0  0  0
   36.6920   26.8530   43.2330 C   0  0  0  0  0  0  0  0  0  0  0  0
   36.4940   28.9600   43.8170 H   0  0  0  0  0  0  0  0  0  0  0  0
   37.8740   28.0780   39.8320 H   0  0  0  0  0  0  0  0  0  0  0  0
   38.0800   25.4170   39.2130 H   0  0  0  0  0  0  0  0  0  0  0  0
   37.6430   23.2430   40.4570 H   0  0  0  0  0  0  0  0  0  0  0  0
   36.7870   23.8870   42.9350 H   0  0  0  0  0  0  0  0  0  0  0  0
   36.3580   26.4880   44.1960 H   0  0  0  0  0  0  0  0  0  0  0  0
   37.2940   30.1460   41.4930 C   0  0  0  0  0  0  0  0  0  0  0  0
   36.1680   30.7010   41.3600 O   0  0  0  0  0  0  0  0  0  0  0  0
   38.5750   30.7740   41.3660 C   0  0  0  0  0  0  0  0  0  0  0  0
   39.4630   30.5430   42.4250 C   0  0  0  0  0  0  0  0  0  0  0  0
   40.7270   31.1640   42.2980 C   0  0  0  0  0  0  0  0  0  0  0  0
   40.9890   31.9200   41.1970 N   0  0  0  0  0  0  0  0  0  0  0  0
   40.0800   32.0980   40.2150 C   0  0  0  0  0  0  0  0  0  0  0  0
   38.8660   31.5150   40.3110 N   0  0  0  0  0  0  0  0  0  0  0  0
   39.2410   29.9490   43.2780 H   0  0  0  0  0  0  0  0  0  0  0  0
   41.4640   31.0430   43.0570 H   0  0  0  0  0  0  0  0  0  0  0  0
   40.4400   32.9230   39.0670 C   0  0  0  0  0  0  0  0  0  0  0  0
   40.5450   32.4870   38.0820 H   0  0  0  0  0  0  0  0  0  0  0  0
   40.6180   34.1610   39.2920 O   0  0  0  0  0  0  0  0  0  0  0  0
  1  9  1  0  0  0  0
  1 10  1  0  0  0  0
  2  1  2  0  0  0  0
  3  4  2  0  0  0  0
  3  2  1  0  0  0  0
  4  8  1  0  0  0  0
  5  6  1  0  0  0  0
  5  4  1  0  0  0  0
  6  7  2  0  0  0  0
  7  8  1  0  0  0  0
  7 14  1  0  0  0  0
  8  9  2  0  0  0  0
  9 15  1  0  0  0  0
 11  3  1  0  0  0  0
 12  5  1  0  0  0  0
 13  6  1  0  0  0  0
 16  2  1  0  0  0  0
 17 16  2  0  0  0  0
 18 16  1  0  0  0  0
 18 19  1  0  0  0  0
 19 24  1  0  0  0  0
 20 19  2  0  0  0  0
 20 25  1  0  0  0  0
 21 20  1  0  0  0  0
 22 23  1  0  0  0  0
 22 21  2  0  0  0  0
 23 18  2  0  0  0  0
 26 28  2  0  0  0  0
 26 22  1  0  0  0  0
 27 26  1  0  0  0  0
M  END
>  <minimizedAffinity>
-4.96807575

$$$$

 OpenBabel03242512393D

 28 30  0  0  0  0  0  0  0  0999 V2000
   36.5500   27.9740   42.2320 C   0  0  0  0  0  0  0  0  0  0  0  0
   36.3350   28.0440   40.8480 C   0  0  0  0  0  0  0  0  0  0  0  0
   36.5780   26.9230   40.0970 C   0  0  0  0  0  0  0  0  0  0  0  0
   37.0240   25.7170   40.6010 C   0  0  0  0  0  0  0  0  0  0  0  0
   37.3210   24.5190   40.0690 N   0  0  0  0  0  0  0  0  0  0  0  0
   37.7130   23.6840   41.0290 C   0  0  0  0  0  0  0  0  0  0  0  0
   37.6690   24.3720   42.2380 C   0  0  0  0  0  0  0  0  0  0  0  0
   37.2330   25.6650   41.9810 C   0  0  0  0  0  0  0  0  0  0  0  0
   36.9990   26.7670   42.7630 C   0  0  0  0  0  0  0  0  0  0  0  0
   36.3550   28.8650   42.8240 H   0  0  0  0  0  0  0  0  0  0  0  0
   36.4410   26.8800   39.0030 H   0  0  0  0  0  0  0  0  0  0  0  0
   37.2570   24.2640   39.0460 H   0  0  0  0  0  0  0  0  0  0  0  0
   38.0100   22.6460   40.8550 H   0  0  0  0  0  0  0  0  0  0  0  0
   37.9290   23.9690   43.2070 H   0  0  0  0  0  0  0  0  0  0  0  0
   37.1640   26.7190   43.8320 H   0  0  0  0  0  0  0  0  0  0  0  0
   35.8550   29.2590   40.1710 C   0  0  0  0  0  0  0  0  0  0  0  0
   35.9540   30.2920   40.8900 O   0  0  0  0  0  0  0  0  0  0  0  0
   35.3430   29.1960   38.8350 C   0  0  0  0  0  0  0  0  0  0  0  0
   33.9730   28.9200   38.7310 C   0  0  0  0  0  0  0  0  0  0  0  0
   33.4690   28.8570   37.4120 C   0  0  0  0  0  0  0  0  0  0  0  0
   34.3150   29.0610   36.3660 N   0  0  0  0  0  0  0  0  0  0  0  0
   35.6280   29.3220   36.5450 C   0  0  0  0  0  0  0  0  0  0  0  0
   36.1350   29.3880   37.7940 N   0  0  0  0  0  0  0  0  0  0  0  0
   33.3260   28.7630   39.5600 H   0  0  0  0  0  0  0  0  0  0  0  0
   32.4380   28.6520   37.2380 H   0  0  0  0  0  0  0  0  0  0  0  0
   36.4690   29.5290   35.3710 C   0  0  0  0  0  0  0  0  0  0  0  0
   36.4360   30.4610   34.8220 H   0  0  0  0  0  0  0  0  0  0  0  0
   37.2280   28.5640   35.0400 O   0  0  0  0  0  0  0  0  0  0  0  0
  1  9  1  0  0  0  0
  1 10  1  0  0  0  0
  2  1  2  0  0  0  0
  3  4  2  0  0  0  0
  3  2  1  0  0  0  0
  4  8  1  0  0  0  0
  5  4  1  0  0  0  0
  5  6  1  0  0  0  0
  6  7  2  0  0  0  0
  7 14  1  0  0  0  0
  8  7  1  0  0  0  0
  8  9  2  0  0  0  0
  9 15  1  0  0  0  0
 11  3  1  0  0  0  0
 12  5  1  0  0  0  0
 13  6  1  0  0  0  0
 16  2  1  0  0  0  0
 16 17  2  0  0  0  0
 18 16  1  0  0  0  0
 19 18  1  0  0  0  0
 19 24  1  0  0  0  0
 20 19  2  0  0  0  0
 21 22  2  0  0  0  0
 21 20  1  0  0  0  0
 22 23  1  0  0  0  0
 23 18  2  0  0  0  0
 25 20  1  0  0  0  0
 26 22  1  0  0  0  0
 27 26  1  0  0  0  0
 28 26  2  0  0  0  0
M  END
>  <minimizedAffinity>
-4.94109249

$$$$
