
 OpenBabel03252507533D

 32 34  0  0  1  0  0  0  0  0999 V2000
   46.9260   34.9940   42.0790 C   0  0  2  0  0  0  0  0  0  0  0  0
   46.3000   34.1770   40.9760 C   0  0  0  0  0  0  0  0  0  0  0  0
   47.5110   34.1300   40.0250 C   0  0  0  0  0  0  0  0  0  0  0  0
   48.7110   34.0510   40.9290 C   0  0  1  0  0  0  0  0  0  0  0  0
   48.1850   34.1670   42.3240 C   0  0  0  0  0  0  0  0  0  0  0  0
   47.1440   35.9860   41.6930 H   0  0  0  0  0  0  0  0  0  0  0  0
   46.0600   33.1630   41.3710 H   0  0  0  0  0  0  0  0  0  0  0  0
   45.4330   34.6690   40.5010 H   0  0  0  0  0  0  0  0  0  0  0  0
   47.4570   35.0610   39.4360 H   0  0  0  0  0  0  0  0  0  0  0  0
   47.4190   33.2580   39.3430 H   0  0  0  0  0  0  0  0  0  0  0  0
   49.3720   34.9020   40.7380 H   0  0  0  0  0  0  0  0  0  0  0  0
   48.8710   34.6580   43.0310 H   0  0  0  0  0  0  0  0  0  0  0  0
   47.6820   33.2660   42.7260 H   0  0  0  0  0  0  0  0  0  0  0  0
   44.4340   36.0660   44.7050 C   0  0  0  0  0  0  0  0  0  0  0  0
   45.1640   36.0910   43.5120 C   0  0  0  0  0  0  0  0  0  0  0  0
   46.0840   35.0580   43.3030 C   0  0  0  0  0  0  0  0  0  0  0  0
   46.2360   34.0740   44.2560 N   0  0  0  0  0  0  0  0  0  0  0  0
   45.5020   34.0980   45.3950 C   0  0  0  0  0  0  0  0  0  0  0  0
   44.6120   35.0830   45.6170 N   0  0  0  0  0  0  0  0  0  0  0  0
   43.7250   36.8680   44.8610 H   0  0  0  0  0  0  0  0  0  0  0  0
   45.0590   36.8470   42.7630 H   0  0  0  0  0  0  0  0  0  0  0  0
   45.6900   33.2820   46.0860 H   0  0  0  0  0  0  0  0  0  0  0  0
   49.4540   32.7510   40.8600 C   0  0  2  0  0  0  0  0  0  0  0  0
   49.3340   31.8240   41.9590 C   0  0  0  0  0  0  0  0  0  0  0  0
   50.6650   32.4580   41.5900 C   0  0  1  0  0  0  0  0  0  0  0  0
   49.4220   32.3340   39.8330 H   0  0  0  0  0  0  0  0  0  0  0  0
   49.2310   30.7240   41.6870 H   0  0  0  0  0  0  0  0  0  0  0  0
   49.2360   31.9100   43.0260 H   0  0  0  0  0  0  0  0  0  0  0  0
   51.1140   33.2660   42.1630 H   0  0  0  0  0  0  0  0  0  0  0  0
   51.6910   31.5200   41.0340 C   0  0  0  0  0  0  0  0  0  0  0  0
   52.0300   30.6090   41.5570 H   0  0  0  0  0  0  0  0  0  0  0  0
   52.2620   31.6650   39.9480 O   0  0  0  0  0  0  0  0  0  0  0  0
  1  6  1  6  0  0  0
  1  5  1  0  0  0  0
  1 16  1  0  0  0  0
  2  7  1  0  0  0  0
  2  1  1  0  0  0  0
  3  4  1  0  0  0  0
  3  2  1  0  0  0  0
  4 11  1  6  0  0  0
  4  5  1  0  0  0  0
  5 13  1  0  0  0  0
  5 12  1  0  0  0  0
  8  2  1  0  0  0  0
  9  3  1  0  0  0  0
 10  3  1  0  0  0  0
 14 20  1  0  0  0  0
 14 19  1  0  0  0  0
 15 14  2  0  0  0  0
 16 15  1  0  0  0  0
 16 17  2  0  0  0  0
 17 18  1  0  0  0  0
 18 19  2  0  0  0  0
 18 22  1  0  0  0  0
 21 15  1  0  0  0  0
 23 26  1  6  0  0  0
 23  4  1  0  0  0  0
 23 25  1  0  0  0  0
 23 24  1  0  0  0  0
 24 28  1  0  0  0  0
 25 24  1  0  0  0  0
 25 29  1  1  0  0  0
 27 24  1  0  0  0  0
 30 31  1  0  0  0  0
 30 25  1  0  0  0  0
 32 30  2  0  0  0  0
M  END
>  <minimizedAffinity>
-4.75663519

>  <minimizedRMSD>
0.336130232

$$$$
