
 OpenBabel03242517443D

 23 24  0  0  0  0  0  0  0  0999 V2000
   36.5790   30.5650   39.3600 C   0  0  0  0  0  0  0  0  0  0  0  0
   36.1960   29.5540   38.5190 C   0  0  0  0  0  0  0  0  0  0  0  0
   36.5390   29.6270   37.1890 C   0  0  0  0  0  0  0  0  0  0  0  0
   37.2510   30.6770   36.6680 C   0  0  0  0  0  0  0  0  0  0  0  0
   37.6330   31.6910   37.5150 C   0  0  0  0  0  0  0  0  0  0  0  0
   37.2990   31.6400   38.8670 C   0  0  0  0  0  0  0  0  0  0  0  0
   35.6390   28.7660   39.0100 H   0  0  0  0  0  0  0  0  0  0  0  0
   36.1880   28.7710   36.6010 H   0  0  0  0  0  0  0  0  0  0  0  0
   37.4460   30.5960   35.6080 H   0  0  0  0  0  0  0  0  0  0  0  0
   38.1890   32.4990   37.0830 H   0  0  0  0  0  0  0  0  0  0  0  0
   37.7660   32.7880   39.6730 C   0  0  0  0  0  0  0  0  0  0  0  0
   38.5900   32.6060   40.3590 H   0  0  0  0  0  0  0  0  0  0  0  0
   37.2690   33.9350   39.6080 O   0  0  0  0  0  0  0  0  0  0  0  0
   36.2550   30.6950   41.1110 S   0  0  0  0  0  0  0  0  0  0  0  0
   36.5690   28.1150   42.0360 C   0  0  0  0  0  0  0  0  0  0  0  0
   37.1500   29.3930   41.9640 C   0  0  0  0  0  0  0  0  0  0  0  0
   38.3960   29.6090   42.5550 C   0  0  0  0  0  0  0  0  0  0  0  0
   38.9710   28.5430   43.1710 N   0  0  0  0  0  0  0  0  0  0  0  0
   38.3970   27.3420   43.2240 C   0  0  0  0  0  0  0  0  0  0  0  0
   37.2000   27.0910   42.6680 N   0  0  0  0  0  0  0  0  0  0  0  0
   35.6070   27.8780   41.6000 H   0  0  0  0  0  0  0  0  0  0  0  0
   38.7930   30.6010   42.4720 H   0  0  0  0  0  0  0  0  0  0  0  0
   39.0610   26.6560   43.7740 H   0  0  0  0  0  0  0  0  0  0  0  0
  1 14  1  0  0  0  0
  2  7  1  0  0  0  0
  2  1  2  0  0  0  0
  3  2  1  0  0  0  0
  4  3  2  0  0  0  0
  4  5  1  0  0  0  0
  5  6  2  0  0  0  0
  6  1  1  0  0  0  0
  6 11  1  0  0  0  0
  8  3  1  0  0  0  0
  9  4  1  0  0  0  0
 10  5  1  0  0  0  0
 11 12  1  0  0  0  0
 13 11  2  0  0  0  0
 14 16  1  0  0  0  0
 15 20  1  0  0  0  0
 16 15  2  0  0  0  0
 16 17  1  0  0  0  0
 17 18  2  0  0  0  0
 18 19  1  0  0  0  0
 19 23  1  0  0  0  0
 20 19  2  0  0  0  0
 21 15  1  0  0  0  0
 22 17  1  0  0  0  0
M  END
>  <minimizedAffinity>
-4.42866755

$$$$

 OpenBabel03242517443D

 23 24  0  0  0  0  0  0  0  0999 V2000
   37.3480   30.0430   41.5590 C   0  0  0  0  0  0  0  0  0  0  0  0
   38.4110   29.9330   42.4150 C   0  0  0  0  0  0  0  0  0  0  0  0
   38.5750   28.7690   43.1300 C   0  0  0  0  0  0  0  0  0  0  0  0
   37.7100   27.7100   43.0210 C   0  0  0  0  0  0  0  0  0  0  0  0
   36.6440   27.8230   42.1610 C   0  0  0  0  0  0  0  0  0  0  0  0
   36.4560   28.9910   41.4240 C   0  0  0  0  0  0  0  0  0  0  0  0
   39.0420   30.8120   42.4410 H   0  0  0  0  0  0  0  0  0  0  0  0
   39.4530   28.7810   43.7860 H   0  0  0  0  0  0  0  0  0  0  0  0
   37.9680   26.8650   43.6440 H   0  0  0  0  0  0  0  0  0  0  0  0
   35.9840   26.9810   42.0940 H   0  0  0  0  0  0  0  0  0  0  0  0
   35.2750   28.9920   40.5360 C   0  0  0  0  0  0  0  0  0  0  0  0
   34.3890   29.5130   40.8930 H   0  0  0  0  0  0  0  0  0  0  0  0
   35.2420   28.4320   39.4170 O   0  0  0  0  0  0  0  0  0  0  0  0
   36.9270   31.4400   40.5310 S   0  0  0  0  0  0  0  0  0  0  0  0
   38.7890   33.4690   40.7060 C   0  0  0  0  0  0  0  0  0  0  0  0
   38.4390   32.2780   40.0450 C   0  0  0  0  0  0  0  0  0  0  0  0
   39.2710   31.7880   39.0370 C   0  0  0  0  0  0  0  0  0  0  0  0
   40.3870   32.5140   38.7620 N   0  0  0  0  0  0  0  0  0  0  0  0
   40.6950   33.6390   39.4050 C   0  0  0  0  0  0  0  0  0  0  0  0
   39.9220   34.1450   40.3800 N   0  0  0  0  0  0  0  0  0  0  0  0
   38.1910   33.9040   41.4950 H   0  0  0  0  0  0  0  0  0  0  0  0
   38.9570   30.8780   38.5660 H   0  0  0  0  0  0  0  0  0  0  0  0
   41.6400   34.0310   38.9990 H   0  0  0  0  0  0  0  0  0  0  0  0
  1  2  1  0  0  0  0
  2  7  1  0  0  0  0
  2  3  2  0  0  0  0
  3  8  1  0  0  0  0
  4  3  1  0  0  0  0
  4  9  1  0  0  0  0
  5  4  2  0  0  0  0
  6  1  2  0  0  0  0
  6  5  1  0  0  0  0
 10  5  1  0  0  0  0
 11 12  1  0  0  0  0
 11  6  1  0  0  0  0
 13 11  2  0  0  0  0
 14  1  1  0  0  0  0
 15 21  1  0  0  0  0
 16 14  1  0  0  0  0
 16 15  2  0  0  0  0
 17 16  1  0  0  0  0
 18 17  2  0  0  0  0
 18 19  1  0  0  0  0
 19 20  2  0  0  0  0
 20 15  1  0  0  0  0
 22 17  1  0  0  0  0
 23 19  1  0  0  0  0
M  END
>  <minimizedAffinity>
-4.30932856

$$$$

 OpenBabel03242517443D

 23 24  0  0  0  0  0  0  0  0999 V2000
   37.0520   29.2540   41.9080 C   0  0  0  0  0  0  0  0  0  0  0  0
   36.3880   28.0890   42.1880 C   0  0  0  0  0  0  0  0  0  0  0  0
   37.0490   27.0900   42.8640 C   0  0  0  0  0  0  0  0  0  0  0  0
   38.3540   27.2140   43.2710 C   0  0  0  0  0  0  0  0  0  0  0  0
   39.0170   28.3840   42.9880 C   0  0  0  0  0  0  0  0  0  0  0  0
   38.3700   29.4120   42.3050 C   0  0  0  0  0  0  0  0  0  0  0  0
   35.3660   28.0740   41.8330 H   0  0  0  0  0  0  0  0  0  0  0  0
   36.4330   26.2010   43.0390 H   0  0  0  0  0  0  0  0  0  0  0  0
   38.7380   26.3480   43.7910 H   0  0  0  0  0  0  0  0  0  0  0  0
   40.0350   28.4550   43.3170 H   0  0  0  0  0  0  0  0  0  0  0  0
   39.1890   30.6180   42.0600 C   0  0  0  0  0  0  0  0  0  0  0  0
   39.1590   31.0390   41.0580 H   0  0  0  0  0  0  0  0  0  0  0  0
   39.9000   31.1670   42.9320 O   0  0  0  0  0  0  0  0  0  0  0  0
   36.4130   30.6830   41.0500 S   0  0  0  0  0  0  0  0  0  0  0  0
   37.3690   31.3920   38.5610 C   0  0  0  0  0  0  0  0  0  0  0  0
   36.6270   30.4420   39.2830 C   0  0  0  0  0  0  0  0  0  0  0  0
   36.0830   29.3470   38.6090 C   0  0  0  0  0  0  0  0  0  0  0  0
   36.3150   29.2770   37.2730 N   0  0  0  0  0  0  0  0  0  0  0  0
   37.0230   30.1930   36.6130 C   0  0  0  0  0  0  0  0  0  0  0  0
   37.5640   31.2600   37.2230 N   0  0  0  0  0  0  0  0  0  0  0  0
   37.8190   32.2630   39.0190 H   0  0  0  0  0  0  0  0  0  0  0  0
   35.5260   28.6530   39.2080 H   0  0  0  0  0  0  0  0  0  0  0  0
   37.0660   29.9090   35.5500 H   0  0  0  0  0  0  0  0  0  0  0  0
  1  2  2  0  0  0  0
  1  6  1  0  0  0  0
  2  3  1  0  0  0  0
  3  8  1  0  0  0  0
  3  4  2  0  0  0  0
  4  9  1  0  0  0  0
  5  4  1  0  0  0  0
  5 10  1  0  0  0  0
  6  5  2  0  0  0  0
  7  2  1  0  0  0  0
 11  6  1  0  0  0  0
 11 13  2  0  0  0  0
 12 11  1  0  0  0  0
 14  1  1  0  0  0  0
 15 21  1  0  0  0  0
 15 16  1  0  0  0  0
 16 14  1  0  0  0  0
 17 22  1  0  0  0  0
 17 16  2  0  0  0  0
 18 17  1  0  0  0  0
 19 20  1  0  0  0  0
 19 18  2  0  0  0  0
 20 15  2  0  0  0  0
 23 19  1  0  0  0  0
M  END
>  <minimizedAffinity>
-4.30767488

$$$$

 OpenBabel03242517443D

 23 24  0  0  0  0  0  0  0  0999 V2000
   38.1780   28.7450   41.3360 C   0  0  0  0  0  0  0  0  0  0  0  0
   39.0380   28.5720   42.3880 C   0  0  0  0  0  0  0  0  0  0  0  0
   38.5760   27.9700   43.5360 C   0  0  0  0  0  0  0  0  0  0  0  0
   37.2820   27.5360   43.6700 C   0  0  0  0  0  0  0  0  0  0  0  0
   36.4210   27.7110   42.6130 C   0  0  0  0  0  0  0  0  0  0  0  0
   36.8640   28.3170   41.4380 C   0  0  0  0  0  0  0  0  0  0  0  0
   40.0370   28.9420   42.1990 H   0  0  0  0  0  0  0  0  0  0  0  0
   39.3400   27.8780   44.3170 H   0  0  0  0  0  0  0  0  0  0  0  0
   37.0660   27.0830   44.6280 H   0  0  0  0  0  0  0  0  0  0  0  0
   35.4160   27.3620   42.7440 H   0  0  0  0  0  0  0  0  0  0  0  0
   35.8460   28.4490   40.3760 C   0  0  0  0  0  0  0  0  0  0  0  0
   35.9290   27.7750   39.5260 H   0  0  0  0  0  0  0  0  0  0  0  0
   34.9110   29.2810   40.4040 O   0  0  0  0  0  0  0  0  0  0  0  0
   38.5390   29.4920   39.7560 S   0  0  0  0  0  0  0  0  0  0  0  0
   37.3410   31.8990   39.1380 C   0  0  0  0  0  0  0  0  0  0  0  0
   38.3430   31.2710   39.8970 C   0  0  0  0  0  0  0  0  0  0  0  0
   39.1510   32.0450   40.7330 C   0  0  0  0  0  0  0  0  0  0  0  0
   38.9030   33.3810   40.7520 N   0  0  0  0  0  0  0  0  0  0  0  0
   37.9460   33.9500   40.0210 C   0  0  0  0  0  0  0  0  0  0  0  0
   37.1470   33.2420   39.2060 N   0  0  0  0  0  0  0  0  0  0  0  0
   36.6810   31.3610   38.4710 H   0  0  0  0  0  0  0  0  0  0  0  0
   39.8990   31.5160   41.2890 H   0  0  0  0  0  0  0  0  0  0  0  0
   37.9500   35.0340   40.2150 H   0  0  0  0  0  0  0  0  0  0  0  0
  1  6  2  0  0  0  0
  1  2  1  0  0  0  0
  2  3  2  0  0  0  0
  3  4  1  0  0  0  0
  3  8  1  0  0  0  0
  4  9  1  0  0  0  0
  5 10  1  0  0  0  0
  5  4  2  0  0  0  0
  6  5  1  0  0  0  0
  7  2  1  0  0  0  0
 11 13  2  0  0  0  0
 11  6  1  0  0  0  0
 12 11  1  0  0  0  0
 14 16  1  0  0  0  0
 14  1  1  0  0  0  0
 15 20  2  0  0  0  0
 15 16  1  0  0  0  0
 16 17  2  0  0  0  0
 17 18  1  0  0  0  0
 17 22  1  0  0  0  0
 19 23  1  0  0  0  0
 19 18  2  0  0  0  0
 20 19  1  0  0  0  0
 21 15  1  0  0  0  0
M  END
>  <minimizedAffinity>
-4.30465841

$$$$

 OpenBabel03242517443D

 23 24  0  0  0  0  0  0  0  0999 V2000
   35.7240   29.8750   39.6680 C   0  0  0  0  0  0  0  0  0  0  0  0
   34.5570   29.1680   39.5520 C   0  0  0  0  0  0  0  0  0  0  0  0
   34.1690   28.7190   38.3110 C   0  0  0  0  0  0  0  0  0  0  0  0
   34.9080   28.9530   37.1800 C   0  0  0  0  0  0  0  0  0  0  0  0
   36.0790   29.6640   37.2990 C   0  0  0  0  0  0  0  0  0  0  0  0
   36.4950   30.1290   38.5450 C   0  0  0  0  0  0  0  0  0  0  0  0
   34.0370   29.0290   40.4920 H   0  0  0  0  0  0  0  0  0  0  0  0
   33.2240   28.1650   38.3250 H   0  0  0  0  0  0  0  0  0  0  0  0
   34.4770   28.5390   36.2790 H   0  0  0  0  0  0  0  0  0  0  0  0
   36.6370   29.8320   36.3990 H   0  0  0  0  0  0  0  0  0  0  0  0
   37.7680   30.8790   38.5440 C   0  0  0  0  0  0  0  0  0  0  0  0
   38.6250   30.3970   39.0090 H   0  0  0  0  0  0  0  0  0  0  0  0
   37.9060   32.0190   38.0440 O   0  0  0  0  0  0  0  0  0  0  0  0
   36.4320   30.5570   41.1590 S   0  0  0  0  0  0  0  0  0  0  0  0
   38.6070   29.4600   42.4530 C   0  0  0  0  0  0  0  0  0  0  0  0
   37.2770   29.2480   42.0510 C   0  0  0  0  0  0  0  0  0  0  0  0
   36.6590   28.0340   42.3550 C   0  0  0  0  0  0  0  0  0  0  0  0
   37.4040   27.1240   43.0350 N   0  0  0  0  0  0  0  0  0  0  0  0
   38.6640   27.3510   43.4030 C   0  0  0  0  0  0  0  0  0  0  0  0
   39.2960   28.5050   43.1310 N   0  0  0  0  0  0  0  0  0  0  0  0
   39.1470   30.3760   42.2500 H   0  0  0  0  0  0  0  0  0  0  0  0
   35.6440   27.9250   42.0250 H   0  0  0  0  0  0  0  0  0  0  0  0
   39.0430   26.4650   43.9360 H   0  0  0  0  0  0  0  0  0  0  0  0
  1 14  1  0  0  0  0
  2  1  1  0  0  0  0
  2  7  1  0  0  0  0
  3  8  1  0  0  0  0
  3  2  2  0  0  0  0
  4  5  2  0  0  0  0
  4  3  1  0  0  0  0
  5  6  1  0  0  0  0
  6  1  2  0  0  0  0
  9  4  1  0  0  0  0
 10  5  1  0  0  0  0
 11  6  1  0  0  0  0
 11 12  1  0  0  0  0
 13 11  2  0  0  0  0
 14 16  1  0  0  0  0
 15 20  1  0  0  0  0
 16 17  1  0  0  0  0
 16 15  2  0  0  0  0
 17 18  2  0  0  0  0
 18 19  1  0  0  0  0
 19 23  1  0  0  0  0
 20 19  2  0  0  0  0
 21 15  1  0  0  0  0
 22 17  1  0  0  0  0
M  END
>  <minimizedAffinity>
-4.22318459

$$$$

 OpenBabel03242517443D

 23 24  0  0  0  0  0  0  0  0999 V2000
   36.6130   28.6320   41.8090 C   0  0  0  0  0  0  0  0  0  0  0  0
   35.6080   28.7050   40.8810 C   0  0  0  0  0  0  0  0  0  0  0  0
   35.5360   29.8070   40.0610 C   0  0  0  0  0  0  0  0  0  0  0  0
   36.4340   30.8410   40.1360 C   0  0  0  0  0  0  0  0  0  0  0  0
   37.4410   30.7650   41.0680 C   0  0  0  0  0  0  0  0  0  0  0  0
   37.5370   29.6590   41.9110 C   0  0  0  0  0  0  0  0  0  0  0  0
   34.9440   27.8500   40.8900 H   0  0  0  0  0  0  0  0  0  0  0  0
   34.6980   29.7710   39.3550 H   0  0  0  0  0  0  0  0  0  0  0  0
   36.2510   31.6370   39.4270 H   0  0  0  0  0  0  0  0  0  0  0  0
   38.1300   31.5860   41.1060 H   0  0  0  0  0  0  0  0  0  0  0  0
   38.6610   29.6940   42.8700 C   0  0  0  0  0  0  0  0  0  0  0  0
   38.7120   28.8900   43.6000 H   0  0  0  0  0  0  0  0  0  0  0  0
   39.5400   30.5850   42.8830 O   0  0  0  0  0  0  0  0  0  0  0  0
   36.9120   27.3150   42.9760 S   0  0  0  0  0  0  0  0  0  0  0  0
   37.0160   24.7160   42.0580 C   0  0  0  0  0  0  0  0  0  0  0  0
   37.6940   25.9460   42.1180 C   0  0  0  0  0  0  0  0  0  0  0  0
   38.9460   26.0640   41.5120 C   0  0  0  0  0  0  0  0  0  0  0  0
   39.4310   24.9550   40.8940 N   0  0  0  0  0  0  0  0  0  0  0  0
   38.7660   23.8010   40.8520 C   0  0  0  0  0  0  0  0  0  0  0  0
   37.5590   23.6450   41.4210 N   0  0  0  0  0  0  0  0  0  0  0  0
   36.0440   24.5550   42.5050 H   0  0  0  0  0  0  0  0  0  0  0  0
   39.4190   27.0230   41.5880 H   0  0  0  0  0  0  0  0  0  0  0  0
   39.3680   23.0660   40.2970 H   0  0  0  0  0  0  0  0  0  0  0  0
  1  6  1  0  0  0  0
  1 14  1  0  0  0  0
  2  7  1  0  0  0  0
  2  1  2  0  0  0  0
  3  4  2  0  0  0  0
  3  2  1  0  0  0  0
  4  5  1  0  0  0  0
  5 10  1  0  0  0  0
  5  6  2  0  0  0  0
  6 11  1  0  0  0  0
  8  3  1  0  0  0  0
  9  4  1  0  0  0  0
 11 13  2  0  0  0  0
 11 12  1  0  0  0  0
 15 16  1  0  0  0  0
 15 21  1  0  0  0  0
 16 14  1  0  0  0  0
 17 22  1  0  0  0  0
 17 16  2  0  0  0  0
 18 17  1  0  0  0  0
 19 18  2  0  0  0  0
 19 20  1  0  0  0  0
 20 15  2  0  0  0  0
 23 19  1  0  0  0  0
M  END
>  <minimizedAffinity>
-4.15919733

$$$$

 OpenBabel03242517443D

 23 24  0  0  0  0  0  0  0  0999 V2000
   38.0650   26.9590   42.8140 C   0  0  0  0  0  0  0  0  0  0  0  0
   36.9810   26.3250   42.2670 C   0  0  0  0  0  0  0  0  0  0  0  0
   37.0610   24.9770   42.0010 C   0  0  0  0  0  0  0  0  0  0  0  0
   38.1880   24.2410   42.2610 C   0  0  0  0  0  0  0  0  0  0  0  0
   39.2740   24.8800   42.8090 C   0  0  0  0  0  0  0  0  0  0  0  0
   39.2190   26.2450   43.0890 C   0  0  0  0  0  0  0  0  0  0  0  0
   36.1360   26.9780   42.0940 H   0  0  0  0  0  0  0  0  0  0  0  0
   36.1430   24.5650   41.5660 H   0  0  0  0  0  0  0  0  0  0  0  0
   38.1020   23.1950   41.9990 H   0  0  0  0  0  0  0  0  0  0  0  0
   40.1430   24.2810   43.0020 H   0  0  0  0  0  0  0  0  0  0  0  0
   40.4490   26.8160   43.6760 C   0  0  0  0  0  0  0  0  0  0  0  0
   40.3680   27.8010   44.1290 H   0  0  0  0  0  0  0  0  0  0  0  0
   41.5580   26.2350   43.6770 O   0  0  0  0  0  0  0  0  0  0  0  0
   38.2030   28.6860   43.2450 S   0  0  0  0  0  0  0  0  0  0  0  0
   36.5200   30.0590   41.5450 C   0  0  0  0  0  0  0  0  0  0  0  0
   37.8500   29.6770   41.7900 C   0  0  0  0  0  0  0  0  0  0  0  0
   38.8490   30.0770   40.9010 C   0  0  0  0  0  0  0  0  0  0  0  0
   38.4550   30.8250   39.8380 N   0  0  0  0  0  0  0  0  0  0  0  0
   37.1860   31.1730   39.6290 C   0  0  0  0  0  0  0  0  0  0  0  0
   36.1950   30.8100   40.4600 N   0  0  0  0  0  0  0  0  0  0  0  0
   35.6970   29.7850   42.1920 H   0  0  0  0  0  0  0  0  0  0  0  0
   39.8460   29.7570   41.1360 H   0  0  0  0  0  0  0  0  0  0  0  0
   37.1300   31.7730   38.7080 H   0  0  0  0  0  0  0  0  0  0  0  0
  1  6  1  0  0  0  0
  1 14  1  0  0  0  0
  2  1  2  0  0  0  0
  3  4  2  0  0  0  0
  3  2  1  0  0  0  0
  4  5  1  0  0  0  0
  5 10  1  0  0  0  0
  5  6  2  0  0  0  0
  6 11  1  0  0  0  0
  7  2  1  0  0  0  0
  8  3  1  0  0  0  0
  9  4  1  0  0  0  0
 11 13  2  0  0  0  0
 11 12  1  0  0  0  0
 15 16  1  0  0  0  0
 15 21  1  0  0  0  0
 16 14  1  0  0  0  0
 17 22  1  0  0  0  0
 17 16  2  0  0  0  0
 18 17  1  0  0  0  0
 19 18  2  0  0  0  0
 19 20  1  0  0  0  0
 20 15  2  0  0  0  0
 23 19  1  0  0  0  0
M  END
>  <minimizedAffinity>
-4.136271

$$$$

 OpenBabel03242517443D

 23 24  0  0  0  0  0  0  0  0999 V2000
   38.1990   28.7310   41.4610 C   0  0  0  0  0  0  0  0  0  0  0  0
   36.8720   28.4080   41.3520 C   0  0  0  0  0  0  0  0  0  0  0  0
   36.2580   27.7470   42.3910 C   0  0  0  0  0  0  0  0  0  0  0  0
   36.9250   27.3950   43.5360 C   0  0  0  0  0  0  0  0  0  0  0  0
   38.2570   27.7190   43.6420 C   0  0  0  0  0  0  0  0  0  0  0  0
   38.9020   28.3900   42.6050 C   0  0  0  0  0  0  0  0  0  0  0  0
   36.4230   28.7220   40.4180 H   0  0  0  0  0  0  0  0  0  0  0  0
   35.1980   27.5350   42.2060 H   0  0  0  0  0  0  0  0  0  0  0  0
   36.3120   26.8810   44.2630 H   0  0  0  0  0  0  0  0  0  0  0  0
   38.7550   27.4330   44.5480 H   0  0  0  0  0  0  0  0  0  0  0  0
   40.3320   28.6820   42.8380 C   0  0  0  0  0  0  0  0  0  0  0  0
   40.6650   29.7000   42.6490 H   0  0  0  0  0  0  0  0  0  0  0  0
   41.1620   27.8330   43.2330 O   0  0  0  0  0  0  0  0  0  0  0  0
   39.2070   29.5800   40.2580 S   0  0  0  0  0  0  0  0  0  0  0  0
   37.5940   31.5920   39.2760 C   0  0  0  0  0  0  0  0  0  0  0  0
   38.6580   31.2860   40.1430 C   0  0  0  0  0  0  0  0  0  0  0  0
   39.2520   32.3110   40.8810 C   0  0  0  0  0  0  0  0  0  0  0  0
   38.7470   33.5600   40.7060 N   0  0  0  0  0  0  0  0  0  0  0  0
   37.7370   33.8220   39.8780 C   0  0  0  0  0  0  0  0  0  0  0  0
   37.1370   32.8650   39.1500 N   0  0  0  0  0  0  0  0  0  0  0  0
   37.0890   30.8480   38.6760 H   0  0  0  0  0  0  0  0  0  0  0  0
   40.0590   32.0230   41.5250 H   0  0  0  0  0  0  0  0  0  0  0  0
   37.5170   34.9000   39.9170 H   0  0  0  0  0  0  0  0  0  0  0  0
  1  6  1  0  0  0  0
  2  1  2  0  0  0  0
  2  3  1  0  0  0  0
  3  4  2  0  0  0  0
  4  5  1  0  0  0  0
  4  9  1  0  0  0  0
  5 10  1  0  0  0  0
  6 11  1  0  0  0  0
  6  5  2  0  0  0  0
  7  2  1  0  0  0  0
  8  3  1  0  0  0  0
 11 13  2  0  0  0  0
 12 11  1  0  0  0  0
 14  1  1  0  0  0  0
 15 16  1  0  0  0  0
 16 14  1  0  0  0  0
 16 17  2  0  0  0  0
 17 22  1  0  0  0  0
 18 17  1  0  0  0  0
 19 23  1  0  0  0  0
 19 18  2  0  0  0  0
 20 15  2  0  0  0  0
 20 19  1  0  0  0  0
 21 15  1  0  0  0  0
M  END
>  <minimizedAffinity>
-4.13099194

$$$$

 OpenBabel03242517443D

 23 24  0  0  0  0  0  0  0  0999 V2000
   36.3220   30.3780   39.9590 C   0  0  0  0  0  0  0  0  0  0  0  0
   36.6770   31.5460   40.5800 C   0  0  0  0  0  0  0  0  0  0  0  0
   37.3070   32.5270   39.8500 C   0  0  0  0  0  0  0  0  0  0  0  0
   37.5970   32.3800   38.5170 C   0  0  0  0  0  0  0  0  0  0  0  0
   37.2410   31.2060   37.8960 C   0  0  0  0  0  0  0  0  0  0  0  0
   36.6000   30.1970   38.6140 C   0  0  0  0  0  0  0  0  0  0  0  0
   36.4120   31.5790   41.6300 H   0  0  0  0  0  0  0  0  0  0  0  0
   37.5480   33.4200   40.4370 H   0  0  0  0  0  0  0  0  0  0  0  0
   38.0930   33.2340   38.0770 H   0  0  0  0  0  0  0  0  0  0  0  0
   37.4790   31.1170   36.8550 H   0  0  0  0  0  0  0  0  0  0  0  0
   36.2690   28.9860   37.8370 C   0  0  0  0  0  0  0  0  0  0  0  0
   35.2450   28.8900   37.4850 H   0  0  0  0  0  0  0  0  0  0  0  0
   37.0920   28.0810   37.5680 O   0  0  0  0  0  0  0  0  0  0  0  0
   35.5030   28.9710   40.6900 S   0  0  0  0  0  0  0  0  0  0  0  0
   37.1020   26.7580   41.0820 C   0  0  0  0  0  0  0  0  0  0  0  0
   36.7110   28.0040   41.6010 C   0  0  0  0  0  0  0  0  0  0  0  0
   37.2690   28.4490   42.8000 C   0  0  0  0  0  0  0  0  0  0  0  0
   38.1730   27.6260   43.3940 N   0  0  0  0  0  0  0  0  0  0  0  0
   38.5260   26.4490   42.8800 C   0  0  0  0  0  0  0  0  0  0  0  0
   38.0130   25.9840   41.7280 N   0  0  0  0  0  0  0  0  0  0  0  0
   36.7100   26.3520   40.1590 H   0  0  0  0  0  0  0  0  0  0  0  0
   36.9350   29.4060   43.1510 H   0  0  0  0  0  0  0  0  0  0  0  0
   39.2670   25.9790   43.5450 H   0  0  0  0  0  0  0  0  0  0  0  0
  1  2  1  0  0  0  0
  1 14  1  0  0  0  0
  2  7  1  0  0  0  0
  3  8  1  0  0  0  0
  3  2  2  0  0  0  0
  4  3  1  0  0  0  0
  5  4  2  0  0  0  0
  5  6  1  0  0  0  0
  6  1  2  0  0  0  0
  9  4  1  0  0  0  0
 10  5  1  0  0  0  0
 11  6  1  0  0  0  0
 12 11  1  0  0  0  0
 13 11  2  0  0  0  0
 14 16  1  0  0  0  0
 15 16  2  0  0  0  0
 15 20  1  0  0  0  0
 16 17  1  0  0  0  0
 17 22  1  0  0  0  0
 17 18  2  0  0  0  0
 19 18  1  0  0  0  0
 19 23  1  0  0  0  0
 20 19  2  0  0  0  0
 21 15  1  0  0  0  0
M  END
>  <minimizedAffinity>
-4.0811801

$$$$
