
 OpenBabel03242517443D

 23 24  0  0  0  0  0  0  0  0999 V2000
   41.4450   34.1480   40.3520 C   0  0  0  0  0  0  0  0  0  0  0  0
   40.8590   33.3250   41.2780 C   0  0  0  0  0  0  0  0  0  0  0  0
   39.4940   33.1570   41.2530 C   0  0  0  0  0  0  0  0  0  0  0  0
   38.6920   33.7840   40.3330 C   0  0  0  0  0  0  0  0  0  0  0  0
   39.2820   34.6090   39.4060 C   0  0  0  0  0  0  0  0  0  0  0  0
   40.6640   34.7960   39.4090 C   0  0  0  0  0  0  0  0  0  0  0  0
   41.5630   32.8720   41.9640 H   0  0  0  0  0  0  0  0  0  0  0  0
   39.1240   32.4810   42.0320 H   0  0  0  0  0  0  0  0  0  0  0  0
   37.6400   33.5540   40.4370 H   0  0  0  0  0  0  0  0  0  0  0  0
   38.6320   35.0860   38.6990 H   0  0  0  0  0  0  0  0  0  0  0  0
   41.1780   35.7050   38.3640 C   0  0  0  0  0  0  0  0  0  0  0  0
   42.0210   36.3370   38.6320 H   0  0  0  0  0  0  0  0  0  0  0  0
   40.7000   35.7830   37.2100 O   0  0  0  0  0  0  0  0  0  0  0  0
   43.1820   34.5220   40.1840 S   0  0  0  0  0  0  0  0  0  0  0  0
   44.0510   35.6890   42.5280 C   0  0  0  0  0  0  0  0  0  0  0  0
   43.9430   34.4860   41.8100 C   0  0  0  0  0  0  0  0  0  0  0  0
   44.4280   33.3070   42.3790 C   0  0  0  0  0  0  0  0  0  0  0  0
   44.9820   33.4100   43.6150 N   0  0  0  0  0  0  0  0  0  0  0  0
   45.0710   34.5650   44.2740 C   0  0  0  0  0  0  0  0  0  0  0  0
   44.6170   35.7210   43.7630 N   0  0  0  0  0  0  0  0  0  0  0  0
   43.6970   36.6380   42.1480 H   0  0  0  0  0  0  0  0  0  0  0  0
   44.3210   32.4180   41.7890 H   0  0  0  0  0  0  0  0  0  0  0  0
   45.5560   34.3820   45.2460 H   0  0  0  0  0  0  0  0  0  0  0  0
  1  2  1  0  0  0  0
  2  7  1  0  0  0  0
  3  2  2  0  0  0  0
  3  8  1  0  0  0  0
  4  9  1  0  0  0  0
  4  3  1  0  0  0  0
  5  6  1  0  0  0  0
  5  4  2  0  0  0  0
  6  1  2  0  0  0  0
 10  5  1  0  0  0  0
 11 12  1  0  0  0  0
 11  6  1  0  0  0  0
 13 11  2  0  0  0  0
 14  1  1  0  0  0  0
 14 16  1  0  0  0  0
 15 20  1  0  0  0  0
 16 17  1  0  0  0  0
 16 15  2  0  0  0  0
 17 18  2  0  0  0  0
 18 19  1  0  0  0  0
 19 23  1  0  0  0  0
 20 19  2  0  0  0  0
 21 15  1  0  0  0  0
 22 17  1  0  0  0  0
M  END
>  <minimizedAffinity>
-4.47001696

>  <minimizedRMSD>
1.74593198

$$$$
