
 OpenBabel03252507533D

 32 34  0  0  1  0  0  0  0  0999 V2000
   46.9230   34.9940   42.0770 C   0  0  2  0  0  0  0  0  0  0  0  0
   46.2960   34.1760   40.9750 C   0  0  0  0  0  0  0  0  0  0  0  0
   47.5060   34.1290   40.0220 C   0  0  0  0  0  0  0  0  0  0  0  0
   48.7080   34.0510   40.9250 C   0  0  1  0  0  0  0  0  0  0  0  0
   48.1830   34.1680   42.3200 C   0  0  0  0  0  0  0  0  0  0  0  0
   47.1400   35.9860   41.6900 H   0  0  0  0  0  0  0  0  0  0  0  0
   46.0580   33.1620   41.3710 H   0  0  0  0  0  0  0  0  0  0  0  0
   45.4290   34.6670   40.5010 H   0  0  0  0  0  0  0  0  0  0  0  0
   47.4510   35.0600   39.4340 H   0  0  0  0  0  0  0  0  0  0  0  0
   47.4150   33.2580   39.3410 H   0  0  0  0  0  0  0  0  0  0  0  0
   49.3670   34.9030   40.7330 H   0  0  0  0  0  0  0  0  0  0  0  0
   48.8700   34.6590   43.0270 H   0  0  0  0  0  0  0  0  0  0  0  0
   47.6810   33.2660   42.7240 H   0  0  0  0  0  0  0  0  0  0  0  0
   44.4340   36.0660   44.7060 C   0  0  0  0  0  0  0  0  0  0  0  0
   45.1630   36.0910   43.5120 C   0  0  0  0  0  0  0  0  0  0  0  0
   46.0820   35.0580   43.3020 C   0  0  0  0  0  0  0  0  0  0  0  0
   46.2360   34.0730   44.2550 N   0  0  0  0  0  0  0  0  0  0  0  0
   45.5030   34.0980   45.3940 C   0  0  0  0  0  0  0  0  0  0  0  0
   44.6140   35.0820   45.6180 N   0  0  0  0  0  0  0  0  0  0  0  0
   43.7260   36.8680   44.8620 H   0  0  0  0  0  0  0  0  0  0  0  0
   45.0570   36.8470   42.7630 H   0  0  0  0  0  0  0  0  0  0  0  0
   45.6920   33.2820   46.0850 H   0  0  0  0  0  0  0  0  0  0  0  0
   49.4510   32.7520   40.8550 C   0  0  2  0  0  0  0  0  0  0  0  0
   49.3250   31.8210   41.9500 C   0  0  0  0  0  0  0  0  0  0  0  0
   50.6590   32.4570   41.5920 C   0  0  1  0  0  0  0  0  0  0  0  0
   49.4260   32.3390   39.8270 H   0  0  0  0  0  0  0  0  0  0  0  0
   49.2240   30.7220   41.6750 H   0  0  0  0  0  0  0  0  0  0  0  0
   49.2210   31.9030   43.0170 H   0  0  0  0  0  0  0  0  0  0  0  0
   51.1030   33.2620   42.1700 H   0  0  0  0  0  0  0  0  0  0  0  0
   51.6880   31.5210   41.0380 C   0  0  0  0  0  0  0  0  0  0  0  0
   52.0240   30.6080   41.5600 H   0  0  0  0  0  0  0  0  0  0  0  0
   52.2640   31.6670   39.9560 O   0  0  0  0  0  0  0  0  0  0  0  0
  1  6  1  6  0  0  0
  1  5  1  0  0  0  0
  1 16  1  0  0  0  0
  2  7  1  0  0  0  0
  2  1  1  0  0  0  0
  3  4  1  0  0  0  0
  3  2  1  0  0  0  0
  4 11  1  6  0  0  0
  4  5  1  0  0  0  0
  5 13  1  0  0  0  0
  5 12  1  0  0  0  0
  8  2  1  0  0  0  0
  9  3  1  0  0  0  0
 10  3  1  0  0  0  0
 14 20  1  0  0  0  0
 14 19  1  0  0  0  0
 15 14  2  0  0  0  0
 16 15  1  0  0  0  0
 16 17  2  0  0  0  0
 17 18  1  0  0  0  0
 18 19  2  0  0  0  0
 18 22  1  0  0  0  0
 21 15  1  0  0  0  0
 23 26  1  6  0  0  0
 23  4  1  0  0  0  0
 23 25  1  0  0  0  0
 23 24  1  0  0  0  0
 24 28  1  0  0  0  0
 25 24  1  0  0  0  0
 25 29  1  1  0  0  0
 27 24  1  0  0  0  0
 30 31  1  0  0  0  0
 30 25  1  0  0  0  0
 32 30  2  0  0  0  0
M  END
>  <minimizedAffinity>
-4.75634146

>  <minimizedRMSD>
0.496449381

$$$$
