
 OpenBabel03242523183D

 31 33  0  0  0  0  0  0  0  0999 V2000
   47.3920   32.8140   44.0230 C   0  0  0  0  0  0  0  0  0  0  0  0
   48.2460   33.3150   43.1200 C   0  0  0  0  0  0  0  0  0  0  0  0
   49.0930   32.3850   42.5540 C   0  0  0  0  0  0  0  0  0  0  0  0
   48.9870   31.0470   42.9630 N   0  0  0  0  0  0  0  0  0  0  0  0
   48.1270   30.6260   43.8580 C   0  0  0  0  0  0  0  0  0  0  0  0
   47.2610   31.5290   44.4460 N   0  0  0  0  0  0  0  0  0  0  0  0
   49.8500   32.6110   41.7980 H   0  0  0  0  0  0  0  0  0  0  0  0
   48.1640   29.5650   44.0750 H   0  0  0  0  0  0  0  0  0  0  0  0
   48.4260   34.6850   42.7980 C   0  0  0  0  0  0  0  0  0  0  0  0
   49.4590   35.2680   42.1320 C   0  0  0  0  0  0  0  0  0  0  0  0
   48.2360   35.0920   41.2740 C   0  0  0  0  0  0  0  0  0  0  0  0
   47.9530   35.3800   43.5180 H   0  0  0  0  0  0  0  0  0  0  0  0
   50.3220   34.6270   41.7830 H   0  0  0  0  0  0  0  0  0  0  0  0
   49.8150   36.3260   42.1570 H   0  0  0  0  0  0  0  0  0  0  0  0
   48.1690   34.2250   40.6060 H   0  0  0  0  0  0  0  0  0  0  0  0
   47.5760   35.9500   41.1120 H   0  0  0  0  0  0  0  0  0  0  0  0
   46.3200   33.5490   44.7110 C   0  0  0  0  0  0  0  0  0  0  0  0
   45.7410   33.9390   45.6940 O   0  0  0  0  0  0  0  0  0  0  0  0
   44.5540   31.7440   42.9450 Cl  0  0  0  0  0  0  0  0  0  0  0  0
   44.5760   33.5030   42.7910 C   0  0  0  0  0  0  0  0  0  0  0  0
   45.4370   34.1720   43.6860 C   0  0  0  0  0  0  0  0  0  0  0  0
   45.3780   35.5420   43.4820 C   0  0  0  0  0  0  0  0  0  0  0  0
   44.6590   36.2500   42.6000 C   0  0  0  0  0  0  0  0  0  0  0  0
   43.8520   35.5260   41.7700 C   0  0  0  0  0  0  0  0  0  0  0  0
   43.7960   34.1800   41.8490 C   0  0  0  0  0  0  0  0  0  0  0  0
   45.9720   36.2250   44.1280 H   0  0  0  0  0  0  0  0  0  0  0  0
   44.6500   37.3160   42.4780 H   0  0  0  0  0  0  0  0  0  0  0  0
   43.2090   35.9390   41.0040 H   0  0  0  0  0  0  0  0  0  0  0  0
   42.9530   33.3430   40.9930 C   0  0  0  0  0  0  0  0  0  0  0  0
   43.3080   32.8530   40.1140 H   0  0  0  0  0  0  0  0  0  0  0  0
   41.7560   33.1390   41.2280 O   0  0  0  0  0  0  0  0  0  0  0  0
  1  6  1  0  0  0  0
  1 17  1  0  0  0  0
  2  1  2  0  0  0  0
  3  4  2  0  0  0  0
  3  2  1  0  0  0  0
  4  5  1  0  0  0  0
  5  8  1  0  0  0  0
  5  6  2  0  0  0  0
  7  3  1  0  0  0  0
  9  2  1  0  0  0  0
  9 12  1  0  0  0  0
 10 14  1  0  0  0  0
 10  9  1  0  0  0  0
 11 10  1  0  0  0  0
 11  9  1  0  0  0  0
 13 10  1  0  0  0  0
 15 11  1  0  0  0  0
 16 11  1  0  0  0  0
 17 18  2  0  0  0  0
 20 19  1  0  0  0  0
 20 21  1  0  0  0  0
 21 17  1  0  0  0  0
 22 21  2  0  0  0  0
 22 26  1  0  0  0  0
 23 22  1  0  0  0  0
 24 25  1  0  0  0  0
 24 23  2  0  0  0  0
 25 20  2  0  0  0  0
 27 23  1  0  0  0  0
 28 24  1  0  0  0  0
 29 31  2  0  0  0  0
 29 25  1  0  0  0  0
 30 29  1  0  0  0  0
M  END
>  <minimizedAffinity>
-4.98384523

>  <minimizedRMSD>
0.37828356

$$$$
