
 OpenBabel03242523183D

 31 33  0  0  0  0  0  0  0  0999 V2000
   47.5050   32.8260   43.9310 C   0  0  0  0  0  0  0  0  0  0  0  0
   48.3370   33.3750   43.0350 C   0  0  0  0  0  0  0  0  0  0  0  0
   49.1980   32.4840   42.4300 C   0  0  0  0  0  0  0  0  0  0  0  0
   49.1270   31.1310   42.7970 N   0  0  0  0  0  0  0  0  0  0  0  0
   48.2870   30.6620   43.6870 C   0  0  0  0  0  0  0  0  0  0  0  0
   47.4080   31.5250   44.3130 N   0  0  0  0  0  0  0  0  0  0  0  0
   49.9410   32.7520   41.6740 H   0  0  0  0  0  0  0  0  0  0  0  0
   48.3510   29.5950   43.8690 H   0  0  0  0  0  0  0  0  0  0  0  0
   48.4820   34.7590   42.7560 C   0  0  0  0  0  0  0  0  0  0  0  0
   49.5040   35.3900   42.1190 C   0  0  0  0  0  0  0  0  0  0  0  0
   48.2950   35.2060   41.2440 C   0  0  0  0  0  0  0  0  0  0  0  0
   47.9830   35.4180   43.4920 H   0  0  0  0  0  0  0  0  0  0  0  0
   50.3880   34.7840   41.7600 H   0  0  0  0  0  0  0  0  0  0  0  0
   49.8310   36.4560   42.1790 H   0  0  0  0  0  0  0  0  0  0  0  0
   48.2590   34.3590   40.5490 H   0  0  0  0  0  0  0  0  0  0  0  0
   47.6130   36.0510   41.1010 H   0  0  0  0  0  0  0  0  0  0  0  0
   46.4250   33.5130   44.6550 C   0  0  0  0  0  0  0  0  0  0  0  0
   45.8510   33.8640   45.6550 O   0  0  0  0  0  0  0  0  0  0  0  0
   44.6210   31.7010   42.9330 Cl  0  0  0  0  0  0  0  0  0  0  0  0
   44.6230   33.4610   42.7880 C   0  0  0  0  0  0  0  0  0  0  0  0
   45.5060   34.1340   43.6590 C   0  0  0  0  0  0  0  0  0  0  0  0
   45.4290   35.5040   43.4630 C   0  0  0  0  0  0  0  0  0  0  0  0
   44.6770   36.2100   42.6070 C   0  0  0  0  0  0  0  0  0  0  0  0
   43.8520   35.4820   41.7980 C   0  0  0  0  0  0  0  0  0  0  0  0
   43.8100   34.1350   41.8720 C   0  0  0  0  0  0  0  0  0  0  0  0
   46.0360   36.1880   44.0940 H   0  0  0  0  0  0  0  0  0  0  0  0
   44.6560   37.2760   42.4900 H   0  0  0  0  0  0  0  0  0  0  0  0
   43.1830   35.8930   41.0540 H   0  0  0  0  0  0  0  0  0  0  0  0
   42.9480   33.2950   41.0380 C   0  0  0  0  0  0  0  0  0  0  0  0
   42.3770   32.4770   41.4170 H   0  0  0  0  0  0  0  0  0  0  0  0
   42.8180   33.4730   39.8210 O   0  0  0  0  0  0  0  0  0  0  0  0
  1  6  1  0  0  0  0
  1 17  1  0  0  0  0
  2  1  2  0  0  0  0
  3  4  2  0  0  0  0
  3  2  1  0  0  0  0
  4  5  1  0  0  0  0
  5  8  1  0  0  0  0
  5  6  2  0  0  0  0
  7  3  1  0  0  0  0
  9  2  1  0  0  0  0
  9 12  1  0  0  0  0
 10 14  1  0  0  0  0
 10  9  1  0  0  0  0
 11 10  1  0  0  0  0
 11  9  1  0  0  0  0
 13 10  1  0  0  0  0
 15 11  1  0  0  0  0
 16 11  1  0  0  0  0
 17 18  2  0  0  0  0
 20 19  1  0  0  0  0
 20 21  1  0  0  0  0
 21 17  1  0  0  0  0
 22 21  2  0  0  0  0
 22 26  1  0  0  0  0
 23 22  1  0  0  0  0
 24 25  1  0  0  0  0
 24 23  2  0  0  0  0
 25 20  2  0  0  0  0
 27 23  1  0  0  0  0
 28 24  1  0  0  0  0
 29 30  1  0  0  0  0
 29 25  1  0  0  0  0
 31 29  2  0  0  0  0
M  END
>  <minimizedAffinity>
-4.94390488

>  <minimizedRMSD>
0.0634447858

$$$$
