
 OpenBabel03242523193D

 31 33  0  0  0  0  0  0  0  0999 V2000
   47.3920   32.8150   44.0290 C   0  0  0  0  0  0  0  0  0  0  0  0
   48.2450   33.3150   43.1230 C   0  0  0  0  0  0  0  0  0  0  0  0
   49.0940   32.3840   42.5610 C   0  0  0  0  0  0  0  0  0  0  0  0
   48.9910   31.0480   42.9750 N   0  0  0  0  0  0  0  0  0  0  0  0
   48.1310   30.6290   43.8720 C   0  0  0  0  0  0  0  0  0  0  0  0
   47.2640   31.5310   44.4560 N   0  0  0  0  0  0  0  0  0  0  0  0
   49.8500   32.6100   41.8040 H   0  0  0  0  0  0  0  0  0  0  0  0
   48.1710   29.5680   44.0930 H   0  0  0  0  0  0  0  0  0  0  0  0
   48.4210   34.6840   42.7960 C   0  0  0  0  0  0  0  0  0  0  0  0
   49.4510   35.2670   42.1250 C   0  0  0  0  0  0  0  0  0  0  0  0
   48.2270   35.0850   41.2720 C   0  0  0  0  0  0  0  0  0  0  0  0
   47.9490   35.3800   43.5150 H   0  0  0  0  0  0  0  0  0  0  0  0
   50.3150   34.6260   41.7760 H   0  0  0  0  0  0  0  0  0  0  0  0
   49.8060   36.3250   42.1460 H   0  0  0  0  0  0  0  0  0  0  0  0
   48.1590   34.2170   40.6070 H   0  0  0  0  0  0  0  0  0  0  0  0
   47.5640   35.9420   41.1090 H   0  0  0  0  0  0  0  0  0  0  0  0
   46.3180   33.5500   44.7140 C   0  0  0  0  0  0  0  0  0  0  0  0
   45.7360   33.9420   45.6940 O   0  0  0  0  0  0  0  0  0  0  0  0
   44.5670   31.7390   42.9390 Cl  0  0  0  0  0  0  0  0  0  0  0  0
   44.5800   33.4970   42.7870 C   0  0  0  0  0  0  0  0  0  0  0  0
   45.4360   34.1700   43.6860 C   0  0  0  0  0  0  0  0  0  0  0  0
   45.3700   35.5400   43.4820 C   0  0  0  0  0  0  0  0  0  0  0  0
   44.6510   36.2460   42.5990 C   0  0  0  0  0  0  0  0  0  0  0  0
   43.8500   35.5180   41.7650 C   0  0  0  0  0  0  0  0  0  0  0  0
   43.8010   34.1720   41.8430 C   0  0  0  0  0  0  0  0  0  0  0  0
   45.9580   36.2250   44.1310 H   0  0  0  0  0  0  0  0  0  0  0  0
   44.6370   37.3110   42.4780 H   0  0  0  0  0  0  0  0  0  0  0  0
   43.2080   35.9290   40.9980 H   0  0  0  0  0  0  0  0  0  0  0  0
   42.9650   33.3320   40.9830 C   0  0  0  0  0  0  0  0  0  0  0  0
   42.3900   32.5070   41.3440 H   0  0  0  0  0  0  0  0  0  0  0  0
   42.8600   33.5180   39.7660 O   0  0  0  0  0  0  0  0  0  0  0  0
  1  6  1  0  0  0  0
  1 17  1  0  0  0  0
  2  1  2  0  0  0  0
  3  4  2  0  0  0  0
  3  2  1  0  0  0  0
  4  5  1  0  0  0  0
  5  8  1  0  0  0  0
  5  6  2  0  0  0  0
  7  3  1  0  0  0  0
  9  2  1  0  0  0  0
  9 12  1  0  0  0  0
 10 14  1  0  0  0  0
 10  9  1  0  0  0  0
 11 10  1  0  0  0  0
 11  9  1  0  0  0  0
 13 10  1  0  0  0  0
 15 11  1  0  0  0  0
 16 11  1  0  0  0  0
 17 18  2  0  0  0  0
 20 19  1  0  0  0  0
 20 21  1  0  0  0  0
 21 17  1  0  0  0  0
 22 21  2  0  0  0  0
 22 26  1  0  0  0  0
 23 22  1  0  0  0  0
 24 25  1  0  0  0  0
 24 23  2  0  0  0  0
 25 20  2  0  0  0  0
 27 23  1  0  0  0  0
 28 24  1  0  0  0  0
 29 30  1  0  0  0  0
 29 25  1  0  0  0  0
 31 29  2  0  0  0  0
M  END
>  <minimizedAffinity>
-4.94590092

>  <minimizedRMSD>
0.465841621

$$$$
