
 OpenBabel03242510103D

 22 23  0  0  0  0  0  0  0  0999 V2000
   39.3800   30.2200   42.5620 Br  0  0  0  0  0  0  0  0  0  0  0  0
   37.7960   29.9900   41.5180 C   0  0  0  0  0  0  0  0  0  0  0  0
   37.5300   30.8430   40.4660 C   0  0  0  0  0  0  0  0  0  0  0  0
   36.3750   30.6980   39.6850 C   0  0  0  0  0  0  0  0  0  0  0  0
   35.5160   29.6790   39.9970 C   0  0  0  0  0  0  0  0  0  0  0  0
   35.8120   28.8430   41.0530 C   0  0  0  0  0  0  0  0  0  0  0  0
   36.9190   28.9750   41.8100 C   0  0  0  0  0  0  0  0  0  0  0  0
   36.1930   31.3930   38.8560 H   0  0  0  0  0  0  0  0  0  0  0  0
   34.6240   29.5480   39.4090 H   0  0  0  0  0  0  0  0  0  0  0  0
   35.1090   28.0460   41.2730 H   0  0  0  0  0  0  0  0  0  0  0  0
   40.3820   32.6440   39.0530 C   0  0  0  0  0  0  0  0  0  0  0  0
   40.2840   33.9290   39.6090 C   0  0  0  0  0  0  0  0  0  0  0  0
   39.2040   34.1560   40.4870 C   0  0  0  0  0  0  0  0  0  0  0  0
   38.3370   33.1420   40.7400 N   0  0  0  0  0  0  0  0  0  0  0  0
   38.4770   31.9130   40.1750 C   0  0  0  0  0  0  0  0  0  0  0  0
   39.5000   31.6840   39.3360 N   0  0  0  0  0  0  0  0  0  0  0  0
   41.1910   32.4330   38.3790 H   0  0  0  0  0  0  0  0  0  0  0  0
   41.0170   34.6880   39.3580 H   0  0  0  0  0  0  0  0  0  0  0  0
   39.1000   35.1260   40.9300 H   0  0  0  0  0  0  0  0  0  0  0  0
   37.2350   28.0940   42.9290 C   0  0  0  0  0  0  0  0  0  0  0  0
   38.2150   27.9970   43.3660 H   0  0  0  0  0  0  0  0  0  0  0  0
   36.3630   27.3800   43.4630 O   0  0  0  0  0  0  0  0  0  0  0  0
  2  7  1  0  0  0  0
  2  1  1  0  0  0  0
  3  2  2  0  0  0  0
  4  5  2  0  0  0  0
  4  3  1  0  0  0  0
  5  6  1  0  0  0  0
  6 10  1  0  0  0  0
  6  7  2  0  0  0  0
  7 20  1  0  0  0  0
  8  4  1  0  0  0  0
  9  5  1  0  0  0  0
 11 16  2  0  0  0  0
 11 12  1  0  0  0  0
 12 13  2  0  0  0  0
 13 14  1  0  0  0  0
 13 19  1  0  0  0  0
 15  3  1  0  0  0  0
 15 14  2  0  0  0  0
 16 15  1  0  0  0  0
 17 11  1  0  0  0  0
 18 12  1  0  0  0  0
 20 21  1  0  0  0  0
 20 22  2  0  0  0  0
M  END
>  <minimizedAffinity>
-4.46689892

$$$$

 OpenBabel03242510103D

 22 23  0  0  0  0  0  0  0  0999 V2000
   37.7960   28.3650   39.1180 Br  0  0  0  0  0  0  0  0  0  0  0  0
   37.5070   28.0640   40.9830 C   0  0  0  0  0  0  0  0  0  0  0  0
   37.6550   29.0990   41.8840 C   0  0  0  0  0  0  0  0  0  0  0  0
   37.4500   28.9050   43.2560 C   0  0  0  0  0  0  0  0  0  0  0  0
   37.0950   27.6530   43.6800 C   0  0  0  0  0  0  0  0  0  0  0  0
   36.9540   26.6400   42.7540 C   0  0  0  0  0  0  0  0  0  0  0  0
   37.1490   26.8160   41.4320 C   0  0  0  0  0  0  0  0  0  0  0  0
   37.5760   29.7490   43.9460 H   0  0  0  0  0  0  0  0  0  0  0  0
   36.9320   27.4820   44.7300 H   0  0  0  0  0  0  0  0  0  0  0  0
   36.6720   25.6600   43.1240 H   0  0  0  0  0  0  0  0  0  0  0  0
   39.6900   32.0110   41.0150 C   0  0  0  0  0  0  0  0  0  0  0  0
   38.7760   32.9050   40.4360 C   0  0  0  0  0  0  0  0  0  0  0  0
   37.4360   32.4740   40.3540 C   0  0  0  0  0  0  0  0  0  0  0  0
   37.1100   31.2440   40.8290 N   0  0  0  0  0  0  0  0  0  0  0  0
   38.0350   30.4150   41.3820 C   0  0  0  0  0  0  0  0  0  0  0  0
   39.3150   30.8120   41.4650 N   0  0  0  0  0  0  0  0  0  0  0  0
   40.7200   32.3040   41.0940 H   0  0  0  0  0  0  0  0  0  0  0  0
   39.1140   33.8730   40.0800 H   0  0  0  0  0  0  0  0  0  0  0  0
   36.7130   33.1330   39.9190 H   0  0  0  0  0  0  0  0  0  0  0  0
   37.0020   25.7480   40.4510 C   0  0  0  0  0  0  0  0  0  0  0  0
   37.2330   25.8500   39.4040 H   0  0  0  0  0  0  0  0  0  0  0  0
   36.5860   24.6170   40.7750 O   0  0  0  0  0  0  0  0  0  0  0  0
  1  2  1  0  0  0  0
  2  7  2  0  0  0  0
  2  3  1  0  0  0  0
  3  4  2  0  0  0  0
  4  5  1  0  0  0  0
  4  8  1  0  0  0  0
  5  9  1  0  0  0  0
  6 10  1  0  0  0  0
  6  5  2  0  0  0  0
  7  6  1  0  0  0  0
 11 17  1  0  0  0  0
 11 16  1  0  0  0  0
 12 11  2  0  0  0  0
 13 12  1  0  0  0  0
 13 14  2  0  0  0  0
 14 15  1  0  0  0  0
 15 16  2  0  0  0  0
 15  3  1  0  0  0  0
 18 12  1  0  0  0  0
 19 13  1  0  0  0  0
 20 22  2  0  0  0  0
 20  7  1  0  0  0  0
 21 20  1  0  0  0  0
M  END
>  <minimizedAffinity>
-4.36825418

$$$$

 OpenBabel03242510103D

 22 23  0  0  0  0  0  0  0  0999 V2000
   37.9660   28.2940   39.1590 Br  0  0  0  0  0  0  0  0  0  0  0  0
   37.5800   27.9990   41.0070 C   0  0  0  0  0  0  0  0  0  0  0  0
   37.6410   29.0470   41.9040 C   0  0  0  0  0  0  0  0  0  0  0  0
   37.3640   28.8580   43.2640 C   0  0  0  0  0  0  0  0  0  0  0  0
   37.0280   27.5980   43.6800 C   0  0  0  0  0  0  0  0  0  0  0  0
   36.9750   26.5730   42.7590 C   0  0  0  0  0  0  0  0  0  0  0  0
   37.2400   26.7440   41.4480 C   0  0  0  0  0  0  0  0  0  0  0  0
   37.4210   29.7120   43.9510 H   0  0  0  0  0  0  0  0  0  0  0  0
   36.8100   27.4300   44.7210 H   0  0  0  0  0  0  0  0  0  0  0  0
   36.7060   25.5870   43.1220 H   0  0  0  0  0  0  0  0  0  0  0  0
   37.3750   32.3550   40.3670 C   0  0  0  0  0  0  0  0  0  0  0  0
   38.6710   32.8830   40.4680 C   0  0  0  0  0  0  0  0  0  0  0  0
   39.6410   32.0640   41.0820 C   0  0  0  0  0  0  0  0  0  0  0  0
   39.2750   30.8360   41.5320 N   0  0  0  0  0  0  0  0  0  0  0  0
   38.0040   30.3700   41.4100 C   0  0  0  0  0  0  0  0  0  0  0  0
   37.0700   31.1410   40.8280 N   0  0  0  0  0  0  0  0  0  0  0  0
   36.6090   32.9500   39.9060 H   0  0  0  0  0  0  0  0  0  0  0  0
   38.8860   33.8750   40.0830 H   0  0  0  0  0  0  0  0  0  0  0  0
   40.6400   32.4370   41.1750 H   0  0  0  0  0  0  0  0  0  0  0  0
   37.1860   25.6630   40.4710 C   0  0  0  0  0  0  0  0  0  0  0  0
   37.6180   25.7140   39.4860 H   0  0  0  0  0  0  0  0  0  0  0  0
   36.6190   24.5820   40.7270 O   0  0  0  0  0  0  0  0  0  0  0  0
  1  2  1  0  0  0  0
  2  7  2  0  0  0  0
  2  3  1  0  0  0  0
  3  4  2  0  0  0  0
  4  5  1  0  0  0  0
  4  8  1  0  0  0  0
  5  9  1  0  0  0  0
  6 10  1  0  0  0  0
  6  5  2  0  0  0  0
  7  6  1  0  0  0  0
 11 12  2  0  0  0  0
 11 16  1  0  0  0  0
 12 13  1  0  0  0  0
 13 19  1  0  0  0  0
 13 14  2  0  0  0  0
 15 14  1  0  0  0  0
 15  3  1  0  0  0  0
 16 15  2  0  0  0  0
 17 11  1  0  0  0  0
 18 12  1  0  0  0  0
 20 22  2  0  0  0  0
 20  7  1  0  0  0  0
 21 20  1  0  0  0  0
M  END
>  <minimizedAffinity>
-4.34767389

$$$$

 OpenBabel03242510103D

 22 23  0  0  0  0  0  0  0  0999 V2000
   37.6490   31.1160   37.0040 Br  0  0  0  0  0  0  0  0  0  0  0  0
   36.5420   30.3340   38.3510 C   0  0  0  0  0  0  0  0  0  0  0  0
   36.6260   30.7700   39.6580 C   0  0  0  0  0  0  0  0  0  0  0  0
   35.8270   30.2130   40.6650 C   0  0  0  0  0  0  0  0  0  0  0  0
   34.9540   29.2200   40.3120 C   0  0  0  0  0  0  0  0  0  0  0  0
   34.8930   28.8070   38.9980 C   0  0  0  0  0  0  0  0  0  0  0  0
   35.6580   29.3360   38.0220 C   0  0  0  0  0  0  0  0  0  0  0  0
   35.9190   30.5820   41.6940 H   0  0  0  0  0  0  0  0  0  0  0  0
   34.3290   28.7780   41.0700 H   0  0  0  0  0  0  0  0  0  0  0  0
   34.1900   28.0180   38.7530 H   0  0  0  0  0  0  0  0  0  0  0  0
   39.6500   32.4670   40.8190 C   0  0  0  0  0  0  0  0  0  0  0  0
   39.3830   33.8280   40.6040 C   0  0  0  0  0  0  0  0  0  0  0  0
   38.1260   34.1430   40.0450 C   0  0  0  0  0  0  0  0  0  0  0  0
   37.2650   33.1350   39.7530 N   0  0  0  0  0  0  0  0  0  0  0  0
   37.5730   31.8310   39.9820 C   0  0  0  0  0  0  0  0  0  0  0  0
   38.7660   31.5170   40.5130 N   0  0  0  0  0  0  0  0  0  0  0  0
   40.5970   32.1880   41.2430 H   0  0  0  0  0  0  0  0  0  0  0  0
   40.1240   34.5760   40.8640 H   0  0  0  0  0  0  0  0  0  0  0  0
   37.8900   35.1720   39.8680 H   0  0  0  0  0  0  0  0  0  0  0  0
   35.5970   28.9020   36.6310 C   0  0  0  0  0  0  0  0  0  0  0  0
   36.3200   28.2540   36.1660 H   0  0  0  0  0  0  0  0  0  0  0  0
   34.6740   29.2670   35.8750 O   0  0  0  0  0  0  0  0  0  0  0  0
  1  2  1  0  0  0  0
  2  3  1  0  0  0  0
  3 15  1  0  0  0  0
  3  4  2  0  0  0  0
  4  8  1  0  0  0  0
  5  4  1  0  0  0  0
  5  9  1  0  0  0  0
  6  5  2  0  0  0  0
  7  2  2  0  0  0  0
  7  6  1  0  0  0  0
 10  6  1  0  0  0  0
 11 17  1  0  0  0  0
 12 11  1  0  0  0  0
 12 18  1  0  0  0  0
 13 12  2  0  0  0  0
 14 15  2  0  0  0  0
 14 13  1  0  0  0  0
 15 16  1  0  0  0  0
 16 11  2  0  0  0  0
 19 13  1  0  0  0  0
 20  7  1  0  0  0  0
 21 20  1  0  0  0  0
 22 20  2  0  0  0  0
M  END
>  <minimizedAffinity>
-4.25734854

$$$$

 OpenBabel03242510103D

 22 23  0  0  0  0  0  0  0  0999 V2000
   37.2220   26.4950   39.4320 Br  0  0  0  0  0  0  0  0  0  0  0  0
   37.3110   27.2860   41.1700 C   0  0  0  0  0  0  0  0  0  0  0  0
   37.5160   28.6450   41.3030 C   0  0  0  0  0  0  0  0  0  0  0  0
   37.5870   29.2500   42.5650 C   0  0  0  0  0  0  0  0  0  0  0  0
   37.4440   28.4500   43.6670 C   0  0  0  0  0  0  0  0  0  0  0  0
   37.2400   27.0970   43.4990 C   0  0  0  0  0  0  0  0  0  0  0  0
   37.1710   26.5060   42.2900 C   0  0  0  0  0  0  0  0  0  0  0  0
   37.7500   30.3330   42.6370 H   0  0  0  0  0  0  0  0  0  0  0  0
   37.4940   28.8950   44.6460 H   0  0  0  0  0  0  0  0  0  0  0  0
   37.1320   26.4930   44.3940 H   0  0  0  0  0  0  0  0  0  0  0  0
   36.6840   30.7800   38.4530 C   0  0  0  0  0  0  0  0  0  0  0  0
   37.9160   30.9890   37.8130 C   0  0  0  0  0  0  0  0  0  0  0  0
   39.0430   30.3710   38.3940 C   0  0  0  0  0  0  0  0  0  0  0  0
   38.8780   29.6240   39.5160 N   0  0  0  0  0  0  0  0  0  0  0  0
   37.6610   29.4530   40.0980 C   0  0  0  0  0  0  0  0  0  0  0  0
   36.5800   30.0360   39.5560 N   0  0  0  0  0  0  0  0  0  0  0  0
   35.8040   31.2350   38.0400 H   0  0  0  0  0  0  0  0  0  0  0  0
   37.9660   31.6000   36.9170 H   0  0  0  0  0  0  0  0  0  0  0  0
   39.9970   30.5100   37.9290 H   0  0  0  0  0  0  0  0  0  0  0  0
   36.9560   25.0740   42.1090 C   0  0  0  0  0  0  0  0  0  0  0  0
   36.0560   24.6430   41.7040 H   0  0  0  0  0  0  0  0  0  0  0  0
   37.8280   24.2400   42.4210 O   0  0  0  0  0  0  0  0  0  0  0  0
  1  2  1  0  0  0  0
  2  3  2  0  0  0  0
  2  7  1  0  0  0  0
  3  4  1  0  0  0  0
  4  8  1  0  0  0  0
  4  5  2  0  0  0  0
  5  9  1  0  0  0  0
  6  5  1  0  0  0  0
  6 10  1  0  0  0  0
  7  6  2  0  0  0  0
 11 16  1  0  0  0  0
 12 13  1  0  0  0  0
 12 11  2  0  0  0  0
 13 14  2  0  0  0  0
 14 15  1  0  0  0  0
 15  3  1  0  0  0  0
 16 15  2  0  0  0  0
 17 11  1  0  0  0  0
 18 12  1  0  0  0  0
 19 13  1  0  0  0  0
 20  7  1  0  0  0  0
 20 22  2  0  0  0  0
 21 20  1  0  0  0  0
M  END
>  <minimizedAffinity>
-4.21656561

$$$$

 OpenBabel03242510103D

 22 23  0  0  0  0  0  0  0  0999 V2000
   36.4040   27.1650   39.2690 Br  0  0  0  0  0  0  0  0  0  0  0  0
   37.0630   27.4890   41.0340 C   0  0  0  0  0  0  0  0  0  0  0  0
   37.7920   26.5180   41.6910 C   0  0  0  0  0  0  0  0  0  0  0  0
   38.2860   26.7290   42.9850 C   0  0  0  0  0  0  0  0  0  0  0  0
   38.0250   27.9340   43.5800 C   0  0  0  0  0  0  0  0  0  0  0  0
   37.2950   28.8840   42.8960 C   0  0  0  0  0  0  0  0  0  0  0  0
   36.8150   28.6890   41.6520 C   0  0  0  0  0  0  0  0  0  0  0  0
   38.8620   25.9370   43.4800 H   0  0  0  0  0  0  0  0  0  0  0  0
   38.3960   28.1180   44.5740 H   0  0  0  0  0  0  0  0  0  0  0  0
   37.1060   29.8270   43.3980 H   0  0  0  0  0  0  0  0  0  0  0  0
   37.3900   23.0610   40.5680 C   0  0  0  0  0  0  0  0  0  0  0  0
   38.4990   22.8410   39.7360 C   0  0  0  0  0  0  0  0  0  0  0  0
   39.3900   23.9220   39.5730 C   0  0  0  0  0  0  0  0  0  0  0  0
   39.1330   25.0900   40.2170 N   0  0  0  0  0  0  0  0  0  0  0  0
   38.0420   25.2520   41.0130 C   0  0  0  0  0  0  0  0  0  0  0  0
   37.1850   24.2310   41.1750 N   0  0  0  0  0  0  0  0  0  0  0  0
   36.6880   22.2610   40.7150 H   0  0  0  0  0  0  0  0  0  0  0  0
   38.6370   21.8780   39.2560 H   0  0  0  0  0  0  0  0  0  0  0  0
   40.2470   23.7870   38.9460 H   0  0  0  0  0  0  0  0  0  0  0  0
   36.0420   29.6900   40.9260 C   0  0  0  0  0  0  0  0  0  0  0  0
   35.3750   29.4670   40.1100 H   0  0  0  0  0  0  0  0  0  0  0  0
   36.1100   30.9020   41.2150 O   0  0  0  0  0  0  0  0  0  0  0  0
  1  2  1  0  0  0  0
  2  7  2  0  0  0  0
  2  3  1  0  0  0  0
  3  4  2  0  0  0  0
  4  8  1  0  0  0  0
  4  5  1  0  0  0  0
  5  9  1  0  0  0  0
  6 10  1  0  0  0  0
  6  5  2  0  0  0  0
  7  6  1  0  0  0  0
 11 17  1  0  0  0  0
 11 16  1  0  0  0  0
 12 11  2  0  0  0  0
 13 12  1  0  0  0  0
 13 14  2  0  0  0  0
 14 15  1  0  0  0  0
 15 16  2  0  0  0  0
 15  3  1  0  0  0  0
 18 12  1  0  0  0  0
 19 13  1  0  0  0  0
 20 22  2  0  0  0  0
 20  7  1  0  0  0  0
 21 20  1  0  0  0  0
M  END
>  <minimizedAffinity>
-4.16097355

$$$$

 OpenBabel03242510103D

 22 23  0  0  0  0  0  0  0  0999 V2000
   40.4350   29.6780   41.2800 Br  0  0  0  0  0  0  0  0  0  0  0  0
   38.9010   28.7610   41.9580 C   0  0  0  0  0  0  0  0  0  0  0  0
   37.6440   29.0650   41.4780 C   0  0  0  0  0  0  0  0  0  0  0  0
   36.5020   28.4090   41.9580 C   0  0  0  0  0  0  0  0  0  0  0  0
   36.6730   27.4520   42.9220 C   0  0  0  0  0  0  0  0  0  0  0  0
   37.9430   27.1710   43.3800 C   0  0  0  0  0  0  0  0  0  0  0  0
   39.0460   27.7970   42.9250 C   0  0  0  0  0  0  0  0  0  0  0  0
   35.5170   28.6740   41.5550 H   0  0  0  0  0  0  0  0  0  0  0  0
   35.8100   26.9340   43.3050 H   0  0  0  0  0  0  0  0  0  0  0  0
   38.0420   26.4070   44.1440 H   0  0  0  0  0  0  0  0  0  0  0  0
   37.4270   30.6620   38.1950 C   0  0  0  0  0  0  0  0  0  0  0  0
   37.2740   32.0260   38.4880 C   0  0  0  0  0  0  0  0  0  0  0  0
   37.2480   32.3790   39.8530 C   0  0  0  0  0  0  0  0  0  0  0  0
   37.3700   31.4010   40.7880 N   0  0  0  0  0  0  0  0  0  0  0  0
   37.5150   30.0930   40.4510 C   0  0  0  0  0  0  0  0  0  0  0  0
   37.5410   29.7420   39.1550 N   0  0  0  0  0  0  0  0  0  0  0  0
   37.4510   30.3540   37.1660 H   0  0  0  0  0  0  0  0  0  0  0  0
   37.1840   32.7480   37.6840 H   0  0  0  0  0  0  0  0  0  0  0  0
   37.1340   33.4120   40.1120 H   0  0  0  0  0  0  0  0  0  0  0  0
   40.3910   27.5030   43.4070 C   0  0  0  0  0  0  0  0  0  0  0  0
   41.0290   28.2190   43.8970 H   0  0  0  0  0  0  0  0  0  0  0  0
   40.8970   26.3700   43.2780 O   0  0  0  0  0  0  0  0  0  0  0  0
  1  2  1  0  0  0  0
  2  7  1  0  0  0  0
  3  2  2  0  0  0  0
  3  4  1  0  0  0  0
  4  5  2  0  0  0  0
  5  9  1  0  0  0  0
  5  6  1  0  0  0  0
  6 10  1  0  0  0  0
  7  6  2  0  0  0  0
  7 20  1  0  0  0  0
  8  4  1  0  0  0  0
 11 12  2  0  0  0  0
 11 16  1  0  0  0  0
 12 13  1  0  0  0  0
 13 19  1  0  0  0  0
 13 14  2  0  0  0  0
 15 14  1  0  0  0  0
 15  3  1  0  0  0  0
 16 15  2  0  0  0  0
 17 11  1  0  0  0  0
 18 12  1  0  0  0  0
 20 21  1  0  0  0  0
 22 20  2  0  0  0  0
M  END
>  <minimizedAffinity>
-4.1582489

$$$$

 OpenBabel03242510103D

 22 23  0  0  0  0  0  0  0  0999 V2000
   37.1810   30.8940   38.9680 Br  0  0  0  0  0  0  0  0  0  0  0  0
   37.6430   30.1800   40.6800 C   0  0  0  0  0  0  0  0  0  0  0  0
   38.6780   30.7330   41.4060 C   0  0  0  0  0  0  0  0  0  0  0  0
   39.0380   30.2280   42.6620 C   0  0  0  0  0  0  0  0  0  0  0  0
   38.3270   29.1650   43.1510 C   0  0  0  0  0  0  0  0  0  0  0  0
   37.2980   28.6350   42.4010 C   0  0  0  0  0  0  0  0  0  0  0  0
   36.9450   29.1140   41.1920 C   0  0  0  0  0  0  0  0  0  0  0  0
   39.8660   30.6900   43.2140 H   0  0  0  0  0  0  0  0  0  0  0  0
   38.5860   28.7610   44.1150 H   0  0  0  0  0  0  0  0  0  0  0  0
   36.7560   27.7930   42.8190 H   0  0  0  0  0  0  0  0  0  0  0  0
   39.5670   34.1610   40.4950 C   0  0  0  0  0  0  0  0  0  0  0  0
   40.7640   34.0240   39.7750 C   0  0  0  0  0  0  0  0  0  0  0  0
   41.2560   32.7120   39.6120 C   0  0  0  0  0  0  0  0  0  0  0  0
   40.5600   31.6770   40.1500 N   0  0  0  0  0  0  0  0  0  0  0  0
   39.4030   31.8640   40.8400 C   0  0  0  0  0  0  0  0  0  0  0  0
   38.9240   33.1080   41.0030 N   0  0  0  0  0  0  0  0  0  0  0  0
   39.1620   35.1450   40.6400 H   0  0  0  0  0  0  0  0  0  0  0  0
   41.2630   34.9010   39.3750 H   0  0  0  0  0  0  0  0  0  0  0  0
   42.1670   32.5720   39.0680 H   0  0  0  0  0  0  0  0  0  0  0  0
   35.8570   28.5570   40.3960 C   0  0  0  0  0  0  0  0  0  0  0  0
   35.9810   27.7830   39.6570 H   0  0  0  0  0  0  0  0  0  0  0  0
   34.6830   28.9560   40.5270 O   0  0  0  0  0  0  0  0  0  0  0  0
  1  2  1  0  0  0  0
  2  7  2  0  0  0  0
  2  3  1  0  0  0  0
  3  4  2  0  0  0  0
  4  5  1  0  0  0  0
  4  8  1  0  0  0  0
  5  9  1  0  0  0  0
  6 10  1  0  0  0  0
  6  5  2  0  0  0  0
  7  6  1  0  0  0  0
 11 17  1  0  0  0  0
 11 16  1  0  0  0  0
 12 11  2  0  0  0  0
 13 12  1  0  0  0  0
 13 14  2  0  0  0  0
 14 15  1  0  0  0  0
 15 16  2  0  0  0  0
 15  3  1  0  0  0  0
 18 12  1  0  0  0  0
 19 13  1  0  0  0  0
 20 22  2  0  0  0  0
 20  7  1  0  0  0  0
 21 20  1  0  0  0  0
M  END
>  <minimizedAffinity>
-4.12186289

$$$$

 OpenBabel03242510103D

 22 23  0  0  0  0  0  0  0  0999 V2000
   37.6500   27.6760   38.8680 Br  0  0  0  0  0  0  0  0  0  0  0  0
   37.4440   29.5580   39.1330 C   0  0  0  0  0  0  0  0  0  0  0  0
   37.4730   30.0850   40.4080 C   0  0  0  0  0  0  0  0  0  0  0  0
   37.3240   31.4610   40.6310 C   0  0  0  0  0  0  0  0  0  0  0  0
   37.1490   32.2700   39.5400 C   0  0  0  0  0  0  0  0  0  0  0  0
   37.1260   31.7110   38.2800 C   0  0  0  0  0  0  0  0  0  0  0  0
   37.2680   30.3900   38.0560 C   0  0  0  0  0  0  0  0  0  0  0  0
   37.3510   31.8480   41.6570 H   0  0  0  0  0  0  0  0  0  0  0  0
   37.0340   33.3300   39.6880 H   0  0  0  0  0  0  0  0  0  0  0  0
   36.9860   32.3820   37.4380 H   0  0  0  0  0  0  0  0  0  0  0  0
   39.0900   28.1950   43.0890 C   0  0  0  0  0  0  0  0  0  0  0  0
   38.0410   27.4690   43.6760 C   0  0  0  0  0  0  0  0  0  0  0  0
   36.7580   27.6520   43.1180 C   0  0  0  0  0  0  0  0  0  0  0  0
   36.6120   28.5000   42.0680 N   0  0  0  0  0  0  0  0  0  0  0  0
   37.6620   29.1800   41.5360 C   0  0  0  0  0  0  0  0  0  0  0  0
   38.8880   29.0170   42.0580 N   0  0  0  0  0  0  0  0  0  0  0  0
   40.0810   28.0830   43.4870 H   0  0  0  0  0  0  0  0  0  0  0  0
   38.2380   26.8100   44.5140 H   0  0  0  0  0  0  0  0  0  0  0  0
   35.9360   27.1120   43.5420 H   0  0  0  0  0  0  0  0  0  0  0  0
   37.2440   29.7960   36.7240 C   0  0  0  0  0  0  0  0  0  0  0  0
   37.6370   28.8210   36.4870 H   0  0  0  0  0  0  0  0  0  0  0  0
   36.7500   30.3990   35.7500 O   0  0  0  0  0  0  0  0  0  0  0  0
  1  2  1  0  0  0  0
  2  3  1  0  0  0  0
  3  4  2  0  0  0  0
  3 15  1  0  0  0  0
  4  8  1  0  0  0  0
  5  9  1  0  0  0  0
  5  4  1  0  0  0  0
  6  5  2  0  0  0  0
  7  6  1  0  0  0  0
  7  2  2  0  0  0  0
 10  6  1  0  0  0  0
 11 17  1  0  0  0  0
 11 12  1  0  0  0  0
 12 18  1  0  0  0  0
 13 19  1  0  0  0  0
 13 12  2  0  0  0  0
 14 13  1  0  0  0  0
 15 16  1  0  0  0  0
 15 14  2  0  0  0  0
 16 11  2  0  0  0  0
 20  7  1  0  0  0  0
 21 20  1  0  0  0  0
 22 20  2  0  0  0  0
M  END
>  <minimizedAffinity>
-4.07426691

$$$$
