
 OpenBabel03242523193D

 31 33  0  0  0  0  0  0  0  0999 V2000
   47.4680   32.8120   43.9470 C   0  0  0  0  0  0  0  0  0  0  0  0
   48.3150   33.3490   43.0580 C   0  0  0  0  0  0  0  0  0  0  0  0
   49.1640   32.4440   42.4550 C   0  0  0  0  0  0  0  0  0  0  0  0
   49.0680   31.0920   42.8180 N   0  0  0  0  0  0  0  0  0  0  0  0
   48.2140   30.6360   43.7010 C   0  0  0  0  0  0  0  0  0  0  0  0
   47.3460   31.5120   44.3240 N   0  0  0  0  0  0  0  0  0  0  0  0
   49.9170   32.7020   41.7050 H   0  0  0  0  0  0  0  0  0  0  0  0
   48.2570   29.5670   43.8810 H   0  0  0  0  0  0  0  0  0  0  0  0
   48.4870   34.7310   42.7830 C   0  0  0  0  0  0  0  0  0  0  0  0
   49.5220   35.3450   42.1500 C   0  0  0  0  0  0  0  0  0  0  0  0
   48.3110   35.1860   41.2720 C   0  0  0  0  0  0  0  0  0  0  0  0
   47.9980   35.3970   43.5200 H   0  0  0  0  0  0  0  0  0  0  0  0
   50.3950   34.7240   41.7910 H   0  0  0  0  0  0  0  0  0  0  0  0
   49.8680   36.4050   42.2140 H   0  0  0  0  0  0  0  0  0  0  0  0
   48.2600   34.3420   40.5750 H   0  0  0  0  0  0  0  0  0  0  0  0
   47.6450   36.0440   41.1310 H   0  0  0  0  0  0  0  0  0  0  0  0
   46.3960   33.5160   44.6650 C   0  0  0  0  0  0  0  0  0  0  0  0
   45.8250   33.8790   45.6630 O   0  0  0  0  0  0  0  0  0  0  0  0
   44.5570   31.7190   42.9650 Cl  0  0  0  0  0  0  0  0  0  0  0  0
   44.5900   33.4770   42.8020 C   0  0  0  0  0  0  0  0  0  0  0  0
   45.4860   34.1430   43.6650 C   0  0  0  0  0  0  0  0  0  0  0  0
   45.4320   35.5130   43.4550 C   0  0  0  0  0  0  0  0  0  0  0  0
   44.6920   36.2230   42.5940 C   0  0  0  0  0  0  0  0  0  0  0  0
   43.8520   35.5010   41.7930 C   0  0  0  0  0  0  0  0  0  0  0  0
   43.7870   34.1570   41.8810 C   0  0  0  0  0  0  0  0  0  0  0  0
   46.0530   36.1920   44.0790 H   0  0  0  0  0  0  0  0  0  0  0  0
   44.6880   37.2880   42.4660 H   0  0  0  0  0  0  0  0  0  0  0  0
   43.1880   35.9170   41.0470 H   0  0  0  0  0  0  0  0  0  0  0  0
   42.9090   33.3240   41.0570 C   0  0  0  0  0  0  0  0  0  0  0  0
   43.2450   32.7780   40.2030 H   0  0  0  0  0  0  0  0  0  0  0  0
   41.7020   33.1880   41.2910 O   0  0  0  0  0  0  0  0  0  0  0  0
  1  6  1  0  0  0  0
  1 17  1  0  0  0  0
  2  1  2  0  0  0  0
  3  4  2  0  0  0  0
  3  2  1  0  0  0  0
  4  5  1  0  0  0  0
  5  8  1  0  0  0  0
  5  6  2  0  0  0  0
  7  3  1  0  0  0  0
  9  2  1  0  0  0  0
  9 12  1  0  0  0  0
 10 14  1  0  0  0  0
 10  9  1  0  0  0  0
 11 10  1  0  0  0  0
 11  9  1  0  0  0  0
 13 10  1  0  0  0  0
 15 11  1  0  0  0  0
 16 11  1  0  0  0  0
 17 18  2  0  0  0  0
 20 19  1  0  0  0  0
 20 21  1  0  0  0  0
 21 17  1  0  0  0  0
 22 21  2  0  0  0  0
 22 26  1  0  0  0  0
 23 22  1  0  0  0  0
 24 25  1  0  0  0  0
 24 23  2  0  0  0  0
 25 20  2  0  0  0  0
 27 23  1  0  0  0  0
 28 24  1  0  0  0  0
 29 31  2  0  0  0  0
 29 25  1  0  0  0  0
 30 29  1  0  0  0  0
M  END
>  <minimizedAffinity>
-4.99142838

>  <minimizedRMSD>
0.219751939

$$$$
