
 OpenBabel03242523193D

 31 33  0  0  0  0  0  0  0  0999 V2000
   47.3910   32.8100   44.0330 C   0  0  0  0  0  0  0  0  0  0  0  0
   48.2420   33.3100   43.1250 C   0  0  0  0  0  0  0  0  0  0  0  0
   49.0880   32.3800   42.5590 C   0  0  0  0  0  0  0  0  0  0  0  0
   48.9860   31.0430   42.9730 N   0  0  0  0  0  0  0  0  0  0  0  0
   48.1300   30.6240   43.8720 C   0  0  0  0  0  0  0  0  0  0  0  0
   47.2640   31.5260   44.4590 N   0  0  0  0  0  0  0  0  0  0  0  0
   49.8430   32.6050   41.8000 H   0  0  0  0  0  0  0  0  0  0  0  0
   48.1690   29.5630   44.0920 H   0  0  0  0  0  0  0  0  0  0  0  0
   48.4180   34.6800   42.7980 C   0  0  0  0  0  0  0  0  0  0  0  0
   49.4450   35.2620   42.1210 C   0  0  0  0  0  0  0  0  0  0  0  0
   48.2140   35.0830   41.2750 C   0  0  0  0  0  0  0  0  0  0  0  0
   47.9520   35.3760   43.5210 H   0  0  0  0  0  0  0  0  0  0  0  0
   50.3050   34.6200   41.7660 H   0  0  0  0  0  0  0  0  0  0  0  0
   49.8010   36.3200   42.1400 H   0  0  0  0  0  0  0  0  0  0  0  0
   48.1410   34.2150   40.6100 H   0  0  0  0  0  0  0  0  0  0  0  0
   47.5520   35.9410   41.1180 H   0  0  0  0  0  0  0  0  0  0  0  0
   46.3210   33.5450   44.7220 C   0  0  0  0  0  0  0  0  0  0  0  0
   45.7400   33.9340   45.7040 O   0  0  0  0  0  0  0  0  0  0  0  0
   44.5720   31.7510   42.9270 Cl  0  0  0  0  0  0  0  0  0  0  0  0
   44.5870   33.5110   42.7910 C   0  0  0  0  0  0  0  0  0  0  0  0
   45.4410   34.1750   43.6970 C   0  0  0  0  0  0  0  0  0  0  0  0
   45.3770   35.5470   43.5060 C   0  0  0  0  0  0  0  0  0  0  0  0
   44.6600   36.2600   42.6270 C   0  0  0  0  0  0  0  0  0  0  0  0
   43.8600   35.5400   41.7850 C   0  0  0  0  0  0  0  0  0  0  0  0
   43.8110   34.1930   41.8500 C   0  0  0  0  0  0  0  0  0  0  0  0
   45.9640   36.2250   44.1620 H   0  0  0  0  0  0  0  0  0  0  0  0
   44.6470   37.3270   42.5150 H   0  0  0  0  0  0  0  0  0  0  0  0
   43.2200   35.9590   41.0200 H   0  0  0  0  0  0  0  0  0  0  0  0
   42.9760   33.3620   40.9820 C   0  0  0  0  0  0  0  0  0  0  0  0
   42.7870   32.3260   41.1600 H   0  0  0  0  0  0  0  0  0  0  0  0
   42.4210   33.8020   39.9680 O   0  0  0  0  0  0  0  0  0  0  0  0
  1  6  1  0  0  0  0
  1 17  1  0  0  0  0
  2  1  2  0  0  0  0
  3  4  2  0  0  0  0
  3  2  1  0  0  0  0
  4  5  1  0  0  0  0
  5  8  1  0  0  0  0
  5  6  2  0  0  0  0
  7  3  1  0  0  0  0
  9  2  1  0  0  0  0
  9 12  1  0  0  0  0
 10 14  1  0  0  0  0
 10  9  1  0  0  0  0
 11 10  1  0  0  0  0
 11  9  1  0  0  0  0
 13 10  1  0  0  0  0
 15 11  1  0  0  0  0
 16 11  1  0  0  0  0
 17 18  2  0  0  0  0
 20 19  1  0  0  0  0
 20 21  1  0  0  0  0
 21 17  1  0  0  0  0
 22 21  2  0  0  0  0
 22 26  1  0  0  0  0
 23 22  1  0  0  0  0
 24 25  1  0  0  0  0
 24 23  2  0  0  0  0
 25 20  2  0  0  0  0
 27 23  1  0  0  0  0
 28 24  1  0  0  0  0
 29 30  1  0  0  0  0
 29 25  1  0  0  0  0
 31 29  2  0  0  0  0
M  END
>  <minimizedAffinity>
-4.97711229

>  <minimizedRMSD>
0.401681334

$$$$
