
 OpenBabel03242523193D

 31 33  0  0  0  0  0  0  0  0999 V2000
   47.5110   32.8300   43.9140 C   0  0  0  0  0  0  0  0  0  0  0  0
   48.3450   33.3810   43.0210 C   0  0  0  0  0  0  0  0  0  0  0  0
   49.2010   32.4890   42.4090 C   0  0  0  0  0  0  0  0  0  0  0  0
   49.1230   31.1340   42.7660 N   0  0  0  0  0  0  0  0  0  0  0  0
   48.2810   30.6640   43.6540 C   0  0  0  0  0  0  0  0  0  0  0  0
   47.4080   31.5270   44.2870 N   0  0  0  0  0  0  0  0  0  0  0  0
   49.9450   32.7590   41.6540 H   0  0  0  0  0  0  0  0  0  0  0  0
   48.3400   29.5950   43.8290 H   0  0  0  0  0  0  0  0  0  0  0  0
   48.4970   34.7660   42.7510 C   0  0  0  0  0  0  0  0  0  0  0  0
   49.5290   35.3980   42.1290 C   0  0  0  0  0  0  0  0  0  0  0  0
   48.3300   35.2220   41.2390 C   0  0  0  0  0  0  0  0  0  0  0  0
   47.9910   35.4230   43.4840 H   0  0  0  0  0  0  0  0  0  0  0  0
   50.4160   34.7910   41.7780 H   0  0  0  0  0  0  0  0  0  0  0  0
   49.8580   36.4620   42.1990 H   0  0  0  0  0  0  0  0  0  0  0  0
   48.2990   34.3780   40.5390 H   0  0  0  0  0  0  0  0  0  0  0  0
   47.6520   36.0690   41.0920 H   0  0  0  0  0  0  0  0  0  0  0  0
   46.4350   33.5180   44.6430 C   0  0  0  0  0  0  0  0  0  0  0  0
   45.8670   33.8690   45.6460 O   0  0  0  0  0  0  0  0  0  0  0  0
   44.5860   31.7090   42.9660 Cl  0  0  0  0  0  0  0  0  0  0  0  0
   44.6090   33.4670   42.8000 C   0  0  0  0  0  0  0  0  0  0  0  0
   45.5110   34.1390   43.6520 C   0  0  0  0  0  0  0  0  0  0  0  0
   45.4490   35.5080   43.4410 C   0  0  0  0  0  0  0  0  0  0  0  0
   44.6950   36.2130   42.5860 C   0  0  0  0  0  0  0  0  0  0  0  0
   43.8500   35.4860   41.7960 C   0  0  0  0  0  0  0  0  0  0  0  0
   43.7920   34.1410   41.8870 C   0  0  0  0  0  0  0  0  0  0  0  0
   46.0720   36.1910   44.0560 H   0  0  0  0  0  0  0  0  0  0  0  0
   44.6850   37.2780   42.4570 H   0  0  0  0  0  0  0  0  0  0  0  0
   43.1760   35.8970   41.0570 H   0  0  0  0  0  0  0  0  0  0  0  0
   42.9090   33.3020   41.0740 C   0  0  0  0  0  0  0  0  0  0  0  0
   43.2450   32.7320   40.2370 H   0  0  0  0  0  0  0  0  0  0  0  0
   41.6990   33.1920   41.3000 O   0  0  0  0  0  0  0  0  0  0  0  0
  1  6  1  0  0  0  0
  1 17  1  0  0  0  0
  2  1  2  0  0  0  0
  3  4  2  0  0  0  0
  3  2  1  0  0  0  0
  4  5  1  0  0  0  0
  5  8  1  0  0  0  0
  5  6  2  0  0  0  0
  7  3  1  0  0  0  0
  9  2  1  0  0  0  0
  9 12  1  0  0  0  0
 10 14  1  0  0  0  0
 10  9  1  0  0  0  0
 11 10  1  0  0  0  0
 11  9  1  0  0  0  0
 13 10  1  0  0  0  0
 15 11  1  0  0  0  0
 16 11  1  0  0  0  0
 17 18  2  0  0  0  0
 20 19  1  0  0  0  0
 20 21  1  0  0  0  0
 21 17  1  0  0  0  0
 22 21  2  0  0  0  0
 22 26  1  0  0  0  0
 23 22  1  0  0  0  0
 24 25  1  0  0  0  0
 24 23  2  0  0  0  0
 25 20  2  0  0  0  0
 27 23  1  0  0  0  0
 28 24  1  0  0  0  0
 29 31  2  0  0  0  0
 29 25  1  0  0  0  0
 30 29  1  0  0  0  0
M  END
>  <minimizedAffinity>
-4.99094296

>  <minimizedRMSD>
0.315519303

$$$$
