
 OpenBabel03242510083D

 22 23  0  0  0  0  0  0  0  0999 V2000
   44.6600   33.1350   41.1330 Br  0  0  0  0  0  0  0  0  0  0  0  0
   46.3450   34.0100   40.9100 C   0  0  0  0  0  0  0  0  0  0  0  0
   46.8760   34.7640   41.9360 C   0  0  0  0  0  0  0  0  0  0  0  0
   48.1080   35.4160   41.7990 C   0  0  0  0  0  0  0  0  0  0  0  0
   48.7750   35.2810   40.6110 C   0  0  0  0  0  0  0  0  0  0  0  0
   48.2180   34.5190   39.6060 C   0  0  0  0  0  0  0  0  0  0  0  0
   47.0330   33.8880   39.7280 C   0  0  0  0  0  0  0  0  0  0  0  0
   48.5020   36.0090   42.6350 H   0  0  0  0  0  0  0  0  0  0  0  0
   49.7240   35.7720   40.4840 H   0  0  0  0  0  0  0  0  0  0  0  0
   48.7730   34.4330   38.6780 H   0  0  0  0  0  0  0  0  0  0  0  0
   45.6240   34.0360   45.2950 C   0  0  0  0  0  0  0  0  0  0  0  0
   44.7140   35.0730   45.5520 C   0  0  0  0  0  0  0  0  0  0  0  0
   44.5450   36.0320   44.5320 C   0  0  0  0  0  0  0  0  0  0  0  0
   45.2560   35.9020   43.3820 N   0  0  0  0  0  0  0  0  0  0  0  0
   46.1260   34.8770   43.1820 C   0  0  0  0  0  0  0  0  0  0  0  0
   46.2970   33.9570   44.1460 N   0  0  0  0  0  0  0  0  0  0  0  0
   45.7800   33.2870   46.0490 H   0  0  0  0  0  0  0  0  0  0  0  0
   44.1820   35.1080   46.4970 H   0  0  0  0  0  0  0  0  0  0  0  0
   43.8570   36.8370   44.6960 H   0  0  0  0  0  0  0  0  0  0  0  0
   46.4410   33.0820   38.6670 C   0  0  0  0  0  0  0  0  0  0  0  0
   45.8250   32.2150   38.8360 H   0  0  0  0  0  0  0  0  0  0  0  0
   46.6170   33.3590   37.4630 O   0  0  0  0  0  0  0  0  0  0  0  0
  2  1  1  0  0  0  0
  2  3  1  0  0  0  0
  3 15  1  0  0  0  0
  4  3  2  0  0  0  0
  4  8  1  0  0  0  0
  5  4  1  0  0  0  0
  6  7  1  0  0  0  0
  6  5  2  0  0  0  0
  7  2  2  0  0  0  0
  9  5  1  0  0  0  0
 10  6  1  0  0  0  0
 11 12  1  0  0  0  0
 11 17  1  0  0  0  0
 12 18  1  0  0  0  0
 13 19  1  0  0  0  0
 13 12  2  0  0  0  0
 14 13  1  0  0  0  0
 15 14  2  0  0  0  0
 15 16  1  0  0  0  0
 16 11  2  0  0  0  0
 20 21  1  0  0  0  0
 20  7  1  0  0  0  0
 22 20  2  0  0  0  0
M  END
>  <minimizedAffinity>
-5.08008575

>  <minimizedRMSD>
0.539367378

$$$$
