
 OpenBabel03242523193D

 31 33  0  0  0  0  0  0  0  0999 V2000
   47.3910   32.8100   44.0330 C   0  0  0  0  0  0  0  0  0  0  0  0
   48.2410   33.3100   43.1250 C   0  0  0  0  0  0  0  0  0  0  0  0
   49.0880   32.3790   42.5600 C   0  0  0  0  0  0  0  0  0  0  0  0
   48.9860   31.0420   42.9740 N   0  0  0  0  0  0  0  0  0  0  0  0
   48.1290   30.6230   43.8730 C   0  0  0  0  0  0  0  0  0  0  0  0
   47.2640   31.5260   44.4610 N   0  0  0  0  0  0  0  0  0  0  0  0
   49.8420   32.6040   41.8010 H   0  0  0  0  0  0  0  0  0  0  0  0
   48.1690   29.5620   44.0940 H   0  0  0  0  0  0  0  0  0  0  0  0
   48.4170   34.6790   42.7980 C   0  0  0  0  0  0  0  0  0  0  0  0
   49.4430   35.2610   42.1200 C   0  0  0  0  0  0  0  0  0  0  0  0
   48.2110   35.0820   41.2760 C   0  0  0  0  0  0  0  0  0  0  0  0
   47.9520   35.3750   43.5210 H   0  0  0  0  0  0  0  0  0  0  0  0
   50.3020   34.6190   41.7630 H   0  0  0  0  0  0  0  0  0  0  0  0
   49.7990   36.3190   42.1380 H   0  0  0  0  0  0  0  0  0  0  0  0
   48.1360   34.2140   40.6110 H   0  0  0  0  0  0  0  0  0  0  0  0
   47.5490   35.9400   41.1190 H   0  0  0  0  0  0  0  0  0  0  0  0
   46.3200   33.5450   44.7220 C   0  0  0  0  0  0  0  0  0  0  0  0
   45.7390   33.9330   45.7050 O   0  0  0  0  0  0  0  0  0  0  0  0
   44.5720   31.7510   42.9270 Cl  0  0  0  0  0  0  0  0  0  0  0  0
   44.5870   33.5110   42.7910 C   0  0  0  0  0  0  0  0  0  0  0  0
   45.4400   34.1750   43.6980 C   0  0  0  0  0  0  0  0  0  0  0  0
   45.3760   35.5470   43.5070 C   0  0  0  0  0  0  0  0  0  0  0  0
   44.6590   36.2600   42.6280 C   0  0  0  0  0  0  0  0  0  0  0  0
   43.8600   35.5400   41.7850 C   0  0  0  0  0  0  0  0  0  0  0  0
   43.8110   34.1940   41.8500 C   0  0  0  0  0  0  0  0  0  0  0  0
   45.9630   36.2250   44.1630 H   0  0  0  0  0  0  0  0  0  0  0  0
   44.6460   37.3270   42.5160 H   0  0  0  0  0  0  0  0  0  0  0  0
   43.2200   35.9590   41.0200 H   0  0  0  0  0  0  0  0  0  0  0  0
   42.9760   33.3620   40.9810 C   0  0  0  0  0  0  0  0  0  0  0  0
   42.7880   32.3260   41.1600 H   0  0  0  0  0  0  0  0  0  0  0  0
   42.4210   33.8020   39.9670 O   0  0  0  0  0  0  0  0  0  0  0  0
  1  6  1  0  0  0  0
  1 17  1  0  0  0  0
  2  1  2  0  0  0  0
  3  4  2  0  0  0  0
  3  2  1  0  0  0  0
  4  5  1  0  0  0  0
  5  8  1  0  0  0  0
  5  6  2  0  0  0  0
  7  3  1  0  0  0  0
  9  2  1  0  0  0  0
  9 12  1  0  0  0  0
 10 14  1  0  0  0  0
 10  9  1  0  0  0  0
 11 10  1  0  0  0  0
 11  9  1  0  0  0  0
 13 10  1  0  0  0  0
 15 11  1  0  0  0  0
 16 11  1  0  0  0  0
 17 18  2  0  0  0  0
 20 19  1  0  0  0  0
 20 21  1  0  0  0  0
 21 17  1  0  0  0  0
 22 21  2  0  0  0  0
 22 26  1  0  0  0  0
 23 22  1  0  0  0  0
 24 25  1  0  0  0  0
 24 23  2  0  0  0  0
 25 20  2  0  0  0  0
 27 23  1  0  0  0  0
 28 24  1  0  0  0  0
 29 30  1  0  0  0  0
 29 25  1  0  0  0  0
 31 29  2  0  0  0  0
M  END
>  <minimizedAffinity>
-4.97671318

>  <minimizedRMSD>
0.473434031

$$$$
