
 OpenBabel03242523193D

 31 33  0  0  0  0  0  0  0  0999 V2000
   47.5160   32.8320   43.9110 C   0  0  0  0  0  0  0  0  0  0  0  0
   48.3490   33.3840   43.0170 C   0  0  0  0  0  0  0  0  0  0  0  0
   49.2050   32.4930   42.4040 C   0  0  0  0  0  0  0  0  0  0  0  0
   49.1290   31.1380   42.7610 N   0  0  0  0  0  0  0  0  0  0  0  0
   48.2890   30.6670   43.6500 C   0  0  0  0  0  0  0  0  0  0  0  0
   47.4150   31.5290   44.2840 N   0  0  0  0  0  0  0  0  0  0  0  0
   49.9480   32.7640   41.6480 H   0  0  0  0  0  0  0  0  0  0  0  0
   48.3490   29.5980   43.8240 H   0  0  0  0  0  0  0  0  0  0  0  0
   48.4990   34.7690   42.7470 C   0  0  0  0  0  0  0  0  0  0  0  0
   49.5310   35.4020   42.1260 C   0  0  0  0  0  0  0  0  0  0  0  0
   48.3330   35.2250   41.2350 C   0  0  0  0  0  0  0  0  0  0  0  0
   47.9920   35.4250   43.4800 H   0  0  0  0  0  0  0  0  0  0  0  0
   50.4180   34.7960   41.7750 H   0  0  0  0  0  0  0  0  0  0  0  0
   49.8580   36.4670   42.1960 H   0  0  0  0  0  0  0  0  0  0  0  0
   48.3030   34.3810   40.5350 H   0  0  0  0  0  0  0  0  0  0  0  0
   47.6530   36.0710   41.0880 H   0  0  0  0  0  0  0  0  0  0  0  0
   46.4410   33.5190   44.6410 C   0  0  0  0  0  0  0  0  0  0  0  0
   45.8740   33.8700   45.6450 O   0  0  0  0  0  0  0  0  0  0  0  0
   44.5920   31.7080   42.9670 Cl  0  0  0  0  0  0  0  0  0  0  0  0
   44.6120   33.4650   42.8000 C   0  0  0  0  0  0  0  0  0  0  0  0
   45.5150   34.1380   43.6510 C   0  0  0  0  0  0  0  0  0  0  0  0
   45.4510   35.5070   43.4400 C   0  0  0  0  0  0  0  0  0  0  0  0
   44.6950   36.2110   42.5860 C   0  0  0  0  0  0  0  0  0  0  0  0
   43.8500   35.4840   41.7980 C   0  0  0  0  0  0  0  0  0  0  0  0
   43.7940   34.1390   41.8880 C   0  0  0  0  0  0  0  0  0  0  0  0
   46.0740   36.1920   44.0540 H   0  0  0  0  0  0  0  0  0  0  0  0
   44.6840   37.2760   42.4570 H   0  0  0  0  0  0  0  0  0  0  0  0
   43.1750   35.8940   41.0590 H   0  0  0  0  0  0  0  0  0  0  0  0
   42.9110   33.2990   41.0770 C   0  0  0  0  0  0  0  0  0  0  0  0
   43.2470   32.7230   40.2430 H   0  0  0  0  0  0  0  0  0  0  0  0
   41.6990   33.1940   41.2990 O   0  0  0  0  0  0  0  0  0  0  0  0
  1  6  1  0  0  0  0
  1 17  1  0  0  0  0
  2  1  2  0  0  0  0
  3  4  2  0  0  0  0
  3  2  1  0  0  0  0
  4  5  1  0  0  0  0
  5  8  1  0  0  0  0
  5  6  2  0  0  0  0
  7  3  1  0  0  0  0
  9  2  1  0  0  0  0
  9 12  1  0  0  0  0
 10 14  1  0  0  0  0
 10  9  1  0  0  0  0
 11 10  1  0  0  0  0
 11  9  1  0  0  0  0
 13 10  1  0  0  0  0
 15 11  1  0  0  0  0
 16 11  1  0  0  0  0
 17 18  2  0  0  0  0
 20 19  1  0  0  0  0
 20 21  1  0  0  0  0
 21 17  1  0  0  0  0
 22 21  2  0  0  0  0
 22 26  1  0  0  0  0
 23 22  1  0  0  0  0
 24 25  1  0  0  0  0
 24 23  2  0  0  0  0
 25 20  2  0  0  0  0
 27 23  1  0  0  0  0
 28 24  1  0  0  0  0
 29 31  2  0  0  0  0
 29 25  1  0  0  0  0
 30 29  1  0  0  0  0
M  END
>  <minimizedAffinity>
-4.988276

>  <minimizedRMSD>
0.0709313899

$$$$
