
 OpenBabel03242521213D

 30 32  0  0  0  0  0  0  0  0999 V2000
   45.9680   33.6150   45.0550 C   0  0  0  0  0  0  0  0  0  0  0  0
   45.1420   34.6550   45.3300 C   0  0  0  0  0  0  0  0  0  0  0  0
   44.8050   35.6260   44.4120 C   0  0  0  0  0  0  0  0  0  0  0  0
   45.3470   35.4970   43.1850 N   0  0  0  0  0  0  0  0  0  0  0  0
   46.1630   34.4730   42.9050 C   0  0  0  0  0  0  0  0  0  0  0  0
   46.4970   33.5120   43.8130 N   0  0  0  0  0  0  0  0  0  0  0  0
   44.7220   34.7310   46.3260 H   0  0  0  0  0  0  0  0  0  0  0  0
   44.1500   36.4560   44.6220 H   0  0  0  0  0  0  0  0  0  0  0  0
   46.7530   34.3390   41.5540 C   0  0  0  0  0  0  0  0  0  0  0  0
   46.0840   33.6540   40.5760 C   0  0  0  0  0  0  0  0  0  0  0  0
   46.5770   33.4910   39.2970 C   0  0  0  0  0  0  0  0  0  0  0  0
   47.8120   34.0510   38.9940 C   0  0  0  0  0  0  0  0  0  0  0  0
   48.4770   34.7310   39.9650 C   0  0  0  0  0  0  0  0  0  0  0  0
   47.9880   34.8970   41.2470 C   0  0  0  0  0  0  0  0  0  0  0  0
   45.1240   33.2220   40.8200 H   0  0  0  0  0  0  0  0  0  0  0  0
   45.9810   32.9310   38.5730 H   0  0  0  0  0  0  0  0  0  0  0  0
   48.2160   33.9350   37.9950 H   0  0  0  0  0  0  0  0  0  0  0  0
   49.4360   35.1580   39.7030 H   0  0  0  0  0  0  0  0  0  0  0  0
   48.7370   35.6370   42.2610 C   0  0  0  0  0  0  0  0  0  0  0  0
   48.3960   36.5930   42.5770 H   0  0  0  0  0  0  0  0  0  0  0  0
   49.7770   35.1130   42.7360 O   0  0  0  0  0  0  0  0  0  0  0  0
   46.2180   30.3760   46.7580 C   0  0  0  0  0  0  0  0  0  0  0  0
   46.9020   30.7120   47.9250 C   0  0  0  0  0  0  0  0  0  0  0  0
   47.2800   32.0370   48.1340 C   0  0  0  0  0  0  0  0  0  0  0  0
   46.9590   32.9620   47.1730 N   0  0  0  0  0  0  0  0  0  0  0  0
   46.2960   32.6110   46.0560 C   0  0  0  0  0  0  0  0  0  0  0  0
   45.9340   31.3400   45.8560 N   0  0  0  0  0  0  0  0  0  0  0  0
   45.8910   29.3660   46.5240 H   0  0  0  0  0  0  0  0  0  0  0  0
   47.1270   29.9370   48.6450 H   0  0  0  0  0  0  0  0  0  0  0  0
   47.8140   32.3290   49.0350 H   0  0  0  0  0  0  0  0  0  0  0  0
  1  2  1  0  0  0  0
  1 26  1  0  0  0  0
  2  7  1  0  0  0  0
  3  8  1  0  0  0  0
  3  2  2  0  0  0  0
  4  3  1  0  0  0  0
  5  4  2  0  0  0  0
  5  6  1  0  0  0  0
  6  1  2  0  0  0  0
  9  5  1  0  0  0  0
 10 15  1  0  0  0  0
 10  9  2  0  0  0  0
 11 10  1  0  0  0  0
 12 11  2  0  0  0  0
 12 13  1  0  0  0  0
 13 14  2  0  0  0  0
 14  9  1  0  0  0  0
 14 19  1  0  0  0  0
 16 11  1  0  0  0  0
 17 12  1  0  0  0  0
 18 13  1  0  0  0  0
 19 20  1  0  0  0  0
 19 21  2  0  0  0  0
 22 23  1  0  0  0  0
 23 24  2  0  0  0  0
 23 29  1  0  0  0  0
 24 30  1  0  0  0  0
 25 24  1  0  0  0  0
 26 25  2  0  0  0  0
 27 26  1  0  0  0  0
 27 22  2  0  0  0  0
 28 22  1  0  0  0  0
M  END
>  <minimizedAffinity>
-5.59811497

>  <minimizedRMSD>
0.766222358

$$$$
