
 OpenBabel03242521213D

 30 32  0  0  0  0  0  0  0  0999 V2000
   45.9100   33.7010   44.8890 C   0  0  0  0  0  0  0  0  0  0  0  0
   45.1170   34.7700   45.1480 C   0  0  0  0  0  0  0  0  0  0  0  0
   44.8120   35.7390   44.2160 C   0  0  0  0  0  0  0  0  0  0  0  0
   45.3520   35.5770   42.9930 N   0  0  0  0  0  0  0  0  0  0  0  0
   46.1370   34.5240   42.7280 C   0  0  0  0  0  0  0  0  0  0  0  0
   46.4380   33.5650   43.6500 N   0  0  0  0  0  0  0  0  0  0  0  0
   44.6970   34.8730   46.1420 H   0  0  0  0  0  0  0  0  0  0  0  0
   44.1830   36.5920   44.4140 H   0  0  0  0  0  0  0  0  0  0  0  0
   46.7260   34.3540   41.3810 C   0  0  0  0  0  0  0  0  0  0  0  0
   46.0540   33.6470   40.4210 C   0  0  0  0  0  0  0  0  0  0  0  0
   46.5450   33.4490   39.1460 C   0  0  0  0  0  0  0  0  0  0  0  0
   47.7820   33.9970   38.8290 C   0  0  0  0  0  0  0  0  0  0  0  0
   48.4500   34.6990   39.7820 C   0  0  0  0  0  0  0  0  0  0  0  0
   47.9620   34.8980   41.0590 C   0  0  0  0  0  0  0  0  0  0  0  0
   45.0920   33.2250   40.6760 H   0  0  0  0  0  0  0  0  0  0  0  0
   45.9460   32.8740   38.4370 H   0  0  0  0  0  0  0  0  0  0  0  0
   48.1850   33.8540   37.8320 H   0  0  0  0  0  0  0  0  0  0  0  0
   49.4110   35.1140   39.5090 H   0  0  0  0  0  0  0  0  0  0  0  0
   48.7150   35.6600   42.0540 C   0  0  0  0  0  0  0  0  0  0  0  0
   48.3440   36.5970   42.3940 H   0  0  0  0  0  0  0  0  0  0  0  0
   49.7940   35.1790   42.4840 O   0  0  0  0  0  0  0  0  0  0  0  0
   46.1550   30.4590   46.5860 C   0  0  0  0  0  0  0  0  0  0  0  0
   46.7480   30.8080   47.7990 C   0  0  0  0  0  0  0  0  0  0  0  0
   47.0660   32.1440   48.0400 C   0  0  0  0  0  0  0  0  0  0  0  0
   46.7790   33.0650   47.0650 N   0  0  0  0  0  0  0  0  0  0  0  0
   46.2050   32.7010   45.9040 C   0  0  0  0  0  0  0  0  0  0  0  0
   45.9000   31.4200   45.6730 N   0  0  0  0  0  0  0  0  0  0  0  0
   45.8800   29.4410   46.3260 H   0  0  0  0  0  0  0  0  0  0  0  0
   46.9510   30.0360   48.5280 H   0  0  0  0  0  0  0  0  0  0  0  0
   47.5290   32.4460   48.9770 H   0  0  0  0  0  0  0  0  0  0  0  0
  1  2  1  0  0  0  0
  1 26  1  0  0  0  0
  2  7  1  0  0  0  0
  3  8  1  0  0  0  0
  3  2  2  0  0  0  0
  4  3  1  0  0  0  0
  5  4  2  0  0  0  0
  5  6  1  0  0  0  0
  6  1  2  0  0  0  0
  9  5  1  0  0  0  0
 10 15  1  0  0  0  0
 10  9  2  0  0  0  0
 11 10  1  0  0  0  0
 12 11  2  0  0  0  0
 12 13  1  0  0  0  0
 13 14  2  0  0  0  0
 14  9  1  0  0  0  0
 14 19  1  0  0  0  0
 16 11  1  0  0  0  0
 17 12  1  0  0  0  0
 18 13  1  0  0  0  0
 19 20  1  0  0  0  0
 19 21  2  0  0  0  0
 22 23  1  0  0  0  0
 23 24  2  0  0  0  0
 23 29  1  0  0  0  0
 24 30  1  0  0  0  0
 25 24  1  0  0  0  0
 26 25  2  0  0  0  0
 27 26  1  0  0  0  0
 27 22  2  0  0  0  0
 28 22  1  0  0  0  0
M  END
>  <minimizedAffinity>
-5.61455059

>  <minimizedRMSD>
0.921460271

$$$$
