
 OpenBabel03242521213D

 30 32  0  0  0  0  0  0  0  0999 V2000
   45.9100   33.7000   44.8870 C   0  0  0  0  0  0  0  0  0  0  0  0
   45.1170   34.7690   45.1470 C   0  0  0  0  0  0  0  0  0  0  0  0
   44.8130   35.7380   44.2160 C   0  0  0  0  0  0  0  0  0  0  0  0
   45.3530   35.5770   42.9920 N   0  0  0  0  0  0  0  0  0  0  0  0
   46.1370   34.5240   42.7270 C   0  0  0  0  0  0  0  0  0  0  0  0
   46.4380   33.5650   43.6490 N   0  0  0  0  0  0  0  0  0  0  0  0
   44.6980   34.8720   46.1410 H   0  0  0  0  0  0  0  0  0  0  0  0
   44.1840   36.5920   44.4130 H   0  0  0  0  0  0  0  0  0  0  0  0
   46.7260   34.3540   41.3800 C   0  0  0  0  0  0  0  0  0  0  0  0
   46.0540   33.6470   40.4200 C   0  0  0  0  0  0  0  0  0  0  0  0
   46.5450   33.4500   39.1450 C   0  0  0  0  0  0  0  0  0  0  0  0
   47.7830   33.9980   38.8280 C   0  0  0  0  0  0  0  0  0  0  0  0
   48.4500   34.6990   39.7810 C   0  0  0  0  0  0  0  0  0  0  0  0
   47.9630   34.8990   41.0580 C   0  0  0  0  0  0  0  0  0  0  0  0
   45.0930   33.2250   40.6750 H   0  0  0  0  0  0  0  0  0  0  0  0
   45.9470   32.8750   38.4360 H   0  0  0  0  0  0  0  0  0  0  0  0
   48.1860   33.8550   37.8320 H   0  0  0  0  0  0  0  0  0  0  0  0
   49.4120   35.1150   39.5080 H   0  0  0  0  0  0  0  0  0  0  0  0
   48.7160   35.6610   42.0530 C   0  0  0  0  0  0  0  0  0  0  0  0
   48.3450   36.5980   42.3930 H   0  0  0  0  0  0  0  0  0  0  0  0
   49.7940   35.1790   42.4830 O   0  0  0  0  0  0  0  0  0  0  0  0
   46.1530   30.4580   46.5840 C   0  0  0  0  0  0  0  0  0  0  0  0
   46.7460   30.8060   47.7960 C   0  0  0  0  0  0  0  0  0  0  0  0
   47.0650   32.1410   48.0390 C   0  0  0  0  0  0  0  0  0  0  0  0
   46.7780   33.0630   47.0640 N   0  0  0  0  0  0  0  0  0  0  0  0
   46.2040   32.6990   45.9030 C   0  0  0  0  0  0  0  0  0  0  0  0
   45.8990   31.4190   45.6710 N   0  0  0  0  0  0  0  0  0  0  0  0
   45.8770   29.4390   46.3240 H   0  0  0  0  0  0  0  0  0  0  0  0
   46.9490   30.0330   48.5250 H   0  0  0  0  0  0  0  0  0  0  0  0
   47.5290   32.4430   48.9750 H   0  0  0  0  0  0  0  0  0  0  0  0
  1  2  1  0  0  0  0
  1 26  1  0  0  0  0
  2  7  1  0  0  0  0
  3  8  1  0  0  0  0
  3  2  2  0  0  0  0
  4  3  1  0  0  0  0
  5  4  2  0  0  0  0
  5  6  1  0  0  0  0
  6  1  2  0  0  0  0
  9  5  1  0  0  0  0
 10 15  1  0  0  0  0
 10  9  2  0  0  0  0
 11 10  1  0  0  0  0
 12 11  2  0  0  0  0
 12 13  1  0  0  0  0
 13 14  2  0  0  0  0
 14  9  1  0  0  0  0
 14 19  1  0  0  0  0
 16 11  1  0  0  0  0
 17 12  1  0  0  0  0
 18 13  1  0  0  0  0
 19 20  1  0  0  0  0
 19 21  2  0  0  0  0
 22 23  1  0  0  0  0
 23 24  2  0  0  0  0
 23 29  1  0  0  0  0
 24 30  1  0  0  0  0
 25 24  1  0  0  0  0
 26 25  2  0  0  0  0
 27 26  1  0  0  0  0
 27 22  2  0  0  0  0
 28 22  1  0  0  0  0
M  END
>  <minimizedAffinity>
-5.61497545

>  <minimizedRMSD>
0.979691923

$$$$
