
 OpenBabel03242521213D

 30 32  0  0  0  0  0  0  0  0999 V2000
   45.8850   33.6760   44.8820 C   0  0  0  0  0  0  0  0  0  0  0  0
   45.1080   34.7570   45.1430 C   0  0  0  0  0  0  0  0  0  0  0  0
   44.7920   35.7150   44.2040 C   0  0  0  0  0  0  0  0  0  0  0  0
   45.3030   35.5310   42.9720 N   0  0  0  0  0  0  0  0  0  0  0  0
   46.0710   34.4670   42.7050 C   0  0  0  0  0  0  0  0  0  0  0  0
   46.3840   33.5180   43.6340 N   0  0  0  0  0  0  0  0  0  0  0  0
   44.7110   34.8780   46.1440 H   0  0  0  0  0  0  0  0  0  0  0  0
   44.1750   36.5770   44.4030 H   0  0  0  0  0  0  0  0  0  0  0  0
   46.6290   34.2720   41.3480 C   0  0  0  0  0  0  0  0  0  0  0  0
   45.9180   33.5800   40.4050 C   0  0  0  0  0  0  0  0  0  0  0  0
   46.3790   33.3600   39.1230 C   0  0  0  0  0  0  0  0  0  0  0  0
   47.6250   33.8700   38.7780 C   0  0  0  0  0  0  0  0  0  0  0  0
   48.3310   34.5570   39.7140 C   0  0  0  0  0  0  0  0  0  0  0  0
   47.8750   34.7780   40.9990 C   0  0  0  0  0  0  0  0  0  0  0  0
   44.9500   33.1870   40.6820 H   0  0  0  0  0  0  0  0  0  0  0  0
   45.7500   32.7990   38.4290 H   0  0  0  0  0  0  0  0  0  0  0  0
   48.0040   33.7090   37.7750 H   0  0  0  0  0  0  0  0  0  0  0  0
   49.2990   34.9430   39.4200 H   0  0  0  0  0  0  0  0  0  0  0  0
   48.6680   35.5240   41.9740 C   0  0  0  0  0  0  0  0  0  0  0  0
   48.6510   35.2390   42.9990 H   0  0  0  0  0  0  0  0  0  0  0  0
   49.3580   36.4920   41.5680 O   0  0  0  0  0  0  0  0  0  0  0  0
   46.1640   30.4530   46.6070 C   0  0  0  0  0  0  0  0  0  0  0  0
   46.7590   30.8170   47.8140 C   0  0  0  0  0  0  0  0  0  0  0  0
   47.0680   32.1570   48.0420 C   0  0  0  0  0  0  0  0  0  0  0  0
   46.7680   33.0670   47.0600 N   0  0  0  0  0  0  0  0  0  0  0  0
   46.1920   32.6880   45.9050 C   0  0  0  0  0  0  0  0  0  0  0  0
   45.8970   31.4030   45.6870 N   0  0  0  0  0  0  0  0  0  0  0  0
   45.8950   29.4290   46.3570 H   0  0  0  0  0  0  0  0  0  0  0  0
   46.9720   30.0530   48.5490 H   0  0  0  0  0  0  0  0  0  0  0  0
   47.5320   32.4720   48.9730 H   0  0  0  0  0  0  0  0  0  0  0  0
  1  2  1  0  0  0  0
  1 26  1  0  0  0  0
  2  7  1  0  0  0  0
  3  8  1  0  0  0  0
  3  2  2  0  0  0  0
  4  3  1  0  0  0  0
  5  4  2  0  0  0  0
  5  6  1  0  0  0  0
  6  1  2  0  0  0  0
  9  5  1  0  0  0  0
 10 15  1  0  0  0  0
 10  9  2  0  0  0  0
 11 10  1  0  0  0  0
 12 11  2  0  0  0  0
 12 13  1  0  0  0  0
 13 14  2  0  0  0  0
 14  9  1  0  0  0  0
 14 19  1  0  0  0  0
 16 11  1  0  0  0  0
 17 12  1  0  0  0  0
 18 13  1  0  0  0  0
 19 20  1  0  0  0  0
 21 19  2  0  0  0  0
 22 23  1  0  0  0  0
 23 24  2  0  0  0  0
 23 29  1  0  0  0  0
 24 30  1  0  0  0  0
 25 24  1  0  0  0  0
 26 25  2  0  0  0  0
 27 26  1  0  0  0  0
 27 22  2  0  0  0  0
 28 22  1  0  0  0  0
M  END
>  <minimizedAffinity>
-5.6812129

>  <minimizedRMSD>
0.974280953

$$$$
