
 OpenBabel03242521213D

 30 32  0  0  0  0  0  0  0  0999 V2000
   45.9340   33.5860   45.0370 C   0  0  0  0  0  0  0  0  0  0  0  0
   45.1500   34.6550   45.3230 C   0  0  0  0  0  0  0  0  0  0  0  0
   44.7980   35.6140   44.3970 C   0  0  0  0  0  0  0  0  0  0  0  0
   45.2800   35.4410   43.1520 N   0  0  0  0  0  0  0  0  0  0  0  0
   46.0550   34.3890   42.8600 C   0  0  0  0  0  0  0  0  0  0  0  0
   46.4030   33.4400   43.7770 N   0  0  0  0  0  0  0  0  0  0  0  0
   44.7770   34.7660   46.3340 H   0  0  0  0  0  0  0  0  0  0  0  0
   44.1750   36.4660   44.6160 H   0  0  0  0  0  0  0  0  0  0  0  0
   46.5810   34.2070   41.4890 C   0  0  0  0  0  0  0  0  0  0  0  0
   45.8520   33.5150   40.5590 C   0  0  0  0  0  0  0  0  0  0  0  0
   46.2820   33.3080   39.2640 C   0  0  0  0  0  0  0  0  0  0  0  0
   47.5160   33.8300   38.8920 C   0  0  0  0  0  0  0  0  0  0  0  0
   48.2400   34.5160   39.8150 C   0  0  0  0  0  0  0  0  0  0  0  0
   47.8130   34.7250   41.1130 C   0  0  0  0  0  0  0  0  0  0  0  0
   44.8930   33.1140   40.8570 H   0  0  0  0  0  0  0  0  0  0  0  0
   45.6410   32.7470   38.5820 H   0  0  0  0  0  0  0  0  0  0  0  0
   47.8710   33.6790   37.8790 H   0  0  0  0  0  0  0  0  0  0  0  0
   49.1970   34.9110   39.5000 H   0  0  0  0  0  0  0  0  0  0  0  0
   48.6250   35.4700   42.0730 C   0  0  0  0  0  0  0  0  0  0  0  0
   48.6000   35.2060   43.1030 H   0  0  0  0  0  0  0  0  0  0  0  0
   49.3390   36.4130   41.6480 O   0  0  0  0  0  0  0  0  0  0  0  0
   46.2240   30.3710   46.7770 C   0  0  0  0  0  0  0  0  0  0  0  0
   46.9170   30.7250   47.9330 C   0  0  0  0  0  0  0  0  0  0  0  0
   47.2870   32.0560   48.1220 C   0  0  0  0  0  0  0  0  0  0  0  0
   46.9500   32.9660   47.1540 N   0  0  0  0  0  0  0  0  0  0  0  0
   46.2790   32.5970   46.0470 C   0  0  0  0  0  0  0  0  0  0  0  0
   45.9250   31.3210   45.8660 N   0  0  0  0  0  0  0  0  0  0  0  0
   45.9030   29.3550   46.5590 H   0  0  0  0  0  0  0  0  0  0  0  0
   47.1550   29.9610   48.6600 H   0  0  0  0  0  0  0  0  0  0  0  0
   47.8290   32.3620   49.0140 H   0  0  0  0  0  0  0  0  0  0  0  0
  1  2  1  0  0  0  0
  1 26  1  0  0  0  0
  2  7  1  0  0  0  0
  3  8  1  0  0  0  0
  3  2  2  0  0  0  0
  4  3  1  0  0  0  0
  5  4  2  0  0  0  0
  5  6  1  0  0  0  0
  6  1  2  0  0  0  0
  9  5  1  0  0  0  0
 10 15  1  0  0  0  0
 10  9  2  0  0  0  0
 11 10  1  0  0  0  0
 12 11  2  0  0  0  0
 12 13  1  0  0  0  0
 13 14  2  0  0  0  0
 14  9  1  0  0  0  0
 14 19  1  0  0  0  0
 16 11  1  0  0  0  0
 17 12  1  0  0  0  0
 18 13  1  0  0  0  0
 19 20  1  0  0  0  0
 21 19  2  0  0  0  0
 22 23  1  0  0  0  0
 23 24  2  0  0  0  0
 23 29  1  0  0  0  0
 24 30  1  0  0  0  0
 25 24  1  0  0  0  0
 26 25  2  0  0  0  0
 27 26  1  0  0  0  0
 27 22  2  0  0  0  0
 28 22  1  0  0  0  0
M  END
>  <minimizedAffinity>
-5.66565895

>  <minimizedRMSD>
0.902374446

$$$$
