
 OpenBabel03252508093D

 38 40  0  0  0  0  0  0  0  0999 V2000
   37.7950   30.1150   37.6850 C   0  0  0  0  0  0  0  0  0  0  0  0
   38.0250   29.5940   38.9490 C   0  0  0  0  0  0  0  0  0  0  0  0
   36.9890   29.0430   39.6610 C   0  0  0  0  0  0  0  0  0  0  0  0
   35.7430   29.0370   39.0600 N   0  0  0  0  0  0  0  0  0  0  0  0
   35.5310   29.5390   37.8460 C   0  0  0  0  0  0  0  0  0  0  0  0
   36.5690   30.0780   37.1680 N   0  0  0  0  0  0  0  0  0  0  0  0
   38.5940   30.5620   37.0920 H   0  0  0  0  0  0  0  0  0  0  0  0
   34.5330   29.5100   37.4200 H   0  0  0  0  0  0  0  0  0  0  0  0
   37.0580   28.4780   40.9570 C   0  0  0  0  0  0  0  0  0  0  0  0
   37.2680   29.2200   42.1230 C   0  0  0  0  0  0  0  0  0  0  0  0
   37.4040   28.6710   43.3710 C   0  0  0  0  0  0  0  0  0  0  0  0
   37.3360   27.3020   43.5260 C   0  0  0  0  0  0  0  0  0  0  0  0
   37.1210   26.5310   42.3530 C   0  0  0  0  0  0  0  0  0  0  0  0
   37.0520   25.1690   42.4920 C   0  0  0  0  0  0  0  0  0  0  0  0
   36.8430   24.3580   41.3910 C   0  0  0  0  0  0  0  0  0  0  0  0
   36.6980   24.9430   40.1230 C   0  0  0  0  0  0  0  0  0  0  0  0
   36.7770   26.3450   40.0320 C   0  0  0  0  0  0  0  0  0  0  0  0
   36.9900   27.1210   41.1380 C   0  0  0  0  0  0  0  0  0  0  0  0
   37.3250   30.2950   42.0160 H   0  0  0  0  0  0  0  0  0  0  0  0
   37.5650   29.2960   44.2380 H   0  0  0  0  0  0  0  0  0  0  0  0
   37.4350   26.7940   44.4740 H   0  0  0  0  0  0  0  0  0  0  0  0
   37.1620   24.7240   43.4690 H   0  0  0  0  0  0  0  0  0  0  0  0
   36.8010   23.2910   41.5720 H   0  0  0  0  0  0  0  0  0  0  0  0
   36.5400   24.2340   39.3500 H   0  0  0  0  0  0  0  0  0  0  0  0
   36.6230   26.5930   39.0030 H   0  0  0  0  0  0  0  0  0  0  0  0
   39.3020   29.6560   39.4260 O   0  0  0  0  0  0  0  0  0  0  0  0
   41.3070   30.7540   40.7070 O   0  0  0  0  0  0  0  0  0  0  0  0
   40.0580   31.0710   39.9710 P   0  0  1  0  0  0  0  0  0  0  0  0
   40.4900   32.0690   38.6730 O   0  0  0  0  0  0  0  0  0  0  0  0
   41.0230   31.6090   37.4690 C   0  0  0  0  0  0  0  0  0  0  0  0
   40.5620   32.1570   36.6350 H   0  0  0  0  0  0  0  0  0  0  0  0
   41.8950   30.7050   37.3930 O   0  0  0  0  0  0  0  0  0  0  0  0
   38.9860   31.9000   40.9520 O   0  0  0  0  0  0  0  0  0  0  0  0
   38.2930   33.0600   40.6360 C   0  0  0  0  0  0  0  0  0  0  0  0
   39.0990   33.9770   40.8390 O   0  0  0  0  0  0  0  0  0  0  0  0
   36.9460   32.7500   40.2090 N   0  0  0  0  0  0  0  0  0  0  0  0
   36.9180   32.3160   39.2370 H   0  0  0  0  0  0  0  0  0  0  0  0
   36.0340   32.8910   40.7130 H   0  0  0  0  0  0  0  0  0  0  0  0
  1  2  1  0  0  0  0
  2 26  1  0  0  0  0
  2  3  2  0  0  0  0
  3  9  1  0  0  0  0
  4  3  1  0  0  0  0
  5  4  2  0  0  0  0
  6  1  2  0  0  0  0
  6  5  1  0  0  0  0
  7  1  1  0  0  0  0
  8  5  1  0  0  0  0
  9 18  2  0  0  0  0
  9 10  1  0  0  0  0
 10 11  2  0  0  0  0
 11 12  1  0  0  0  0
 11 20  1  0  0  0  0
 12 21  1  0  0  0  0
 13 14  1  0  0  0  0
 13 12  2  0  0  0  0
 14 22  1  0  0  0  0
 15 23  1  0  0  0  0
 15 14  2  0  0  0  0
 16 15  1  0  0  0  0
 17 16  2  0  0  0  0
 17 18  1  0  0  0  0
 18 13  1  0  0  0  0
 19 10  1  0  0  0  0
 24 16  1  0  0  0  0
 25 17  1  0  0  0  0
 26 28  1  0  0  0  0
 28 27  2  1  0  0  0
 28 33  1  0  0  0  0
 29 28  1  0  0  0  0
 30 29  1  0  0  0  0
 31 30  1  0  0  0  0
 32 30  2  0  0  0  0
 34 35  2  0  0  0  0
 34 33  1  0  0  0  0
 36 34  1  0  0  0  0
 36 38  1  0  0  0  0
 37 36  1  0  0  0  0
M  END
>  <minimizedAffinity>
-5.73105145

$$$$

 OpenBabel03252508093D

 38 40  0  0  0  0  0  0  0  0999 V2000
   42.3380   28.9880   41.3520 C   0  0  0  0  0  0  0  0  0  0  0  0
   40.9710   28.7830   41.4490 C   0  0  0  0  0  0  0  0  0  0  0  0
   40.4630   28.0340   42.4820 C   0  0  0  0  0  0  0  0  0  0  0  0
   41.3680   27.5180   43.3910 N   0  0  0  0  0  0  0  0  0  0  0  0
   42.6790   27.7200   43.2910 C   0  0  0  0  0  0  0  0  0  0  0  0
   43.1520   28.4590   42.2630 N   0  0  0  0  0  0  0  0  0  0  0  0
   42.7770   29.5750   40.5450 H   0  0  0  0  0  0  0  0  0  0  0  0
   43.3470   27.2910   44.0320 H   0  0  0  0  0  0  0  0  0  0  0  0
   39.1010   27.7290   42.7170 C   0  0  0  0  0  0  0  0  0  0  0  0
   38.2150   28.5780   43.3870 C   0  0  0  0  0  0  0  0  0  0  0  0
   36.9140   28.2600   43.6780 C   0  0  0  0  0  0  0  0  0  0  0  0
   36.4110   27.0310   43.3010 C   0  0  0  0  0  0  0  0  0  0  0  0
   37.2960   26.1560   42.6170 C   0  0  0  0  0  0  0  0  0  0  0  0
   36.8100   24.9310   42.2380 C   0  0  0  0  0  0  0  0  0  0  0  0
   37.6170   24.0300   41.5670 C   0  0  0  0  0  0  0  0  0  0  0  0
   38.9440   24.3810   41.2730 C   0  0  0  0  0  0  0  0  0  0  0  0
   39.3970   25.6490   41.6840 C   0  0  0  0  0  0  0  0  0  0  0  0
   38.5760   26.5180   42.3510 C   0  0  0  0  0  0  0  0  0  0  0  0
   38.5960   29.5450   43.6890 H   0  0  0  0  0  0  0  0  0  0  0  0
   36.2750   28.9580   44.1990 H   0  0  0  0  0  0  0  0  0  0  0  0
   35.4000   26.7060   43.4950 H   0  0  0  0  0  0  0  0  0  0  0  0
   35.7890   24.6670   42.4650 H   0  0  0  0  0  0  0  0  0  0  0  0
   37.1700   23.0810   41.2990 H   0  0  0  0  0  0  0  0  0  0  0  0
   39.4730   23.6210   40.7560 H   0  0  0  0  0  0  0  0  0  0  0  0
   40.4100   25.7340   41.3530 H   0  0  0  0  0  0  0  0  0  0  0  0
   40.1850   29.3520   40.4900 O   0  0  0  0  0  0  0  0  0  0  0  0
   39.6830   31.5240   41.8670 O   0  0  0  0  0  0  0  0  0  0  0  0
   39.6910   30.9730   40.4900 P   0  0  1  0  0  0  0  0  0  0  0  0
   40.7480   31.9330   39.5790 O   0  0  0  0  0  0  0  0  0  0  0  0
   40.4100   33.1660   39.0220 C   0  0  0  0  0  0  0  0  0  0  0  0
   40.6370   33.1530   37.9460 H   0  0  0  0  0  0  0  0  0  0  0  0
   39.9220   34.1190   39.6820 O   0  0  0  0  0  0  0  0  0  0  0  0
   38.1650   31.0610   39.8080 O   0  0  0  0  0  0  0  0  0  0  0  0
   37.0310   31.6270   40.3740 C   0  0  0  0  0  0  0  0  0  0  0  0
   36.3180   30.6650   40.6860 O   0  0  0  0  0  0  0  0  0  0  0  0
   37.1260   33.0710   40.3740 N   0  0  0  0  0  0  0  0  0  0  0  0
   37.8210   33.4320   41.0950 H   0  0  0  0  0  0  0  0  0  0  0  0
   36.6210   33.7750   39.7790 H   0  0  0  0  0  0  0  0  0  0  0  0
  1  2  2  0  0  0  0
  1  6  1  0  0  0  0
  2  3  1  0  0  0  0
  3  9  1  0  0  0  0
  3  4  2  0  0  0  0
  5  4  1  0  0  0  0
  5  8  1  0  0  0  0
  6  5  2  0  0  0  0
  7  1  1  0  0  0  0
  9 10  1  0  0  0  0
 10 11  2  0  0  0  0
 10 19  1  0  0  0  0
 11 20  1  0  0  0  0
 12 21  1  0  0  0  0
 12 11  1  0  0  0  0
 13 12  2  0  0  0  0
 14 22  1  0  0  0  0
 14 13  1  0  0  0  0
 15 14  2  0  0  0  0
 16 15  1  0  0  0  0
 16 17  2  0  0  0  0
 17 18  1  0  0  0  0
 18 13  1  0  0  0  0
 18  9  2  0  0  0  0
 23 15  1  0  0  0  0
 24 16  1  0  0  0  0
 25 17  1  0  0  0  0
 26  2  1  0  0  0  0
 28 26  1  0  0  0  0
 28 27  2  1  0  0  0
 29 28  1  0  0  0  0
 30 29  1  0  0  0  0
 30 32  2  0  0  0  0
 31 30  1  0  0  0  0
 33 34  1  0  0  0  0
 33 28  1  0  0  0  0
 34 35  2  0  0  0  0
 36 34  1  0  0  0  0
 36 37  1  0  0  0  0
 38 36  1  0  0  0  0
M  END
>  <minimizedAffinity>
-5.7178874

$$$$

 OpenBabel03252508093D

 38 40  0  0  0  0  0  0  0  0999 V2000
   37.3250   29.6960   37.2410 C   0  0  0  0  0  0  0  0  0  0  0  0
   37.6630   29.2530   38.5100 C   0  0  0  0  0  0  0  0  0  0  0  0
   36.6850   28.8000   39.3610 C   0  0  0  0  0  0  0  0  0  0  0  0
   35.3860   28.8080   38.8880 N   0  0  0  0  0  0  0  0  0  0  0  0
   35.0700   29.2340   37.6680 C   0  0  0  0  0  0  0  0  0  0  0  0
   36.0520   29.6780   36.8530 N   0  0  0  0  0  0  0  0  0  0  0  0
   38.0750   30.0640   36.5410 H   0  0  0  0  0  0  0  0  0  0  0  0
   34.0320   29.2210   37.3470 H   0  0  0  0  0  0  0  0  0  0  0  0
   36.8650   28.3220   40.6810 C   0  0  0  0  0  0  0  0  0  0  0  0
   37.1110   29.1470   41.7830 C   0  0  0  0  0  0  0  0  0  0  0  0
   37.3540   28.6860   43.0500 C   0  0  0  0  0  0  0  0  0  0  0  0
   37.3650   27.3280   43.2930 C   0  0  0  0  0  0  0  0  0  0  0  0
   37.1160   26.4740   42.1850 C   0  0  0  0  0  0  0  0  0  0  0  0
   37.1260   25.1220   42.4120 C   0  0  0  0  0  0  0  0  0  0  0  0
   36.8890   24.2330   41.3780 C   0  0  0  0  0  0  0  0  0  0  0  0
   36.6350   24.7280   40.0890 C   0  0  0  0  0  0  0  0  0  0  0  0
   36.6360   26.1240   39.9080 C   0  0  0  0  0  0  0  0  0  0  0  0
   36.8790   26.9780   40.9480 C   0  0  0  0  0  0  0  0  0  0  0  0
   37.1050   30.2150   41.6080 H   0  0  0  0  0  0  0  0  0  0  0  0
   37.5370   29.3720   43.8650 H   0  0  0  0  0  0  0  0  0  0  0  0
   37.5500   26.8870   44.2610 H   0  0  0  0  0  0  0  0  0  0  0  0
   37.3210   24.7460   43.4040 H   0  0  0  0  0  0  0  0  0  0  0  0
   36.9140   23.1790   41.6270 H   0  0  0  0  0  0  0  0  0  0  0  0
   36.4650   23.9650   39.3740 H   0  0  0  0  0  0  0  0  0  0  0  0
   36.4040   26.2980   38.8790 H   0  0  0  0  0  0  0  0  0  0  0  0
   38.9840   29.2900   38.8530 O   0  0  0  0  0  0  0  0  0  0  0  0
   38.8650   31.8070   39.5730 O   0  0  0  0  0  0  0  0  0  0  0  0
   39.8080   30.6830   39.3550 P   0  0  1  0  0  0  0  0  0  0  0  0
   40.6100   30.4190   40.8230 O   0  0  0  0  0  0  0  0  0  0  0  0
   41.7180   31.1490   41.2580 C   0  0  0  0  0  0  0  0  0  0  0  0
   42.4930   30.4540   41.6110 H   0  0  0  0  0  0  0  0  0  0  0  0
   41.7790   32.4050   41.2310 O   0  0  0  0  0  0  0  0  0  0  0  0
   40.9410   31.0780   38.1880 O   0  0  0  0  0  0  0  0  0  0  0  0
   40.9260   32.1870   37.3550 C   0  0  0  0  0  0  0  0  0  0  0  0
   42.0620   32.6700   37.4490 O   0  0  0  0  0  0  0  0  0  0  0  0
   39.6310   32.3370   36.7270 N   0  0  0  0  0  0  0  0  0  0  0  0
   39.4600   31.6070   35.9700 H   0  0  0  0  0  0  0  0  0  0  0  0
   38.8740   33.0410   36.9150 H   0  0  0  0  0  0  0  0  0  0  0  0
  1  2  1  0  0  0  0
  2 26  1  0  0  0  0
  2  3  2  0  0  0  0
  3  9  1  0  0  0  0
  4  3  1  0  0  0  0
  5  4  2  0  0  0  0
  6  1  2  0  0  0  0
  6  5  1  0  0  0  0
  7  1  1  0  0  0  0
  8  5  1  0  0  0  0
  9 18  2  0  0  0  0
  9 10  1  0  0  0  0
 10 11  2  0  0  0  0
 11 12  1  0  0  0  0
 11 20  1  0  0  0  0
 12 21  1  0  0  0  0
 13 14  1  0  0  0  0
 13 12  2  0  0  0  0
 14 22  1  0  0  0  0
 15 23  1  0  0  0  0
 15 14  2  0  0  0  0
 16 15  1  0  0  0  0
 17 16  2  0  0  0  0
 17 18  1  0  0  0  0
 18 13  1  0  0  0  0
 19 10  1  0  0  0  0
 24 16  1  0  0  0  0
 25 17  1  0  0  0  0
 26 28  1  0  0  0  0
 28 27  2  1  0  0  0
 28 29  1  0  0  0  0
 29 30  1  0  0  0  0
 30 31  1  0  0  0  0
 32 30  2  0  0  0  0
 33 28  1  0  0  0  0
 34 35  2  0  0  0  0
 34 33  1  0  0  0  0
 36 38  1  0  0  0  0
 36 34  1  0  0  0  0
 37 36  1  0  0  0  0
M  END
>  <minimizedAffinity>
-5.57181263

$$$$

 OpenBabel03252508093D

 38 40  0  0  0  0  0  0  0  0999 V2000
   37.1310   29.6490   37.1820 C   0  0  0  0  0  0  0  0  0  0  0  0
   37.5100   29.2130   38.4420 C   0  0  0  0  0  0  0  0  0  0  0  0
   36.5610   28.7470   39.3190 C   0  0  0  0  0  0  0  0  0  0  0  0
   35.2500   28.7360   38.8810 N   0  0  0  0  0  0  0  0  0  0  0  0
   34.8950   29.1560   37.6700 C   0  0  0  0  0  0  0  0  0  0  0  0
   35.8480   29.6130   36.8280 N   0  0  0  0  0  0  0  0  0  0  0  0
   37.8570   30.0280   36.4620 H   0  0  0  0  0  0  0  0  0  0  0  0
   33.8500   29.1280   37.3770 H   0  0  0  0  0  0  0  0  0  0  0  0
   36.7830   28.2730   40.6340 C   0  0  0  0  0  0  0  0  0  0  0  0
   37.0240   29.1040   41.7330 C   0  0  0  0  0  0  0  0  0  0  0  0
   37.3080   28.6490   42.9940 C   0  0  0  0  0  0  0  0  0  0  0  0
   37.3690   27.2910   43.2330 C   0  0  0  0  0  0  0  0  0  0  0  0
   37.1260   26.4320   42.1290 C   0  0  0  0  0  0  0  0  0  0  0  0
   37.1850   25.0800   42.3520 C   0  0  0  0  0  0  0  0  0  0  0  0
   36.9570   24.1860   41.3210 C   0  0  0  0  0  0  0  0  0  0  0  0
   36.6600   24.6750   40.0390 C   0  0  0  0  0  0  0  0  0  0  0  0
   36.6120   26.0700   39.8610 C   0  0  0  0  0  0  0  0  0  0  0  0
   36.8470   26.9300   40.8980 C   0  0  0  0  0  0  0  0  0  0  0  0
   36.9800   30.1710   41.5600 H   0  0  0  0  0  0  0  0  0  0  0  0
   37.4850   29.3400   43.8070 H   0  0  0  0  0  0  0  0  0  0  0  0
   37.5880   26.8560   44.1960 H   0  0  0  0  0  0  0  0  0  0  0  0
   37.4120   24.7100   43.3390 H   0  0  0  0  0  0  0  0  0  0  0  0
   37.0210   23.1330   41.5670 H   0  0  0  0  0  0  0  0  0  0  0  0
   36.5010   23.9070   39.3250 H   0  0  0  0  0  0  0  0  0  0  0  0
   36.3530   26.2380   38.8370 H   0  0  0  0  0  0  0  0  0  0  0  0
   38.8380   29.2690   38.7490 O   0  0  0  0  0  0  0  0  0  0  0  0
   41.0200   30.4110   39.6440 O   0  0  0  0  0  0  0  0  0  0  0  0
   39.7010   30.7000   39.0280 P   0  0  1  0  0  0  0  0  0  0  0  0
   40.0020   31.5240   37.5800 O   0  0  0  0  0  0  0  0  0  0  0  0
   41.1720   32.2330   37.3060 C   0  0  0  0  0  0  0  0  0  0  0  0
   41.8440   31.6060   36.7020 H   0  0  0  0  0  0  0  0  0  0  0  0
   41.3850   33.4070   37.7060 O   0  0  0  0  0  0  0  0  0  0  0  0
   38.7850   31.6850   40.0250 O   0  0  0  0  0  0  0  0  0  0  0  0
   38.0580   32.8050   39.6480 C   0  0  0  0  0  0  0  0  0  0  0  0
   36.8840   32.4160   39.5900 O   0  0  0  0  0  0  0  0  0  0  0  0
   38.9290   33.9470   39.4760 N   0  0  0  0  0  0  0  0  0  0  0  0
   39.2820   34.3320   40.4040 H   0  0  0  0  0  0  0  0  0  0  0  0
   39.2440   34.4220   38.5920 H   0  0  0  0  0  0  0  0  0  0  0  0
  1  2  1  0  0  0  0
  2 26  1  0  0  0  0
  2  3  2  0  0  0  0
  3  9  1  0  0  0  0
  4  3  1  0  0  0  0
  5  4  2  0  0  0  0
  6  1  2  0  0  0  0
  6  5  1  0  0  0  0
  7  1  1  0  0  0  0
  8  5  1  0  0  0  0
  9 18  2  0  0  0  0
  9 10  1  0  0  0  0
 10 11  2  0  0  0  0
 11 12  1  0  0  0  0
 11 20  1  0  0  0  0
 12 21  1  0  0  0  0
 13 14  1  0  0  0  0
 13 12  2  0  0  0  0
 14 22  1  0  0  0  0
 15 23  1  0  0  0  0
 15 14  2  0  0  0  0
 16 15  1  0  0  0  0
 17 16  2  0  0  0  0
 17 18  1  0  0  0  0
 18 13  1  0  0  0  0
 19 10  1  0  0  0  0
 24 16  1  0  0  0  0
 25 17  1  0  0  0  0
 26 28  1  0  0  0  0
 28 27  2  1  0  0  0
 28 33  1  0  0  0  0
 29 28  1  0  0  0  0
 30 29  1  0  0  0  0
 30 32  2  0  0  0  0
 31 30  1  0  0  0  0
 34 33  1  0  0  0  0
 35 34  2  0  0  0  0
 36 34  1  0  0  0  0
 36 37  1  0  0  0  0
 38 36  1  0  0  0  0
M  END
>  <minimizedAffinity>
-5.49522114

$$$$

 OpenBabel03252508093D

 38 40  0  0  0  0  0  0  0  0999 V2000
   41.0640   29.3360   39.1710 C   0  0  0  0  0  0  0  0  0  0  0  0
   39.8850   28.9950   39.8140 C   0  0  0  0  0  0  0  0  0  0  0  0
   39.9240   28.4700   41.0820 C   0  0  0  0  0  0  0  0  0  0  0  0
   41.1690   28.3110   41.6610 N   0  0  0  0  0  0  0  0  0  0  0  0
   42.2970   28.6420   41.0370 C   0  0  0  0  0  0  0  0  0  0  0  0
   42.2300   29.1540   39.7880 N   0  0  0  0  0  0  0  0  0  0  0  0
   41.0710   29.7540   38.1640 H   0  0  0  0  0  0  0  0  0  0  0  0
   43.2500   28.4960   41.5360 H   0  0  0  0  0  0  0  0  0  0  0  0
   38.8160   28.0680   41.8670 C   0  0  0  0  0  0  0  0  0  0  0  0
   38.2440   28.8560   42.8700 C   0  0  0  0  0  0  0  0  0  0  0  0
   37.2160   28.4450   43.6790 C   0  0  0  0  0  0  0  0  0  0  0  0
   36.6880   27.1800   43.5230 C   0  0  0  0  0  0  0  0  0  0  0  0
   37.2560   26.3660   42.5070 C   0  0  0  0  0  0  0  0  0  0  0  0
   36.7410   25.1060   42.3420 C   0  0  0  0  0  0  0  0  0  0  0  0
   37.2470   24.2610   41.3700 C   0  0  0  0  0  0  0  0  0  0  0  0
   38.2940   24.7060   40.5480 C   0  0  0  0  0  0  0  0  0  0  0  0
   38.7890   26.0060   40.7570 C   0  0  0  0  0  0  0  0  0  0  0  0
   38.2720   26.8180   41.7300 C   0  0  0  0  0  0  0  0  0  0  0  0
   38.6480   29.8500   43.0050 H   0  0  0  0  0  0  0  0  0  0  0  0
   36.8120   29.0990   44.4390 H   0  0  0  0  0  0  0  0  0  0  0  0
   35.8810   26.7830   44.1200 H   0  0  0  0  0  0  0  0  0  0  0  0
   35.9360   24.7690   42.9750 H   0  0  0  0  0  0  0  0  0  0  0  0
   36.7950   23.2790   41.2960 H   0  0  0  0  0  0  0  0  0  0  0  0
   38.6050   23.9830   39.8370 H   0  0  0  0  0  0  0  0  0  0  0  0
   39.5560   26.1630   40.0290 H   0  0  0  0  0  0  0  0  0  0  0  0
   38.7200   29.2080   39.1350 O   0  0  0  0  0  0  0  0  0  0  0  0
   38.0850   31.3230   37.7270 O   0  0  0  0  0  0  0  0  0  0  0  0
   37.9090   30.6930   39.0580 P   0  0  1  0  0  0  0  0  0  0  0  0
   36.2450   30.4920   39.2940 O   0  0  0  0  0  0  0  0  0  0  0  0
   35.6720   29.9540   40.4470 C   0  0  0  0  0  0  0  0  0  0  0  0
   35.4810   30.7620   41.1680 H   0  0  0  0  0  0  0  0  0  0  0  0
   35.4270   28.7290   40.5970 O   0  0  0  0  0  0  0  0  0  0  0  0
   38.5060   31.6860   40.2670 O   0  0  0  0  0  0  0  0  0  0  0  0
   38.2620   33.0420   40.4260 C   0  0  0  0  0  0  0  0  0  0  0  0
   39.2860   33.4880   40.9610 O   0  0  0  0  0  0  0  0  0  0  0  0
   36.9500   33.3890   39.9240 N   0  0  0  0  0  0  0  0  0  0  0  0
   36.9070   33.3770   38.8610 H   0  0  0  0  0  0  0  0  0  0  0  0
   36.0760   33.6380   40.4520 H   0  0  0  0  0  0  0  0  0  0  0  0
  1  6  2  0  0  0  0
  1  2  1  0  0  0  0
  2  3  2  0  0  0  0
  3  4  1  0  0  0  0
  3  9  1  0  0  0  0
  5  8  1  0  0  0  0
  5  4  2  0  0  0  0
  6  5  1  0  0  0  0
  7  1  1  0  0  0  0
  9 10  1  0  0  0  0
 10 19  1  0  0  0  0
 10 11  2  0  0  0  0
 11 20  1  0  0  0  0
 12 11  1  0  0  0  0
 12 21  1  0  0  0  0
 13 12  2  0  0  0  0
 14 13  1  0  0  0  0
 14 22  1  0  0  0  0
 15 14  2  0  0  0  0
 16 17  2  0  0  0  0
 16 15  1  0  0  0  0
 17 18  1  0  0  0  0
 18  9  2  0  0  0  0
 18 13  1  0  0  0  0
 23 15  1  0  0  0  0
 24 16  1  0  0  0  0
 25 17  1  0  0  0  0
 26  2  1  0  0  0  0
 28 27  2  6  0  0  0
 28 26  1  0  0  0  0
 28 29  1  0  0  0  0
 28 33  1  0  0  0  0
 29 30  1  0  0  0  0
 30 32  2  0  0  0  0
 30 31  1  0  0  0  0
 33 34  1  0  0  0  0
 34 35  2  0  0  0  0
 36 34  1  0  0  0  0
 36 38  1  0  0  0  0
 37 36  1  0  0  0  0
M  END
>  <minimizedAffinity>
-5.48663616

$$$$

 OpenBabel03252508093D

 38 40  0  0  0  0  0  0  0  0999 V2000
   39.9590   28.8060   37.4700 C   0  0  0  0  0  0  0  0  0  0  0  0
   39.0300   28.1520   38.2630 C   0  0  0  0  0  0  0  0  0  0  0  0
   39.4540   27.3190   39.2700 C   0  0  0  0  0  0  0  0  0  0  0  0
   40.8190   27.1820   39.4410 N   0  0  0  0  0  0  0  0  0  0  0  0
   41.7040   27.8140   38.6760 C   0  0  0  0  0  0  0  0  0  0  0  0
   41.2590   28.6250   37.6900 N   0  0  0  0  0  0  0  0  0  0  0  0
   39.6580   29.4720   36.6610 H   0  0  0  0  0  0  0  0  0  0  0  0
   42.7660   27.6700   38.8520 H   0  0  0  0  0  0  0  0  0  0  0  0
   38.6370   26.5800   40.1580 C   0  0  0  0  0  0  0  0  0  0  0  0
   38.1660   25.2900   39.8950 C   0  0  0  0  0  0  0  0  0  0  0  0
   37.3190   24.5960   40.7200 C   0  0  0  0  0  0  0  0  0  0  0  0
   36.8810   25.1760   41.8930 C   0  0  0  0  0  0  0  0  0  0  0  0
   37.3510   26.4860   42.1780 C   0  0  0  0  0  0  0  0  0  0  0  0
   36.9230   27.0740   43.3400 C   0  0  0  0  0  0  0  0  0  0  0  0
   37.3420   28.3480   43.6800 C   0  0  0  0  0  0  0  0  0  0  0  0
   38.2160   29.0370   42.8240 C   0  0  0  0  0  0  0  0  0  0  0  0
   38.6260   28.3900   41.6430 C   0  0  0  0  0  0  0  0  0  0  0  0
   38.1900   27.1310   41.3300 C   0  0  0  0  0  0  0  0  0  0  0  0
   38.5010   24.8230   38.9780 H   0  0  0  0  0  0  0  0  0  0  0  0
   36.9880   23.5990   40.4640 H   0  0  0  0  0  0  0  0  0  0  0  0
   36.2140   24.6960   42.5930 H   0  0  0  0  0  0  0  0  0  0  0  0
   36.2520   26.5410   43.9950 H   0  0  0  0  0  0  0  0  0  0  0  0
   36.9630   28.7530   44.6110 H   0  0  0  0  0  0  0  0  0  0  0  0
   38.4750   30.0010   43.1790 H   0  0  0  0  0  0  0  0  0  0  0  0
   39.2960   29.0590   41.1450 H   0  0  0  0  0  0  0  0  0  0  0  0
   37.7110   28.3780   37.9950 O   0  0  0  0  0  0  0  0  0  0  0  0
   37.1680   30.7590   37.0480 O   0  0  0  0  0  0  0  0  0  0  0  0
   36.9280   29.8650   38.2070 P   0  0  1  0  0  0  0  0  0  0  0  0
   35.2520   29.6590   38.3340 O   0  0  0  0  0  0  0  0  0  0  0  0
   34.4950   28.8340   37.5030 C   0  0  0  0  0  0  0  0  0  0  0  0
   33.6460   28.4270   38.0710 H   0  0  0  0  0  0  0  0  0  0  0  0
   34.7750   28.6150   36.2960 O   0  0  0  0  0  0  0  0  0  0  0  0
   37.4910   30.5640   39.6200 O   0  0  0  0  0  0  0  0  0  0  0  0
   36.8250   31.4840   40.4170 C   0  0  0  0  0  0  0  0  0  0  0  0
   37.4370   32.5480   40.2530 O   0  0  0  0  0  0  0  0  0  0  0  0
   35.7170   30.8570   41.1050 N   0  0  0  0  0  0  0  0  0  0  0  0
   34.9040   30.6430   40.4520 H   0  0  0  0  0  0  0  0  0  0  0  0
   35.6190   30.5970   42.1190 H   0  0  0  0  0  0  0  0  0  0  0  0
  1  6  2  0  0  0  0
  1  2  1  0  0  0  0
  2  3  2  0  0  0  0
  3  4  1  0  0  0  0
  3  9  1  0  0  0  0
  5  8  1  0  0  0  0
  5  4  2  0  0  0  0
  6  5  1  0  0  0  0
  7  1  1  0  0  0  0
  9 18  1  0  0  0  0
 10  9  2  0  0  0  0
 10 11  1  0  0  0  0
 11 12  2  0  0  0  0
 12 13  1  0  0  0  0
 12 21  1  0  0  0  0
 13 14  1  0  0  0  0
 14 15  2  0  0  0  0
 14 22  1  0  0  0  0
 15 23  1  0  0  0  0
 16 24  1  0  0  0  0
 16 15  1  0  0  0  0
 17 16  2  0  0  0  0
 18 17  1  0  0  0  0
 18 13  2  0  0  0  0
 19 10  1  0  0  0  0
 20 11  1  0  0  0  0
 25 17  1  0  0  0  0
 26 28  1  0  0  0  0
 26  2  1  0  0  0  0
 28 27  2  6  0  0  0
 28 29  1  0  0  0  0
 28 33  1  0  0  0  0
 30 31  1  0  0  0  0
 30 29  1  0  0  0  0
 32 30  2  0  0  0  0
 33 34  1  0  0  0  0
 34 36  1  0  0  0  0
 35 34  2  0  0  0  0
 36 38  1  0  0  0  0
 37 36  1  0  0  0  0
M  END
>  <minimizedAffinity>
-5.23614407

$$$$

 OpenBabel03252508093D

 38 40  0  0  0  0  0  0  0  0999 V2000
   37.8120   29.7850   37.4170 C   0  0  0  0  0  0  0  0  0  0  0  0
   38.0240   29.3110   38.7020 C   0  0  0  0  0  0  0  0  0  0  0  0
   36.9580   28.9080   39.4680 C   0  0  0  0  0  0  0  0  0  0  0  0
   35.7020   28.9980   38.8960 N   0  0  0  0  0  0  0  0  0  0  0  0
   35.5070   29.4530   37.6610 C   0  0  0  0  0  0  0  0  0  0  0  0
   36.5740   29.8460   36.9310 N   0  0  0  0  0  0  0  0  0  0  0  0
   38.6350   30.1150   36.7820 H   0  0  0  0  0  0  0  0  0  0  0  0
   34.4990   29.5040   37.2600 H   0  0  0  0  0  0  0  0  0  0  0  0
   37.0060   28.4090   40.7910 C   0  0  0  0  0  0  0  0  0  0  0  0
   37.1810   29.2110   41.9230 C   0  0  0  0  0  0  0  0  0  0  0  0
   37.2970   28.7270   43.1990 C   0  0  0  0  0  0  0  0  0  0  0  0
   37.2430   27.3660   43.4220 C   0  0  0  0  0  0  0  0  0  0  0  0
   37.0640   26.5350   42.2840 C   0  0  0  0  0  0  0  0  0  0  0  0
   37.0090   25.1810   42.4900 C   0  0  0  0  0  0  0  0  0  0  0  0
   36.8350   24.3140   41.4260 C   0  0  0  0  0  0  0  0  0  0  0  0
   36.7100   24.8320   40.1270 C   0  0  0  0  0  0  0  0  0  0  0  0
   36.7730   26.2290   39.9680 C   0  0  0  0  0  0  0  0  0  0  0  0
   36.9520   27.0620   41.0390 C   0  0  0  0  0  0  0  0  0  0  0  0
   37.2260   30.2810   41.7640 H   0  0  0  0  0  0  0  0  0  0  0  0
   37.4310   29.3960   44.0380 H   0  0  0  0  0  0  0  0  0  0  0  0
   37.3280   26.9080   44.3950 H   0  0  0  0  0  0  0  0  0  0  0  0
   37.1040   24.7860   43.4890 H   0  0  0  0  0  0  0  0  0  0  0  0
   36.8030   23.2560   41.6600 H   0  0  0  0  0  0  0  0  0  0  0  0
   36.5790   24.0840   39.3880 H   0  0  0  0  0  0  0  0  0  0  0  0
   36.6380   26.4240   38.9250 H   0  0  0  0  0  0  0  0  0  0  0  0
   39.3130   29.2670   39.1460 O   0  0  0  0  0  0  0  0  0  0  0  0
   41.0680   31.1140   38.5330 O   0  0  0  0  0  0  0  0  0  0  0  0
   40.2090   30.6200   39.6370 P   0  0  1  0  0  0  0  0  0  0  0  0
   39.1890   31.8980   40.0790 O   0  0  0  0  0  0  0  0  0  0  0  0
   39.5000   33.2470   39.9090 C   0  0  0  0  0  0  0  0  0  0  0  0
   38.9800   33.6300   39.0190 H   0  0  0  0  0  0  0  0  0  0  0  0
   40.2600   33.8900   40.6780 O   0  0  0  0  0  0  0  0  0  0  0  0
   41.1350   30.1890   40.9630 O   0  0  0  0  0  0  0  0  0  0  0  0
   40.7190   30.1270   42.2850 C   0  0  0  0  0  0  0  0  0  0  0  0
   40.7260   28.9210   42.5630 O   0  0  0  0  0  0  0  0  0  0  0  0
   40.4490   31.4520   42.7990 N   0  0  0  0  0  0  0  0  0  0  0  0
   41.3390   32.0100   42.9720 H   0  0  0  0  0  0  0  0  0  0  0  0
   39.5280   31.9130   43.0110 H   0  0  0  0  0  0  0  0  0  0  0  0
  1  2  1  0  0  0  0
  2 26  1  0  0  0  0
  2  3  2  0  0  0  0
  3  9  1  0  0  0  0
  4  3  1  0  0  0  0
  5  4  2  0  0  0  0
  6  1  2  0  0  0  0
  6  5  1  0  0  0  0
  7  1  1  0  0  0  0
  8  5  1  0  0  0  0
  9 18  2  0  0  0  0
  9 10  1  0  0  0  0
 10 11  2  0  0  0  0
 11 12  1  0  0  0  0
 11 20  1  0  0  0  0
 12 21  1  0  0  0  0
 13 14  1  0  0  0  0
 13 12  2  0  0  0  0
 14 22  1  0  0  0  0
 15 23  1  0  0  0  0
 15 14  2  0  0  0  0
 16 15  1  0  0  0  0
 17 16  2  0  0  0  0
 17 18  1  0  0  0  0
 18 13  1  0  0  0  0
 19 10  1  0  0  0  0
 24 16  1  0  0  0  0
 25 17  1  0  0  0  0
 26 28  1  0  0  0  0
 28 27  2  6  0  0  0
 28 29  1  0  0  0  0
 28 33  1  0  0  0  0
 30 29  1  0  0  0  0
 30 32  2  0  0  0  0
 31 30  1  0  0  0  0
 33 34  1  0  0  0  0
 34 35  2  0  0  0  0
 34 36  1  0  0  0  0
 36 37  1  0  0  0  0
 36 38  1  0  0  0  0
M  END
>  <minimizedAffinity>
-5.23372746

$$$$

 OpenBabel03252508093D

 38 40  0  0  0  0  0  0  0  0999 V2000
   37.6800   30.9450   38.0220 C   0  0  0  0  0  0  0  0  0  0  0  0
   37.8000   29.8860   38.9080 C   0  0  0  0  0  0  0  0  0  0  0  0
   37.5790   30.0870   40.2490 C   0  0  0  0  0  0  0  0  0  0  0  0
   37.2380   31.3660   40.6470 N   0  0  0  0  0  0  0  0  0  0  0  0
   37.1250   32.3770   39.7900 C   0  0  0  0  0  0  0  0  0  0  0  0
   37.3500   32.1520   38.4770 N   0  0  0  0  0  0  0  0  0  0  0  0
   37.8490   30.8230   36.9520 H   0  0  0  0  0  0  0  0  0  0  0  0
   36.8550   33.3630   40.1560 H   0  0  0  0  0  0  0  0  0  0  0  0
   37.6660   29.1170   41.2760 C   0  0  0  0  0  0  0  0  0  0  0  0
   36.5600   28.4650   41.8310 C   0  0  0  0  0  0  0  0  0  0  0  0
   36.6320   27.5770   42.8710 C   0  0  0  0  0  0  0  0  0  0  0  0
   37.8570   27.2810   43.4340 C   0  0  0  0  0  0  0  0  0  0  0  0
   38.9920   27.9320   42.8820 C   0  0  0  0  0  0  0  0  0  0  0  0
   40.2160   27.6490   43.4330 C   0  0  0  0  0  0  0  0  0  0  0  0
   41.3630   28.2470   42.9430 C   0  0  0  0  0  0  0  0  0  0  0  0
   41.2670   29.1480   41.8710 C   0  0  0  0  0  0  0  0  0  0  0  0
   39.9890   29.4060   41.3410 C   0  0  0  0  0  0  0  0  0  0  0  0
   38.8700   28.8040   41.8500 C   0  0  0  0  0  0  0  0  0  0  0  0
   35.5930   28.6870   41.4000 H   0  0  0  0  0  0  0  0  0  0  0  0
   35.7420   27.1020   43.2590 H   0  0  0  0  0  0  0  0  0  0  0  0
   37.9960   26.5950   44.2550 H   0  0  0  0  0  0  0  0  0  0  0  0
   40.2860   26.9550   44.2550 H   0  0  0  0  0  0  0  0  0  0  0  0
   42.2960   27.9800   43.4250 H   0  0  0  0  0  0  0  0  0  0  0  0
   42.2030   29.5460   41.5730 H   0  0  0  0  0  0  0  0  0  0  0  0
   40.1260   30.0900   40.5310 H   0  0  0  0  0  0  0  0  0  0  0  0
   38.1360   28.6710   38.3860 O   0  0  0  0  0  0  0  0  0  0  0  0
   37.7290   26.4700   37.0240 O   0  0  0  0  0  0  0  0  0  0  0  0
   37.0280   27.5590   37.7490 P   0  0  1  0  0  0  0  0  0  0  0  0
   36.1210   26.8290   38.9780 O   0  0  0  0  0  0  0  0  0  0  0  0
   36.4300   25.5990   39.5600 C   0  0  0  0  0  0  0  0  0  0  0  0
   37.1790   25.7490   40.3500 H   0  0  0  0  0  0  0  0  0  0  0  0
   35.9090   24.5100   39.2070 O   0  0  0  0  0  0  0  0  0  0  0  0
   35.9850   28.3760   36.7260 O   0  0  0  0  0  0  0  0  0  0  0  0
   36.2560   28.8150   35.4380 C   0  0  0  0  0  0  0  0  0  0  0  0
   35.1600   29.1730   34.9880 O   0  0  0  0  0  0  0  0  0  0  0  0
   37.6660   28.6850   35.1390 N   0  0  0  0  0  0  0  0  0  0  0  0
   38.2570   29.4100   35.6470 H   0  0  0  0  0  0  0  0  0  0  0  0
   38.1570   27.9970   34.5140 H   0  0  0  0  0  0  0  0  0  0  0  0
  1  6  2  0  0  0  0
  1  2  1  0  0  0  0
  2  3  2  0  0  0  0
  3  4  1  0  0  0  0
  3  9  1  0  0  0  0
  5  8  1  0  0  0  0
  5  4  2  0  0  0  0
  6  5  1  0  0  0  0
  7  1  1  0  0  0  0
  9 10  2  0  0  0  0
  9 18  1  0  0  0  0
 10 11  1  0  0  0  0
 11 20  1  0  0  0  0
 11 12  2  0  0  0  0
 12 21  1  0  0  0  0
 13 14  1  0  0  0  0
 13 12  1  0  0  0  0
 14 22  1  0  0  0  0
 15 23  1  0  0  0  0
 15 14  2  0  0  0  0
 16 15  1  0  0  0  0
 17 18  1  0  0  0  0
 17 16  2  0  0  0  0
 18 13  2  0  0  0  0
 19 10  1  0  0  0  0
 24 16  1  0  0  0  0
 25 17  1  0  0  0  0
 26  2  1  0  0  0  0
 28 27  2  6  0  0  0
 28 26  1  0  0  0  0
 28 29  1  0  0  0  0
 29 30  1  0  0  0  0
 30 31  1  0  0  0  0
 32 30  2  0  0  0  0
 33 28  1  0  0  0  0
 34 33  1  0  0  0  0
 35 34  2  0  0  0  0
 36 34  1  0  0  0  0
 36 37  1  0  0  0  0
 38 36  1  0  0  0  0
M  END
>  <minimizedAffinity>
-4.99243259

$$$$

 OpenBabel03252508093D

 38 40  0  0  0  0  0  0  0  0999 V2000
   39.8300   31.8420   38.9150 C   0  0  0  0  0  0  0  0  0  0  0  0
   40.0540   30.6910   39.6530 C   0  0  0  0  0  0  0  0  0  0  0  0
   39.8620   30.7010   41.0130 C   0  0  0  0  0  0  0  0  0  0  0  0
   39.4420   31.8890   41.5810 N   0  0  0  0  0  0  0  0  0  0  0  0
   39.2290   32.9900   40.8650 C   0  0  0  0  0  0  0  0  0  0  0  0
   39.4290   32.9530   39.5290 N   0  0  0  0  0  0  0  0  0  0  0  0
   39.9750   31.8710   37.8350 H   0  0  0  0  0  0  0  0  0  0  0  0
   38.9010   33.8980   41.3620 H   0  0  0  0  0  0  0  0  0  0  0  0
   40.0510   29.6170   41.9030 C   0  0  0  0  0  0  0  0  0  0  0  0
   41.2940   29.2370   42.4190 C   0  0  0  0  0  0  0  0  0  0  0  0
   41.4920   28.1480   43.2260 C   0  0  0  0  0  0  0  0  0  0  0  0
   40.4210   27.3490   43.5720 C   0  0  0  0  0  0  0  0  0  0  0  0
   39.1500   27.7200   43.0580 C   0  0  0  0  0  0  0  0  0  0  0  0
   38.0770   26.9350   43.3930 C   0  0  0  0  0  0  0  0  0  0  0  0
   36.8100   27.2400   42.9280 C   0  0  0  0  0  0  0  0  0  0  0  0
   36.6290   28.3660   42.1090 C   0  0  0  0  0  0  0  0  0  0  0  0
   37.7610   29.1390   41.7930 C   0  0  0  0  0  0  0  0  0  0  0  0
   39.0030   28.8100   42.2640 C   0  0  0  0  0  0  0  0  0  0  0  0
   42.1430   29.8540   42.1560 H   0  0  0  0  0  0  0  0  0  0  0  0
   42.4780   27.9030   43.5970 H   0  0  0  0  0  0  0  0  0  0  0  0
   40.4960   26.4750   44.2000 H   0  0  0  0  0  0  0  0  0  0  0  0
   38.2200   26.0720   44.0230 H   0  0  0  0  0  0  0  0  0  0  0  0
   36.0080   26.5760   43.2290 H   0  0  0  0  0  0  0  0  0  0  0  0
   35.6210   28.5090   41.8110 H   0  0  0  0  0  0  0  0  0  0  0  0
   37.4180   29.9510   41.1880 H   0  0  0  0  0  0  0  0  0  0  0  0
   40.4610   29.5810   38.9710 O   0  0  0  0  0  0  0  0  0  0  0  0
   40.2300   27.8550   37.0130 O   0  0  0  0  0  0  0  0  0  0  0  0
   39.4470   28.6110   38.0210 P   0  0  1  0  0  0  0  0  0  0  0  0
   38.6310   27.4700   38.9700 O   0  0  0  0  0  0  0  0  0  0  0  0
   39.2330   26.3510   39.5460 C   0  0  0  0  0  0  0  0  0  0  0  0
   40.3030   26.3440   39.2930 H   0  0  0  0  0  0  0  0  0  0  0  0
   38.6120   25.5050   40.2410 O   0  0  0  0  0  0  0  0  0  0  0  0
   38.3160   29.5950   37.2760 O   0  0  0  0  0  0  0  0  0  0  0  0
   37.2630   29.1910   36.4700 C   0  0  0  0  0  0  0  0  0  0  0  0
   36.2440   29.5630   37.0670 O   0  0  0  0  0  0  0  0  0  0  0  0
   37.7530   28.5160   35.2880 N   0  0  0  0  0  0  0  0  0  0  0  0
   38.1960   29.1870   34.5910 H   0  0  0  0  0  0  0  0  0  0  0  0
   37.7300   27.4930   35.0430 H   0  0  0  0  0  0  0  0  0  0  0  0
  1  6  2  0  0  0  0
  1  2  1  0  0  0  0
  2  3  2  0  0  0  0
  3  4  1  0  0  0  0
  3  9  1  0  0  0  0
  5  8  1  0  0  0  0
  5  4  2  0  0  0  0
  6  5  1  0  0  0  0
  7  1  1  0  0  0  0
  9 18  2  0  0  0  0
  9 10  1  0  0  0  0
 10 11  2  0  0  0  0
 11 12  1  0  0  0  0
 11 20  1  0  0  0  0
 12 21  1  0  0  0  0
 13 14  1  0  0  0  0
 13 12  2  0  0  0  0
 14 22  1  0  0  0  0
 15 23  1  0  0  0  0
 15 14  2  0  0  0  0
 16 15  1  0  0  0  0
 17 16  2  0  0  0  0
 17 18  1  0  0  0  0
 18 13  1  0  0  0  0
 19 10  1  0  0  0  0
 24 16  1  0  0  0  0
 25 17  1  0  0  0  0
 26  2  1  0  0  0  0
 28 27  2  6  0  0  0
 28 29  1  0  0  0  0
 28 26  1  0  0  0  0
 29 30  1  0  0  0  0
 30 32  2  0  0  0  0
 31 30  1  0  0  0  0
 33 28  1  0  0  0  0
 34 35  2  0  0  0  0
 34 33  1  0  0  0  0
 36 34  1  0  0  0  0
 37 36  1  0  0  0  0
 38 36  1  0  0  0  0
M  END
>  <minimizedAffinity>
-4.96126747

$$$$
