
 OpenBabel03242520273D

 32 33  0  0  0  0  0  0  0  0999 V2000
   39.8410   27.6960   42.4010 C   0  0  0  0  0  0  0  0  0  0  0  0
   38.5320   27.5230   41.8850 C   0  0  0  0  0  0  0  0  0  0  0  0
   37.7120   28.6370   41.7470 C   0  0  0  0  0  0  0  0  0  0  0  0
   38.2080   29.8620   42.1200 N   0  0  0  0  0  0  0  0  0  0  0  0
   39.4540   30.0060   42.6090 C   0  0  0  0  0  0  0  0  0  0  0  0
   40.2560   28.9440   42.7480 N   0  0  0  0  0  0  0  0  0  0  0  0
   40.4900   26.8510   42.5170 H   0  0  0  0  0  0  0  0  0  0  0  0
   39.8100   30.9910   42.8920 H   0  0  0  0  0  0  0  0  0  0  0  0
   38.1810   26.1960   41.5520 N   0  0  0  0  0  0  0  0  0  0  0  0
   37.1960   25.4160   42.2840 C   0  0  0  0  0  0  0  0  0  0  0  0
   36.9720   24.1080   41.6080 C   0  0  0  0  0  0  0  0  0  0  0  0
   38.1850   23.3910   41.3290 N   0  0  0  0  0  0  0  0  0  0  0  0
   39.2070   24.1570   40.7010 C   0  0  0  0  0  0  0  0  0  0  0  0
   38.8500   25.5780   40.4060 C   0  0  0  0  0  0  0  0  0  0  0  0
   37.6190   25.2080   43.2960 H   0  0  0  0  0  0  0  0  0  0  0  0
   36.2430   25.9500   42.3610 H   0  0  0  0  0  0  0  0  0  0  0  0
   36.3990   24.1760   40.6690 H   0  0  0  0  0  0  0  0  0  0  0  0
   36.3830   23.4670   42.2960 H   0  0  0  0  0  0  0  0  0  0  0  0
   37.9710   22.5550   40.7520 H   0  0  0  0  0  0  0  0  0  0  0  0
   39.6100   23.7050   39.7770 H   0  0  0  0  0  0  0  0  0  0  0  0
   40.0770   24.1930   41.4180 H   0  0  0  0  0  0  0  0  0  0  0  0
   39.7700   26.1240   40.1310 H   0  0  0  0  0  0  0  0  0  0  0  0
   38.1350   25.6620   39.5610 H   0  0  0  0  0  0  0  0  0  0  0  0
   36.4450   28.4280   41.2410 O   0  0  0  0  0  0  0  0  0  0  0  0
   34.3080   29.2260   39.9110 O   0  0  0  0  0  0  0  0  0  0  0  0
   35.6940   29.6890   40.3450 P   0  0  1  0  0  0  0  0  0  0  0  0
   35.5800   31.0320   41.3290 O   0  0  0  0  0  0  0  0  0  0  0  0
   36.4490   31.4940   41.3880 H   0  0  0  0  0  0  0  0  0  0  0  0
   36.6170   29.9510   38.9560 O   0  0  0  0  0  0  0  0  0  0  0  0
   37.5020   30.9720   38.7370 C   0  0  0  0  0  0  0  0  0  0  0  0
   38.5200   30.8170   38.3740 H   0  0  0  0  0  0  0  0  0  0  0  0
   36.9070   32.0600   39.0330 O   0  0  0  0  0  0  0  0  0  0  0  0
  1  7  1  0  0  0  0
  1  6  1  0  0  0  0
  2  1  2  0  0  0  0
  3  2  1  0  0  0  0
  3  4  2  0  0  0  0
  4  5  1  0  0  0  0
  5  6  2  0  0  0  0
  5  8  1  0  0  0  0
  9  2  1  0  0  0  0
  9 10  1  0  0  0  0
 10 16  1  0  0  0  0
 10 15  1  0  0  0  0
 11 10  1  0  0  0  0
 11 18  1  0  0  0  0
 12 11  1  0  0  0  0
 13 12  1  0  0  0  0
 13 21  1  0  0  0  0
 14 13  1  0  0  0  0
 14  9  1  0  0  0  0
 17 11  1  0  0  0  0
 19 12  1  0  0  0  0
 20 13  1  0  0  0  0
 22 14  1  0  0  0  0
 23 14  1  0  0  0  0
 24  3  1  0  0  0  0
 26 25  2  6  0  0  0
 26 24  1  0  0  0  0
 26 27  1  0  0  0  0
 27 28  1  0  0  0  0
 29 26  1  0  0  0  0
 30 29  1  0  0  0  0
 30 32  2  0  0  0  0
 31 30  1  0  0  0  0
M  END
>  <minimizedAffinity>
-4.72327328

$$$$

 OpenBabel03242520273D

 32 33  0  0  0  0  0  0  0  0999 V2000
   36.8800   30.5980   37.7020 C   0  0  0  0  0  0  0  0  0  0  0  0
   37.0470   30.8490   39.0870 C   0  0  0  0  0  0  0  0  0  0  0  0
   36.2820   30.1300   39.9970 C   0  0  0  0  0  0  0  0  0  0  0  0
   35.3920   29.2030   39.5120 N   0  0  0  0  0  0  0  0  0  0  0  0
   35.2470   28.9790   38.1930 C   0  0  0  0  0  0  0  0  0  0  0  0
   35.9760   29.6630   37.3030 N   0  0  0  0  0  0  0  0  0  0  0  0
   37.4600   31.1420   36.9820 H   0  0  0  0  0  0  0  0  0  0  0  0
   34.5330   28.2380   37.8480 H   0  0  0  0  0  0  0  0  0  0  0  0
   38.0050   31.8350   39.4150 N   0  0  0  0  0  0  0  0  0  0  0  0
   37.6600   33.1760   39.8560 C   0  0  0  0  0  0  0  0  0  0  0  0
   38.8910   33.9240   40.2350 C   0  0  0  0  0  0  0  0  0  0  0  0
   39.9130   33.8940   39.2270 N   0  0  0  0  0  0  0  0  0  0  0  0
   40.2050   32.6030   38.7020 C   0  0  0  0  0  0  0  0  0  0  0  0
   39.4210   31.4790   39.3000 C   0  0  0  0  0  0  0  0  0  0  0  0
   37.1930   33.7050   38.9900 H   0  0  0  0  0  0  0  0  0  0  0  0
   36.9770   33.1500   40.7110 H   0  0  0  0  0  0  0  0  0  0  0  0
   39.3450   33.5980   41.1840 H   0  0  0  0  0  0  0  0  0  0  0  0
   38.6130   34.9910   40.3640 H   0  0  0  0  0  0  0  0  0  0  0  0
   40.7830   34.3230   39.5980 H   0  0  0  0  0  0  0  0  0  0  0  0
   41.2740   32.3300   38.7340 H   0  0  0  0  0  0  0  0  0  0  0  0
   39.9370   32.6260   37.6070 H   0  0  0  0  0  0  0  0  0  0  0  0
   39.5630   30.5780   38.6780 H   0  0  0  0  0  0  0  0  0  0  0  0
   39.7530   31.2400   40.3320 H   0  0  0  0  0  0  0  0  0  0  0  0
   36.4740   30.4020   41.3360 O   0  0  0  0  0  0  0  0  0  0  0  0
   38.8400   30.1930   42.4900 O   0  0  0  0  0  0  0  0  0  0  0  0
   37.5550   29.4130   42.2360 P   0  0  1  0  0  0  0  0  0  0  0  0
   36.8180   29.0130   43.6800 O   0  0  0  0  0  0  0  0  0  0  0  0
   36.1590   28.2930   43.5450 H   0  0  0  0  0  0  0  0  0  0  0  0
   37.9360   28.0720   41.2830 O   0  0  0  0  0  0  0  0  0  0  0  0
   37.3810   26.8230   41.3610 C   0  0  0  0  0  0  0  0  0  0  0  0
   36.9150   26.3190   40.5120 H   0  0  0  0  0  0  0  0  0  0  0  0
   37.5230   26.4190   42.5620 O   0  0  0  0  0  0  0  0  0  0  0  0
  1  2  1  0  0  0  0
  2  9  1  0  0  0  0
  2  3  2  0  0  0  0
  3 24  1  0  0  0  0
  4  3  1  0  0  0  0
  5  4  2  0  0  0  0
  6  1  2  0  0  0  0
  6  5  1  0  0  0  0
  7  1  1  0  0  0  0
  8  5  1  0  0  0  0
  9 10  1  0  0  0  0
 10 11  1  0  0  0  0
 10 16  1  0  0  0  0
 11 18  1  0  0  0  0
 11 17  1  0  0  0  0
 12 19  1  0  0  0  0
 12 11  1  0  0  0  0
 13 20  1  0  0  0  0
 13 12  1  0  0  0  0
 13 14  1  0  0  0  0
 14  9  1  0  0  0  0
 14 23  1  0  0  0  0
 15 10  1  0  0  0  0
 21 13  1  0  0  0  0
 22 14  1  0  0  0  0
 24 26  1  0  0  0  0
 26 25  2  1  0  0  0
 26 27  1  0  0  0  0
 28 27  1  0  0  0  0
 29 30  1  0  0  0  0
 29 26  1  0  0  0  0
 30 32  2  0  0  0  0
 31 30  1  0  0  0  0
M  END
>  <minimizedAffinity>
-4.58783007

$$$$

 OpenBabel03242520273D

 32 33  0  0  0  0  0  0  0  0999 V2000
   37.7980   26.6200   41.1080 C   0  0  0  0  0  0  0  0  0  0  0  0
   38.1270   27.8850   40.5620 C   0  0  0  0  0  0  0  0  0  0  0  0
   37.8540   29.0280   41.3030 C   0  0  0  0  0  0  0  0  0  0  0  0
   37.2720   28.8810   42.5380 N   0  0  0  0  0  0  0  0  0  0  0  0
   36.9660   27.6710   43.0400 C   0  0  0  0  0  0  0  0  0  0  0  0
   37.2230   26.5590   42.3400 N   0  0  0  0  0  0  0  0  0  0  0  0
   37.9990   25.7240   40.5540 H   0  0  0  0  0  0  0  0  0  0  0  0
   36.5070   27.5950   44.0210 H   0  0  0  0  0  0  0  0  0  0  0  0
   38.7200   27.8570   39.2790 N   0  0  0  0  0  0  0  0  0  0  0  0
   40.1560   27.8630   39.0560 C   0  0  0  0  0  0  0  0  0  0  0  0
   40.4510   27.7060   37.6040 C   0  0  0  0  0  0  0  0  0  0  0  0
   39.7330   28.6300   36.7710 N   0  0  0  0  0  0  0  0  0  0  0  0
   38.3370   28.7200   37.0330 C   0  0  0  0  0  0  0  0  0  0  0  0
   37.8320   27.8220   38.1150 C   0  0  0  0  0  0  0  0  0  0  0  0
   40.5410   28.8620   39.3760 H   0  0  0  0  0  0  0  0  0  0  0  0
   40.6490   27.0590   39.6120 H   0  0  0  0  0  0  0  0  0  0  0  0
   40.2720   26.6920   37.2140 H   0  0  0  0  0  0  0  0  0  0  0  0
   41.5290   27.9220   37.4520 H   0  0  0  0  0  0  0  0  0  0  0  0
   39.8850   28.3900   35.7720 H   0  0  0  0  0  0  0  0  0  0  0  0
   37.6980   28.5790   36.1440 H   0  0  0  0  0  0  0  0  0  0  0  0
   38.1360   29.7750   37.3790 H   0  0  0  0  0  0  0  0  0  0  0  0
   36.8050   28.1290   38.3810 H   0  0  0  0  0  0  0  0  0  0  0  0
   37.8010   26.7590   37.7960 H   0  0  0  0  0  0  0  0  0  0  0  0
   38.1890   30.2420   40.7370 O   0  0  0  0  0  0  0  0  0  0  0  0
   36.5040   31.0380   38.8670 O   0  0  0  0  0  0  0  0  0  0  0  0
   36.9300   31.3280   40.3010 P   0  0  1  0  0  0  0  0  0  0  0  0
   35.6520   31.0930   41.3500 O   0  0  0  0  0  0  0  0  0  0  0  0
   35.8280   31.5320   42.2150 H   0  0  0  0  0  0  0  0  0  0  0  0
   37.5620   32.8930   40.3530 O   0  0  0  0  0  0  0  0  0  0  0  0
   38.8070   33.2630   40.7850 C   0  0  0  0  0  0  0  0  0  0  0  0
   39.2200   32.9650   41.7500 H   0  0  0  0  0  0  0  0  0  0  0  0
   39.3280   33.9810   39.8690 O   0  0  0  0  0  0  0  0  0  0  0  0
  1  6  1  0  0  0  0
  2  1  2  0  0  0  0
  2  3  1  0  0  0  0
  3  4  2  0  0  0  0
  4  5  1  0  0  0  0
  5  8  1  0  0  0  0
  6  5  2  0  0  0  0
  7  1  1  0  0  0  0
  9  2  1  0  0  0  0
 10  9  1  0  0  0  0
 10 15  1  0  0  0  0
 10 16  1  0  0  0  0
 11 10  1  0  0  0  0
 12 13  1  0  0  0  0
 12 11  1  0  0  0  0
 13 21  1  0  0  0  0
 13 14  1  0  0  0  0
 14 22  1  0  0  0  0
 14  9  1  0  0  0  0
 17 11  1  0  0  0  0
 18 11  1  0  0  0  0
 19 12  1  0  0  0  0
 20 13  1  0  0  0  0
 23 14  1  0  0  0  0
 24  3  1  0  0  0  0
 26 25  2  6  0  0  0
 26 29  1  0  0  0  0
 26 24  1  0  0  0  0
 26 27  1  0  0  0  0
 27 28  1  0  0  0  0
 29 30  1  0  0  0  0
 30 31  1  0  0  0  0
 32 30  2  0  0  0  0
M  END
>  <minimizedAffinity>
-4.43768263

$$$$

 OpenBabel03242520273D

 32 33  0  0  0  0  0  0  0  0999 V2000
   39.4940   27.2750   39.3550 C   0  0  0  0  0  0  0  0  0  0  0  0
   38.4800   28.1950   39.7210 C   0  0  0  0  0  0  0  0  0  0  0  0
   37.9660   29.0480   38.7520 C   0  0  0  0  0  0  0  0  0  0  0  0
   38.4670   28.9630   37.4770 N   0  0  0  0  0  0  0  0  0  0  0  0
   39.4310   28.0840   37.1480 C   0  0  0  0  0  0  0  0  0  0  0  0
   39.9370   27.2540   38.0690 N   0  0  0  0  0  0  0  0  0  0  0  0
   39.9060   26.6070   40.0860 H   0  0  0  0  0  0  0  0  0  0  0  0
   39.8010   28.0470   36.1280 H   0  0  0  0  0  0  0  0  0  0  0  0
   38.0790   28.1500   41.0750 N   0  0  0  0  0  0  0  0  0  0  0  0
   36.8050   27.6120   41.5210 C   0  0  0  0  0  0  0  0  0  0  0  0
   36.7440   27.6010   43.0090 C   0  0  0  0  0  0  0  0  0  0  0  0
   37.0770   28.8650   43.6050 N   0  0  0  0  0  0  0  0  0  0  0  0
   38.2710   29.4670   43.1170 C   0  0  0  0  0  0  0  0  0  0  0  0
   39.0050   28.6790   42.0800 C   0  0  0  0  0  0  0  0  0  0  0  0
   36.0040   28.2980   41.1520 H   0  0  0  0  0  0  0  0  0  0  0  0
   36.6500   26.5950   41.1460 H   0  0  0  0  0  0  0  0  0  0  0  0
   37.3720   26.8310   43.4820 H   0  0  0  0  0  0  0  0  0  0  0  0
   35.6960   27.3850   43.3030 H   0  0  0  0  0  0  0  0  0  0  0  0
   37.1360   28.7590   44.6360 H   0  0  0  0  0  0  0  0  0  0  0  0
   38.9900   29.7520   43.9040 H   0  0  0  0  0  0  0  0  0  0  0  0
   37.9720   30.4350   42.6230 H   0  0  0  0  0  0  0  0  0  0  0  0
   39.7740   29.3250   41.6220 H   0  0  0  0  0  0  0  0  0  0  0  0
   39.5140   27.7910   42.5130 H   0  0  0  0  0  0  0  0  0  0  0  0
   36.9800   29.9290   39.1470 O   0  0  0  0  0  0  0  0  0  0  0  0
   37.2530   32.3920   38.2350 O   0  0  0  0  0  0  0  0  0  0  0  0
   37.4150   31.5560   39.4990 P   0  0  1  0  0  0  0  0  0  0  0  0
   36.4040   32.1170   40.7040 O   0  0  0  0  0  0  0  0  0  0  0  0
   36.6900   31.7750   41.5830 H   0  0  0  0  0  0  0  0  0  0  0  0
   39.0470   31.5680   39.9310 O   0  0  0  0  0  0  0  0  0  0  0  0
   39.6180   32.2590   40.9650 C   0  0  0  0  0  0  0  0  0  0  0  0
   40.4640   31.8820   41.5440 H   0  0  0  0  0  0  0  0  0  0  0  0
   38.9820   33.3570   41.0860 O   0  0  0  0  0  0  0  0  0  0  0  0
  1  2  1  0  0  0  0
  1  7  1  0  0  0  0
  2  9  1  0  0  0  0
  3 24  1  0  0  0  0
  3  2  2  0  0  0  0
  4  3  1  0  0  0  0
  5  4  2  0  0  0  0
  5  6  1  0  0  0  0
  6  1  2  0  0  0  0
  8  5  1  0  0  0  0
  9 10  1  0  0  0  0
  9 14  1  0  0  0  0
 10 11  1  0  0  0  0
 11 18  1  0  0  0  0
 11 17  1  0  0  0  0
 11 12  1  0  0  0  0
 12 19  1  0  0  0  0
 13 12  1  0  0  0  0
 13 20  1  0  0  0  0
 14 23  1  0  0  0  0
 14 13  1  0  0  0  0
 15 10  1  0  0  0  0
 16 10  1  0  0  0  0
 21 13  1  0  0  0  0
 22 14  1  0  0  0  0
 24 26  1  0  0  0  0
 26 25  2  6  0  0  0
 26 29  1  0  0  0  0
 26 27  1  0  0  0  0
 27 28  1  0  0  0  0
 29 30  1  0  0  0  0
 30 32  2  0  0  0  0
 30 31  1  0  0  0  0
M  END
>  <minimizedAffinity>
-4.30519962

$$$$

 OpenBabel03242520273D

 32 33  0  0  0  0  0  0  0  0999 V2000
   41.3990   30.2300   42.1360 C   0  0  0  0  0  0  0  0  0  0  0  0
   40.1670   29.8660   41.5360 C   0  0  0  0  0  0  0  0  0  0  0  0
   39.6240   28.6200   41.8210 C   0  0  0  0  0  0  0  0  0  0  0  0
   40.3070   27.7900   42.6750 N   0  0  0  0  0  0  0  0  0  0  0  0
   41.4760   28.1530   43.2350 C   0  0  0  0  0  0  0  0  0  0  0  0
   42.0140   29.3500   42.9710 N   0  0  0  0  0  0  0  0  0  0  0  0
   41.8370   31.1860   41.9300 H   0  0  0  0  0  0  0  0  0  0  0  0
   41.9870   27.4690   43.9060 H   0  0  0  0  0  0  0  0  0  0  0  0
   39.5970   30.8370   40.6810 N   0  0  0  0  0  0  0  0  0  0  0  0
   39.4010   30.6380   39.2550 C   0  0  0  0  0  0  0  0  0  0  0  0
   38.6710   31.7970   38.6710 C   0  0  0  0  0  0  0  0  0  0  0  0
   39.2540   33.0670   39.0010 N   0  0  0  0  0  0  0  0  0  0  0  0
   39.5510   33.2540   40.3810 C   0  0  0  0  0  0  0  0  0  0  0  0
   39.1860   32.1120   41.2730 C   0  0  0  0  0  0  0  0  0  0  0  0
   40.4110   30.5970   38.7800 H   0  0  0  0  0  0  0  0  0  0  0  0
   38.8380   29.7200   39.0550 H   0  0  0  0  0  0  0  0  0  0  0  0
   37.6030   31.8390   38.9350 H   0  0  0  0  0  0  0  0  0  0  0  0
   38.7240   31.7090   37.5660 H   0  0  0  0  0  0  0  0  0  0  0  0
   38.6350   33.8320   38.6710 H   0  0  0  0  0  0  0  0  0  0  0  0
   39.1290   34.1780   40.8150 H   0  0  0  0  0  0  0  0  0  0  0  0
   40.6700   33.3730   40.4630 H   0  0  0  0  0  0  0  0  0  0  0  0
   39.6530   32.2700   42.2600 H   0  0  0  0  0  0  0  0  0  0  0  0
   38.0880   32.0320   41.4210 H   0  0  0  0  0  0  0  0  0  0  0  0
   38.4230   28.3020   41.2170 O   0  0  0  0  0  0  0  0  0  0  0  0
   36.7750   26.8610   42.6920 O   0  0  0  0  0  0  0  0  0  0  0  0
   36.9960   28.2770   42.1760 P   0  0  1  0  0  0  0  0  0  0  0  0
   37.2050   29.3370   43.4490 O   0  0  0  0  0  0  0  0  0  0  0  0
   37.0740   30.2680   43.1500 H   0  0  0  0  0  0  0  0  0  0  0  0
   35.6980   28.6790   41.1740 O   0  0  0  0  0  0  0  0  0  0  0  0
   35.5840   29.7890   40.3810 C   0  0  0  0  0  0  0  0  0  0  0  0
   35.1900   29.7610   39.3630 H   0  0  0  0  0  0  0  0  0  0  0  0
   36.0120   30.7830   41.0550 O   0  0  0  0  0  0  0  0  0  0  0  0
  1  6  1  0  0  0  0
  2  3  1  0  0  0  0
  2  1  2  0  0  0  0
  3  4  2  0  0  0  0
  4  5  1  0  0  0  0
  5  8  1  0  0  0  0
  6  5  2  0  0  0  0
  7  1  1  0  0  0  0
  9 14  1  0  0  0  0
  9  2  1  0  0  0  0
 10  9  1  0  0  0  0
 11 17  1  0  0  0  0
 11 12  1  0  0  0  0
 11 10  1  0  0  0  0
 12 13  1  0  0  0  0
 13 21  1  0  0  0  0
 13 20  1  0  0  0  0
 13 14  1  0  0  0  0
 14 23  1  0  0  0  0
 14 22  1  0  0  0  0
 15 10  1  0  0  0  0
 16 10  1  0  0  0  0
 18 11  1  0  0  0  0
 19 12  1  0  0  0  0
 24  3  1  0  0  0  0
 24 26  1  0  0  0  0
 26 25  2  1  0  0  0
 26 27  1  0  0  0  0
 28 27  1  0  0  0  0
 29 26  1  0  0  0  0
 30 32  2  0  0  0  0
 30 29  1  0  0  0  0
 31 30  1  0  0  0  0
M  END
>  <minimizedAffinity>
-4.30123329

$$$$

 OpenBabel03242520273D

 32 33  0  0  0  0  0  0  0  0999 V2000
   37.7000   31.3980   36.9460 C   0  0  0  0  0  0  0  0  0  0  0  0
   38.0910   31.1540   38.2870 C   0  0  0  0  0  0  0  0  0  0  0  0
   37.7430   29.9470   38.8790 C   0  0  0  0  0  0  0  0  0  0  0  0
   37.0310   29.0380   38.1370 N   0  0  0  0  0  0  0  0  0  0  0  0
   36.6680   29.2870   36.8650 C   0  0  0  0  0  0  0  0  0  0  0  0
   36.9950   30.4450   36.2790 N   0  0  0  0  0  0  0  0  0  0  0  0
   37.9570   32.3230   36.4690 H   0  0  0  0  0  0  0  0  0  0  0  0
   36.1050   28.5430   36.3100 H   0  0  0  0  0  0  0  0  0  0  0  0
   38.8190   32.1960   38.9060 N   0  0  0  0  0  0  0  0  0  0  0  0
   40.2630   32.3340   38.8130 C   0  0  0  0  0  0  0  0  0  0  0  0
   40.7010   33.5960   39.4720 C   0  0  0  0  0  0  0  0  0  0  0  0
   40.1900   33.7540   40.8040 N   0  0  0  0  0  0  0  0  0  0  0  0
   38.7920   33.5270   40.9460 C   0  0  0  0  0  0  0  0  0  0  0  0
   38.0700   33.1860   39.6820 C   0  0  0  0  0  0  0  0  0  0  0  0
   40.7180   31.4810   39.3740 H   0  0  0  0  0  0  0  0  0  0  0  0
   40.5960   32.3370   37.7700 H   0  0  0  0  0  0  0  0  0  0  0  0
   40.4560   34.5090   38.9070 H   0  0  0  0  0  0  0  0  0  0  0  0
   41.8070   33.5630   39.5640 H   0  0  0  0  0  0  0  0  0  0  0  0
   40.4270   34.7010   41.1590 H   0  0  0  0  0  0  0  0  0  0  0  0
   38.2470   34.3500   41.4410 H   0  0  0  0  0  0  0  0  0  0  0  0
   38.6710   32.6380   41.6280 H   0  0  0  0  0  0  0  0  0  0  0  0
   37.0610   32.8200   39.9390 H   0  0  0  0  0  0  0  0  0  0  0  0
   37.9580   34.0660   39.0140 H   0  0  0  0  0  0  0  0  0  0  0  0
   38.1420   29.7470   40.1850 O   0  0  0  0  0  0  0  0  0  0  0  0
   36.1310   30.8830   41.4640 O   0  0  0  0  0  0  0  0  0  0  0  0
   36.9390   29.5920   41.4040 P   0  0  1  0  0  0  0  0  0  0  0  0
   35.9550   28.3040   41.0040 O   0  0  0  0  0  0  0  0  0  0  0  0
   36.3930   27.4500   41.2270 H   0  0  0  0  0  0  0  0  0  0  0  0
   37.7290   29.3980   42.8830 O   0  0  0  0  0  0  0  0  0  0  0  0
   37.7950   28.2580   43.6380 C   0  0  0  0  0  0  0  0  0  0  0  0
   38.7160   27.8940   44.0960 H   0  0  0  0  0  0  0  0  0  0  0  0
   36.6210   27.7600   43.6760 O   0  0  0  0  0  0  0  0  0  0  0  0
  1  2  1  0  0  0  0
  2  3  2  0  0  0  0
  2  9  1  0  0  0  0
  3 24  1  0  0  0  0
  4  3  1  0  0  0  0
  5  4  2  0  0  0  0
  6  5  1  0  0  0  0
  6  1  2  0  0  0  0
  7  1  1  0  0  0  0
  8  5  1  0  0  0  0
  9 14  1  0  0  0  0
 10  9  1  0  0  0  0
 10 15  1  0  0  0  0
 10 11  1  0  0  0  0
 11 18  1  0  0  0  0
 11 12  1  0  0  0  0
 12 13  1  0  0  0  0
 12 19  1  0  0  0  0
 13 20  1  0  0  0  0
 13 21  1  0  0  0  0
 14 22  1  0  0  0  0
 14 13  1  0  0  0  0
 16 10  1  0  0  0  0
 17 11  1  0  0  0  0
 23 14  1  0  0  0  0
 24 26  1  0  0  0  0
 26 25  2  1  0  0  0
 26 29  1  0  0  0  0
 27 28  1  0  0  0  0
 27 26  1  0  0  0  0
 29 30  1  0  0  0  0
 30 32  2  0  0  0  0
 30 31  1  0  0  0  0
M  END
>  <minimizedAffinity>
-4.23562288

$$$$

 OpenBabel03242520273D

 32 33  0  0  0  0  0  0  0  0999 V2000
   40.8430   29.4300   42.0720 C   0  0  0  0  0  0  0  0  0  0  0  0
   39.5990   29.9810   41.6740 C   0  0  0  0  0  0  0  0  0  0  0  0
   38.4270   29.3920   42.1300 C   0  0  0  0  0  0  0  0  0  0  0  0
   38.5240   28.2940   42.9490 N   0  0  0  0  0  0  0  0  0  0  0  0
   39.7150   27.7850   43.3160 C   0  0  0  0  0  0  0  0  0  0  0  0
   40.8540   28.3410   42.8860 N   0  0  0  0  0  0  0  0  0  0  0  0
   41.7600   29.8690   41.7320 H   0  0  0  0  0  0  0  0  0  0  0  0
   39.7510   26.9160   43.9660 H   0  0  0  0  0  0  0  0  0  0  0  0
   39.6780   31.1100   40.8270 N   0  0  0  0  0  0  0  0  0  0  0  0
   39.1800   32.4260   41.1930 C   0  0  0  0  0  0  0  0  0  0  0  0
   39.5240   33.4170   40.1350 C   0  0  0  0  0  0  0  0  0  0  0  0
   39.1410   33.0010   38.8150 N   0  0  0  0  0  0  0  0  0  0  0  0
   39.5290   31.6780   38.4630 C   0  0  0  0  0  0  0  0  0  0  0  0
   40.2950   30.9370   39.5110 C   0  0  0  0  0  0  0  0  0  0  0  0
   38.0660   32.3600   41.2490 H   0  0  0  0  0  0  0  0  0  0  0  0
   39.5990   32.7590   42.1480 H   0  0  0  0  0  0  0  0  0  0  0  0
   40.5890   33.6950   40.1050 H   0  0  0  0  0  0  0  0  0  0  0  0
   38.9560   34.3470   40.3450 H   0  0  0  0  0  0  0  0  0  0  0  0
   39.5160   33.6720   38.1160 H   0  0  0  0  0  0  0  0  0  0  0  0
   40.0880   31.6060   37.5130 H   0  0  0  0  0  0  0  0  0  0  0  0
   38.5800   31.0920   38.2930 H   0  0  0  0  0  0  0  0  0  0  0  0
   40.3470   29.8720   39.2250 H   0  0  0  0  0  0  0  0  0  0  0  0
   41.3340   31.3160   39.6160 H   0  0  0  0  0  0  0  0  0  0  0  0
   37.2360   29.9570   41.7200 O   0  0  0  0  0  0  0  0  0  0  0  0
   36.3850   27.6350   40.7960 O   0  0  0  0  0  0  0  0  0  0  0  0
   36.2900   29.1340   40.5430 P   0  0  1  0  0  0  0  0  0  0  0  0
   34.7100   29.6530   40.6880 O   0  0  0  0  0  0  0  0  0  0  0  0
   34.5950   30.5370   40.2670 H   0  0  0  0  0  0  0  0  0  0  0  0
   36.9650   29.4540   39.0290 O   0  0  0  0  0  0  0  0  0  0  0  0
   36.3250   29.9730   37.9360 C   0  0  0  0  0  0  0  0  0  0  0  0
   36.7270   30.7930   37.3380 H   0  0  0  0  0  0  0  0  0  0  0  0
   35.2350   29.3260   37.7910 O   0  0  0  0  0  0  0  0  0  0  0  0
  1  6  1  0  0  0  0
  2  1  2  0  0  0  0
  2  3  1  0  0  0  0
  3  4  2  0  0  0  0
  4  5  1  0  0  0  0
  5  8  1  0  0  0  0
  6  5  2  0  0  0  0
  7  1  1  0  0  0  0
  9 10  1  0  0  0  0
  9  2  1  0  0  0  0
 10 15  1  0  0  0  0
 10 16  1  0  0  0  0
 11 18  1  0  0  0  0
 11 10  1  0  0  0  0
 12 11  1  0  0  0  0
 13 12  1  0  0  0  0
 13 14  1  0  0  0  0
 14 23  1  0  0  0  0
 14  9  1  0  0  0  0
 17 11  1  0  0  0  0
 19 12  1  0  0  0  0
 20 13  1  0  0  0  0
 21 13  1  0  0  0  0
 22 14  1  0  0  0  0
 24  3  1  0  0  0  0
 26 27  1  0  0  0  0
 26 25  2  1  0  0  0
 26 24  1  0  0  0  0
 28 27  1  0  0  0  0
 29 26  1  0  0  0  0
 30 29  1  0  0  0  0
 31 30  1  0  0  0  0
 32 30  2  0  0  0  0
M  END
>  <minimizedAffinity>
-4.09817791

$$$$

 OpenBabel03242520273D

 32 33  0  0  0  0  0  0  0  0999 V2000
   37.1760   30.7770   37.8140 C   0  0  0  0  0  0  0  0  0  0  0  0
   37.8260   30.6740   39.0690 C   0  0  0  0  0  0  0  0  0  0  0  0
   37.6390   29.5260   39.8300 C   0  0  0  0  0  0  0  0  0  0  0  0
   36.8270   28.5380   39.3300 N   0  0  0  0  0  0  0  0  0  0  0  0
   36.2170   28.6550   38.1360 C   0  0  0  0  0  0  0  0  0  0  0  0
   36.3870   29.7530   37.3910 N   0  0  0  0  0  0  0  0  0  0  0  0
   37.3060   31.6540   37.2110 H   0  0  0  0  0  0  0  0  0  0  0  0
   35.5820   27.8520   37.7750 H   0  0  0  0  0  0  0  0  0  0  0  0
   38.6250   31.7810   39.4330 N   0  0  0  0  0  0  0  0  0  0  0  0
   38.0950   32.9900   40.0430 C   0  0  0  0  0  0  0  0  0  0  0  0
   39.2080   33.9090   40.4110 C   0  0  0  0  0  0  0  0  0  0  0  0
   40.1250   34.1590   39.3350 N   0  0  0  0  0  0  0  0  0  0  0  0
   40.5860   32.9980   38.6520 C   0  0  0  0  0  0  0  0  0  0  0  0
   40.0650   31.7000   39.1780 C   0  0  0  0  0  0  0  0  0  0  0  0
   37.4680   33.5050   39.2750 H   0  0  0  0  0  0  0  0  0  0  0  0
   37.5060   32.7600   40.9360 H   0  0  0  0  0  0  0  0  0  0  0  0
   39.7950   33.5810   41.2840 H   0  0  0  0  0  0  0  0  0  0  0  0
   38.7620   34.8910   40.6750 H   0  0  0  0  0  0  0  0  0  0  0  0
   40.9370   34.7020   39.6870 H   0  0  0  0  0  0  0  0  0  0  0  0
   41.6850   32.9220   38.5770 H   0  0  0  0  0  0  0  0  0  0  0  0
   40.2200   33.0760   37.5880 H   0  0  0  0  0  0  0  0  0  0  0  0
   40.3030   30.9020   38.4530 H   0  0  0  0  0  0  0  0  0  0  0  0
   40.5250   31.4280   40.1520 H   0  0  0  0  0  0  0  0  0  0  0  0
   38.2880   29.4630   41.0460 O   0  0  0  0  0  0  0  0  0  0  0  0
   37.9200   29.1070   43.6360 O   0  0  0  0  0  0  0  0  0  0  0  0
   37.6320   28.4660   42.2840 P   0  0  1  0  0  0  0  0  0  0  0  0
   35.9860   28.3410   42.0350 O   0  0  0  0  0  0  0  0  0  0  0  0
   35.7920   27.6970   41.3150 H   0  0  0  0  0  0  0  0  0  0  0  0
   38.4340   26.9810   42.2270 O   0  0  0  0  0  0  0  0  0  0  0  0
   38.2390   25.9760   41.3190 C   0  0  0  0  0  0  0  0  0  0  0  0
   39.0430   25.5400   40.7230 H   0  0  0  0  0  0  0  0  0  0  0  0
   36.9960   25.6900   41.3300 O   0  0  0  0  0  0  0  0  0  0  0  0
  1  2  1  0  0  0  0
  2  9  1  0  0  0  0
  2  3  2  0  0  0  0
  3 24  1  0  0  0  0
  4  3  1  0  0  0  0
  5  4  2  0  0  0  0
  6  1  2  0  0  0  0
  6  5  1  0  0  0  0
  7  1  1  0  0  0  0
  8  5  1  0  0  0  0
  9 10  1  0  0  0  0
 10 11  1  0  0  0  0
 10 16  1  0  0  0  0
 11 18  1  0  0  0  0
 11 17  1  0  0  0  0
 12 19  1  0  0  0  0
 12 11  1  0  0  0  0
 13 14  1  0  0  0  0
 13 12  1  0  0  0  0
 14  9  1  0  0  0  0
 14 23  1  0  0  0  0
 15 10  1  0  0  0  0
 20 13  1  0  0  0  0
 21 13  1  0  0  0  0
 22 14  1  0  0  0  0
 24 26  1  0  0  0  0
 26 25  2  1  0  0  0
 27 26  1  0  0  0  0
 28 27  1  0  0  0  0
 29 26  1  0  0  0  0
 30 32  2  0  0  0  0
 30 29  1  0  0  0  0
 31 30  1  0  0  0  0
M  END
>  <minimizedAffinity>
-4.07853651

$$$$

 OpenBabel03242520273D

 32 33  0  0  0  0  0  0  0  0999 V2000
   41.3450   29.2230   40.6150 C   0  0  0  0  0  0  0  0  0  0  0  0
   40.1120   29.1020   41.3040 C   0  0  0  0  0  0  0  0  0  0  0  0
   39.2440   30.1870   41.3220 C   0  0  0  0  0  0  0  0  0  0  0  0
   39.6210   31.3350   40.6690 N   0  0  0  0  0  0  0  0  0  0  0  0
   40.7960   31.4310   40.0210 C   0  0  0  0  0  0  0  0  0  0  0  0
   41.6440   30.3960   39.9940 N   0  0  0  0  0  0  0  0  0  0  0  0
   42.0300   28.4000   40.5880 H   0  0  0  0  0  0  0  0  0  0  0  0
   41.0590   32.3560   39.5170 H   0  0  0  0  0  0  0  0  0  0  0  0
   39.8810   27.8530   41.9220 N   0  0  0  0  0  0  0  0  0  0  0  0
   40.2270   27.5620   43.3030 C   0  0  0  0  0  0  0  0  0  0  0  0
   39.7450   26.2040   43.6780 C   0  0  0  0  0  0  0  0  0  0  0  0
   40.1450   25.1790   42.7550 N   0  0  0  0  0  0  0  0  0  0  0  0
   39.9090   25.4770   41.3830 C   0  0  0  0  0  0  0  0  0  0  0  0
   39.2590   26.7970   41.1200 C   0  0  0  0  0  0  0  0  0  0  0  0
   41.3420   27.5600   43.3760 H   0  0  0  0  0  0  0  0  0  0  0  0
   39.7930   28.3000   43.9860 H   0  0  0  0  0  0  0  0  0  0  0  0
   38.6540   26.1310   43.8100 H   0  0  0  0  0  0  0  0  0  0  0  0
   40.2030   25.9390   44.6540 H   0  0  0  0  0  0  0  0  0  0  0  0
   39.6780   24.2850   43.0020 H   0  0  0  0  0  0  0  0  0  0  0  0
   39.3410   24.7010   40.8410 H   0  0  0  0  0  0  0  0  0  0  0  0
   40.9160   25.5150   40.8780 H   0  0  0  0  0  0  0  0  0  0  0  0
   39.3270   27.0160   40.0400 H   0  0  0  0  0  0  0  0  0  0  0  0
   38.1860   26.7990   41.4040 H   0  0  0  0  0  0  0  0  0  0  0  0
   38.0530   30.0310   42.0020 O   0  0  0  0  0  0  0  0  0  0  0  0
   36.0110   28.4210   41.5480 O   0  0  0  0  0  0  0  0  0  0  0  0
   36.6160   29.7460   41.1020 P   0  0  1  0  0  0  0  0  0  0  0  0
   35.5570   31.0020   41.3990 O   0  0  0  0  0  0  0  0  0  0  0  0
   35.8110   31.8000   40.8790 H   0  0  0  0  0  0  0  0  0  0  0  0
   37.0490   29.6040   39.4760 O   0  0  0  0  0  0  0  0  0  0  0  0
   36.4840   30.2570   38.4140 C   0  0  0  0  0  0  0  0  0  0  0  0
   35.6740   29.8390   37.8150 H   0  0  0  0  0  0  0  0  0  0  0  0
   37.0800   31.3790   38.2980 O   0  0  0  0  0  0  0  0  0  0  0  0
  1  2  1  0  0  0  0
  2  3  2  0  0  0  0
  2  9  1  0  0  0  0
  3 24  1  0  0  0  0
  4  3  1  0  0  0  0
  5  4  2  0  0  0  0
  6  5  1  0  0  0  0
  6  1  2  0  0  0  0
  7  1  1  0  0  0  0
  8  5  1  0  0  0  0
  9 10  1  0  0  0  0
 10 15  1  0  0  0  0
 10 11  1  0  0  0  0
 10 16  1  0  0  0  0
 11 17  1  0  0  0  0
 11 18  1  0  0  0  0
 12 19  1  0  0  0  0
 12 11  1  0  0  0  0
 13 12  1  0  0  0  0
 14 13  1  0  0  0  0
 14 23  1  0  0  0  0
 14  9  1  0  0  0  0
 20 13  1  0  0  0  0
 21 13  1  0  0  0  0
 22 14  1  0  0  0  0
 26 27  1  0  0  0  0
 26 25  2  1  0  0  0
 26 24  1  0  0  0  0
 28 27  1  0  0  0  0
 29 26  1  0  0  0  0
 30 29  1  0  0  0  0
 31 30  1  0  0  0  0
 32 30  2  0  0  0  0
M  END
>  <minimizedAffinity>
-4.03068495

$$$$
