
 OpenBabel03252508593D

 39 40  0  0  1  0  0  0  0  0999 V2000
   47.1620   34.1310   43.0850 N   0  0  0  0  0  0  0  0  0  0  0  0
   46.6500   35.3300   42.5120 C   0  0  0  0  0  0  0  0  0  0  0  0
   45.1930   35.5860   42.7490 C   0  0  0  0  0  0  0  0  0  0  0  0
   44.6520   35.0460   44.0450 C   0  0  0  0  0  0  0  0  0  0  0  0
   45.7640   34.4960   44.9070 C   0  0  0  0  0  0  0  0  0  0  0  0
   46.4180   33.3980   43.9910 C   0  0  2  0  0  0  0  0  0  0  0  0
   46.8420   35.4680   41.4430 H   0  0  0  0  0  0  0  0  0  0  0  0
   47.2090   36.1760   43.0070 H   0  0  0  0  0  0  0  0  0  0  0  0
   45.0280   36.6950   42.7670 H   0  0  0  0  0  0  0  0  0  0  0  0
   44.5880   35.2420   41.8700 H   0  0  0  0  0  0  0  0  0  0  0  0
   43.9940   35.7660   44.5700 H   0  0  0  0  0  0  0  0  0  0  0  0
   43.9920   34.1820   43.7830 H   0  0  0  0  0  0  0  0  0  0  0  0
   45.3460   34.0250   45.8060 H   0  0  0  0  0  0  0  0  0  0  0  0
   46.5330   35.2680   45.1060 H   0  0  0  0  0  0  0  0  0  0  0  0
   45.5900   32.7760   43.5940 H   0  0  0  0  0  0  0  0  0  0  0  0
   48.1350   33.4590   42.2750 C   0  0  0  0  0  0  0  0  0  0  0  0
   48.7430   32.7800   42.9030 H   0  0  0  0  0  0  0  0  0  0  0  0
   48.7780   34.2260   41.7950 H   0  0  0  0  0  0  0  0  0  0  0  0
   47.4040   32.6380   41.2480 C   0  0  0  0  0  0  0  0  0  0  0  0
   46.3190   32.9350   41.1960 H   0  0  0  0  0  0  0  0  0  0  0  0
   47.4250   31.5560   41.4310 H   0  0  0  0  0  0  0  0  0  0  0  0
   49.3340   32.2670   38.0430 C   0  0  0  0  0  0  0  0  0  0  0  0
   48.7950   31.9980   39.3150 C   0  0  0  0  0  0  0  0  0  0  0  0
   47.9690   32.9300   39.9030 C   0  0  0  0  0  0  0  0  0  0  0  0
   47.7150   34.0610   39.2230 N   0  0  0  0  0  0  0  0  0  0  0  0
   48.2320   34.3090   38.0110 C   0  0  0  0  0  0  0  0  0  0  0  0
   49.0480   33.4140   37.4070 N   0  0  0  0  0  0  0  0  0  0  0  0
   49.9850   31.5260   37.5870 H   0  0  0  0  0  0  0  0  0  0  0  0
   49.0360   31.0740   39.8080 H   0  0  0  0  0  0  0  0  0  0  0  0
   47.9800   35.2440   37.5270 H   0  0  0  0  0  0  0  0  0  0  0  0
   47.2240   32.7230   44.8940 O   0  0  0  0  0  0  0  0  0  0  0  0
   46.2240   30.4630   43.9080 O   0  0  0  0  0  0  0  0  0  0  0  0
   46.6910   31.1560   45.1930 P   0  0  2  0  0  0  0  0  0  0  0  0
   45.2740   31.3100   46.1420 O   0  0  0  0  0  0  0  0  0  0  0  0
   45.5240   31.5380   47.0710 H   0  0  0  0  0  0  0  0  0  0  0  0
   47.7820   30.2420   46.0510 O   0  0  0  0  0  0  0  0  0  0  0  0
   48.6950   29.4470   45.3730 C   0  0  0  0  0  0  0  0  0  0  0  0
   48.5460   29.0820   44.3630 H   0  0  0  0  0  0  0  0  0  0  0  0
   49.7060   29.2150   46.0920 O   0  0  0  0  0  0  0  0  0  0  0  0
  1  6  1  0  0  0  0
  2  3  1  0  0  0  0
  2  8  1  0  0  0  0
  2  1  1  0  0  0  0
  3  9  1  0  0  0  0
  3  4  1  0  0  0  0
  4 11  1  0  0  0  0
  4  5  1  0  0  0  0
  5 14  1  0  0  0  0
  5 13  1  0  0  0  0
  6 15  1  6  0  0  0
  6 31  1  0  0  0  0
  6  5  1  0  0  0  0
  7  2  1  0  0  0  0
 10  3  1  0  0  0  0
 12  4  1  0  0  0  0
 16 17  1  0  0  0  0
 16  1  1  0  0  0  0
 18 16  1  0  0  0  0
 19 21  1  0  0  0  0
 19 16  1  0  0  0  0
 20 19  1  0  0  0  0
 22 23  1  0  0  0  0
 23 29  1  0  0  0  0
 23 24  2  0  0  0  0
 24 19  1  0  0  0  0
 25 24  1  0  0  0  0
 26 25  2  0  0  0  0
 27 26  1  0  0  0  0
 27 22  2  0  0  0  0
 28 22  1  0  0  0  0
 30 26  1  0  0  0  0
 31 33  1  0  0  0  0
 33 32  2  6  0  0  0
 33 36  1  0  0  0  0
 33 34  1  0  0  0  0
 34 35  1  0  0  0  0
 37 36  1  0  0  0  0
 37 39  2  0  0  0  0
 38 37  1  0  0  0  0
M  END
>  <minimizedAffinity>
-3.63628054

>  <minimizedRMSD>
0.267111927

$$$$
