
 OpenBabel03252508593D

 39 40  0  0  1  0  0  0  0  0999 V2000
   47.1680   34.1450   43.0790 N   0  0  0  0  0  0  0  0  0  0  0  0
   46.6510   35.3460   42.5120 C   0  0  0  0  0  0  0  0  0  0  0  0
   45.1890   35.5860   42.7380 C   0  0  0  0  0  0  0  0  0  0  0  0
   44.6420   35.0290   44.0240 C   0  0  0  0  0  0  0  0  0  0  0  0
   45.7510   34.4800   44.8920 C   0  0  0  0  0  0  0  0  0  0  0  0
   46.4230   33.3970   43.9710 C   0  0  2  0  0  0  0  0  0  0  0  0
   46.8510   35.4950   41.4470 H   0  0  0  0  0  0  0  0  0  0  0  0
   47.1980   36.1920   43.0210 H   0  0  0  0  0  0  0  0  0  0  0  0
   45.0140   36.6930   42.7660 H   0  0  0  0  0  0  0  0  0  0  0  0
   44.5960   35.2450   41.8510 H   0  0  0  0  0  0  0  0  0  0  0  0
   43.9730   35.7380   44.5500 H   0  0  0  0  0  0  0  0  0  0  0  0
   43.9920   34.1610   43.7480 H   0  0  0  0  0  0  0  0  0  0  0  0
   45.3290   33.9980   45.7820 H   0  0  0  0  0  0  0  0  0  0  0  0
   46.5110   35.2580   45.1040 H   0  0  0  0  0  0  0  0  0  0  0  0
   45.6040   32.7720   43.5600 H   0  0  0  0  0  0  0  0  0  0  0  0
   48.1540   33.4900   42.2710 C   0  0  0  0  0  0  0  0  0  0  0  0
   48.7820   32.8340   42.9040 H   0  0  0  0  0  0  0  0  0  0  0  0
   48.7760   34.2680   41.7800 H   0  0  0  0  0  0  0  0  0  0  0  0
   47.4400   32.6400   41.2560 C   0  0  0  0  0  0  0  0  0  0  0  0
   46.3470   32.9070   41.2070 H   0  0  0  0  0  0  0  0  0  0  0  0
   47.4920   31.5610   41.4490 H   0  0  0  0  0  0  0  0  0  0  0  0
   49.3320   32.2750   38.0280 C   0  0  0  0  0  0  0  0  0  0  0  0
   48.8080   32.0030   39.3060 C   0  0  0  0  0  0  0  0  0  0  0  0
   47.9900   32.9340   39.9050 C   0  0  0  0  0  0  0  0  0  0  0  0
   47.7280   34.0670   39.2310 N   0  0  0  0  0  0  0  0  0  0  0  0
   48.2320   34.3170   38.0130 C   0  0  0  0  0  0  0  0  0  0  0  0
   49.0400   33.4240   37.3980 N   0  0  0  0  0  0  0  0  0  0  0  0
   49.9770   31.5340   37.5620 H   0  0  0  0  0  0  0  0  0  0  0  0
   49.0550   31.0780   39.7930 H   0  0  0  0  0  0  0  0  0  0  0  0
   47.9750   35.2540   37.5350 H   0  0  0  0  0  0  0  0  0  0  0  0
   47.2270   32.7200   44.8750 O   0  0  0  0  0  0  0  0  0  0  0  0
   46.0980   30.5190   43.8940 O   0  0  0  0  0  0  0  0  0  0  0  0
   46.7040   31.1470   45.1550 P   0  0  2  0  0  0  0  0  0  0  0  0
   45.3940   31.2700   46.2510 O   0  0  0  0  0  0  0  0  0  0  0  0
   45.7410   31.4520   47.1590 H   0  0  0  0  0  0  0  0  0  0  0  0
   47.8640   30.1830   45.8540 O   0  0  0  0  0  0  0  0  0  0  0  0
   48.8070   29.5540   45.0540 C   0  0  0  0  0  0  0  0  0  0  0  0
   49.3610   30.0530   44.2670 H   0  0  0  0  0  0  0  0  0  0  0  0
   48.9210   28.3380   45.3700 O   0  0  0  0  0  0  0  0  0  0  0  0
  1  6  1  0  0  0  0
  2  3  1  0  0  0  0
  2  8  1  0  0  0  0
  2  1  1  0  0  0  0
  3  9  1  0  0  0  0
  3  4  1  0  0  0  0
  4 11  1  0  0  0  0
  4  5  1  0  0  0  0
  5 14  1  0  0  0  0
  5 13  1  0  0  0  0
  6 15  1  6  0  0  0
  6 31  1  0  0  0  0
  6  5  1  0  0  0  0
  7  2  1  0  0  0  0
 10  3  1  0  0  0  0
 12  4  1  0  0  0  0
 16 17  1  0  0  0  0
 16  1  1  0  0  0  0
 18 16  1  0  0  0  0
 19 21  1  0  0  0  0
 19 16  1  0  0  0  0
 20 19  1  0  0  0  0
 22 23  1  0  0  0  0
 23 29  1  0  0  0  0
 23 24  2  0  0  0  0
 24 19  1  0  0  0  0
 25 24  1  0  0  0  0
 26 25  2  0  0  0  0
 27 26  1  0  0  0  0
 27 22  2  0  0  0  0
 28 22  1  0  0  0  0
 30 26  1  0  0  0  0
 31 33  1  0  0  0  0
 33 32  2  6  0  0  0
 33 36  1  0  0  0  0
 33 34  1  0  0  0  0
 34 35  1  0  0  0  0
 37 39  2  0  0  0  0
 37 36  1  0  0  0  0
 38 37  1  0  0  0  0
M  END
>  <minimizedAffinity>
-3.58851719

>  <minimizedRMSD>
0.0809142962

$$$$
