
 OpenBabel03242515113D

 30 31  0  0  0  0  0  0  0  0999 V2000
   36.6560   30.5360   39.3380 C   0  0  0  0  0  0  0  0  0  0  0  0
   36.4180   30.3620   38.0110 C   0  0  0  0  0  0  0  0  0  0  0  0
   35.6570   29.3550   37.4770 C   0  0  0  0  0  0  0  0  0  0  0  0
   35.0820   28.4410   38.3370 C   0  0  0  0  0  0  0  0  0  0  0  0
   35.3030   28.5870   39.6660 C   0  0  0  0  0  0  0  0  0  0  0  0
   36.0790   29.6180   40.1810 C   0  0  0  0  0  0  0  0  0  0  0  0
   36.8590   31.0700   37.3080 H   0  0  0  0  0  0  0  0  0  0  0  0
   35.5020   29.2690   36.4090 H   0  0  0  0  0  0  0  0  0  0  0  0
   34.4840   27.6530   37.8920 H   0  0  0  0  0  0  0  0  0  0  0  0
   34.8290   27.8420   40.3070 H   0  0  0  0  0  0  0  0  0  0  0  0
   37.9080   33.9340   39.8920 C   0  0  0  0  0  0  0  0  0  0  0  0
   38.9790   33.7510   40.7640 C   0  0  0  0  0  0  0  0  0  0  0  0
   39.2740   32.4490   41.1640 C   0  0  0  0  0  0  0  0  0  0  0  0
   38.5200   31.4030   40.7020 N   0  0  0  0  0  0  0  0  0  0  0  0
   37.4780   31.6300   39.8470 C   0  0  0  0  0  0  0  0  0  0  0  0
   37.1990   32.8860   39.4660 N   0  0  0  0  0  0  0  0  0  0  0  0
   37.6240   34.9160   39.5420 H   0  0  0  0  0  0  0  0  0  0  0  0
   39.5600   34.5750   41.1180 H   0  0  0  0  0  0  0  0  0  0  0  0
   40.0930   32.2340   41.8400 H   0  0  0  0  0  0  0  0  0  0  0  0
   36.2030   29.6190   41.5900 N   0  0  0  0  0  0  0  0  0  0  0  0
   35.5580   30.3540   42.0070 H   0  0  0  0  0  0  0  0  0  0  0  0
   37.1490   28.7010   42.6640 S   0  0  0  0  0  0  0  0  0  0  0  0
   38.1140   29.6380   43.3760 O   0  0  0  0  0  0  0  0  0  0  0  0
   39.0110   29.8110   43.0440 H   0  0  0  0  0  0  0  0  0  0  0  0
   36.3710   27.9320   43.6770 O   0  0  0  0  0  0  0  0  0  0  0  0
   36.2370   28.2270   44.6170 H   0  0  0  0  0  0  0  0  0  0  0  0
   38.1190   27.6890   41.7110 O   0  0  0  0  0  0  0  0  0  0  0  0
   39.1290   27.0210   42.3920 C   0  0  0  0  0  0  0  0  0  0  0  0
   40.0040   26.5580   41.9560 H   0  0  0  0  0  0  0  0  0  0  0  0
   39.0280   26.9390   43.6550 O   0  0  0  0  0  0  0  0  0  0  0  0
  1 15  1  0  0  0  0
  1  6  1  0  0  0  0
  2  1  2  0  0  0  0
  3  2  1  0  0  0  0
  3  4  2  0  0  0  0
  4  5  1  0  0  0  0
  5  6  2  0  0  0  0
  5 10  1  0  0  0  0
  6 20  1  0  0  0  0
  7  2  1  0  0  0  0
  8  3  1  0  0  0  0
  9  4  1  0  0  0  0
 11 12  1  0  0  0  0
 12 18  1  0  0  0  0
 12 13  2  0  0  0  0
 13 19  1  0  0  0  0
 14 13  1  0  0  0  0
 15 14  2  0  0  0  0
 16 15  1  0  0  0  0
 16 11  2  0  0  0  0
 17 11  1  0  0  0  0
 20 21  1  0  0  0  0
 20 22  1  0  0  0  0
 22 23  1  0  0  0  0
 22 25  1  0  0  0  0
 24 23  1  0  0  0  0
 25 26  1  0  0  0  0
 27 28  1  0  0  0  0
 27 22  1  0  0  0  0
 28 30  2  0  0  0  0
 29 28  1  0  0  0  0
M  END
>  <minimizedAffinity>
-5.12606335

$$$$

 OpenBabel03242515113D

 30 31  0  0  0  0  0  0  0  0999 V2000
   36.4900   28.1080   39.3680 C   0  0  0  0  0  0  0  0  0  0  0  0
   35.8620   27.0680   38.7570 C   0  0  0  0  0  0  0  0  0  0  0  0
   35.2190   27.1420   37.5490 C   0  0  0  0  0  0  0  0  0  0  0  0
   35.1980   28.3550   36.8910 C   0  0  0  0  0  0  0  0  0  0  0  0
   35.8140   29.4100   37.4750 C   0  0  0  0  0  0  0  0  0  0  0  0
   36.4600   29.3080   38.7010 C   0  0  0  0  0  0  0  0  0  0  0  0
   35.8630   26.0980   39.2550 H   0  0  0  0  0  0  0  0  0  0  0  0
   34.7360   26.2770   37.1120 H   0  0  0  0  0  0  0  0  0  0  0  0
   34.6830   28.3900   35.9360 H   0  0  0  0  0  0  0  0  0  0  0  0
   35.7720   30.3480   36.9190 H   0  0  0  0  0  0  0  0  0  0  0  0
   36.9660   27.8440   42.9910 C   0  0  0  0  0  0  0  0  0  0  0  0
   38.3460   27.7030   43.1310 C   0  0  0  0  0  0  0  0  0  0  0  0
   39.1180   27.7010   41.9710 C   0  0  0  0  0  0  0  0  0  0  0  0
   38.5160   27.8320   40.7470 N   0  0  0  0  0  0  0  0  0  0  0  0
   37.1590   27.9670   40.6580 C   0  0  0  0  0  0  0  0  0  0  0  0
   36.4220   27.9690   41.7790 N   0  0  0  0  0  0  0  0  0  0  0  0
   36.3080   27.8550   43.8470 H   0  0  0  0  0  0  0  0  0  0  0  0
   38.8020   27.6020   44.0910 H   0  0  0  0  0  0  0  0  0  0  0  0
   40.1950   27.5950   42.0070 H   0  0  0  0  0  0  0  0  0  0  0  0
   37.0500   30.5080   39.1620 N   0  0  0  0  0  0  0  0  0  0  0  0
   37.7360   30.8730   38.4380 H   0  0  0  0  0  0  0  0  0  0  0  0
   36.8590   31.4120   40.5900 S   0  0  0  0  0  0  0  0  0  0  0  0
   36.7730   32.8860   40.2190 O   0  0  0  0  0  0  0  0  0  0  0  0
   37.5560   33.4610   40.1930 H   0  0  0  0  0  0  0  0  0  0  0  0
   35.6690   31.0390   41.4070 O   0  0  0  0  0  0  0  0  0  0  0  0
   34.8110   31.5420   41.4030 H   0  0  0  0  0  0  0  0  0  0  0  0
   38.3020   31.2470   41.4640 O   0  0  0  0  0  0  0  0  0  0  0  0
   39.4640   31.2870   40.7040 C   0  0  0  0  0  0  0  0  0  0  0  0
   40.3360   30.6590   40.8260 H   0  0  0  0  0  0  0  0  0  0  0  0
   39.5230   32.1440   39.7690 O   0  0  0  0  0  0  0  0  0  0  0  0
  1 15  1  0  0  0  0
  2  7  1  0  0  0  0
  2  1  1  0  0  0  0
  3  2  2  0  0  0  0
  4  5  2  0  0  0  0
  4  3  1  0  0  0  0
  5  6  1  0  0  0  0
  6 20  1  0  0  0  0
  6  1  2  0  0  0  0
  8  3  1  0  0  0  0
  9  4  1  0  0  0  0
 10  5  1  0  0  0  0
 11 12  1  0  0  0  0
 11 17  1  0  0  0  0
 12 18  1  0  0  0  0
 13 19  1  0  0  0  0
 13 12  2  0  0  0  0
 14 13  1  0  0  0  0
 15 14  2  0  0  0  0
 15 16  1  0  0  0  0
 16 11  2  0  0  0  0
 20 22  1  0  0  0  0
 21 20  1  0  0  0  0
 22 25  1  0  0  0  0
 22 27  1  0  0  0  0
 23 22  1  0  0  0  0
 24 23  1  0  0  0  0
 26 25  1  0  0  0  0
 28 29  1  0  0  0  0
 28 27  1  0  0  0  0
 30 28  2  0  0  0  0
M  END
>  <minimizedAffinity>
-5.01742411

$$$$

 OpenBabel03242515113D

 30 31  0  0  0  0  0  0  0  0999 V2000
   38.2880   30.9930   41.3460 C   0  0  0  0  0  0  0  0  0  0  0  0
   39.3480   31.8190   41.1400 C   0  0  0  0  0  0  0  0  0  0  0  0
   39.2980   32.9970   40.4420 C   0  0  0  0  0  0  0  0  0  0  0  0
   38.0890   33.3890   39.9020 C   0  0  0  0  0  0  0  0  0  0  0  0
   37.0150   32.5860   40.0900 C   0  0  0  0  0  0  0  0  0  0  0  0
   37.0930   31.3950   40.8030 C   0  0  0  0  0  0  0  0  0  0  0  0
   40.3150   31.5350   41.5560 H   0  0  0  0  0  0  0  0  0  0  0  0
   40.1780   33.6150   40.3120 H   0  0  0  0  0  0  0  0  0  0  0  0
   38.0740   34.3250   39.3540 H   0  0  0  0  0  0  0  0  0  0  0  0
   36.0810   32.9350   39.6460 H   0  0  0  0  0  0  0  0  0  0  0  0
   39.6770   27.8460   42.6070 C   0  0  0  0  0  0  0  0  0  0  0  0
   38.7000   27.3850   43.4870 C   0  0  0  0  0  0  0  0  0  0  0  0
   37.5540   28.1610   43.6470 C   0  0  0  0  0  0  0  0  0  0  0  0
   37.4190   29.3340   42.9520 N   0  0  0  0  0  0  0  0  0  0  0  0
   38.4040   29.7470   42.1000 C   0  0  0  0  0  0  0  0  0  0  0  0
   39.5040   28.9950   41.9500 N   0  0  0  0  0  0  0  0  0  0  0  0
   40.5900   27.2940   42.4350 H   0  0  0  0  0  0  0  0  0  0  0  0
   38.8170   26.4680   44.0230 H   0  0  0  0  0  0  0  0  0  0  0  0
   36.7550   27.8630   44.3140 H   0  0  0  0  0  0  0  0  0  0  0  0
   35.8750   30.6830   40.9010 N   0  0  0  0  0  0  0  0  0  0  0  0
   35.3030   31.0590   41.7140 H   0  0  0  0  0  0  0  0  0  0  0  0
   35.2100   29.4060   39.9950 S   0  0  0  0  0  0  0  0  0  0  0  0
   35.8590   28.1060   40.4480 O   0  0  0  0  0  0  0  0  0  0  0  0
   36.6490   27.7410   40.0150 H   0  0  0  0  0  0  0  0  0  0  0  0
   33.7280   29.2790   40.0950 O   0  0  0  0  0  0  0  0  0  0  0  0
   33.2640   28.6250   40.6820 H   0  0  0  0  0  0  0  0  0  0  0  0
   35.7170   29.6330   38.3940 O   0  0  0  0  0  0  0  0  0  0  0  0
   34.9720   28.9600   37.4340 C   0  0  0  0  0  0  0  0  0  0  0  0
   34.6530   29.3490   36.4760 H   0  0  0  0  0  0  0  0  0  0  0  0
   34.6240   27.7680   37.6930 O   0  0  0  0  0  0  0  0  0  0  0  0
  1 15  1  0  0  0  0
  2  1  1  0  0  0  0
  2  7  1  0  0  0  0
  3  2  2  0  0  0  0
  4  5  2  0  0  0  0
  4  3  1  0  0  0  0
  5  6  1  0  0  0  0
  6 20  1  0  0  0  0
  6  1  2  0  0  0  0
  8  3  1  0  0  0  0
  9  4  1  0  0  0  0
 10  5  1  0  0  0  0
 11 12  1  0  0  0  0
 12 13  2  0  0  0  0
 12 18  1  0  0  0  0
 13 19  1  0  0  0  0
 14 13  1  0  0  0  0
 15 14  2  0  0  0  0
 16 15  1  0  0  0  0
 16 11  2  0  0  0  0
 17 11  1  0  0  0  0
 20 21  1  0  0  0  0
 22 25  1  0  0  0  0
 22 23  1  0  0  0  0
 22 20  1  0  0  0  0
 24 23  1  0  0  0  0
 25 26  1  0  0  0  0
 27 22  1  0  0  0  0
 28 30  2  0  0  0  0
 28 27  1  0  0  0  0
 29 28  1  0  0  0  0
M  END
>  <minimizedAffinity>
-4.95208979

$$$$

 OpenBabel03242515113D

 30 31  0  0  0  0  0  0  0  0999 V2000
   37.3840   31.7800   39.7980 C   0  0  0  0  0  0  0  0  0  0  0  0
   37.1680   33.0890   39.5010 C   0  0  0  0  0  0  0  0  0  0  0  0
   37.9600   34.1280   39.9150 C   0  0  0  0  0  0  0  0  0  0  0  0
   39.0640   33.8410   40.6930 C   0  0  0  0  0  0  0  0  0  0  0  0
   39.3050   32.5450   41.0070 C   0  0  0  0  0  0  0  0  0  0  0  0
   38.4850   31.5110   40.5730 C   0  0  0  0  0  0  0  0  0  0  0  0
   36.3030   33.3450   38.8880 H   0  0  0  0  0  0  0  0  0  0  0  0
   37.7360   35.1520   39.6450 H   0  0  0  0  0  0  0  0  0  0  0  0
   39.6760   34.6790   41.0090 H   0  0  0  0  0  0  0  0  0  0  0  0
   40.1880   32.3660   41.6230 H   0  0  0  0  0  0  0  0  0  0  0  0
   34.8160   29.1680   39.8290 C   0  0  0  0  0  0  0  0  0  0  0  0
   34.8040   28.7040   38.5150 C   0  0  0  0  0  0  0  0  0  0  0  0
   35.6860   29.2930   37.6120 C   0  0  0  0  0  0  0  0  0  0  0  0
   36.5250   30.2930   38.0280 N   0  0  0  0  0  0  0  0  0  0  0  0
   36.5020   30.7160   39.3270 C   0  0  0  0  0  0  0  0  0  0  0  0
   35.6500   30.1450   40.1910 N   0  0  0  0  0  0  0  0  0  0  0  0
   34.1590   28.7560   40.5820 H   0  0  0  0  0  0  0  0  0  0  0  0
   34.1450   27.9230   38.2040 H   0  0  0  0  0  0  0  0  0  0  0  0
   35.7300   28.9820   36.5760 H   0  0  0  0  0  0  0  0  0  0  0  0
   38.8860   30.2210   40.9940 N   0  0  0  0  0  0  0  0  0  0  0  0
   39.7730   29.9350   40.4820 H   0  0  0  0  0  0  0  0  0  0  0  0
   38.2330   29.1180   42.1100 S   0  0  0  0  0  0  0  0  0  0  0  0
   39.3150   28.7550   43.1180 O   0  0  0  0  0  0  0  0  0  0  0  0
   39.8980   27.9870   42.9990 H   0  0  0  0  0  0  0  0  0  0  0  0
   37.0270   29.6100   42.8370 O   0  0  0  0  0  0  0  0  0  0  0  0
   37.0460   29.9790   43.7600 H   0  0  0  0  0  0  0  0  0  0  0  0
   37.9140   27.6910   41.2520 O   0  0  0  0  0  0  0  0  0  0  0  0
   36.9840   26.8410   41.8380 C   0  0  0  0  0  0  0  0  0  0  0  0
   36.2490   26.2380   41.3230 H   0  0  0  0  0  0  0  0  0  0  0  0
   36.9860   26.7550   43.1040 O   0  0  0  0  0  0  0  0  0  0  0  0
  1  6  1  0  0  0  0
  2  1  2  0  0  0  0
  2  3  1  0  0  0  0
  3  4  2  0  0  0  0
  4  5  1  0  0  0  0
  4  9  1  0  0  0  0
  5 10  1  0  0  0  0
  6 20  1  0  0  0  0
  6  5  2  0  0  0  0
  7  2  1  0  0  0  0
  8  3  1  0  0  0  0
 11 16  1  0  0  0  0
 11 17  1  0  0  0  0
 12 11  2  0  0  0  0
 13 14  2  0  0  0  0
 13 12  1  0  0  0  0
 14 15  1  0  0  0  0
 15  1  1  0  0  0  0
 15 16  2  0  0  0  0
 18 12  1  0  0  0  0
 19 13  1  0  0  0  0
 20 22  1  0  0  0  0
 21 20  1  0  0  0  0
 22 25  1  0  0  0  0
 22 23  1  0  0  0  0
 24 23  1  0  0  0  0
 25 26  1  0  0  0  0
 27 28  1  0  0  0  0
 27 22  1  0  0  0  0
 28 30  2  0  0  0  0
 29 28  1  0  0  0  0
M  END
>  <minimizedAffinity>
-4.89968491

$$$$

 OpenBabel03242515113D

 30 31  0  0  0  0  0  0  0  0999 V2000
   36.5680   28.1870   41.1290 C   0  0  0  0  0  0  0  0  0  0  0  0
   36.9900   27.0200   41.6870 C   0  0  0  0  0  0  0  0  0  0  0  0
   37.7860   26.9260   42.7980 C   0  0  0  0  0  0  0  0  0  0  0  0
   38.1990   28.0920   43.4090 C   0  0  0  0  0  0  0  0  0  0  0  0
   37.7960   29.2710   42.8760 C   0  0  0  0  0  0  0  0  0  0  0  0
   36.9880   29.3380   41.7480 C   0  0  0  0  0  0  0  0  0  0  0  0
   36.6780   26.0830   41.2250 H   0  0  0  0  0  0  0  0  0  0  0  0
   38.0890   25.9660   43.1970 H   0  0  0  0  0  0  0  0  0  0  0  0
   38.8290   27.9930   44.2870 H   0  0  0  0  0  0  0  0  0  0  0  0
   38.1470   30.1660   43.3920 H   0  0  0  0  0  0  0  0  0  0  0  0
   35.2750   27.3950   37.7940 C   0  0  0  0  0  0  0  0  0  0  0  0
   34.1660   28.2290   37.6650 C   0  0  0  0  0  0  0  0  0  0  0  0
   33.8620   29.0710   38.7330 C   0  0  0  0  0  0  0  0  0  0  0  0
   34.6410   29.0580   39.8600 N   0  0  0  0  0  0  0  0  0  0  0  0
   35.7200   28.2230   39.9420 C   0  0  0  0  0  0  0  0  0  0  0  0
   36.0070   27.4150   38.9100 N   0  0  0  0  0  0  0  0  0  0  0  0
   35.5680   26.7170   37.0060 H   0  0  0  0  0  0  0  0  0  0  0  0
   33.5660   28.2300   36.7820 H   0  0  0  0  0  0  0  0  0  0  0  0
   33.0150   29.7450   38.7010 H   0  0  0  0  0  0  0  0  0  0  0  0
   36.6640   30.6500   41.3290 N   0  0  0  0  0  0  0  0  0  0  0  0
   35.8750   31.0340   41.9280 H   0  0  0  0  0  0  0  0  0  0  0  0
   37.2840   31.6550   40.1050 S   0  0  0  0  0  0  0  0  0  0  0  0
   36.5650   31.3270   38.8040 O   0  0  0  0  0  0  0  0  0  0  0  0
   36.9090   30.6750   38.1700 H   0  0  0  0  0  0  0  0  0  0  0  0
   37.1640   33.1160   40.3800 O   0  0  0  0  0  0  0  0  0  0  0  0
   36.4540   33.6970   39.9980 H   0  0  0  0  0  0  0  0  0  0  0  0
   38.8950   31.1880   39.8640 O   0  0  0  0  0  0  0  0  0  0  0  0
   39.8300   31.8600   40.6410 C   0  0  0  0  0  0  0  0  0  0  0  0
   40.7870   32.2420   40.3110 H   0  0  0  0  0  0  0  0  0  0  0  0
   39.5470   32.0530   41.8630 O   0  0  0  0  0  0  0  0  0  0  0  0
  1  2  2  0  0  0  0
  1  6  1  0  0  0  0
  2  3  1  0  0  0  0
  3  8  1  0  0  0  0
  3  4  2  0  0  0  0
  4  9  1  0  0  0  0
  5 10  1  0  0  0  0
  5  4  1  0  0  0  0
  6  5  2  0  0  0  0
  7  2  1  0  0  0  0
 11 16  1  0  0  0  0
 12 11  2  0  0  0  0
 12 13  1  0  0  0  0
 13 14  2  0  0  0  0
 14 15  1  0  0  0  0
 15  1  1  0  0  0  0
 16 15  2  0  0  0  0
 17 11  1  0  0  0  0
 18 12  1  0  0  0  0
 19 13  1  0  0  0  0
 20  6  1  0  0  0  0
 20 21  1  0  0  0  0
 22 25  1  0  0  0  0
 22 20  1  0  0  0  0
 23 22  1  0  0  0  0
 24 23  1  0  0  0  0
 26 25  1  0  0  0  0
 27 22  1  0  0  0  0
 27 28  1  0  0  0  0
 28 30  2  0  0  0  0
 29 28  1  0  0  0  0
M  END
>  <minimizedAffinity>
-4.84736967

$$$$

 OpenBabel03242515113D

 30 31  0  0  0  0  0  0  0  0999 V2000
   37.2930   29.5660   39.7460 C   0  0  0  0  0  0  0  0  0  0  0  0
   37.0790   28.7660   38.6680 C   0  0  0  0  0  0  0  0  0  0  0  0
   36.9820   29.2050   37.3730 C   0  0  0  0  0  0  0  0  0  0  0  0
   37.1090   30.5580   37.1290 C   0  0  0  0  0  0  0  0  0  0  0  0
   37.3220   31.3810   38.1840 C   0  0  0  0  0  0  0  0  0  0  0  0
   37.4170   30.9080   39.4870 C   0  0  0  0  0  0  0  0  0  0  0  0
   36.9760   27.6920   38.8310 H   0  0  0  0  0  0  0  0  0  0  0  0
   36.8120   28.5180   36.5540 H   0  0  0  0  0  0  0  0  0  0  0  0
   37.0290   30.8830   36.0970 H   0  0  0  0  0  0  0  0  0  0  0  0
   37.4160   32.4410   37.9430 H   0  0  0  0  0  0  0  0  0  0  0  0
   38.5660   28.9650   43.1280 C   0  0  0  0  0  0  0  0  0  0  0  0
   37.6350   28.0860   43.6790 C   0  0  0  0  0  0  0  0  0  0  0  0
   36.5620   27.6960   42.8800 C   0  0  0  0  0  0  0  0  0  0  0  0
   36.4490   28.1770   41.6010 N   0  0  0  0  0  0  0  0  0  0  0  0
   37.3870   29.0370   41.1040 C   0  0  0  0  0  0  0  0  0  0  0  0
   38.4170   29.4080   41.8780 N   0  0  0  0  0  0  0  0  0  0  0  0
   39.4220   29.3080   43.6910 H   0  0  0  0  0  0  0  0  0  0  0  0
   37.7340   27.7180   44.6760 H   0  0  0  0  0  0  0  0  0  0  0  0
   35.8020   27.0160   43.2430 H   0  0  0  0  0  0  0  0  0  0  0  0
   37.6410   31.9070   40.4640 N   0  0  0  0  0  0  0  0  0  0  0  0
   36.7360   32.1110   40.9830 H   0  0  0  0  0  0  0  0  0  0  0  0
   39.0250   32.7820   40.9210 S   0  0  0  0  0  0  0  0  0  0  0  0
   38.5870   34.1580   41.4040 O   0  0  0  0  0  0  0  0  0  0  0  0
   38.5390   34.9260   40.8090 H   0  0  0  0  0  0  0  0  0  0  0  0
   39.8530   32.1300   41.9760 O   0  0  0  0  0  0  0  0  0  0  0  0
   39.8210   32.3760   42.9390 H   0  0  0  0  0  0  0  0  0  0  0  0
   39.9120   33.0590   39.5040 O   0  0  0  0  0  0  0  0  0  0  0  0
   41.2840   32.8660   39.6150 C   0  0  0  0  0  0  0  0  0  0  0  0
   42.0450   33.6340   39.6100 H   0  0  0  0  0  0  0  0  0  0  0  0
   41.6990   31.6730   39.7350 O   0  0  0  0  0  0  0  0  0  0  0  0
  1 15  1  0  0  0  0
  2  7  1  0  0  0  0
  2  1  2  0  0  0  0
  3  2  1  0  0  0  0
  4  3  2  0  0  0  0
  4  5  1  0  0  0  0
  5  6  2  0  0  0  0
  6  1  1  0  0  0  0
  6 20  1  0  0  0  0
  8  3  1  0  0  0  0
  9  4  1  0  0  0  0
 10  5  1  0  0  0  0
 11 12  1  0  0  0  0
 11 17  1  0  0  0  0
 12 18  1  0  0  0  0
 13 19  1  0  0  0  0
 13 12  2  0  0  0  0
 14 13  1  0  0  0  0
 15 14  2  0  0  0  0
 15 16  1  0  0  0  0
 16 11  2  0  0  0  0
 20 22  1  0  0  0  0
 20 21  1  0  0  0  0
 22 23  1  0  0  0  0
 22 25  1  0  0  0  0
 24 23  1  0  0  0  0
 25 26  1  0  0  0  0
 27 28  1  0  0  0  0
 27 22  1  0  0  0  0
 28 30  2  0  0  0  0
 29 28  1  0  0  0  0
M  END
>  <minimizedAffinity>
-4.81203651

$$$$

 OpenBabel03242515113D

 30 31  0  0  0  0  0  0  0  0999 V2000
   36.4590   29.8710   39.0800 C   0  0  0  0  0  0  0  0  0  0  0  0
   36.8750   30.8570   38.2410 C   0  0  0  0  0  0  0  0  0  0  0  0
   37.2970   32.0980   38.6410 C   0  0  0  0  0  0  0  0  0  0  0  0
   37.3070   32.3840   39.9910 C   0  0  0  0  0  0  0  0  0  0  0  0
   36.8970   31.4220   40.8510 C   0  0  0  0  0  0  0  0  0  0  0  0
   36.4740   30.1700   40.4190 C   0  0  0  0  0  0  0  0  0  0  0  0
   36.8780   30.6590   37.1690 H   0  0  0  0  0  0  0  0  0  0  0  0
   37.6190   32.8440   37.9240 H   0  0  0  0  0  0  0  0  0  0  0  0
   37.6460   33.3730   40.2840 H   0  0  0  0  0  0  0  0  0  0  0  0
   36.9220   31.6920   41.9080 H   0  0  0  0  0  0  0  0  0  0  0  0
   36.3580   26.2480   38.5480 C   0  0  0  0  0  0  0  0  0  0  0  0
   35.2520   26.0680   37.7180 C   0  0  0  0  0  0  0  0  0  0  0  0
   34.5370   27.2020   37.3380 C   0  0  0  0  0  0  0  0  0  0  0  0
   34.9280   28.4390   37.7800 N   0  0  0  0  0  0  0  0  0  0  0  0
   36.0190   28.5670   38.5930 C   0  0  0  0  0  0  0  0  0  0  0  0
   36.7030   27.4710   38.9550 N   0  0  0  0  0  0  0  0  0  0  0  0
   36.9570   25.4130   38.8810 H   0  0  0  0  0  0  0  0  0  0  0  0
   34.9580   25.0990   37.3810 H   0  0  0  0  0  0  0  0  0  0  0  0
   33.6690   27.1360   36.6950 H   0  0  0  0  0  0  0  0  0  0  0  0
   36.0810   29.2890   41.4540 N   0  0  0  0  0  0  0  0  0  0  0  0
   35.0230   29.1890   41.4580 H   0  0  0  0  0  0  0  0  0  0  0  0
   36.9590   28.4160   42.6190 S   0  0  0  0  0  0  0  0  0  0  0  0
   37.4530   29.3910   43.6790 O   0  0  0  0  0  0  0  0  0  0  0  0
   38.3250   29.8170   43.6260 H   0  0  0  0  0  0  0  0  0  0  0  0
   36.1960   27.3170   43.2780 O   0  0  0  0  0  0  0  0  0  0  0  0
   35.7750   27.3920   44.1750 H   0  0  0  0  0  0  0  0  0  0  0  0
   38.3530   27.8410   41.8450 O   0  0  0  0  0  0  0  0  0  0  0  0
   39.0020   26.7970   42.4910 C   0  0  0  0  0  0  0  0  0  0  0  0
   39.2080   25.8160   42.0850 H   0  0  0  0  0  0  0  0  0  0  0  0
   39.4000   27.0000   43.6790 O   0  0  0  0  0  0  0  0  0  0  0  0
  1  6  1  0  0  0  0
  2  3  1  0  0  0  0
  2  1  2  0  0  0  0
  3  4  2  0  0  0  0
  4  9  1  0  0  0  0
  4  5  1  0  0  0  0
  5 10  1  0  0  0  0
  6  5  2  0  0  0  0
  6 20  1  0  0  0  0
  7  2  1  0  0  0  0
  8  3  1  0  0  0  0
 11 17  1  0  0  0  0
 11 16  1  0  0  0  0
 12 11  2  0  0  0  0
 13 12  1  0  0  0  0
 13 14  2  0  0  0  0
 14 15  1  0  0  0  0
 15 16  2  0  0  0  0
 15  1  1  0  0  0  0
 18 12  1  0  0  0  0
 19 13  1  0  0  0  0
 20 21  1  0  0  0  0
 20 22  1  0  0  0  0
 22 25  1  0  0  0  0
 22 23  1  0  0  0  0
 24 23  1  0  0  0  0
 25 26  1  0  0  0  0
 27 28  1  0  0  0  0
 27 22  1  0  0  0  0
 28 30  2  0  0  0  0
 29 28  1  0  0  0  0
M  END
>  <minimizedAffinity>
-4.71535778

$$$$

 OpenBabel03242515113D

 30 31  0  0  0  0  0  0  0  0999 V2000
   39.3870   29.3090   42.4070 C   0  0  0  0  0  0  0  0  0  0  0  0
   40.1410   28.2900   42.8970 C   0  0  0  0  0  0  0  0  0  0  0  0
   39.6430   27.1740   43.5170 C   0  0  0  0  0  0  0  0  0  0  0  0
   38.2750   27.0600   43.6610 C   0  0  0  0  0  0  0  0  0  0  0  0
   37.4960   28.0610   43.1830 C   0  0  0  0  0  0  0  0  0  0  0  0
   38.0280   29.1820   42.5580 C   0  0  0  0  0  0  0  0  0  0  0  0
   41.2250   28.3530   42.7970 H   0  0  0  0  0  0  0  0  0  0  0  0
   40.2960   26.3930   43.8870 H   0  0  0  0  0  0  0  0  0  0  0  0
   37.9030   26.1680   44.1540 H   0  0  0  0  0  0  0  0  0  0  0  0
   36.4210   27.9270   43.3190 H   0  0  0  0  0  0  0  0  0  0  0  0
   41.6190   32.1470   41.7900 C   0  0  0  0  0  0  0  0  0  0  0  0
   41.1510   32.6790   40.5900 C   0  0  0  0  0  0  0  0  0  0  0  0
   40.0580   32.0580   39.9900 C   0  0  0  0  0  0  0  0  0  0  0  0
   39.4830   30.9620   40.5790 N   0  0  0  0  0  0  0  0  0  0  0  0
   39.9770   30.4750   41.7560 C   0  0  0  0  0  0  0  0  0  0  0  0
   41.0300   31.0780   42.3290 N   0  0  0  0  0  0  0  0  0  0  0  0
   42.4620   32.5790   42.3100 H   0  0  0  0  0  0  0  0  0  0  0  0
   41.6070   33.5340   40.1410 H   0  0  0  0  0  0  0  0  0  0  0  0
   39.6420   32.4180   39.0570 H   0  0  0  0  0  0  0  0  0  0  0  0
   37.0700   30.1260   42.1200 N   0  0  0  0  0  0  0  0  0  0  0  0
   36.7980   30.7620   42.9270 H   0  0  0  0  0  0  0  0  0  0  0  0
   36.3250   30.4000   40.6160 S   0  0  0  0  0  0  0  0  0  0  0  0
   34.8810   29.9280   40.7020 O   0  0  0  0  0  0  0  0  0  0  0  0
   34.6120   29.0280   40.4490 H   0  0  0  0  0  0  0  0  0  0  0  0
   36.3530   31.8180   40.1580 O   0  0  0  0  0  0  0  0  0  0  0  0
   35.5880   32.4460   40.2440 H   0  0  0  0  0  0  0  0  0  0  0  0
   37.0770   29.3620   39.5080 O   0  0  0  0  0  0  0  0  0  0  0  0
   36.3230   28.2620   39.1180 C   0  0  0  0  0  0  0  0  0  0  0  0
   35.8240   28.1270   38.1680 H   0  0  0  0  0  0  0  0  0  0  0  0
   36.1990   27.3130   39.9510 O   0  0  0  0  0  0  0  0  0  0  0  0
  1  6  2  0  0  0  0
  1  2  1  0  0  0  0
  2  3  2  0  0  0  0
  3  4  1  0  0  0  0
  3  8  1  0  0  0  0
  4  9  1  0  0  0  0
  5 10  1  0  0  0  0
  5  4  2  0  0  0  0
  6  5  1  0  0  0  0
  7  2  1  0  0  0  0
 11 17  1  0  0  0  0
 11 16  1  0  0  0  0
 12 11  2  0  0  0  0
 13 14  2  0  0  0  0
 13 12  1  0  0  0  0
 14 15  1  0  0  0  0
 15 16  2  0  0  0  0
 15  1  1  0  0  0  0
 18 12  1  0  0  0  0
 19 13  1  0  0  0  0
 20  6  1  0  0  0  0
 20 21  1  0  0  0  0
 22 23  1  0  0  0  0
 22 20  1  0  0  0  0
 24 23  1  0  0  0  0
 25 26  1  0  0  0  0
 25 22  1  0  0  0  0
 27 22  1  0  0  0  0
 28 27  1  0  0  0  0
 28 30  2  0  0  0  0
 29 28  1  0  0  0  0
M  END
>  <minimizedAffinity>
-4.70240211

$$$$

 OpenBabel03242515113D

 30 31  0  0  0  0  0  0  0  0999 V2000
   35.8070   29.3780   37.7630 C   0  0  0  0  0  0  0  0  0  0  0  0
   34.5760   28.9230   37.4070 C   0  0  0  0  0  0  0  0  0  0  0  0
   34.1160   28.8360   36.1190 C   0  0  0  0  0  0  0  0  0  0  0  0
   34.9520   29.2350   35.0960 C   0  0  0  0  0  0  0  0  0  0  0  0
   36.1850   29.6940   35.4200 C   0  0  0  0  0  0  0  0  0  0  0  0
   36.6270   29.7710   36.7350 C   0  0  0  0  0  0  0  0  0  0  0  0
   33.8940   28.6010   38.1950 H   0  0  0  0  0  0  0  0  0  0  0  0
   33.1240   28.4640   35.8970 H   0  0  0  0  0  0  0  0  0  0  0  0
   34.5670   29.1570   34.0840 H   0  0  0  0  0  0  0  0  0  0  0  0
   36.8110   29.9970   34.5780 H   0  0  0  0  0  0  0  0  0  0  0  0
   36.4650   30.7340   41.1020 C   0  0  0  0  0  0  0  0  0  0  0  0
   37.0310   29.6600   41.7870 C   0  0  0  0  0  0  0  0  0  0  0  0
   37.1890   28.4610   41.0950 C   0  0  0  0  0  0  0  0  0  0  0  0
   36.7910   28.3680   39.7870 N   0  0  0  0  0  0  0  0  0  0  0  0
   36.2400   29.4470   39.1560 C   0  0  0  0  0  0  0  0  0  0  0  0
   36.0920   30.5990   39.8280 N   0  0  0  0  0  0  0  0  0  0  0  0
   36.3140   31.6920   41.5770 H   0  0  0  0  0  0  0  0  0  0  0  0
   37.3370   29.7460   42.8060 H   0  0  0  0  0  0  0  0  0  0  0  0
   37.6210   27.5870   41.5650 H   0  0  0  0  0  0  0  0  0  0  0  0
   37.9400   30.2730   36.8890 N   0  0  0  0  0  0  0  0  0  0  0  0
   38.6350   29.6050   36.4430 H   0  0  0  0  0  0  0  0  0  0  0  0
   38.5580   31.6780   37.6230 S   0  0  0  0  0  0  0  0  0  0  0  0
   39.5930   32.2910   36.6900 O   0  0  0  0  0  0  0  0  0  0  0  0
   40.5400   32.0790   36.7530 H   0  0  0  0  0  0  0  0  0  0  0  0
   37.5320   32.7040   37.9640 O   0  0  0  0  0  0  0  0  0  0  0  0
   37.3460   33.5090   37.4120 H   0  0  0  0  0  0  0  0  0  0  0  0
   39.4230   31.1700   38.9890 O   0  0  0  0  0  0  0  0  0  0  0  0
   40.0220   29.9210   38.8830 C   0  0  0  0  0  0  0  0  0  0  0  0
   39.9800   29.1220   39.6100 H   0  0  0  0  0  0  0  0  0  0  0  0
   40.6890   29.6800   37.8310 O   0  0  0  0  0  0  0  0  0  0  0  0
  1 15  1  0  0  0  0
  2  1  1  0  0  0  0
  2  7  1  0  0  0  0
  3  2  2  0  0  0  0
  4  5  2  0  0  0  0
  4  3  1  0  0  0  0
  5  6  1  0  0  0  0
  6 20  1  0  0  0  0
  6  1  2  0  0  0  0
  8  3  1  0  0  0  0
  9  4  1  0  0  0  0
 10  5  1  0  0  0  0
 11 17  1  0  0  0  0
 11 12  1  0  0  0  0
 12 18  1  0  0  0  0
 13 19  1  0  0  0  0
 13 12  2  0  0  0  0
 14 13  1  0  0  0  0
 15 14  2  0  0  0  0
 15 16  1  0  0  0  0
 16 11  2  0  0  0  0
 20 22  1  0  0  0  0
 21 20  1  0  0  0  0
 22 25  1  0  0  0  0
 22 27  1  0  0  0  0
 23 24  1  0  0  0  0
 23 22  1  0  0  0  0
 26 25  1  0  0  0  0
 28 27  1  0  0  0  0
 28 29  1  0  0  0  0
 30 28  2  0  0  0  0
M  END
>  <minimizedAffinity>
-4.60002899

$$$$
