
 OpenBabel03252509023D

 39 40  0  0  1  0  0  0  0  0999 V2000
   38.9320   28.7070   41.8220 N   0  0  0  0  0  0  0  0  0  0  0  0
   39.1780   27.7670   42.8650 C   0  0  0  0  0  0  0  0  0  0  0  0
   37.9800   27.3780   43.6760 C   0  0  0  0  0  0  0  0  0  0  0  0
   36.6710   27.3980   42.9330 C   0  0  0  0  0  0  0  0  0  0  0  0
   36.8900   27.6560   41.4600 C   0  0  0  0  0  0  0  0  0  0  0  0
   37.6430   29.0360   41.4460 C   0  0  2  0  0  0  0  0  0  0  0  0
   39.9810   28.0260   43.5620 H   0  0  0  0  0  0  0  0  0  0  0  0
   39.5410   26.8260   42.3570 H   0  0  0  0  0  0  0  0  0  0  0  0
   38.1270   26.3290   44.0420 H   0  0  0  0  0  0  0  0  0  0  0  0
   37.9320   27.9840   44.6170 H   0  0  0  0  0  0  0  0  0  0  0  0
   36.0440   26.5090   43.1420 H   0  0  0  0  0  0  0  0  0  0  0  0
   36.0900   28.2680   43.3280 H   0  0  0  0  0  0  0  0  0  0  0  0
   35.9240   27.7570   40.9490 H   0  0  0  0  0  0  0  0  0  0  0  0
   37.5680   26.8990   41.0200 H   0  0  0  0  0  0  0  0  0  0  0  0
   37.0730   29.7200   42.1070 H   0  0  0  0  0  0  0  0  0  0  0  0
   39.9810   29.6660   41.6350 C   0  0  0  0  0  0  0  0  0  0  0  0
   40.1330   29.8480   40.5540 H   0  0  0  0  0  0  0  0  0  0  0  0
   40.9070   29.2630   42.0960 H   0  0  0  0  0  0  0  0  0  0  0  0
   39.5600   30.9540   42.2860 C   0  0  0  0  0  0  0  0  0  0  0  0
   40.2190   31.1910   43.1690 H   0  0  0  0  0  0  0  0  0  0  0  0
   38.5260   30.9620   42.6540 H   0  0  0  0  0  0  0  0  0  0  0  0
   41.1390   33.2040   39.7210 C   0  0  0  0  0  0  0  0  0  0  0  0
   40.9460   32.1500   40.6340 C   0  0  0  0  0  0  0  0  0  0  0  0
   39.7570   32.0710   41.3230 C   0  0  0  0  0  0  0  0  0  0  0  0
   38.8290   33.0140   41.0850 N   0  0  0  0  0  0  0  0  0  0  0  0
   39.0220   34.0150   40.2130 C   0  0  0  0  0  0  0  0  0  0  0  0
   40.1790   34.1210   39.5210 N   0  0  0  0  0  0  0  0  0  0  0  0
   42.0810   33.2580   39.1810 H   0  0  0  0  0  0  0  0  0  0  0  0
   41.7260   31.4260   40.7790 H   0  0  0  0  0  0  0  0  0  0  0  0
   38.2260   34.7370   40.0770 H   0  0  0  0  0  0  0  0  0  0  0  0
   37.5700   29.3820   40.1060 O   0  0  0  0  0  0  0  0  0  0  0  0
   36.6720   31.6020   38.9460 O   0  0  0  0  0  0  0  0  0  0  0  0
   36.2560   30.3750   39.7650 P   0  0  2  0  0  0  0  0  0  0  0  0
   35.7400   31.0130   41.2690 O   0  0  0  0  0  0  0  0  0  0  0  0
   35.2470   30.3180   41.7690 H   0  0  0  0  0  0  0  0  0  0  0  0
   34.9730   29.5620   39.0910 O   0  0  0  0  0  0  0  0  0  0  0  0
   35.2010   28.6350   38.0840 C   0  0  0  0  0  0  0  0  0  0  0  0
   35.2180   27.5630   38.2400 H   0  0  0  0  0  0  0  0  0  0  0  0
   35.3840   29.2150   36.9760 O   0  0  0  0  0  0  0  0  0  0  0  0
  1  2  1  0  0  0  0
  2  7  1  0  0  0  0
  2  3  1  0  0  0  0
  3  9  1  0  0  0  0
  3 10  1  0  0  0  0
  4 11  1  0  0  0  0
  4 12  1  0  0  0  0
  4  3  1  0  0  0  0
  5  4  1  0  0  0  0
  6  5  1  0  0  0  0
  6  1  1  0  0  0  0
  6 15  1  1  0  0  0
  8  2  1  0  0  0  0
 13  5  1  0  0  0  0
 14  5  1  0  0  0  0
 16  1  1  0  0  0  0
 16 18  1  0  0  0  0
 16 19  1  0  0  0  0
 17 16  1  0  0  0  0
 19 21  1  0  0  0  0
 19 20  1  0  0  0  0
 22 23  1  0  0  0  0
 23 29  1  0  0  0  0
 23 24  2  0  0  0  0
 24 19  1  0  0  0  0
 25 24  1  0  0  0  0
 26 25  2  0  0  0  0
 27 22  2  0  0  0  0
 27 26  1  0  0  0  0
 28 22  1  0  0  0  0
 30 26  1  0  0  0  0
 31  6  1  0  0  0  0
 33 32  2  6  0  0  0
 33 31  1  0  0  0  0
 33 34  1  0  0  0  0
 34 35  1  0  0  0  0
 36 33  1  0  0  0  0
 37 38  1  0  0  0  0
 37 36  1  0  0  0  0
 39 37  2  0  0  0  0
M  END
>  <minimizedAffinity>
-4.7651391

$$$$

 OpenBabel03252509023D

 39 40  0  0  1  0  0  0  0  0999 V2000
   36.8830   29.0000   40.6290 N   0  0  0  0  0  0  0  0  0  0  0  0
   36.0290   28.0350   40.0210 C   0  0  0  0  0  0  0  0  0  0  0  0
   35.2040   28.5370   38.8750 C   0  0  0  0  0  0  0  0  0  0  0  0
   35.8340   29.6420   38.0710 C   0  0  0  0  0  0  0  0  0  0  0  0
   37.2570   29.8900   38.5140 C   0  0  0  0  0  0  0  0  0  0  0  0
   37.1020   30.2320   40.0410 C   0  0  2  0  0  0  0  0  0  0  0  0
   35.3610   27.4940   40.6980 H   0  0  0  0  0  0  0  0  0  0  0  0
   36.7090   27.2370   39.6020 H   0  0  0  0  0  0  0  0  0  0  0  0
   35.0270   27.6850   38.1690 H   0  0  0  0  0  0  0  0  0  0  0  0
   34.1760   28.8110   39.2250 H   0  0  0  0  0  0  0  0  0  0  0  0
   35.7260   29.4940   36.9780 H   0  0  0  0  0  0  0  0  0  0  0  0
   35.2590   30.5740   38.3000 H   0  0  0  0  0  0  0  0  0  0  0  0
   37.6710   30.7560   37.9820 H   0  0  0  0  0  0  0  0  0  0  0  0
   37.8640   28.9670   38.4370 H   0  0  0  0  0  0  0  0  0  0  0  0
   36.2970   30.9910   40.1200 H   0  0  0  0  0  0  0  0  0  0  0  0
   36.9890   28.8780   42.0530 C   0  0  0  0  0  0  0  0  0  0  0  0
   36.2620   29.5520   42.5440 H   0  0  0  0  0  0  0  0  0  0  0  0
   38.0260   29.1430   42.3490 H   0  0  0  0  0  0  0  0  0  0  0  0
   36.6610   27.4590   42.4280 C   0  0  0  0  0  0  0  0  0  0  0  0
   36.2000   26.9110   41.5590 H   0  0  0  0  0  0  0  0  0  0  0  0
   35.9610   27.3610   43.2680 H   0  0  0  0  0  0  0  0  0  0  0  0
   40.1320   26.7370   43.6790 C   0  0  0  0  0  0  0  0  0  0  0  0
   38.9350   27.4150   43.3800 C   0  0  0  0  0  0  0  0  0  0  0  0
   37.9230   26.7350   42.7400 C   0  0  0  0  0  0  0  0  0  0  0  0
   38.1300   25.4440   42.4320 N   0  0  0  0  0  0  0  0  0  0  0  0
   39.2750   24.8060   42.7200 C   0  0  0  0  0  0  0  0  0  0  0  0
   40.2880   25.4460   43.3470 N   0  0  0  0  0  0  0  0  0  0  0  0
   40.9260   27.2810   44.1840 H   0  0  0  0  0  0  0  0  0  0  0  0
   38.8300   28.4490   43.6540 H   0  0  0  0  0  0  0  0  0  0  0  0
   39.3660   23.7640   42.4380 H   0  0  0  0  0  0  0  0  0  0  0  0
   38.3580   30.7320   40.3450 O   0  0  0  0  0  0  0  0  0  0  0  0
   39.2110   33.0710   41.2840 O   0  0  0  0  0  0  0  0  0  0  0  0
   38.4620   32.3960   40.1290 P   0  0  2  0  0  0  0  0  0  0  0  0
   36.8600   32.9910   40.2460 O   0  0  0  0  0  0  0  0  0  0  0  0
   36.3710   32.7850   39.4120 H   0  0  0  0  0  0  0  0  0  0  0  0
   39.0580   32.8310   38.6400 O   0  0  0  0  0  0  0  0  0  0  0  0
   40.2650   32.3050   38.2050 C   0  0  0  0  0  0  0  0  0  0  0  0
   40.4280   31.2530   38.0000 H   0  0  0  0  0  0  0  0  0  0  0  0
   41.1330   33.2150   38.0830 O   0  0  0  0  0  0  0  0  0  0  0  0
  1 16  1  0  0  0  0
  2  1  1  0  0  0  0
  2  7  1  0  0  0  0
  3 10  1  0  0  0  0
  3  2  1  0  0  0  0
  4 12  1  0  0  0  0
  4  5  1  0  0  0  0
  4  3  1  0  0  0  0
  5  6  1  0  0  0  0
  6 15  1  1  0  0  0
  6 31  1  0  0  0  0
  6  1  1  0  0  0  0
  8  2  1  0  0  0  0
  9  3  1  0  0  0  0
 11  4  1  0  0  0  0
 13  5  1  0  0  0  0
 14  5  1  0  0  0  0
 16 18  1  0  0  0  0
 16 19  1  0  0  0  0
 16 17  1  0  0  0  0
 19 24  1  0  0  0  0
 19 21  1  0  0  0  0
 20 19  1  0  0  0  0
 22 28  1  0  0  0  0
 23 29  1  0  0  0  0
 23 22  1  0  0  0  0
 24 23  2  0  0  0  0
 25 26  2  0  0  0  0
 25 24  1  0  0  0  0
 26 27  1  0  0  0  0
 27 22  2  0  0  0  0
 30 26  1  0  0  0  0
 33 34  1  0  0  0  0
 33 31  1  0  0  0  0
 33 32  2  1  0  0  0
 35 34  1  0  0  0  0
 36 33  1  0  0  0  0
 37 36  1  0  0  0  0
 38 37  1  0  0  0  0
 39 37  2  0  0  0  0
M  END
>  <minimizedAffinity>
-4.71407938

$$$$

 OpenBabel03252509023D

 39 40  0  0  1  0  0  0  0  0999 V2000
   37.0750   26.7080   41.7390 N   0  0  0  0  0  0  0  0  0  0  0  0
   37.2020   25.3000   41.9180 C   0  0  0  0  0  0  0  0  0  0  0  0
   36.5330   24.4550   40.8770 C   0  0  0  0  0  0  0  0  0  0  0  0
   36.4680   25.0670   39.5030 C   0  0  0  0  0  0  0  0  0  0  0  0
   37.2550   26.3550   39.4470 C   0  0  0  0  0  0  0  0  0  0  0  0
   36.5790   27.2360   40.5610 C   0  0  2  0  0  0  0  0  0  0  0  0
   36.9070   24.9150   42.8990 H   0  0  0  0  0  0  0  0  0  0  0  0
   38.3070   25.0760   41.8510 H   0  0  0  0  0  0  0  0  0  0  0  0
   37.1070   23.4980   40.7770 H   0  0  0  0  0  0  0  0  0  0  0  0
   35.5230   24.1250   41.2330 H   0  0  0  0  0  0  0  0  0  0  0  0
   36.7290   24.3490   38.7000 H   0  0  0  0  0  0  0  0  0  0  0  0
   35.3980   25.3360   39.3210 H   0  0  0  0  0  0  0  0  0  0  0  0
   37.1240   26.8340   38.4680 H   0  0  0  0  0  0  0  0  0  0  0  0
   38.3100   26.1910   39.7430 H   0  0  0  0  0  0  0  0  0  0  0  0
   35.4840   27.1820   40.3930 H   0  0  0  0  0  0  0  0  0  0  0  0
   36.9120   27.4450   42.9570 C   0  0  0  0  0  0  0  0  0  0  0  0
   36.1600   26.9470   43.5990 H   0  0  0  0  0  0  0  0  0  0  0  0
   36.5840   28.4740   42.7000 H   0  0  0  0  0  0  0  0  0  0  0  0
   38.2310   27.4550   43.6790 C   0  0  0  0  0  0  0  0  0  0  0  0
   38.7910   26.4930   43.5060 H   0  0  0  0  0  0  0  0  0  0  0  0
   38.1530   27.5820   44.7670 H   0  0  0  0  0  0  0  0  0  0  0  0
   41.2000   29.2410   42.2210 C   0  0  0  0  0  0  0  0  0  0  0  0
   40.3850   28.2290   42.7610 C   0  0  0  0  0  0  0  0  0  0  0  0
   39.0870   28.5300   43.1090 C   0  0  0  0  0  0  0  0  0  0  0  0
   38.6600   29.7890   42.9120 N   0  0  0  0  0  0  0  0  0  0  0  0
   39.4440   30.7480   42.3970 C   0  0  0  0  0  0  0  0  0  0  0  0
   40.7240   30.4840   42.0460 N   0  0  0  0  0  0  0  0  0  0  0  0
   42.2230   28.9950   41.9490 H   0  0  0  0  0  0  0  0  0  0  0  0
   40.7850   27.2410   42.8940 H   0  0  0  0  0  0  0  0  0  0  0  0
   39.0270   31.7380   42.2690 H   0  0  0  0  0  0  0  0  0  0  0  0
   37.1130   28.4870   40.2920 O   0  0  0  0  0  0  0  0  0  0  0  0
   36.3600   30.6860   38.9970 O   0  0  0  0  0  0  0  0  0  0  0  0
   35.9310   29.6570   40.0490 P   0  0  2  0  0  0  0  0  0  0  0  0
   35.8350   30.5460   41.5100 O   0  0  0  0  0  0  0  0  0  0  0  0
   35.3500   30.0140   42.1870 H   0  0  0  0  0  0  0  0  0  0  0  0
   34.4260   29.0200   39.7430 O   0  0  0  0  0  0  0  0  0  0  0  0
   33.9760   28.9220   38.4340 C   0  0  0  0  0  0  0  0  0  0  0  0
   33.1930   29.5430   38.0160 H   0  0  0  0  0  0  0  0  0  0  0  0
   34.6030   28.0180   37.8120 O   0  0  0  0  0  0  0  0  0  0  0  0
  1  2  1  0  0  0  0
  1 16  1  0  0  0  0
  2  7  1  0  0  0  0
  3 10  1  0  0  0  0
  3  2  1  0  0  0  0
  4  3  1  0  0  0  0
  5  4  1  0  0  0  0
  5 14  1  0  0  0  0
  5  6  1  0  0  0  0
  6 15  1  6  0  0  0
  6  1  1  0  0  0  0
  8  2  1  0  0  0  0
  9  3  1  0  0  0  0
 11  4  1  0  0  0  0
 12  4  1  0  0  0  0
 13  5  1  0  0  0  0
 16 17  1  0  0  0  0
 16 19  1  0  0  0  0
 18 16  1  0  0  0  0
 19 21  1  0  0  0  0
 20 19  1  0  0  0  0
 22 23  1  0  0  0  0
 23 29  1  0  0  0  0
 23 24  2  0  0  0  0
 24 19  1  0  0  0  0
 25 24  1  0  0  0  0
 26 25  2  0  0  0  0
 27 22  2  0  0  0  0
 27 26  1  0  0  0  0
 28 22  1  0  0  0  0
 30 26  1  0  0  0  0
 31  6  1  0  0  0  0
 33 32  2  6  0  0  0
 33 31  1  0  0  0  0
 33 34  1  0  0  0  0
 34 35  1  0  0  0  0
 36 33  1  0  0  0  0
 37 36  1  0  0  0  0
 38 37  1  0  0  0  0
 39 37  2  0  0  0  0
M  END
>  <minimizedAffinity>
-4.61736059

$$$$

 OpenBabel03252509023D

 39 40  0  0  1  0  0  0  0  0999 V2000
   36.2440   29.6080   38.6090 N   0  0  0  0  0  0  0  0  0  0  0  0
   35.1680   28.8990   38.0010 C   0  0  0  0  0  0  0  0  0  0  0  0
   35.0050   29.1150   36.5280 C   0  0  0  0  0  0  0  0  0  0  0  0
   36.2810   29.3940   35.7790 C   0  0  0  0  0  0  0  0  0  0  0  0
   37.4830   29.2290   36.6790 C   0  0  0  0  0  0  0  0  0  0  0  0
   37.2010   30.2470   37.8430 C   0  0  2  0  0  0  0  0  0  0  0  0
   34.1860   29.0310   38.4660 H   0  0  0  0  0  0  0  0  0  0  0  0
   35.3980   27.8030   38.1420 H   0  0  0  0  0  0  0  0  0  0  0  0
   34.5660   28.1860   36.0810 H   0  0  0  0  0  0  0  0  0  0  0  0
   34.2280   29.8980   36.3310 H   0  0  0  0  0  0  0  0  0  0  0  0
   36.3540   28.8300   34.8280 H   0  0  0  0  0  0  0  0  0  0  0  0
   36.2490   30.4710   35.4800 H   0  0  0  0  0  0  0  0  0  0  0  0
   38.3960   29.5230   36.1450 H   0  0  0  0  0  0  0  0  0  0  0  0
   37.5130   28.2140   37.1210 H   0  0  0  0  0  0  0  0  0  0  0  0
   36.9220   31.2100   37.3680 H   0  0  0  0  0  0  0  0  0  0  0  0
   35.9550   30.1050   39.9220 C   0  0  0  0  0  0  0  0  0  0  0  0
   35.1220   30.8320   39.8740 H   0  0  0  0  0  0  0  0  0  0  0  0
   36.8720   30.5880   40.3210 H   0  0  0  0  0  0  0  0  0  0  0  0
   35.5310   28.9440   40.7800 C   0  0  0  0  0  0  0  0  0  0  0  0
   35.3500   28.0260   40.1520 H   0  0  0  0  0  0  0  0  0  0  0  0
   34.6140   29.1160   41.3580 H   0  0  0  0  0  0  0  0  0  0  0  0
   37.9350   26.9210   42.8460 C   0  0  0  0  0  0  0  0  0  0  0  0
   36.8830   27.2630   41.9750 C   0  0  0  0  0  0  0  0  0  0  0  0
   36.6450   28.5910   41.7020 C   0  0  0  0  0  0  0  0  0  0  0  0
   37.4380   29.5050   42.2860 N   0  0  0  0  0  0  0  0  0  0  0  0
   38.4390   29.1700   43.1160 C   0  0  0  0  0  0  0  0  0  0  0  0
   38.6980   27.8750   43.4040 N   0  0  0  0  0  0  0  0  0  0  0  0
   38.1160   25.8710   43.0560 H   0  0  0  0  0  0  0  0  0  0  0  0
   36.2840   26.4850   41.5380 H   0  0  0  0  0  0  0  0  0  0  0  0
   39.0340   29.9650   43.5470 H   0  0  0  0  0  0  0  0  0  0  0  0
   38.4300   30.2890   38.4840 O   0  0  0  0  0  0  0  0  0  0  0  0
   38.1910   32.8740   39.0680 O   0  0  0  0  0  0  0  0  0  0  0  0
   39.1220   31.8210   38.4560 P   0  0  2  0  0  0  0  0  0  0  0  0
   39.2430   32.2580   36.8040 O   0  0  0  0  0  0  0  0  0  0  0  0
   39.9970   31.7700   36.3900 H   0  0  0  0  0  0  0  0  0  0  0  0
   40.6510   31.8640   39.1070 O   0  0  0  0  0  0  0  0  0  0  0  0
   40.8340   32.3440   40.3960 C   0  0  0  0  0  0  0  0  0  0  0  0
   41.3610   33.2610   40.6310 H   0  0  0  0  0  0  0  0  0  0  0  0
   40.3060   31.5670   41.2410 O   0  0  0  0  0  0  0  0  0  0  0  0
  1 16  1  0  0  0  0
  2  8  1  0  0  0  0
  2  7  1  0  0  0  0
  2  1  1  0  0  0  0
  3  2  1  0  0  0  0
  4  3  1  0  0  0  0
  4  5  1  0  0  0  0
  5 14  1  0  0  0  0
  5  6  1  0  0  0  0
  6 15  1  6  0  0  0
  6 31  1  0  0  0  0
  6  1  1  0  0  0  0
  9  3  1  0  0  0  0
 10  3  1  0  0  0  0
 11  4  1  0  0  0  0
 12  4  1  0  0  0  0
 13  5  1  0  0  0  0
 16 18  1  0  0  0  0
 16 19  1  0  0  0  0
 17 16  1  0  0  0  0
 19 21  1  0  0  0  0
 19 24  1  0  0  0  0
 20 19  1  0  0  0  0
 22 28  1  0  0  0  0
 22 27  1  0  0  0  0
 23 22  2  0  0  0  0
 24 23  1  0  0  0  0
 24 25  2  0  0  0  0
 25 26  1  0  0  0  0
 26 27  2  0  0  0  0
 26 30  1  0  0  0  0
 29 23  1  0  0  0  0
 33 31  1  0  0  0  0
 33 32  2  1  0  0  0
 33 36  1  0  0  0  0
 34 33  1  0  0  0  0
 35 34  1  0  0  0  0
 36 37  1  0  0  0  0
 37 38  1  0  0  0  0
 37 39  2  0  0  0  0
M  END
>  <minimizedAffinity>
-4.57282162

$$$$

 OpenBabel03252509023D

 39 40  0  0  1  0  0  0  0  0999 V2000
   37.6560   28.5490   38.4000 N   0  0  0  0  0  0  0  0  0  0  0  0
   37.1460   27.3700   37.7840 C   0  0  0  0  0  0  0  0  0  0  0  0
   35.6700   27.1540   37.9290 C   0  0  0  0  0  0  0  0  0  0  0  0
   34.8470   28.4110   38.0140 C   0  0  0  0  0  0  0  0  0  0  0  0
   35.6990   29.6340   37.7660 C   0  0  0  0  0  0  0  0  0  0  0  0
   36.8060   29.5300   38.8770 C   0  0  2  0  0  0  0  0  0  0  0  0
   37.6460   26.4350   38.0560 H   0  0  0  0  0  0  0  0  0  0  0  0
   37.3470   27.4830   36.6790 H   0  0  0  0  0  0  0  0  0  0  0  0
   35.3060   26.5900   37.0320 H   0  0  0  0  0  0  0  0  0  0  0  0
   35.4590   26.4600   38.7840 H   0  0  0  0  0  0  0  0  0  0  0  0
   33.9330   28.3690   37.3900 H   0  0  0  0  0  0  0  0  0  0  0  0
   34.4790   28.4840   39.0680 H   0  0  0  0  0  0  0  0  0  0  0  0
   35.1050   30.5440   37.9200 H   0  0  0  0  0  0  0  0  0  0  0  0
   36.2040   29.5730   36.7820 H   0  0  0  0  0  0  0  0  0  0  0  0
   36.2820   29.3360   39.8360 H   0  0  0  0  0  0  0  0  0  0  0  0
   38.9450   28.3880   39.0030 C   0  0  0  0  0  0  0  0  0  0  0  0
   39.1950   29.2860   39.6000 H   0  0  0  0  0  0  0  0  0  0  0  0
   39.6920   28.2380   38.1950 H   0  0  0  0  0  0  0  0  0  0  0  0
   38.8890   27.1990   39.9230 C   0  0  0  0  0  0  0  0  0  0  0  0
   39.9220   26.8040   40.1320 H   0  0  0  0  0  0  0  0  0  0  0  0
   38.3010   26.3550   39.5390 H   0  0  0  0  0  0  0  0  0  0  0  0
   36.6710   27.4440   42.9490 C   0  0  0  0  0  0  0  0  0  0  0  0
   37.1910   27.0420   41.7040 C   0  0  0  0  0  0  0  0  0  0  0  0
   38.3460   27.6300   41.2390 C   0  0  0  0  0  0  0  0  0  0  0  0
   38.9260   28.5680   42.0070 N   0  0  0  0  0  0  0  0  0  0  0  0
   38.4240   28.9450   43.1930 C   0  0  0  0  0  0  0  0  0  0  0  0
   37.2910   28.3870   43.6760 N   0  0  0  0  0  0  0  0  0  0  0  0
   35.7590   26.9750   43.3080 H   0  0  0  0  0  0  0  0  0  0  0  0
   36.6800   26.2850   41.1370 H   0  0  0  0  0  0  0  0  0  0  0  0
   38.9490   29.7080   43.7520 H   0  0  0  0  0  0  0  0  0  0  0  0
   37.3850   30.7880   38.8150 O   0  0  0  0  0  0  0  0  0  0  0  0
   36.3060   30.9730   41.2410 O   0  0  0  0  0  0  0  0  0  0  0  0
   37.3310   31.5990   40.2870 P   0  0  2  0  0  0  0  0  0  0  0  0
   36.7120   33.1590   39.9480 O   0  0  0  0  0  0  0  0  0  0  0  0
   37.4170   33.7080   39.5260 H   0  0  0  0  0  0  0  0  0  0  0  0
   38.8260   31.7870   40.9900 O   0  0  0  0  0  0  0  0  0  0  0  0
   39.5140   32.9800   40.8270 C   0  0  0  0  0  0  0  0  0  0  0  0
   39.9010   33.5720   41.6480 H   0  0  0  0  0  0  0  0  0  0  0  0
   39.6220   33.2710   39.6020 O   0  0  0  0  0  0  0  0  0  0  0  0
  1  6  1  0  0  0  0
  1 16  1  0  0  0  0
  2  3  1  0  0  0  0
  2  7  1  0  0  0  0
  2  1  1  0  0  0  0
  3  4  1  0  0  0  0
  3 10  1  0  0  0  0
  4 12  1  0  0  0  0
  5 13  1  0  0  0  0
  5  4  1  0  0  0  0
  5  6  1  0  0  0  0
  6 15  1  1  0  0  0
  8  2  1  0  0  0  0
  9  3  1  0  0  0  0
 11  4  1  0  0  0  0
 14  5  1  0  0  0  0
 16 17  1  0  0  0  0
 16 19  1  0  0  0  0
 18 16  1  0  0  0  0
 19 20  1  0  0  0  0
 19 24  1  0  0  0  0
 21 19  1  0  0  0  0
 22 28  1  0  0  0  0
 22 27  1  0  0  0  0
 23 22  2  0  0  0  0
 24 23  1  0  0  0  0
 24 25  2  0  0  0  0
 25 26  1  0  0  0  0
 26 27  2  0  0  0  0
 26 30  1  0  0  0  0
 29 23  1  0  0  0  0
 31  6  1  0  0  0  0
 31 33  1  0  0  0  0
 33 36  1  0  0  0  0
 33 32  2  1  0  0  0
 34 33  1  0  0  0  0
 35 34  1  0  0  0  0
 37 36  1  0  0  0  0
 37 38  1  0  0  0  0
 39 37  2  0  0  0  0
M  END
>  <minimizedAffinity>
-4.48745632

$$$$

 OpenBabel03252509023D

 39 40  0  0  1  0  0  0  0  0999 V2000
   37.1430   29.3590   41.9390 N   0  0  0  0  0  0  0  0  0  0  0  0
   36.4230   28.1580   42.2040 C   0  0  0  0  0  0  0  0  0  0  0  0
   37.2320   26.8980   42.1590 C   0  0  0  0  0  0  0  0  0  0  0  0
   38.6740   27.0510   42.5630 C   0  0  0  0  0  0  0  0  0  0  0  0
   38.9440   28.4410   43.0900 C   0  0  0  0  0  0  0  0  0  0  0  0
   38.5250   29.3660   41.8890 C   0  0  2  0  0  0  0  0  0  0  0  0
   35.5250   27.9970   41.5990 H   0  0  0  0  0  0  0  0  0  0  0  0
   36.0350   28.2530   43.2590 H   0  0  0  0  0  0  0  0  0  0  0  0
   36.7750   26.1600   42.8670 H   0  0  0  0  0  0  0  0  0  0  0  0
   37.1320   26.4050   41.1580 H   0  0  0  0  0  0  0  0  0  0  0  0
   39.0190   26.2430   43.2380 H   0  0  0  0  0  0  0  0  0  0  0  0
   39.2830   26.9370   41.6320 H   0  0  0  0  0  0  0  0  0  0  0  0
   40.0150   28.5650   43.2950 H   0  0  0  0  0  0  0  0  0  0  0  0
   38.2790   28.6790   43.9440 H   0  0  0  0  0  0  0  0  0  0  0  0
   39.0100   28.9530   40.9810 H   0  0  0  0  0  0  0  0  0  0  0  0
   36.4120   30.3290   41.1790 C   0  0  0  0  0  0  0  0  0  0  0  0
   37.1110   30.9320   40.5690 H   0  0  0  0  0  0  0  0  0  0  0  0
   35.8540   30.9770   41.8880 H   0  0  0  0  0  0  0  0  0  0  0  0
   35.4770   29.5960   40.2570 C   0  0  0  0  0  0  0  0  0  0  0  0
   34.4460   30.0500   40.2870 H   0  0  0  0  0  0  0  0  0  0  0  0
   35.3570   28.5290   40.4850 H   0  0  0  0  0  0  0  0  0  0  0  0
   35.7570   29.2100   36.5280 C   0  0  0  0  0  0  0  0  0  0  0  0
   35.3140   29.0600   37.8560 C   0  0  0  0  0  0  0  0  0  0  0  0
   35.9510   29.7590   38.8560 C   0  0  0  0  0  0  0  0  0  0  0  0
   36.9740   30.5590   38.5110 N   0  0  0  0  0  0  0  0  0  0  0  0
   37.3890   30.6950   37.2420 C   0  0  0  0  0  0  0  0  0  0  0  0
   36.7850   30.0220   36.2370 N   0  0  0  0  0  0  0  0  0  0  0  0
   35.2480   28.6540   35.7450 H   0  0  0  0  0  0  0  0  0  0  0  0
   34.4890   28.4050   38.0680 H   0  0  0  0  0  0  0  0  0  0  0  0
   38.2220   31.3590   37.0440 H   0  0  0  0  0  0  0  0  0  0  0  0
   39.0480   30.5890   42.2810 O   0  0  0  0  0  0  0  0  0  0  0  0
   41.2330   30.0100   40.8760 O   0  0  0  0  0  0  0  0  0  0  0  0
   40.2600   31.1340   41.2510 P   0  0  2  0  0  0  0  0  0  0  0  0
   41.2010   32.2340   42.1660 O   0  0  0  0  0  0  0  0  0  0  0  0
   40.7140   33.0900   42.2530 H   0  0  0  0  0  0  0  0  0  0  0  0
   39.6790   31.9460   39.9220 O   0  0  0  0  0  0  0  0  0  0  0  0
   39.5300   33.3240   39.9710 C   0  0  0  0  0  0  0  0  0  0  0  0
   39.9490   34.0040   39.2390 H   0  0  0  0  0  0  0  0  0  0  0  0
   38.8460   33.6640   40.9780 O   0  0  0  0  0  0  0  0  0  0  0  0
  1  2  1  0  0  0  0
  2  8  1  0  0  0  0
  3  2  1  0  0  0  0
  3  4  1  0  0  0  0
  3  9  1  0  0  0  0
  4  5  1  0  0  0  0
  4 11  1  0  0  0  0
  5 13  1  0  0  0  0
  5 14  1  0  0  0  0
  6 15  1  6  0  0  0
  6  1  1  0  0  0  0
  6 31  1  0  0  0  0
  6  5  1  0  0  0  0
  7  2  1  0  0  0  0
 10  3  1  0  0  0  0
 12  4  1  0  0  0  0
 16 18  1  0  0  0  0
 16  1  1  0  0  0  0
 17 16  1  0  0  0  0
 19 20  1  0  0  0  0
 19 21  1  0  0  0  0
 19 16  1  0  0  0  0
 22 23  1  0  0  0  0
 23 29  1  0  0  0  0
 23 24  2  0  0  0  0
 24 19  1  0  0  0  0
 25 24  1  0  0  0  0
 26 25  2  0  0  0  0
 27 22  2  0  0  0  0
 27 26  1  0  0  0  0
 28 22  1  0  0  0  0
 30 26  1  0  0  0  0
 33 32  2  6  0  0  0
 33 34  1  0  0  0  0
 33 31  1  0  0  0  0
 34 35  1  0  0  0  0
 36 37  1  0  0  0  0
 36 33  1  0  0  0  0
 37 39  2  0  0  0  0
 38 37  1  0  0  0  0
M  END
>  <minimizedAffinity>
-4.48261595

$$$$

 OpenBabel03252509023D

 39 40  0  0  1  0  0  0  0  0999 V2000
   37.2410   30.2900   40.0320 N   0  0  0  0  0  0  0  0  0  0  0  0
   36.5960   30.7060   38.8320 C   0  0  0  0  0  0  0  0  0  0  0  0
   35.7970   29.6500   38.1300 C   0  0  0  0  0  0  0  0  0  0  0  0
   35.1820   28.6120   39.0300 C   0  0  0  0  0  0  0  0  0  0  0  0
   35.3800   28.9700   40.4840 C   0  0  0  0  0  0  0  0  0  0  0  0
   36.9440   29.0730   40.6180 C   0  0  2  0  0  0  0  0  0  0  0  0
   37.2380   31.1870   38.0870 H   0  0  0  0  0  0  0  0  0  0  0  0
   35.8660   31.5130   39.1340 H   0  0  0  0  0  0  0  0  0  0  0  0
   34.9520   30.1480   37.5880 H   0  0  0  0  0  0  0  0  0  0  0  0
   36.4020   29.1840   37.3100 H   0  0  0  0  0  0  0  0  0  0  0  0
   34.1310   28.3820   38.7660 H   0  0  0  0  0  0  0  0  0  0  0  0
   35.7440   27.6600   38.8550 H   0  0  0  0  0  0  0  0  0  0  0  0
   35.0070   28.1610   41.1250 H   0  0  0  0  0  0  0  0  0  0  0  0
   34.9580   29.9690   40.7090 H   0  0  0  0  0  0  0  0  0  0  0  0
   37.3670   28.1600   40.1520 H   0  0  0  0  0  0  0  0  0  0  0  0
   38.5400   30.8620   40.2320 C   0  0  0  0  0  0  0  0  0  0  0  0
   39.2690   30.3850   39.5500 H   0  0  0  0  0  0  0  0  0  0  0  0
   38.8330   30.7000   41.2910 H   0  0  0  0  0  0  0  0  0  0  0  0
   38.4620   32.3280   39.9040 C   0  0  0  0  0  0  0  0  0  0  0  0
   38.5080   32.9510   40.8410 H   0  0  0  0  0  0  0  0  0  0  0  0
   37.5510   32.6270   39.3710 H   0  0  0  0  0  0  0  0  0  0  0  0
   41.1260   32.2990   37.2520 C   0  0  0  0  0  0  0  0  0  0  0  0
   39.9970   31.9440   38.0120 C   0  0  0  0  0  0  0  0  0  0  0  0
   39.6580   32.7100   39.1050 C   0  0  0  0  0  0  0  0  0  0  0  0
   40.4320   33.7700   39.3930 N   0  0  0  0  0  0  0  0  0  0  0  0
   41.5070   34.1010   38.6630 C   0  0  0  0  0  0  0  0  0  0  0  0
   41.8660   33.3690   37.5840 N   0  0  0  0  0  0  0  0  0  0  0  0
   41.3860   31.6900   36.3900 H   0  0  0  0  0  0  0  0  0  0  0  0
   39.4180   31.0840   37.7300 H   0  0  0  0  0  0  0  0  0  0  0  0
   42.0800   34.9710   38.9600 H   0  0  0  0  0  0  0  0  0  0  0  0
   37.1060   29.1100   41.9940 O   0  0  0  0  0  0  0  0  0  0  0  0
   36.2260   27.1890   43.6110 O   0  0  0  0  0  0  0  0  0  0  0  0
   37.3590   27.5860   42.6570 P   0  0  2  0  0  0  0  0  0  0  0  0
   38.7390   27.7290   43.6610 O   0  0  0  0  0  0  0  0  0  0  0  0
   39.5520   27.7590   43.1000 H   0  0  0  0  0  0  0  0  0  0  0  0
   37.6760   26.4170   41.5200 O   0  0  0  0  0  0  0  0  0  0  0  0
   36.9830   25.2160   41.5590 C   0  0  0  0  0  0  0  0  0  0  0  0
   36.0530   25.0360   41.0320 H   0  0  0  0  0  0  0  0  0  0  0  0
   37.5830   24.3770   42.2880 O   0  0  0  0  0  0  0  0  0  0  0  0
  1 16  1  0  0  0  0
  1  6  1  0  0  0  0
  2  8  1  0  0  0  0
  2  1  1  0  0  0  0
  3  2  1  0  0  0  0
  3  4  1  0  0  0  0
  4  5  1  0  0  0  0
  5  6  1  0  0  0  0
  5 14  1  0  0  0  0
  5 13  1  0  0  0  0
  6 15  1  6  0  0  0
  6 31  1  0  0  0  0
  7  2  1  0  0  0  0
  9  3  1  0  0  0  0
 10  3  1  0  0  0  0
 11  4  1  0  0  0  0
 12  4  1  0  0  0  0
 16 18  1  0  0  0  0
 17 16  1  0  0  0  0
 19 16  1  0  0  0  0
 19 20  1  0  0  0  0
 21 19  1  0  0  0  0
 22 27  2  0  0  0  0
 22 23  1  0  0  0  0
 23 24  2  0  0  0  0
 24 25  1  0  0  0  0
 24 19  1  0  0  0  0
 26 30  1  0  0  0  0
 26 25  2  0  0  0  0
 27 26  1  0  0  0  0
 28 22  1  0  0  0  0
 29 23  1  0  0  0  0
 31 33  1  0  0  0  0
 33 32  2  1  0  0  0
 33 34  1  0  0  0  0
 35 34  1  0  0  0  0
 36 37  1  0  0  0  0
 36 33  1  0  0  0  0
 37 39  2  0  0  0  0
 38 37  1  0  0  0  0
M  END
>  <minimizedAffinity>
-4.45991468

$$$$

 OpenBabel03252509023D

 39 40  0  0  1  0  0  0  0  0999 V2000
   38.7730   28.3380   43.3020 N   0  0  0  0  0  0  0  0  0  0  0  0
   39.2420   27.0470   43.6800 C   0  0  0  0  0  0  0  0  0  0  0  0
   40.3370   26.4850   42.8240 C   0  0  0  0  0  0  0  0  0  0  0  0
   41.2590   27.5060   42.2140 C   0  0  0  0  0  0  0  0  0  0  0  0
   40.9630   28.8890   42.7460 C   0  0  0  0  0  0  0  0  0  0  0  0
   39.4510   29.1010   42.3690 C   0  0  2  0  0  0  0  0  0  0  0  0
   38.4760   26.2740   43.7890 H   0  0  0  0  0  0  0  0  0  0  0  0
   39.6730   27.1630   44.7170 H   0  0  0  0  0  0  0  0  0  0  0  0
   40.9720   25.8150   43.4590 H   0  0  0  0  0  0  0  0  0  0  0  0
   39.9110   25.7940   42.0510 H   0  0  0  0  0  0  0  0  0  0  0  0
   42.3270   27.2190   42.2870 H   0  0  0  0  0  0  0  0  0  0  0  0
   41.0350   27.5290   41.1190 H   0  0  0  0  0  0  0  0  0  0  0  0
   41.5800   29.6320   42.2270 H   0  0  0  0  0  0  0  0  0  0  0  0
   41.0390   28.9150   43.8510 H   0  0  0  0  0  0  0  0  0  0  0  0
   39.3440   28.8220   41.3010 H   0  0  0  0  0  0  0  0  0  0  0  0
   37.3590   28.5200   43.4580 C   0  0  0  0  0  0  0  0  0  0  0  0
   37.0520   29.4810   43.0040 H   0  0  0  0  0  0  0  0  0  0  0  0
   37.1250   28.5080   44.5430 H   0  0  0  0  0  0  0  0  0  0  0  0
   36.6600   27.4010   42.7350 C   0  0  0  0  0  0  0  0  0  0  0  0
   35.6610   27.1820   43.2070 H   0  0  0  0  0  0  0  0  0  0  0  0
   37.2150   26.4540   42.7180 H   0  0  0  0  0  0  0  0  0  0  0  0
   36.5790   27.4860   38.9780 C   0  0  0  0  0  0  0  0  0  0  0  0
   36.8550   27.0830   40.2980 C   0  0  0  0  0  0  0  0  0  0  0  0
   36.3650   27.8340   41.3430 C   0  0  0  0  0  0  0  0  0  0  0  0
   35.6380   28.9250   41.0460 N   0  0  0  0  0  0  0  0  0  0  0  0
   35.3800   29.3010   39.7850 C   0  0  0  0  0  0  0  0  0  0  0  0
   35.8480   28.5860   38.7360 N   0  0  0  0  0  0  0  0  0  0  0  0
   36.9700   26.8880   38.1590 H   0  0  0  0  0  0  0  0  0  0  0  0
   37.4420   26.2000   40.4700 H   0  0  0  0  0  0  0  0  0  0  0  0
   34.7870   30.1930   39.6270 H   0  0  0  0  0  0  0  0  0  0  0  0
   39.2920   30.4580   42.5990 O   0  0  0  0  0  0  0  0  0  0  0  0
   39.7580   30.6040   39.9830 O   0  0  0  0  0  0  0  0  0  0  0  0
   39.1410   31.3430   41.1770 P   0  0  2  0  0  0  0  0  0  0  0  0
   40.1200   32.7340   41.3780 O   0  0  0  0  0  0  0  0  0  0  0  0
   39.6610   33.3750   41.9750 H   0  0  0  0  0  0  0  0  0  0  0  0
   37.5880   31.8530   40.8800 O   0  0  0  0  0  0  0  0  0  0  0  0
   37.3330   32.6810   39.7960 C   0  0  0  0  0  0  0  0  0  0  0  0
   36.7320   32.3920   38.9420 H   0  0  0  0  0  0  0  0  0  0  0  0
   37.8960   33.8010   39.9480 O   0  0  0  0  0  0  0  0  0  0  0  0
  1 16  1  0  0  0  0
  1  2  1  0  0  0  0
  2  7  1  0  0  0  0
  2  8  1  0  0  0  0
  3  9  1  0  0  0  0
  3  2  1  0  0  0  0
  4 11  1  0  0  0  0
  4  5  1  0  0  0  0
  4  3  1  0  0  0  0
  5 14  1  0  0  0  0
  6 15  1  6  0  0  0
  6 31  1  0  0  0  0
  6  5  1  0  0  0  0
  6  1  1  0  0  0  0
 10  3  1  0  0  0  0
 12  4  1  0  0  0  0
 13  5  1  0  0  0  0
 16 18  1  0  0  0  0
 17 16  1  0  0  0  0
 19 20  1  0  0  0  0
 19 16  1  0  0  0  0
 21 19  1  0  0  0  0
 22 23  1  0  0  0  0
 23 29  1  0  0  0  0
 23 24  2  0  0  0  0
 24 19  1  0  0  0  0
 25 24  1  0  0  0  0
 26 25  2  0  0  0  0
 27 22  2  0  0  0  0
 27 26  1  0  0  0  0
 28 22  1  0  0  0  0
 30 26  1  0  0  0  0
 33 32  2  6  0  0  0
 33 34  1  0  0  0  0
 33 31  1  0  0  0  0
 34 35  1  0  0  0  0
 36 33  1  0  0  0  0
 37 39  2  0  0  0  0
 37 36  1  0  0  0  0
 38 37  1  0  0  0  0
M  END
>  <minimizedAffinity>
-4.45633411

$$$$

 OpenBabel03252509023D

 39 40  0  0  1  0  0  0  0  0999 V2000
   37.8970   27.1190   42.7960 N   0  0  0  0  0  0  0  0  0  0  0  0
   39.1190   26.8420   43.4750 C   0  0  0  0  0  0  0  0  0  0  0  0
   40.2790   27.7080   43.0920 C   0  0  0  0  0  0  0  0  0  0  0  0
   39.9200   29.1070   42.6670 C   0  0  0  0  0  0  0  0  0  0  0  0
   38.4490   29.3760   42.8850 C   0  0  0  0  0  0  0  0  0  0  0  0
   37.7500   28.2590   42.0280 C   0  0  2  0  0  0  0  0  0  0  0  0
   39.4560   25.8010   43.4450 H   0  0  0  0  0  0  0  0  0  0  0  0
   38.9190   27.0390   44.5690 H   0  0  0  0  0  0  0  0  0  0  0  0
   40.9560   27.8040   43.9800 H   0  0  0  0  0  0  0  0  0  0  0  0
   40.9150   27.1920   42.3260 H   0  0  0  0  0  0  0  0  0  0  0  0
   40.5850   29.8740   43.1100 H   0  0  0  0  0  0  0  0  0  0  0  0
   40.0970   29.1640   41.5650 H   0  0  0  0  0  0  0  0  0  0  0  0
   38.1860   30.3650   42.4880 H   0  0  0  0  0  0  0  0  0  0  0  0
   38.1670   29.2130   43.9430 H   0  0  0  0  0  0  0  0  0  0  0  0
   38.2310   28.2720   41.0280 H   0  0  0  0  0  0  0  0  0  0  0  0
   37.1240   25.9560   42.4750 C   0  0  0  0  0  0  0  0  0  0  0  0
   36.1280   26.2580   42.1010 H   0  0  0  0  0  0  0  0  0  0  0  0
   37.0250   25.3390   43.3930 H   0  0  0  0  0  0  0  0  0  0  0  0
   37.8400   25.2030   41.3870 C   0  0  0  0  0  0  0  0  0  0  0  0
   38.1890   24.1990   41.7570 H   0  0  0  0  0  0  0  0  0  0  0  0
   38.7230   25.7150   40.9840 H   0  0  0  0  0  0  0  0  0  0  0  0
   35.8040   25.5980   38.2510 C   0  0  0  0  0  0  0  0  0  0  0  0
   36.7080   25.8610   39.2960 C   0  0  0  0  0  0  0  0  0  0  0  0
   36.8810   24.9180   40.2840 C   0  0  0  0  0  0  0  0  0  0  0  0
   36.1710   23.7810   40.1990 N   0  0  0  0  0  0  0  0  0  0  0  0
   35.3100   23.5390   39.1980 C   0  0  0  0  0  0  0  0  0  0  0  0
   35.1170   24.4450   38.2130 N   0  0  0  0  0  0  0  0  0  0  0  0
   35.6730   26.3480   37.4750 H   0  0  0  0  0  0  0  0  0  0  0  0
   37.2480   26.7900   39.3090 H   0  0  0  0  0  0  0  0  0  0  0  0
   34.7740   22.5980   39.1990 H   0  0  0  0  0  0  0  0  0  0  0  0
   36.4360   28.7010   42.0080 O   0  0  0  0  0  0  0  0  0  0  0  0
   36.1500   31.1730   41.0660 O   0  0  0  0  0  0  0  0  0  0  0  0
   36.1060   29.6880   40.6870 P   0  0  2  0  0  0  0  0  0  0  0  0
   34.4700   29.3950   40.2740 O   0  0  0  0  0  0  0  0  0  0  0  0
   34.4000   28.5280   39.8040 H   0  0  0  0  0  0  0  0  0  0  0  0
   37.0370   29.3400   39.3550 O   0  0  0  0  0  0  0  0  0  0  0  0
   36.6900   29.8670   38.1200 C   0  0  0  0  0  0  0  0  0  0  0  0
   37.2150   30.6850   37.6410 H   0  0  0  0  0  0  0  0  0  0  0  0
   35.6880   29.2630   37.6420 O   0  0  0  0  0  0  0  0  0  0  0  0
  1  2  1  0  0  0  0
  2  8  1  0  0  0  0
  3  2  1  0  0  0  0
  3  9  1  0  0  0  0
  4  5  1  0  0  0  0
  4  3  1  0  0  0  0
  4 11  1  0  0  0  0
  5 14  1  0  0  0  0
  6 15  1  6  0  0  0
  6  1  1  0  0  0  0
  6  5  1  0  0  0  0
  7  2  1  0  0  0  0
 10  3  1  0  0  0  0
 12  4  1  0  0  0  0
 13  5  1  0  0  0  0
 16  1  1  0  0  0  0
 16 18  1  0  0  0  0
 17 16  1  0  0  0  0
 19 20  1  0  0  0  0
 19 16  1  0  0  0  0
 21 19  1  0  0  0  0
 22 23  1  0  0  0  0
 23 29  1  0  0  0  0
 23 24  2  0  0  0  0
 24 19  1  0  0  0  0
 25 24  1  0  0  0  0
 26 30  1  0  0  0  0
 26 25  2  0  0  0  0
 27 22  2  0  0  0  0
 27 26  1  0  0  0  0
 28 22  1  0  0  0  0
 31  6  1  0  0  0  0
 33 32  2  1  0  0  0
 33 31  1  0  0  0  0
 34 33  1  0  0  0  0
 35 34  1  0  0  0  0
 36 33  1  0  0  0  0
 37 36  1  0  0  0  0
 38 37  1  0  0  0  0
 39 37  2  0  0  0  0
M  END
>  <minimizedAffinity>
-4.45126772

$$$$
