
 OpenBabel03252503043D

 28 28  0  0  0  0  0  0  0  0999 V2000
   39.2320   31.5690   41.5200 C   0  0  0  0  0  0  0  0  0  0  0  0
   38.6210   32.3380   42.0360 H   0  0  0  0  0  0  0  0  0  0  0  0
   40.0510   32.0980   41.0120 H   0  0  0  0  0  0  0  0  0  0  0  0
   38.4140   30.7960   40.5790 N   0  0  0  0  0  0  0  0  0  0  0  0
   38.9230   30.7370   39.6500 H   0  0  0  0  0  0  0  0  0  0  0  0
   36.9070   31.5440   40.2770 S   0  0  0  0  0  0  0  0  0  0  0  0
   35.8370   31.0640   41.2080 O   0  0  0  0  0  0  0  0  0  0  0  0
   35.6800   30.1700   41.5760 H   0  0  0  0  0  0  0  0  0  0  0  0
   37.1130   33.0320   40.5070 O   0  0  0  0  0  0  0  0  0  0  0  0
   37.0400   33.5360   41.3330 H   0  0  0  0  0  0  0  0  0  0  0  0
   36.4800   31.3350   38.6900 O   0  0  0  0  0  0  0  0  0  0  0  0
   37.5160   31.6190   37.8210 C   0  0  0  0  0  0  0  0  0  0  0  0
   38.3200   32.1800   38.3450 H   0  0  0  0  0  0  0  0  0  0  0  0
   37.9230   30.6660   37.4260 H   0  0  0  0  0  0  0  0  0  0  0  0
   37.1660   32.2110   36.9520 H   0  0  0  0  0  0  0  0  0  0  0  0
   39.9150   30.4240   42.7030 S   0  0  0  0  0  0  0  0  0  0  0  0
   39.4460   27.7740   42.0360 C   0  0  0  0  0  0  0  0  0  0  0  0
   38.9580   28.8970   42.6890 C   0  0  0  0  0  0  0  0  0  0  0  0
   37.7370   28.8600   43.3320 C   0  0  0  0  0  0  0  0  0  0  0  0
   37.0450   27.6960   43.3000 N   0  0  0  0  0  0  0  0  0  0  0  0
   37.5500   26.6190   42.6530 C   0  0  0  0  0  0  0  0  0  0  0  0
   38.7200   26.6280   42.0270 N   0  0  0  0  0  0  0  0  0  0  0  0
   40.3910   27.7990   41.5350 H   0  0  0  0  0  0  0  0  0  0  0  0
   37.3180   29.7110   43.8540 H   0  0  0  0  0  0  0  0  0  0  0  0
   36.8350   25.4160   42.6200 O   0  0  0  0  0  0  0  0  0  0  0  0
   37.1960   24.3670   41.7910 C   0  0  0  0  0  0  0  0  0  0  0  0
   38.0550   23.7290   41.9370 H   0  0  0  0  0  0  0  0  0  0  0  0
   36.4650   24.1290   40.7740 O   0  0  0  0  0  0  0  0  0  0  0  0
  1  2  1  0  0  0  0
  1 16  1  0  0  0  0
  3  1  1  0  0  0  0
  4  1  1  0  0  0  0
  5  4  1  0  0  0  0
  6  9  1  0  0  0  0
  6  4  1  0  0  0  0
  6  7  1  0  0  0  0
  7  8  1  0  0  0  0
  9 10  1  0  0  0  0
 11  6  1  0  0  0  0
 12 13  1  0  0  0  0
 12 11  1  0  0  0  0
 14 12  1  0  0  0  0
 15 12  1  0  0  0  0
 17 18  1  0  0  0  0
 18 16  1  0  0  0  0
 18 19  2  0  0  0  0
 19 24  1  0  0  0  0
 20 19  1  0  0  0  0
 21 20  2  0  0  0  0
 22 17  2  0  0  0  0
 22 21  1  0  0  0  0
 23 17  1  0  0  0  0
 25 21  1  0  0  0  0
 26 27  1  0  0  0  0
 26 25  1  0  0  0  0
 28 26  2  0  0  0  0
M  END
>  <minimizedAffinity>
-4.35758781

$$$$

 OpenBabel03252503043D

 28 28  0  0  0  0  0  0  0  0999 V2000
   36.7670   31.3960   39.7190 C   0  0  0  0  0  0  0  0  0  0  0  0
   37.7000   30.9550   39.3130 H   0  0  0  0  0  0  0  0  0  0  0  0
   36.0480   31.4450   38.8890 H   0  0  0  0  0  0  0  0  0  0  0  0
   37.0240   32.7190   40.2970 N   0  0  0  0  0  0  0  0  0  0  0  0
   36.6120   33.4590   39.6570 H   0  0  0  0  0  0  0  0  0  0  0  0
   38.6960   33.0470   40.4300 S   0  0  0  0  0  0  0  0  0  0  0  0
   39.2880   33.5150   39.1370 O   0  0  0  0  0  0  0  0  0  0  0  0
   39.0910   33.2370   38.2180 H   0  0  0  0  0  0  0  0  0  0  0  0
   38.8350   34.1610   41.4550 O   0  0  0  0  0  0  0  0  0  0  0  0
   38.7990   35.1210   41.3170 H   0  0  0  0  0  0  0  0  0  0  0  0
   39.4880   31.7180   41.0230 O   0  0  0  0  0  0  0  0  0  0  0  0
   40.7810   32.0030   41.4140 C   0  0  0  0  0  0  0  0  0  0  0  0
   41.1040   32.9850   41.0040 H   0  0  0  0  0  0  0  0  0  0  0  0
   40.8230   32.0310   42.5220 H   0  0  0  0  0  0  0  0  0  0  0  0
   41.4890   31.2190   41.0790 H   0  0  0  0  0  0  0  0  0  0  0  0
   36.1050   30.3640   41.0130 S   0  0  0  0  0  0  0  0  0  0  0  0
   37.9630   28.3330   40.6870 C   0  0  0  0  0  0  0  0  0  0  0  0
   37.3730   29.2160   41.5800 C   0  0  0  0  0  0  0  0  0  0  0  0
   37.7470   29.2280   42.9080 C   0  0  0  0  0  0  0  0  0  0  0  0
   38.7030   28.3500   43.2990 N   0  0  0  0  0  0  0  0  0  0  0  0
   39.2580   27.5010   42.4020 C   0  0  0  0  0  0  0  0  0  0  0  0
   38.9170   27.4690   41.1200 N   0  0  0  0  0  0  0  0  0  0  0  0
   37.6750   28.3200   39.6570 H   0  0  0  0  0  0  0  0  0  0  0  0
   37.3150   29.8990   43.6390 H   0  0  0  0  0  0  0  0  0  0  0  0
   40.2460   26.5940   42.8060 O   0  0  0  0  0  0  0  0  0  0  0  0
   39.9370   25.4050   43.4440 C   0  0  0  0  0  0  0  0  0  0  0  0
   39.9500   25.2540   44.5130 H   0  0  0  0  0  0  0  0  0  0  0  0
   39.6090   24.4060   42.7230 O   0  0  0  0  0  0  0  0  0  0  0  0
  1  4  1  0  0  0  0
  1 16  1  0  0  0  0
  2  1  1  0  0  0  0
  3  1  1  0  0  0  0
  4  6  1  0  0  0  0
  5  4  1  0  0  0  0
  6 11  1  0  0  0  0
  6  9  1  0  0  0  0
  7  6  1  0  0  0  0
  8  7  1  0  0  0  0
 10  9  1  0  0  0  0
 11 12  1  0  0  0  0
 12 14  1  0  0  0  0
 13 12  1  0  0  0  0
 15 12  1  0  0  0  0
 16 18  1  0  0  0  0
 17 22  2  0  0  0  0
 17 18  1  0  0  0  0
 18 19  2  0  0  0  0
 19 20  1  0  0  0  0
 19 24  1  0  0  0  0
 21 25  1  0  0  0  0
 21 20  2  0  0  0  0
 22 21  1  0  0  0  0
 23 17  1  0  0  0  0
 25 26  1  0  0  0  0
 26 27  1  0  0  0  0
 28 26  2  0  0  0  0
M  END
>  <minimizedAffinity>
-4.29220772

$$$$

 OpenBabel03252503043D

 28 28  0  0  0  0  0  0  0  0999 V2000
   40.0270   33.2010   40.0040 C   0  0  0  0  0  0  0  0  0  0  0  0
   40.2190   33.8090   40.9110 H   0  0  0  0  0  0  0  0  0  0  0  0
   40.4990   32.2220   40.1680 H   0  0  0  0  0  0  0  0  0  0  0  0
   40.5550   33.8670   38.8080 N   0  0  0  0  0  0  0  0  0  0  0  0
   39.7820   34.4470   38.3680 H   0  0  0  0  0  0  0  0  0  0  0  0
   41.0740   32.7460   37.6260 S   0  0  0  0  0  0  0  0  0  0  0  0
   39.9660   32.3370   36.7060 O   0  0  0  0  0  0  0  0  0  0  0  0
   39.0170   32.1840   36.8950 H   0  0  0  0  0  0  0  0  0  0  0  0
   42.1450   33.4500   36.8090 O   0  0  0  0  0  0  0  0  0  0  0  0
   42.0390   34.0150   36.0270 H   0  0  0  0  0  0  0  0  0  0  0  0
   41.7790   31.4390   38.3580 O   0  0  0  0  0  0  0  0  0  0  0  0
   41.6220   30.2760   37.6300 C   0  0  0  0  0  0  0  0  0  0  0  0
   40.8360   30.4060   36.8540 H   0  0  0  0  0  0  0  0  0  0  0  0
   42.5870   30.0250   37.1430 H   0  0  0  0  0  0  0  0  0  0  0  0
   41.3520   29.4210   38.2810 H   0  0  0  0  0  0  0  0  0  0  0  0
   38.2750   32.9790   39.7640 S   0  0  0  0  0  0  0  0  0  0  0  0
   36.5340   31.1050   40.8320 C   0  0  0  0  0  0  0  0  0  0  0  0
   37.7960   31.3260   40.3010 C   0  0  0  0  0  0  0  0  0  0  0  0
   38.6980   30.2900   40.1760 C   0  0  0  0  0  0  0  0  0  0  0  0
   38.3040   29.0610   40.5910 N   0  0  0  0  0  0  0  0  0  0  0  0
   37.0650   28.8790   41.1060 C   0  0  0  0  0  0  0  0  0  0  0  0
   36.1790   29.8580   41.2360 N   0  0  0  0  0  0  0  0  0  0  0  0
   35.8320   31.9050   40.9310 H   0  0  0  0  0  0  0  0  0  0  0  0
   39.6920   30.4160   39.7670 H   0  0  0  0  0  0  0  0  0  0  0  0
   36.6580   27.6100   41.5330 O   0  0  0  0  0  0  0  0  0  0  0  0
   36.8050   27.1930   42.8460 C   0  0  0  0  0  0  0  0  0  0  0  0
   36.3810   26.2910   43.2610 H   0  0  0  0  0  0  0  0  0  0  0  0
   37.4920   27.9250   43.6330 O   0  0  0  0  0  0  0  0  0  0  0  0
  1  3  1  0  0  0  0
  1  2  1  0  0  0  0
  4  1  1  0  0  0  0
  5  4  1  0  0  0  0
  6 11  1  0  0  0  0
  6  4  1  0  0  0  0
  7  8  1  0  0  0  0
  7  6  1  0  0  0  0
  9  6  1  0  0  0  0
 10  9  1  0  0  0  0
 12 15  1  0  0  0  0
 12 11  1  0  0  0  0
 13 12  1  0  0  0  0
 14 12  1  0  0  0  0
 16  1  1  0  0  0  0
 16 18  1  0  0  0  0
 17 23  1  0  0  0  0
 17 22  1  0  0  0  0
 18 17  2  0  0  0  0
 19 18  1  0  0  0  0
 19 20  2  0  0  0  0
 20 21  1  0  0  0  0
 21 22  2  0  0  0  0
 21 25  1  0  0  0  0
 24 19  1  0  0  0  0
 25 26  1  0  0  0  0
 26 27  1  0  0  0  0
 26 28  2  0  0  0  0
M  END
>  <minimizedAffinity>
-4.24559212

$$$$

 OpenBabel03252503043D

 28 28  0  0  0  0  0  0  0  0999 V2000
   36.9980   30.5340   40.4060 C   0  0  0  0  0  0  0  0  0  0  0  0
   37.8810   30.5020   39.7370 H   0  0  0  0  0  0  0  0  0  0  0  0
   36.2290   29.8930   39.9520 H   0  0  0  0  0  0  0  0  0  0  0  0
   36.5260   31.9120   40.5830 N   0  0  0  0  0  0  0  0  0  0  0  0
   35.5910   32.0200   40.0910 H   0  0  0  0  0  0  0  0  0  0  0  0
   37.5940   33.0490   39.8840 S   0  0  0  0  0  0  0  0  0  0  0  0
   36.8690   34.1180   39.1260 O   0  0  0  0  0  0  0  0  0  0  0  0
   36.0610   34.0590   38.5740 H   0  0  0  0  0  0  0  0  0  0  0  0
   38.3420   33.6990   41.0370 O   0  0  0  0  0  0  0  0  0  0  0  0
   38.0880   34.4700   41.5680 H   0  0  0  0  0  0  0  0  0  0  0  0
   38.7070   32.2720   38.9370 O   0  0  0  0  0  0  0  0  0  0  0  0
   39.9850   32.7670   39.1070 C   0  0  0  0  0  0  0  0  0  0  0  0
   39.9560   33.7470   39.6320 H   0  0  0  0  0  0  0  0  0  0  0  0
   40.5750   32.0420   39.7050 H   0  0  0  0  0  0  0  0  0  0  0  0
   40.5060   32.8910   38.1370 H   0  0  0  0  0  0  0  0  0  0  0  0
   37.4190   29.9000   42.0180 S   0  0  0  0  0  0  0  0  0  0  0  0
   38.4490   27.4520   42.8110 C   0  0  0  0  0  0  0  0  0  0  0  0
   37.5940   28.1080   41.9370 C   0  0  0  0  0  0  0  0  0  0  0  0
   36.8710   27.4030   40.9970 C   0  0  0  0  0  0  0  0  0  0  0  0
   37.0290   26.0570   40.9640 N   0  0  0  0  0  0  0  0  0  0  0  0
   37.8720   25.4470   41.8310 C   0  0  0  0  0  0  0  0  0  0  0  0
   38.5780   26.1020   42.7440 N   0  0  0  0  0  0  0  0  0  0  0  0
   39.0120   27.9950   43.5400 H   0  0  0  0  0  0  0  0  0  0  0  0
   36.1930   27.8730   40.2970 H   0  0  0  0  0  0  0  0  0  0  0  0
   38.0350   24.0570   41.7970 O   0  0  0  0  0  0  0  0  0  0  0  0
   37.4570   23.2720   40.8140 C   0  0  0  0  0  0  0  0  0  0  0  0
   36.4730   23.4270   40.3960 H   0  0  0  0  0  0  0  0  0  0  0  0
   38.1300   22.2890   40.3600 O   0  0  0  0  0  0  0  0  0  0  0  0
  1  4  1  0  0  0  0
  1 16  1  0  0  0  0
  2  1  1  0  0  0  0
  3  1  1  0  0  0  0
  5  4  1  0  0  0  0
  6  4  1  0  0  0  0
  6  9  1  0  0  0  0
  7  6  1  0  0  0  0
  8  7  1  0  0  0  0
  9 10  1  0  0  0  0
 11 12  1  0  0  0  0
 11  6  1  0  0  0  0
 12 13  1  0  0  0  0
 12 14  1  0  0  0  0
 15 12  1  0  0  0  0
 17 23  1  0  0  0  0
 18 16  1  0  0  0  0
 18 17  2  0  0  0  0
 19 18  1  0  0  0  0
 20 19  2  0  0  0  0
 20 21  1  0  0  0  0
 21 22  2  0  0  0  0
 22 17  1  0  0  0  0
 24 19  1  0  0  0  0
 25 21  1  0  0  0  0
 26 25  1  0  0  0  0
 27 26  1  0  0  0  0
 28 26  2  0  0  0  0
M  END
>  <minimizedAffinity>
-4.21314049

$$$$

 OpenBabel03252503043D

 28 28  0  0  0  0  0  0  0  0999 V2000
   36.9210   27.4170   41.1540 C   0  0  0  0  0  0  0  0  0  0  0  0
   37.0200   27.5830   40.0620 H   0  0  0  0  0  0  0  0  0  0  0  0
   36.4850   26.4170   41.2880 H   0  0  0  0  0  0  0  0  0  0  0  0
   36.0910   28.4610   41.7660 N   0  0  0  0  0  0  0  0  0  0  0  0
   35.2160   28.0120   42.1660 H   0  0  0  0  0  0  0  0  0  0  0  0
   35.5790   29.6250   40.6240 S   0  0  0  0  0  0  0  0  0  0  0  0
   34.1760   29.3860   40.1600 O   0  0  0  0  0  0  0  0  0  0  0  0
   33.7050   28.5440   39.9870 H   0  0  0  0  0  0  0  0  0  0  0  0
   35.6300   30.9690   41.3310 O   0  0  0  0  0  0  0  0  0  0  0  0
   34.9470   31.4000   41.8680 H   0  0  0  0  0  0  0  0  0  0  0  0
   36.6440   29.6810   39.3580 O   0  0  0  0  0  0  0  0  0  0  0  0
   36.0080   29.7000   38.1310 C   0  0  0  0  0  0  0  0  0  0  0  0
   34.9420   29.4040   38.2420 H   0  0  0  0  0  0  0  0  0  0  0  0
   36.0680   30.7260   37.7120 H   0  0  0  0  0  0  0  0  0  0  0  0
   36.5010   29.0210   37.4070 H   0  0  0  0  0  0  0  0  0  0  0  0
   38.5200   27.4740   41.9380 S   0  0  0  0  0  0  0  0  0  0  0  0
   39.8960   29.3670   40.4520 C   0  0  0  0  0  0  0  0  0  0  0  0
   39.2730   29.0880   41.6600 C   0  0  0  0  0  0  0  0  0  0  0  0
   39.2230   30.0370   42.6610 C   0  0  0  0  0  0  0  0  0  0  0  0
   39.8000   31.2380   42.4170 N   0  0  0  0  0  0  0  0  0  0  0  0
   40.4000   31.4780   41.2270 C   0  0  0  0  0  0  0  0  0  0  0  0
   40.4620   30.5840   40.2480 N   0  0  0  0  0  0  0  0  0  0  0  0
   39.9380   28.6350   39.6740 H   0  0  0  0  0  0  0  0  0  0  0  0
   38.7480   29.8630   43.6170 H   0  0  0  0  0  0  0  0  0  0  0  0
   40.9960   32.7190   40.9750 O   0  0  0  0  0  0  0  0  0  0  0  0
   40.3400   33.7250   40.2840 C   0  0  0  0  0  0  0  0  0  0  0  0
   40.6930   34.1830   39.3730 H   0  0  0  0  0  0  0  0  0  0  0  0
   39.2320   34.1480   40.7540 O   0  0  0  0  0  0  0  0  0  0  0  0
  1  3  1  0  0  0  0
  1  4  1  0  0  0  0
  1 16  1  0  0  0  0
  2  1  1  0  0  0  0
  4  5  1  0  0  0  0
  6  9  1  0  0  0  0
  6  4  1  0  0  0  0
  7  6  1  0  0  0  0
  8  7  1  0  0  0  0
  9 10  1  0  0  0  0
 11  6  1  0  0  0  0
 12 13  1  0  0  0  0
 12 11  1  0  0  0  0
 14 12  1  0  0  0  0
 15 12  1  0  0  0  0
 17 18  1  0  0  0  0
 18 16  1  0  0  0  0
 18 19  2  0  0  0  0
 19 24  1  0  0  0  0
 20 19  1  0  0  0  0
 21 20  2  0  0  0  0
 22 17  2  0  0  0  0
 22 21  1  0  0  0  0
 23 17  1  0  0  0  0
 25 21  1  0  0  0  0
 26 28  2  0  0  0  0
 26 25  1  0  0  0  0
 27 26  1  0  0  0  0
M  END
>  <minimizedAffinity>
-4.08199215

$$$$

 OpenBabel03252503043D

 28 28  0  0  0  0  0  0  0  0999 V2000
   37.6650   26.7620   42.1400 C   0  0  0  0  0  0  0  0  0  0  0  0
   36.7870   26.0970   42.0110 H   0  0  0  0  0  0  0  0  0  0  0  0
   37.9830   27.0710   41.1350 H   0  0  0  0  0  0  0  0  0  0  0  0
   38.7380   26.0730   42.8650 N   0  0  0  0  0  0  0  0  0  0  0  0
   39.6480   26.6000   42.7120 H   0  0  0  0  0  0  0  0  0  0  0  0
   38.9790   24.4810   42.2930 S   0  0  0  0  0  0  0  0  0  0  0  0
   39.8250   23.6650   43.2210 O   0  0  0  0  0  0  0  0  0  0  0  0
   40.5990   23.9290   43.7620 H   0  0  0  0  0  0  0  0  0  0  0  0
   37.6030   23.8430   42.2090 O   0  0  0  0  0  0  0  0  0  0  0  0
   37.1080   23.3720   42.8980 H   0  0  0  0  0  0  0  0  0  0  0  0
   39.6090   24.5200   40.7620 O   0  0  0  0  0  0  0  0  0  0  0  0
   38.9890   23.6270   39.9100 C   0  0  0  0  0  0  0  0  0  0  0  0
   38.3910   22.8890   40.4900 H   0  0  0  0  0  0  0  0  0  0  0  0
   38.3220   24.1890   39.2240 H   0  0  0  0  0  0  0  0  0  0  0  0
   39.7240   23.0850   39.2820 H   0  0  0  0  0  0  0  0  0  0  0  0
   37.2170   28.2040   43.0880 S   0  0  0  0  0  0  0  0  0  0  0  0
   36.4470   30.2380   41.3690 C   0  0  0  0  0  0  0  0  0  0  0  0
   37.4900   29.6860   42.0990 C   0  0  0  0  0  0  0  0  0  0  0  0
   38.7450   30.2600   42.0770 C   0  0  0  0  0  0  0  0  0  0  0  0
   38.9140   31.3720   41.3210 N   0  0  0  0  0  0  0  0  0  0  0  0
   37.8750   31.8850   40.6210 C   0  0  0  0  0  0  0  0  0  0  0  0
   36.6590   31.3540   40.6250 N   0  0  0  0  0  0  0  0  0  0  0  0
   35.4740   29.7960   41.3820 H   0  0  0  0  0  0  0  0  0  0  0  0
   39.5860   29.8640   42.6300 H   0  0  0  0  0  0  0  0  0  0  0  0
   38.0490   33.0350   39.8410 O   0  0  0  0  0  0  0  0  0  0  0  0
   38.8980   34.0610   40.2220 C   0  0  0  0  0  0  0  0  0  0  0  0
   38.6830   34.7900   40.9890 H   0  0  0  0  0  0  0  0  0  0  0  0
   40.0210   34.1610   39.6270 O   0  0  0  0  0  0  0  0  0  0  0  0
  1  4  1  0  0  0  0
  1 16  1  0  0  0  0
  2  1  1  0  0  0  0
  3  1  1  0  0  0  0
  5  4  1  0  0  0  0
  6  4  1  0  0  0  0
  6  7  1  0  0  0  0
  7  8  1  0  0  0  0
  9  6  1  0  0  0  0
  9 10  1  0  0  0  0
 11  6  1  0  0  0  0
 12 13  1  0  0  0  0
 12 11  1  0  0  0  0
 14 12  1  0  0  0  0
 15 12  1  0  0  0  0
 17 23  1  0  0  0  0
 17 18  1  0  0  0  0
 18 16  1  0  0  0  0
 19 18  2  0  0  0  0
 19 24  1  0  0  0  0
 20 19  1  0  0  0  0
 21 22  1  0  0  0  0
 21 20  2  0  0  0  0
 22 17  2  0  0  0  0
 25 26  1  0  0  0  0
 25 21  1  0  0  0  0
 26 27  1  0  0  0  0
 28 26  2  0  0  0  0
M  END
>  <minimizedAffinity>
-3.98727059

$$$$

 OpenBabel03252503043D

 28 28  0  0  0  0  0  0  0  0999 V2000
   37.5820   30.0490   38.2200 C   0  0  0  0  0  0  0  0  0  0  0  0
   38.5320   30.2560   38.7540 H   0  0  0  0  0  0  0  0  0  0  0  0
   37.7500   30.2900   37.1610 H   0  0  0  0  0  0  0  0  0  0  0  0
   36.4810   30.8330   38.7910 N   0  0  0  0  0  0  0  0  0  0  0  0
   36.2540   31.6340   38.1330 H   0  0  0  0  0  0  0  0  0  0  0  0
   36.9000   31.5240   40.2970 S   0  0  0  0  0  0  0  0  0  0  0  0
   36.8220   33.0190   40.2760 O   0  0  0  0  0  0  0  0  0  0  0  0
   37.0500   33.6510   39.5620 H   0  0  0  0  0  0  0  0  0  0  0  0
   35.8880   31.0030   41.3040 O   0  0  0  0  0  0  0  0  0  0  0  0
   35.0190   31.3660   41.5360 H   0  0  0  0  0  0  0  0  0  0  0  0
   38.3970   30.9930   40.7660 O   0  0  0  0  0  0  0  0  0  0  0  0
   38.4140   30.5480   42.0740 C   0  0  0  0  0  0  0  0  0  0  0  0
   37.5020   30.8860   42.6130 H   0  0  0  0  0  0  0  0  0  0  0  0
   38.4570   29.4390   42.0740 H   0  0  0  0  0  0  0  0  0  0  0  0
   39.3110   30.9100   42.6150 H   0  0  0  0  0  0  0  0  0  0  0  0
   37.1490   28.3260   38.3710 S   0  0  0  0  0  0  0  0  0  0  0  0
   39.1250   27.5540   40.1560 C   0  0  0  0  0  0  0  0  0  0  0  0
   37.7600   27.6840   39.9400 C   0  0  0  0  0  0  0  0  0  0  0  0
   36.8560   27.3240   40.9190 C   0  0  0  0  0  0  0  0  0  0  0  0
   37.3520   26.8440   42.0850 N   0  0  0  0  0  0  0  0  0  0  0  0
   38.6890   26.7300   42.2630 C   0  0  0  0  0  0  0  0  0  0  0  0
   39.5790   27.0680   41.3390 N   0  0  0  0  0  0  0  0  0  0  0  0
   39.8280   27.8300   39.4000 H   0  0  0  0  0  0  0  0  0  0  0  0
   35.7840   27.4090   40.7950 H   0  0  0  0  0  0  0  0  0  0  0  0
   39.2010   26.2340   43.4690 O   0  0  0  0  0  0  0  0  0  0  0  0
   40.0880   25.1720   43.5100 C   0  0  0  0  0  0  0  0  0  0  0  0
   41.0690   25.2010   43.9590 H   0  0  0  0  0  0  0  0  0  0  0  0
   39.7270   24.0700   42.9800 O   0  0  0  0  0  0  0  0  0  0  0  0
  1 16  1  0  0  0  0
  1  2  1  0  0  0  0
  1  4  1  0  0  0  0
  3  1  1  0  0  0  0
  4  6  1  0  0  0  0
  5  4  1  0  0  0  0
  6 11  1  0  0  0  0
  6  9  1  0  0  0  0
  7  6  1  0  0  0  0
  8  7  1  0  0  0  0
  9 10  1  0  0  0  0
 11 12  1  0  0  0  0
 12 13  1  0  0  0  0
 12 15  1  0  0  0  0
 14 12  1  0  0  0  0
 16 18  1  0  0  0  0
 17 22  1  0  0  0  0
 18 17  2  0  0  0  0
 18 19  1  0  0  0  0
 19 20  2  0  0  0  0
 20 21  1  0  0  0  0
 21 25  1  0  0  0  0
 22 21  2  0  0  0  0
 23 17  1  0  0  0  0
 24 19  1  0  0  0  0
 25 26  1  0  0  0  0
 26 27  1  0  0  0  0
 28 26  2  0  0  0  0
M  END
>  <minimizedAffinity>
-3.9319849

$$$$

 OpenBabel03252503043D

 28 28  0  0  0  0  0  0  0  0999 V2000
   40.7510   30.7640   39.6550 C   0  0  0  0  0  0  0  0  0  0  0  0
   41.8000   30.4060   39.6550 H   0  0  0  0  0  0  0  0  0  0  0  0
   40.1550   30.0130   39.1180 H   0  0  0  0  0  0  0  0  0  0  0  0
   40.6510   32.0880   39.0300 N   0  0  0  0  0  0  0  0  0  0  0  0
   39.6550   32.4410   39.1320 H   0  0  0  0  0  0  0  0  0  0  0  0
   40.9950   32.0340   37.3570 S   0  0  0  0  0  0  0  0  0  0  0  0
   41.3580   30.6570   36.8960 O   0  0  0  0  0  0  0  0  0  0  0  0
   41.8740   29.9580   37.3490 H   0  0  0  0  0  0  0  0  0  0  0  0
   39.7230   32.4620   36.6440 O   0  0  0  0  0  0  0  0  0  0  0  0
   38.9700   31.9170   36.3660 H   0  0  0  0  0  0  0  0  0  0  0  0
   42.1740   33.1370   36.9860 O   0  0  0  0  0  0  0  0  0  0  0  0
   42.2510   34.1610   37.9100 C   0  0  0  0  0  0  0  0  0  0  0  0
   41.3410   34.1760   38.5500 H   0  0  0  0  0  0  0  0  0  0  0  0
   43.1490   34.0050   38.5440 H   0  0  0  0  0  0  0  0  0  0  0  0
   42.3650   35.1460   37.4170 H   0  0  0  0  0  0  0  0  0  0  0  0
   40.1460   30.9130   41.3260 S   0  0  0  0  0  0  0  0  0  0  0  0
   39.4520   28.2350   41.1530 C   0  0  0  0  0  0  0  0  0  0  0  0
   39.1720   29.4570   41.7480 C   0  0  0  0  0  0  0  0  0  0  0  0
   38.1480   29.5740   42.6650 C   0  0  0  0  0  0  0  0  0  0  0  0
   37.4350   28.4590   42.9570 N   0  0  0  0  0  0  0  0  0  0  0  0
   37.7340   27.2820   42.3590 C   0  0  0  0  0  0  0  0  0  0  0  0
   38.7130   27.1420   41.4740 N   0  0  0  0  0  0  0  0  0  0  0  0
   40.2430   28.1390   40.4410 H   0  0  0  0  0  0  0  0  0  0  0  0
   37.8950   30.5060   43.1540 H   0  0  0  0  0  0  0  0  0  0  0  0
   36.9980   26.1300   42.6610 O   0  0  0  0  0  0  0  0  0  0  0  0
   37.0700   24.9860   41.8840 C   0  0  0  0  0  0  0  0  0  0  0  0
   36.5850   24.8540   40.9280 H   0  0  0  0  0  0  0  0  0  0  0  0
   37.7590   24.0070   42.3230 O   0  0  0  0  0  0  0  0  0  0  0  0
  1 16  1  0  0  0  0
  2  1  1  0  0  0  0
  3  1  1  0  0  0  0
  4  5  1  0  0  0  0
  4  1  1  0  0  0  0
  6  4  1  0  0  0  0
  7  8  1  0  0  0  0
  7  6  1  0  0  0  0
  9  6  1  0  0  0  0
 10  9  1  0  0  0  0
 11  6  1  0  0  0  0
 11 12  1  0  0  0  0
 12 14  1  0  0  0  0
 12 13  1  0  0  0  0
 15 12  1  0  0  0  0
 16 18  1  0  0  0  0
 17 22  2  0  0  0  0
 17 18  1  0  0  0  0
 18 19  2  0  0  0  0
 19 20  1  0  0  0  0
 19 24  1  0  0  0  0
 21 25  1  0  0  0  0
 21 20  2  0  0  0  0
 22 21  1  0  0  0  0
 23 17  1  0  0  0  0
 26 28  2  0  0  0  0
 26 25  1  0  0  0  0
 27 26  1  0  0  0  0
M  END
>  <minimizedAffinity>
-3.92163563

$$$$

 OpenBabel03252503043D

 28 28  0  0  0  0  0  0  0  0999 V2000
   37.4400   31.0760   38.4880 C   0  0  0  0  0  0  0  0  0  0  0  0
   36.6050   30.4810   38.0680 H   0  0  0  0  0  0  0  0  0  0  0  0
   37.5030   32.0020   37.8980 H   0  0  0  0  0  0  0  0  0  0  0  0
   38.6950   30.3170   38.4480 N   0  0  0  0  0  0  0  0  0  0  0  0
   38.9640   30.0460   39.4390 H   0  0  0  0  0  0  0  0  0  0  0  0
   39.9840   31.2430   37.8140 S   0  0  0  0  0  0  0  0  0  0  0  0
   40.9170   30.4210   36.9800 O   0  0  0  0  0  0  0  0  0  0  0  0
   41.2190   29.4960   37.1010 H   0  0  0  0  0  0  0  0  0  0  0  0
   39.3540   32.3040   36.9280 O   0  0  0  0  0  0  0  0  0  0  0  0
   39.1160   32.2490   35.9890 H   0  0  0  0  0  0  0  0  0  0  0  0
   40.7790   32.0190   39.0420 O   0  0  0  0  0  0  0  0  0  0  0  0
   40.3370   33.3150   39.2230 C   0  0  0  0  0  0  0  0  0  0  0  0
   39.7410   33.6490   38.3450 H   0  0  0  0  0  0  0  0  0  0  0  0
   39.7080   33.3550   40.1360 H   0  0  0  0  0  0  0  0  0  0  0  0
   41.1810   34.0160   39.3760 H   0  0  0  0  0  0  0  0  0  0  0  0
   37.1150   31.4850   40.1930 S   0  0  0  0  0  0  0  0  0  0  0  0
   36.7780   28.9200   41.1900 C   0  0  0  0  0  0  0  0  0  0  0  0
   37.5360   30.0810   41.2420 C   0  0  0  0  0  0  0  0  0  0  0  0
   38.6180   30.1770   42.0930 C   0  0  0  0  0  0  0  0  0  0  0  0
   38.9040   29.1030   42.8680 N   0  0  0  0  0  0  0  0  0  0  0  0
   38.1430   27.9850   42.7940 C   0  0  0  0  0  0  0  0  0  0  0  0
   37.0990   27.8670   41.9840 N   0  0  0  0  0  0  0  0  0  0  0  0
   35.9380   28.8420   40.5330 H   0  0  0  0  0  0  0  0  0  0  0  0
   39.2370   31.0620   42.1660 H   0  0  0  0  0  0  0  0  0  0  0  0
   38.4400   26.8750   43.5940 O   0  0  0  0  0  0  0  0  0  0  0  0
   39.7180   26.3480   43.6760 C   0  0  0  0  0  0  0  0  0  0  0  0
   40.6250   26.9290   43.7380 H   0  0  0  0  0  0  0  0  0  0  0  0
   39.8420   25.0790   43.6790 O   0  0  0  0  0  0  0  0  0  0  0  0
  1 16  1  0  0  0  0
  2  1  1  0  0  0  0
  3  1  1  0  0  0  0
  4  1  1  0  0  0  0
  4  5  1  0  0  0  0
  6  4  1  0  0  0  0
  6 11  1  0  0  0  0
  7  8  1  0  0  0  0
  7  6  1  0  0  0  0
  9  6  1  0  0  0  0
 10  9  1  0  0  0  0
 11 12  1  0  0  0  0
 12 15  1  0  0  0  0
 12 14  1  0  0  0  0
 13 12  1  0  0  0  0
 16 18  1  0  0  0  0
 17 18  2  0  0  0  0
 17 22  1  0  0  0  0
 18 19  1  0  0  0  0
 19 24  1  0  0  0  0
 19 20  2  0  0  0  0
 21 20  1  0  0  0  0
 21 25  1  0  0  0  0
 22 21  2  0  0  0  0
 23 17  1  0  0  0  0
 25 26  1  0  0  0  0
 26 28  2  0  0  0  0
 26 27  1  0  0  0  0
M  END
>  <minimizedAffinity>
-3.86371398

$$$$
