
 OpenBabel03252508593D

 39 40  0  0  1  0  0  0  0  0999 V2000
   47.1230   34.0810   43.1320 N   0  0  0  0  0  0  0  0  0  0  0  0
   46.7400   35.3650   42.6450 C   0  0  0  0  0  0  0  0  0  0  0  0
   45.2990   35.7250   42.8410 C   0  0  0  0  0  0  0  0  0  0  0  0
   44.6520   35.1270   44.0610 C   0  0  0  0  0  0  0  0  0  0  0  0
   45.6710   34.4130   44.9190 C   0  0  0  0  0  0  0  0  0  0  0  0
   46.2770   33.3430   43.9380 C   0  0  2  0  0  0  0  0  0  0  0  0
   46.9960   35.5740   41.6010 H   0  0  0  0  0  0  0  0  0  0  0  0
   47.3420   36.1150   43.2360 H   0  0  0  0  0  0  0  0  0  0  0  0
   45.2260   36.8380   42.9500 H   0  0  0  0  0  0  0  0  0  0  0  0
   44.7120   35.5080   41.9120 H   0  0  0  0  0  0  0  0  0  0  0  0
   44.0310   35.8550   44.6200 H   0  0  0  0  0  0  0  0  0  0  0  0
   43.9370   34.3480   43.6980 H   0  0  0  0  0  0  0  0  0  0  0  0
   45.1720   33.9060   45.7540 H   0  0  0  0  0  0  0  0  0  0  0  0
   46.4900   35.0960   45.2160 H   0  0  0  0  0  0  0  0  0  0  0  0
   45.4210   32.8300   43.4540 H   0  0  0  0  0  0  0  0  0  0  0  0
   48.0760   33.3980   42.3080 C   0  0  0  0  0  0  0  0  0  0  0  0
   48.6600   32.6870   42.9210 H   0  0  0  0  0  0  0  0  0  0  0  0
   48.7440   34.1560   41.8470 H   0  0  0  0  0  0  0  0  0  0  0  0
   47.3220   32.6250   41.2610 C   0  0  0  0  0  0  0  0  0  0  0  0
   46.2500   32.9670   41.2040 H   0  0  0  0  0  0  0  0  0  0  0  0
   47.2970   31.5400   41.4260 H   0  0  0  0  0  0  0  0  0  0  0  0
   49.3000   32.2450   38.0870 C   0  0  0  0  0  0  0  0  0  0  0  0
   48.7380   31.9780   39.3490 C   0  0  0  0  0  0  0  0  0  0  0  0
   47.9110   32.9150   39.9260 C   0  0  0  0  0  0  0  0  0  0  0  0
   47.6780   34.0510   39.2460 N   0  0  0  0  0  0  0  0  0  0  0  0
   48.2180   34.2970   38.0430 C   0  0  0  0  0  0  0  0  0  0  0  0
   49.0350   33.3970   37.4500 N   0  0  0  0  0  0  0  0  0  0  0  0
   49.9510   31.5000   37.6390 H   0  0  0  0  0  0  0  0  0  0  0  0
   48.9630   31.0500   39.8430 H   0  0  0  0  0  0  0  0  0  0  0  0
   47.9820   35.2360   37.5580 H   0  0  0  0  0  0  0  0  0  0  0  0
   46.9790   32.5270   44.8120 O   0  0  0  0  0  0  0  0  0  0  0  0
   45.2570   30.7270   43.8760 O   0  0  0  0  0  0  0  0  0  0  0  0
   46.2800   31.0080   44.9830 P   0  0  2  0  0  0  0  0  0  0  0  0
   45.3540   31.0700   46.4220 O   0  0  0  0  0  0  0  0  0  0  0  0
   45.9580   31.0210   47.2040 H   0  0  0  0  0  0  0  0  0  0  0  0
   47.3940   29.7850   45.1480 O   0  0  0  0  0  0  0  0  0  0  0  0
   48.6320   29.8970   44.5310 C   0  0  0  0  0  0  0  0  0  0  0  0
   49.5730   29.9480   45.0660 H   0  0  0  0  0  0  0  0  0  0  0  0
   48.5020   29.9310   43.2750 O   0  0  0  0  0  0  0  0  0  0  0  0
  1  6  1  0  0  0  0
  2  3  1  0  0  0  0
  2  1  1  0  0  0  0
  2  8  1  0  0  0  0
  3  9  1  0  0  0  0
  3  4  1  0  0  0  0
  4 11  1  0  0  0  0
  4  5  1  0  0  0  0
  5 14  1  0  0  0  0
  5 13  1  0  0  0  0
  6 15  1  6  0  0  0
  6 31  1  0  0  0  0
  6  5  1  0  0  0  0
  7  2  1  0  0  0  0
 10  3  1  0  0  0  0
 12  4  1  0  0  0  0
 16 17  1  0  0  0  0
 16  1  1  0  0  0  0
 18 16  1  0  0  0  0
 19 21  1  0  0  0  0
 19 16  1  0  0  0  0
 20 19  1  0  0  0  0
 22 23  1  0  0  0  0
 23 29  1  0  0  0  0
 23 24  2  0  0  0  0
 24 19  1  0  0  0  0
 25 24  1  0  0  0  0
 26 25  2  0  0  0  0
 27 26  1  0  0  0  0
 27 22  2  0  0  0  0
 28 22  1  0  0  0  0
 30 26  1  0  0  0  0
 31 33  1  0  0  0  0
 33 32  2  6  0  0  0
 33 36  1  0  0  0  0
 33 34  1  0  0  0  0
 34 35  1  0  0  0  0
 37 38  1  0  0  0  0
 37 36  1  0  0  0  0
 39 37  2  0  0  0  0
M  END
>  <minimizedAffinity>
-3.58092833

>  <minimizedRMSD>
0.35101524

$$$$
