
 OpenBabel03252507123D

 22 22  0  0  0  0  0  0  0  0999 V2000
   45.3490   33.8230   43.3770 C   0  0  0  0  0  0  0  0  0  0  0  0
   46.5840   33.5160   42.8080 C   0  0  0  0  0  0  0  0  0  0  0  0
   46.5960   32.6140   41.7280 C   0  0  0  0  0  0  0  0  0  0  0  0
   45.4160   32.1020   41.3070 N   0  0  0  0  0  0  0  0  0  0  0  0
   44.2610   32.4180   41.8730 C   0  0  0  0  0  0  0  0  0  0  0  0
   44.2190   33.2860   42.9190 N   0  0  0  0  0  0  0  0  0  0  0  0
   47.5690   32.3860   41.2940 H   0  0  0  0  0  0  0  0  0  0  0  0
   43.3620   31.9570   41.4670 H   0  0  0  0  0  0  0  0  0  0  0  0
   44.7230   36.0590   44.2590 C   0  0  0  0  0  0  0  0  0  0  0  0
   45.1460   36.6820   43.2350 O   0  0  0  0  0  0  0  0  0  0  0  0
   44.7830   34.6140   44.4180 N   0  0  0  0  0  0  0  0  0  0  0  0
   44.2760   36.5970   45.1050 H   0  0  0  0  0  0  0  0  0  0  0  0
   44.4220   34.1740   45.2670 H   0  0  0  0  0  0  0  0  0  0  0  0
   47.6870   34.1140   43.3440 O   0  0  0  0  0  0  0  0  0  0  0  0
   48.8940   34.7460   41.0800 O   0  0  0  0  0  0  0  0  0  0  0  0
   49.1640   34.2180   42.4690 P   0  0  1  0  0  0  0  0  0  0  0  0
   50.2010   35.3030   43.2340 O   0  0  0  0  0  0  0  0  0  0  0  0
   51.0840   34.8960   43.3550 H   0  0  0  0  0  0  0  0  0  0  0  0
   49.9000   32.7040   42.3640 O   0  0  0  0  0  0  0  0  0  0  0  0
   50.2650   32.2210   41.1150 C   0  0  0  0  0  0  0  0  0  0  0  0
   49.5660   31.9770   40.3360 H   0  0  0  0  0  0  0  0  0  0  0  0
   51.5080   32.0870   40.9660 O   0  0  0  0  0  0  0  0  0  0  0  0
  1 11  1  0  0  0  0
  2 14  1  0  0  0  0
  2  1  2  0  0  0  0
  3  2  1  0  0  0  0
  4  3  2  0  0  0  0
  4  5  1  0  0  0  0
  5  6  2  0  0  0  0
  6  1  1  0  0  0  0
  7  3  1  0  0  0  0
  8  5  1  0  0  0  0
  9 11  1  0  0  0  0
  9 12  1  0  0  0  0
 10  9  2  0  0  0  0
 11 13  1  0  0  0  0
 16 15  2  6  0  0  0
 16 17  1  0  0  0  0
 16 14  1  0  0  0  0
 17 18  1  0  0  0  0
 19 16  1  0  0  0  0
 20 19  1  0  0  0  0
 21 20  1  0  0  0  0
 22 20  2  0  0  0  0
M  END
>  <minimizedAffinity>
-4.11489296

>  <minimizedRMSD>
3.32502699

$$$$
