
 OpenBabel03252508443D

 33 34  0  0  0  0  0  0  0  0999 V2000
   37.0850   30.8070   38.4230 C   0  0  0  0  0  0  0  0  0  0  0  0
   36.1540   30.0500   39.1180 C   0  0  0  0  0  0  0  0  0  0  0  0
   35.4460   29.0770   38.4420 C   0  0  0  0  0  0  0  0  0  0  0  0
   35.6710   28.8740   37.1110 C   0  0  0  0  0  0  0  0  0  0  0  0
   36.5850   29.6050   36.3950 C   0  0  0  0  0  0  0  0  0  0  0  0
   37.2680   30.5690   37.1200 C   0  0  0  0  0  0  0  0  0  0  0  0
   34.7100   28.4750   38.9780 H   0  0  0  0  0  0  0  0  0  0  0  0
   35.1010   28.1030   36.6080 H   0  0  0  0  0  0  0  0  0  0  0  0
   36.7840   29.4680   35.3410 H   0  0  0  0  0  0  0  0  0  0  0  0
   38.0080   31.1870   36.6130 H   0  0  0  0  0  0  0  0  0  0  0  0
   38.1160   33.9990   40.1480 C   0  0  0  0  0  0  0  0  0  0  0  0
   37.3450   33.1130   39.3870 C   0  0  0  0  0  0  0  0  0  0  0  0
   37.7950   31.8150   39.1910 C   0  0  0  0  0  0  0  0  0  0  0  0
   38.9800   31.4720   39.7640 N   0  0  0  0  0  0  0  0  0  0  0  0
   39.7070   32.3480   40.4970 C   0  0  0  0  0  0  0  0  0  0  0  0
   39.2750   33.6150   40.6910 N   0  0  0  0  0  0  0  0  0  0  0  0
   37.7720   35.0130   40.3050 H   0  0  0  0  0  0  0  0  0  0  0  0
   36.4030   33.3980   38.9370 H   0  0  0  0  0  0  0  0  0  0  0  0
   40.6390   31.9110   40.8870 H   0  0  0  0  0  0  0  0  0  0  0  0
   35.9220   30.2860   40.5690 C   0  0  0  0  0  0  0  0  0  0  0  0
   36.7770   30.8640   40.9870 H   0  0  0  0  0  0  0  0  0  0  0  0
   35.0290   30.9580   40.6440 H   0  0  0  0  0  0  0  0  0  0  0  0
   35.7670   29.1000   41.3560 N   0  0  0  0  0  0  0  0  0  0  0  0
   35.5300   28.3260   40.6870 H   0  0  0  0  0  0  0  0  0  0  0  0
   37.1540   28.7100   42.2810 S   0  0  0  0  0  0  0  0  0  0  0  0
   37.0250   29.2740   43.6750 O   0  0  0  0  0  0  0  0  0  0  0  0
   36.3400   28.9890   44.3310 H   0  0  0  0  0  0  0  0  0  0  0  0
   38.4030   29.2010   41.6510 O   0  0  0  0  0  0  0  0  0  0  0  0
   38.6030   29.5400   40.7590 H   0  0  0  0  0  0  0  0  0  0  0  0
   37.2120   27.0320   42.4050 O   0  0  0  0  0  0  0  0  0  0  0  0
   38.4290   26.4310   42.6940 C   0  0  0  0  0  0  0  0  0  0  0  0
   38.6540   25.6050   42.0420 H   0  0  0  0  0  0  0  0  0  0  0  0
   38.8910   27.0910   43.6790 O   0  0  0  0  0  0  0  0  0  0  0  0
  1  2  1  0  0  0  0
  1 13  1  0  0  0  0
  2 20  1  0  0  0  0
  3  7  1  0  0  0  0
  3  2  2  0  0  0  0
  4  3  1  0  0  0  0
  5  4  2  0  0  0  0
  5  6  1  0  0  0  0
  6  1  2  0  0  0  0
  8  4  1  0  0  0  0
  9  5  1  0  0  0  0
 10  6  1  0  0  0  0
 11 17  1  0  0  0  0
 11 16  1  0  0  0  0
 12 11  2  0  0  0  0
 13 12  1  0  0  0  0
 13 14  2  0  0  0  0
 14 15  1  0  0  0  0
 15 16  2  0  0  0  0
 15 19  1  0  0  0  0
 18 12  1  0  0  0  0
 20 22  1  0  0  0  0
 20 21  1  0  0  0  0
 20 23  1  0  0  0  0
 23 25  1  0  0  0  0
 24 23  1  0  0  0  0
 25 30  1  0  0  0  0
 25 26  1  0  0  0  0
 26 27  1  0  0  0  0
 28 25  1  0  0  0  0
 29 28  1  0  0  0  0
 30 31  1  0  0  0  0
 31 33  2  0  0  0  0
 32 31  1  0  0  0  0
M  END
>  <minimizedAffinity>
-5.20964241

$$$$

 OpenBabel03252508443D

 33 34  0  0  0  0  0  0  0  0999 V2000
   36.7840   28.2480   41.0310 C   0  0  0  0  0  0  0  0  0  0  0  0
   37.2330   29.3550   41.7350 C   0  0  0  0  0  0  0  0  0  0  0  0
   37.7220   29.1790   43.0140 C   0  0  0  0  0  0  0  0  0  0  0  0
   37.7570   27.9300   43.5630 C   0  0  0  0  0  0  0  0  0  0  0  0
   37.3210   26.8150   42.8930 C   0  0  0  0  0  0  0  0  0  0  0  0
   36.8400   27.0460   41.6140 C   0  0  0  0  0  0  0  0  0  0  0  0
   38.0780   30.0420   43.5800 H   0  0  0  0  0  0  0  0  0  0  0  0
   38.1450   27.8240   44.5680 H   0  0  0  0  0  0  0  0  0  0  0  0
   37.3350   25.8140   43.3010 H   0  0  0  0  0  0  0  0  0  0  0  0
   36.4770   26.2040   41.0240 H   0  0  0  0  0  0  0  0  0  0  0  0
   36.4680   28.7440   37.3050 C   0  0  0  0  0  0  0  0  0  0  0  0
   37.0640   28.4860   38.5460 C   0  0  0  0  0  0  0  0  0  0  0  0
   36.2820   28.5010   39.6920 C   0  0  0  0  0  0  0  0  0  0  0  0
   34.9570   28.7690   39.5400 N   0  0  0  0  0  0  0  0  0  0  0  0
   34.4050   29.0150   38.3290 C   0  0  0  0  0  0  0  0  0  0  0  0
   35.1600   29.0020   37.2080 N   0  0  0  0  0  0  0  0  0  0  0  0
   37.0710   28.7340   36.4070 H   0  0  0  0  0  0  0  0  0  0  0  0
   38.1190   28.2740   38.6520 H   0  0  0  0  0  0  0  0  0  0  0  0
   33.3240   29.2130   38.3830 H   0  0  0  0  0  0  0  0  0  0  0  0
   37.1870   30.7090   41.1220 C   0  0  0  0  0  0  0  0  0  0  0  0
   36.8190   30.6240   40.0740 H   0  0  0  0  0  0  0  0  0  0  0  0
   36.4040   31.2860   41.6780 H   0  0  0  0  0  0  0  0  0  0  0  0
   38.4400   31.4020   41.0910 N   0  0  0  0  0  0  0  0  0  0  0  0
   39.0900   30.8170   40.5100 H   0  0  0  0  0  0  0  0  0  0  0  0
   38.3240   32.9940   40.4740 S   0  0  0  0  0  0  0  0  0  0  0  0
   38.8120   33.9870   41.5000 O   0  0  0  0  0  0  0  0  0  0  0  0
   39.7450   34.0370   41.8300 H   0  0  0  0  0  0  0  0  0  0  0  0
   36.9430   33.3340   40.0580 O   0  0  0  0  0  0  0  0  0  0  0  0
   36.1450   32.7920   39.9100 H   0  0  0  0  0  0  0  0  0  0  0  0
   39.3480   33.0840   39.1400 O   0  0  0  0  0  0  0  0  0  0  0  0
   39.4520   31.9770   38.3090 C   0  0  0  0  0  0  0  0  0  0  0  0
   40.4590   31.6110   38.2210 H   0  0  0  0  0  0  0  0  0  0  0  0
   38.2630   31.7580   37.9130 O   0  0  0  0  0  0  0  0  0  0  0  0
  1  6  2  0  0  0  0
  1  2  1  0  0  0  0
  2  3  2  0  0  0  0
  3  4  1  0  0  0  0
  3  7  1  0  0  0  0
  4  8  1  0  0  0  0
  5  9  1  0  0  0  0
  5  4  2  0  0  0  0
  6  5  1  0  0  0  0
 10  6  1  0  0  0  0
 11 12  1  0  0  0  0
 12 18  1  0  0  0  0
 12 13  2  0  0  0  0
 13  1  1  0  0  0  0
 14 13  1  0  0  0  0
 15 19  1  0  0  0  0
 15 14  2  0  0  0  0
 16 11  2  0  0  0  0
 16 15  1  0  0  0  0
 17 11  1  0  0  0  0
 20 22  1  0  0  0  0
 20  2  1  0  0  0  0
 21 20  1  0  0  0  0
 23 20  1  0  0  0  0
 24 23  1  0  0  0  0
 25 23  1  0  0  0  0
 25 26  1  0  0  0  0
 26 27  1  0  0  0  0
 28 25  1  0  0  0  0
 29 28  1  0  0  0  0
 30 25  1  0  0  0  0
 31 30  1  0  0  0  0
 32 31  1  0  0  0  0
 33 31  2  0  0  0  0
M  END
>  <minimizedAffinity>
-5.12542915

$$$$

 OpenBabel03252508443D

 33 34  0  0  0  0  0  0  0  0999 V2000
   36.5730   27.3990   40.0590 C   0  0  0  0  0  0  0  0  0  0  0  0
   36.1030   28.3600   40.9410 C   0  0  0  0  0  0  0  0  0  0  0  0
   36.3130   28.1830   42.2930 C   0  0  0  0  0  0  0  0  0  0  0  0
   36.9740   27.0750   42.7410 C   0  0  0  0  0  0  0  0  0  0  0  0
   37.4510   26.1070   41.8940 C   0  0  0  0  0  0  0  0  0  0  0  0
   37.2150   26.3310   40.5470 C   0  0  0  0  0  0  0  0  0  0  0  0
   35.9480   28.9320   42.9990 H   0  0  0  0  0  0  0  0  0  0  0  0
   37.1230   26.9640   43.8070 H   0  0  0  0  0  0  0  0  0  0  0  0
   37.9770   25.2190   42.2180 H   0  0  0  0  0  0  0  0  0  0  0  0
   37.5660   25.6010   39.8180 H   0  0  0  0  0  0  0  0  0  0  0  0
   35.0310   27.5500   36.6190 C   0  0  0  0  0  0  0  0  0  0  0  0
   35.1660   27.2600   37.9820 C   0  0  0  0  0  0  0  0  0  0  0  0
   36.3200   27.6430   38.6500 C   0  0  0  0  0  0  0  0  0  0  0  0
   37.2720   28.2930   37.9270 N   0  0  0  0  0  0  0  0  0  0  0  0
   37.1180   28.5630   36.6090 C   0  0  0  0  0  0  0  0  0  0  0  0
   35.9960   28.1920   35.9520 N   0  0  0  0  0  0  0  0  0  0  0  0
   34.1340   27.2550   36.0920 H   0  0  0  0  0  0  0  0  0  0  0  0
   34.4000   26.7420   38.5450 H   0  0  0  0  0  0  0  0  0  0  0  0
   37.9800   29.0930   36.1770 H   0  0  0  0  0  0  0  0  0  0  0  0
   35.3850   29.5600   40.4360 C   0  0  0  0  0  0  0  0  0  0  0  0
   35.5780   29.6700   39.3450 H   0  0  0  0  0  0  0  0  0  0  0  0
   34.2910   29.3430   40.5360 H   0  0  0  0  0  0  0  0  0  0  0  0
   35.7460   30.7920   41.0720 N   0  0  0  0  0  0  0  0  0  0  0  0
   35.9690   30.5580   42.0710 H   0  0  0  0  0  0  0  0  0  0  0  0
   37.0600   31.5890   40.3170 S   0  0  0  0  0  0  0  0  0  0  0  0
   36.9110   33.0840   40.4560 O   0  0  0  0  0  0  0  0  0  0  0  0
   36.9350   33.5690   41.3200 H   0  0  0  0  0  0  0  0  0  0  0  0
   37.1880   31.2250   38.8860 O   0  0  0  0  0  0  0  0  0  0  0  0
   36.7920   30.5140   38.3470 H   0  0  0  0  0  0  0  0  0  0  0  0
   38.4560   31.1300   41.1380 O   0  0  0  0  0  0  0  0  0  0  0  0
   39.5230   32.0170   41.1790 C   0  0  0  0  0  0  0  0  0  0  0  0
   39.9250   32.1440   42.1680 H   0  0  0  0  0  0  0  0  0  0  0  0
   39.6720   32.3980   39.9740 O   0  0  0  0  0  0  0  0  0  0  0  0
  1  6  2  0  0  0  0
  1  2  1  0  0  0  0
  2  3  2  0  0  0  0
  3  4  1  0  0  0  0
  3  7  1  0  0  0  0
  4  8  1  0  0  0  0
  5  9  1  0  0  0  0
  5  4  2  0  0  0  0
  6  5  1  0  0  0  0
 10  6  1  0  0  0  0
 11 12  1  0  0  0  0
 12 18  1  0  0  0  0
 12 13  2  0  0  0  0
 13  1  1  0  0  0  0
 14 13  1  0  0  0  0
 15 14  2  0  0  0  0
 16 15  1  0  0  0  0
 16 11  2  0  0  0  0
 17 11  1  0  0  0  0
 19 15  1  0  0  0  0
 20 22  1  0  0  0  0
 20  2  1  0  0  0  0
 20 23  1  0  0  0  0
 21 20  1  0  0  0  0
 23 24  1  0  0  0  0
 25 26  1  0  0  0  0
 25 23  1  0  0  0  0
 25 30  1  0  0  0  0
 26 27  1  0  0  0  0
 28 25  1  0  0  0  0
 29 28  1  0  0  0  0
 30 31  1  0  0  0  0
 31 32  1  0  0  0  0
 33 31  2  0  0  0  0
M  END
>  <minimizedAffinity>
-5.0404563

$$$$

 OpenBabel03252508443D

 33 34  0  0  0  0  0  0  0  0999 V2000
   36.8530   27.8010   40.2990 C   0  0  0  0  0  0  0  0  0  0  0  0
   35.9960   28.8910   40.3260 C   0  0  0  0  0  0  0  0  0  0  0  0
   35.0260   29.0000   39.3500 C   0  0  0  0  0  0  0  0  0  0  0  0
   34.9230   28.0430   38.3820 C   0  0  0  0  0  0  0  0  0  0  0  0
   35.7560   26.9540   38.3280 C   0  0  0  0  0  0  0  0  0  0  0  0
   36.7120   26.8910   39.3300 C   0  0  0  0  0  0  0  0  0  0  0  0
   34.3450   29.8530   39.3590 H   0  0  0  0  0  0  0  0  0  0  0  0
   34.1530   28.1560   37.6300 H   0  0  0  0  0  0  0  0  0  0  0  0
   35.7000   26.1800   37.5740 H   0  0  0  0  0  0  0  0  0  0  0  0
   37.4070   26.0520   39.3470 H   0  0  0  0  0  0  0  0  0  0  0  0
   38.7100   27.1110   43.5090 C   0  0  0  0  0  0  0  0  0  0  0  0
   37.6750   27.0990   42.5680 C   0  0  0  0  0  0  0  0  0  0  0  0
   37.8520   27.7450   41.3520 C   0  0  0  0  0  0  0  0  0  0  0  0
   39.0460   28.3620   41.1420 N   0  0  0  0  0  0  0  0  0  0  0  0
   40.0330   28.3590   42.0690 C   0  0  0  0  0  0  0  0  0  0  0  0
   39.8660   27.7320   43.2560 N   0  0  0  0  0  0  0  0  0  0  0  0
   38.5800   26.6090   44.4590 H   0  0  0  0  0  0  0  0  0  0  0  0
   36.7290   26.6040   42.7480 H   0  0  0  0  0  0  0  0  0  0  0  0
   40.9310   28.9040   41.7410 H   0  0  0  0  0  0  0  0  0  0  0  0
   36.1220   29.9240   41.3880 C   0  0  0  0  0  0  0  0  0  0  0  0
   35.3840   29.7120   42.1940 H   0  0  0  0  0  0  0  0  0  0  0  0
   37.1330   29.7840   41.8520 H   0  0  0  0  0  0  0  0  0  0  0  0
   35.9180   31.2710   40.9480 N   0  0  0  0  0  0  0  0  0  0  0  0
   35.5720   31.8080   41.7810 H   0  0  0  0  0  0  0  0  0  0  0  0
   37.3230   31.9940   40.2900 S   0  0  0  0  0  0  0  0  0  0  0  0
   38.5580   31.4090   40.9300 O   0  0  0  0  0  0  0  0  0  0  0  0
   38.8370   30.4620   40.8420 H   0  0  0  0  0  0  0  0  0  0  0  0
   37.3220   33.4670   40.4490 O   0  0  0  0  0  0  0  0  0  0  0  0
   36.6240   34.1050   40.6920 H   0  0  0  0  0  0  0  0  0  0  0  0
   37.3580   31.6080   38.6510 O   0  0  0  0  0  0  0  0  0  0  0  0
   38.5910   31.4270   38.0390 C   0  0  0  0  0  0  0  0  0  0  0  0
   38.6100   30.5810   37.3760 H   0  0  0  0  0  0  0  0  0  0  0  0
   39.3170   32.3690   38.4910 O   0  0  0  0  0  0  0  0  0  0  0  0
  1  2  1  0  0  0  0
  1 13  1  0  0  0  0
  2 20  1  0  0  0  0
  3  7  1  0  0  0  0
  3  2  2  0  0  0  0
  4  3  1  0  0  0  0
  5  4  2  0  0  0  0
  5  6  1  0  0  0  0
  6 10  1  0  0  0  0
  6  1  2  0  0  0  0
  8  4  1  0  0  0  0
  9  5  1  0  0  0  0
 11 17  1  0  0  0  0
 12 18  1  0  0  0  0
 12 11  2  0  0  0  0
 13 12  1  0  0  0  0
 14 13  2  0  0  0  0
 14 15  1  0  0  0  0
 15 16  2  0  0  0  0
 16 11  1  0  0  0  0
 19 15  1  0  0  0  0
 20 22  1  0  0  0  0
 20 21  1  0  0  0  0
 23 20  1  0  0  0  0
 23 24  1  0  0  0  0
 25 28  1  0  0  0  0
 25 26  1  0  0  0  0
 25 23  1  0  0  0  0
 27 26  1  0  0  0  0
 28 29  1  0  0  0  0
 30 25  1  0  0  0  0
 31 33  2  0  0  0  0
 31 30  1  0  0  0  0
 32 31  1  0  0  0  0
M  END
>  <minimizedAffinity>
-4.95060158

$$$$

 OpenBabel03252508443D

 33 34  0  0  0  0  0  0  0  0999 V2000
   38.5480   25.7180   41.7870 C   0  0  0  0  0  0  0  0  0  0  0  0
   38.1630   26.7210   42.6630 C   0  0  0  0  0  0  0  0  0  0  0  0
   39.0670   27.1660   43.6060 C   0  0  0  0  0  0  0  0  0  0  0  0
   40.3170   26.6180   43.6630 C   0  0  0  0  0  0  0  0  0  0  0  0
   40.7280   25.6250   42.8110 C   0  0  0  0  0  0  0  0  0  0  0  0
   39.7830   25.2140   41.8830 C   0  0  0  0  0  0  0  0  0  0  0  0
   38.7770   27.9550   44.3020 H   0  0  0  0  0  0  0  0  0  0  0  0
   41.0040   26.9880   44.4130 H   0  0  0  0  0  0  0  0  0  0  0  0
   41.7090   25.1710   42.8310 H   0  0  0  0  0  0  0  0  0  0  0  0
   40.0430   24.4270   41.1750 H   0  0  0  0  0  0  0  0  0  0  0  0
   35.8190   23.8600   39.9620 C   0  0  0  0  0  0  0  0  0  0  0  0
   36.7490   24.1710   40.9610 C   0  0  0  0  0  0  0  0  0  0  0  0
   37.5510   25.2940   40.8200 C   0  0  0  0  0  0  0  0  0  0  0  0
   37.3830   26.0430   39.6960 N   0  0  0  0  0  0  0  0  0  0  0  0
   36.4770   25.7220   38.7440 C   0  0  0  0  0  0  0  0  0  0  0  0
   35.6920   24.6280   38.8750 N   0  0  0  0  0  0  0  0  0  0  0  0
   35.1900   22.9860   40.0650 H   0  0  0  0  0  0  0  0  0  0  0  0
   36.8720   23.5660   41.8500 H   0  0  0  0  0  0  0  0  0  0  0  0
   36.4700   26.4300   37.9020 H   0  0  0  0  0  0  0  0  0  0  0  0
   36.7980   27.3070   42.5870 C   0  0  0  0  0  0  0  0  0  0  0  0
   36.3050   26.9650   41.6480 H   0  0  0  0  0  0  0  0  0  0  0  0
   36.2090   26.8540   43.4260 H   0  0  0  0  0  0  0  0  0  0  0  0
   36.7520   28.7380   42.6120 N   0  0  0  0  0  0  0  0  0  0  0  0
   37.7070   29.0620   42.9040 H   0  0  0  0  0  0  0  0  0  0  0  0
   36.2960   29.4310   41.1150 S   0  0  0  0  0  0  0  0  0  0  0  0
   35.6720   30.7870   41.3390 O   0  0  0  0  0  0  0  0  0  0  0  0
   36.1550   31.5690   41.7100 H   0  0  0  0  0  0  0  0  0  0  0  0
   35.3620   28.5650   40.3580 O   0  0  0  0  0  0  0  0  0  0  0  0
   35.0980   27.6310   40.4600 H   0  0  0  0  0  0  0  0  0  0  0  0
   37.7050   29.6510   40.2210 O   0  0  0  0  0  0  0  0  0  0  0  0
   38.8930   29.8780   40.9020 C   0  0  0  0  0  0  0  0  0  0  0  0
   39.6860   29.2220   40.5930 H   0  0  0  0  0  0  0  0  0  0  0  0
   38.6300   30.8330   41.7010 O   0  0  0  0  0  0  0  0  0  0  0  0
  1  6  2  0  0  0  0
  1  2  1  0  0  0  0
  2  3  2  0  0  0  0
  3  4  1  0  0  0  0
  3  7  1  0  0  0  0
  4  8  1  0  0  0  0
  5  9  1  0  0  0  0
  5  4  2  0  0  0  0
  6  5  1  0  0  0  0
 10  6  1  0  0  0  0
 11 17  1  0  0  0  0
 11 12  1  0  0  0  0
 12 18  1  0  0  0  0
 13 12  2  0  0  0  0
 13  1  1  0  0  0  0
 14 13  1  0  0  0  0
 15 16  1  0  0  0  0
 15 14  2  0  0  0  0
 16 11  2  0  0  0  0
 19 15  1  0  0  0  0
 20 23  1  0  0  0  0
 20  2  1  0  0  0  0
 20 22  1  0  0  0  0
 21 20  1  0  0  0  0
 23 24  1  0  0  0  0
 25 26  1  0  0  0  0
 25 23  1  0  0  0  0
 26 27  1  0  0  0  0
 28 29  1  0  0  0  0
 28 25  1  0  0  0  0
 30 31  1  0  0  0  0
 30 25  1  0  0  0  0
 31 33  2  0  0  0  0
 32 31  1  0  0  0  0
M  END
>  <minimizedAffinity>
-4.87941551

$$$$

 OpenBabel03252508443D

 33 34  0  0  0  0  0  0  0  0999 V2000
   36.9770   25.8070   39.5480 C   0  0  0  0  0  0  0  0  0  0  0  0
   37.3450   26.6410   40.5920 C   0  0  0  0  0  0  0  0  0  0  0  0
   37.2870   26.1580   41.8840 C   0  0  0  0  0  0  0  0  0  0  0  0
   36.8730   24.8770   42.1140 C   0  0  0  0  0  0  0  0  0  0  0  0
   36.5020   24.0280   41.1030 C   0  0  0  0  0  0  0  0  0  0  0  0
   36.5780   24.5610   39.8260 C   0  0  0  0  0  0  0  0  0  0  0  0
   37.5750   26.8040   42.7150 H   0  0  0  0  0  0  0  0  0  0  0  0
   36.8380   24.5270   43.1380 H   0  0  0  0  0  0  0  0  0  0  0  0
   36.1690   23.0100   41.2530 H   0  0  0  0  0  0  0  0  0  0  0  0
   36.2970   23.9400   38.9750 H   0  0  0  0  0  0  0  0  0  0  0  0
   38.1350   26.8680   36.1180 C   0  0  0  0  0  0  0  0  0  0  0  0
   38.1700   26.2800   37.3880 C   0  0  0  0  0  0  0  0  0  0  0  0
   37.0590   26.3750   38.2140 C   0  0  0  0  0  0  0  0  0  0  0  0
   35.9780   27.0460   37.7310 N   0  0  0  0  0  0  0  0  0  0  0  0
   35.9690   27.6060   36.4980 C   0  0  0  0  0  0  0  0  0  0  0  0
   37.0480   27.5180   35.6890 N   0  0  0  0  0  0  0  0  0  0  0  0
   38.9970   26.7990   35.4690 H   0  0  0  0  0  0  0  0  0  0  0  0
   39.0370   25.7490   37.7600 H   0  0  0  0  0  0  0  0  0  0  0  0
   35.0190   28.1100   36.2640 H   0  0  0  0  0  0  0  0  0  0  0  0
   37.7940   28.0330   40.3230 C   0  0  0  0  0  0  0  0  0  0  0  0
   38.4700   28.3650   41.1450 H   0  0  0  0  0  0  0  0  0  0  0  0
   38.4290   27.9910   39.4010 H   0  0  0  0  0  0  0  0  0  0  0  0
   36.7410   28.9960   40.2050 N   0  0  0  0  0  0  0  0  0  0  0  0
   35.8400   28.4600   40.2590 H   0  0  0  0  0  0  0  0  0  0  0  0
   36.8010   30.2220   41.3970 S   0  0  0  0  0  0  0  0  0  0  0  0
   37.0650   29.6170   42.7540 O   0  0  0  0  0  0  0  0  0  0  0  0
   37.9010   29.1450   43.0010 H   0  0  0  0  0  0  0  0  0  0  0  0
   35.5570   31.0260   41.4370 O   0  0  0  0  0  0  0  0  0  0  0  0
   34.8020   31.1060   40.8240 H   0  0  0  0  0  0  0  0  0  0  0  0
   38.1020   31.2220   41.0150 O   0  0  0  0  0  0  0  0  0  0  0  0
   38.2480   31.6440   39.7010 C   0  0  0  0  0  0  0  0  0  0  0  0
   39.2650   31.5920   39.3550 H   0  0  0  0  0  0  0  0  0  0  0  0
   37.0740   31.9660   39.3320 O   0  0  0  0  0  0  0  0  0  0  0  0
  1  6  2  0  0  0  0
  1  2  1  0  0  0  0
  2  3  2  0  0  0  0
  3  4  1  0  0  0  0
  3  7  1  0  0  0  0
  4  8  1  0  0  0  0
  5  9  1  0  0  0  0
  5  4  2  0  0  0  0
  6  5  1  0  0  0  0
 10  6  1  0  0  0  0
 11 12  1  0  0  0  0
 12 18  1  0  0  0  0
 12 13  2  0  0  0  0
 13  1  1  0  0  0  0
 14 13  1  0  0  0  0
 15 14  2  0  0  0  0
 16 11  2  0  0  0  0
 16 15  1  0  0  0  0
 17 11  1  0  0  0  0
 19 15  1  0  0  0  0
 20  2  1  0  0  0  0
 20 21  1  0  0  0  0
 22 20  1  0  0  0  0
 23 24  1  0  0  0  0
 23 20  1  0  0  0  0
 23 25  1  0  0  0  0
 25 28  1  0  0  0  0
 25 26  1  0  0  0  0
 26 27  1  0  0  0  0
 29 28  1  0  0  0  0
 30 25  1  0  0  0  0
 31 30  1  0  0  0  0
 32 31  1  0  0  0  0
 33 31  2  0  0  0  0
M  END
>  <minimizedAffinity>
-4.70670509

$$$$

 OpenBabel03252508443D

 33 34  0  0  0  0  0  0  0  0999 V2000
   36.7800   28.8150   40.1100 C   0  0  0  0  0  0  0  0  0  0  0  0
   36.9790   28.9910   38.7490 C   0  0  0  0  0  0  0  0  0  0  0  0
   35.8800   29.1720   37.9330 C   0  0  0  0  0  0  0  0  0  0  0  0
   34.6250   29.1760   38.4710 C   0  0  0  0  0  0  0  0  0  0  0  0
   34.3960   29.0040   39.8120 C   0  0  0  0  0  0  0  0  0  0  0  0
   35.5310   28.8270   40.5880 C   0  0  0  0  0  0  0  0  0  0  0  0
   36.0230   29.3110   36.8600 H   0  0  0  0  0  0  0  0  0  0  0  0
   33.7840   29.3200   37.8050 H   0  0  0  0  0  0  0  0  0  0  0  0
   33.4150   29.0020   40.2680 H   0  0  0  0  0  0  0  0  0  0  0  0
   35.4210   28.6840   41.6630 H   0  0  0  0  0  0  0  0  0  0  0  0
   39.6930   27.3390   41.9980 C   0  0  0  0  0  0  0  0  0  0  0  0
   38.5360   27.3960   41.2120 C   0  0  0  0  0  0  0  0  0  0  0  0
   37.9750   28.6290   40.9140 C   0  0  0  0  0  0  0  0  0  0  0  0
   38.5960   29.7340   41.4110 N   0  0  0  0  0  0  0  0  0  0  0  0
   39.7150   29.6520   42.1680 C   0  0  0  0  0  0  0  0  0  0  0  0
   40.2660   28.4530   42.4640 N   0  0  0  0  0  0  0  0  0  0  0  0
   40.1360   26.3810   42.2340 H   0  0  0  0  0  0  0  0  0  0  0  0
   38.0520   26.5100   40.8230 H   0  0  0  0  0  0  0  0  0  0  0  0
   40.0880   30.6370   42.4900 H   0  0  0  0  0  0  0  0  0  0  0  0
   38.3530   28.9840   38.1800 C   0  0  0  0  0  0  0  0  0  0  0  0
   39.0890   29.1410   39.0010 H   0  0  0  0  0  0  0  0  0  0  0  0
   38.5340   27.9470   37.7970 H   0  0  0  0  0  0  0  0  0  0  0  0
   38.5960   29.9760   37.1760 N   0  0  0  0  0  0  0  0  0  0  0  0
   37.7440   29.9940   36.5620 H   0  0  0  0  0  0  0  0  0  0  0  0
   38.9270   31.5280   37.8160 S   0  0  0  0  0  0  0  0  0  0  0  0
   39.7170   32.3430   36.8220 O   0  0  0  0  0  0  0  0  0  0  0  0
   39.3740   32.6310   35.9390 H   0  0  0  0  0  0  0  0  0  0  0  0
   39.6570   31.4580   39.1050 O   0  0  0  0  0  0  0  0  0  0  0  0
   39.8290   30.7260   39.7270 H   0  0  0  0  0  0  0  0  0  0  0  0
   37.4460   32.2930   38.0530 O   0  0  0  0  0  0  0  0  0  0  0  0
   37.2810   33.0820   39.1830 C   0  0  0  0  0  0  0  0  0  0  0  0
   37.4740   34.1240   38.9990 H   0  0  0  0  0  0  0  0  0  0  0  0
   36.9400   32.2670   40.0990 O   0  0  0  0  0  0  0  0  0  0  0  0
  1  6  1  0  0  0  0
  1 13  1  0  0  0  0
  2  1  2  0  0  0  0
  3  4  2  0  0  0  0
  3  2  1  0  0  0  0
  4  5  1  0  0  0  0
  5  9  1  0  0  0  0
  5  6  2  0  0  0  0
  6 10  1  0  0  0  0
  7  3  1  0  0  0  0
  8  4  1  0  0  0  0
 11 17  1  0  0  0  0
 11 16  1  0  0  0  0
 12 11  2  0  0  0  0
 13 12  1  0  0  0  0
 13 14  2  0  0  0  0
 14 15  1  0  0  0  0
 15 16  2  0  0  0  0
 15 19  1  0  0  0  0
 18 12  1  0  0  0  0
 20  2  1  0  0  0  0
 20 21  1  0  0  0  0
 22 20  1  0  0  0  0
 23 25  1  0  0  0  0
 23 20  1  0  0  0  0
 24 23  1  0  0  0  0
 25 30  1  0  0  0  0
 25 28  1  0  0  0  0
 26 25  1  0  0  0  0
 27 26  1  0  0  0  0
 28 29  1  0  0  0  0
 30 31  1  0  0  0  0
 31 33  2  0  0  0  0
 32 31  1  0  0  0  0
M  END
>  <minimizedAffinity>
-4.51473331

$$$$

 OpenBabel03252508443D

 33 34  0  0  0  0  0  0  0  0999 V2000
   38.3780   25.9980   40.2800 C   0  0  0  0  0  0  0  0  0  0  0  0
   37.0940   26.4790   40.0730 C   0  0  0  0  0  0  0  0  0  0  0  0
   36.3490   25.9630   39.0320 C   0  0  0  0  0  0  0  0  0  0  0  0
   36.8800   24.9960   38.2280 C   0  0  0  0  0  0  0  0  0  0  0  0
   38.1460   24.4990   38.4070 C   0  0  0  0  0  0  0  0  0  0  0  0
   38.8520   25.0490   39.4650 C   0  0  0  0  0  0  0  0  0  0  0  0
   35.3370   26.3340   38.8570 H   0  0  0  0  0  0  0  0  0  0  0  0
   36.2710   24.6110   37.4200 H   0  0  0  0  0  0  0  0  0  0  0  0
   38.5940   23.7340   37.7880 H   0  0  0  0  0  0  0  0  0  0  0  0
   39.8650   24.7010   39.6640 H   0  0  0  0  0  0  0  0  0  0  0  0
   40.5030   28.2290   42.4560 C   0  0  0  0  0  0  0  0  0  0  0  0
   39.8370   27.7610   41.3170 C   0  0  0  0  0  0  0  0  0  0  0  0
   39.1100   26.5810   41.3900 C   0  0  0  0  0  0  0  0  0  0  0  0
   39.0860   25.9370   42.5880 N   0  0  0  0  0  0  0  0  0  0  0  0
   39.7390   26.4100   43.6750 C   0  0  0  0  0  0  0  0  0  0  0  0
   40.4500   27.5590   43.6110 N   0  0  0  0  0  0  0  0  0  0  0  0
   41.0720   29.1480   42.4060 H   0  0  0  0  0  0  0  0  0  0  0  0
   39.8640   28.2840   40.3700 H   0  0  0  0  0  0  0  0  0  0  0  0
   39.6180   25.7690   44.5610 H   0  0  0  0  0  0  0  0  0  0  0  0
   36.5320   27.5340   40.9580 C   0  0  0  0  0  0  0  0  0  0  0  0
   35.5340   27.2070   41.3280 H   0  0  0  0  0  0  0  0  0  0  0  0
   37.1950   27.5810   41.8590 H   0  0  0  0  0  0  0  0  0  0  0  0
   36.3730   28.8170   40.3430 N   0  0  0  0  0  0  0  0  0  0  0  0
   35.3850   28.8590   39.9900 H   0  0  0  0  0  0  0  0  0  0  0  0
   36.7070   30.1240   41.3960 S   0  0  0  0  0  0  0  0  0  0  0  0
   37.0470   29.6090   42.7730 O   0  0  0  0  0  0  0  0  0  0  0  0
   37.8440   29.0580   42.9810 H   0  0  0  0  0  0  0  0  0  0  0  0
   35.5770   31.0790   41.4800 O   0  0  0  0  0  0  0  0  0  0  0  0
   34.7730   31.2000   40.9410 H   0  0  0  0  0  0  0  0  0  0  0  0
   38.0640   30.9150   40.7900 O   0  0  0  0  0  0  0  0  0  0  0  0
   37.9620   32.2650   40.4830 C   0  0  0  0  0  0  0  0  0  0  0  0
   38.5750   32.8860   41.1110 H   0  0  0  0  0  0  0  0  0  0  0  0
   37.1380   32.3150   39.5150 O   0  0  0  0  0  0  0  0  0  0  0  0
  1 13  1  0  0  0  0
  2  1  1  0  0  0  0
  2 20  1  0  0  0  0
  3  2  2  0  0  0  0
  4  5  2  0  0  0  0
  4  3  1  0  0  0  0
  5  6  1  0  0  0  0
  6 10  1  0  0  0  0
  6  1  2  0  0  0  0
  7  3  1  0  0  0  0
  8  4  1  0  0  0  0
  9  5  1  0  0  0  0
 11 16  1  0  0  0  0
 12 13  1  0  0  0  0
 12 11  2  0  0  0  0
 13 14  2  0  0  0  0
 14 15  1  0  0  0  0
 15 19  1  0  0  0  0
 16 15  2  0  0  0  0
 17 11  1  0  0  0  0
 18 12  1  0  0  0  0
 20 21  1  0  0  0  0
 20 22  1  0  0  0  0
 23 20  1  0  0  0  0
 23 25  1  0  0  0  0
 24 23  1  0  0  0  0
 25 28  1  0  0  0  0
 25 26  1  0  0  0  0
 26 27  1  0  0  0  0
 29 28  1  0  0  0  0
 30 25  1  0  0  0  0
 31 30  1  0  0  0  0
 31 32  1  0  0  0  0
 33 31  2  0  0  0  0
M  END
>  <minimizedAffinity>
-4.5024538

$$$$

 OpenBabel03252508443D

 33 34  0  0  0  0  0  0  0  0999 V2000
   36.9480   30.5880   38.3610 C   0  0  0  0  0  0  0  0  0  0  0  0
   36.6110   30.2500   39.6630 C   0  0  0  0  0  0  0  0  0  0  0  0
   36.7210   31.2090   40.6500 C   0  0  0  0  0  0  0  0  0  0  0  0
   37.1550   32.4650   40.3350 C   0  0  0  0  0  0  0  0  0  0  0  0
   37.4960   32.8290   39.0570 C   0  0  0  0  0  0  0  0  0  0  0  0
   37.3680   31.8320   38.1040 C   0  0  0  0  0  0  0  0  0  0  0  0
   36.4600   30.9560   41.6790 H   0  0  0  0  0  0  0  0  0  0  0  0
   37.2310   33.1940   41.1300 H   0  0  0  0  0  0  0  0  0  0  0  0
   37.8430   33.8150   38.7760 H   0  0  0  0  0  0  0  0  0  0  0  0
   37.6220   32.0530   37.0670 H   0  0  0  0  0  0  0  0  0  0  0  0
   35.6070   28.1570   35.8070 C   0  0  0  0  0  0  0  0  0  0  0  0
   35.6180   29.1920   36.7500 C   0  0  0  0  0  0  0  0  0  0  0  0
   36.8110   29.5350   37.3700 C   0  0  0  0  0  0  0  0  0  0  0  0
   37.9220   28.8340   37.0170 N   0  0  0  0  0  0  0  0  0  0  0  0
   37.8860   27.8370   36.1010 C   0  0  0  0  0  0  0  0  0  0  0  0
   36.7260   27.4970   35.4940 N   0  0  0  0  0  0  0  0  0  0  0  0
   34.6810   27.8840   35.3200 H   0  0  0  0  0  0  0  0  0  0  0  0
   34.7270   29.7420   37.0220 H   0  0  0  0  0  0  0  0  0  0  0  0
   38.8690   27.3740   35.9330 H   0  0  0  0  0  0  0  0  0  0  0  0
   36.1410   28.8780   39.9890 C   0  0  0  0  0  0  0  0  0  0  0  0
   35.1850   28.6810   39.4510 H   0  0  0  0  0  0  0  0  0  0  0  0
   36.8920   28.1710   39.5510 H   0  0  0  0  0  0  0  0  0  0  0  0
   35.9200   28.6290   41.3820 N   0  0  0  0  0  0  0  0  0  0  0  0
   34.9110   28.3530   41.4790 H   0  0  0  0  0  0  0  0  0  0  0  0
   36.9540   27.4310   42.0330 S   0  0  0  0  0  0  0  0  0  0  0  0
   36.8060   26.1420   41.2630 O   0  0  0  0  0  0  0  0  0  0  0  0
   37.0510   26.0300   40.3090 H   0  0  0  0  0  0  0  0  0  0  0  0
   36.6960   27.1910   43.4730 O   0  0  0  0  0  0  0  0  0  0  0  0
   36.1890   27.6850   44.1440 H   0  0  0  0  0  0  0  0  0  0  0  0
   38.5340   27.9770   41.8300 O   0  0  0  0  0  0  0  0  0  0  0  0
   39.1440   28.6430   42.8840 C   0  0  0  0  0  0  0  0  0  0  0  0
   40.1430   28.2950   43.0780 H   0  0  0  0  0  0  0  0  0  0  0  0
   38.2750   29.4830   43.2830 O   0  0  0  0  0  0  0  0  0  0  0  0
  1  2  1  0  0  0  0
  2 20  1  0  0  0  0
  2  3  2  0  0  0  0
  3  7  1  0  0  0  0
  4  3  1  0  0  0  0
  4  8  1  0  0  0  0
  5  4  2  0  0  0  0
  6  1  2  0  0  0  0
  6  5  1  0  0  0  0
  9  5  1  0  0  0  0
 10  6  1  0  0  0  0
 11 12  1  0  0  0  0
 12 18  1  0  0  0  0
 12 13  2  0  0  0  0
 13  1  1  0  0  0  0
 14 13  1  0  0  0  0
 15 14  2  0  0  0  0
 16 11  2  0  0  0  0
 16 15  1  0  0  0  0
 17 11  1  0  0  0  0
 19 15  1  0  0  0  0
 20 23  1  0  0  0  0
 21 20  1  0  0  0  0
 22 20  1  0  0  0  0
 23 24  1  0  0  0  0
 23 25  1  0  0  0  0
 25 28  1  0  0  0  0
 26 25  1  0  0  0  0
 27 26  1  0  0  0  0
 28 29  1  0  0  0  0
 30 25  1  0  0  0  0
 30 31  1  0  0  0  0
 31 32  1  0  0  0  0
 31 33  2  0  0  0  0
M  END
>  <minimizedAffinity>
-4.48254871

$$$$
