
 OpenBabel03252507123D

 22 22  0  0  0  0  0  0  0  0999 V2000
   37.1430   31.9070   39.6710 C   0  0  0  0  0  0  0  0  0  0  0  0
   36.8060   30.5890   39.9750 C   0  0  0  0  0  0  0  0  0  0  0  0
   36.7560   29.6680   38.9120 C   0  0  0  0  0  0  0  0  0  0  0  0
   37.0380   30.1130   37.6650 N   0  0  0  0  0  0  0  0  0  0  0  0
   37.3550   31.3750   37.4140 C   0  0  0  0  0  0  0  0  0  0  0  0
   37.4100   32.2860   38.4220 N   0  0  0  0  0  0  0  0  0  0  0  0
   36.4920   28.6420   39.1670 H   0  0  0  0  0  0  0  0  0  0  0  0
   37.5660   31.6420   36.3800 H   0  0  0  0  0  0  0  0  0  0  0  0
   38.6640   33.5580   40.7340 C   0  0  0  0  0  0  0  0  0  0  0  0
   39.7000   32.8380   40.5800 O   0  0  0  0  0  0  0  0  0  0  0  0
   37.3300   33.1700   40.3040 N   0  0  0  0  0  0  0  0  0  0  0  0
   38.7240   34.5420   41.2150 H   0  0  0  0  0  0  0  0  0  0  0  0
   36.5370   33.7960   40.4550 H   0  0  0  0  0  0  0  0  0  0  0  0
   36.5490   30.2930   41.2820 O   0  0  0  0  0  0  0  0  0  0  0  0
   38.8260   30.3680   42.6210 O   0  0  0  0  0  0  0  0  0  0  0  0
   37.6890   29.4450   42.2500 P   0  0  1  0  0  0  0  0  0  0  0  0
   36.9560   28.9410   43.6800 O   0  0  0  0  0  0  0  0  0  0  0  0
   37.1330   27.9890   43.8310 H   0  0  0  0  0  0  0  0  0  0  0  0
   38.2970   28.1090   41.4180 O   0  0  0  0  0  0  0  0  0  0  0  0
   38.1310   26.8450   41.9680 C   0  0  0  0  0  0  0  0  0  0  0  0
   38.9300   26.1390   42.1070 H   0  0  0  0  0  0  0  0  0  0  0  0
   36.9430   26.5860   42.2970 O   0  0  0  0  0  0  0  0  0  0  0  0
  1  2  1  0  0  0  0
  1 11  1  0  0  0  0
  2 14  1  0  0  0  0
  3  7  1  0  0  0  0
  3  2  2  0  0  0  0
  4  3  1  0  0  0  0
  5  4  2  0  0  0  0
  5  6  1  0  0  0  0
  6  1  2  0  0  0  0
  8  5  1  0  0  0  0
  9 12  1  0  0  0  0
 10  9  2  0  0  0  0
 11 13  1  0  0  0  0
 11  9  1  0  0  0  0
 14 16  1  0  0  0  0
 16 15  2  1  0  0  0
 16 17  1  0  0  0  0
 17 18  1  0  0  0  0
 19 20  1  0  0  0  0
 19 16  1  0  0  0  0
 20 21  1  0  0  0  0
 20 22  2  0  0  0  0
M  END
>  <minimizedAffinity>
-4.27449179

$$$$

 OpenBabel03252507123D

 22 22  0  0  0  0  0  0  0  0999 V2000
   37.2050   30.2160   41.5230 C   0  0  0  0  0  0  0  0  0  0  0  0
   38.3780   30.7530   40.9950 C   0  0  0  0  0  0  0  0  0  0  0  0
   39.5920   30.3920   41.6090 C   0  0  0  0  0  0  0  0  0  0  0  0
   39.5500   29.5490   42.6670 N   0  0  0  0  0  0  0  0  0  0  0  0
   38.4140   29.0580   43.1410 C   0  0  0  0  0  0  0  0  0  0  0  0
   37.2270   29.3900   42.5690 N   0  0  0  0  0  0  0  0  0  0  0  0
   40.5000   30.8190   41.1840 H   0  0  0  0  0  0  0  0  0  0  0  0
   38.4770   28.3880   43.9970 H   0  0  0  0  0  0  0  0  0  0  0  0
   35.2130   29.3700   40.3040 C   0  0  0  0  0  0  0  0  0  0  0  0
   35.8840   28.5760   39.5730 O   0  0  0  0  0  0  0  0  0  0  0  0
   35.7950   30.2360   41.3170 N   0  0  0  0  0  0  0  0  0  0  0  0
   34.1230   29.4470   40.2050 H   0  0  0  0  0  0  0  0  0  0  0  0
   35.1990   30.8510   41.8740 H   0  0  0  0  0  0  0  0  0  0  0  0
   38.2590   31.5890   39.9230 O   0  0  0  0  0  0  0  0  0  0  0  0
   37.3430   34.0390   39.5460 O   0  0  0  0  0  0  0  0  0  0  0  0
   38.5390   33.2790   40.0700 P   0  0  1  0  0  0  0  0  0  0  0  0
   38.7280   33.6830   41.6940 O   0  0  0  0  0  0  0  0  0  0  0  0
   39.5380   34.2220   41.8140 H   0  0  0  0  0  0  0  0  0  0  0  0
   39.9160   33.7300   39.2060 O   0  0  0  0  0  0  0  0  0  0  0  0
   41.0370   34.1560   39.9050 C   0  0  0  0  0  0  0  0  0  0  0  0
   41.5360   35.0910   39.7300 H   0  0  0  0  0  0  0  0  0  0  0  0
   41.4290   33.3400   40.7800 O   0  0  0  0  0  0  0  0  0  0  0  0
  1  6  1  0  0  0  0
  2  1  2  0  0  0  0
  2  3  1  0  0  0  0
  3  4  2  0  0  0  0
  4  5  1  0  0  0  0
  5  8  1  0  0  0  0
  6  5  2  0  0  0  0
  7  3  1  0  0  0  0
  9 11  1  0  0  0  0
 10  9  2  0  0  0  0
 11  1  1  0  0  0  0
 11 13  1  0  0  0  0
 12  9  1  0  0  0  0
 14 16  1  0  0  0  0
 14  2  1  0  0  0  0
 16 15  2  6  0  0  0
 16 17  1  0  0  0  0
 17 18  1  0  0  0  0
 19 20  1  0  0  0  0
 19 16  1  0  0  0  0
 20 22  2  0  0  0  0
 21 20  1  0  0  0  0
M  END
>  <minimizedAffinity>
-4.2036562

$$$$

 OpenBabel03252507123D

 22 22  0  0  0  0  0  0  0  0999 V2000
   37.6750   26.7000   42.3350 C   0  0  0  0  0  0  0  0  0  0  0  0
   37.2700   28.0320   42.2670 C   0  0  0  0  0  0  0  0  0  0  0  0
   38.1850   29.0120   42.6940 C   0  0  0  0  0  0  0  0  0  0  0  0
   39.3970   28.6070   43.1400 N   0  0  0  0  0  0  0  0  0  0  0  0
   39.7470   27.3300   43.1880 C   0  0  0  0  0  0  0  0  0  0  0  0
   38.8830   26.3620   42.7830 N   0  0  0  0  0  0  0  0  0  0  0  0
   37.8530   30.0480   42.6340 H   0  0  0  0  0  0  0  0  0  0  0  0
   40.7430   27.0980   43.5620 H   0  0  0  0  0  0  0  0  0  0  0  0
   36.9020   25.0140   40.6820 C   0  0  0  0  0  0  0  0  0  0  0  0
   37.0500   25.7900   39.6850 O   0  0  0  0  0  0  0  0  0  0  0  0
   37.1930   25.3880   42.0570 N   0  0  0  0  0  0  0  0  0  0  0  0
   36.5330   23.9890   40.5510 H   0  0  0  0  0  0  0  0  0  0  0  0
   37.0550   24.7150   42.8130 H   0  0  0  0  0  0  0  0  0  0  0  0
   36.0150   28.2830   41.7940 O   0  0  0  0  0  0  0  0  0  0  0  0
   34.4250   29.1820   39.8840 O   0  0  0  0  0  0  0  0  0  0  0  0
   35.7360   29.4670   40.5780 P   0  0  1  0  0  0  0  0  0  0  0  0
   35.6170   30.9900   41.2870 O   0  0  0  0  0  0  0  0  0  0  0  0
   36.2010   31.6240   40.8210 H   0  0  0  0  0  0  0  0  0  0  0  0
   36.9860   29.4610   39.4460 O   0  0  0  0  0  0  0  0  0  0  0  0
   37.6380   30.6530   39.1600 C   0  0  0  0  0  0  0  0  0  0  0  0
   38.6900   30.8140   39.3080 H   0  0  0  0  0  0  0  0  0  0  0  0
   36.8800   31.5490   38.7040 O   0  0  0  0  0  0  0  0  0  0  0  0
  1  6  1  0  0  0  0
  2  1  2  0  0  0  0
  2  3  1  0  0  0  0
  3  4  2  0  0  0  0
  4  5  1  0  0  0  0
  5  8  1  0  0  0  0
  6  5  2  0  0  0  0
  7  3  1  0  0  0  0
  9 11  1  0  0  0  0
 10  9  2  0  0  0  0
 11  1  1  0  0  0  0
 11 13  1  0  0  0  0
 12  9  1  0  0  0  0
 14  2  1  0  0  0  0
 16 15  2  6  0  0  0
 16 17  1  0  0  0  0
 16 14  1  0  0  0  0
 18 17  1  0  0  0  0
 19 16  1  0  0  0  0
 20 21  1  0  0  0  0
 20 19  1  0  0  0  0
 22 20  2  0  0  0  0
M  END
>  <minimizedAffinity>
-4.1341486

$$$$

 OpenBabel03252507123D

 22 22  0  0  0  0  0  0  0  0999 V2000
   37.2940   28.2430   41.0110 C   0  0  0  0  0  0  0  0  0  0  0  0
   37.9510   29.3340   41.5790 C   0  0  0  0  0  0  0  0  0  0  0  0
   38.1600   29.3150   42.9700 C   0  0  0  0  0  0  0  0  0  0  0  0
   37.7140   28.2460   43.6710 N   0  0  0  0  0  0  0  0  0  0  0  0
   37.0930   27.2270   43.0960 C   0  0  0  0  0  0  0  0  0  0  0  0
   36.8770   27.2190   41.7530 N   0  0  0  0  0  0  0  0  0  0  0  0
   38.6750   30.1740   43.3980 H   0  0  0  0  0  0  0  0  0  0  0  0
   36.7690   26.4100   43.7390 H   0  0  0  0  0  0  0  0  0  0  0  0
   35.5500   28.1950   39.2430 C   0  0  0  0  0  0  0  0  0  0  0  0
   34.7710   28.9860   39.8620 O   0  0  0  0  0  0  0  0  0  0  0  0
   36.8450   27.7650   39.7460 N   0  0  0  0  0  0  0  0  0  0  0  0
   35.2760   27.7820   38.2640 H   0  0  0  0  0  0  0  0  0  0  0  0
   37.4260   27.1280   39.1970 H   0  0  0  0  0  0  0  0  0  0  0  0
   38.3420   30.3370   40.7400 O   0  0  0  0  0  0  0  0  0  0  0  0
   36.9500   31.4600   38.7950 O   0  0  0  0  0  0  0  0  0  0  0  0
   37.2560   31.5840   40.2690 P   0  0  1  0  0  0  0  0  0  0  0  0
   35.8040   31.4170   41.1060 O   0  0  0  0  0  0  0  0  0  0  0  0
   35.5480   32.2720   41.5090 H   0  0  0  0  0  0  0  0  0  0  0  0
   37.9230   33.1020   40.5810 O   0  0  0  0  0  0  0  0  0  0  0  0
   39.3040   33.2260   40.6520 C   0  0  0  0  0  0  0  0  0  0  0  0
   39.8630   33.2150   41.5700 H   0  0  0  0  0  0  0  0  0  0  0  0
   39.8600   33.3560   39.5300 O   0  0  0  0  0  0  0  0  0  0  0  0
  1  2  2  0  0  0  0
  1  6  1  0  0  0  0
  2  3  1  0  0  0  0
  3  7  1  0  0  0  0
  3  4  2  0  0  0  0
  5  4  1  0  0  0  0
  5  8  1  0  0  0  0
  6  5  2  0  0  0  0
  9 11  1  0  0  0  0
  9 10  2  0  0  0  0
 11  1  1  0  0  0  0
 12  9  1  0  0  0  0
 13 11  1  0  0  0  0
 14  2  1  0  0  0  0
 16 15  2  6  0  0  0
 16 19  1  0  0  0  0
 16 14  1  0  0  0  0
 16 17  1  0  0  0  0
 17 18  1  0  0  0  0
 19 20  1  0  0  0  0
 20 21  1  0  0  0  0
 22 20  2  0  0  0  0
M  END
>  <minimizedAffinity>
-4.0879693

$$$$

 OpenBabel03252507123D

 22 22  0  0  0  0  0  0  0  0999 V2000
   37.0490   30.6270   40.7980 C   0  0  0  0  0  0  0  0  0  0  0  0
   38.3770   30.2360   40.6350 C   0  0  0  0  0  0  0  0  0  0  0  0
   39.2790   31.1910   40.1290 C   0  0  0  0  0  0  0  0  0  0  0  0
   38.8080   32.4250   39.8350 N   0  0  0  0  0  0  0  0  0  0  0  0
   37.5370   32.7610   40.0050 C   0  0  0  0  0  0  0  0  0  0  0  0
   36.6440   31.8580   40.4910 N   0  0  0  0  0  0  0  0  0  0  0  0
   40.3130   30.8690   40.0080 H   0  0  0  0  0  0  0  0  0  0  0  0
   37.2480   33.7770   39.7410 H   0  0  0  0  0  0  0  0  0  0  0  0
   35.0570   29.2070   40.3700 C   0  0  0  0  0  0  0  0  0  0  0  0
   35.4560   28.8340   39.2230 O   0  0  0  0  0  0  0  0  0  0  0  0
   35.7960   30.1110   41.2380 N   0  0  0  0  0  0  0  0  0  0  0  0
   34.1010   28.8560   40.7790 H   0  0  0  0  0  0  0  0  0  0  0  0
   35.4200   30.3710   42.1510 H   0  0  0  0  0  0  0  0  0  0  0  0
   38.7000   28.9550   40.9770 O   0  0  0  0  0  0  0  0  0  0  0  0
   40.3910   28.6050   42.9780 O   0  0  0  0  0  0  0  0  0  0  0  0
   38.9270   28.4960   42.6180 P   0  0  1  0  0  0  0  0  0  0  0  0
   38.0770   29.5480   43.6230 O   0  0  0  0  0  0  0  0  0  0  0  0
   37.5340   29.0380   44.2600 H   0  0  0  0  0  0  0  0  0  0  0  0
   38.4000   26.9140   42.8720 O   0  0  0  0  0  0  0  0  0  0  0  0
   37.0660   26.6070   42.6440 C   0  0  0  0  0  0  0  0  0  0  0  0
   36.7300   25.7220   42.1360 H   0  0  0  0  0  0  0  0  0  0  0  0
   36.2640   27.4700   43.0900 O   0  0  0  0  0  0  0  0  0  0  0  0
  1 11  1  0  0  0  0
  2  1  1  0  0  0  0
  2 14  1  0  0  0  0
  3  2  2  0  0  0  0
  4  5  2  0  0  0  0
  4  3  1  0  0  0  0
  5  6  1  0  0  0  0
  6  1  2  0  0  0  0
  7  3  1  0  0  0  0
  8  5  1  0  0  0  0
  9 12  1  0  0  0  0
  9 11  1  0  0  0  0
 10  9  2  0  0  0  0
 11 13  1  0  0  0  0
 14 16  1  0  0  0  0
 16 19  1  0  0  0  0
 16 15  2  1  0  0  0
 16 17  1  0  0  0  0
 17 18  1  0  0  0  0
 20 19  1  0  0  0  0
 20 22  2  0  0  0  0
 21 20  1  0  0  0  0
M  END
>  <minimizedAffinity>
-4.04954195

$$$$

 OpenBabel03252507123D

 22 22  0  0  0  0  0  0  0  0999 V2000
   36.5590   28.0590   41.5900 C   0  0  0  0  0  0  0  0  0  0  0  0
   36.2480   28.6130   40.3490 C   0  0  0  0  0  0  0  0  0  0  0  0
   36.3090   27.7660   39.2260 C   0  0  0  0  0  0  0  0  0  0  0  0
   36.6630   26.4740   39.4160 N   0  0  0  0  0  0  0  0  0  0  0  0
   36.9510   25.9830   40.6130 C   0  0  0  0  0  0  0  0  0  0  0  0
   36.9010   26.7780   41.7150 N   0  0  0  0  0  0  0  0  0  0  0  0
   36.0620   28.2140   38.2640 H   0  0  0  0  0  0  0  0  0  0  0  0
   37.2260   24.9310   40.6700 H   0  0  0  0  0  0  0  0  0  0  0  0
   37.9420   28.8440   43.4990 C   0  0  0  0  0  0  0  0  0  0  0  0
   39.0110   28.9140   42.8140 O   0  0  0  0  0  0  0  0  0  0  0  0
   36.6560   28.4240   42.9640 N   0  0  0  0  0  0  0  0  0  0  0  0
   37.9340   29.1060   44.5640 H   0  0  0  0  0  0  0  0  0  0  0  0
   35.8330   28.3910   43.5690 H   0  0  0  0  0  0  0  0  0  0  0  0
   35.9080   29.9340   40.3190 O   0  0  0  0  0  0  0  0  0  0  0  0
   36.8640   31.3030   38.2700 O   0  0  0  0  0  0  0  0  0  0  0  0
   37.0120   31.1300   39.7630 P   0  0  1  0  0  0  0  0  0  0  0  0
   36.6550   32.6090   40.4850 O   0  0  0  0  0  0  0  0  0  0  0  0
   37.4680   33.0020   40.8660 H   0  0  0  0  0  0  0  0  0  0  0  0
   38.5990   30.6870   40.1250 O   0  0  0  0  0  0  0  0  0  0  0  0
   39.4970   31.6700   40.5200 C   0  0  0  0  0  0  0  0  0  0  0  0
   40.1530   31.5810   41.3660 H   0  0  0  0  0  0  0  0  0  0  0  0
   39.4770   32.6970   39.7910 O   0  0  0  0  0  0  0  0  0  0  0  0
  1  6  1  0  0  0  0
  1 11  1  0  0  0  0
  2  1  2  0  0  0  0
  3  4  2  0  0  0  0
  3  2  1  0  0  0  0
  4  5  1  0  0  0  0
  5  8  1  0  0  0  0
  5  6  2  0  0  0  0
  7  3  1  0  0  0  0
  9 12  1  0  0  0  0
 10  9  2  0  0  0  0
 11  9  1  0  0  0  0
 11 13  1  0  0  0  0
 14  2  1  0  0  0  0
 16 15  2  6  0  0  0
 16 19  1  0  0  0  0
 16 14  1  0  0  0  0
 16 17  1  0  0  0  0
 17 18  1  0  0  0  0
 19 20  1  0  0  0  0
 20 21  1  0  0  0  0
 22 20  2  0  0  0  0
M  END
>  <minimizedAffinity>
-3.96352601

$$$$

 OpenBabel03252507123D

 22 22  0  0  0  0  0  0  0  0999 V2000
   37.1440   29.2940   42.2330 C   0  0  0  0  0  0  0  0  0  0  0  0
   38.4400   29.2610   42.7440 C   0  0  0  0  0  0  0  0  0  0  0  0
   38.9980   28.0000   43.0220 C   0  0  0  0  0  0  0  0  0  0  0  0
   38.2480   26.8990   42.7790 N   0  0  0  0  0  0  0  0  0  0  0  0
   37.0180   26.9700   42.2910 C   0  0  0  0  0  0  0  0  0  0  0  0
   36.4540   28.1750   42.0130 N   0  0  0  0  0  0  0  0  0  0  0  0
   40.0120   27.9920   43.4200 H   0  0  0  0  0  0  0  0  0  0  0  0
   36.4900   26.0320   42.1270 H   0  0  0  0  0  0  0  0  0  0  0  0
   36.1850   30.7100   40.4310 C   0  0  0  0  0  0  0  0  0  0  0  0
   37.0500   30.3560   39.5680 O   0  0  0  0  0  0  0  0  0  0  0  0
   36.1540   30.2240   41.8010 N   0  0  0  0  0  0  0  0  0  0  0  0
   35.3920   31.4240   40.1770 H   0  0  0  0  0  0  0  0  0  0  0  0
   35.4290   30.5460   42.4450 H   0  0  0  0  0  0  0  0  0  0  0  0
   39.0690   30.4570   42.9350 O   0  0  0  0  0  0  0  0  0  0  0  0
   41.2860   31.5930   42.0540 O   0  0  0  0  0  0  0  0  0  0  0  0
   39.8700   31.2650   41.6450 P   0  0  1  0  0  0  0  0  0  0  0  0
   39.9490   30.2490   40.3040 O   0  0  0  0  0  0  0  0  0  0  0  0
   39.6310   30.7210   39.5060 H   0  0  0  0  0  0  0  0  0  0  0  0
   39.0570   32.6850   41.2380 O   0  0  0  0  0  0  0  0  0  0  0  0
   39.4730   33.4010   40.1230 C   0  0  0  0  0  0  0  0  0  0  0  0
   39.8410   34.4100   40.1580 H   0  0  0  0  0  0  0  0  0  0  0  0
   39.3820   32.7570   39.0440 O   0  0  0  0  0  0  0  0  0  0  0  0
  1  2  1  0  0  0  0
  2 14  1  0  0  0  0
  2  3  2  0  0  0  0
  3  7  1  0  0  0  0
  4  3  1  0  0  0  0
  5  4  2  0  0  0  0
  6  1  2  0  0  0  0
  6  5  1  0  0  0  0
  8  5  1  0  0  0  0
  9 11  1  0  0  0  0
 10  9  2  0  0  0  0
 11  1  1  0  0  0  0
 11 13  1  0  0  0  0
 12  9  1  0  0  0  0
 16 15  2  1  0  0  0
 16 14  1  0  0  0  0
 17 16  1  0  0  0  0
 18 17  1  0  0  0  0
 19 16  1  0  0  0  0
 20 21  1  0  0  0  0
 20 19  1  0  0  0  0
 22 20  2  0  0  0  0
M  END
>  <minimizedAffinity>
-3.87353826

$$$$

 OpenBabel03252507123D

 22 22  0  0  0  0  0  0  0  0999 V2000
   39.1920   31.4370   38.9130 C   0  0  0  0  0  0  0  0  0  0  0  0
   38.7200   30.1630   39.2220 C   0  0  0  0  0  0  0  0  0  0  0  0
   39.6510   29.1080   39.2290 C   0  0  0  0  0  0  0  0  0  0  0  0
   40.9420   29.3910   38.9390 N   0  0  0  0  0  0  0  0  0  0  0  0
   41.3550   30.6160   38.6510 C   0  0  0  0  0  0  0  0  0  0  0  0
   40.4770   31.6540   38.6360 N   0  0  0  0  0  0  0  0  0  0  0  0
   39.2650   28.1180   39.4730 H   0  0  0  0  0  0  0  0  0  0  0  0
   42.4130   30.7500   38.4300 H   0  0  0  0  0  0  0  0  0  0  0  0
   38.5310   33.5930   39.9560 C   0  0  0  0  0  0  0  0  0  0  0  0
   38.7450   33.1890   41.1420 O   0  0  0  0  0  0  0  0  0  0  0  0
   38.7300   32.7770   38.7680 N   0  0  0  0  0  0  0  0  0  0  0  0
   38.1710   34.6110   39.7600 H   0  0  0  0  0  0  0  0  0  0  0  0
   38.5410   33.1630   37.8410 H   0  0  0  0  0  0  0  0  0  0  0  0
   37.3880   30.0360   39.4930 O   0  0  0  0  0  0  0  0  0  0  0  0
   37.9460   30.1340   42.0740 O   0  0  0  0  0  0  0  0  0  0  0  0
   36.8120   29.8870   41.1060 P   0  0  1  0  0  0  0  0  0  0  0  0
   35.6320   31.0540   41.3960 O   0  0  0  0  0  0  0  0  0  0  0  0
   34.8380   30.6370   41.7910 H   0  0  0  0  0  0  0  0  0  0  0  0
   36.1710   28.3490   41.3690 O   0  0  0  0  0  0  0  0  0  0  0  0
   36.7180   27.2690   40.6900 C   0  0  0  0  0  0  0  0  0  0  0  0
   36.3220   26.8700   39.7750 H   0  0  0  0  0  0  0  0  0  0  0  0
   37.7390   26.7850   41.2460 O   0  0  0  0  0  0  0  0  0  0  0  0
  1  2  1  0  0  0  0
  2  3  2  0  0  0  0
  2 14  1  0  0  0  0
  3  7  1  0  0  0  0
  4  3  1  0  0  0  0
  5  4  2  0  0  0  0
  6  5  1  0  0  0  0
  6  1  2  0  0  0  0
  8  5  1  0  0  0  0
  9 10  2  0  0  0  0
 11  1  1  0  0  0  0
 11  9  1  0  0  0  0
 12  9  1  0  0  0  0
 13 11  1  0  0  0  0
 14 16  1  0  0  0  0
 16 19  1  0  0  0  0
 16 17  1  0  0  0  0
 16 15  2  1  0  0  0
 17 18  1  0  0  0  0
 20 22  2  0  0  0  0
 20 19  1  0  0  0  0
 21 20  1  0  0  0  0
M  END
>  <minimizedAffinity>
-3.79588509

$$$$

 OpenBabel03252507123D

 22 22  0  0  0  0  0  0  0  0999 V2000
   36.6920   29.6540   41.3460 C   0  0  0  0  0  0  0  0  0  0  0  0
   36.6110   30.6430   40.3670 C   0  0  0  0  0  0  0  0  0  0  0  0
   36.2330   30.2460   39.0710 C   0  0  0  0  0  0  0  0  0  0  0  0
   35.9710   28.9360   38.8530 N   0  0  0  0  0  0  0  0  0  0  0  0
   36.0590   28.0240   39.8090 C   0  0  0  0  0  0  0  0  0  0  0  0
   36.4220   28.3790   41.0710 N   0  0  0  0  0  0  0  0  0  0  0  0
   36.1730   31.0310   38.3180 H   0  0  0  0  0  0  0  0  0  0  0  0
   35.8300   26.9930   39.5410 H   0  0  0  0  0  0  0  0  0  0  0  0
   38.3980   29.4310   43.1380 C   0  0  0  0  0  0  0  0  0  0  0  0
   39.3820   29.5090   42.3370 O   0  0  0  0  0  0  0  0  0  0  0  0
   37.0040   29.4960   42.7270 N   0  0  0  0  0  0  0  0  0  0  0  0
   38.5540   29.3060   44.2170 H   0  0  0  0  0  0  0  0  0  0  0  0
   36.2580   29.4290   43.4230 H   0  0  0  0  0  0  0  0  0  0  0  0
   36.9050   31.9220   40.7420 O   0  0  0  0  0  0  0  0  0  0  0  0
   38.2730   34.1120   40.1800 O   0  0  0  0  0  0  0  0  0  0  0  0
   38.4350   32.6260   40.3970 P   0  0  1  0  0  0  0  0  0  0  0  0
   39.4650   32.4150   41.7130 O   0  0  0  0  0  0  0  0  0  0  0  0
   40.3220   32.0460   41.4130 H   0  0  0  0  0  0  0  0  0  0  0  0
   39.1160   31.9260   39.0220 O   0  0  0  0  0  0  0  0  0  0  0  0
   40.1580   31.0210   39.1750 C   0  0  0  0  0  0  0  0  0  0  0  0
   40.3920   30.5240   40.0990 H   0  0  0  0  0  0  0  0  0  0  0  0
   40.8200   30.8270   38.1220 O   0  0  0  0  0  0  0  0  0  0  0  0
  1 11  1  0  0  0  0
  2 14  1  0  0  0  0
  2  1  2  0  0  0  0
  3  2  1  0  0  0  0
  4  3  2  0  0  0  0
  4  5  1  0  0  0  0
  5  6  2  0  0  0  0
  6  1  1  0  0  0  0
  7  3  1  0  0  0  0
  8  5  1  0  0  0  0
  9 12  1  0  0  0  0
 10  9  2  0  0  0  0
 11  9  1  0  0  0  0
 11 13  1  0  0  0  0
 16 15  2  6  0  0  0
 16 14  1  0  0  0  0
 16 17  1  0  0  0  0
 18 17  1  0  0  0  0
 19 20  1  0  0  0  0
 19 16  1  0  0  0  0
 20 21  1  0  0  0  0
 22 20  2  0  0  0  0
M  END
>  <minimizedAffinity>
-3.77605176

$$$$
