
 OpenBabel03252508593D

 39 40  0  0  1  0  0  0  0  0999 V2000
   47.1780   34.1370   43.0770 N   0  0  0  0  0  0  0  0  0  0  0  0
   46.6700   35.3470   42.5210 C   0  0  0  0  0  0  0  0  0  0  0  0
   45.2110   35.5970   42.7470 C   0  0  0  0  0  0  0  0  0  0  0  0
   44.6560   35.0320   44.0270 C   0  0  0  0  0  0  0  0  0  0  0  0
   45.7600   34.4660   44.8910 C   0  0  0  0  0  0  0  0  0  0  0  0
   46.4250   33.3870   43.9610 C   0  0  2  0  0  0  0  0  0  0  0  0
   46.8740   35.5050   41.4570 H   0  0  0  0  0  0  0  0  0  0  0  0
   47.2240   36.1840   43.0390 H   0  0  0  0  0  0  0  0  0  0  0  0
   45.0440   36.7050   42.7850 H   0  0  0  0  0  0  0  0  0  0  0  0
   44.6160   35.2690   41.8560 H   0  0  0  0  0  0  0  0  0  0  0  0
   43.9930   35.7410   44.5590 H   0  0  0  0  0  0  0  0  0  0  0  0
   44.0000   34.1720   43.7420 H   0  0  0  0  0  0  0  0  0  0  0  0
   45.3320   33.9780   45.7760 H   0  0  0  0  0  0  0  0  0  0  0  0
   46.5260   35.2350   45.1120 H   0  0  0  0  0  0  0  0  0  0  0  0
   45.6010   32.7720   43.5430 H   0  0  0  0  0  0  0  0  0  0  0  0
   48.1600   33.4810   42.2650 C   0  0  0  0  0  0  0  0  0  0  0  0
   48.7860   32.8200   42.8930 H   0  0  0  0  0  0  0  0  0  0  0  0
   48.7830   34.2600   41.7760 H   0  0  0  0  0  0  0  0  0  0  0  0
   47.4400   32.6390   41.2470 C   0  0  0  0  0  0  0  0  0  0  0  0
   46.3490   32.9120   41.2000 H   0  0  0  0  0  0  0  0  0  0  0  0
   47.4860   31.5590   41.4360 H   0  0  0  0  0  0  0  0  0  0  0  0
   49.3360   32.2770   38.0210 C   0  0  0  0  0  0  0  0  0  0  0  0
   48.8110   32.0050   39.2980 C   0  0  0  0  0  0  0  0  0  0  0  0
   47.9910   32.9340   39.8970 C   0  0  0  0  0  0  0  0  0  0  0  0
   47.7290   34.0670   39.2230 N   0  0  0  0  0  0  0  0  0  0  0  0
   48.2340   34.3190   38.0060 C   0  0  0  0  0  0  0  0  0  0  0  0
   49.0430   33.4260   37.3910 N   0  0  0  0  0  0  0  0  0  0  0  0
   49.9830   31.5380   37.5560 H   0  0  0  0  0  0  0  0  0  0  0  0
   49.0580   31.0790   39.7850 H   0  0  0  0  0  0  0  0  0  0  0  0
   47.9760   35.2550   37.5280 H   0  0  0  0  0  0  0  0  0  0  0  0
   47.2220   32.6950   44.8590 O   0  0  0  0  0  0  0  0  0  0  0  0
   46.0300   30.5250   43.8840 O   0  0  0  0  0  0  0  0  0  0  0  0
   46.6770   31.1290   45.1360 P   0  0  2  0  0  0  0  0  0  0  0  0
   45.3950   31.2640   46.2630 O   0  0  0  0  0  0  0  0  0  0  0  0
   45.7660   31.4300   47.1650 H   0  0  0  0  0  0  0  0  0  0  0  0
   47.8340   30.1360   45.7990 O   0  0  0  0  0  0  0  0  0  0  0  0
   48.7950   29.5610   44.9800 C   0  0  0  0  0  0  0  0  0  0  0  0
   49.1730   30.0220   44.0740 H   0  0  0  0  0  0  0  0  0  0  0  0
   49.1590   28.4420   45.4360 O   0  0  0  0  0  0  0  0  0  0  0  0
  1  6  1  0  0  0  0
  2  3  1  0  0  0  0
  2  8  1  0  0  0  0
  2  1  1  0  0  0  0
  3  9  1  0  0  0  0
  3  4  1  0  0  0  0
  4 11  1  0  0  0  0
  4  5  1  0  0  0  0
  5 14  1  0  0  0  0
  5 13  1  0  0  0  0
  6 15  1  6  0  0  0
  6 31  1  0  0  0  0
  6  5  1  0  0  0  0
  7  2  1  0  0  0  0
 10  3  1  0  0  0  0
 12  4  1  0  0  0  0
 16 17  1  0  0  0  0
 16  1  1  0  0  0  0
 18 16  1  0  0  0  0
 19 21  1  0  0  0  0
 19 16  1  0  0  0  0
 20 19  1  0  0  0  0
 22 23  1  0  0  0  0
 23 29  1  0  0  0  0
 23 24  2  0  0  0  0
 24 19  1  0  0  0  0
 25 24  1  0  0  0  0
 26 25  2  0  0  0  0
 27 26  1  0  0  0  0
 27 22  2  0  0  0  0
 28 22  1  0  0  0  0
 30 26  1  0  0  0  0
 31 33  1  0  0  0  0
 33 32  2  6  0  0  0
 33 36  1  0  0  0  0
 33 34  1  0  0  0  0
 34 35  1  0  0  0  0
 37 39  2  0  0  0  0
 37 36  1  0  0  0  0
 38 37  1  0  0  0  0
M  END
>  <minimizedAffinity>
-3.58857536

>  <minimizedRMSD>
0.0595039017

$$$$
