
 OpenBabel03252503013D

 24 24  0  0  0  0  0  0  0  0999 V2000
   38.3960   29.5240   41.1450 C   0  0  0  0  0  0  0  0  0  0  0  0
   39.3620   29.2850   40.6600 H   0  0  0  0  0  0  0  0  0  0  0  0
   37.5670   29.0310   40.6030 H   0  0  0  0  0  0  0  0  0  0  0  0
   38.2590   30.9770   41.1350 N   0  0  0  0  0  0  0  0  0  0  0  0
   38.4380   31.3810   42.0730 H   0  0  0  0  0  0  0  0  0  0  0  0
   36.7420   31.4770   40.4950 S   0  0  0  0  0  0  0  0  0  0  0  0
   35.6110   31.0860   41.3790 O   0  0  0  0  0  0  0  0  0  0  0  0
   35.1780   31.6450   42.0760 H   0  0  0  0  0  0  0  0  0  0  0  0
   36.8130   32.9850   40.3660 O   0  0  0  0  0  0  0  0  0  0  0  0
   35.9730   33.5310   40.3700 H   0  0  0  0  0  0  0  0  0  0  0  0
   36.5830   30.8730   38.9460 O   0  0  0  0  0  0  0  0  0  0  0  0
   37.4700   31.2650   37.9480 C   0  0  0  0  0  0  0  0  0  0  0  0
   37.1940   30.9860   36.9340 H   0  0  0  0  0  0  0  0  0  0  0  0
   38.5140   31.9090   38.2770 O   0  0  0  0  0  0  0  0  0  0  0  0
   38.4920   29.0220   42.8740 S   0  0  0  0  0  0  0  0  0  0  0  0
   38.1790   26.3610   42.2300 C   0  0  0  0  0  0  0  0  0  0  0  0
   38.9480   27.2730   42.9350 C   0  0  0  0  0  0  0  0  0  0  0  0
   40.0540   26.8550   43.6790 C   0  0  0  0  0  0  0  0  0  0  0  0
   40.2980   25.5220   43.6500 N   0  0  0  0  0  0  0  0  0  0  0  0
   39.5540   24.6640   42.9710 C   0  0  0  0  0  0  0  0  0  0  0  0
   38.4950   25.0300   42.2530 N   0  0  0  0  0  0  0  0  0  0  0  0
   37.3190   26.7360   41.6590 H   0  0  0  0  0  0  0  0  0  0  0  0
   40.6450   27.5750   44.2230 H   0  0  0  0  0  0  0  0  0  0  0  0
   39.9040   23.6430   43.0680 H   0  0  0  0  0  0  0  0  0  0  0  0
  1 15  1  0  0  0  0
  2  1  1  0  0  0  0
  3  1  1  0  0  0  0
  4  1  1  0  0  0  0
  4  5  1  0  0  0  0
  6  4  1  0  0  0  0
  6  7  1  0  0  0  0
  7  8  1  0  0  0  0
  9 10  1  0  0  0  0
  9  6  1  0  0  0  0
 11  6  1  0  0  0  0
 12 14  2  0  0  0  0
 12 11  1  0  0  0  0
 13 12  1  0  0  0  0
 15 17  1  0  0  0  0
 16 21  2  0  0  0  0
 16 17  1  0  0  0  0
 17 18  2  0  0  0  0
 18 23  1  0  0  0  0
 19 18  1  0  0  0  0
 20 24  1  0  0  0  0
 20 19  2  0  0  0  0
 21 20  1  0  0  0  0
 22 16  1  0  0  0  0
M  END
>  <minimizedAffinity>
-4.31661081

$$$$

 OpenBabel03252503013D

 24 24  0  0  0  0  0  0  0  0999 V2000
   37.9640   29.7980   38.8230 C   0  0  0  0  0  0  0  0  0  0  0  0
   38.7170   30.1760   39.5410 H   0  0  0  0  0  0  0  0  0  0  0  0
   38.3320   29.9240   37.7870 H   0  0  0  0  0  0  0  0  0  0  0  0
   36.7350   30.5490   39.0550 N   0  0  0  0  0  0  0  0  0  0  0  0
   36.4480   31.0760   38.2100 H   0  0  0  0  0  0  0  0  0  0  0  0
   36.8500   31.5620   40.4410 S   0  0  0  0  0  0  0  0  0  0  0  0
   36.7050   33.0000   40.0910 O   0  0  0  0  0  0  0  0  0  0  0  0
   35.8720   33.5400   40.1180 H   0  0  0  0  0  0  0  0  0  0  0  0
   35.7350   31.1320   41.3730 O   0  0  0  0  0  0  0  0  0  0  0  0
   35.3680   31.7740   42.0480 H   0  0  0  0  0  0  0  0  0  0  0  0
   38.2840   31.2350   41.2320 O   0  0  0  0  0  0  0  0  0  0  0  0
   39.2910   32.1930   41.2790 C   0  0  0  0  0  0  0  0  0  0  0  0
   39.6910   32.4100   42.2670 H   0  0  0  0  0  0  0  0  0  0  0  0
   39.6690   32.7360   40.1960 O   0  0  0  0  0  0  0  0  0  0  0  0
   37.6090   28.0780   39.2300 S   0  0  0  0  0  0  0  0  0  0  0  0
   36.6100   27.8090   41.7840 C   0  0  0  0  0  0  0  0  0  0  0  0
   37.7650   27.8710   41.0200 C   0  0  0  0  0  0  0  0  0  0  0  0
   39.0250   27.7760   41.6150 C   0  0  0  0  0  0  0  0  0  0  0  0
   39.0160   27.6230   42.9630 N   0  0  0  0  0  0  0  0  0  0  0  0
   37.9040   27.5660   43.6780 C   0  0  0  0  0  0  0  0  0  0  0  0
   36.6890   27.6530   43.1410 N   0  0  0  0  0  0  0  0  0  0  0  0
   35.6420   27.8880   41.2720 H   0  0  0  0  0  0  0  0  0  0  0  0
   39.9160   27.8260   41.0090 H   0  0  0  0  0  0  0  0  0  0  0  0
   38.0970   27.4410   44.7360 H   0  0  0  0  0  0  0  0  0  0  0  0
  1  4  1  0  0  0  0
  1 15  1  0  0  0  0
  1  2  1  0  0  0  0
  3  1  1  0  0  0  0
  4  6  1  0  0  0  0
  5  4  1  0  0  0  0
  6 11  1  0  0  0  0
  6  9  1  0  0  0  0
  7  8  1  0  0  0  0
  7  6  1  0  0  0  0
  9 10  1  0  0  0  0
 11 12  1  0  0  0  0
 12 13  1  0  0  0  0
 14 12  2  0  0  0  0
 15 17  1  0  0  0  0
 16 21  1  0  0  0  0
 17 18  1  0  0  0  0
 17 16  2  0  0  0  0
 18 19  2  0  0  0  0
 19 20  1  0  0  0  0
 20 24  1  0  0  0  0
 21 20  2  0  0  0  0
 22 16  1  0  0  0  0
 23 18  1  0  0  0  0
M  END
>  <minimizedAffinity>
-4.08198071

$$$$

 OpenBabel03252503013D

 24 24  0  0  0  0  0  0  0  0999 V2000
   37.6560   29.4050   42.2470 C   0  0  0  0  0  0  0  0  0  0  0  0
   37.0200   30.2280   42.6280 H   0  0  0  0  0  0  0  0  0  0  0  0
   38.7020   29.5520   42.5760 H   0  0  0  0  0  0  0  0  0  0  0  0
   37.5400   29.4130   40.7920 N   0  0  0  0  0  0  0  0  0  0  0  0
   38.4100   29.7590   40.3460 H   0  0  0  0  0  0  0  0  0  0  0  0
   36.1520   30.2780   40.2600 S   0  0  0  0  0  0  0  0  0  0  0  0
   35.0810   29.3650   39.7770 O   0  0  0  0  0  0  0  0  0  0  0  0
   34.3120   29.0180   40.3010 H   0  0  0  0  0  0  0  0  0  0  0  0
   35.6660   31.0740   41.4550 O   0  0  0  0  0  0  0  0  0  0  0  0
   34.7070   31.3560   41.5150 H   0  0  0  0  0  0  0  0  0  0  0  0
   36.6170   31.3890   39.1040 O   0  0  0  0  0  0  0  0  0  0  0  0
   37.1820   32.6020   39.4870 C   0  0  0  0  0  0  0  0  0  0  0  0
   36.9550   33.4510   38.8470 H   0  0  0  0  0  0  0  0  0  0  0  0
   37.9030   32.6370   40.5300 O   0  0  0  0  0  0  0  0  0  0  0  0
   36.9610   27.8430   42.8170 S   0  0  0  0  0  0  0  0  0  0  0  0
   38.1620   25.4430   42.1900 C   0  0  0  0  0  0  0  0  0  0  0  0
   38.2930   26.6240   42.9040 C   0  0  0  0  0  0  0  0  0  0  0  0
   39.4300   26.8710   43.6780 C   0  0  0  0  0  0  0  0  0  0  0  0
   40.3620   25.8850   43.6660 N   0  0  0  0  0  0  0  0  0  0  0  0
   40.2200   24.7630   42.9770 C   0  0  0  0  0  0  0  0  0  0  0  0
   39.1500   24.4980   42.2320 N   0  0  0  0  0  0  0  0  0  0  0  0
   37.2500   25.2930   41.5960 H   0  0  0  0  0  0  0  0  0  0  0  0
   39.5210   27.7930   44.2290 H   0  0  0  0  0  0  0  0  0  0  0  0
   41.0670   24.0970   43.0910 H   0  0  0  0  0  0  0  0  0  0  0  0
  1  3  1  0  0  0  0
  1  2  1  0  0  0  0
  1 15  1  0  0  0  0
  4  1  1  0  0  0  0
  5  4  1  0  0  0  0
  6  4  1  0  0  0  0
  6  9  1  0  0  0  0
  7  6  1  0  0  0  0
  7  8  1  0  0  0  0
  9 10  1  0  0  0  0
 11 12  1  0  0  0  0
 11  6  1  0  0  0  0
 12 14  2  0  0  0  0
 13 12  1  0  0  0  0
 15 17  1  0  0  0  0
 16 21  2  0  0  0  0
 16 17  1  0  0  0  0
 17 18  2  0  0  0  0
 18 23  1  0  0  0  0
 19 18  1  0  0  0  0
 20 24  1  0  0  0  0
 20 19  2  0  0  0  0
 21 20  1  0  0  0  0
 22 16  1  0  0  0  0
M  END
>  <minimizedAffinity>
-4.03117275

$$$$

 OpenBabel03252503013D

 24 24  0  0  0  0  0  0  0  0999 V2000
   36.8220   27.9310   43.2520 C   0  0  0  0  0  0  0  0  0  0  0  0
   36.1960   27.5260   42.4330 H   0  0  0  0  0  0  0  0  0  0  0  0
   36.3240   27.7640   44.2260 H   0  0  0  0  0  0  0  0  0  0  0  0
   37.0180   29.3510   42.9810 N   0  0  0  0  0  0  0  0  0  0  0  0
   36.5590   29.9400   43.7010 H   0  0  0  0  0  0  0  0  0  0  0  0
   36.5280   29.7780   41.3880 S   0  0  0  0  0  0  0  0  0  0  0  0
   35.6360   30.9680   41.3820 O   0  0  0  0  0  0  0  0  0  0  0  0
   35.9050   31.9140   41.2460 H   0  0  0  0  0  0  0  0  0  0  0  0
   37.7990   30.0680   40.6180 O   0  0  0  0  0  0  0  0  0  0  0  0
   37.7760   30.6680   39.8160 H   0  0  0  0  0  0  0  0  0  0  0  0
   35.8250   28.4460   40.6640 O   0  0  0  0  0  0  0  0  0  0  0  0
   35.5770   28.4440   39.2960 C   0  0  0  0  0  0  0  0  0  0  0  0
   35.3940   27.4690   38.8510 H   0  0  0  0  0  0  0  0  0  0  0  0
   35.5780   29.5490   38.6730 O   0  0  0  0  0  0  0  0  0  0  0  0
   38.4460   27.1530   43.1590 S   0  0  0  0  0  0  0  0  0  0  0  0
   37.0800   25.0310   42.0510 C   0  0  0  0  0  0  0  0  0  0  0  0
   38.3090   25.6660   42.1390 C   0  0  0  0  0  0  0  0  0  0  0  0
   39.4220   25.1710   41.4550 C   0  0  0  0  0  0  0  0  0  0  0  0
   39.1980   24.0520   40.7220 N   0  0  0  0  0  0  0  0  0  0  0  0
   38.0170   23.4580   40.6490 C   0  0  0  0  0  0  0  0  0  0  0  0
   36.9390   23.9050   41.2880 N   0  0  0  0  0  0  0  0  0  0  0  0
   36.2330   25.4570   42.6060 H   0  0  0  0  0  0  0  0  0  0  0  0
   40.3730   25.6740   41.5310 H   0  0  0  0  0  0  0  0  0  0  0  0
   38.0340   22.5790   40.0160 H   0  0  0  0  0  0  0  0  0  0  0  0
  1  3  1  0  0  0  0
  2  1  1  0  0  0  0
  4  1  1  0  0  0  0
  4  5  1  0  0  0  0
  6  4  1  0  0  0  0
  7  6  1  0  0  0  0
  8  7  1  0  0  0  0
  9  6  1  0  0  0  0
 10  9  1  0  0  0  0
 11  6  1  0  0  0  0
 12 11  1  0  0  0  0
 13 12  1  0  0  0  0
 14 12  2  0  0  0  0
 15  1  1  0  0  0  0
 16 17  1  0  0  0  0
 16 22  1  0  0  0  0
 17 15  1  0  0  0  0
 18 23  1  0  0  0  0
 18 17  2  0  0  0  0
 19 18  1  0  0  0  0
 20 19  2  0  0  0  0
 20 21  1  0  0  0  0
 21 16  2  0  0  0  0
 24 20  1  0  0  0  0
M  END
>  <minimizedAffinity>
-3.94819069

$$$$

 OpenBabel03252503013D

 24 24  0  0  0  0  0  0  0  0999 V2000
   36.8340   31.2860   39.7550 C   0  0  0  0  0  0  0  0  0  0  0  0
   37.8380   30.9170   39.4710 H   0  0  0  0  0  0  0  0  0  0  0  0
   36.1750   31.3150   38.8660 H   0  0  0  0  0  0  0  0  0  0  0  0
   37.0130   32.6110   40.3390 N   0  0  0  0  0  0  0  0  0  0  0  0
   36.4800   33.3300   39.8150 H   0  0  0  0  0  0  0  0  0  0  0  0
   38.6750   33.0260   40.4970 S   0  0  0  0  0  0  0  0  0  0  0  0
   39.2620   33.4690   39.2030 O   0  0  0  0  0  0  0  0  0  0  0  0
   39.3540   34.4030   38.8780 H   0  0  0  0  0  0  0  0  0  0  0  0
   38.7370   34.1480   41.5140 O   0  0  0  0  0  0  0  0  0  0  0  0
   39.5060   34.7890   41.5100 H   0  0  0  0  0  0  0  0  0  0  0  0
   39.4940   31.7330   41.1640 O   0  0  0  0  0  0  0  0  0  0  0  0
   40.5140   31.1090   40.4530 C   0  0  0  0  0  0  0  0  0  0  0  0
   41.4710   31.0360   40.9650 H   0  0  0  0  0  0  0  0  0  0  0  0
   40.2680   30.6740   39.2860 O   0  0  0  0  0  0  0  0  0  0  0  0
   36.1900   30.2240   41.0620 S   0  0  0  0  0  0  0  0  0  0  0  0
   37.8990   29.0040   42.8470 C   0  0  0  0  0  0  0  0  0  0  0  0
   37.4810   29.0450   41.5260 C   0  0  0  0  0  0  0  0  0  0  0  0
   38.0420   28.1960   40.5690 C   0  0  0  0  0  0  0  0  0  0  0  0
   39.0000   27.3560   41.0350 N   0  0  0  0  0  0  0  0  0  0  0  0
   39.3880   27.3290   42.3000 C   0  0  0  0  0  0  0  0  0  0  0  0
   38.8730   28.1250   43.2340 N   0  0  0  0  0  0  0  0  0  0  0  0
   37.4290   29.6900   43.5640 H   0  0  0  0  0  0  0  0  0  0  0  0
   37.7080   28.2370   39.5450 H   0  0  0  0  0  0  0  0  0  0  0  0
   40.1620   26.5930   42.4810 H   0  0  0  0  0  0  0  0  0  0  0  0
  1  4  1  0  0  0  0
  1 15  1  0  0  0  0
  2  1  1  0  0  0  0
  3  1  1  0  0  0  0
  4  6  1  0  0  0  0
  5  4  1  0  0  0  0
  6 11  1  0  0  0  0
  6  9  1  0  0  0  0
  7  6  1  0  0  0  0
  8  7  1  0  0  0  0
 10  9  1  0  0  0  0
 12 13  1  0  0  0  0
 12 11  1  0  0  0  0
 14 12  2  0  0  0  0
 15 17  1  0  0  0  0
 16 21  1  0  0  0  0
 16 22  1  0  0  0  0
 17 16  2  0  0  0  0
 18 19  2  0  0  0  0
 18 17  1  0  0  0  0
 19 20  1  0  0  0  0
 20 24  1  0  0  0  0
 20 21  2  0  0  0  0
 23 18  1  0  0  0  0
M  END
>  <minimizedAffinity>
-3.92476964

$$$$

 OpenBabel03252503013D

 24 24  0  0  0  0  0  0  0  0999 V2000
   37.6530   31.2440   39.8030 C   0  0  0  0  0  0  0  0  0  0  0  0
   38.0150   30.3410   39.2750 H   0  0  0  0  0  0  0  0  0  0  0  0
   37.2550   31.9750   39.0730 H   0  0  0  0  0  0  0  0  0  0  0  0
   38.7820   31.7880   40.5500 N   0  0  0  0  0  0  0  0  0  0  0  0
   38.7050   31.5730   41.5610 H   0  0  0  0  0  0  0  0  0  0  0  0
   38.9980   33.4700   40.2600 S   0  0  0  0  0  0  0  0  0  0  0  0
   38.0490   33.9820   39.2350 O   0  0  0  0  0  0  0  0  0  0  0  0
   37.1700   34.4140   39.3990 H   0  0  0  0  0  0  0  0  0  0  0  0
   38.7630   34.1610   41.5870 O   0  0  0  0  0  0  0  0  0  0  0  0
   38.4750   35.1200   41.6120 H   0  0  0  0  0  0  0  0  0  0  0  0
   40.5940   33.7480   39.8540 O   0  0  0  0  0  0  0  0  0  0  0  0
   41.0590   33.4260   38.5830 C   0  0  0  0  0  0  0  0  0  0  0  0
   41.9390   33.9700   38.2500 H   0  0  0  0  0  0  0  0  0  0  0  0
   40.4440   32.5400   37.9140 O   0  0  0  0  0  0  0  0  0  0  0  0
   36.4220   30.7340   41.0170 S   0  0  0  0  0  0  0  0  0  0  0  0
   36.6250   27.9870   41.1180 C   0  0  0  0  0  0  0  0  0  0  0  0
   36.9610   29.1720   41.7530 C   0  0  0  0  0  0  0  0  0  0  0  0
   37.7010   29.1660   42.9380 C   0  0  0  0  0  0  0  0  0  0  0  0
   38.0480   27.9370   43.3950 N   0  0  0  0  0  0  0  0  0  0  0  0
   37.7190   26.8150   42.7760 C   0  0  0  0  0  0  0  0  0  0  0  0
   37.0160   26.7870   41.6460 N   0  0  0  0  0  0  0  0  0  0  0  0
   36.0420   28.0420   40.1890 H   0  0  0  0  0  0  0  0  0  0  0  0
   37.9560   30.0950   43.4230 H   0  0  0  0  0  0  0  0  0  0  0  0
   38.0860   25.9340   43.2900 H   0  0  0  0  0  0  0  0  0  0  0  0
  1  4  1  0  0  0  0
  1 15  1  0  0  0  0
  2  1  1  0  0  0  0
  3  1  1  0  0  0  0
  4  5  1  0  0  0  0
  6  4  1  0  0  0  0
  6  9  1  0  0  0  0
  7  8  1  0  0  0  0
  7  6  1  0  0  0  0
  9 10  1  0  0  0  0
 11  6  1  0  0  0  0
 12 11  1  0  0  0  0
 13 12  1  0  0  0  0
 14 12  2  0  0  0  0
 15 17  1  0  0  0  0
 16 21  2  0  0  0  0
 16 17  1  0  0  0  0
 17 18  2  0  0  0  0
 18 19  1  0  0  0  0
 18 23  1  0  0  0  0
 20 24  1  0  0  0  0
 20 19  2  0  0  0  0
 21 20  1  0  0  0  0
 22 16  1  0  0  0  0
M  END
>  <minimizedAffinity>
-3.92040658

$$$$

 OpenBabel03252503013D

 24 24  0  0  0  0  0  0  0  0999 V2000
   38.1180   33.0700   39.4620 C   0  0  0  0  0  0  0  0  0  0  0  0
   37.7890   33.7340   38.6400 H   0  0  0  0  0  0  0  0  0  0  0  0
   38.5370   32.1330   39.0470 H   0  0  0  0  0  0  0  0  0  0  0  0
   36.9520   32.8150   40.3010 N   0  0  0  0  0  0  0  0  0  0  0  0
   36.9440   33.4310   41.1350 H   0  0  0  0  0  0  0  0  0  0  0  0
   36.8130   31.1530   40.7240 S   0  0  0  0  0  0  0  0  0  0  0  0
   35.5600   30.8750   41.4760 O   0  0  0  0  0  0  0  0  0  0  0  0
   34.6970   30.5570   41.1000 H   0  0  0  0  0  0  0  0  0  0  0  0
   36.8280   30.3820   39.4200 O   0  0  0  0  0  0  0  0  0  0  0  0
   36.4070   29.4750   39.3670 H   0  0  0  0  0  0  0  0  0  0  0  0
   38.1810   30.6930   41.5650 O   0  0  0  0  0  0  0  0  0  0  0  0
   38.2540   29.4320   42.1460 C   0  0  0  0  0  0  0  0  0  0  0  0
   39.0930   29.2690   42.8190 H   0  0  0  0  0  0  0  0  0  0  0  0
   37.3600   28.5760   41.8630 O   0  0  0  0  0  0  0  0  0  0  0  0
   39.3040   33.9720   40.4770 S   0  0  0  0  0  0  0  0  0  0  0  0
   41.8530   32.9830   40.8180 C   0  0  0  0  0  0  0  0  0  0  0  0
   40.9710   33.5530   39.9140 C   0  0  0  0  0  0  0  0  0  0  0  0
   41.3570   33.8020   38.5950 C   0  0  0  0  0  0  0  0  0  0  0  0
   42.6300   33.4470   38.2900 N   0  0  0  0  0  0  0  0  0  0  0  0
   43.4600   32.9020   39.1650 C   0  0  0  0  0  0  0  0  0  0  0  0
   43.1220   32.6520   40.4280 N   0  0  0  0  0  0  0  0  0  0  0  0
   41.5050   32.8050   41.8450 H   0  0  0  0  0  0  0  0  0  0  0  0
   40.6610   34.2470   37.9010 H   0  0  0  0  0  0  0  0  0  0  0  0
   44.4310   32.6860   38.7370 H   0  0  0  0  0  0  0  0  0  0  0  0
  1  4  1  0  0  0  0
  1 15  1  0  0  0  0
  2  1  1  0  0  0  0
  3  1  1  0  0  0  0
  4  6  1  0  0  0  0
  4  5  1  0  0  0  0
  6  7  1  0  0  0  0
  6 11  1  0  0  0  0
  8  7  1  0  0  0  0
  9  6  1  0  0  0  0
 10  9  1  0  0  0  0
 11 12  1  0  0  0  0
 12 13  1  0  0  0  0
 14 12  2  0  0  0  0
 16 22  1  0  0  0  0
 17 15  1  0  0  0  0
 17 16  2  0  0  0  0
 18 17  1  0  0  0  0
 19 18  2  0  0  0  0
 19 20  1  0  0  0  0
 20 21  2  0  0  0  0
 21 16  1  0  0  0  0
 23 18  1  0  0  0  0
 24 20  1  0  0  0  0
M  END
>  <minimizedAffinity>
-3.88833332

$$$$

 OpenBabel03252503013D

 24 24  0  0  0  0  0  0  0  0999 V2000
   39.1660   29.3520   38.6680 C   0  0  0  0  0  0  0  0  0  0  0  0
   39.5980   30.0510   39.4090 H   0  0  0  0  0  0  0  0  0  0  0  0
   39.8120   28.4590   38.5690 H   0  0  0  0  0  0  0  0  0  0  0  0
   39.0530   30.0780   37.4070 N   0  0  0  0  0  0  0  0  0  0  0  0
   39.7700   29.7670   36.7260 H   0  0  0  0  0  0  0  0  0  0  0  0
   39.0790   31.7820   37.6410 S   0  0  0  0  0  0  0  0  0  0  0  0
   40.0880   32.4460   36.7720 O   0  0  0  0  0  0  0  0  0  0  0  0
   39.9310   32.8580   35.8820 H   0  0  0  0  0  0  0  0  0  0  0  0
   37.6870   32.2770   37.3030 O   0  0  0  0  0  0  0  0  0  0  0  0
   37.5470   33.2250   37.0120 H   0  0  0  0  0  0  0  0  0  0  0  0
   39.3180   32.1020   39.2620 O   0  0  0  0  0  0  0  0  0  0  0  0
   38.4280   32.9180   39.9530 C   0  0  0  0  0  0  0  0  0  0  0  0
   38.8200   33.8810   40.2700 H   0  0  0  0  0  0  0  0  0  0  0  0
   37.2490   32.4970   40.1610 O   0  0  0  0  0  0  0  0  0  0  0  0
   37.4890   28.9430   39.1860 S   0  0  0  0  0  0  0  0  0  0  0  0
   38.3430   29.5230   41.7420 C   0  0  0  0  0  0  0  0  0  0  0  0
   37.4800   28.7470   40.9840 C   0  0  0  0  0  0  0  0  0  0  0  0
   36.6180   27.8310   41.5920 C   0  0  0  0  0  0  0  0  0  0  0  0
   36.7000   27.7710   42.9450 N   0  0  0  0  0  0  0  0  0  0  0  0
   37.5310   28.5200   43.6530 C   0  0  0  0  0  0  0  0  0  0  0  0
   38.3630   29.4010   43.1040 N   0  0  0  0  0  0  0  0  0  0  0  0
   39.0020   30.2300   41.2200 H   0  0  0  0  0  0  0  0  0  0  0  0
   35.9510   27.2330   40.9920 H   0  0  0  0  0  0  0  0  0  0  0  0
   37.4530   28.3320   44.7180 H   0  0  0  0  0  0  0  0  0  0  0  0
  1 15  1  0  0  0  0
  1  2  1  0  0  0  0
  3  1  1  0  0  0  0
  4  6  1  0  0  0  0
  4  1  1  0  0  0  0
  5  4  1  0  0  0  0
  6 11  1  0  0  0  0
  7  6  1  0  0  0  0
  8  7  1  0  0  0  0
  9  6  1  0  0  0  0
 10  9  1  0  0  0  0
 11 12  1  0  0  0  0
 12 14  2  0  0  0  0
 12 13  1  0  0  0  0
 15 17  1  0  0  0  0
 16 21  1  0  0  0  0
 17 18  1  0  0  0  0
 17 16  2  0  0  0  0
 18 19  2  0  0  0  0
 19 20  1  0  0  0  0
 20 24  1  0  0  0  0
 21 20  2  0  0  0  0
 22 16  1  0  0  0  0
 23 18  1  0  0  0  0
M  END
>  <minimizedAffinity>
-3.82268572

$$$$

 OpenBabel03252503013D

 24 24  0  0  0  0  0  0  0  0999 V2000
   38.4540   28.8430   42.8340 C   0  0  0  0  0  0  0  0  0  0  0  0
   39.2430   29.3300   43.4390 H   0  0  0  0  0  0  0  0  0  0  0  0
   38.8070   28.7030   41.7950 H   0  0  0  0  0  0  0  0  0  0  0  0
   37.2760   29.7030   42.8930 N   0  0  0  0  0  0  0  0  0  0  0  0
   36.6540   29.4380   43.6800 H   0  0  0  0  0  0  0  0  0  0  0  0
   36.4360   29.7500   41.3930 S   0  0  0  0  0  0  0  0  0  0  0  0
   35.5020   28.6010   41.2430 O   0  0  0  0  0  0  0  0  0  0  0  0
   34.5330   28.5890   41.4590 H   0  0  0  0  0  0  0  0  0  0  0  0
   35.6700   31.0570   41.3780 O   0  0  0  0  0  0  0  0  0  0  0  0
   34.8510   31.1530   40.8110 H   0  0  0  0  0  0  0  0  0  0  0  0
   37.5510   29.8360   40.1520 O   0  0  0  0  0  0  0  0  0  0  0  0
   38.2050   31.0330   39.8810 C   0  0  0  0  0  0  0  0  0  0  0  0
   38.4660   31.2030   38.8390 H   0  0  0  0  0  0  0  0  0  0  0  0
   38.4450   31.8290   40.8400 O   0  0  0  0  0  0  0  0  0  0  0  0
   38.0070   27.2900   43.6320 S   0  0  0  0  0  0  0  0  0  0  0  0
   39.3360   25.8060   41.7260 C   0  0  0  0  0  0  0  0  0  0  0  0
   38.1400   25.9630   42.4110 C   0  0  0  0  0  0  0  0  0  0  0  0
   37.0570   25.1150   42.1650 C   0  0  0  0  0  0  0  0  0  0  0  0
   37.2750   24.1570   41.2290 N   0  0  0  0  0  0  0  0  0  0  0  0
   38.4230   24.0220   40.5850 C   0  0  0  0  0  0  0  0  0  0  0  0
   39.4720   24.8130   40.7960 N   0  0  0  0  0  0  0  0  0  0  0  0
   40.1590   26.4970   41.9530 H   0  0  0  0  0  0  0  0  0  0  0  0
   36.1320   25.2460   42.7040 H   0  0  0  0  0  0  0  0  0  0  0  0
   38.4070   23.2020   39.8770 H   0  0  0  0  0  0  0  0  0  0  0  0
  1  4  1  0  0  0  0
  1  2  1  0  0  0  0
  1 15  1  0  0  0  0
  3  1  1  0  0  0  0
  4  5  1  0  0  0  0
  6  4  1  0  0  0  0
  7  6  1  0  0  0  0
  7  8  1  0  0  0  0
  9  6  1  0  0  0  0
 10  9  1  0  0  0  0
 11  6  1  0  0  0  0
 12 11  1  0  0  0  0
 12 14  2  0  0  0  0
 13 12  1  0  0  0  0
 16 22  1  0  0  0  0
 16 17  1  0  0  0  0
 17 15  1  0  0  0  0
 18 17  2  0  0  0  0
 18 23  1  0  0  0  0
 19 18  1  0  0  0  0
 20 21  1  0  0  0  0
 20 19  2  0  0  0  0
 21 16  2  0  0  0  0
 24 20  1  0  0  0  0
M  END
>  <minimizedAffinity>
-3.79666066

$$$$
