
 OpenBabel03242519393D

 21 21  0  0  0  0  0  0  0  0999 V2000
   39.4390   27.4850   41.0220 O   0  0  0  0  0  0  0  0  0  0  0  0
   39.2940   27.3330   42.5430 P   0  0  2  0  0  0  0  0  0  0  0  0
   38.4010   28.6720   43.1480 O   0  0  0  0  0  0  0  0  0  0  0  0
   38.8560   31.7230   41.1810 C   0  0  0  0  0  0  0  0  0  0  0  0
   39.1500   30.6420   42.0460 C   0  0  0  0  0  0  0  0  0  0  0  0
   38.1150   29.7340   42.3000 C   0  0  0  0  0  0  0  0  0  0  0  0
   36.9100   29.9340   41.7150 N   0  0  0  0  0  0  0  0  0  0  0  0
   36.6640   30.9770   40.8940 C   0  0  0  0  0  0  0  0  0  0  0  0
   37.6280   31.8730   40.6230 N   0  0  0  0  0  0  0  0  0  0  0  0
   39.5920   32.4720   40.9280 H   0  0  0  0  0  0  0  0  0  0  0  0
   40.1400   30.5670   42.4640 H   0  0  0  0  0  0  0  0  0  0  0  0
   35.6550   31.0180   40.4930 H   0  0  0  0  0  0  0  0  0  0  0  0
   40.7590   27.2450   43.3190 O   0  0  0  0  0  0  0  0  0  0  0  0
   41.3340   26.0300   43.6790 C   0  0  0  0  0  0  0  0  0  0  0  0
   41.6540   25.6880   44.6540 H   0  0  0  0  0  0  0  0  0  0  0  0
   41.6020   25.0510   42.9040 O   0  0  0  0  0  0  0  0  0  0  0  0
   38.3660   25.9510   42.8120 O   0  0  0  0  0  0  0  0  0  0  0  0
   37.0230   26.1480   42.5290 C   0  0  0  0  0  0  0  0  0  0  0  0
   36.3570   26.8710   43.5070 F   0  0  0  0  0  0  0  0  0  0  0  0
   36.8800   26.6860   41.2790 F   0  0  0  0  0  0  0  0  0  0  0  0
   36.4380   24.8760   42.5270 F   0  0  0  0  0  0  0  0  0  0  0  0
  2  1  2  6  0  0  0
  2 17  1  0  0  0  0
  2  3  1  0  0  0  0
  2 13  1  0  0  0  0
  4  5  1  0  0  0  0
  5  6  2  0  0  0  0
  5 11  1  0  0  0  0
  6  3  1  0  0  0  0
  7  6  1  0  0  0  0
  8  7  2  0  0  0  0
  9  8  1  0  0  0  0
  9  4  2  0  0  0  0
 10  4  1  0  0  0  0
 12  8  1  0  0  0  0
 13 14  1  0  0  0  0
 14 15  1  0  0  0  0
 16 14  2  0  0  0  0
 18 17  1  0  0  0  0
 18 19  1  0  0  0  0
 20 18  1  0  0  0  0
 21 18  1  0  0  0  0
M  END
>  <minimizedAffinity>
-4.08503246

$$$$

 OpenBabel03242519393D

 21 21  0  0  0  0  0  0  0  0999 V2000
   36.5540   31.2680   40.8230 O   0  0  0  0  0  0  0  0  0  0  0  0
   38.0620   31.4440   40.5910 P   0  0  2  0  0  0  0  0  0  0  0  0
   38.9050   30.3180   41.5800 O   0  0  0  0  0  0  0  0  0  0  0  0
   37.3490   27.7560   43.6780 C   0  0  0  0  0  0  0  0  0  0  0  0
   37.9910   28.9620   43.3070 C   0  0  0  0  0  0  0  0  0  0  0  0
   38.2770   29.1350   41.9470 C   0  0  0  0  0  0  0  0  0  0  0  0
   37.9320   28.1580   41.0760 N   0  0  0  0  0  0  0  0  0  0  0  0
   37.3200   27.0180   41.4650 C   0  0  0  0  0  0  0  0  0  0  0  0
   37.0270   26.8100   42.7590 N   0  0  0  0  0  0  0  0  0  0  0  0
   37.0900   27.5360   44.7030 H   0  0  0  0  0  0  0  0  0  0  0  0
   38.2250   29.6800   44.0740 H   0  0  0  0  0  0  0  0  0  0  0  0
   37.1000   26.3190   40.6620 H   0  0  0  0  0  0  0  0  0  0  0  0
   38.5870   32.9820   40.9280 O   0  0  0  0  0  0  0  0  0  0  0  0
   39.8570   33.4240   40.5720 C   0  0  0  0  0  0  0  0  0  0  0  0
   40.1750   34.4120   40.2670 H   0  0  0  0  0  0  0  0  0  0  0  0
   40.9270   32.7290   40.5360 O   0  0  0  0  0  0  0  0  0  0  0  0
   38.3650   31.0230   38.9860 O   0  0  0  0  0  0  0  0  0  0  0  0
   37.3900   31.4940   38.1190 C   0  0  0  0  0  0  0  0  0  0  0  0
   36.3230   30.6200   37.9690 F   0  0  0  0  0  0  0  0  0  0  0  0
   36.9990   32.7520   38.4890 F   0  0  0  0  0  0  0  0  0  0  0  0
   37.9990   31.5760   36.8620 F   0  0  0  0  0  0  0  0  0  0  0  0
  2  1  2  1  0  0  0
  2 13  1  0  0  0  0
  2  3  1  0  0  0  0
  3  6  1  0  0  0  0
  4 10  1  0  0  0  0
  5  4  1  0  0  0  0
  5 11  1  0  0  0  0
  6  5  2  0  0  0  0
  7  8  2  0  0  0  0
  7  6  1  0  0  0  0
  8  9  1  0  0  0  0
  9  4  2  0  0  0  0
 12  8  1  0  0  0  0
 14 13  1  0  0  0  0
 15 14  1  0  0  0  0
 16 14  2  0  0  0  0
 17  2  1  0  0  0  0
 18 20  1  0  0  0  0
 18 17  1  0  0  0  0
 19 18  1  0  0  0  0
 21 18  1  0  0  0  0
M  END
>  <minimizedAffinity>
-4.01151228

$$$$

 OpenBabel03242519393D

 21 21  0  0  0  0  0  0  0  0999 V2000
   38.3610   30.1610   39.9230 O   0  0  0  0  0  0  0  0  0  0  0  0
   37.0260   30.6000   40.5410 P   0  0  2  0  0  0  0  0  0  0  0  0
   36.9540   30.0260   42.1600 O   0  0  0  0  0  0  0  0  0  0  0  0
   37.4100   26.4170   42.5520 C   0  0  0  0  0  0  0  0  0  0  0  0
   36.8000   27.6540   42.2310 C   0  0  0  0  0  0  0  0  0  0  0  0
   37.5490   28.8120   42.4750 C   0  0  0  0  0  0  0  0  0  0  0  0
   38.7930   28.6890   42.9960 N   0  0  0  0  0  0  0  0  0  0  0  0
   39.3440   27.4920   43.2920 C   0  0  0  0  0  0  0  0  0  0  0  0
   38.6620   26.3560   43.0730 N   0  0  0  0  0  0  0  0  0  0  0  0
   36.9090   25.4730   42.3980 H   0  0  0  0  0  0  0  0  0  0  0  0
   35.8050   27.6490   41.8190 H   0  0  0  0  0  0  0  0  0  0  0  0
   40.3480   27.5390   43.7040 H   0  0  0  0  0  0  0  0  0  0  0  0
   35.7130   30.0400   39.6930 O   0  0  0  0  0  0  0  0  0  0  0  0
   35.8320   29.0690   38.7030 C   0  0  0  0  0  0  0  0  0  0  0  0
   35.9660   29.1940   37.6370 H   0  0  0  0  0  0  0  0  0  0  0  0
   35.8040   27.8030   38.8660 O   0  0  0  0  0  0  0  0  0  0  0  0
   37.0470   32.2850   40.6090 O   0  0  0  0  0  0  0  0  0  0  0  0
   37.4720   32.8610   39.4210 C   0  0  0  0  0  0  0  0  0  0  0  0
   38.8500   33.0050   39.3460 F   0  0  0  0  0  0  0  0  0  0  0  0
   36.9500   32.1810   38.3540 F   0  0  0  0  0  0  0  0  0  0  0  0
   36.9490   34.1590   39.4110 F   0  0  0  0  0  0  0  0  0  0  0  0
  2  1  2  6  0  0  0
  2 17  1  0  0  0  0
  2  3  1  0  0  0  0
  3  6  1  0  0  0  0
  4  9  1  0  0  0  0
  5  6  1  0  0  0  0
  5  4  2  0  0  0  0
  6  7  2  0  0  0  0
  7  8  1  0  0  0  0
  8 12  1  0  0  0  0
  9  8  2  0  0  0  0
 10  4  1  0  0  0  0
 11  5  1  0  0  0  0
 13  2  1  0  0  0  0
 14 16  2  0  0  0  0
 14 13  1  0  0  0  0
 15 14  1  0  0  0  0
 18 17  1  0  0  0  0
 19 18  1  0  0  0  0
 20 18  1  0  0  0  0
 21 18  1  0  0  0  0
M  END
>  <minimizedAffinity>
-4.00636005

$$$$

 OpenBabel03242519393D

 21 21  0  0  0  0  0  0  0  0999 V2000
   39.4860   27.1000   40.8900 O   0  0  0  0  0  0  0  0  0  0  0  0
   38.4750   26.3590   41.7760 P   0  0  2  0  0  0  0  0  0  0  0  0
   37.4610   27.5180   42.5410 O   0  0  0  0  0  0  0  0  0  0  0  0
   35.4270   29.6220   40.3450 C   0  0  0  0  0  0  0  0  0  0  0  0
   35.8580   28.4900   41.0780 C   0  0  0  0  0  0  0  0  0  0  0  0
   37.0370   28.6280   41.8210 C   0  0  0  0  0  0  0  0  0  0  0  0
   37.6900   29.8130   41.8000 N   0  0  0  0  0  0  0  0  0  0  0  0
   37.2500   30.8740   41.0890 C   0  0  0  0  0  0  0  0  0  0  0  0
   36.1240   30.7870   40.3620 N   0  0  0  0  0  0  0  0  0  0  0  0
   34.5300   29.6100   39.7440 H   0  0  0  0  0  0  0  0  0  0  0  0
   35.2690   27.5900   41.0320 H   0  0  0  0  0  0  0  0  0  0  0  0
   37.8710   31.7630   41.1610 H   0  0  0  0  0  0  0  0  0  0  0  0
   39.2050   25.4130   42.9280 O   0  0  0  0  0  0  0  0  0  0  0  0
   40.2850   25.8640   43.6800 C   0  0  0  0  0  0  0  0  0  0  0  0
   40.2870   26.4730   44.5730 H   0  0  0  0  0  0  0  0  0  0  0  0
   41.5210   25.6390   43.4550 O   0  0  0  0  0  0  0  0  0  0  0  0
   37.4990   25.4440   40.7490 O   0  0  0  0  0  0  0  0  0  0  0  0
   36.9120   24.3640   41.3930 C   0  0  0  0  0  0  0  0  0  0  0  0
   37.7520   23.2650   41.4950 F   0  0  0  0  0  0  0  0  0  0  0  0
   36.4030   24.7570   42.6010 F   0  0  0  0  0  0  0  0  0  0  0  0
   35.8480   23.9610   40.5790 F   0  0  0  0  0  0  0  0  0  0  0  0
  2  1  2  6  0  0  0
  2  3  1  0  0  0  0
  2 13  1  0  0  0  0
  4  9  2  0  0  0  0
  4  5  1  0  0  0  0
  5  6  2  0  0  0  0
  6  3  1  0  0  0  0
  7  6  1  0  0  0  0
  8 12  1  0  0  0  0
  8  7  2  0  0  0  0
  9  8  1  0  0  0  0
 10  4  1  0  0  0  0
 11  5  1  0  0  0  0
 13 14  1  0  0  0  0
 14 15  1  0  0  0  0
 16 14  2  0  0  0  0
 17 18  1  0  0  0  0
 17  2  1  0  0  0  0
 18 19  1  0  0  0  0
 18 20  1  0  0  0  0
 21 18  1  0  0  0  0
M  END
>  <minimizedAffinity>
-3.94392157

$$$$

 OpenBabel03242519393D

 21 21  0  0  0  0  0  0  0  0999 V2000
   37.3250   29.7410   42.5340 O   0  0  0  0  0  0  0  0  0  0  0  0
   37.1600   28.8610   41.2870 P   0  0  2  0  0  0  0  0  0  0  0  0
   37.8550   29.6760   39.9420 O   0  0  0  0  0  0  0  0  0  0  0  0
   37.4940   33.3140   39.7940 C   0  0  0  0  0  0  0  0  0  0  0  0
   37.1750   31.9400   39.6780 C   0  0  0  0  0  0  0  0  0  0  0  0
   38.1660   31.0250   40.0550 C   0  0  0  0  0  0  0  0  0  0  0  0
   39.3540   31.4950   40.5030 N   0  0  0  0  0  0  0  0  0  0  0  0
   39.6250   32.8140   40.6010 C   0  0  0  0  0  0  0  0  0  0  0  0
   38.7040   33.7270   40.2510 N   0  0  0  0  0  0  0  0  0  0  0  0
   36.7920   34.0910   39.5280 H   0  0  0  0  0  0  0  0  0  0  0  0
   36.2000   31.6640   39.3110 H   0  0  0  0  0  0  0  0  0  0  0  0
   40.6170   33.0520   40.9750 H   0  0  0  0  0  0  0  0  0  0  0  0
   35.5720   28.5040   40.9610 O   0  0  0  0  0  0  0  0  0  0  0  0
   34.8460   29.1860   39.9890 C   0  0  0  0  0  0  0  0  0  0  0  0
   34.1980   30.0450   40.0990 H   0  0  0  0  0  0  0  0  0  0  0  0
   34.8020   28.9210   38.7410 O   0  0  0  0  0  0  0  0  0  0  0  0
   38.0680   27.4640   41.5470 O   0  0  0  0  0  0  0  0  0  0  0  0
   37.3480   26.4740   42.2010 C   0  0  0  0  0  0  0  0  0  0  0  0
   36.5310   26.9670   43.2080 F   0  0  0  0  0  0  0  0  0  0  0  0
   36.6700   25.7080   41.2920 F   0  0  0  0  0  0  0  0  0  0  0  0
   38.2950   25.6640   42.8370 F   0  0  0  0  0  0  0  0  0  0  0  0
  2 17  1  0  0  0  0
  2  1  2  1  0  0  0
  3  6  1  0  0  0  0
  3  2  1  0  0  0  0
  4  9  1  0  0  0  0
  5  4  2  0  0  0  0
  5  6  1  0  0  0  0
  6  7  2  0  0  0  0
  7  8  1  0  0  0  0
  8 12  1  0  0  0  0
  9  8  2  0  0  0  0
 10  4  1  0  0  0  0
 11  5  1  0  0  0  0
 13  2  1  0  0  0  0
 14 15  1  0  0  0  0
 14 13  1  0  0  0  0
 16 14  2  0  0  0  0
 17 18  1  0  0  0  0
 18 21  1  0  0  0  0
 18 19  1  0  0  0  0
 20 18  1  0  0  0  0
M  END
>  <minimizedAffinity>
-3.90381718

$$$$

 OpenBabel03242519393D

 21 21  0  0  0  0  0  0  0  0999 V2000
   38.6090   27.4460   40.6620 O   0  0  0  0  0  0  0  0  0  0  0  0
   37.1730   27.1190   41.0950 P   0  0  2  0  0  0  0  0  0  0  0  0
   36.0860   28.0590   40.1500 O   0  0  0  0  0  0  0  0  0  0  0  0
   36.9980   31.0640   38.2740 C   0  0  0  0  0  0  0  0  0  0  0  0
   36.6820   29.7120   38.5470 C   0  0  0  0  0  0  0  0  0  0  0  0
   36.3970   29.3850   39.8790 C   0  0  0  0  0  0  0  0  0  0  0  0
   36.4370   30.3610   40.8160 N   0  0  0  0  0  0  0  0  0  0  0  0
   36.7430   31.6430   40.5200 C   0  0  0  0  0  0  0  0  0  0  0  0
   37.0230   32.0020   39.2560 N   0  0  0  0  0  0  0  0  0  0  0  0
   37.2310   31.4090   37.2770 H   0  0  0  0  0  0  0  0  0  0  0  0
   36.6760   29.0070   37.7330 H   0  0  0  0  0  0  0  0  0  0  0  0
   36.7390   32.3230   41.3670 H   0  0  0  0  0  0  0  0  0  0  0  0
   36.9070   27.4140   42.7060 O   0  0  0  0  0  0  0  0  0  0  0  0
   37.8600   28.0280   43.5130 C   0  0  0  0  0  0  0  0  0  0  0  0
   38.4600   27.6020   44.3060 H   0  0  0  0  0  0  0  0  0  0  0  0
   38.2250   29.2510   43.4710 O   0  0  0  0  0  0  0  0  0  0  0  0
   36.8990   25.5000   40.7070 O   0  0  0  0  0  0  0  0  0  0  0  0
   37.2570   24.6390   41.7340 C   0  0  0  0  0  0  0  0  0  0  0  0
   38.5370   24.8650   42.2180 F   0  0  0  0  0  0  0  0  0  0  0  0
   36.3060   24.6600   42.7180 F   0  0  0  0  0  0  0  0  0  0  0  0
   37.2790   23.3570   41.1730 F   0  0  0  0  0  0  0  0  0  0  0  0
  2  1  2  6  0  0  0
  2 13  1  0  0  0  0
  3  2  1  0  0  0  0
  4  5  2  0  0  0  0
  4  9  1  0  0  0  0
  5  6  1  0  0  0  0
  6  3  1  0  0  0  0
  6  7  2  0  0  0  0
  8  7  1  0  0  0  0
  8 12  1  0  0  0  0
  9  8  2  0  0  0  0
 10  4  1  0  0  0  0
 11  5  1  0  0  0  0
 13 14  1  0  0  0  0
 14 15  1  0  0  0  0
 16 14  2  0  0  0  0
 17  2  1  0  0  0  0
 17 18  1  0  0  0  0
 18 19  1  0  0  0  0
 18 20  1  0  0  0  0
 21 18  1  0  0  0  0
M  END
>  <minimizedAffinity>
-3.90343046

$$$$

 OpenBabel03242519393D

 21 21  0  0  0  0  0  0  0  0999 V2000
   34.6020   29.0500   40.0990 O   0  0  0  0  0  0  0  0  0  0  0  0
   36.0530   29.3750   40.4810 P   0  0  2  0  0  0  0  0  0  0  0  0
   36.1690   31.0580   40.8180 O   0  0  0  0  0  0  0  0  0  0  0  0
   38.7430   33.4830   39.8830 C   0  0  0  0  0  0  0  0  0  0  0  0
   37.4800   32.8490   39.9650 C   0  0  0  0  0  0  0  0  0  0  0  0
   37.4070   31.6810   40.7350 C   0  0  0  0  0  0  0  0  0  0  0  0
   38.5260   31.2300   41.3480 N   0  0  0  0  0  0  0  0  0  0  0  0
   39.7160   31.8610   41.2480 C   0  0  0  0  0  0  0  0  0  0  0  0
   39.8330   32.9840   40.5200 N   0  0  0  0  0  0  0  0  0  0  0  0
   38.8950   34.3880   39.3130 H   0  0  0  0  0  0  0  0  0  0  0  0
   36.6470   33.2860   39.4410 H   0  0  0  0  0  0  0  0  0  0  0  0
   40.5320   31.3900   41.7900 H   0  0  0  0  0  0  0  0  0  0  0  0
   37.1350   28.9710   39.2900 O   0  0  0  0  0  0  0  0  0  0  0  0
   36.8980   29.2530   37.9480 C   0  0  0  0  0  0  0  0  0  0  0  0
   36.8330   28.5740   37.1090 H   0  0  0  0  0  0  0  0  0  0  0  0
   36.7040   30.4040   37.4310 O   0  0  0  0  0  0  0  0  0  0  0  0
   36.3780   28.5550   41.9180 O   0  0  0  0  0  0  0  0  0  0  0  0
   36.9590   27.3140   41.7040 C   0  0  0  0  0  0  0  0  0  0  0  0
   36.4260   26.6410   40.6140 F   0  0  0  0  0  0  0  0  0  0  0  0
   38.3200   27.4360   41.6400 F   0  0  0  0  0  0  0  0  0  0  0  0
   36.6410   26.5400   42.8250 F   0  0  0  0  0  0  0  0  0  0  0  0
  2  1  2  6  0  0  0
  2  3  1  0  0  0  0
  2 17  1  0  0  0  0
  4  5  2  0  0  0  0
  4  9  1  0  0  0  0
  5  6  1  0  0  0  0
  6  3  1  0  0  0  0
  6  7  2  0  0  0  0
  8  7  1  0  0  0  0
  8 12  1  0  0  0  0
  9  8  2  0  0  0  0
 10  4  1  0  0  0  0
 11  5  1  0  0  0  0
 13  2  1  0  0  0  0
 14 13  1  0  0  0  0
 15 14  1  0  0  0  0
 16 14  2  0  0  0  0
 18 17  1  0  0  0  0
 18 21  1  0  0  0  0
 19 18  1  0  0  0  0
 20 18  1  0  0  0  0
M  END
>  <minimizedAffinity>
-3.89228344

$$$$

 OpenBabel03242519393D

 21 21  0  0  0  0  0  0  0  0999 V2000
   39.2030   27.5340   40.9880 O   0  0  0  0  0  0  0  0  0  0  0  0
   38.0820   26.8790   41.8080 P   0  0  2  0  0  0  0  0  0  0  0  0
   36.7330   27.9440   41.8440 O   0  0  0  0  0  0  0  0  0  0  0  0
   36.8280   31.3740   40.5750 C   0  0  0  0  0  0  0  0  0  0  0  0
   36.8750   30.2910   41.4850 C   0  0  0  0  0  0  0  0  0  0  0  0
   36.6860   29.0090   40.9540 C   0  0  0  0  0  0  0  0  0  0  0  0
   36.4740   28.8760   39.6230 N   0  0  0  0  0  0  0  0  0  0  0  0
   36.4350   29.9330   38.7830 C   0  0  0  0  0  0  0  0  0  0  0  0
   36.6100   31.1800   39.2490 N   0  0  0  0  0  0  0  0  0  0  0  0
   36.9620   32.3970   40.8930 H   0  0  0  0  0  0  0  0  0  0  0  0
   37.0500   30.4980   42.5270 H   0  0  0  0  0  0  0  0  0  0  0  0
   36.2560   29.6830   37.7410 H   0  0  0  0  0  0  0  0  0  0  0  0
   38.5500   26.5220   43.3600 O   0  0  0  0  0  0  0  0  0  0  0  0
   39.8630   26.1870   43.6780 C   0  0  0  0  0  0  0  0  0  0  0  0
   40.5650   26.7070   44.3160 H   0  0  0  0  0  0  0  0  0  0  0  0
   40.5140   25.1680   43.2660 O   0  0  0  0  0  0  0  0  0  0  0  0
   37.6040   25.4950   40.9710 O   0  0  0  0  0  0  0  0  0  0  0  0
   36.9700   24.5710   41.7880 C   0  0  0  0  0  0  0  0  0  0  0  0
   35.9720   23.8600   41.1380 F   0  0  0  0  0  0  0  0  0  0  0  0
   37.8950   23.7610   42.3890 F   0  0  0  0  0  0  0  0  0  0  0  0
   36.3260   25.3130   42.7840 F   0  0  0  0  0  0  0  0  0  0  0  0
  2  1  2  6  0  0  0
  2  3  1  0  0  0  0
  2 13  1  0  0  0  0
  4 10  1  0  0  0  0
  4  5  1  0  0  0  0
  5 11  1  0  0  0  0
  6  5  2  0  0  0  0
  6  3  1  0  0  0  0
  7  6  1  0  0  0  0
  8  9  1  0  0  0  0
  8  7  2  0  0  0  0
  9  4  2  0  0  0  0
 12  8  1  0  0  0  0
 13 14  1  0  0  0  0
 14 15  1  0  0  0  0
 16 14  2  0  0  0  0
 17 18  1  0  0  0  0
 17  2  1  0  0  0  0
 18 20  1  0  0  0  0
 18 21  1  0  0  0  0
 19 18  1  0  0  0  0
M  END
>  <minimizedAffinity>
-3.87022543

$$$$

 OpenBabel03242519393D

 21 21  0  0  0  0  0  0  0  0999 V2000
   39.2720   27.7300   40.7710 O   0  0  0  0  0  0  0  0  0  0  0  0
   37.9060   28.2940   41.1870 P   0  0  2  0  0  0  0  0  0  0  0  0
   37.2740   29.2230   39.8850 O   0  0  0  0  0  0  0  0  0  0  0  0
   37.3790   32.8800   39.8490 C   0  0  0  0  0  0  0  0  0  0  0  0
   36.8970   31.5650   40.0540 C   0  0  0  0  0  0  0  0  0  0  0  0
   37.7450   30.5140   39.6840 C   0  0  0  0  0  0  0  0  0  0  0  0
   38.9580   30.8060   39.1590 N   0  0  0  0  0  0  0  0  0  0  0  0
   39.3870   32.0730   38.9760 C   0  0  0  0  0  0  0  0  0  0  0  0
   38.6070   33.1120   39.3170 N   0  0  0  0  0  0  0  0  0  0  0  0
   36.7960   33.7520   40.1040 H   0  0  0  0  0  0  0  0  0  0  0  0
   35.9160   31.4350   40.4790 H   0  0  0  0  0  0  0  0  0  0  0  0
   40.3810   32.1630   38.5460 H   0  0  0  0  0  0  0  0  0  0  0  0
   37.9900   29.2340   42.5520 O   0  0  0  0  0  0  0  0  0  0  0  0
   39.1740   29.8430   42.9580 C   0  0  0  0  0  0  0  0  0  0  0  0
   39.9250   29.4830   43.6490 H   0  0  0  0  0  0  0  0  0  0  0  0
   39.6180   30.9790   42.5830 O   0  0  0  0  0  0  0  0  0  0  0  0
   36.8760   26.9760   41.4050 O   0  0  0  0  0  0  0  0  0  0  0  0
   36.9600   26.4400   42.6820 C   0  0  0  0  0  0  0  0  0  0  0  0
   38.2600   26.3660   43.1600 F   0  0  0  0  0  0  0  0  0  0  0  0
   36.1190   27.1080   43.5290 F   0  0  0  0  0  0  0  0  0  0  0  0
   36.5150   25.1180   42.5750 F   0  0  0  0  0  0  0  0  0  0  0  0
  2  1  2  6  0  0  0
  2 17  1  0  0  0  0
  2 13  1  0  0  0  0
  3  2  1  0  0  0  0
  4  5  1  0  0  0  0
  4 10  1  0  0  0  0
  5 11  1  0  0  0  0
  6  3  1  0  0  0  0
  6  5  2  0  0  0  0
  7  6  1  0  0  0  0
  8  7  2  0  0  0  0
  8  9  1  0  0  0  0
  9  4  2  0  0  0  0
 12  8  1  0  0  0  0
 13 14  1  0  0  0  0
 14 15  1  0  0  0  0
 16 14  2  0  0  0  0
 17 18  1  0  0  0  0
 18 19  1  0  0  0  0
 18 20  1  0  0  0  0
 21 18  1  0  0  0  0
M  END
>  <minimizedAffinity>
-3.85590601

$$$$
