
 OpenBabel03252508443D

 33 34  0  0  0  0  0  0  0  0999 V2000
   41.6070   33.9350   39.6420 C   0  0  0  0  0  0  0  0  0  0  0  0
   41.8900   34.6530   40.7940 C   0  0  0  0  0  0  0  0  0  0  0  0
   40.9580   35.5570   41.2610 C   0  0  0  0  0  0  0  0  0  0  0  0
   39.7820   35.7310   40.5910 C   0  0  0  0  0  0  0  0  0  0  0  0
   39.4720   35.0350   39.4490 C   0  0  0  0  0  0  0  0  0  0  0  0
   40.4400   34.1410   39.0220 C   0  0  0  0  0  0  0  0  0  0  0  0
   41.1690   36.1300   42.1670 H   0  0  0  0  0  0  0  0  0  0  0  0
   39.0710   36.4470   40.9820 H   0  0  0  0  0  0  0  0  0  0  0  0
   38.5500   35.1510   38.8960 H   0  0  0  0  0  0  0  0  0  0  0  0
   40.2600   33.5550   38.1210 H   0  0  0  0  0  0  0  0  0  0  0  0
   43.7190   30.8580   39.0910 C   0  0  0  0  0  0  0  0  0  0  0  0
   42.6860   31.6670   39.5800 C   0  0  0  0  0  0  0  0  0  0  0  0
   42.6280   33.0000   39.2020 C   0  0  0  0  0  0  0  0  0  0  0  0
   43.5980   33.4530   38.3610 N   0  0  0  0  0  0  0  0  0  0  0  0
   44.5860   32.6510   37.9020 C   0  0  0  0  0  0  0  0  0  0  0  0
   44.6490   31.3500   38.2660 N   0  0  0  0  0  0  0  0  0  0  0  0
   43.7710   29.8170   39.3810 H   0  0  0  0  0  0  0  0  0  0  0  0
   41.9210   31.2930   40.2480 H   0  0  0  0  0  0  0  0  0  0  0  0
   45.2870   33.1740   37.2330 H   0  0  0  0  0  0  0  0  0  0  0  0
   43.1770   34.4520   41.5110 C   0  0  0  0  0  0  0  0  0  0  0  0
   42.9670   34.1070   42.5500 H   0  0  0  0  0  0  0  0  0  0  0  0
   43.6960   33.5990   41.0030 H   0  0  0  0  0  0  0  0  0  0  0  0
   44.0110   35.6130   41.5940 N   0  0  0  0  0  0  0  0  0  0  0  0
   43.4370   36.4180   41.2400 H   0  0  0  0  0  0  0  0  0  0  0  0
   44.5960   35.9210   43.1730 S   0  0  0  0  0  0  0  0  0  0  0  0
   43.5060   35.6810   44.1880 O   0  0  0  0  0  0  0  0  0  0  0  0
   43.0930   34.7980   44.3650 H   0  0  0  0  0  0  0  0  0  0  0  0
   45.1240   37.2980   43.3160 O   0  0  0  0  0  0  0  0  0  0  0  0
   45.3560   37.9880   42.6650 H   0  0  0  0  0  0  0  0  0  0  0  0
   45.8310   34.8150   43.4690 O   0  0  0  0  0  0  0  0  0  0  0  0
   47.0110   34.9320   42.7480 C   0  0  0  0  0  0  0  0  0  0  0  0
   47.8500   35.2100   43.3610 H   0  0  0  0  0  0  0  0  0  0  0  0
   46.6870   34.6570   41.5490 O   0  0  0  0  0  0  0  0  0  0  0  0
  1  2  1  0  0  0  0
  2  3  2  0  0  0  0
  2 20  1  0  0  0  0
  3  7  1  0  0  0  0
  4  8  1  0  0  0  0
  4  3  1  0  0  0  0
  5  4  2  0  0  0  0
  6  5  1  0  0  0  0
  6  1  2  0  0  0  0
  9  5  1  0  0  0  0
 10  6  1  0  0  0  0
 11 17  1  0  0  0  0
 11 12  1  0  0  0  0
 12 18  1  0  0  0  0
 13 12  2  0  0  0  0
 13  1  1  0  0  0  0
 14 13  1  0  0  0  0
 15 16  1  0  0  0  0
 15 14  2  0  0  0  0
 16 11  2  0  0  0  0
 19 15  1  0  0  0  0
 20 23  1  0  0  0  0
 20 21  1  0  0  0  0
 22 20  1  0  0  0  0
 23 25  1  0  0  0  0
 24 23  1  0  0  0  0
 25 28  1  0  0  0  0
 25 30  1  0  0  0  0
 25 26  1  0  0  0  0
 26 27  1  0  0  0  0
 29 28  1  0  0  0  0
 31 32  1  0  0  0  0
 31 30  1  0  0  0  0
 33 31  2  0  0  0  0
M  END
>  <minimizedAffinity>
-4.88264179

>  <minimizedRMSD>
2.25187469

$$$$
