
 OpenBabel03252508583D

 39 40  0  0  1  0  0  0  0  0999 V2000
   47.1660   34.1380   43.0810 N   0  0  0  0  0  0  0  0  0  0  0  0
   46.6410   35.3300   42.5030 C   0  0  0  0  0  0  0  0  0  0  0  0
   45.1810   35.5710   42.7390 C   0  0  0  0  0  0  0  0  0  0  0  0
   44.6470   35.0300   44.0380 C   0  0  0  0  0  0  0  0  0  0  0  0
   45.7650   34.4960   44.9020 C   0  0  0  0  0  0  0  0  0  0  0  0
   46.4300   33.4010   43.9900 C   0  0  2  0  0  0  0  0  0  0  0  0
   46.8310   35.4660   41.4340 H   0  0  0  0  0  0  0  0  0  0  0  0
   47.1910   36.1840   42.9950 H   0  0  0  0  0  0  0  0  0  0  0  0
   45.0050   36.6780   42.7540 H   0  0  0  0  0  0  0  0  0  0  0  0
   44.5800   35.2170   41.8630 H   0  0  0  0  0  0  0  0  0  0  0  0
   43.9810   35.7450   44.5610 H   0  0  0  0  0  0  0  0  0  0  0  0
   43.9960   34.1580   43.7800 H   0  0  0  0  0  0  0  0  0  0  0  0
   45.3520   34.0240   45.8030 H   0  0  0  0  0  0  0  0  0  0  0  0
   46.5250   35.2770   45.0970 H   0  0  0  0  0  0  0  0  0  0  0  0
   45.6090   32.7690   43.5960 H   0  0  0  0  0  0  0  0  0  0  0  0
   48.1460   33.4740   42.2730 C   0  0  0  0  0  0  0  0  0  0  0  0
   48.7630   32.8070   42.9050 H   0  0  0  0  0  0  0  0  0  0  0  0
   48.7790   34.2460   41.7880 H   0  0  0  0  0  0  0  0  0  0  0  0
   47.4240   32.6380   41.2530 C   0  0  0  0  0  0  0  0  0  0  0  0
   46.3340   32.9190   41.2020 H   0  0  0  0  0  0  0  0  0  0  0  0
   47.4610   31.5570   41.4400 H   0  0  0  0  0  0  0  0  0  0  0  0
   49.3350   32.2710   38.0360 C   0  0  0  0  0  0  0  0  0  0  0  0
   48.8040   32.0010   39.3110 C   0  0  0  0  0  0  0  0  0  0  0  0
   47.9810   32.9310   39.9040 C   0  0  0  0  0  0  0  0  0  0  0  0
   47.7220   34.0630   39.2280 N   0  0  0  0  0  0  0  0  0  0  0  0
   48.2320   34.3120   38.0120 C   0  0  0  0  0  0  0  0  0  0  0  0
   49.0440   33.4190   37.4030 N   0  0  0  0  0  0  0  0  0  0  0  0
   49.9840   31.5310   37.5750 H   0  0  0  0  0  0  0  0  0  0  0  0
   49.0490   31.0760   39.8010 H   0  0  0  0  0  0  0  0  0  0  0  0
   47.9770   35.2480   37.5310 H   0  0  0  0  0  0  0  0  0  0  0  0
   47.2440   32.7380   44.8960 O   0  0  0  0  0  0  0  0  0  0  0  0
   46.2260   30.4850   43.9120 O   0  0  0  0  0  0  0  0  0  0  0  0
   46.7370   31.1620   45.1890 P   0  0  2  0  0  0  0  0  0  0  0  0
   45.3560   31.2880   46.1950 O   0  0  0  0  0  0  0  0  0  0  0  0
   45.6400   31.5030   47.1170 H   0  0  0  0  0  0  0  0  0  0  0  0
   47.8680   30.2450   45.9900 O   0  0  0  0  0  0  0  0  0  0  0  0
   48.7620   29.4710   45.2640 C   0  0  0  0  0  0  0  0  0  0  0  0
   49.6240   29.8720   44.7430 H   0  0  0  0  0  0  0  0  0  0  0  0
   48.4310   28.2530   45.2990 O   0  0  0  0  0  0  0  0  0  0  0  0
  1  6  1  0  0  0  0
  2  3  1  0  0  0  0
  2  8  1  0  0  0  0
  2  1  1  0  0  0  0
  3  9  1  0  0  0  0
  3  4  1  0  0  0  0
  4 11  1  0  0  0  0
  4  5  1  0  0  0  0
  5 14  1  0  0  0  0
  5 13  1  0  0  0  0
  6 15  1  6  0  0  0
  6 31  1  0  0  0  0
  6  5  1  0  0  0  0
  7  2  1  0  0  0  0
 10  3  1  0  0  0  0
 12  4  1  0  0  0  0
 16 17  1  0  0  0  0
 16  1  1  0  0  0  0
 18 16  1  0  0  0  0
 19 21  1  0  0  0  0
 19 16  1  0  0  0  0
 20 19  1  0  0  0  0
 22 23  1  0  0  0  0
 23 29  1  0  0  0  0
 23 24  2  0  0  0  0
 24 19  1  0  0  0  0
 25 24  1  0  0  0  0
 26 25  2  0  0  0  0
 27 26  1  0  0  0  0
 27 22  2  0  0  0  0
 28 22  1  0  0  0  0
 30 26  1  0  0  0  0
 31 33  1  0  0  0  0
 33 32  2  6  0  0  0
 33 36  1  0  0  0  0
 33 34  1  0  0  0  0
 34 35  1  0  0  0  0
 37 39  2  0  0  0  0
 37 36  1  0  0  0  0
 38 37  1  0  0  0  0
M  END
>  <minimizedAffinity>
-3.58728194

>  <minimizedRMSD>
0.138176411

$$$$
