
 OpenBabel03252508593D

 39 40  0  0  1  0  0  0  0  0999 V2000
   47.1740   34.1390   43.0800 N   0  0  0  0  0  0  0  0  0  0  0  0
   46.6660   35.3480   42.5240 C   0  0  0  0  0  0  0  0  0  0  0  0
   45.2060   35.5980   42.7520 C   0  0  0  0  0  0  0  0  0  0  0  0
   44.6540   35.0330   44.0330 C   0  0  0  0  0  0  0  0  0  0  0  0
   45.7590   34.4690   44.8960 C   0  0  0  0  0  0  0  0  0  0  0  0
   46.4230   33.3890   43.9660 C   0  0  2  0  0  0  0  0  0  0  0  0
   46.8680   35.5050   41.4600 H   0  0  0  0  0  0  0  0  0  0  0  0
   47.2200   36.1860   43.0400 H   0  0  0  0  0  0  0  0  0  0  0  0
   45.0400   36.7060   42.7890 H   0  0  0  0  0  0  0  0  0  0  0  0
   44.6100   35.2680   41.8620 H   0  0  0  0  0  0  0  0  0  0  0  0
   43.9910   35.7430   44.5650 H   0  0  0  0  0  0  0  0  0  0  0  0
   43.9980   34.1730   43.7500 H   0  0  0  0  0  0  0  0  0  0  0  0
   45.3330   33.9820   45.7820 H   0  0  0  0  0  0  0  0  0  0  0  0
   46.5250   35.2390   45.1150 H   0  0  0  0  0  0  0  0  0  0  0  0
   45.5990   32.7730   43.5500 H   0  0  0  0  0  0  0  0  0  0  0  0
   48.1550   33.4830   42.2670 C   0  0  0  0  0  0  0  0  0  0  0  0
   48.7820   32.8210   42.8950 H   0  0  0  0  0  0  0  0  0  0  0  0
   48.7790   34.2610   41.7780 H   0  0  0  0  0  0  0  0  0  0  0  0
   47.4350   32.6410   41.2500 C   0  0  0  0  0  0  0  0  0  0  0  0
   46.3440   32.9170   41.2010 H   0  0  0  0  0  0  0  0  0  0  0  0
   47.4780   31.5610   41.4410 H   0  0  0  0  0  0  0  0  0  0  0  0
   49.3360   32.2710   38.0270 C   0  0  0  0  0  0  0  0  0  0  0  0
   48.8090   32.0020   39.3050 C   0  0  0  0  0  0  0  0  0  0  0  0
   47.9880   32.9330   39.9000 C   0  0  0  0  0  0  0  0  0  0  0  0
   47.7260   34.0640   39.2230 N   0  0  0  0  0  0  0  0  0  0  0  0
   48.2330   34.3130   38.0060 C   0  0  0  0  0  0  0  0  0  0  0  0
   49.0430   33.4190   37.3950 N   0  0  0  0  0  0  0  0  0  0  0  0
   49.9830   31.5310   37.5650 H   0  0  0  0  0  0  0  0  0  0  0  0
   49.0550   31.0780   39.7940 H   0  0  0  0  0  0  0  0  0  0  0  0
   47.9760   35.2480   37.5250 H   0  0  0  0  0  0  0  0  0  0  0  0
   47.2220   32.6980   44.8640 O   0  0  0  0  0  0  0  0  0  0  0  0
   46.0570   30.5180   43.8780 O   0  0  0  0  0  0  0  0  0  0  0  0
   46.6820   31.1300   45.1380 P   0  0  2  0  0  0  0  0  0  0  0  0
   45.3820   31.2620   46.2450 O   0  0  0  0  0  0  0  0  0  0  0  0
   45.7390   31.4330   47.1520 H   0  0  0  0  0  0  0  0  0  0  0  0
   47.8340   30.1470   45.8210 O   0  0  0  0  0  0  0  0  0  0  0  0
   48.7940   29.5520   45.0150 C   0  0  0  0  0  0  0  0  0  0  0  0
   49.6510   30.0760   44.6070 H   0  0  0  0  0  0  0  0  0  0  0  0
   48.5280   28.3320   44.8290 O   0  0  0  0  0  0  0  0  0  0  0  0
  1  6  1  0  0  0  0
  2  3  1  0  0  0  0
  2  8  1  0  0  0  0
  2  1  1  0  0  0  0
  3  9  1  0  0  0  0
  3  4  1  0  0  0  0
  4 11  1  0  0  0  0
  4  5  1  0  0  0  0
  5 14  1  0  0  0  0
  5 13  1  0  0  0  0
  6 15  1  6  0  0  0
  6 31  1  0  0  0  0
  6  5  1  0  0  0  0
  7  2  1  0  0  0  0
 10  3  1  0  0  0  0
 12  4  1  0  0  0  0
 16 17  1  0  0  0  0
 16  1  1  0  0  0  0
 18 16  1  0  0  0  0
 19 21  1  0  0  0  0
 19 16  1  0  0  0  0
 20 19  1  0  0  0  0
 22 23  1  0  0  0  0
 23 29  1  0  0  0  0
 23 24  2  0  0  0  0
 24 19  1  0  0  0  0
 25 24  1  0  0  0  0
 26 25  2  0  0  0  0
 27 26  1  0  0  0  0
 27 22  2  0  0  0  0
 28 22  1  0  0  0  0
 30 26  1  0  0  0  0
 31 33  1  0  0  0  0
 33 32  2  6  0  0  0
 33 36  1  0  0  0  0
 33 34  1  0  0  0  0
 34 35  1  0  0  0  0
 37 36  1  0  0  0  0
 38 37  1  0  0  0  0
 39 37  2  0  0  0  0
M  END
>  <minimizedAffinity>
-3.57849431

>  <minimizedRMSD>
0.156828508

$$$$
