
 OpenBabel03252508593D

 39 40  0  0  1  0  0  0  0  0999 V2000
   47.0810   34.1130   43.2110 N   0  0  0  0  0  0  0  0  0  0  0  0
   46.7010   35.3740   42.6670 C   0  0  0  0  0  0  0  0  0  0  0  0
   45.2550   35.7350   42.8270 C   0  0  0  0  0  0  0  0  0  0  0  0
   44.5910   35.1810   44.0590 C   0  0  0  0  0  0  0  0  0  0  0  0
   45.5990   34.5060   44.9590 C   0  0  0  0  0  0  0  0  0  0  0  0
   46.2260   33.4020   44.0310 C   0  0  2  0  0  0  0  0  0  0  0  0
   46.9720   35.5450   41.6210 H   0  0  0  0  0  0  0  0  0  0  0  0
   47.2900   36.1500   43.2380 H   0  0  0  0  0  0  0  0  0  0  0  0
   45.1740   36.8500   42.8910 H   0  0  0  0  0  0  0  0  0  0  0  0
   44.6840   35.4790   41.8970 H   0  0  0  0  0  0  0  0  0  0  0  0
   43.9580   35.9270   44.5780 H   0  0  0  0  0  0  0  0  0  0  0  0
   43.8850   34.3840   43.7140 H   0  0  0  0  0  0  0  0  0  0  0  0
   45.0890   34.0300   45.8060 H   0  0  0  0  0  0  0  0  0  0  0  0
   46.4100   35.2050   45.2430 H   0  0  0  0  0  0  0  0  0  0  0  0
   45.3800   32.8660   43.5530 H   0  0  0  0  0  0  0  0  0  0  0  0
   48.0500   33.4030   42.4290 C   0  0  0  0  0  0  0  0  0  0  0  0
   48.6250   32.7160   43.0780 H   0  0  0  0  0  0  0  0  0  0  0  0
   48.7250   34.1460   41.9530 H   0  0  0  0  0  0  0  0  0  0  0  0
   47.3170   32.5910   41.3970 C   0  0  0  0  0  0  0  0  0  0  0  0
   46.2380   32.9070   41.3300 H   0  0  0  0  0  0  0  0  0  0  0  0
   47.3170   31.5100   41.5860 H   0  0  0  0  0  0  0  0  0  0  0  0
   49.3120   32.1870   38.2360 C   0  0  0  0  0  0  0  0  0  0  0  0
   48.7530   31.9350   39.5030 C   0  0  0  0  0  0  0  0  0  0  0  0
   47.9040   32.8650   40.0580 C   0  0  0  0  0  0  0  0  0  0  0  0
   47.6470   33.9810   39.3530 N   0  0  0  0  0  0  0  0  0  0  0  0
   48.1850   34.2130   38.1460 C   0  0  0  0  0  0  0  0  0  0  0  0
   49.0230   33.3190   37.5740 N   0  0  0  0  0  0  0  0  0  0  0  0
   49.9810   31.4470   37.8050 H   0  0  0  0  0  0  0  0  0  0  0  0
   48.9970   31.0230   40.0160 H   0  0  0  0  0  0  0  0  0  0  0  0
   47.9290   35.1360   37.6410 H   0  0  0  0  0  0  0  0  0  0  0  0
   46.9180   32.6250   44.9470 O   0  0  0  0  0  0  0  0  0  0  0  0
   45.2160   30.7850   44.0520 O   0  0  0  0  0  0  0  0  0  0  0  0
   46.2310   31.1040   45.1560 P   0  0  2  0  0  0  0  0  0  0  0  0
   45.2970   31.1970   46.5880 O   0  0  0  0  0  0  0  0  0  0  0  0
   45.8970   31.1740   47.3740 H   0  0  0  0  0  0  0  0  0  0  0  0
   47.3540   29.8960   45.3590 O   0  0  0  0  0  0  0  0  0  0  0  0
   48.5670   29.9680   44.6900 C   0  0  0  0  0  0  0  0  0  0  0  0
   49.5280   30.0500   45.1860 H   0  0  0  0  0  0  0  0  0  0  0  0
   48.3910   29.9250   43.4410 O   0  0  0  0  0  0  0  0  0  0  0  0
  1  6  1  0  0  0  0
  2  3  1  0  0  0  0
  2  1  1  0  0  0  0
  2  8  1  0  0  0  0
  3  9  1  0  0  0  0
  3  4  1  0  0  0  0
  4 11  1  0  0  0  0
  4  5  1  0  0  0  0
  5 14  1  0  0  0  0
  5 13  1  0  0  0  0
  6 15  1  6  0  0  0
  6 31  1  0  0  0  0
  6  5  1  0  0  0  0
  7  2  1  0  0  0  0
 10  3  1  0  0  0  0
 12  4  1  0  0  0  0
 16 17  1  0  0  0  0
 16  1  1  0  0  0  0
 18 16  1  0  0  0  0
 19 21  1  0  0  0  0
 19 16  1  0  0  0  0
 20 19  1  0  0  0  0
 22 23  1  0  0  0  0
 23 29  1  0  0  0  0
 23 24  2  0  0  0  0
 24 19  1  0  0  0  0
 25 24  1  0  0  0  0
 26 25  2  0  0  0  0
 27 26  1  0  0  0  0
 27 22  2  0  0  0  0
 28 22  1  0  0  0  0
 30 26  1  0  0  0  0
 31 33  1  0  0  0  0
 33 32  2  6  0  0  0
 33 36  1  0  0  0  0
 33 34  1  0  0  0  0
 34 35  1  0  0  0  0
 37 38  1  0  0  0  0
 37 36  1  0  0  0  0
 39 37  2  0  0  0  0
M  END
>  <minimizedAffinity>
-3.59668183

>  <minimizedRMSD>
0.387518704

$$$$
