
 OpenBabel03242516453D

 36 39  0  0  1  0  0  0  0  0999 V2000
   45.1900   33.8160   41.3540 C   0  0  0  0  0  0  0  0  0  0  0  0
   44.3360   32.8040   41.5930 N   0  0  0  0  0  0  0  0  0  0  0  0
   43.0780   33.1660   41.3040 C   0  0  0  0  0  0  0  0  0  0  0  0
   43.1420   34.4510   40.8670 N   0  0  0  0  0  0  0  0  0  0  0  0
   44.3920   34.8540   40.8900 N   0  0  0  0  0  0  0  0  0  0  0  0
   42.1830   32.5590   41.3980 H   0  0  0  0  0  0  0  0  0  0  0  0
   40.2460   34.6460   41.9470 O   0  0  0  0  0  0  0  0  0  0  0  0
   40.7260   34.6900   40.7720 C   0  0  0  0  0  0  0  0  0  0  0  0
   42.0400   35.2870   40.4310 C   0  0  2  0  0  0  0  0  0  0  0  0
   41.9920   35.3860   38.9140 C   0  0  0  0  0  0  0  0  0  0  0  0
   41.1860   34.1280   38.5630 C   0  0  0  0  0  0  0  0  0  0  0  0
   40.1330   34.1910   39.5550 N   0  0  0  0  0  0  0  0  0  0  0  0
   42.1490   36.3110   40.8320 H   0  0  0  0  0  0  0  0  0  0  0  0
   41.4270   36.2760   38.6060 H   0  0  0  0  0  0  0  0  0  0  0  0
   42.9860   35.3490   38.4670 H   0  0  0  0  0  0  0  0  0  0  0  0
   41.8500   33.2800   38.8140 H   0  0  0  0  0  0  0  0  0  0  0  0
   40.8160   34.1330   37.5330 H   0  0  0  0  0  0  0  0  0  0  0  0
   38.7360   33.8490   39.4590 C   0  0  0  0  0  0  0  0  0  0  0  0
   38.2310   34.2160   38.5570 H   0  0  0  0  0  0  0  0  0  0  0  0
   38.1370   33.1800   40.3420 O   0  0  0  0  0  0  0  0  0  0  0  0
   47.3890   33.9170   42.7890 C   0  0  1  0  0  0  0  0  0  0  0  0
   46.6470   33.9100   41.4980 C   0  0  2  0  0  0  0  0  0  0  0  0
   47.2080   35.1450   41.9960 C   0  0  0  0  0  0  0  0  0  0  0  0
   48.3690   33.4090   42.7530 H   0  0  0  0  0  0  0  0  0  0  0  0
   47.1690   33.4040   40.6320 H   0  0  0  0  0  0  0  0  0  0  0  0
   48.0850   35.5980   41.4620 H   0  0  0  0  0  0  0  0  0  0  0  0
   46.5190   35.9610   42.3380 H   0  0  0  0  0  0  0  0  0  0  0  0
   47.0490   32.6140   44.8740 C   0  0  0  0  0  0  0  0  0  0  0  0
   46.7080   33.7130   44.0870 C   0  0  0  0  0  0  0  0  0  0  0  0
   45.7540   34.5700   44.5750 C   0  0  0  0  0  0  0  0  0  0  0  0
   45.2050   34.2990   45.7850 N   0  0  0  0  0  0  0  0  0  0  0  0
   45.5420   33.2490   46.5200 C   0  0  0  0  0  0  0  0  0  0  0  0
   46.4750   32.4040   46.0500 N   0  0  0  0  0  0  0  0  0  0  0  0
   47.8070   31.9010   44.5250 H   0  0  0  0  0  0  0  0  0  0  0  0
   45.4550   35.4290   44.0140 H   0  0  0  0  0  0  0  0  0  0  0  0
   45.0490   33.1060   47.4830 H   0  0  0  0  0  0  0  0  0  0  0  0
  1 22  1  0  0  0  0
  1  2  1  0  0  0  0
  3  6  1  0  0  0  0
  3  2  2  0  0  0  0
  4  5  1  0  0  0  0
  4  3  1  0  0  0  0
  5  1  2  0  0  0  0
  8  7  2  0  0  0  0
  9  8  1  0  0  0  0
  9 13  1  1  0  0  0
  9  4  1  0  0  0  0
 10  9  1  0  0  0  0
 11 16  1  0  0  0  0
 11 10  1  0  0  0  0
 11 12  1  0  0  0  0
 12  8  1  0  0  0  0
 14 10  1  0  0  0  0
 15 10  1  0  0  0  0
 17 11  1  0  0  0  0
 18 12  1  0  0  0  0
 18 20  2  0  0  0  0
 19 18  1  0  0  0  0
 21 24  1  6  0  0  0
 21 29  1  0  0  0  0
 22 25  1  6  0  0  0
 22 23  1  0  0  0  0
 22 21  1  0  0  0  0
 23 27  1  0  0  0  0
 23 21  1  0  0  0  0
 26 23  1  0  0  0  0
 28 33  1  0  0  0  0
 29 30  1  0  0  0  0
 29 28  2  0  0  0  0
 30 31  2  0  0  0  0
 31 32  1  0  0  0  0
 32 36  1  0  0  0  0
 33 32  2  0  0  0  0
 34 28  1  0  0  0  0
 35 30  1  0  0  0  0
M  END
>  <minimizedAffinity>
-5.574718

>  <minimizedRMSD>
0.279336691

$$$$
