
 OpenBabel03252509303D

 21 21  0  0  0  0  0  0  0  0999 V2000
   46.9900   33.4620   42.9030 C   0  0  0  0  0  0  0  0  0  0  0  0
   46.5500   32.4840   42.6770 H   0  0  0  0  0  0  0  0  0  0  0  0
   46.9340   34.0510   41.9540 H   0  0  0  0  0  0  0  0  0  0  0  0
   45.1060   34.2990   46.0090 C   0  0  0  0  0  0  0  0  0  0  0  0
   45.9440   33.6090   45.1280 C   0  0  0  0  0  0  0  0  0  0  0  0
   46.1220   34.1410   43.8710 C   0  0  0  0  0  0  0  0  0  0  0  0
   45.4780   35.3180   43.5330 N   0  0  0  0  0  0  0  0  0  0  0  0
   44.6780   35.9440   44.4270 C   0  0  0  0  0  0  0  0  0  0  0  0
   44.4920   35.4400   45.6590 N   0  0  0  0  0  0  0  0  0  0  0  0
   45.0070   33.8270   46.9860 H   0  0  0  0  0  0  0  0  0  0  0  0
   46.4560   32.6830   45.3840 H   0  0  0  0  0  0  0  0  0  0  0  0
   44.1880   36.8600   44.1380 H   0  0  0  0  0  0  0  0  0  0  0  0
   48.2910   33.3590   43.3950 O   0  0  0  0  0  0  0  0  0  0  0  0
   50.1140   33.0740   41.5500 O   0  0  0  0  0  0  0  0  0  0  0  0
   49.3030   34.1120   42.2700 P   0  0  2  0  0  0  0  0  0  0  0  0
   50.2390   35.2310   43.0990 O   0  0  0  0  0  0  0  0  0  0  0  0
   51.1190   34.8450   43.3380 H   0  0  0  0  0  0  0  0  0  0  0  0
   48.3100   34.8990   41.1420 O   0  0  0  0  0  0  0  0  0  0  0  0
   48.1220   34.3130   39.8960 C   0  0  0  0  0  0  0  0  0  0  0  0
   47.6960   33.3120   39.9330 H   0  0  0  0  0  0  0  0  0  0  0  0
   48.3490   34.7200   38.7460 O   0  0  0  0  0  0  0  0  0  0  0  0
  1 13  1  0  0  0  0
  1  6  1  0  0  0  0
  2  1  1  0  0  0  0
  3  1  1  0  0  0  0
  4 10  1  0  0  0  0
  5 11  1  0  0  0  0
  5  4  2  0  0  0  0
  6  5  1  0  0  0  0
  7  6  2  0  0  0  0
  7  8  1  0  0  0  0
  8  9  2  0  0  0  0
  9  4  1  0  0  0  0
 12  8  1  0  0  0  0
 15 14  2  6  0  0  0
 15 16  1  0  0  0  0
 15 13  1  0  0  0  0
 16 17  1  0  0  0  0
 18 15  1  0  0  0  0
 19 20  1  0  0  0  0
 19 18  1  0  0  0  0
 21 19  2  0  0  0  0
M  END
>  <minimizedAffinity>
-4.39304113

>  <minimizedRMSD>
0.61439836

$$$$
