
 OpenBabel03252502573D

 31 32  0  0  0  0  0  0  0  0999 V2000
   39.1610   29.3780   42.9070 Br  0  0  0  0  0  0  0  0  0  0  0  0
   37.5930   29.4970   41.7900 C   0  0  0  0  0  0  0  0  0  0  0  0
   36.7680   28.4070   41.8100 C   0  0  0  0  0  0  0  0  0  0  0  0
   35.6360   28.5170   40.9910 C   0  0  0  0  0  0  0  0  0  0  0  0
   35.3630   29.6220   40.2250 C   0  0  0  0  0  0  0  0  0  0  0  0
   36.2360   30.6810   40.2540 C   0  0  0  0  0  0  0  0  0  0  0  0
   37.3670   30.6230   41.0450 C   0  0  0  0  0  0  0  0  0  0  0  0
   34.9260   27.6970   40.9460 H   0  0  0  0  0  0  0  0  0  0  0  0
   34.4770   29.6700   39.6030 H   0  0  0  0  0  0  0  0  0  0  0  0
   36.0110   31.5460   39.6460 H   0  0  0  0  0  0  0  0  0  0  0  0
   36.9360   27.1720   42.5740 C   0  0  0  0  0  0  0  0  0  0  0  0
   37.5280   27.3650   43.5100 H   0  0  0  0  0  0  0  0  0  0  0  0
   35.9290   26.8670   42.9380 H   0  0  0  0  0  0  0  0  0  0  0  0
   38.9720   25.1660   40.1750 C   0  0  0  0  0  0  0  0  0  0  0  0
   38.4960   23.8800   40.4050 C   0  0  0  0  0  0  0  0  0  0  0  0
   37.4960   23.7000   41.3660 C   0  0  0  0  0  0  0  0  0  0  0  0
   37.0410   24.7870   42.0210 N   0  0  0  0  0  0  0  0  0  0  0  0
   37.5080   26.0510   41.7960 C   0  0  0  0  0  0  0  0  0  0  0  0
   38.4780   26.1890   40.8570 N   0  0  0  0  0  0  0  0  0  0  0  0
   39.7500   25.2640   39.4210 H   0  0  0  0  0  0  0  0  0  0  0  0
   38.8410   22.9950   39.8970 H   0  0  0  0  0  0  0  0  0  0  0  0
   37.0580   22.7340   41.6200 H   0  0  0  0  0  0  0  0  0  0  0  0
   38.2530   31.7020   41.0720 O   0  0  0  0  0  0  0  0  0  0  0  0
   39.5850   33.7270   40.1060 O   0  0  0  0  0  0  0  0  0  0  0  0
   38.3500   32.8670   39.8530 P   0  0  2  0  0  0  0  0  0  0  0  0
   36.9680   33.7880   39.8680 O   0  0  0  0  0  0  0  0  0  0  0  0
   36.2340   33.2530   39.4880 H   0  0  0  0  0  0  0  0  0  0  0  0
   38.5750   32.1560   38.3250 O   0  0  0  0  0  0  0  0  0  0  0  0
   39.7510   31.5140   37.9940 C   0  0  0  0  0  0  0  0  0  0  0  0
   40.1150   30.5380   38.3170 H   0  0  0  0  0  0  0  0  0  0  0  0
   40.4050   32.2510   37.2120 O   0  0  0  0  0  0  0  0  0  0  0  0
  2  3  1  0  0  0  0
  2  1  1  0  0  0  0
  3 11  1  0  0  0  0
  4  3  2  0  0  0  0
  5  6  2  0  0  0  0
  5  4  1  0  0  0  0
  6  7  1  0  0  0  0
  7 23  1  0  0  0  0
  7  2  2  0  0  0  0
  8  4  1  0  0  0  0
  9  5  1  0  0  0  0
 10  6  1  0  0  0  0
 11 13  1  0  0  0  0
 11 12  1  0  0  0  0
 14 15  2  0  0  0  0
 14 19  1  0  0  0  0
 15 16  1  0  0  0  0
 16 22  1  0  0  0  0
 16 17  2  0  0  0  0
 18 17  1  0  0  0  0
 18 11  1  0  0  0  0
 19 18  2  0  0  0  0
 20 14  1  0  0  0  0
 21 15  1  0  0  0  0
 25 26  1  0  0  0  0
 25 24  2  1  0  0  0
 25 23  1  0  0  0  0
 27 26  1  0  0  0  0
 28 25  1  0  0  0  0
 29 30  1  0  0  0  0
 29 28  1  0  0  0  0
 31 29  2  0  0  0  0
M  END
>  <minimizedAffinity>
-5.25470829

$$$$

 OpenBabel03252502573D

 31 32  0  0  0  0  0  0  0  0999 V2000
   39.9570   29.8670   40.1050 Br  0  0  0  0  0  0  0  0  0  0  0  0
   39.1240   31.6030   39.9850 C   0  0  0  0  0  0  0  0  0  0  0  0
   39.9240   32.6660   40.3000 C   0  0  0  0  0  0  0  0  0  0  0  0
   39.2980   33.9160   40.2060 C   0  0  0  0  0  0  0  0  0  0  0  0
   37.9890   34.0770   39.8290 C   0  0  0  0  0  0  0  0  0  0  0  0
   37.2440   32.9650   39.5260 C   0  0  0  0  0  0  0  0  0  0  0  0
   37.8140   31.7100   39.6030 C   0  0  0  0  0  0  0  0  0  0  0  0
   39.8600   34.8160   40.4380 H   0  0  0  0  0  0  0  0  0  0  0  0
   37.5390   35.0620   39.7680 H   0  0  0  0  0  0  0  0  0  0  0  0
   36.2130   33.1050   39.2310 H   0  0  0  0  0  0  0  0  0  0  0  0
   41.3270   32.6390   40.7140 C   0  0  0  0  0  0  0  0  0  0  0  0
   41.4950   33.3360   41.5800 H   0  0  0  0  0  0  0  0  0  0  0  0
   41.5310   31.6260   41.1280 H   0  0  0  0  0  0  0  0  0  0  0  0
   43.0510   32.6370   37.4060 C   0  0  0  0  0  0  0  0  0  0  0  0
   44.1500   33.4500   37.6580 C   0  0  0  0  0  0  0  0  0  0  0  0
   44.3000   33.9930   38.9390 C   0  0  0  0  0  0  0  0  0  0  0  0
   43.3680   33.6960   39.8660 N   0  0  0  0  0  0  0  0  0  0  0  0
   42.2880   32.8970   39.6200 C   0  0  0  0  0  0  0  0  0  0  0  0
   42.1750   32.3880   38.3670 N   0  0  0  0  0  0  0  0  0  0  0  0
   42.9710   32.2350   36.3970 H   0  0  0  0  0  0  0  0  0  0  0  0
   44.9090   33.7030   36.9350 H   0  0  0  0  0  0  0  0  0  0  0  0
   45.1240   34.6410   39.2360 H   0  0  0  0  0  0  0  0  0  0  0  0
   37.0540   30.5800   39.2950 O   0  0  0  0  0  0  0  0  0  0  0  0
   34.7680   29.3580   39.6050 O   0  0  0  0  0  0  0  0  0  0  0  0
   35.9910   29.8390   40.3800 P   0  0  2  0  0  0  0  0  0  0  0  0
   35.5610   30.9330   41.5540 O   0  0  0  0  0  0  0  0  0  0  0  0
   36.3240   31.0480   42.1660 H   0  0  0  0  0  0  0  0  0  0  0  0
   36.6810   28.4530   41.0820 O   0  0  0  0  0  0  0  0  0  0  0  0
   37.0160   28.4120   42.4200 C   0  0  0  0  0  0  0  0  0  0  0  0
   36.8500   27.6150   43.1450 H   0  0  0  0  0  0  0  0  0  0  0  0
   37.5820   29.4940   42.7270 O   0  0  0  0  0  0  0  0  0  0  0  0
  2  1  1  0  0  0  0
  2  3  1  0  0  0  0
  3 11  1  0  0  0  0
  4  3  2  0  0  0  0
  4  8  1  0  0  0  0
  5  4  1  0  0  0  0
  6  7  1  0  0  0  0
  6  5  2  0  0  0  0
  7  2  2  0  0  0  0
  9  5  1  0  0  0  0
 10  6  1  0  0  0  0
 11 13  1  0  0  0  0
 11 12  1  0  0  0  0
 14 15  2  0  0  0  0
 14 19  1  0  0  0  0
 15 16  1  0  0  0  0
 16 22  1  0  0  0  0
 16 17  2  0  0  0  0
 18 17  1  0  0  0  0
 18 11  1  0  0  0  0
 19 18  2  0  0  0  0
 20 14  1  0  0  0  0
 21 15  1  0  0  0  0
 23  7  1  0  0  0  0
 23 25  1  0  0  0  0
 25 24  2  6  0  0  0
 25 28  1  0  0  0  0
 25 26  1  0  0  0  0
 26 27  1  0  0  0  0
 28 29  1  0  0  0  0
 29 31  2  0  0  0  0
 29 30  1  0  0  0  0
M  END
>  <minimizedAffinity>
-4.81718159

$$$$

 OpenBabel03252502573D

 31 32  0  0  0  0  0  0  0  0999 V2000
   39.9250   31.0530   42.2940 Br  0  0  0  0  0  0  0  0  0  0  0  0
   38.3210   30.7170   41.2770 C   0  0  0  0  0  0  0  0  0  0  0  0
   37.4490   29.8180   41.8250 C   0  0  0  0  0  0  0  0  0  0  0  0
   36.2930   29.5900   41.0680 C   0  0  0  0  0  0  0  0  0  0  0  0
   36.0400   30.2110   39.8710 C   0  0  0  0  0  0  0  0  0  0  0  0
   36.9590   31.1030   39.3800 C   0  0  0  0  0  0  0  0  0  0  0  0
   38.1170   31.3630   40.0870 C   0  0  0  0  0  0  0  0  0  0  0  0
   35.5450   28.8900   41.4290 H   0  0  0  0  0  0  0  0  0  0  0  0
   35.1330   30.0080   39.3140 H   0  0  0  0  0  0  0  0  0  0  0  0
   36.7500   31.5860   38.4350 H   0  0  0  0  0  0  0  0  0  0  0  0
   37.5920   29.0870   43.0840 C   0  0  0  0  0  0  0  0  0  0  0  0
   38.1540   29.7060   43.8370 H   0  0  0  0  0  0  0  0  0  0  0  0
   36.5740   28.9740   43.5200 H   0  0  0  0  0  0  0  0  0  0  0  0
   38.1180   25.4880   42.2540 C   0  0  0  0  0  0  0  0  0  0  0  0
   39.4070   25.2730   42.7290 C   0  0  0  0  0  0  0  0  0  0  0  0
   40.0870   26.3410   43.3230 C   0  0  0  0  0  0  0  0  0  0  0  0
   39.4550   27.5280   43.4060 N   0  0  0  0  0  0  0  0  0  0  0  0
   38.1880   27.7410   42.9400 C   0  0  0  0  0  0  0  0  0  0  0  0
   37.5580   26.6830   42.3700 N   0  0  0  0  0  0  0  0  0  0  0  0
   37.6240   24.6320   41.7990 H   0  0  0  0  0  0  0  0  0  0  0  0
   39.9350   24.3350   42.6750 H   0  0  0  0  0  0  0  0  0  0  0  0
   41.0980   26.2740   43.7250 H   0  0  0  0  0  0  0  0  0  0  0  0
   39.0500   32.2710   39.5850 O   0  0  0  0  0  0  0  0  0  0  0  0
   41.4180   32.7450   38.5940 O   0  0  0  0  0  0  0  0  0  0  0  0
   40.1710   31.8940   38.3780 P   0  0  2  0  0  0  0  0  0  0  0  0
   39.4930   32.1950   36.8920 O   0  0  0  0  0  0  0  0  0  0  0  0
   38.8390   31.4850   36.6990 H   0  0  0  0  0  0  0  0  0  0  0  0
   40.6800   30.2750   38.4830 O   0  0  0  0  0  0  0  0  0  0  0  0
   40.4080   29.3670   37.4800 C   0  0  0  0  0  0  0  0  0  0  0  0
   41.1040   28.8040   36.8560 H   0  0  0  0  0  0  0  0  0  0  0  0
   39.1600   29.2570   37.3630 O   0  0  0  0  0  0  0  0  0  0  0  0
  2  3  1  0  0  0  0
  2  1  1  0  0  0  0
  3 11  1  0  0  0  0
  4  8  1  0  0  0  0
  4  3  2  0  0  0  0
  5  4  1  0  0  0  0
  6  5  2  0  0  0  0
  6  7  1  0  0  0  0
  7  2  2  0  0  0  0
  9  5  1  0  0  0  0
 10  6  1  0  0  0  0
 11 13  1  0  0  0  0
 11 12  1  0  0  0  0
 14 19  2  0  0  0  0
 14 15  1  0  0  0  0
 15 16  2  0  0  0  0
 16 17  1  0  0  0  0
 16 22  1  0  0  0  0
 18 11  1  0  0  0  0
 18 17  2  0  0  0  0
 19 18  1  0  0  0  0
 20 14  1  0  0  0  0
 21 15  1  0  0  0  0
 23  7  1  0  0  0  0
 25 28  1  0  0  0  0
 25 24  2  1  0  0  0
 25 23  1  0  0  0  0
 26 25  1  0  0  0  0
 27 26  1  0  0  0  0
 29 28  1  0  0  0  0
 30 29  1  0  0  0  0
 31 29  2  0  0  0  0
M  END
>  <minimizedAffinity>
-4.78757191

$$$$

 OpenBabel03252502573D

 31 32  0  0  0  0  0  0  0  0999 V2000
   39.6150   27.9720   39.5150 Br  0  0  0  0  0  0  0  0  0  0  0  0
   38.6870   28.0990   41.2010 C   0  0  0  0  0  0  0  0  0  0  0  0
   38.8700   29.2650   41.8910 C   0  0  0  0  0  0  0  0  0  0  0  0
   38.1860   29.3340   43.1120 C   0  0  0  0  0  0  0  0  0  0  0  0
   37.3930   28.3220   43.5910 C   0  0  0  0  0  0  0  0  0  0  0  0
   37.2540   27.1790   42.8450 C   0  0  0  0  0  0  0  0  0  0  0  0
   37.9070   27.0600   41.6340 C   0  0  0  0  0  0  0  0  0  0  0  0
   38.2750   30.2250   43.7270 H   0  0  0  0  0  0  0  0  0  0  0  0
   36.8790   28.4120   44.5410 H   0  0  0  0  0  0  0  0  0  0  0  0
   36.6260   26.3880   43.2320 H   0  0  0  0  0  0  0  0  0  0  0  0
   39.6820   30.4170   41.5020 C   0  0  0  0  0  0  0  0  0  0  0  0
   40.2810   30.7900   42.3770 H   0  0  0  0  0  0  0  0  0  0  0  0
   40.4440   30.0560   40.7750 H   0  0  0  0  0  0  0  0  0  0  0  0
   38.4950   33.7900   40.4360 C   0  0  0  0  0  0  0  0  0  0  0  0
   37.4090   33.4670   39.6300 C   0  0  0  0  0  0  0  0  0  0  0  0
   37.0880   32.1170   39.4510 C   0  0  0  0  0  0  0  0  0  0  0  0
   37.8490   31.1960   40.0740 N   0  0  0  0  0  0  0  0  0  0  0  0
   38.9160   31.5120   40.8670 C   0  0  0  0  0  0  0  0  0  0  0  0
   39.1990   32.8310   41.0180 N   0  0  0  0  0  0  0  0  0  0  0  0
   38.7110   34.8500   40.5490 H   0  0  0  0  0  0  0  0  0  0  0  0
   36.7840   34.1830   39.1210 H   0  0  0  0  0  0  0  0  0  0  0  0
   36.2590   31.7620   38.8400 H   0  0  0  0  0  0  0  0  0  0  0  0
   37.7640   25.8960   40.8770 O   0  0  0  0  0  0  0  0  0  0  0  0
   38.5470   23.5960   39.9230 O   0  0  0  0  0  0  0  0  0  0  0  0
   38.6320   24.4760   41.1670 P   0  0  2  0  0  0  0  0  0  0  0  0
   37.9870   23.7040   42.4890 O   0  0  0  0  0  0  0  0  0  0  0  0
   38.2560   24.1960   43.2980 H   0  0  0  0  0  0  0  0  0  0  0  0
   40.2840   24.7920   41.4100 O   0  0  0  0  0  0  0  0  0  0  0  0
   40.7380   25.4280   42.5480 C   0  0  0  0  0  0  0  0  0  0  0  0
   41.4840   26.2180   42.6420 H   0  0  0  0  0  0  0  0  0  0  0  0
   40.1370   24.9470   43.5440 O   0  0  0  0  0  0  0  0  0  0  0  0
  1  2  1  0  0  0  0
  2  7  2  0  0  0  0
  2  3  1  0  0  0  0
  3  4  2  0  0  0  0
  4  5  1  0  0  0  0
  4  8  1  0  0  0  0
  5  9  1  0  0  0  0
  6 10  1  0  0  0  0
  6  5  2  0  0  0  0
  7  6  1  0  0  0  0
 11  3  1  0  0  0  0
 11 12  1  0  0  0  0
 13 11  1  0  0  0  0
 14 20  1  0  0  0  0
 14 19  1  0  0  0  0
 15 14  2  0  0  0  0
 16 15  1  0  0  0  0
 16 17  2  0  0  0  0
 17 18  1  0  0  0  0
 18 19  2  0  0  0  0
 18 11  1  0  0  0  0
 21 15  1  0  0  0  0
 22 16  1  0  0  0  0
 23 25  1  0  0  0  0
 23  7  1  0  0  0  0
 25 24  2  6  0  0  0
 25 28  1  0  0  0  0
 25 26  1  0  0  0  0
 26 27  1  0  0  0  0
 28 29  1  0  0  0  0
 29 30  1  0  0  0  0
 29 31  2  0  0  0  0
M  END
>  <minimizedAffinity>
-4.7765131

$$$$

 OpenBabel03252502573D

 31 32  0  0  0  0  0  0  0  0999 V2000
   37.3450   32.0340   39.1200 Br  0  0  0  0  0  0  0  0  0  0  0  0
   38.7210   31.6520   40.4160 C   0  0  0  0  0  0  0  0  0  0  0  0
   38.3650   30.7990   41.4230 C   0  0  0  0  0  0  0  0  0  0  0  0
   39.3810   30.5370   42.3520 C   0  0  0  0  0  0  0  0  0  0  0  0
   40.6370   31.0830   42.2710 C   0  0  0  0  0  0  0  0  0  0  0  0
   40.9250   31.9310   41.2310 C   0  0  0  0  0  0  0  0  0  0  0  0
   39.9590   32.2230   40.2890 C   0  0  0  0  0  0  0  0  0  0  0  0
   39.1860   29.8690   43.1860 H   0  0  0  0  0  0  0  0  0  0  0  0
   41.3980   30.8560   43.0090 H   0  0  0  0  0  0  0  0  0  0  0  0
   41.9180   32.3560   41.1780 H   0  0  0  0  0  0  0  0  0  0  0  0
   37.0720   30.1490   41.6300 C   0  0  0  0  0  0  0  0  0  0  0  0
   36.5840   30.5330   42.5680 H   0  0  0  0  0  0  0  0  0  0  0  0
   36.3980   30.4810   40.8080 H   0  0  0  0  0  0  0  0  0  0  0  0
   37.4990   26.6030   40.5520 C   0  0  0  0  0  0  0  0  0  0  0  0
   37.1930   25.9120   41.7200 C   0  0  0  0  0  0  0  0  0  0  0  0
   36.8480   26.6470   42.8590 C   0  0  0  0  0  0  0  0  0  0  0  0
   36.8270   27.9910   42.7650 N   0  0  0  0  0  0  0  0  0  0  0  0
   37.1270   28.6710   41.6180 C   0  0  0  0  0  0  0  0  0  0  0  0
   37.4570   27.9260   40.5330 N   0  0  0  0  0  0  0  0  0  0  0  0
   37.7630   25.9950   39.6890 H   0  0  0  0  0  0  0  0  0  0  0  0
   37.2030   24.8390   41.8210 H   0  0  0  0  0  0  0  0  0  0  0  0
   36.5930   26.2000   43.8200 H   0  0  0  0  0  0  0  0  0  0  0  0
   40.2550   33.0870   39.2330 O   0  0  0  0  0  0  0  0  0  0  0  0
   42.0350   33.6630   37.4140 O   0  0  0  0  0  0  0  0  0  0  0  0
   41.0150   32.5980   37.8060 P   0  0  2  0  0  0  0  0  0  0  0  0
   39.8700   32.4020   36.6180 O   0  0  0  0  0  0  0  0  0  0  0  0
   39.3740   31.5720   36.8000 H   0  0  0  0  0  0  0  0  0  0  0  0
   41.8950   31.1610   38.0280 O   0  0  0  0  0  0  0  0  0  0  0  0
   41.4640   29.9620   37.4970 C   0  0  0  0  0  0  0  0  0  0  0  0
   42.0370   29.2010   36.9650 H   0  0  0  0  0  0  0  0  0  0  0  0
   40.2320   29.8430   37.7210 O   0  0  0  0  0  0  0  0  0  0  0  0
  1  2  1  0  0  0  0
  2  3  1  0  0  0  0
  3 11  1  0  0  0  0
  3  4  2  0  0  0  0
  4  8  1  0  0  0  0
  5  4  1  0  0  0  0
  5  9  1  0  0  0  0
  6  5  2  0  0  0  0
  7  2  2  0  0  0  0
  7  6  1  0  0  0  0
 10  6  1  0  0  0  0
 11 12  1  0  0  0  0
 13 11  1  0  0  0  0
 14 15  1  0  0  0  0
 15 21  1  0  0  0  0
 15 16  2  0  0  0  0
 16 22  1  0  0  0  0
 17 16  1  0  0  0  0
 18 11  1  0  0  0  0
 18 17  2  0  0  0  0
 19 14  2  0  0  0  0
 19 18  1  0  0  0  0
 20 14  1  0  0  0  0
 23  7  1  0  0  0  0
 25 24  2  6  0  0  0
 25 28  1  0  0  0  0
 25 23  1  0  0  0  0
 26 27  1  0  0  0  0
 26 25  1  0  0  0  0
 29 31  2  0  0  0  0
 29 28  1  0  0  0  0
 30 29  1  0  0  0  0
M  END
>  <minimizedAffinity>
-4.75638628

$$$$

 OpenBabel03252502573D

 31 32  0  0  0  0  0  0  0  0999 V2000
   39.3890   28.1660   39.3110 Br  0  0  0  0  0  0  0  0  0  0  0  0
   38.7410   28.0130   41.1210 C   0  0  0  0  0  0  0  0  0  0  0  0
   38.8420   26.7710   41.6830 C   0  0  0  0  0  0  0  0  0  0  0  0
   38.3640   26.6850   42.9980 C   0  0  0  0  0  0  0  0  0  0  0  0
   37.8360   27.7520   43.6800 C   0  0  0  0  0  0  0  0  0  0  0  0
   37.7650   28.9700   43.0530 C   0  0  0  0  0  0  0  0  0  0  0  0
   38.2220   29.1090   41.7570 C   0  0  0  0  0  0  0  0  0  0  0  0
   38.4060   25.7350   43.5220 H   0  0  0  0  0  0  0  0  0  0  0  0
   37.4760   27.6460   44.6970 H   0  0  0  0  0  0  0  0  0  0  0  0
   37.3460   29.8040   43.6000 H   0  0  0  0  0  0  0  0  0  0  0  0
   39.3800   25.5550   41.0750 C   0  0  0  0  0  0  0  0  0  0  0  0
   40.1560   25.8110   40.3030 H   0  0  0  0  0  0  0  0  0  0  0  0
   39.9420   25.0090   41.8660 H   0  0  0  0  0  0  0  0  0  0  0  0
   36.2890   24.2210   39.4670 C   0  0  0  0  0  0  0  0  0  0  0  0
   36.5030   22.8490   39.5350 C   0  0  0  0  0  0  0  0  0  0  0  0
   37.6860   22.3860   40.1200 C   0  0  0  0  0  0  0  0  0  0  0  0
   38.5600   23.2970   40.5910 N   0  0  0  0  0  0  0  0  0  0  0  0
   38.3510   24.6460   40.5250 C   0  0  0  0  0  0  0  0  0  0  0  0
   37.1930   25.0600   39.9510 N   0  0  0  0  0  0  0  0  0  0  0  0
   35.3570   24.5410   39.0040 H   0  0  0  0  0  0  0  0  0  0  0  0
   35.8220   22.1000   39.1650 H   0  0  0  0  0  0  0  0  0  0  0  0
   37.9470   21.3330   40.2200 H   0  0  0  0  0  0  0  0  0  0  0  0
   38.1490   30.3500   41.1220 O   0  0  0  0  0  0  0  0  0  0  0  0
   37.0640   32.3180   39.7950 O   0  0  0  0  0  0  0  0  0  0  0  0
   36.7480   30.9500   40.3940 P   0  0  2  0  0  0  0  0  0  0  0  0
   35.5450   31.0610   41.5340 O   0  0  0  0  0  0  0  0  0  0  0  0
   35.2190   30.1530   41.7300 H   0  0  0  0  0  0  0  0  0  0  0  0
   36.2500   29.9710   39.0960 O   0  0  0  0  0  0  0  0  0  0  0  0
   35.4570   28.8590   39.2940 C   0  0  0  0  0  0  0  0  0  0  0  0
   35.6830   27.8100   39.0960 H   0  0  0  0  0  0  0  0  0  0  0  0
   34.3540   29.2310   39.7710 O   0  0  0  0  0  0  0  0  0  0  0  0
  1  2  1  0  0  0  0
  2  3  2  0  0  0  0
  2  7  1  0  0  0  0
  3  4  1  0  0  0  0
  4  8  1  0  0  0  0
  4  5  2  0  0  0  0
  5  9  1  0  0  0  0
  6 10  1  0  0  0  0
  6  5  1  0  0  0  0
  7  6  2  0  0  0  0
 11  3  1  0  0  0  0
 11 13  1  0  0  0  0
 12 11  1  0  0  0  0
 14 15  2  0  0  0  0
 14 19  1  0  0  0  0
 15 16  1  0  0  0  0
 16 22  1  0  0  0  0
 16 17  2  0  0  0  0
 18 17  1  0  0  0  0
 18 11  1  0  0  0  0
 19 18  2  0  0  0  0
 20 14  1  0  0  0  0
 21 15  1  0  0  0  0
 23  7  1  0  0  0  0
 25 24  2  6  0  0  0
 25 23  1  0  0  0  0
 25 26  1  0  0  0  0
 26 27  1  0  0  0  0
 28 29  1  0  0  0  0
 28 25  1  0  0  0  0
 29 31  2  0  0  0  0
 30 29  1  0  0  0  0
M  END
>  <minimizedAffinity>
-4.7427659

$$$$

 OpenBabel03252502573D

 31 32  0  0  0  0  0  0  0  0999 V2000
   36.5950   26.5170   39.6570 Br  0  0  0  0  0  0  0  0  0  0  0  0
   37.1070   27.3860   41.3010 C   0  0  0  0  0  0  0  0  0  0  0  0
   36.9930   28.7490   41.3110 C   0  0  0  0  0  0  0  0  0  0  0  0
   37.3710   29.3580   42.5150 C   0  0  0  0  0  0  0  0  0  0  0  0
   37.8200   28.6580   43.6060 C   0  0  0  0  0  0  0  0  0  0  0  0
   37.9090   27.2910   43.5250 C   0  0  0  0  0  0  0  0  0  0  0  0
   37.5500   26.6410   42.3610 C   0  0  0  0  0  0  0  0  0  0  0  0
   37.3120   30.4380   42.6110 H   0  0  0  0  0  0  0  0  0  0  0  0
   38.1040   29.1640   44.5210 H   0  0  0  0  0  0  0  0  0  0  0  0
   38.2650   26.7500   44.3910 H   0  0  0  0  0  0  0  0  0  0  0  0
   36.5320   29.6160   40.2260 C   0  0  0  0  0  0  0  0  0  0  0  0
   36.3660   29.0180   39.2890 H   0  0  0  0  0  0  0  0  0  0  0  0
   35.5210   29.9870   40.5060 H   0  0  0  0  0  0  0  0  0  0  0  0
   37.8650   33.0950   40.0220 C   0  0  0  0  0  0  0  0  0  0  0  0
   39.1160   32.8860   39.4510 C   0  0  0  0  0  0  0  0  0  0  0  0
   39.4990   31.5770   39.1420 C   0  0  0  0  0  0  0  0  0  0  0  0
   38.6320   30.5820   39.4120 N   0  0  0  0  0  0  0  0  0  0  0  0
   37.4030   30.7850   39.9730 C   0  0  0  0  0  0  0  0  0  0  0  0
   37.0640   32.0670   40.2600 N   0  0  0  0  0  0  0  0  0  0  0  0
   37.6060   34.1270   40.2490 H   0  0  0  0  0  0  0  0  0  0  0  0
   39.8270   33.6640   39.2250 H   0  0  0  0  0  0  0  0  0  0  0  0
   40.4560   31.3100   38.6940 H   0  0  0  0  0  0  0  0  0  0  0  0
   37.6410   25.2510   42.2820 O   0  0  0  0  0  0  0  0  0  0  0  0
   38.8210   23.4410   40.8180 O   0  0  0  0  0  0  0  0  0  0  0  0
   39.0770   24.4220   41.9580 P   0  0  2  0  0  0  0  0  0  0  0  0
   39.5690   23.6270   43.3310 O   0  0  0  0  0  0  0  0  0  0  0  0
   39.9330   24.2900   43.9610 H   0  0  0  0  0  0  0  0  0  0  0  0
   40.2950   25.4730   41.4100 O   0  0  0  0  0  0  0  0  0  0  0  0
   41.4670   25.6510   42.1180 C   0  0  0  0  0  0  0  0  0  0  0  0
   42.4980   25.5520   41.7760 H   0  0  0  0  0  0  0  0  0  0  0  0
   41.1780   25.9680   43.3010 O   0  0  0  0  0  0  0  0  0  0  0  0
  1  2  1  0  0  0  0
  2  3  2  0  0  0  0
  2  7  1  0  0  0  0
  3  4  1  0  0  0  0
  4  8  1  0  0  0  0
  4  5  2  0  0  0  0
  5  9  1  0  0  0  0
  6  5  1  0  0  0  0
  6 10  1  0  0  0  0
  7  6  2  0  0  0  0
 11 13  1  0  0  0  0
 11  3  1  0  0  0  0
 12 11  1  0  0  0  0
 14 20  1  0  0  0  0
 14 19  1  0  0  0  0
 15 14  2  0  0  0  0
 16 17  2  0  0  0  0
 16 15  1  0  0  0  0
 17 18  1  0  0  0  0
 18 11  1  0  0  0  0
 18 19  2  0  0  0  0
 21 15  1  0  0  0  0
 22 16  1  0  0  0  0
 23  7  1  0  0  0  0
 25 24  2  6  0  0  0
 25 23  1  0  0  0  0
 25 26  1  0  0  0  0
 26 27  1  0  0  0  0
 28 25  1  0  0  0  0
 28 29  1  0  0  0  0
 29 31  2  0  0  0  0
 30 29  1  0  0  0  0
M  END
>  <minimizedAffinity>
-4.7410841

$$$$

 OpenBabel03252502573D

 31 32  0  0  0  0  0  0  0  0999 V2000
   37.3270   28.0930   43.6040 Br  0  0  0  0  0  0  0  0  0  0  0  0
   36.9010   27.6450   41.7770 C   0  0  0  0  0  0  0  0  0  0  0  0
   36.4610   28.6800   41.0000 C   0  0  0  0  0  0  0  0  0  0  0  0
   36.1570   28.3300   39.6780 C   0  0  0  0  0  0  0  0  0  0  0  0
   36.2880   27.0560   39.1860 C   0  0  0  0  0  0  0  0  0  0  0  0
   36.7370   26.0650   40.0220 C   0  0  0  0  0  0  0  0  0  0  0  0
   37.0490   26.3570   41.3350 C   0  0  0  0  0  0  0  0  0  0  0  0
   35.8000   29.0910   38.9900 H   0  0  0  0  0  0  0  0  0  0  0  0
   36.0430   26.8230   38.1560 H   0  0  0  0  0  0  0  0  0  0  0  0
   36.8350   25.0640   39.6230 H   0  0  0  0  0  0  0  0  0  0  0  0
   36.2750   30.0770   41.3920 C   0  0  0  0  0  0  0  0  0  0  0  0
   35.2200   30.4060   41.1870 H   0  0  0  0  0  0  0  0  0  0  0  0
   36.3740   30.1260   42.5000 H   0  0  0  0  0  0  0  0  0  0  0  0
   39.4260   31.9060   40.5870 C   0  0  0  0  0  0  0  0  0  0  0  0
   38.9940   32.7980   39.6110 C   0  0  0  0  0  0  0  0  0  0  0  0
   37.6480   32.7750   39.2330 C   0  0  0  0  0  0  0  0  0  0  0  0
   36.8350   31.8860   39.8370 N   0  0  0  0  0  0  0  0  0  0  0  0
   37.2570   31.0090   40.7960 C   0  0  0  0  0  0  0  0  0  0  0  0
   38.5690   31.0600   41.1390 N   0  0  0  0  0  0  0  0  0  0  0  0
   40.4800   31.9560   40.8520 H   0  0  0  0  0  0  0  0  0  0  0  0
   39.6230   33.5180   39.1130 H   0  0  0  0  0  0  0  0  0  0  0  0
   37.2130   33.4310   38.4800 H   0  0  0  0  0  0  0  0  0  0  0  0
   37.5050   25.3470   42.1840 O   0  0  0  0  0  0  0  0  0  0  0  0
   38.3900   23.2070   40.9790 O   0  0  0  0  0  0  0  0  0  0  0  0
   38.8450   24.3750   41.8500 P   0  0  2  0  0  0  0  0  0  0  0  0
   39.4960   23.8350   43.2800 O   0  0  0  0  0  0  0  0  0  0  0  0
   39.9730   24.5830   43.7060 H   0  0  0  0  0  0  0  0  0  0  0  0
   40.0140   25.2120   40.9430 O   0  0  0  0  0  0  0  0  0  0  0  0
   40.9610   26.0120   41.5490 C   0  0  0  0  0  0  0  0  0  0  0  0
   41.9540   26.2920   41.1930 H   0  0  0  0  0  0  0  0  0  0  0  0
   40.5050   26.4110   42.6520 O   0  0  0  0  0  0  0  0  0  0  0  0
  2  1  1  0  0  0  0
  3 11  1  0  0  0  0
  3  2  2  0  0  0  0
  4  3  1  0  0  0  0
  5  4  2  0  0  0  0
  5  6  1  0  0  0  0
  6  7  2  0  0  0  0
  7  2  1  0  0  0  0
  7 23  1  0  0  0  0
  8  4  1  0  0  0  0
  9  5  1  0  0  0  0
 10  6  1  0  0  0  0
 11 13  1  0  0  0  0
 12 11  1  0  0  0  0
 14 20  1  0  0  0  0
 14 19  1  0  0  0  0
 15 14  2  0  0  0  0
 16 15  1  0  0  0  0
 16 17  2  0  0  0  0
 17 18  1  0  0  0  0
 18 19  2  0  0  0  0
 18 11  1  0  0  0  0
 21 15  1  0  0  0  0
 22 16  1  0  0  0  0
 25 24  2  6  0  0  0
 25 23  1  0  0  0  0
 25 26  1  0  0  0  0
 26 27  1  0  0  0  0
 28 29  1  0  0  0  0
 28 25  1  0  0  0  0
 29 31  2  0  0  0  0
 30 29  1  0  0  0  0
M  END
>  <minimizedAffinity>
-4.71765995

$$$$

 OpenBabel03252502573D

 31 32  0  0  0  0  0  0  0  0999 V2000
   39.3880   28.6610   38.4420 Br  0  0  0  0  0  0  0  0  0  0  0  0
   38.5120   30.2000   39.2050 C   0  0  0  0  0  0  0  0  0  0  0  0
   37.2110   30.0130   39.5840 C   0  0  0  0  0  0  0  0  0  0  0  0
   36.5950   31.1450   40.1350 C   0  0  0  0  0  0  0  0  0  0  0  0
   37.2320   32.3500   40.2890 C   0  0  0  0  0  0  0  0  0  0  0  0
   38.5390   32.4660   39.8870 C   0  0  0  0  0  0  0  0  0  0  0  0
   39.1920   31.3810   39.3370 C   0  0  0  0  0  0  0  0  0  0  0  0
   35.5620   31.0860   40.4630 H   0  0  0  0  0  0  0  0  0  0  0  0
   36.7220   33.2040   40.7200 H   0  0  0  0  0  0  0  0  0  0  0  0
   39.0300   33.4210   40.0130 H   0  0  0  0  0  0  0  0  0  0  0  0
   36.4150   28.7910   39.4770 C   0  0  0  0  0  0  0  0  0  0  0  0
   35.3250   29.0400   39.3600 H   0  0  0  0  0  0  0  0  0  0  0  0
   36.6930   28.2960   38.5200 H   0  0  0  0  0  0  0  0  0  0  0  0
   36.7760   27.2630   42.8620 C   0  0  0  0  0  0  0  0  0  0  0  0
   37.0590   25.9390   42.5470 C   0  0  0  0  0  0  0  0  0  0  0  0
   37.1240   25.5720   41.1990 C   0  0  0  0  0  0  0  0  0  0  0  0
   36.9100   26.5260   40.2710 N   0  0  0  0  0  0  0  0  0  0  0  0
   36.6320   27.8280   40.5790 C   0  0  0  0  0  0  0  0  0  0  0  0
   36.5780   28.1480   41.8970 N   0  0  0  0  0  0  0  0  0  0  0  0
   36.7340   27.5070   43.9220 H   0  0  0  0  0  0  0  0  0  0  0  0
   37.2340   25.1570   43.2690 H   0  0  0  0  0  0  0  0  0  0  0  0
   37.3380   24.5620   40.8500 H   0  0  0  0  0  0  0  0  0  0  0  0
   40.5210   31.5020   38.9290 O   0  0  0  0  0  0  0  0  0  0  0  0
   41.6160   33.5800   37.7910 O   0  0  0  0  0  0  0  0  0  0  0  0
   40.9950   32.2220   37.4760 P   0  0  2  0  0  0  0  0  0  0  0  0
   39.6670   32.3870   36.4920 O   0  0  0  0  0  0  0  0  0  0  0  0
   39.4330   31.4990   36.1350 H   0  0  0  0  0  0  0  0  0  0  0  0
   42.2060   31.3180   36.6970 O   0  0  0  0  0  0  0  0  0  0  0  0
   43.0900   30.5320   37.4080 C   0  0  0  0  0  0  0  0  0  0  0  0
   43.1940   30.4200   38.4880 H   0  0  0  0  0  0  0  0  0  0  0  0
   43.8200   29.9100   36.5940 O   0  0  0  0  0  0  0  0  0  0  0  0
  1  2  1  0  0  0  0
  2  7  2  0  0  0  0
  2  3  1  0  0  0  0
  3  4  2  0  0  0  0
  4  5  1  0  0  0  0
  4  8  1  0  0  0  0
  5  9  1  0  0  0  0
  6 10  1  0  0  0  0
  6  5  2  0  0  0  0
  7  6  1  0  0  0  0
 11  3  1  0  0  0  0
 11 18  1  0  0  0  0
 12 11  1  0  0  0  0
 13 11  1  0  0  0  0
 14 20  1  0  0  0  0
 15 14  1  0  0  0  0
 15 21  1  0  0  0  0
 16 15  2  0  0  0  0
 17 18  2  0  0  0  0
 17 16  1  0  0  0  0
 18 19  1  0  0  0  0
 19 14  2  0  0  0  0
 22 16  1  0  0  0  0
 23  7  1  0  0  0  0
 25 24  2  1  0  0  0
 25 23  1  0  0  0  0
 26 25  1  0  0  0  0
 27 26  1  0  0  0  0
 28 29  1  0  0  0  0
 28 25  1  0  0  0  0
 29 30  1  0  0  0  0
 31 29  2  0  0  0  0
M  END
>  <minimizedAffinity>
-4.7135725

$$$$
