
 OpenBabel03252507103D

 30 31  0  0  1  0  0  0  0  0999 V2000
   38.5920   33.9820   40.1200 C   0  0  0  0  0  0  0  0  0  0  0  0
   39.9160   33.9880   39.6100 C   0  0  0  0  0  0  0  0  0  0  0  0
   40.6200   32.7980   39.6820 C   0  0  0  0  0  0  0  0  0  0  0  0
   40.0330   31.7080   40.2220 N   0  0  0  0  0  0  0  0  0  0  0  0
   38.7840   31.7230   40.6970 C   0  0  0  0  0  0  0  0  0  0  0  0
   38.0590   32.8720   40.6440 N   0  0  0  0  0  0  0  0  0  0  0  0
   38.0610   34.9010   40.0590 H   0  0  0  0  0  0  0  0  0  0  0  0
   40.3090   34.9070   39.1950 H   0  0  0  0  0  0  0  0  0  0  0  0
   36.7110   30.3150   40.8060 C   0  0  1  0  0  0  0  0  0  0  0  0
   38.1000   30.5690   41.3060 C   0  0  1  0  0  0  0  0  0  0  0  0
   38.7650   29.2600   40.8090 C   0  0  0  0  0  0  0  0  0  0  0  0
   37.8110   28.2960   40.8670 O   0  0  0  0  0  0  0  0  0  0  0  0
   36.5840   28.8520   41.2170 C   0  0  0  0  0  0  0  0  0  0  0  0
   36.7550   30.3330   39.6960 H   0  0  0  0  0  0  0  0  0  0  0  0
   38.1300   30.5690   42.4170 H   0  0  0  0  0  0  0  0  0  0  0  0
   39.1840   29.4430   39.8160 H   0  0  0  0  0  0  0  0  0  0  0  0
   39.5890   29.0830   41.5540 H   0  0  0  0  0  0  0  0  0  0  0  0
   35.8100   28.3900   40.5820 H   0  0  0  0  0  0  0  0  0  0  0  0
   36.3430   28.7460   42.2800 H   0  0  0  0  0  0  0  0  0  0  0  0
   35.7550   31.1360   41.3300 O   0  0  0  0  0  0  0  0  0  0  0  0
   35.2040   31.5150   40.5790 H   0  0  0  0  0  0  0  0  0  0  0  0
   41.9080   32.8220   39.1790 O   0  0  0  0  0  0  0  0  0  0  0  0
   41.0010   31.9170   36.8460 O   0  0  0  0  0  0  0  0  0  0  0  0
   42.1740   32.6470   37.4890 P   0  0  1  0  0  0  0  0  0  0  0  0
   42.3880   34.1570   36.8340 O   0  0  0  0  0  0  0  0  0  0  0  0
   43.1710   34.1810   36.2550 H   0  0  0  0  0  0  0  0  0  0  0  0
   43.5480   31.6830   37.3220 O   0  0  0  0  0  0  0  0  0  0  0  0
   43.5190   30.4490   36.6700 C   0  0  0  0  0  0  0  0  0  0  0  0
   43.4410   29.5710   37.2690 H   0  0  0  0  0  0  0  0  0  0  0  0
   43.5850   30.4410   35.3980 O   0  0  0  0  0  0  0  0  0  0  0  0
  1  6  1  0  0  0  0
  2  3  1  0  0  0  0
  2  1  2  0  0  0  0
  3  4  2  0  0  0  0
  4  5  1  0  0  0  0
  5 10  1  0  0  0  0
  6  5  2  0  0  0  0
  7  1  1  0  0  0  0
  8  2  1  0  0  0  0
  9 14  1  6  0  0  0
  9 13  1  0  0  0  0
  9 10  1  0  0  0  0
  9 20  1  0  0  0  0
 10 15  1  1  0  0  0
 11 12  1  0  0  0  0
 11 10  1  0  0  0  0
 11 17  1  0  0  0  0
 12 13  1  0  0  0  0
 13 19  1  0  0  0  0
 16 11  1  0  0  0  0
 18 13  1  0  0  0  0
 21 20  1  0  0  0  0
 22  3  1  0  0  0  0
 24 23  2  6  0  0  0
 24 22  1  0  0  0  0
 25 24  1  0  0  0  0
 26 25  1  0  0  0  0
 27 24  1  0  0  0  0
 28 29  1  0  0  0  0
 28 27  1  0  0  0  0
 30 28  2  0  0  0  0
M  END
>  <minimizedAffinity>
-4.95874262

$$$$

 OpenBabel03252507103D

 30 31  0  0  1  0  0  0  0  0999 V2000
   38.3930   27.7070   43.5420 C   0  0  0  0  0  0  0  0  0  0  0  0
   37.8130   28.9550   43.2010 C   0  0  0  0  0  0  0  0  0  0  0  0
   37.1400   29.0230   41.9920 C   0  0  0  0  0  0  0  0  0  0  0  0
   37.0670   27.9250   41.2080 N   0  0  0  0  0  0  0  0  0  0  0  0
   37.6210   26.7580   41.5480 C   0  0  0  0  0  0  0  0  0  0  0  0
   38.2890   26.6500   42.7280 N   0  0  0  0  0  0  0  0  0  0  0  0
   38.9070   27.6660   44.4730 H   0  0  0  0  0  0  0  0  0  0  0  0
   37.9210   29.7840   43.8880 H   0  0  0  0  0  0  0  0  0  0  0  0
   37.0520   24.3180   41.4220 C   0  0  1  0  0  0  0  0  0  0  0  0
   37.5810   25.5350   40.7280 C   0  0  1  0  0  0  0  0  0  0  0  0
   36.4800   25.6800   39.6470 C   0  0  0  0  0  0  0  0  0  0  0  0
   36.0660   24.4230   39.3470 O   0  0  0  0  0  0  0  0  0  0  0  0
   36.6740   23.4990   40.1920 C   0  0  0  0  0  0  0  0  0  0  0  0
   36.1000   24.6120   41.9160 H   0  0  0  0  0  0  0  0  0  0  0  0
   38.5410   25.3150   40.2130 H   0  0  0  0  0  0  0  0  0  0  0  0
   35.7040   26.3470   40.0340 H   0  0  0  0  0  0  0  0  0  0  0  0
   37.0160   26.1640   38.7850 H   0  0  0  0  0  0  0  0  0  0  0  0
   35.9100   22.7660   40.4980 H   0  0  0  0  0  0  0  0  0  0  0  0
   37.5450   23.0060   39.7470 H   0  0  0  0  0  0  0  0  0  0  0  0
   37.9380   23.7060   42.2610 O   0  0  0  0  0  0  0  0  0  0  0  0
   37.4910   23.5490   43.1480 H   0  0  0  0  0  0  0  0  0  0  0  0
   36.5800   30.2470   41.6760 O   0  0  0  0  0  0  0  0  0  0  0  0
   36.2370   30.5080   39.0480 O   0  0  0  0  0  0  0  0  0  0  0  0
   37.0370   31.0520   40.2260 P   0  0  1  0  0  0  0  0  0  0  0  0
   36.7930   32.6800   40.4320 O   0  0  0  0  0  0  0  0  0  0  0  0
   37.5710   33.1910   40.1460 H   0  0  0  0  0  0  0  0  0  0  0  0
   38.6630   30.6810   39.9710 O   0  0  0  0  0  0  0  0  0  0  0  0
   39.6950   31.3890   40.5900 C   0  0  0  0  0  0  0  0  0  0  0  0
   40.6610   31.3580   40.1390 H   0  0  0  0  0  0  0  0  0  0  0  0
   39.4270   32.0310   41.6560 O   0  0  0  0  0  0  0  0  0  0  0  0
  1  7  1  0  0  0  0
  2  1  1  0  0  0  0
  2  8  1  0  0  0  0
  3  2  2  0  0  0  0
  4  5  2  0  0  0  0
  4  3  1  0  0  0  0
  5  6  1  0  0  0  0
  6  1  2  0  0  0  0
  9 14  1  1  0  0  0
  9 20  1  0  0  0  0
 10 15  1  6  0  0  0
 10  9  1  0  0  0  0
 10  5  1  0  0  0  0
 11 16  1  0  0  0  0
 11 10  1  0  0  0  0
 12 11  1  0  0  0  0
 12 13  1  0  0  0  0
 13 18  1  0  0  0  0
 13  9  1  0  0  0  0
 17 11  1  0  0  0  0
 19 13  1  0  0  0  0
 20 21  1  0  0  0  0
 22  3  1  0  0  0  0
 24 23  2  6  0  0  0
 24 25  1  0  0  0  0
 24 22  1  0  0  0  0
 26 25  1  0  0  0  0
 27 24  1  0  0  0  0
 27 28  1  0  0  0  0
 28 30  2  0  0  0  0
 29 28  1  0  0  0  0
M  END
>  <minimizedAffinity>
-4.770432

$$$$

 OpenBabel03252507103D

 30 31  0  0  1  0  0  0  0  0999 V2000
   37.7470   29.0070   43.3760 C   0  0  0  0  0  0  0  0  0  0  0  0
   37.6460   27.5960   43.4820 C   0  0  0  0  0  0  0  0  0  0  0  0
   37.1710   26.9180   42.3710 C   0  0  0  0  0  0  0  0  0  0  0  0
   36.8310   27.6110   41.2620 N   0  0  0  0  0  0  0  0  0  0  0  0
   36.9340   28.9410   41.1830 C   0  0  0  0  0  0  0  0  0  0  0  0
   37.3980   29.6430   42.2520 N   0  0  0  0  0  0  0  0  0  0  0  0
   38.1140   29.5170   44.2340 H   0  0  0  0  0  0  0  0  0  0  0  0
   37.9390   27.1220   44.4090 H   0  0  0  0  0  0  0  0  0  0  0  0
   37.0990   31.1460   40.0010 C   0  0  1  0  0  0  0  0  0  0  0  0
   36.5680   29.7460   40.0050 C   0  0  1  0  0  0  0  0  0  0  0  0
   37.3250   29.2090   38.7650 C   0  0  0  0  0  0  0  0  0  0  0  0
   37.4580   30.2560   37.9110 O   0  0  0  0  0  0  0  0  0  0  0  0
   36.9930   31.4260   38.5050 C   0  0  0  0  0  0  0  0  0  0  0  0
   38.1830   31.0860   40.2400 H   0  0  0  0  0  0  0  0  0  0  0  0
   35.4810   29.7310   39.7780 H   0  0  0  0  0  0  0  0  0  0  0  0
   38.2640   28.7610   39.1020 H   0  0  0  0  0  0  0  0  0  0  0  0
   36.6390   28.4180   38.3570 H   0  0  0  0  0  0  0  0  0  0  0  0
   37.7030   32.2340   38.2630 H   0  0  0  0  0  0  0  0  0  0  0  0
   35.9720   31.6910   38.2110 H   0  0  0  0  0  0  0  0  0  0  0  0
   36.4120   32.0220   40.7910 O   0  0  0  0  0  0  0  0  0  0  0  0
   37.0670   32.5210   41.3690 H   0  0  0  0  0  0  0  0  0  0  0  0
   37.0790   25.5430   42.4920 O   0  0  0  0  0  0  0  0  0  0  0  0
   39.3190   25.3800   41.0620 O   0  0  0  0  0  0  0  0  0  0  0  0
   38.3180   24.5400   41.8460 P   0  0  1  0  0  0  0  0  0  0  0  0
   39.0460   23.7340   43.1020 O   0  0  0  0  0  0  0  0  0  0  0  0
   39.1290   22.7840   42.9080 H   0  0  0  0  0  0  0  0  0  0  0  0
   37.5610   23.4850   40.7700 O   0  0  0  0  0  0  0  0  0  0  0  0
   36.2700   23.7100   40.2880 C   0  0  0  0  0  0  0  0  0  0  0  0
   35.4780   23.1230   40.6940 H   0  0  0  0  0  0  0  0  0  0  0  0
   36.1090   24.6020   39.3940 O   0  0  0  0  0  0  0  0  0  0  0  0
  1  2  1  0  0  0  0
  1  7  1  0  0  0  0
  2  8  1  0  0  0  0
  3 22  1  0  0  0  0
  3  2  2  0  0  0  0
  4  3  1  0  0  0  0
  5  4  2  0  0  0  0
  5  6  1  0  0  0  0
  6  1  2  0  0  0  0
  9 10  1  0  0  0  0
  9 14  1  1  0  0  0
  9 20  1  0  0  0  0
 10 15  1  6  0  0  0
 10  5  1  0  0  0  0
 11 16  1  0  0  0  0
 11 10  1  0  0  0  0
 12 13  1  0  0  0  0
 12 11  1  0  0  0  0
 13  9  1  0  0  0  0
 17 11  1  0  0  0  0
 18 13  1  0  0  0  0
 19 13  1  0  0  0  0
 20 21  1  0  0  0  0
 24 23  2  6  0  0  0
 24 22  1  0  0  0  0
 24 25  1  0  0  0  0
 26 25  1  0  0  0  0
 27 24  1  0  0  0  0
 28 29  1  0  0  0  0
 28 27  1  0  0  0  0
 30 28  2  0  0  0  0
M  END
>  <minimizedAffinity>
-4.76429987

$$$$

 OpenBabel03252507103D

 30 31  0  0  1  0  0  0  0  0999 V2000
   37.6390   28.9560   43.3680 C   0  0  0  0  0  0  0  0  0  0  0  0
   37.5290   27.5440   43.4440 C   0  0  0  0  0  0  0  0  0  0  0  0
   37.1030   26.8880   42.3010 C   0  0  0  0  0  0  0  0  0  0  0  0
   36.8150   27.6020   41.1910 N   0  0  0  0  0  0  0  0  0  0  0  0
   36.9250   28.9320   41.1400 C   0  0  0  0  0  0  0  0  0  0  0  0
   37.3420   29.6140   42.2420 N   0  0  0  0  0  0  0  0  0  0  0  0
   37.9670   29.4500   44.2510 H   0  0  0  0  0  0  0  0  0  0  0  0
   37.7780   27.0520   44.3740 H   0  0  0  0  0  0  0  0  0  0  0  0
   37.0970   31.1760   40.0330 C   0  0  1  0  0  0  0  0  0  0  0  0
   36.6150   29.7600   39.9620 C   0  0  1  0  0  0  0  0  0  0  0  0
   37.4740   29.2850   38.7630 C   0  0  0  0  0  0  0  0  0  0  0  0
   37.6300   30.3600   37.9500 O   0  0  0  0  0  0  0  0  0  0  0  0
   37.0860   31.4960   38.5410 C   0  0  0  0  0  0  0  0  0  0  0  0
   38.1630   31.1430   40.3460 H   0  0  0  0  0  0  0  0  0  0  0  0
   35.5470   29.7170   39.6580 H   0  0  0  0  0  0  0  0  0  0  0  0
   38.4010   28.8560   39.1540 H   0  0  0  0  0  0  0  0  0  0  0  0
   36.8450   28.4840   38.2870 H   0  0  0  0  0  0  0  0  0  0  0  0
   37.7840   32.3330   38.3720 H   0  0  0  0  0  0  0  0  0  0  0  0
   36.0790   31.7370   38.1840 H   0  0  0  0  0  0  0  0  0  0  0  0
   36.3280   32.0050   40.7970 O   0  0  0  0  0  0  0  0  0  0  0  0
   36.9230   32.5080   41.4320 H   0  0  0  0  0  0  0  0  0  0  0  0
   37.0020   25.5110   42.3920 O   0  0  0  0  0  0  0  0  0  0  0  0
   37.5320   23.2100   41.1620 O   0  0  0  0  0  0  0  0  0  0  0  0
   38.1740   24.5120   41.6270 P   0  0  1  0  0  0  0  0  0  0  0  0
   38.8340   25.3560   40.3590 O   0  0  0  0  0  0  0  0  0  0  0  0
   39.8060   25.3050   40.3710 H   0  0  0  0  0  0  0  0  0  0  0  0
   39.3220   24.1390   42.8070 O   0  0  0  0  0  0  0  0  0  0  0  0
   40.4950   24.8790   42.9650 C   0  0  0  0  0  0  0  0  0  0  0  0
   41.2860   24.4430   43.5320 H   0  0  0  0  0  0  0  0  0  0  0  0
   40.5560   26.0310   42.4250 O   0  0  0  0  0  0  0  0  0  0  0  0
  1  2  1  0  0  0  0
  1  7  1  0  0  0  0
  2  8  1  0  0  0  0
  3 22  1  0  0  0  0
  3  2  2  0  0  0  0
  4  3  1  0  0  0  0
  5  4  2  0  0  0  0
  5  6  1  0  0  0  0
  6  1  2  0  0  0  0
  9 14  1  1  0  0  0
  9 20  1  0  0  0  0
 10 15  1  6  0  0  0
 10  9  1  0  0  0  0
 10  5  1  0  0  0  0
 11 16  1  0  0  0  0
 11 10  1  0  0  0  0
 12 13  1  0  0  0  0
 12 11  1  0  0  0  0
 13  9  1  0  0  0  0
 17 11  1  0  0  0  0
 18 13  1  0  0  0  0
 19 13  1  0  0  0  0
 20 21  1  0  0  0  0
 24 23  2  6  0  0  0
 24 22  1  0  0  0  0
 24 27  1  0  0  0  0
 25 26  1  0  0  0  0
 25 24  1  0  0  0  0
 27 28  1  0  0  0  0
 28 29  1  0  0  0  0
 30 28  2  0  0  0  0
M  END
>  <minimizedAffinity>
-4.64285612

$$$$

 OpenBabel03252507103D

 30 31  0  0  1  0  0  0  0  0999 V2000
   35.4630   28.9080   40.5550 C   0  0  0  0  0  0  0  0  0  0  0  0
   35.7520   30.2700   40.2860 C   0  0  0  0  0  0  0  0  0  0  0  0
   36.8350   30.8230   40.9490 C   0  0  0  0  0  0  0  0  0  0  0  0
   37.5520   30.0620   41.8040 N   0  0  0  0  0  0  0  0  0  0  0  0
   37.2630   28.7790   42.0440 C   0  0  0  0  0  0  0  0  0  0  0  0
   36.2080   28.1990   41.4110 N   0  0  0  0  0  0  0  0  0  0  0  0
   34.6300   28.4930   40.0390 H   0  0  0  0  0  0  0  0  0  0  0  0
   35.1240   30.8070   39.5870 H   0  0  0  0  0  0  0  0  0  0  0  0
   38.2970   26.5330   42.4580 C   0  0  1  0  0  0  0  0  0  0  0  0
   38.0030   27.9080   42.9720 C   0  0  1  0  0  0  0  0  0  0  0  0
   39.4590   28.4200   43.1030 C   0  0  0  0  0  0  0  0  0  0  0  0
   40.2200   27.3430   43.4240 O   0  0  0  0  0  0  0  0  0  0  0  0
   39.4530   26.1830   43.3900 C   0  0  0  0  0  0  0  0  0  0  0  0
   38.7290   26.6490   41.4410 H   0  0  0  0  0  0  0  0  0  0  0  0
   37.5610   27.8670   43.9910 H   0  0  0  0  0  0  0  0  0  0  0  0
   39.7320   28.9230   42.1710 H   0  0  0  0  0  0  0  0  0  0  0  0
   39.4050   29.1630   43.9450 H   0  0  0  0  0  0  0  0  0  0  0  0
   40.0520   25.3950   42.9020 H   0  0  0  0  0  0  0  0  0  0  0  0
   39.1000   25.8620   44.3750 H   0  0  0  0  0  0  0  0  0  0  0  0
   37.2450   25.6650   42.5090 O   0  0  0  0  0  0  0  0  0  0  0  0
   37.1460   25.2190   41.6140 H   0  0  0  0  0  0  0  0  0  0  0  0
   37.1020   32.1520   40.6740 O   0  0  0  0  0  0  0  0  0  0  0  0
   38.7580   34.1610   40.1160 O   0  0  0  0  0  0  0  0  0  0  0  0
   38.7210   32.6640   40.4020 P   0  0  1  0  0  0  0  0  0  0  0  0
   39.6250   32.2740   41.7380 O   0  0  0  0  0  0  0  0  0  0  0  0
   40.4530   31.8280   41.4840 H   0  0  0  0  0  0  0  0  0  0  0  0
   39.2490   31.8520   39.0200 O   0  0  0  0  0  0  0  0  0  0  0  0
   40.3380   30.9790   39.0380 C   0  0  0  0  0  0  0  0  0  0  0  0
   41.0360   31.0370   38.2350 H   0  0  0  0  0  0  0  0  0  0  0  0
   40.4370   30.1640   40.0110 O   0  0  0  0  0  0  0  0  0  0  0  0
  1  6  1  0  0  0  0
  2  1  2  0  0  0  0
  2  3  1  0  0  0  0
  3  4  2  0  0  0  0
  4  5  1  0  0  0  0
  5 10  1  0  0  0  0
  6  5  2  0  0  0  0
  7  1  1  0  0  0  0
  8  2  1  0  0  0  0
  9 14  1  6  0  0  0
  9 20  1  0  0  0  0
  9 10  1  0  0  0  0
  9 13  1  0  0  0  0
 10 11  1  0  0  0  0
 10 15  1  1  0  0  0
 11 12  1  0  0  0  0
 11 17  1  0  0  0  0
 13 12  1  0  0  0  0
 13 19  1  0  0  0  0
 16 11  1  0  0  0  0
 18 13  1  0  0  0  0
 21 20  1  0  0  0  0
 22  3  1  0  0  0  0
 24 23  2  6  0  0  0
 24 22  1  0  0  0  0
 24 25  1  0  0  0  0
 26 25  1  0  0  0  0
 27 28  1  0  0  0  0
 27 24  1  0  0  0  0
 28 30  2  0  0  0  0
 29 28  1  0  0  0  0
M  END
>  <minimizedAffinity>
-4.57734394

$$$$

 OpenBabel03252507103D

 30 31  0  0  1  0  0  0  0  0999 V2000
   37.6710   29.1110   37.7420 C   0  0  0  0  0  0  0  0  0  0  0  0
   37.1070   28.3820   38.8200 C   0  0  0  0  0  0  0  0  0  0  0  0
   37.0930   29.0050   40.0580 C   0  0  0  0  0  0  0  0  0  0  0  0
   37.6070   30.2490   40.1830 N   0  0  0  0  0  0  0  0  0  0  0  0
   38.1340   30.9180   39.1540 C   0  0  0  0  0  0  0  0  0  0  0  0
   38.1650   30.3410   37.9230 N   0  0  0  0  0  0  0  0  0  0  0  0
   37.6760   28.6230   36.7970 H   0  0  0  0  0  0  0  0  0  0  0  0
   36.7200   27.3900   38.6320 H   0  0  0  0  0  0  0  0  0  0  0  0
   38.1070   33.1630   40.2720 C   0  0  1  0  0  0  0  0  0  0  0  0
   38.7160   32.2690   39.2370 C   0  0  1  0  0  0  0  0  0  0  0  0
   40.1450   32.1740   39.8270 C   0  0  0  0  0  0  0  0  0  0  0  0
   40.3920   33.3640   40.4330 O   0  0  0  0  0  0  0  0  0  0  0  0
   39.2520   34.1610   40.4140 C   0  0  0  0  0  0  0  0  0  0  0  0
   38.0660   32.5850   41.2200 H   0  0  0  0  0  0  0  0  0  0  0  0
   38.7840   32.7840   38.2540 H   0  0  0  0  0  0  0  0  0  0  0  0
   40.1900   31.2990   40.4820 H   0  0  0  0  0  0  0  0  0  0  0  0
   40.7960   32.0190   38.9240 H   0  0  0  0  0  0  0  0  0  0  0  0
   39.1580   34.6420   41.4020 H   0  0  0  0  0  0  0  0  0  0  0  0
   39.2490   34.9020   39.6080 H   0  0  0  0  0  0  0  0  0  0  0  0
   36.9110   33.7180   39.9170 O   0  0  0  0  0  0  0  0  0  0  0  0
   36.2520   33.5740   40.6620 H   0  0  0  0  0  0  0  0  0  0  0  0
   36.5390   28.2810   41.0970 O   0  0  0  0  0  0  0  0  0  0  0  0
   38.9500   28.0570   42.2050 O   0  0  0  0  0  0  0  0  0  0  0  0
   37.4600   27.9740   42.5170 P   0  0  1  0  0  0  0  0  0  0  0  0
   37.0150   29.0750   43.6770 O   0  0  0  0  0  0  0  0  0  0  0  0
   36.8400   28.6360   44.5290 H   0  0  0  0  0  0  0  0  0  0  0  0
   37.1080   26.3890   42.9770 O   0  0  0  0  0  0  0  0  0  0  0  0
   37.0510   25.3410   42.0580 C   0  0  0  0  0  0  0  0  0  0  0  0
   36.2680   24.6260   42.1660 H   0  0  0  0  0  0  0  0  0  0  0  0
   37.9350   25.2970   41.1420 O   0  0  0  0  0  0  0  0  0  0  0  0
  1  6  2  0  0  0  0
  1  2  1  0  0  0  0
  2  3  2  0  0  0  0
  3  4  1  0  0  0  0
  3 22  1  0  0  0  0
  5 10  1  0  0  0  0
  5  4  2  0  0  0  0
  6  5  1  0  0  0  0
  7  1  1  0  0  0  0
  8  2  1  0  0  0  0
  9 13  1  0  0  0  0
  9 14  1  1  0  0  0
 10 15  1  6  0  0  0
 10 11  1  0  0  0  0
 10  9  1  0  0  0  0
 11 12  1  0  0  0  0
 11 16  1  0  0  0  0
 13 12  1  0  0  0  0
 13 18  1  0  0  0  0
 17 11  1  0  0  0  0
 19 13  1  0  0  0  0
 20  9  1  0  0  0  0
 20 21  1  0  0  0  0
 22 24  1  0  0  0  0
 24 23  2  6  0  0  0
 24 27  1  0  0  0  0
 24 25  1  0  0  0  0
 25 26  1  0  0  0  0
 28 29  1  0  0  0  0
 28 27  1  0  0  0  0
 30 28  2  0  0  0  0
M  END
>  <minimizedAffinity>
-4.56150055

$$$$

 OpenBabel03252507103D

 30 31  0  0  1  0  0  0  0  0999 V2000
   36.3670   27.5680   37.1540 C   0  0  0  0  0  0  0  0  0  0  0  0
   36.4420   26.5750   38.1640 C   0  0  0  0  0  0  0  0  0  0  0  0
   36.5240   27.0200   39.4730 C   0  0  0  0  0  0  0  0  0  0  0  0
   36.5300   28.3470   39.7270 N   0  0  0  0  0  0  0  0  0  0  0  0
   36.4590   29.2660   38.7600 C   0  0  0  0  0  0  0  0  0  0  0  0
   36.3750   28.8700   37.4610 N   0  0  0  0  0  0  0  0  0  0  0  0
   36.3030   27.2150   36.1520 H   0  0  0  0  0  0  0  0  0  0  0  0
   36.4320   25.5340   37.8720 H   0  0  0  0  0  0  0  0  0  0  0  0
   36.7770   31.1540   40.3800 C   0  0  1  0  0  0  0  0  0  0  0  0
   36.4730   30.7230   38.9790 C   0  0  1  0  0  0  0  0  0  0  0  0
   37.7110   31.3330   38.2770 C   0  0  0  0  0  0  0  0  0  0  0  0
   38.0240   32.4630   38.9600 O   0  0  0  0  0  0  0  0  0  0  0  0
   37.2190   32.5840   40.0890 C   0  0  0  0  0  0  0  0  0  0  0  0
   37.6830   30.5980   40.7040 H   0  0  0  0  0  0  0  0  0  0  0  0
   35.5680   31.2390   38.5910 H   0  0  0  0  0  0  0  0  0  0  0  0
   38.4980   30.5740   38.2460 H   0  0  0  0  0  0  0  0  0  0  0  0
   37.3440   31.5580   37.2380 H   0  0  0  0  0  0  0  0  0  0  0  0
   37.8560   32.9170   40.9260 H   0  0  0  0  0  0  0  0  0  0  0  0
   36.3640   33.2540   39.9480 H   0  0  0  0  0  0  0  0  0  0  0  0
   35.7310   31.0500   41.2520 O   0  0  0  0  0  0  0  0  0  0  0  0
   36.0420   30.5680   42.0770 H   0  0  0  0  0  0  0  0  0  0  0  0
   36.5960   26.0390   40.4450 O   0  0  0  0  0  0  0  0  0  0  0  0
   38.1860   24.8350   42.2090 O   0  0  0  0  0  0  0  0  0  0  0  0
   37.6990   26.2060   41.7550 P   0  0  1  0  0  0  0  0  0  0  0  0
   38.9560   27.1690   41.2590 O   0  0  0  0  0  0  0  0  0  0  0  0
   39.1450   27.8650   41.9140 H   0  0  0  0  0  0  0  0  0  0  0  0
   36.8280   26.9010   43.0220 O   0  0  0  0  0  0  0  0  0  0  0  0
   37.2600   28.0540   43.6790 C   0  0  0  0  0  0  0  0  0  0  0  0
   37.4660   27.9850   44.7230 H   0  0  0  0  0  0  0  0  0  0  0  0
   37.3860   29.1220   42.9970 O   0  0  0  0  0  0  0  0  0  0  0  0
  1  6  2  0  0  0  0
  1  2  1  0  0  0  0
  2  3  2  0  0  0  0
  3  4  1  0  0  0  0
  3 22  1  0  0  0  0
  5 10  1  0  0  0  0
  5  4  2  0  0  0  0
  6  5  1  0  0  0  0
  7  1  1  0  0  0  0
  8  2  1  0  0  0  0
  9 14  1  1  0  0  0
  9 20  1  0  0  0  0
 10 15  1  6  0  0  0
 10  9  1  0  0  0  0
 11 12  1  0  0  0  0
 11 10  1  0  0  0  0
 12 13  1  0  0  0  0
 13  9  1  0  0  0  0
 13 18  1  0  0  0  0
 16 11  1  0  0  0  0
 17 11  1  0  0  0  0
 19 13  1  0  0  0  0
 20 21  1  0  0  0  0
 22 24  1  0  0  0  0
 24 23  2  1  0  0  0
 24 27  1  0  0  0  0
 25 24  1  0  0  0  0
 25 26  1  0  0  0  0
 27 28  1  0  0  0  0
 28 29  1  0  0  0  0
 30 28  2  0  0  0  0
M  END
>  <minimizedAffinity>
-4.51167488

$$$$

 OpenBabel03252507103D

 30 31  0  0  1  0  0  0  0  0999 V2000
   40.1190   28.5340   42.7890 C   0  0  0  0  0  0  0  0  0  0  0  0
   40.7900   29.7540   42.5200 C   0  0  0  0  0  0  0  0  0  0  0  0
   40.0570   30.7440   41.8840 C   0  0  0  0  0  0  0  0  0  0  0  0
   38.7690   30.5100   41.5530 N   0  0  0  0  0  0  0  0  0  0  0  0
   38.1550   29.3520   41.8150 C   0  0  0  0  0  0  0  0  0  0  0  0
   38.8400   28.3560   42.4400 N   0  0  0  0  0  0  0  0  0  0  0  0
   40.6900   27.7820   43.2780 H   0  0  0  0  0  0  0  0  0  0  0  0
   41.8240   29.8560   42.8190 H   0  0  0  0  0  0  0  0  0  0  0  0
   36.0620   30.0750   40.6390 C   0  0  1  0  0  0  0  0  0  0  0  0
   36.7580   29.0400   41.4670 C   0  0  1  0  0  0  0  0  0  0  0  0
   36.7330   27.8750   40.4470 C   0  0  0  0  0  0  0  0  0  0  0  0
   35.5930   28.0170   39.7260 O   0  0  0  0  0  0  0  0  0  0  0  0
   34.9480   29.2010   40.0710 C   0  0  0  0  0  0  0  0  0  0  0  0
   36.7370   30.3250   39.7910 H   0  0  0  0  0  0  0  0  0  0  0  0
   36.1380   28.7460   42.3410 H   0  0  0  0  0  0  0  0  0  0  0  0
   37.6600   27.9060   39.8660 H   0  0  0  0  0  0  0  0  0  0  0  0
   36.7100   26.9560   41.0950 H   0  0  0  0  0  0  0  0  0  0  0  0
   34.5900   29.6750   39.1410 H   0  0  0  0  0  0  0  0  0  0  0  0
   34.1320   29.0630   40.7880 H   0  0  0  0  0  0  0  0  0  0  0  0
   35.6280   31.1680   41.3320 O   0  0  0  0  0  0  0  0  0  0  0  0
   35.9310   31.9990   40.8550 H   0  0  0  0  0  0  0  0  0  0  0  0
   40.7270   31.9270   41.6300 O   0  0  0  0  0  0  0  0  0  0  0  0
   42.0660   33.0030   39.5960 O   0  0  0  0  0  0  0  0  0  0  0  0
   40.6630   32.6300   40.0620 P   0  0  1  0  0  0  0  0  0  0  0  0
   39.9450   31.5460   39.0310 O   0  0  0  0  0  0  0  0  0  0  0  0
   39.2520   31.9740   38.4980 H   0  0  0  0  0  0  0  0  0  0  0  0
   39.7660   34.0500   40.2150 O   0  0  0  0  0  0  0  0  0  0  0  0
   38.3970   34.0420   40.4890 C   0  0  0  0  0  0  0  0  0  0  0  0
   38.0220   34.7660   41.1760 H   0  0  0  0  0  0  0  0  0  0  0  0
   37.6730   33.1730   39.9040 O   0  0  0  0  0  0  0  0  0  0  0  0
  1  7  1  0  0  0  0
  2  1  1  0  0  0  0
  2  8  1  0  0  0  0
  3  2  2  0  0  0  0
  4  5  2  0  0  0  0
  4  3  1  0  0  0  0
  5  6  1  0  0  0  0
  6  1  2  0  0  0  0
  9 14  1  6  0  0  0
  9 20  1  0  0  0  0
  9 10  1  0  0  0  0
 10  5  1  0  0  0  0
 10 15  1  1  0  0  0
 11 17  1  0  0  0  0
 11 10  1  0  0  0  0
 12 13  1  0  0  0  0
 12 11  1  0  0  0  0
 13  9  1  0  0  0  0
 13 19  1  0  0  0  0
 16 11  1  0  0  0  0
 18 13  1  0  0  0  0
 21 20  1  0  0  0  0
 22  3  1  0  0  0  0
 24 23  2  6  0  0  0
 24 27  1  0  0  0  0
 24 22  1  0  0  0  0
 25 24  1  0  0  0  0
 26 25  1  0  0  0  0
 27 28  1  0  0  0  0
 28 29  1  0  0  0  0
 30 28  2  0  0  0  0
M  END
>  <minimizedAffinity>
-4.49946308

$$$$

 OpenBabel03252507103D

 30 31  0  0  1  0  0  0  0  0999 V2000
   41.6300   28.4120   40.5340 C   0  0  0  0  0  0  0  0  0  0  0  0
   41.2190   29.0980   39.3630 C   0  0  0  0  0  0  0  0  0  0  0  0
   39.8660   29.3730   39.2420 C   0  0  0  0  0  0  0  0  0  0  0  0
   39.0170   28.9840   40.2180 N   0  0  0  0  0  0  0  0  0  0  0  0
   39.4250   28.3380   41.3140 C   0  0  0  0  0  0  0  0  0  0  0  0
   40.7460   28.0510   41.4710 N   0  0  0  0  0  0  0  0  0  0  0  0
   42.6700   28.2060   40.6170 H   0  0  0  0  0  0  0  0  0  0  0  0
   41.9660   29.3710   38.6310 H   0  0  0  0  0  0  0  0  0  0  0  0
   37.1390   28.3990   42.3420 C   0  0  1  0  0  0  0  0  0  0  0  0
   38.5430   27.8830   42.4020 C   0  0  1  0  0  0  0  0  0  0  0  0
   38.2410   26.3750   42.2190 C   0  0  0  0  0  0  0  0  0  0  0  0
   37.0370   26.1480   42.8010 O   0  0  0  0  0  0  0  0  0  0  0  0
   36.4710   27.3480   43.2220 C   0  0  0  0  0  0  0  0  0  0  0  0
   36.7720   28.2300   41.3060 H   0  0  0  0  0  0  0  0  0  0  0  0
   38.9770   28.0260   43.4150 H   0  0  0  0  0  0  0  0  0  0  0  0
   38.2950   26.1410   41.1510 H   0  0  0  0  0  0  0  0  0  0  0  0
   39.0790   25.8670   42.7720 H   0  0  0  0  0  0  0  0  0  0  0  0
   35.3990   27.3250   42.9650 H   0  0  0  0  0  0  0  0  0  0  0  0
   36.6210   27.5530   44.2880 H   0  0  0  0  0  0  0  0  0  0  0  0
   36.9810   29.6840   42.7750 O   0  0  0  0  0  0  0  0  0  0  0  0
   36.4560   30.1970   42.0880 H   0  0  0  0  0  0  0  0  0  0  0  0
   39.4830   30.0430   38.0940 O   0  0  0  0  0  0  0  0  0  0  0  0
   40.0550   32.3770   39.2420 O   0  0  0  0  0  0  0  0  0  0  0  0
   39.2130   31.7410   38.1410 P   0  0  1  0  0  0  0  0  0  0  0  0
   39.5790   32.3710   36.6500 O   0  0  0  0  0  0  0  0  0  0  0  0
   38.8730   32.9630   36.3360 H   0  0  0  0  0  0  0  0  0  0  0  0
   37.5860   31.9520   38.5370 O   0  0  0  0  0  0  0  0  0  0  0  0
   37.1640   32.2120   39.8420 C   0  0  0  0  0  0  0  0  0  0  0  0
   37.4510   33.1390   40.2830 H   0  0  0  0  0  0  0  0  0  0  0  0
   36.4590   31.3300   40.4310 O   0  0  0  0  0  0  0  0  0  0  0  0
  1  7  1  0  0  0  0
  1  6  1  0  0  0  0
  2  1  2  0  0  0  0
  3  2  1  0  0  0  0
  3  4  2  0  0  0  0
  4  5  1  0  0  0  0
  5  6  2  0  0  0  0
  5 10  1  0  0  0  0
  8  2  1  0  0  0  0
  9 14  1  6  0  0  0
  9 10  1  0  0  0  0
  9 20  1  0  0  0  0
  9 13  1  0  0  0  0
 10 15  1  1  0  0  0
 11 10  1  0  0  0  0
 11 17  1  0  0  0  0
 11 12  1  0  0  0  0
 12 13  1  0  0  0  0
 13 19  1  0  0  0  0
 16 11  1  0  0  0  0
 18 13  1  0  0  0  0
 21 20  1  0  0  0  0
 22 24  1  0  0  0  0
 22  3  1  0  0  0  0
 24 27  1  0  0  0  0
 24 23  2  1  0  0  0
 25 24  1  0  0  0  0
 26 25  1  0  0  0  0
 27 28  1  0  0  0  0
 28 29  1  0  0  0  0
 28 30  2  0  0  0  0
M  END
>  <minimizedAffinity>
-4.4875741

$$$$
