
 OpenBabel03242523133D

 40 43  0  0  1  0  0  0  0  0999 V2000
   38.1040   29.6120   42.6970 C   0  0  0  0  0  0  0  0  0  0  0  0
   37.7100   29.8770   41.3840 C   0  0  0  0  0  0  0  0  0  0  0  0
   36.8350   29.0370   40.7640 C   0  0  0  0  0  0  0  0  0  0  0  0
   36.3940   27.9620   41.4860 N   0  0  0  0  0  0  0  0  0  0  0  0
   36.7680   27.7040   42.7380 C   0  0  0  0  0  0  0  0  0  0  0  0
   37.6080   28.5160   43.3320 N   0  0  0  0  0  0  0  0  0  0  0  0
   38.8040   30.2830   43.1960 H   0  0  0  0  0  0  0  0  0  0  0  0
   36.4500   26.8720   43.3510 H   0  0  0  0  0  0  0  0  0  0  0  0
   38.2590   31.0010   40.7710 N   0  0  0  0  0  0  0  0  0  0  0  0
   39.5860   31.0030   40.2470 C   0  0  0  0  0  0  0  0  0  0  0  0
   39.9490   32.2390   39.4650 C   0  0  0  0  0  0  0  0  0  0  0  0
   38.9520   32.7390   38.6420 N   0  0  0  0  0  0  0  0  0  0  0  0
   37.6770   32.7770   39.1750 C   0  0  0  0  0  0  0  0  0  0  0  0
   37.6240   32.2450   40.5870 C   0  0  0  0  0  0  0  0  0  0  0  0
   40.2820   30.9500   41.1130 H   0  0  0  0  0  0  0  0  0  0  0  0
   39.8160   30.0920   39.6360 H   0  0  0  0  0  0  0  0  0  0  0  0
   40.8960   31.9870   38.9030 H   0  0  0  0  0  0  0  0  0  0  0  0
   40.2670   33.0310   40.1880 H   0  0  0  0  0  0  0  0  0  0  0  0
   39.0310   32.3950   37.6420 H   0  0  0  0  0  0  0  0  0  0  0  0
   37.3400   33.8540   39.2450 H   0  0  0  0  0  0  0  0  0  0  0  0
   36.9240   32.3170   38.4980 H   0  0  0  0  0  0  0  0  0  0  0  0
   36.5280   32.1500   40.8290 H   0  0  0  0  0  0  0  0  0  0  0  0
   38.0950   33.0080   41.2480 H   0  0  0  0  0  0  0  0  0  0  0  0
   34.8330   29.0020   39.5290 C   0  0  0  0  0  0  0  0  0  0  0  0
   36.2470   29.0140   39.4970 C   0  0  0  0  0  0  0  0  0  0  0  0
   36.7100   28.9570   38.2050 C   0  0  0  0  0  0  0  0  0  0  0  0
   35.9580   28.8950   37.0770 C   0  0  0  0  0  0  0  0  0  0  0  0
   34.5750   28.8840   37.1930 C   0  0  0  0  0  0  0  0  0  0  0  0
   34.0050   28.9390   38.4450 C   0  0  0  0  0  0  0  0  0  0  0  0
   34.1080   28.8130   35.8890 O   0  0  0  0  0  0  0  0  0  0  0  0
   35.1820   28.8240   34.9850 C   0  0  2  0  0  0  0  0  0  0  0  0
   36.3700   28.8380   35.7620 O   0  0  0  0  0  0  0  0  0  0  0  0
   34.1440   29.0460   40.3970 H   0  0  0  0  0  0  0  0  0  0  0  0
   37.7520   28.9630   38.1620 H   0  0  0  0  0  0  0  0  0  0  0  0
   32.9490   28.9260   38.4050 H   0  0  0  0  0  0  0  0  0  0  0  0
   35.1780   28.0160   34.2430 H   0  0  0  0  0  0  0  0  0  0  0  0
   35.1100   30.0520   34.2760 O   0  0  0  0  0  0  0  0  0  0  0  0
   36.2110   30.7240   33.8160 C   0  0  0  0  0  0  0  0  0  0  0  0
   36.6900   31.5720   34.2890 H   0  0  0  0  0  0  0  0  0  0  0  0
   36.6900   30.2830   32.7240 O   0  0  0  0  0  0  0  0  0  0  0  0
  1  7  1  0  0  0  0
  1  6  1  0  0  0  0
  2  1  2  0  0  0  0
  3  2  1  0  0  0  0
  3  4  2  0  0  0  0
  4  5  1  0  0  0  0
  5  6  2  0  0  0  0
  5  8  1  0  0  0  0
  9  2  1  0  0  0  0
 10  9  1  0  0  0  0
 10 15  1  0  0  0  0
 11 18  1  0  0  0  0
 11 10  1  0  0  0  0
 12 13  1  0  0  0  0
 12 11  1  0  0  0  0
 13 20  1  0  0  0  0
 13 14  1  0  0  0  0
 14  9  1  0  0  0  0
 14 22  1  0  0  0  0
 14 23  1  0  0  0  0
 16 10  1  0  0  0  0
 17 11  1  0  0  0  0
 19 12  1  0  0  0  0
 21 13  1  0  0  0  0
 24 33  1  0  0  0  0
 25 24  1  0  0  0  0
 25  3  1  0  0  0  0
 26 25  2  0  0  0  0
 27 28  2  0  0  0  0
 27 26  1  0  0  0  0
 28 29  1  0  0  0  0
 29 24  2  0  0  0  0
 30 28  1  0  0  0  0
 31 36  1  6  0  0  0
 31 32  1  0  0  0  0
 31 30  1  0  0  0  0
 32 27  1  0  0  0  0
 34 26  1  0  0  0  0
 35 29  1  0  0  0  0
 37 31  1  0  0  0  0
 38 37  1  0  0  0  0
 38 39  1  0  0  0  0
 40 38  2  0  0  0  0
M  END
>  <minimizedAffinity>
-5.36488199

$$$$

 OpenBabel03242523133D

 40 43  0  0  1  0  0  0  0  0999 V2000
   42.4050   32.4520   40.9250 C   0  0  0  0  0  0  0  0  0  0  0  0
   41.4120   31.4830   40.7720 C   0  0  0  0  0  0  0  0  0  0  0  0
   41.1170   30.6550   41.8130 C   0  0  0  0  0  0  0  0  0  0  0  0
   41.8340   30.8320   42.9650 N   0  0  0  0  0  0  0  0  0  0  0  0
   42.7830   31.7540   43.1160 C   0  0  0  0  0  0  0  0  0  0  0  0
   43.0630   32.5500   42.1120 N   0  0  0  0  0  0  0  0  0  0  0  0
   42.6430   33.1160   40.0930 H   0  0  0  0  0  0  0  0  0  0  0  0
   43.3760   31.9360   44.0020 H   0  0  0  0  0  0  0  0  0  0  0  0
   40.7810   31.4100   39.5320 N   0  0  0  0  0  0  0  0  0  0  0  0
   39.4470   31.8780   39.3360 C   0  0  0  0  0  0  0  0  0  0  0  0
   38.9910   31.8820   37.8990 C   0  0  0  0  0  0  0  0  0  0  0  0
   39.9390   32.2910   36.9730 N   0  0  0  0  0  0  0  0  0  0  0  0
   41.2190   31.7950   37.1450 C   0  0  0  0  0  0  0  0  0  0  0  0
   41.3310   30.8860   38.3460 C   0  0  0  0  0  0  0  0  0  0  0  0
   38.7710   31.1880   39.8880 H   0  0  0  0  0  0  0  0  0  0  0  0
   39.2660   32.8860   39.7900 H   0  0  0  0  0  0  0  0  0  0  0  0
   38.0530   32.5110   37.8710 H   0  0  0  0  0  0  0  0  0  0  0  0
   38.6350   30.8540   37.6400 H   0  0  0  0  0  0  0  0  0  0  0  0
   39.8650   33.3210   36.7330 H   0  0  0  0  0  0  0  0  0  0  0  0
   41.4860   31.1520   36.2550 H   0  0  0  0  0  0  0  0  0  0  0  0
   41.9880   32.5980   37.1220 H   0  0  0  0  0  0  0  0  0  0  0  0
   42.4350   30.7120   38.4860 H   0  0  0  0  0  0  0  0  0  0  0  0
   40.8240   29.9290   38.0870 H   0  0  0  0  0  0  0  0  0  0  0  0
   39.0660   29.9830   42.7490 C   0  0  0  0  0  0  0  0  0  0  0  0
   40.2040   29.6140   41.9940 C   0  0  0  0  0  0  0  0  0  0  0  0
   40.1540   28.2850   41.6490 C   0  0  0  0  0  0  0  0  0  0  0  0
   39.1740   27.4020   41.9650 C   0  0  0  0  0  0  0  0  0  0  0  0
   38.0910   27.8410   42.7130 C   0  0  0  0  0  0  0  0  0  0  0  0
   38.0400   29.1580   43.1110 C   0  0  0  0  0  0  0  0  0  0  0  0
   37.2860   26.7230   42.8660 O   0  0  0  0  0  0  0  0  0  0  0  0
   37.8400   25.6260   42.1880 C   0  0  2  0  0  0  0  0  0  0  0  0
   39.0750   26.0640   41.6430 O   0  0  0  0  0  0  0  0  0  0  0  0
   38.7880   30.9680   43.1750 H   0  0  0  0  0  0  0  0  0  0  0  0
   40.9870   27.9940   41.0920 H   0  0  0  0  0  0  0  0  0  0  0  0
   37.1690   29.3740   43.6710 H   0  0  0  0  0  0  0  0  0  0  0  0
   37.9470   24.7120   42.7860 H   0  0  0  0  0  0  0  0  0  0  0  0
   36.9680   25.3270   41.1090 O   0  0  0  0  0  0  0  0  0  0  0  0
   36.5710   24.0550   40.7890 C   0  0  0  0  0  0  0  0  0  0  0  0
   35.6070   23.7650   40.3910 H   0  0  0  0  0  0  0  0  0  0  0  0
   37.4440   23.1550   40.9940 O   0  0  0  0  0  0  0  0  0  0  0  0
  1  6  1  0  0  0  0
  2  1  2  0  0  0  0
  2  3  1  0  0  0  0
  3 25  1  0  0  0  0
  3  4  2  0  0  0  0
  4  5  1  0  0  0  0
  5  8  1  0  0  0  0
  6  5  2  0  0  0  0
  7  1  1  0  0  0  0
  9  2  1  0  0  0  0
 10  9  1  0  0  0  0
 10 16  1  0  0  0  0
 10 15  1  0  0  0  0
 11 10  1  0  0  0  0
 12 13  1  0  0  0  0
 12 11  1  0  0  0  0
 13 14  1  0  0  0  0
 14 22  1  0  0  0  0
 14  9  1  0  0  0  0
 17 11  1  0  0  0  0
 18 11  1  0  0  0  0
 19 12  1  0  0  0  0
 20 13  1  0  0  0  0
 21 13  1  0  0  0  0
 23 14  1  0  0  0  0
 24 29  1  0  0  0  0
 24 33  1  0  0  0  0
 25 24  2  0  0  0  0
 26 27  2  0  0  0  0
 26 25  1  0  0  0  0
 27 28  1  0  0  0  0
 28 30  1  0  0  0  0
 28 29  2  0  0  0  0
 29 35  1  0  0  0  0
 31 36  1  1  0  0  0
 31 30  1  0  0  0  0
 32 27  1  0  0  0  0
 32 31  1  0  0  0  0
 34 26  1  0  0  0  0
 37 31  1  0  0  0  0
 38 40  2  0  0  0  0
 38 37  1  0  0  0  0
 39 38  1  0  0  0  0
M  END
>  <minimizedAffinity>
-5.32496786

$$$$

 OpenBabel03242523133D

 40 43  0  0  1  0  0  0  0  0999 V2000
   38.4490   23.0100   40.7490 C   0  0  0  0  0  0  0  0  0  0  0  0
   38.5650   24.3700   41.0420 C   0  0  0  0  0  0  0  0  0  0  0  0
   37.5780   25.2260   40.6550 C   0  0  0  0  0  0  0  0  0  0  0  0
   36.5160   24.6830   39.9860 N   0  0  0  0  0  0  0  0  0  0  0  0
   36.4010   23.3860   39.7030 C   0  0  0  0  0  0  0  0  0  0  0  0
   37.3510   22.5650   40.0780 N   0  0  0  0  0  0  0  0  0  0  0  0
   39.2370   22.3220   41.0570 H   0  0  0  0  0  0  0  0  0  0  0  0
   35.5850   22.9070   39.1790 H   0  0  0  0  0  0  0  0  0  0  0  0
   39.7150   24.7790   41.7140 N   0  0  0  0  0  0  0  0  0  0  0  0
   40.8650   25.2590   41.0180 C   0  0  0  0  0  0  0  0  0  0  0  0
   41.9440   25.8200   41.9080 C   0  0  0  0  0  0  0  0  0  0  0  0
   41.5000   26.5800   42.9790 N   0  0  0  0  0  0  0  0  0  0  0  0
   40.4140   26.0840   43.6750 C   0  0  0  0  0  0  0  0  0  0  0  0
   39.9110   24.7770   43.1080 C   0  0  0  0  0  0  0  0  0  0  0  0
   41.3080   24.3930   40.4780 H   0  0  0  0  0  0  0  0  0  0  0  0
   40.6130   26.0020   40.2180 H   0  0  0  0  0  0  0  0  0  0  0  0
   42.6440   26.3890   41.2270 H   0  0  0  0  0  0  0  0  0  0  0  0
   42.5660   24.9710   42.2850 H   0  0  0  0  0  0  0  0  0  0  0  0
   41.4870   27.6190   42.7700 H   0  0  0  0  0  0  0  0  0  0  0  0
   40.7320   25.8500   44.7340 H   0  0  0  0  0  0  0  0  0  0  0  0
   39.6160   26.8460   43.8110 H   0  0  0  0  0  0  0  0  0  0  0  0
   38.9300   24.5840   43.6280 H   0  0  0  0  0  0  0  0  0  0  0  0
   40.6490   23.9900   43.3830 H   0  0  0  0  0  0  0  0  0  0  0  0
   36.9260   26.9860   42.0740 C   0  0  0  0  0  0  0  0  0  0  0  0
   37.3820   26.6030   40.7910 C   0  0  0  0  0  0  0  0  0  0  0  0
   37.4850   27.6920   39.9600 C   0  0  0  0  0  0  0  0  0  0  0  0
   37.1990   28.9810   40.2740 C   0  0  0  0  0  0  0  0  0  0  0  0
   36.7520   29.2750   41.5540 C   0  0  0  0  0  0  0  0  0  0  0  0
   36.6150   28.2560   42.4690 C   0  0  0  0  0  0  0  0  0  0  0  0
   36.5490   30.6470   41.5540 O   0  0  0  0  0  0  0  0  0  0  0  0
   36.9060   31.1930   40.3110 C   0  0  2  0  0  0  0  0  0  0  0  0
   37.2860   30.1060   39.4810 O   0  0  0  0  0  0  0  0  0  0  0  0
   36.7430   26.3670   42.9750 H   0  0  0  0  0  0  0  0  0  0  0  0
   37.8190   27.4270   39.0070 H   0  0  0  0  0  0  0  0  0  0  0  0
   36.2700   28.6020   43.4060 H   0  0  0  0  0  0  0  0  0  0  0  0
   36.1440   31.8290   39.8430 H   0  0  0  0  0  0  0  0  0  0  0  0
   38.0540   31.9980   40.5300 O   0  0  0  0  0  0  0  0  0  0  0  0
   38.0720   33.3550   40.3400 C   0  0  0  0  0  0  0  0  0  0  0  0
   38.7380   34.0610   40.8190 H   0  0  0  0  0  0  0  0  0  0  0  0
   37.2090   33.7920   39.5160 O   0  0  0  0  0  0  0  0  0  0  0  0
  1  2  1  0  0  0  0
  1  7  1  0  0  0  0
  2  9  1  0  0  0  0
  3 25  1  0  0  0  0
  3  2  2  0  0  0  0
  4  3  1  0  0  0  0
  5  4  2  0  0  0  0
  5  6  1  0  0  0  0
  6  1  2  0  0  0  0
  8  5  1  0  0  0  0
  9 14  1  0  0  0  0
 10  9  1  0  0  0  0
 10 11  1  0  0  0  0
 11 18  1  0  0  0  0
 11 12  1  0  0  0  0
 12 13  1  0  0  0  0
 13 21  1  0  0  0  0
 13 20  1  0  0  0  0
 14 23  1  0  0  0  0
 14 22  1  0  0  0  0
 14 13  1  0  0  0  0
 15 10  1  0  0  0  0
 16 10  1  0  0  0  0
 17 11  1  0  0  0  0
 19 12  1  0  0  0  0
 24 29  1  0  0  0  0
 24 33  1  0  0  0  0
 25 24  2  0  0  0  0
 26 27  2  0  0  0  0
 26 25  1  0  0  0  0
 27 28  1  0  0  0  0
 28 30  1  0  0  0  0
 28 29  2  0  0  0  0
 29 35  1  0  0  0  0
 31 36  1  6  0  0  0
 31 37  1  0  0  0  0
 31 30  1  0  0  0  0
 32 27  1  0  0  0  0
 32 31  1  0  0  0  0
 34 26  1  0  0  0  0
 38 37  1  0  0  0  0
 38 39  1  0  0  0  0
 40 38  2  0  0  0  0
M  END
>  <minimizedAffinity>
-5.17912674

$$$$

 OpenBabel03242523133D

 40 43  0  0  1  0  0  0  0  0999 V2000
   39.6910   31.1450   41.7670 C   0  0  0  0  0  0  0  0  0  0  0  0
   38.6610   30.3360   41.2840 C   0  0  0  0  0  0  0  0  0  0  0  0
   37.8930   30.7740   40.2470 C   0  0  0  0  0  0  0  0  0  0  0  0
   38.1900   32.0090   39.7380 N   0  0  0  0  0  0  0  0  0  0  0  0
   39.1710   32.7850   40.1950 C   0  0  0  0  0  0  0  0  0  0  0  0
   39.9080   32.3590   41.1930 N   0  0  0  0  0  0  0  0  0  0  0  0
   40.3070   30.7960   42.5960 H   0  0  0  0  0  0  0  0  0  0  0  0
   39.4460   33.7650   39.8300 H   0  0  0  0  0  0  0  0  0  0  0  0
   38.4660   29.1100   41.9160 N   0  0  0  0  0  0  0  0  0  0  0  0
   37.9030   29.0160   43.2240 C   0  0  0  0  0  0  0  0  0  0  0  0
   37.6050   27.6090   43.6770 C   0  0  0  0  0  0  0  0  0  0  0  0
   37.0780   26.7700   42.7080 N   0  0  0  0  0  0  0  0  0  0  0  0
   37.6610   26.8340   41.4560 C   0  0  0  0  0  0  0  0  0  0  0  0
   38.7840   27.8420   41.3920 C   0  0  0  0  0  0  0  0  0  0  0  0
   38.6500   29.4340   43.9350 H   0  0  0  0  0  0  0  0  0  0  0  0
   36.9910   29.6530   43.3540 H   0  0  0  0  0  0  0  0  0  0  0  0
   36.9360   27.7080   44.5820 H   0  0  0  0  0  0  0  0  0  0  0  0
   38.5460   27.1640   44.0850 H   0  0  0  0  0  0  0  0  0  0  0  0
   36.0190   26.7280   42.7290 H   0  0  0  0  0  0  0  0  0  0  0  0
   38.1370   25.8370   41.2200 H   0  0  0  0  0  0  0  0  0  0  0  0
   36.9080   26.9560   40.6460 H   0  0  0  0  0  0  0  0  0  0  0  0
   39.0380   27.9370   40.2990 H   0  0  0  0  0  0  0  0  0  0  0  0
   39.6480   27.4110   41.9470 H   0  0  0  0  0  0  0  0  0  0  0  0
   35.7340   29.8480   40.3620 C   0  0  0  0  0  0  0  0  0  0  0  0
   36.8200   30.2300   39.5390 C   0  0  0  0  0  0  0  0  0  0  0  0
   36.5680   29.9290   38.2230 C   0  0  0  0  0  0  0  0  0  0  0  0
   35.4490   29.3440   37.7240 C   0  0  0  0  0  0  0  0  0  0  0  0
   34.4290   28.9960   38.5980 C   0  0  0  0  0  0  0  0  0  0  0  0
   34.5780   29.2540   39.9420 C   0  0  0  0  0  0  0  0  0  0  0  0
   33.4500   28.4290   37.7960 O   0  0  0  0  0  0  0  0  0  0  0  0
   33.8420   28.4670   36.4480 C   0  0  2  0  0  0  0  0  0  0  0  0
   35.1470   29.0240   36.4170 O   0  0  0  0  0  0  0  0  0  0  0  0
   35.6050   29.9530   41.4580 H   0  0  0  0  0  0  0  0  0  0  0  0
   37.3600   30.2020   37.6000 H   0  0  0  0  0  0  0  0  0  0  0  0
   33.7370   28.9470   40.5050 H   0  0  0  0  0  0  0  0  0  0  0  0
   33.7830   27.5090   35.9160 H   0  0  0  0  0  0  0  0  0  0  0  0
   32.9660   29.3710   35.7920 O   0  0  0  0  0  0  0  0  0  0  0  0
   31.6250   29.4560   36.0640 C   0  0  0  0  0  0  0  0  0  0  0  0
   30.9000   28.6580   35.9690 H   0  0  0  0  0  0  0  0  0  0  0  0
   31.2320   30.5960   36.4630 O   0  0  0  0  0  0  0  0  0  0  0  0
  1  7  1  0  0  0  0
  2  1  1  0  0  0  0
  2  9  1  0  0  0  0
  3  2  2  0  0  0  0
  4  5  2  0  0  0  0
  4  3  1  0  0  0  0
  5  6  1  0  0  0  0
  6  1  2  0  0  0  0
  8  5  1  0  0  0  0
  9 10  1  0  0  0  0
 10 16  1  0  0  0  0
 10 11  1  0  0  0  0
 10 15  1  0  0  0  0
 11 18  1  0  0  0  0
 11 17  1  0  0  0  0
 12 19  1  0  0  0  0
 12 11  1  0  0  0  0
 13 12  1  0  0  0  0
 14 13  1  0  0  0  0
 14  9  1  0  0  0  0
 14 23  1  0  0  0  0
 20 13  1  0  0  0  0
 21 13  1  0  0  0  0
 22 14  1  0  0  0  0
 24 33  1  0  0  0  0
 25  3  1  0  0  0  0
 25 24  2  0  0  0  0
 26 25  1  0  0  0  0
 27 26  2  0  0  0  0
 27 28  1  0  0  0  0
 28 29  2  0  0  0  0
 29 24  1  0  0  0  0
 29 35  1  0  0  0  0
 30 28  1  0  0  0  0
 31 36  1  6  0  0  0
 31 30  1  0  0  0  0
 32 31  1  0  0  0  0
 32 27  1  0  0  0  0
 34 26  1  0  0  0  0
 37 38  1  0  0  0  0
 37 31  1  0  0  0  0
 38 40  2  0  0  0  0
 39 38  1  0  0  0  0
M  END
>  <minimizedAffinity>
-5.17231083

$$$$

 OpenBabel03242523133D

 40 43  0  0  1  0  0  0  0  0999 V2000
   36.6410   24.2570   40.7570 C   0  0  0  0  0  0  0  0  0  0  0  0
   36.9430   25.6190   40.8080 C   0  0  0  0  0  0  0  0  0  0  0  0
   36.6630   26.4090   39.7340 C   0  0  0  0  0  0  0  0  0  0  0  0
   36.0910   25.7980   38.6510 N   0  0  0  0  0  0  0  0  0  0  0  0
   35.8010   24.5000   38.5970 C   0  0  0  0  0  0  0  0  0  0  0  0
   36.0720   23.7430   39.6330 N   0  0  0  0  0  0  0  0  0  0  0  0
   36.8640   23.6220   41.6160 H   0  0  0  0  0  0  0  0  0  0  0  0
   35.3500   23.9690   37.7690 H   0  0  0  0  0  0  0  0  0  0  0  0
   37.5420   26.0940   41.9730 N   0  0  0  0  0  0  0  0  0  0  0  0
   38.9010   25.8050   42.2950 C   0  0  0  0  0  0  0  0  0  0  0  0
   39.4300   26.5430   43.4980 C   0  0  0  0  0  0  0  0  0  0  0  0
   39.0280   27.8650   43.6110 N   0  0  0  0  0  0  0  0  0  0  0  0
   37.6980   28.1290   43.3420 C   0  0  0  0  0  0  0  0  0  0  0  0
   36.9280   26.8860   42.9620 C   0  0  0  0  0  0  0  0  0  0  0  0
   38.9620   24.7190   42.5290 H   0  0  0  0  0  0  0  0  0  0  0  0
   39.5970   25.9540   41.4290 H   0  0  0  0  0  0  0  0  0  0  0  0
   40.5530   26.4280   43.4670 H   0  0  0  0  0  0  0  0  0  0  0  0
   39.1260   25.9820   44.4170 H   0  0  0  0  0  0  0  0  0  0  0  0
   39.7310   28.5470   43.2040 H   0  0  0  0  0  0  0  0  0  0  0  0
   37.2020   28.5140   44.2820 H   0  0  0  0  0  0  0  0  0  0  0  0
   37.5710   28.9670   42.6240 H   0  0  0  0  0  0  0  0  0  0  0  0
   35.9320   27.2550   42.5870 H   0  0  0  0  0  0  0  0  0  0  0  0
   36.7860   26.2860   43.8900 H   0  0  0  0  0  0  0  0  0  0  0  0
   35.7630   28.3290   38.7150 C   0  0  0  0  0  0  0  0  0  0  0  0
   36.8250   27.7690   39.4640 C   0  0  0  0  0  0  0  0  0  0  0  0
   37.7980   28.7070   39.7130 C   0  0  0  0  0  0  0  0  0  0  0  0
   37.7930   30.0050   39.3180 C   0  0  0  0  0  0  0  0  0  0  0  0
   36.7150   30.4780   38.5830 C   0  0  0  0  0  0  0  0  0  0  0  0
   35.6820   29.6200   38.2780 C   0  0  0  0  0  0  0  0  0  0  0  0
   37.0080   31.8100   38.3360 O   0  0  0  0  0  0  0  0  0  0  0  0
   38.2230   32.1640   38.9450 C   0  0  2  0  0  0  0  0  0  0  0  0
   38.7380   30.9830   39.5420 O   0  0  0  0  0  0  0  0  0  0  0  0
   34.8260   27.8590   38.3550 H   0  0  0  0  0  0  0  0  0  0  0  0
   38.5910   28.3110   40.2630 H   0  0  0  0  0  0  0  0  0  0  0  0
   34.9200   30.0940   37.7190 H   0  0  0  0  0  0  0  0  0  0  0  0
   38.9520   32.6520   38.2860 H   0  0  0  0  0  0  0  0  0  0  0  0
   37.9100   33.0780   39.9850 O   0  0  0  0  0  0  0  0  0  0  0  0
   38.7970   34.0060   40.4660 C   0  0  0  0  0  0  0  0  0  0  0  0
   38.6820   34.5980   41.3650 H   0  0  0  0  0  0  0  0  0  0  0  0
   39.8430   34.1610   39.7620 O   0  0  0  0  0  0  0  0  0  0  0  0
  1  2  1  0  0  0  0
  1  7  1  0  0  0  0
  2  9  1  0  0  0  0
  3  2  2  0  0  0  0
  4  3  1  0  0  0  0
  5  4  2  0  0  0  0
  5  6  1  0  0  0  0
  6  1  2  0  0  0  0
  8  5  1  0  0  0  0
  9 10  1  0  0  0  0
  9 14  1  0  0  0  0
 10 15  1  0  0  0  0
 10 11  1  0  0  0  0
 11 12  1  0  0  0  0
 11 18  1  0  0  0  0
 13 12  1  0  0  0  0
 13 20  1  0  0  0  0
 14 13  1  0  0  0  0
 14 23  1  0  0  0  0
 16 10  1  0  0  0  0
 17 11  1  0  0  0  0
 19 12  1  0  0  0  0
 21 13  1  0  0  0  0
 22 14  1  0  0  0  0
 24 25  1  0  0  0  0
 25 26  2  0  0  0  0
 25  3  1  0  0  0  0
 26 34  1  0  0  0  0
 27 32  1  0  0  0  0
 27 26  1  0  0  0  0
 28 27  2  0  0  0  0
 29 28  1  0  0  0  0
 29 24  2  0  0  0  0
 30 28  1  0  0  0  0
 30 31  1  0  0  0  0
 31 36  1  6  0  0  0
 31 32  1  0  0  0  0
 31 37  1  0  0  0  0
 33 24  1  0  0  0  0
 35 29  1  0  0  0  0
 37 38  1  0  0  0  0
 38 39  1  0  0  0  0
 40 38  2  0  0  0  0
M  END
>  <minimizedAffinity>
-5.163939

$$$$

 OpenBabel03242523133D

 40 43  0  0  1  0  0  0  0  0999 V2000
   41.0320   32.0140   41.3050 C   0  0  0  0  0  0  0  0  0  0  0  0
   40.0510   31.0310   41.1660 C   0  0  0  0  0  0  0  0  0  0  0  0
   40.1210   29.9020   41.9260 C   0  0  0  0  0  0  0  0  0  0  0  0
   41.1760   29.8040   42.7920 N   0  0  0  0  0  0  0  0  0  0  0  0
   42.1150   30.7390   42.9270 C   0  0  0  0  0  0  0  0  0  0  0  0
   42.0430   31.8250   42.1950 N   0  0  0  0  0  0  0  0  0  0  0  0
   40.9790   32.9190   40.6980 H   0  0  0  0  0  0  0  0  0  0  0  0
   42.9660   30.7120   43.5940 H   0  0  0  0  0  0  0  0  0  0  0  0
   39.0470   31.2630   40.2280 N   0  0  0  0  0  0  0  0  0  0  0  0
   37.9760   32.1720   40.4780 C   0  0  0  0  0  0  0  0  0  0  0  0
   37.0850   32.4290   39.2900 C   0  0  0  0  0  0  0  0  0  0  0  0
   37.7340   32.5480   38.0710 N   0  0  0  0  0  0  0  0  0  0  0  0
   38.7390   31.6330   37.8190 C   0  0  0  0  0  0  0  0  0  0  0  0
   38.9380   30.6630   38.9590 C   0  0  0  0  0  0  0  0  0  0  0  0
   37.3390   31.7210   41.2700 H   0  0  0  0  0  0  0  0  0  0  0  0
   38.3230   33.1480   40.9060 H   0  0  0  0  0  0  0  0  0  0  0  0
   36.4730   33.3420   39.5520 H   0  0  0  0  0  0  0  0  0  0  0  0
   36.3300   31.6060   39.2320 H   0  0  0  0  0  0  0  0  0  0  0  0
   37.9410   33.5550   37.8100 H   0  0  0  0  0  0  0  0  0  0  0  0
   38.4440   30.9990   36.9310 H   0  0  0  0  0  0  0  0  0  0  0  0
   39.6790   32.1220   37.4820 H   0  0  0  0  0  0  0  0  0  0  0  0
   39.8890   30.1100   38.7180 H   0  0  0  0  0  0  0  0  0  0  0  0
   38.0750   29.9580   38.9490 H   0  0  0  0  0  0  0  0  0  0  0  0
   38.2430   28.9090   42.9370 C   0  0  0  0  0  0  0  0  0  0  0  0
   39.3250   28.7600   42.0380 C   0  0  0  0  0  0  0  0  0  0  0  0
   39.3570   27.4900   41.5150 C   0  0  0  0  0  0  0  0  0  0  0  0
   38.4940   26.4790   41.7890 C   0  0  0  0  0  0  0  0  0  0  0  0
   37.4600   26.7040   42.6860 C   0  0  0  0  0  0  0  0  0  0  0  0
   37.3350   27.9450   43.2690 C   0  0  0  0  0  0  0  0  0  0  0  0
   36.7750   25.5000   42.7510 O   0  0  0  0  0  0  0  0  0  0  0  0
   37.3510   24.5640   41.8770 C   0  0  2  0  0  0  0  0  0  0  0  0
   38.4810   25.1920   41.2910 O   0  0  0  0  0  0  0  0  0  0  0  0
   37.9250   29.7960   43.5220 H   0  0  0  0  0  0  0  0  0  0  0  0
   40.1500   27.3600   40.8500 H   0  0  0  0  0  0  0  0  0  0  0  0
   36.5120   27.9960   43.9300 H   0  0  0  0  0  0  0  0  0  0  0  0
   37.5980   23.5940   42.3270 H   0  0  0  0  0  0  0  0  0  0  0  0
   36.4020   24.3240   40.8490 O   0  0  0  0  0  0  0  0  0  0  0  0
   36.6340   24.6050   39.5270 C   0  0  0  0  0  0  0  0  0  0  0  0
   37.1930   23.9940   38.8300 H   0  0  0  0  0  0  0  0  0  0  0  0
   36.1300   25.6970   39.1160 O   0  0  0  0  0  0  0  0  0  0  0  0
  1  6  1  0  0  0  0
  2  1  2  0  0  0  0
  2  3  1  0  0  0  0
  3 25  1  0  0  0  0
  3  4  2  0  0  0  0
  4  5  1  0  0  0  0
  5  8  1  0  0  0  0
  6  5  2  0  0  0  0
  7  1  1  0  0  0  0
  9 10  1  0  0  0  0
  9  2  1  0  0  0  0
 10 16  1  0  0  0  0
 10 15  1  0  0  0  0
 11 17  1  0  0  0  0
 11 10  1  0  0  0  0
 12 11  1  0  0  0  0
 13 12  1  0  0  0  0
 13 14  1  0  0  0  0
 14  9  1  0  0  0  0
 18 11  1  0  0  0  0
 19 12  1  0  0  0  0
 20 13  1  0  0  0  0
 21 13  1  0  0  0  0
 22 14  1  0  0  0  0
 23 14  1  0  0  0  0
 24 29  1  0  0  0  0
 24 33  1  0  0  0  0
 25 24  2  0  0  0  0
 26 27  2  0  0  0  0
 26 25  1  0  0  0  0
 27 28  1  0  0  0  0
 28 30  1  0  0  0  0
 28 29  2  0  0  0  0
 29 35  1  0  0  0  0
 31 36  1  1  0  0  0
 31 30  1  0  0  0  0
 32 27  1  0  0  0  0
 32 31  1  0  0  0  0
 34 26  1  0  0  0  0
 37 31  1  0  0  0  0
 38 37  1  0  0  0  0
 39 38  1  0  0  0  0
 40 38  2  0  0  0  0
M  END
>  <minimizedAffinity>
-5.11321878

$$$$

 OpenBabel03242523133D

 40 43  0  0  1  0  0  0  0  0999 V2000
   37.2350   32.5170   39.0410 C   0  0  0  0  0  0  0  0  0  0  0  0
   37.2640   31.1690   39.4010 C   0  0  0  0  0  0  0  0  0  0  0  0
   37.9980   30.7790   40.4810 C   0  0  0  0  0  0  0  0  0  0  0  0
   38.6760   31.7590   41.1530 N   0  0  0  0  0  0  0  0  0  0  0  0
   38.6520   33.0460   40.8130 C   0  0  0  0  0  0  0  0  0  0  0  0
   37.9430   33.4180   39.7740 N   0  0  0  0  0  0  0  0  0  0  0  0
   36.6480   32.8320   38.1770 H   0  0  0  0  0  0  0  0  0  0  0  0
   39.1670   33.8580   41.3090 H   0  0  0  0  0  0  0  0  0  0  0  0
   36.5370   30.2830   38.6080 N   0  0  0  0  0  0  0  0  0  0  0  0
   36.9050   30.0020   37.2590 C   0  0  0  0  0  0  0  0  0  0  0  0
   36.1150   28.8930   36.6120 C   0  0  0  0  0  0  0  0  0  0  0  0
   35.8420   27.8040   37.4250 N   0  0  0  0  0  0  0  0  0  0  0  0
   35.4410   28.0860   38.7180 C   0  0  0  0  0  0  0  0  0  0  0  0
   35.3860   29.5700   38.9950 C   0  0  0  0  0  0  0  0  0  0  0  0
   36.7140   30.9240   36.6660 H   0  0  0  0  0  0  0  0  0  0  0  0
   38.0010   29.8030   37.1370 H   0  0  0  0  0  0  0  0  0  0  0  0
   36.6810   28.6110   35.6770 H   0  0  0  0  0  0  0  0  0  0  0  0
   35.1560   29.3220   36.2290 H   0  0  0  0  0  0  0  0  0  0  0  0
   36.5470   27.0200   37.3150 H   0  0  0  0  0  0  0  0  0  0  0  0
   34.3850   27.7130   38.8650 H   0  0  0  0  0  0  0  0  0  0  0  0
   36.0220   27.5150   39.4730 H   0  0  0  0  0  0  0  0  0  0  0  0
   35.2410   29.6600   40.1080 H   0  0  0  0  0  0  0  0  0  0  0  0
   34.4960   29.9750   38.4610 H   0  0  0  0  0  0  0  0  0  0  0  0
   38.1530   29.6010   42.5110 C   0  0  0  0  0  0  0  0  0  0  0  0
   38.2320   29.5490   41.1000 C   0  0  0  0  0  0  0  0  0  0  0  0
   38.5670   28.2870   40.6720 C   0  0  0  0  0  0  0  0  0  0  0  0
   38.8020   27.2030   41.4530 C   0  0  0  0  0  0  0  0  0  0  0  0
   38.7090   27.3360   42.8320 C   0  0  0  0  0  0  0  0  0  0  0  0
   38.3770   28.5600   43.3670 C   0  0  0  0  0  0  0  0  0  0  0  0
   39.0040   26.0780   43.3330 O   0  0  0  0  0  0  0  0  0  0  0  0
   39.2330   25.1750   42.2820 C   0  0  2  0  0  0  0  0  0  0  0  0
   39.1390   25.9190   41.0770 O   0  0  0  0  0  0  0  0  0  0  0  0
   37.9010   30.4520   43.1760 H   0  0  0  0  0  0  0  0  0  0  0  0
   38.6320   28.2300   39.6320 H   0  0  0  0  0  0  0  0  0  0  0  0
   38.3340   28.5380   44.4230 H   0  0  0  0  0  0  0  0  0  0  0  0
   40.1690   24.6050   42.3490 H   0  0  0  0  0  0  0  0  0  0  0  0
   38.1650   24.2400   42.3030 O   0  0  0  0  0  0  0  0  0  0  0  0
   37.5930   23.7220   41.1710 C   0  0  0  0  0  0  0  0  0  0  0  0
   38.0920   23.1340   40.4110 H   0  0  0  0  0  0  0  0  0  0  0  0
   36.3550   23.9770   41.0320 O   0  0  0  0  0  0  0  0  0  0  0  0
  1  2  2  0  0  0  0
  1  6  1  0  0  0  0
  2  3  1  0  0  0  0
  3 25  1  0  0  0  0
  3  4  2  0  0  0  0
  5  4  1  0  0  0  0
  5  8  1  0  0  0  0
  6  5  2  0  0  0  0
  7  1  1  0  0  0  0
  9 14  1  0  0  0  0
  9  2  1  0  0  0  0
 10  9  1  0  0  0  0
 11 10  1  0  0  0  0
 11 12  1  0  0  0  0
 12 13  1  0  0  0  0
 13 20  1  0  0  0  0
 13 14  1  0  0  0  0
 13 21  1  0  0  0  0
 14 22  1  0  0  0  0
 15 10  1  0  0  0  0
 16 10  1  0  0  0  0
 17 11  1  0  0  0  0
 18 11  1  0  0  0  0
 19 12  1  0  0  0  0
 23 14  1  0  0  0  0
 24 33  1  0  0  0  0
 24 29  1  0  0  0  0
 25 24  2  0  0  0  0
 26 25  1  0  0  0  0
 26 27  2  0  0  0  0
 27 28  1  0  0  0  0
 28 30  1  0  0  0  0
 28 29  2  0  0  0  0
 29 35  1  0  0  0  0
 31 37  1  0  0  0  0
 31 36  1  1  0  0  0
 31 30  1  0  0  0  0
 32 27  1  0  0  0  0
 32 31  1  0  0  0  0
 34 26  1  0  0  0  0
 38 37  1  0  0  0  0
 39 38  1  0  0  0  0
 40 38  2  0  0  0  0
M  END
>  <minimizedAffinity>
-5.11006451

$$$$

 OpenBabel03242523133D

 40 43  0  0  1  0  0  0  0  0999 V2000
   37.9860   29.4640   42.8940 C   0  0  0  0  0  0  0  0  0  0  0  0
   37.4500   29.6620   41.6200 C   0  0  0  0  0  0  0  0  0  0  0  0
   36.6250   28.7180   41.0850 C   0  0  0  0  0  0  0  0  0  0  0  0
   36.3730   27.6130   41.8510 N   0  0  0  0  0  0  0  0  0  0  0  0
   36.8820   27.4190   43.0660 C   0  0  0  0  0  0  0  0  0  0  0  0
   37.6740   28.3300   43.5780 N   0  0  0  0  0  0  0  0  0  0  0  0
   38.6460   30.2170   43.3250 H   0  0  0  0  0  0  0  0  0  0  0  0
   36.7150   26.5660   43.7110 H   0  0  0  0  0  0  0  0  0  0  0  0
   37.8130   30.8300   40.9530 N   0  0  0  0  0  0  0  0  0  0  0  0
   36.8420   31.7570   40.4720 C   0  0  0  0  0  0  0  0  0  0  0  0
   37.4160   33.0430   39.9350 C   0  0  0  0  0  0  0  0  0  0  0  0
   38.4790   33.5680   40.6540 N   0  0  0  0  0  0  0  0  0  0  0  0
   39.4400   32.6680   41.0760 C   0  0  0  0  0  0  0  0  0  0  0  0
   39.1250   31.2500   40.6610 C   0  0  0  0  0  0  0  0  0  0  0  0
   36.3050   31.2660   39.6310 H   0  0  0  0  0  0  0  0  0  0  0  0
   36.0460   31.9880   41.2270 H   0  0  0  0  0  0  0  0  0  0  0  0
   36.5480   33.7610   39.8490 H   0  0  0  0  0  0  0  0  0  0  0  0
   37.7310   32.8720   38.8750 H   0  0  0  0  0  0  0  0  0  0  0  0
   38.1780   34.2970   41.3620 H   0  0  0  0  0  0  0  0  0  0  0  0
   40.4220   32.9170   40.5750 H   0  0  0  0  0  0  0  0  0  0  0  0
   39.6700   32.7740   42.1580 H   0  0  0  0  0  0  0  0  0  0  0  0
   39.8620   30.6060   41.2200 H   0  0  0  0  0  0  0  0  0  0  0  0
   39.3090   31.1760   39.5650 H   0  0  0  0  0  0  0  0  0  0  0  0
   36.7040   28.0380   38.8340 C   0  0  0  0  0  0  0  0  0  0  0  0
   35.9350   28.6090   39.8760 C   0  0  0  0  0  0  0  0  0  0  0  0
   34.6860   28.9630   39.4280 C   0  0  0  0  0  0  0  0  0  0  0  0
   34.2030   28.8100   38.1680 C   0  0  0  0  0  0  0  0  0  0  0  0
   35.0210   28.2440   37.2010 C   0  0  0  0  0  0  0  0  0  0  0  0
   36.2950   27.8510   37.5450 C   0  0  0  0  0  0  0  0  0  0  0  0
   34.2530   28.2310   36.0470 O   0  0  0  0  0  0  0  0  0  0  0  0
   32.9710   28.7400   36.3080 C   0  0  2  0  0  0  0  0  0  0  0  0
   32.9620   29.1450   37.6690 O   0  0  0  0  0  0  0  0  0  0  0  0
   37.7380   27.6410   38.8540 H   0  0  0  0  0  0  0  0  0  0  0  0
   34.1050   29.3890   40.1830 H   0  0  0  0  0  0  0  0  0  0  0  0
   36.8200   27.4340   36.7280 H   0  0  0  0  0  0  0  0  0  0  0  0
   32.6370   29.5370   35.6320 H   0  0  0  0  0  0  0  0  0  0  0  0
   32.0630   27.6570   36.1700 O   0  0  0  0  0  0  0  0  0  0  0  0
   30.7480   27.8150   35.8200 C   0  0  0  0  0  0  0  0  0  0  0  0
   29.9330   27.1490   36.0730 H   0  0  0  0  0  0  0  0  0  0  0  0
   30.4980   28.8530   35.1320 O   0  0  0  0  0  0  0  0  0  0  0  0
  1  7  1  0  0  0  0
  1  6  1  0  0  0  0
  2  1  2  0  0  0  0
  3  2  1  0  0  0  0
  3  4  2  0  0  0  0
  4  5  1  0  0  0  0
  5  6  2  0  0  0  0
  5  8  1  0  0  0  0
  9  2  1  0  0  0  0
 10  9  1  0  0  0  0
 10 16  1  0  0  0  0
 11 10  1  0  0  0  0
 11 12  1  0  0  0  0
 12 13  1  0  0  0  0
 12 19  1  0  0  0  0
 13 21  1  0  0  0  0
 14  9  1  0  0  0  0
 14 13  1  0  0  0  0
 14 22  1  0  0  0  0
 15 10  1  0  0  0  0
 17 11  1  0  0  0  0
 18 11  1  0  0  0  0
 20 13  1  0  0  0  0
 23 14  1  0  0  0  0
 24 33  1  0  0  0  0
 24 25  1  0  0  0  0
 25  3  1  0  0  0  0
 26 25  2  0  0  0  0
 26 34  1  0  0  0  0
 27 26  1  0  0  0  0
 28 29  1  0  0  0  0
 28 27  2  0  0  0  0
 29 24  2  0  0  0  0
 30 31  1  0  0  0  0
 30 28  1  0  0  0  0
 31 36  1  6  0  0  0
 31 32  1  0  0  0  0
 32 27  1  0  0  0  0
 35 29  1  0  0  0  0
 37 31  1  0  0  0  0
 38 39  1  0  0  0  0
 38 37  1  0  0  0  0
 40 38  2  0  0  0  0
M  END
>  <minimizedAffinity>
-5.10592508

$$$$

 OpenBabel03242523133D

 40 43  0  0  1  0  0  0  0  0999 V2000
   36.5800   27.9020   41.5610 C   0  0  0  0  0  0  0  0  0  0  0  0
   37.4510   28.8280   40.9840 C   0  0  0  0  0  0  0  0  0  0  0  0
   38.3000   29.5360   41.7800 C   0  0  0  0  0  0  0  0  0  0  0  0
   38.2380   29.2880   43.1240 N   0  0  0  0  0  0  0  0  0  0  0  0
   37.4080   28.4060   43.6790 C   0  0  0  0  0  0  0  0  0  0  0  0
   36.5930   27.7260   42.9100 N   0  0  0  0  0  0  0  0  0  0  0  0
   35.8990   27.3340   40.9260 H   0  0  0  0  0  0  0  0  0  0  0  0
   37.3190   28.1730   44.7320 H   0  0  0  0  0  0  0  0  0  0  0  0
   37.3870   28.9860   39.6010 N   0  0  0  0  0  0  0  0  0  0  0  0
   36.4600   29.8790   38.9860 C   0  0  0  0  0  0  0  0  0  0  0  0
   36.6510   30.0520   37.5000 C   0  0  0  0  0  0  0  0  0  0  0  0
   37.9670   30.1250   37.0720 N   0  0  0  0  0  0  0  0  0  0  0  0
   38.8490   29.2240   37.6400 C   0  0  0  0  0  0  0  0  0  0  0  0
   38.1810   28.3190   38.6480 C   0  0  0  0  0  0  0  0  0  0  0  0
   35.4430   29.4530   39.1350 H   0  0  0  0  0  0  0  0  0  0  0  0
   36.4280   30.8840   39.4800 H   0  0  0  0  0  0  0  0  0  0  0  0
   36.0450   30.9610   37.2120 H   0  0  0  0  0  0  0  0  0  0  0  0
   36.1350   29.2080   36.9790 H   0  0  0  0  0  0  0  0  0  0  0  0
   38.3150   31.1210   36.9740 H   0  0  0  0  0  0  0  0  0  0  0  0
   39.2430   28.5370   36.8340 H   0  0  0  0  0  0  0  0  0  0  0  0
   39.7660   29.7190   38.0260 H   0  0  0  0  0  0  0  0  0  0  0  0
   39.0230   27.7790   39.1680 H   0  0  0  0  0  0  0  0  0  0  0  0
   37.5560   27.5920   38.0800 H   0  0  0  0  0  0  0  0  0  0  0  0
   40.4300   30.3640   42.3400 C   0  0  0  0  0  0  0  0  0  0  0  0
   39.2750   30.5060   41.5350 C   0  0  0  0  0  0  0  0  0  0  0  0
   39.3760   31.6080   40.7220 C   0  0  0  0  0  0  0  0  0  0  0  0
   40.4170   32.4760   40.6580 C   0  0  0  0  0  0  0  0  0  0  0  0
   41.5130   32.2700   41.4840 C   0  0  0  0  0  0  0  0  0  0  0  0
   41.5160   31.1920   42.3400 C   0  0  0  0  0  0  0  0  0  0  0  0
   42.3830   33.3090   41.1880 O   0  0  0  0  0  0  0  0  0  0  0  0
   41.8520   34.1150   40.1680 C   0  0  2  0  0  0  0  0  0  0  0  0
   40.5680   33.5920   39.8620 O   0  0  0  0  0  0  0  0  0  0  0  0
   40.6780   29.5880   43.0920 H   0  0  0  0  0  0  0  0  0  0  0  0
   38.5310   31.7300   40.1210 H   0  0  0  0  0  0  0  0  0  0  0  0
   42.4020   31.1380   42.9140 H   0  0  0  0  0  0  0  0  0  0  0  0
   41.8240   35.1890   40.3880 H   0  0  0  0  0  0  0  0  0  0  0  0
   42.6800   33.9350   39.0300 O   0  0  0  0  0  0  0  0  0  0  0  0
   42.2550   34.1540   37.7450 C   0  0  0  0  0  0  0  0  0  0  0  0
   41.9250   35.0970   37.3310 H   0  0  0  0  0  0  0  0  0  0  0  0
   42.2630   33.1260   36.9970 O   0  0  0  0  0  0  0  0  0  0  0  0
  1  6  1  0  0  0  0
  2  1  2  0  0  0  0
  2  3  1  0  0  0  0
  3  4  2  0  0  0  0
  4  5  1  0  0  0  0
  5  8  1  0  0  0  0
  6  5  2  0  0  0  0
  7  1  1  0  0  0  0
  9  2  1  0  0  0  0
 10 15  1  0  0  0  0
 10 16  1  0  0  0  0
 10  9  1  0  0  0  0
 11 10  1  0  0  0  0
 12 11  1  0  0  0  0
 12 13  1  0  0  0  0
 13 21  1  0  0  0  0
 13 14  1  0  0  0  0
 14 22  1  0  0  0  0
 14  9  1  0  0  0  0
 17 11  1  0  0  0  0
 18 11  1  0  0  0  0
 19 12  1  0  0  0  0
 20 13  1  0  0  0  0
 23 14  1  0  0  0  0
 24 29  1  0  0  0  0
 24 33  1  0  0  0  0
 25  3  1  0  0  0  0
 25 24  2  0  0  0  0
 26 25  1  0  0  0  0
 27 26  2  0  0  0  0
 27 28  1  0  0  0  0
 28 29  2  0  0  0  0
 29 35  1  0  0  0  0
 30 28  1  0  0  0  0
 31 36  1  1  0  0  0
 31 30  1  0  0  0  0
 32 31  1  0  0  0  0
 32 27  1  0  0  0  0
 34 26  1  0  0  0  0
 37 31  1  0  0  0  0
 38 37  1  0  0  0  0
 39 38  1  0  0  0  0
 40 38  2  0  0  0  0
M  END
>  <minimizedAffinity>
-5.10105419

$$$$
