
 OpenBabel03252505503D

 16 16  0  0  0  0  0  0  0  0999 V2000
   37.6750   29.5640   42.0380 C   0  0  0  0  0  0  0  0  0  0  0  0
   36.7250   28.5590   41.9440 C   0  0  0  0  0  0  0  0  0  0  0  0
   35.7000   28.7340   40.9990 C   0  0  0  0  0  0  0  0  0  0  0  0
   35.6930   29.8540   40.2460 N   0  0  0  0  0  0  0  0  0  0  0  0
   36.6420   30.8100   40.3710 C   0  0  0  0  0  0  0  0  0  0  0  0
   37.6400   30.6760   41.2660 N   0  0  0  0  0  0  0  0  0  0  0  0
   38.4990   29.5040   42.7430 H   0  0  0  0  0  0  0  0  0  0  0  0
   34.9750   27.9570   40.9340 H   0  0  0  0  0  0  0  0  0  0  0  0
   36.8610   27.3760   42.8430 C   0  0  0  0  0  0  0  0  0  0  0  0
   38.0500   27.5310   43.4880 F   0  0  0  0  0  0  0  0  0  0  0  0
   36.8920   26.2520   42.0280 F   0  0  0  0  0  0  0  0  0  0  0  0
   35.7680   27.3530   43.6790 F   0  0  0  0  0  0  0  0  0  0  0  0
   36.6360   31.9570   39.5980 O   0  0  0  0  0  0  0  0  0  0  0  0
   37.6930   32.8600   39.5550 C   0  0  0  0  0  0  0  0  0  0  0  0
   38.4900   32.4630   38.9450 H   0  0  0  0  0  0  0  0  0  0  0  0
   37.8290   33.9750   40.0850 O   0  0  0  0  0  0  0  0  0  0  0  0
  1  7  1  0  0  0  0
  2  1  1  0  0  0  0
  2  9  1  0  0  0  0
  3  2  2  0  0  0  0
  4  5  2  0  0  0  0
  4  3  1  0  0  0  0
  5  6  1  0  0  0  0
  6  1  2  0  0  0  0
  8  3  1  0  0  0  0
  9 10  1  0  0  0  0
  9 12  1  0  0  0  0
 11  9  1  0  0  0  0
 13  5  1  0  0  0  0
 14 13  1  0  0  0  0
 14 16  2  0  0  0  0
 15 14  1  0  0  0  0
M  END
>  <minimizedAffinity>
-4.02869368

$$$$

 OpenBabel03252505503D

 16 16  0  0  0  0  0  0  0  0999 V2000
   37.8970   29.5110   42.1390 C   0  0  0  0  0  0  0  0  0  0  0  0
   36.8890   28.5640   42.0450 C   0  0  0  0  0  0  0  0  0  0  0  0
   35.8270   28.8460   41.1690 C   0  0  0  0  0  0  0  0  0  0  0  0
   35.8440   30.0050   40.4770 N   0  0  0  0  0  0  0  0  0  0  0  0
   36.8500   30.9010   40.6000 C   0  0  0  0  0  0  0  0  0  0  0  0
   37.8850   30.6640   41.4300 N   0  0  0  0  0  0  0  0  0  0  0  0
   38.7530   29.3670   42.7920 H   0  0  0  0  0  0  0  0  0  0  0  0
   35.0570   28.1150   41.1040 H   0  0  0  0  0  0  0  0  0  0  0  0
   37.0040   27.3280   42.8710 C   0  0  0  0  0  0  0  0  0  0  0  0
   37.0100   26.2890   41.9910 F   0  0  0  0  0  0  0  0  0  0  0  0
   35.8750   27.2760   43.6780 F   0  0  0  0  0  0  0  0  0  0  0  0
   38.1500   27.4300   43.6270 F   0  0  0  0  0  0  0  0  0  0  0  0
   36.8690   32.0880   39.8900 O   0  0  0  0  0  0  0  0  0  0  0  0
   37.3110   32.1910   38.5760 C   0  0  0  0  0  0  0  0  0  0  0  0
   36.5660   32.6930   37.9760 H   0  0  0  0  0  0  0  0  0  0  0  0
   38.3660   31.8100   38.0420 O   0  0  0  0  0  0  0  0  0  0  0  0
  1  7  1  0  0  0  0
  2  1  1  0  0  0  0
  2  9  1  0  0  0  0
  3  2  2  0  0  0  0
  4  5  2  0  0  0  0
  4  3  1  0  0  0  0
  5  6  1  0  0  0  0
  6  1  2  0  0  0  0
  8  3  1  0  0  0  0
  9 12  1  0  0  0  0
  9 11  1  0  0  0  0
 10  9  1  0  0  0  0
 13  5  1  0  0  0  0
 14 13  1  0  0  0  0
 15 14  1  0  0  0  0
 16 14  2  0  0  0  0
M  END
>  <minimizedAffinity>
-3.95836306

$$$$

 OpenBabel03252505503D

 16 16  0  0  0  0  0  0  0  0999 V2000
   38.9000   31.3440   40.8980 C   0  0  0  0  0  0  0  0  0  0  0  0
   37.7020   31.6380   40.2670 C   0  0  0  0  0  0  0  0  0  0  0  0
   36.5620   30.9430   40.7050 C   0  0  0  0  0  0  0  0  0  0  0  0
   36.6910   30.0390   41.6980 N   0  0  0  0  0  0  0  0  0  0  0  0
   37.8830   29.7830   42.2860 C   0  0  0  0  0  0  0  0  0  0  0  0
   38.9970   30.4310   41.8930 N   0  0  0  0  0  0  0  0  0  0  0  0
   39.8260   31.8380   40.6180 H   0  0  0  0  0  0  0  0  0  0  0  0
   35.6460   31.1750   40.2150 H   0  0  0  0  0  0  0  0  0  0  0  0
   37.7100   32.6620   39.1830 C   0  0  0  0  0  0  0  0  0  0  0  0
   37.2250   32.0370   38.0740 F   0  0  0  0  0  0  0  0  0  0  0  0
   39.0340   33.0360   38.9920 F   0  0  0  0  0  0  0  0  0  0  0  0
   36.9490   33.7290   39.6030 F   0  0  0  0  0  0  0  0  0  0  0  0
   38.0160   28.8580   43.3050 O   0  0  0  0  0  0  0  0  0  0  0  0
   37.3530   27.6360   43.3270 C   0  0  0  0  0  0  0  0  0  0  0  0
   38.0070   26.8570   42.9640 H   0  0  0  0  0  0  0  0  0  0  0  0
   36.1970   27.3460   43.6800 O   0  0  0  0  0  0  0  0  0  0  0  0
  1  6  1  0  0  0  0
  2  3  1  0  0  0  0
  2  1  2  0  0  0  0
  3  4  2  0  0  0  0
  4  5  1  0  0  0  0
  5 13  1  0  0  0  0
  6  5  2  0  0  0  0
  7  1  1  0  0  0  0
  8  3  1  0  0  0  0
  9 12  1  0  0  0  0
  9  2  1  0  0  0  0
 10  9  1  0  0  0  0
 11  9  1  0  0  0  0
 13 14  1  0  0  0  0
 14 16  2  0  0  0  0
 15 14  1  0  0  0  0
M  END
>  <minimizedAffinity>
-3.84165931

$$$$

 OpenBabel03252505503D

 16 16  0  0  0  0  0  0  0  0999 V2000
   36.6470   27.3180   40.7580 C   0  0  0  0  0  0  0  0  0  0  0  0
   37.2800   26.8930   41.9150 C   0  0  0  0  0  0  0  0  0  0  0  0
   37.5770   27.8720   42.8780 C   0  0  0  0  0  0  0  0  0  0  0  0
   37.2380   29.1540   42.6290 N   0  0  0  0  0  0  0  0  0  0  0  0
   36.6200   29.5250   41.4840 C   0  0  0  0  0  0  0  0  0  0  0  0
   36.3190   28.6140   40.5380 N   0  0  0  0  0  0  0  0  0  0  0  0
   36.3830   26.6230   39.9650 H   0  0  0  0  0  0  0  0  0  0  0  0
   38.0630   27.5360   43.7640 H   0  0  0  0  0  0  0  0  0  0  0  0
   37.5940   25.4410   42.0530 C   0  0  0  0  0  0  0  0  0  0  0  0
   37.8310   24.9890   40.7910 F   0  0  0  0  0  0  0  0  0  0  0  0
   36.4640   24.8330   42.5840 F   0  0  0  0  0  0  0  0  0  0  0  0
   38.6690   25.3200   42.9030 F   0  0  0  0  0  0  0  0  0  0  0  0
   36.2710   30.8380   41.2290 O   0  0  0  0  0  0  0  0  0  0  0  0
   37.0540   31.7110   40.4810 C   0  0  0  0  0  0  0  0  0  0  0  0
   36.6360   31.8220   39.4920 H   0  0  0  0  0  0  0  0  0  0  0  0
   38.0890   32.3300   40.7790 O   0  0  0  0  0  0  0  0  0  0  0  0
  1  2  1  0  0  0  0
  2  9  1  0  0  0  0
  2  3  2  0  0  0  0
  3  8  1  0  0  0  0
  4  3  1  0  0  0  0
  5  4  2  0  0  0  0
  6  1  2  0  0  0  0
  6  5  1  0  0  0  0
  7  1  1  0  0  0  0
  9 11  1  0  0  0  0
  9 12  1  0  0  0  0
 10  9  1  0  0  0  0
 13  5  1  0  0  0  0
 14 16  2  0  0  0  0
 14 13  1  0  0  0  0
 15 14  1  0  0  0  0
M  END
>  <minimizedAffinity>
-3.72126174

$$$$

 OpenBabel03252505503D

 16 16  0  0  0  0  0  0  0  0999 V2000
   37.4180   27.6470   42.7200 C   0  0  0  0  0  0  0  0  0  0  0  0
   37.1960   26.7210   41.7120 C   0  0  0  0  0  0  0  0  0  0  0  0
   36.6480   27.2020   40.5110 C   0  0  0  0  0  0  0  0  0  0  0  0
   36.3700   28.5180   40.4040 N   0  0  0  0  0  0  0  0  0  0  0  0
   36.6040   29.3870   41.4140 C   0  0  0  0  0  0  0  0  0  0  0  0
   37.1290   28.9620   42.5800 N   0  0  0  0  0  0  0  0  0  0  0  0
   37.8390   27.3550   43.6780 H   0  0  0  0  0  0  0  0  0  0  0  0
   36.4800   26.4840   39.7440 H   0  0  0  0  0  0  0  0  0  0  0  0
   37.5530   25.2960   41.9740 C   0  0  0  0  0  0  0  0  0  0  0  0
   38.6140   25.3270   42.8260 F   0  0  0  0  0  0  0  0  0  0  0  0
   37.9230   24.7430   40.7550 F   0  0  0  0  0  0  0  0  0  0  0  0
   36.4400   24.6690   42.4860 F   0  0  0  0  0  0  0  0  0  0  0  0
   36.3210   30.7360   41.3030 O   0  0  0  0  0  0  0  0  0  0  0  0
   36.9950   31.5960   40.4420 C   0  0  0  0  0  0  0  0  0  0  0  0
   37.7890   32.0990   40.9730 H   0  0  0  0  0  0  0  0  0  0  0  0
   36.8160   31.8420   39.2370 O   0  0  0  0  0  0  0  0  0  0  0  0
  1  7  1  0  0  0  0
  2  9  1  0  0  0  0
  2  1  2  0  0  0  0
  3  2  1  0  0  0  0
  4  3  2  0  0  0  0
  4  5  1  0  0  0  0
  5  6  2  0  0  0  0
  6  1  1  0  0  0  0
  8  3  1  0  0  0  0
  9 12  1  0  0  0  0
  9 10  1  0  0  0  0
 11  9  1  0  0  0  0
 13  5  1  0  0  0  0
 14 15  1  0  0  0  0
 14 13  1  0  0  0  0
 16 14  2  0  0  0  0
M  END
>  <minimizedAffinity>
-3.66936302

$$$$

 OpenBabel03252505503D

 16 16  0  0  0  0  0  0  0  0999 V2000
   36.9600   26.7470   40.6070 C   0  0  0  0  0  0  0  0  0  0  0  0
   37.1970   25.9770   41.7350 C   0  0  0  0  0  0  0  0  0  0  0  0
   37.3370   26.6580   42.9560 C   0  0  0  0  0  0  0  0  0  0  0  0
   37.2370   28.0040   42.9660 N   0  0  0  0  0  0  0  0  0  0  0  0
   37.0050   28.7160   41.8390 C   0  0  0  0  0  0  0  0  0  0  0  0
   36.8640   28.0970   40.6500 N   0  0  0  0  0  0  0  0  0  0  0  0
   36.8400   26.2960   39.6260 H   0  0  0  0  0  0  0  0  0  0  0  0
   37.5190   26.0590   43.8170 H   0  0  0  0  0  0  0  0  0  0  0  0
   37.2830   24.4970   41.5710 C   0  0  0  0  0  0  0  0  0  0  0  0
   37.8990   24.0320   42.6940 F   0  0  0  0  0  0  0  0  0  0  0  0
   38.0690   24.2600   40.4510 F   0  0  0  0  0  0  0  0  0  0  0  0
   36.0060   24.0160   41.3920 F   0  0  0  0  0  0  0  0  0  0  0  0
   36.9000   30.0950   41.8490 O   0  0  0  0  0  0  0  0  0  0  0  0
   36.2100   30.8210   40.8840 C   0  0  0  0  0  0  0  0  0  0  0  0
   35.1470   30.6900   41.0170 H   0  0  0  0  0  0  0  0  0  0  0  0
   36.6240   31.5420   39.9610 O   0  0  0  0  0  0  0  0  0  0  0  0
  1  6  2  0  0  0  0
  1  2  1  0  0  0  0
  2  3  2  0  0  0  0
  3  4  1  0  0  0  0
  3  8  1  0  0  0  0
  5 13  1  0  0  0  0
  5  4  2  0  0  0  0
  6  5  1  0  0  0  0
  7  1  1  0  0  0  0
  9  2  1  0  0  0  0
  9 10  1  0  0  0  0
 11  9  1  0  0  0  0
 12  9  1  0  0  0  0
 14 15  1  0  0  0  0
 14 13  1  0  0  0  0
 16 14  2  0  0  0  0
M  END
>  <minimizedAffinity>
-3.65486193

$$$$

 OpenBabel03252505503D

 16 16  0  0  0  0  0  0  0  0999 V2000
   38.9590   27.1170   43.0650 C   0  0  0  0  0  0  0  0  0  0  0  0
   38.4050   26.1320   42.2640 C   0  0  0  0  0  0  0  0  0  0  0  0
   37.4490   26.5390   41.3180 C   0  0  0  0  0  0  0  0  0  0  0  0
   37.1250   27.8470   41.2420 N   0  0  0  0  0  0  0  0  0  0  0  0
   37.6920   28.7760   42.0450 C   0  0  0  0  0  0  0  0  0  0  0  0
   38.6130   28.4220   42.9630 N   0  0  0  0  0  0  0  0  0  0  0  0
   39.7050   26.8840   43.8200 H   0  0  0  0  0  0  0  0  0  0  0  0
   37.0280   25.7760   40.7080 H   0  0  0  0  0  0  0  0  0  0  0  0
   38.8600   24.7250   42.4620 C   0  0  0  0  0  0  0  0  0  0  0  0
   37.7280   23.9690   42.5150 F   0  0  0  0  0  0  0  0  0  0  0  0
   39.5290   24.6860   43.6780 F   0  0  0  0  0  0  0  0  0  0  0  0
   39.7020   24.4030   41.4220 F   0  0  0  0  0  0  0  0  0  0  0  0
   37.3620   30.1170   41.9660 O   0  0  0  0  0  0  0  0  0  0  0  0
   36.3330   30.6100   41.1710 C   0  0  0  0  0  0  0  0  0  0  0  0
   35.3900   30.5050   41.6850 H   0  0  0  0  0  0  0  0  0  0  0  0
   36.3550   31.1140   40.0360 O   0  0  0  0  0  0  0  0  0  0  0  0
  1  7  1  0  0  0  0
  2  9  1  0  0  0  0
  2  1  2  0  0  0  0
  3  2  1  0  0  0  0
  4  3  2  0  0  0  0
  4  5  1  0  0  0  0
  5  6  2  0  0  0  0
  6  1  1  0  0  0  0
  8  3  1  0  0  0  0
  9 10  1  0  0  0  0
  9 11  1  0  0  0  0
 12  9  1  0  0  0  0
 13  5  1  0  0  0  0
 14 15  1  0  0  0  0
 14 13  1  0  0  0  0
 16 14  2  0  0  0  0
M  END
>  <minimizedAffinity>
-3.53479838

$$$$

 OpenBabel03252505503D

 16 16  0  0  0  0  0  0  0  0999 V2000
   37.9630   30.8610   41.0860 C   0  0  0  0  0  0  0  0  0  0  0  0
   37.1650   31.1070   39.9810 C   0  0  0  0  0  0  0  0  0  0  0  0
   36.0790   30.2410   39.7700 C   0  0  0  0  0  0  0  0  0  0  0  0
   35.8750   29.2290   40.6400 N   0  0  0  0  0  0  0  0  0  0  0  0
   36.6810   29.0260   41.7070 C   0  0  0  0  0  0  0  0  0  0  0  0
   37.7310   29.8370   41.9410 N   0  0  0  0  0  0  0  0  0  0  0  0
   38.8210   31.4850   41.3190 H   0  0  0  0  0  0  0  0  0  0  0  0
   35.4720   30.4380   38.9180 H   0  0  0  0  0  0  0  0  0  0  0  0
   37.5120   32.2650   39.1050 C   0  0  0  0  0  0  0  0  0  0  0  0
   38.8460   32.4770   39.2780 F   0  0  0  0  0  0  0  0  0  0  0  0
   36.7830   33.3520   39.5680 F   0  0  0  0  0  0  0  0  0  0  0  0
   37.1580   31.9410   37.8160 F   0  0  0  0  0  0  0  0  0  0  0  0
   36.4710   27.9900   42.6000 O   0  0  0  0  0  0  0  0  0  0  0  0
   37.1530   26.7790   42.5470 C   0  0  0  0  0  0  0  0  0  0  0  0
   36.4780   25.9910   42.2490 H   0  0  0  0  0  0  0  0  0  0  0  0
   38.3420   26.5070   42.7800 O   0  0  0  0  0  0  0  0  0  0  0  0
  1  7  1  0  0  0  0
  1  6  1  0  0  0  0
  2  1  2  0  0  0  0
  3  2  1  0  0  0  0
  3  4  2  0  0  0  0
  4  5  1  0  0  0  0
  5  6  2  0  0  0  0
  5 13  1  0  0  0  0
  8  3  1  0  0  0  0
  9 10  1  0  0  0  0
  9 11  1  0  0  0  0
  9  2  1  0  0  0  0
 12  9  1  0  0  0  0
 14 13  1  0  0  0  0
 14 16  2  0  0  0  0
 15 14  1  0  0  0  0
M  END
>  <minimizedAffinity>
-3.46883631

$$$$

 OpenBabel03252505503D

 16 16  0  0  0  0  0  0  0  0999 V2000
   36.3960   27.2620   39.8330 C   0  0  0  0  0  0  0  0  0  0  0  0
   36.1160   28.3050   40.7020 C   0  0  0  0  0  0  0  0  0  0  0  0
   36.4910   28.1350   42.0450 C   0  0  0  0  0  0  0  0  0  0  0  0
   37.0920   26.9840   42.4130 N   0  0  0  0  0  0  0  0  0  0  0  0
   37.3460   25.9920   41.5300 C   0  0  0  0  0  0  0  0  0  0  0  0
   37.0010   26.1190   40.2330 N   0  0  0  0  0  0  0  0  0  0  0  0
   36.1380   27.3160   38.7790 H   0  0  0  0  0  0  0  0  0  0  0  0
   36.2720   28.9410   42.7060 H   0  0  0  0  0  0  0  0  0  0  0  0
   35.4460   29.5200   40.1530 C   0  0  0  0  0  0  0  0  0  0  0  0
   35.6920   30.5180   41.0450 F   0  0  0  0  0  0  0  0  0  0  0  0
   34.0870   29.2400   40.0980 F   0  0  0  0  0  0  0  0  0  0  0  0
   35.9570   29.7520   38.8960 F   0  0  0  0  0  0  0  0  0  0  0  0
   37.9630   24.8130   41.9060 O   0  0  0  0  0  0  0  0  0  0  0  0
   37.7330   23.5910   41.2810 C   0  0  0  0  0  0  0  0  0  0  0  0
   36.7170   23.2730   41.4610 H   0  0  0  0  0  0  0  0  0  0  0  0
   38.4840   22.8750   40.5980 O   0  0  0  0  0  0  0  0  0  0  0  0
  1  6  2  0  0  0  0
  1  2  1  0  0  0  0
  2  3  2  0  0  0  0
  3  4  1  0  0  0  0
  3  8  1  0  0  0  0
  5 13  1  0  0  0  0
  5  4  2  0  0  0  0
  6  5  1  0  0  0  0
  7  1  1  0  0  0  0
  9  2  1  0  0  0  0
  9 10  1  0  0  0  0
 11  9  1  0  0  0  0
 12  9  1  0  0  0  0
 14 15  1  0  0  0  0
 14 13  1  0  0  0  0
 16 14  2  0  0  0  0
M  END
>  <minimizedAffinity>
-3.46253848

$$$$
