
 OpenBabel03252509313D

 21 21  0  0  0  0  0  0  0  0999 V2000
   46.9760   33.4450   42.9370 C   0  0  0  0  0  0  0  0  0  0  0  0
   46.5440   32.4590   42.7300 H   0  0  0  0  0  0  0  0  0  0  0  0
   46.9080   34.0190   41.9800 H   0  0  0  0  0  0  0  0  0  0  0  0
   45.0920   34.2990   46.0380 C   0  0  0  0  0  0  0  0  0  0  0  0
   45.9290   33.6040   45.1610 C   0  0  0  0  0  0  0  0  0  0  0  0
   46.1090   34.1300   43.9010 C   0  0  0  0  0  0  0  0  0  0  0  0
   45.4680   35.3070   43.5590 N   0  0  0  0  0  0  0  0  0  0  0  0
   44.6690   35.9380   44.4490 C   0  0  0  0  0  0  0  0  0  0  0  0
   44.4800   35.4400   45.6830 N   0  0  0  0  0  0  0  0  0  0  0  0
   44.9910   33.8310   47.0170 H   0  0  0  0  0  0  0  0  0  0  0  0
   46.4390   32.6770   45.4210 H   0  0  0  0  0  0  0  0  0  0  0  0
   44.1810   36.8540   44.1560 H   0  0  0  0  0  0  0  0  0  0  0  0
   48.2830   33.3620   43.4210 O   0  0  0  0  0  0  0  0  0  0  0  0
   50.0280   33.1240   41.4960 O   0  0  0  0  0  0  0  0  0  0  0  0
   49.2730   34.1450   42.2980 P   0  0  2  0  0  0  0  0  0  0  0  0
   50.2700   35.1960   43.1460 O   0  0  0  0  0  0  0  0  0  0  0  0
   51.1460   34.7750   43.3310 H   0  0  0  0  0  0  0  0  0  0  0  0
   48.2620   35.0130   41.2490 O   0  0  0  0  0  0  0  0  0  0  0  0
   48.2310   34.6590   39.9050 C   0  0  0  0  0  0  0  0  0  0  0  0
   49.0590   35.0560   39.3200 H   0  0  0  0  0  0  0  0  0  0  0  0
   47.4340   33.9740   39.2470 O   0  0  0  0  0  0  0  0  0  0  0  0
  1 13  1  0  0  0  0
  1  6  1  0  0  0  0
  2  1  1  0  0  0  0
  3  1  1  0  0  0  0
  4 10  1  0  0  0  0
  5 11  1  0  0  0  0
  5  4  2  0  0  0  0
  6  5  1  0  0  0  0
  7  6  2  0  0  0  0
  7  8  1  0  0  0  0
  8  9  2  0  0  0  0
  9  4  1  0  0  0  0
 12  8  1  0  0  0  0
 15 14  2  6  0  0  0
 15 16  1  0  0  0  0
 15 13  1  0  0  0  0
 16 17  1  0  0  0  0
 18 15  1  0  0  0  0
 19 18  1  0  0  0  0
 20 19  1  0  0  0  0
 21 19  2  0  0  0  0
M  END
>  <minimizedAffinity>
-4.31457663

>  <minimizedRMSD>
0.639919162

$$$$
