
 OpenBabel03252501203D

 20 20  0  0  0  0  0  0  0  0999 V2000
   44.8380   35.1920   45.1970 C   0  0  0  0  0  0  0  0  0  0  0  0
   45.3150   35.4410   43.9250 C   0  0  0  0  0  0  0  0  0  0  0  0
   46.2370   34.5090   43.4250 C   0  0  0  0  0  0  0  0  0  0  0  0
   46.6050   33.4400   44.2020 N   0  0  0  0  0  0  0  0  0  0  0  0
   46.1040   33.2630   45.4240 C   0  0  0  0  0  0  0  0  0  0  0  0
   45.2030   34.1500   45.9370 N   0  0  0  0  0  0  0  0  0  0  0  0
   44.1300   35.7440   45.7550 H   0  0  0  0  0  0  0  0  0  0  0  0
   46.5210   32.3630   45.8680 H   0  0  0  0  0  0  0  0  0  0  0  0
   46.7410   34.7570   42.0620 C   0  0  0  0  0  0  0  0  0  0  0  0
   47.5770   33.7100   41.6880 F   0  0  0  0  0  0  0  0  0  0  0  0
   47.5420   35.8680   42.1430 F   0  0  0  0  0  0  0  0  0  0  0  0
   45.7360   34.8390   41.1540 F   0  0  0  0  0  0  0  0  0  0  0  0
   44.9460   36.6110   43.1350 C   0  0  0  0  0  0  0  0  0  0  0  0
   45.6010   36.8750   42.3270 H   0  0  0  0  0  0  0  0  0  0  0  0
   43.9050   36.5270   42.7140 H   0  0  0  0  0  0  0  0  0  0  0  0
   45.0210   37.8070   43.9300 N   0  0  0  0  0  0  0  0  0  0  0  0
   44.6760   37.8270   44.9340 H   0  0  0  0  0  0  0  0  0  0  0  0
   45.4770   39.1120   43.7180 C   0  0  0  0  0  0  0  0  0  0  0  0
   46.0950   39.5290   42.9740 H   0  0  0  0  0  0  0  0  0  0  0  0
   45.1520   40.0370   44.4930 O   0  0  0  0  0  0  0  0  0  0  0  0
  1  7  1  0  0  0  0
  1  6  1  0  0  0  0
  2  1  2  0  0  0  0
  3  2  1  0  0  0  0
  3  4  2  0  0  0  0
  4  5  1  0  0  0  0
  5  8  1  0  0  0  0
  5  6  2  0  0  0  0
  9 11  1  0  0  0  0
  9  3  1  0  0  0  0
 10  9  1  0  0  0  0
 12  9  1  0  0  0  0
 13  2  1  0  0  0  0
 13 16  1  0  0  0  0
 14 13  1  0  0  0  0
 15 13  1  0  0  0  0
 16 17  1  0  0  0  0
 18 16  1  0  0  0  0
 18 20  2  0  0  0  0
 19 18  1  0  0  0  0
M  END
>  <minimizedAffinity>
-4.44585323

>  <minimizedRMSD>
0.667575598

$$$$
