
 OpenBabel03252507093D

 30 31  0  0  1  0  0  0  0  0999 V2000
   44.4530   35.8060   44.5330 C   0  0  0  0  0  0  0  0  0  0  0  0
   44.9450   35.8120   43.2030 C   0  0  0  0  0  0  0  0  0  0  0  0
   45.9460   34.9030   42.9020 C   0  0  0  0  0  0  0  0  0  0  0  0
   46.4020   34.0710   43.8640 N   0  0  0  0  0  0  0  0  0  0  0  0
   45.9250   34.0820   45.1120 C   0  0  0  0  0  0  0  0  0  0  0  0
   44.9400   34.9590   45.4470 N   0  0  0  0  0  0  0  0  0  0  0  0
   43.6840   36.5080   44.7530 H   0  0  0  0  0  0  0  0  0  0  0  0
   44.5240   36.5140   42.4960 H   0  0  0  0  0  0  0  0  0  0  0  0
   45.3290   32.7480   47.1500 C   0  0  1  0  0  0  0  0  0  0  0  0
   46.3920   33.2060   46.2000 C   0  0  1  0  0  0  0  0  0  0  0  0
   46.7860   31.8280   45.6140 C   0  0  0  0  0  0  0  0  0  0  0  0
   46.6180   30.9220   46.6110 O   0  0  0  0  0  0  0  0  0  0  0  0
   46.0450   31.5290   47.7240 C   0  0  0  0  0  0  0  0  0  0  0  0
   44.4850   32.3640   46.5370 H   0  0  0  0  0  0  0  0  0  0  0  0
   47.2700   33.6100   46.7490 H   0  0  0  0  0  0  0  0  0  0  0  0
   46.1850   31.6510   44.7170 H   0  0  0  0  0  0  0  0  0  0  0  0
   47.8680   31.9560   45.3390 H   0  0  0  0  0  0  0  0  0  0  0  0
   45.2780   30.8460   48.1250 H   0  0  0  0  0  0  0  0  0  0  0  0
   46.7720   31.8090   48.4940 H   0  0  0  0  0  0  0  0  0  0  0  0
   44.9530   33.6740   48.0800 O   0  0  0  0  0  0  0  0  0  0  0  0
   43.9490   33.7390   48.0870 H   0  0  0  0  0  0  0  0  0  0  0  0
   46.4130   34.9220   41.6000 O   0  0  0  0  0  0  0  0  0  0  0  0
   47.9400   32.8270   40.9930 O   0  0  0  0  0  0  0  0  0  0  0  0
   47.9880   34.3300   41.2450 P   0  0  1  0  0  0  0  0  0  0  0  0
   48.5710   35.1520   39.9260 O   0  0  0  0  0  0  0  0  0  0  0  0
   49.4770   35.4720   40.0840 H   0  0  0  0  0  0  0  0  0  0  0  0
   48.9200   34.6020   42.6240 O   0  0  0  0  0  0  0  0  0  0  0  0
   50.3150   34.6250   42.5900 C   0  0  0  0  0  0  0  0  0  0  0  0
   50.8020   35.5580   42.7540 H   0  0  0  0  0  0  0  0  0  0  0  0
   50.9280   33.5310   42.3650 O   0  0  0  0  0  0  0  0  0  0  0  0
  1  7  1  0  0  0  0
  1  6  1  0  0  0  0
  2  1  2  0  0  0  0
  3  2  1  0  0  0  0
  3  4  2  0  0  0  0
  4  5  1  0  0  0  0
  5  6  2  0  0  0  0
  5 10  1  0  0  0  0
  8  2  1  0  0  0  0
  9 14  1  6  0  0  0
  9 13  1  0  0  0  0
  9 20  1  0  0  0  0
 10 15  1  1  0  0  0
 10  9  1  0  0  0  0
 11 10  1  0  0  0  0
 11 12  1  0  0  0  0
 12 13  1  0  0  0  0
 13 18  1  0  0  0  0
 13 19  1  0  0  0  0
 16 11  1  0  0  0  0
 17 11  1  0  0  0  0
 20 21  1  0  0  0  0
 22  3  1  0  0  0  0
 24 23  2  6  0  0  0
 24 22  1  0  0  0  0
 24 27  1  0  0  0  0
 25 26  1  0  0  0  0
 25 24  1  0  0  0  0
 28 27  1  0  0  0  0
 28 29  1  0  0  0  0
 30 28  2  0  0  0  0
M  END
>  <minimizedAffinity>
-5.5614543

>  <minimizedRMSD>
0.724409759

$$$$
