
 OpenBabel03252502223D

 28 29  0  0  1  0  0  0  0  0999 V2000
   46.8760   34.6330   42.2850 N   0  0  0  0  0  0  0  0  0  0  0  0
   48.3320   34.6910   42.3610 C   0  0  0  0  0  0  0  0  0  0  0  0
   48.7510   35.4700   41.1190 C   0  0  0  0  0  0  0  0  0  0  0  0
   48.3770   34.7150   39.8660 C   0  0  0  0  0  0  0  0  0  0  0  0
   47.0780   33.9940   39.9360 C   0  0  0  0  0  0  0  0  0  0  0  0
   46.1810   34.4140   41.0560 C   0  0  1  0  0  0  0  0  0  0  0  0
   48.8030   33.7070   42.4190 H   0  0  0  0  0  0  0  0  0  0  0  0
   48.5760   35.3280   43.2430 H   0  0  0  0  0  0  0  0  0  0  0  0
   49.8600   35.5530   41.1560 H   0  0  0  0  0  0  0  0  0  0  0  0
   48.3230   36.4810   41.1820 H   0  0  0  0  0  0  0  0  0  0  0  0
   48.4130   35.4440   39.0320 H   0  0  0  0  0  0  0  0  0  0  0  0
   49.1880   33.9820   39.6680 H   0  0  0  0  0  0  0  0  0  0  0  0
   46.5250   34.0940   38.9780 H   0  0  0  0  0  0  0  0  0  0  0  0
   47.2330   32.8890   40.0590 H   0  0  0  0  0  0  0  0  0  0  0  0
   45.6620   35.3650   40.7690 H   0  0  0  0  0  0  0  0  0  0  0  0
   44.4750   35.9350   44.8400 C   0  0  0  0  0  0  0  0  0  0  0  0
   45.1930   35.8660   43.6280 C   0  0  0  0  0  0  0  0  0  0  0  0
   46.0910   34.7990   43.4800 C   0  0  0  0  0  0  0  0  0  0  0  0
   46.2160   33.9000   44.5050 N   0  0  0  0  0  0  0  0  0  0  0  0
   45.4960   34.0200   45.6490 C   0  0  0  0  0  0  0  0  0  0  0  0
   44.6250   35.0450   45.8070 N   0  0  0  0  0  0  0  0  0  0  0  0
   43.7780   36.7460   44.9780 H   0  0  0  0  0  0  0  0  0  0  0  0
   45.0830   36.5830   42.8310 H   0  0  0  0  0  0  0  0  0  0  0  0
   45.6410   33.2680   46.4350 H   0  0  0  0  0  0  0  0  0  0  0  0
   45.2060   33.4280   41.2360 O   0  0  0  0  0  0  0  0  0  0  0  0
   43.8760   33.6490   40.8350 C   0  0  0  0  0  0  0  0  0  0  0  0
   43.2720   32.7430   40.7340 H   0  0  0  0  0  0  0  0  0  0  0  0
   43.4300   34.7890   40.6140 O   0  0  0  0  0  0  0  0  0  0  0  0
  1  2  1  0  0  0  0
  1 18  1  0  0  0  0
  2  7  1  0  0  0  0
  2  8  1  0  0  0  0
  3  9  1  0  0  0  0
  3 10  1  0  0  0  0
  3  2  1  0  0  0  0
  4  5  1  0  0  0  0
  4  3  1  0  0  0  0
  5 14  1  0  0  0  0
  5  6  1  0  0  0  0
  6 15  1  6  0  0  0
  6 25  1  0  0  0  0
  6  1  1  0  0  0  0
 11  4  1  0  0  0  0
 12  4  1  0  0  0  0
 13  5  1  0  0  0  0
 16 22  1  0  0  0  0
 16 21  1  0  0  0  0
 17 16  2  0  0  0  0
 18 17  1  0  0  0  0
 18 19  2  0  0  0  0
 19 20  1  0  0  0  0
 20 21  2  0  0  0  0
 20 24  1  0  0  0  0
 23 17  1  0  0  0  0
 26 25  1  0  0  0  0
 27 26  1  0  0  0  0
 28 26  2  0  0  0  0
M  END
>  <minimizedAffinity>
-4.73997641

>  <minimizedRMSD>
0.309602946

$$$$
