
 OpenBabel03242521583D

 27 28  0  0  0  0  0  0  0  0999 V2000
   46.7700   34.8470   42.1320 C   0  0  0  0  0  0  0  0  0  0  0  0
   48.0290   35.3900   41.9660 C   0  0  0  0  0  0  0  0  0  0  0  0
   48.8000   35.2690   40.8170 C   0  0  0  0  0  0  0  0  0  0  0  0
   48.2830   34.5610   39.7640 C   0  0  0  0  0  0  0  0  0  0  0  0
   47.0490   34.0350   39.9340 C   0  0  0  0  0  0  0  0  0  0  0  0
   46.3280   34.1670   41.0520 N   0  0  0  0  0  0  0  0  0  0  0  0
   48.3690   35.9410   42.8590 H   0  0  0  0  0  0  0  0  0  0  0  0
   49.7580   35.7760   40.9110 H   0  0  0  0  0  0  0  0  0  0  0  0
   49.0180   34.5590   38.9820 H   0  0  0  0  0  0  0  0  0  0  0  0
   44.4430   35.9320   44.8790 C   0  0  0  0  0  0  0  0  0  0  0  0
   45.0940   35.9690   43.6460 C   0  0  0  0  0  0  0  0  0  0  0  0
   45.9960   34.9770   43.3590 C   0  0  0  0  0  0  0  0  0  0  0  0
   46.2110   34.0000   44.3010 N   0  0  0  0  0  0  0  0  0  0  0  0
   45.5660   33.9870   45.4910 C   0  0  0  0  0  0  0  0  0  0  0  0
   44.6860   34.9590   45.7640 N   0  0  0  0  0  0  0  0  0  0  0  0
   43.7500   36.7530   45.0190 H   0  0  0  0  0  0  0  0  0  0  0  0
   44.9450   36.7250   42.8890 H   0  0  0  0  0  0  0  0  0  0  0  0
   45.7950   33.1820   46.1760 H   0  0  0  0  0  0  0  0  0  0  0  0
   46.4930   33.3190   38.8890 O   0  0  0  0  0  0  0  0  0  0  0  0
   47.9060   34.5100   36.9910 O   0  0  0  0  0  0  0  0  0  0  0  0
   47.2500   33.1880   37.3600 P   0  0  1  0  0  0  0  0  0  0  0  0
   48.4360   31.9930   37.4440 O   0  0  0  0  0  0  0  0  0  0  0  0
   48.9300   31.8700   36.6150 H   0  0  0  0  0  0  0  0  0  0  0  0
   46.0590   32.8180   36.2140 O   0  0  0  0  0  0  0  0  0  0  0  0
   46.2050   32.0660   35.0850 C   0  0  0  0  0  0  0  0  0  0  0  0
   47.0530   31.3820   35.2250 H   0  0  0  0  0  0  0  0  0  0  0  0
   45.3000   32.4590   34.3210 O   0  0  0  0  0  0  0  0  0  0  0  0
  1 12  1  0  0  0  0
  2  1  1  0  0  0  0
  2  7  1  0  0  0  0
  3  8  1  0  0  0  0
  3  2  2  0  0  0  0
  4  5  2  0  0  0  0
  4  3  1  0  0  0  0
  5  6  1  0  0  0  0
  6  1  2  0  0  0  0
  9  4  1  0  0  0  0
 10 16  1  0  0  0  0
 10 15  1  0  0  0  0
 11 10  2  0  0  0  0
 12 11  1  0  0  0  0
 12 13  2  0  0  0  0
 13 14  1  0  0  0  0
 14 15  2  0  0  0  0
 14 18  1  0  0  0  0
 17 11  1  0  0  0  0
 19  5  1  0  0  0  0
 21 20  2  6  0  0  0
 21 22  1  0  0  0  0
 21 19  1  0  0  0  0
 23 22  1  0  0  0  0
 24 21  1  0  0  0  0
 25 26  1  0  0  0  0
 25 24  1  0  0  0  0
 27 25  2  0  0  0  0
M  END
>  <minimizedAffinity>
-5.16075087

>  <minimizedRMSD>
0.953807831

$$$$
