
 OpenBabel03252501203D

 20 20  0  0  0  0  0  0  0  0999 V2000
   39.0260   27.9060   43.2940 C   0  0  0  0  0  0  0  0  0  0  0  0
   38.0260   27.0950   42.7940 C   0  0  0  0  0  0  0  0  0  0  0  0
   38.4080   25.7880   42.4590 C   0  0  0  0  0  0  0  0  0  0  0  0
   39.7120   25.3990   42.6360 N   0  0  0  0  0  0  0  0  0  0  0  0
   40.6270   26.2370   43.1230 C   0  0  0  0  0  0  0  0  0  0  0  0
   40.2850   27.5140   43.4610 N   0  0  0  0  0  0  0  0  0  0  0  0
   38.9600   28.9070   43.6260 H   0  0  0  0  0  0  0  0  0  0  0  0
   41.5900   25.7370   43.1850 H   0  0  0  0  0  0  0  0  0  0  0  0
   37.3440   24.9090   41.9390 C   0  0  0  0  0  0  0  0  0  0  0  0
   37.8570   23.6290   41.7590 F   0  0  0  0  0  0  0  0  0  0  0  0
   37.0400   25.3740   40.6850 F   0  0  0  0  0  0  0  0  0  0  0  0
   36.2900   24.8260   42.7910 F   0  0  0  0  0  0  0  0  0  0  0  0
   36.6550   27.5440   42.5690 C   0  0  0  0  0  0  0  0  0  0  0  0
   36.1610   27.1700   41.6930 H   0  0  0  0  0  0  0  0  0  0  0  0
   35.9890   27.3310   43.4510 H   0  0  0  0  0  0  0  0  0  0  0  0
   36.6190   28.9560   42.3020 N   0  0  0  0  0  0  0  0  0  0  0  0
   36.7270   29.6700   43.0810 H   0  0  0  0  0  0  0  0  0  0  0  0
   36.4590   29.7460   41.1590 C   0  0  0  0  0  0  0  0  0  0  0  0
   36.5330   29.5210   40.1330 H   0  0  0  0  0  0  0  0  0  0  0  0
   36.1720   30.9590   41.2530 O   0  0  0  0  0  0  0  0  0  0  0  0
  1  6  1  0  0  0  0
  1  7  1  0  0  0  0
  2  1  2  0  0  0  0
  3  4  2  0  0  0  0
  3  2  1  0  0  0  0
  4  5  1  0  0  0  0
  5  8  1  0  0  0  0
  5  6  2  0  0  0  0
  9  3  1  0  0  0  0
  9 12  1  0  0  0  0
 10  9  1  0  0  0  0
 11  9  1  0  0  0  0
 13  2  1  0  0  0  0
 13 15  1  0  0  0  0
 14 13  1  0  0  0  0
 16 13  1  0  0  0  0
 16 17  1  0  0  0  0
 18 20  2  0  0  0  0
 18 16  1  0  0  0  0
 19 18  1  0  0  0  0
M  END
>  <minimizedAffinity>
-4.11093187

$$$$

 OpenBabel03252501203D

 20 20  0  0  0  0  0  0  0  0999 V2000
   39.5900   29.4870   42.5630 C   0  0  0  0  0  0  0  0  0  0  0  0
   38.3380   28.9150   42.4510 C   0  0  0  0  0  0  0  0  0  0  0  0
   38.2560   27.5540   42.7790 C   0  0  0  0  0  0  0  0  0  0  0  0
   39.3870   26.8860   43.1770 N   0  0  0  0  0  0  0  0  0  0  0  0
   40.5660   27.5030   43.2610 C   0  0  0  0  0  0  0  0  0  0  0  0
   40.6760   28.8270   42.9510 N   0  0  0  0  0  0  0  0  0  0  0  0
   39.8750   30.4900   42.3890 H   0  0  0  0  0  0  0  0  0  0  0  0
   41.3270   26.8020   43.5920 H   0  0  0  0  0  0  0  0  0  0  0  0
   36.9210   26.9360   42.6790 C   0  0  0  0  0  0  0  0  0  0  0  0
   36.3250   27.3300   41.4850 F   0  0  0  0  0  0  0  0  0  0  0  0
   36.1640   27.4930   43.6790 F   0  0  0  0  0  0  0  0  0  0  0  0
   36.9830   25.5810   42.6940 F   0  0  0  0  0  0  0  0  0  0  0  0
   37.1570   29.6330   41.9810 C   0  0  0  0  0  0  0  0  0  0  0  0
   36.5670   29.1500   41.2250 H   0  0  0  0  0  0  0  0  0  0  0  0
   36.4660   29.9110   42.8250 H   0  0  0  0  0  0  0  0  0  0  0  0
   37.5350   30.8330   41.2860 N   0  0  0  0  0  0  0  0  0  0  0  0
   38.4710   31.3030   41.4600 H   0  0  0  0  0  0  0  0  0  0  0  0
   36.9340   31.6570   40.3280 C   0  0  0  0  0  0  0  0  0  0  0  0
   36.1130   31.5040   39.6860 H   0  0  0  0  0  0  0  0  0  0  0  0
   37.3670   32.8080   40.1100 O   0  0  0  0  0  0  0  0  0  0  0  0
  1  6  1  0  0  0  0
  2  1  2  0  0  0  0
  2  3  1  0  0  0  0
  3  4  2  0  0  0  0
  4  5  1  0  0  0  0
  5  8  1  0  0  0  0
  6  5  2  0  0  0  0
  7  1  1  0  0  0  0
  9 12  1  0  0  0  0
  9  3  1  0  0  0  0
  9 11  1  0  0  0  0
 10  9  1  0  0  0  0
 13  2  1  0  0  0  0
 13 15  1  0  0  0  0
 14 13  1  0  0  0  0
 16 17  1  0  0  0  0
 16 13  1  0  0  0  0
 18 16  1  0  0  0  0
 19 18  1  0  0  0  0
 20 18  2  0  0  0  0
M  END
>  <minimizedAffinity>
-3.98985386

$$$$

 OpenBabel03252501203D

 20 20  0  0  0  0  0  0  0  0999 V2000
   36.0330   29.7670   38.8270 C   0  0  0  0  0  0  0  0  0  0  0  0
   36.5740   30.7830   39.5910 C   0  0  0  0  0  0  0  0  0  0  0  0
   37.5530   31.5650   38.9610 C   0  0  0  0  0  0  0  0  0  0  0  0
   37.9100   31.2880   37.6660 N   0  0  0  0  0  0  0  0  0  0  0  0
   37.3450   30.2880   36.9880 C   0  0  0  0  0  0  0  0  0  0  0  0
   36.3890   29.5110   37.5720 N   0  0  0  0  0  0  0  0  0  0  0  0
   35.2760   29.0770   39.0890 H   0  0  0  0  0  0  0  0  0  0  0  0
   37.7650   30.2370   35.9870 H   0  0  0  0  0  0  0  0  0  0  0  0
   38.1260   32.6630   39.7620 C   0  0  0  0  0  0  0  0  0  0  0  0
   39.1940   33.2240   39.0690 F   0  0  0  0  0  0  0  0  0  0  0  0
   38.6660   32.0820   40.8810 F   0  0  0  0  0  0  0  0  0  0  0  0
   37.2200   33.6440   40.0060 F   0  0  0  0  0  0  0  0  0  0  0  0
   36.2130   31.0310   40.9830 C   0  0  0  0  0  0  0  0  0  0  0  0
   36.8060   31.7500   41.5150 H   0  0  0  0  0  0  0  0  0  0  0  0
   35.1340   31.3330   41.0940 H   0  0  0  0  0  0  0  0  0  0  0  0
   36.4450   29.8610   41.7850 N   0  0  0  0  0  0  0  0  0  0  0  0
   35.6870   29.1310   41.9320 H   0  0  0  0  0  0  0  0  0  0  0  0
   37.5240   29.3580   42.5190 C   0  0  0  0  0  0  0  0  0  0  0  0
   38.5500   29.5980   42.5140 H   0  0  0  0  0  0  0  0  0  0  0  0
   37.3570   28.4580   43.3690 O   0  0  0  0  0  0  0  0  0  0  0  0
  1  7  1  0  0  0  0
  1  2  1  0  0  0  0
  2 13  1  0  0  0  0
  3  2  2  0  0  0  0
  3  9  1  0  0  0  0
  4  3  1  0  0  0  0
  5  6  1  0  0  0  0
  5  4  2  0  0  0  0
  6  1  2  0  0  0  0
  8  5  1  0  0  0  0
  9 12  1  0  0  0  0
  9 11  1  0  0  0  0
 10  9  1  0  0  0  0
 13 15  1  0  0  0  0
 13 14  1  0  0  0  0
 13 16  1  0  0  0  0
 16 17  1  0  0  0  0
 16 18  1  0  0  0  0
 18 20  2  0  0  0  0
 19 18  1  0  0  0  0
M  END
>  <minimizedAffinity>
-3.90186334

$$$$

 OpenBabel03252501203D

 20 20  0  0  0  0  0  0  0  0999 V2000
   36.6740   27.9400   39.2630 C   0  0  0  0  0  0  0  0  0  0  0  0
   36.4920   28.2550   40.5950 C   0  0  0  0  0  0  0  0  0  0  0  0
   37.3530   27.6130   41.4980 C   0  0  0  0  0  0  0  0  0  0  0  0
   38.2950   26.7350   41.0260 N   0  0  0  0  0  0  0  0  0  0  0  0
   38.4130   26.4760   39.7230 C   0  0  0  0  0  0  0  0  0  0  0  0
   37.5920   27.0860   38.8200 N   0  0  0  0  0  0  0  0  0  0  0  0
   36.1590   28.3150   38.4190 H   0  0  0  0  0  0  0  0  0  0  0  0
   39.2120   25.7580   39.5600 H   0  0  0  0  0  0  0  0  0  0  0  0
   37.1780   27.9560   42.9220 C   0  0  0  0  0  0  0  0  0  0  0  0
   38.1440   27.2940   43.6720 F   0  0  0  0  0  0  0  0  0  0  0  0
   35.9740   27.4200   43.3010 F   0  0  0  0  0  0  0  0  0  0  0  0
   37.3080   29.2880   43.1460 F   0  0  0  0  0  0  0  0  0  0  0  0
   35.4520   29.1580   41.0800 C   0  0  0  0  0  0  0  0  0  0  0  0
   34.4690   29.0270   40.6700 H   0  0  0  0  0  0  0  0  0  0  0  0
   35.3590   29.1330   42.2010 H   0  0  0  0  0  0  0  0  0  0  0  0
   35.7230   30.5100   40.6740 N   0  0  0  0  0  0  0  0  0  0  0  0
   34.9420   31.1710   40.3920 H   0  0  0  0  0  0  0  0  0  0  0  0
   36.8750   31.2910   40.5280 C   0  0  0  0  0  0  0  0  0  0  0  0
   37.8580   31.1650   40.8820 H   0  0  0  0  0  0  0  0  0  0  0  0
   36.8480   32.3540   39.8730 O   0  0  0  0  0  0  0  0  0  0  0  0
  1  2  1  0  0  0  0
  2 13  1  0  0  0  0
  2  3  2  0  0  0  0
  3  9  1  0  0  0  0
  4  3  1  0  0  0  0
  5  4  2  0  0  0  0
  6  1  2  0  0  0  0
  6  5  1  0  0  0  0
  7  1  1  0  0  0  0
  8  5  1  0  0  0  0
  9 12  1  0  0  0  0
  9 11  1  0  0  0  0
  9 10  1  0  0  0  0
 13 15  1  0  0  0  0
 14 13  1  0  0  0  0
 16 13  1  0  0  0  0
 17 16  1  0  0  0  0
 18 16  1  0  0  0  0
 18 19  1  0  0  0  0
 20 18  2  0  0  0  0
M  END
>  <minimizedAffinity>
-3.83232117

$$$$

 OpenBabel03252501203D

 20 20  0  0  0  0  0  0  0  0999 V2000
   37.5890   30.5900   41.1880 C   0  0  0  0  0  0  0  0  0  0  0  0
   37.0610   29.3810   41.5970 C   0  0  0  0  0  0  0  0  0  0  0  0
   37.8320   28.6570   42.5180 C   0  0  0  0  0  0  0  0  0  0  0  0
   39.0300   29.1700   42.9470 N   0  0  0  0  0  0  0  0  0  0  0  0
   39.4800   30.3450   42.5080 C   0  0  0  0  0  0  0  0  0  0  0  0
   38.7520   31.0740   41.6130 N   0  0  0  0  0  0  0  0  0  0  0  0
   37.1750   31.3000   40.5240 H   0  0  0  0  0  0  0  0  0  0  0  0
   40.4400   30.5670   42.9660 H   0  0  0  0  0  0  0  0  0  0  0  0
   37.2680   27.3720   42.9740 C   0  0  0  0  0  0  0  0  0  0  0  0
   36.8530   26.6390   41.8680 F   0  0  0  0  0  0  0  0  0  0  0  0
   36.1290   27.6790   43.6730 F   0  0  0  0  0  0  0  0  0  0  0  0
   38.1770   26.6310   43.6570 F   0  0  0  0  0  0  0  0  0  0  0  0
   35.8050   28.8330   41.0920 C   0  0  0  0  0  0  0  0  0  0  0  0
   35.7050   27.7640   41.1040 H   0  0  0  0  0  0  0  0  0  0  0  0
   34.9110   29.2630   41.6230 H   0  0  0  0  0  0  0  0  0  0  0  0
   35.6680   29.0890   39.6840 N   0  0  0  0  0  0  0  0  0  0  0  0
   36.3050   29.7740   39.1810 H   0  0  0  0  0  0  0  0  0  0  0  0
   34.8200   28.6320   38.6700 C   0  0  0  0  0  0  0  0  0  0  0  0
   34.1740   27.8020   38.6150 H   0  0  0  0  0  0  0  0  0  0  0  0
   34.7300   29.2450   37.5860 O   0  0  0  0  0  0  0  0  0  0  0  0
  1  2  2  0  0  0  0
  1  6  1  0  0  0  0
  2  3  1  0  0  0  0
  3  4  2  0  0  0  0
  3  9  1  0  0  0  0
  5  4  1  0  0  0  0
  5  8  1  0  0  0  0
  6  5  2  0  0  0  0
  7  1  1  0  0  0  0
  9 12  1  0  0  0  0
  9 11  1  0  0  0  0
 10  9  1  0  0  0  0
 13 14  1  0  0  0  0
 13  2  1  0  0  0  0
 13 15  1  0  0  0  0
 16 13  1  0  0  0  0
 17 16  1  0  0  0  0
 18 16  1  0  0  0  0
 19 18  1  0  0  0  0
 20 18  2  0  0  0  0
M  END
>  <minimizedAffinity>
-3.67474031

$$$$

 OpenBabel03252501203D

 20 20  0  0  0  0  0  0  0  0999 V2000
   38.3770   29.1810   43.0340 C   0  0  0  0  0  0  0  0  0  0  0  0
   37.3440   28.6590   42.2800 C   0  0  0  0  0  0  0  0  0  0  0  0
   37.0850   29.3080   41.0640 C   0  0  0  0  0  0  0  0  0  0  0  0
   37.8440   30.3920   40.7020 N   0  0  0  0  0  0  0  0  0  0  0  0
   38.8270   30.8440   41.4810 C   0  0  0  0  0  0  0  0  0  0  0  0
   39.1040   30.2330   42.6690 N   0  0  0  0  0  0  0  0  0  0  0  0
   38.7530   28.8430   43.9620 H   0  0  0  0  0  0  0  0  0  0  0  0
   39.3010   31.7040   41.0160 H   0  0  0  0  0  0  0  0  0  0  0  0
   35.9950   28.7480   40.2440 C   0  0  0  0  0  0  0  0  0  0  0  0
   35.8580   29.5070   39.0870 F   0  0  0  0  0  0  0  0  0  0  0  0
   34.8390   28.9380   40.9590 F   0  0  0  0  0  0  0  0  0  0  0  0
   36.2390   27.4630   39.8800 F   0  0  0  0  0  0  0  0  0  0  0  0
   36.5180   27.5330   42.7070 C   0  0  0  0  0  0  0  0  0  0  0  0
   36.1910   27.5340   43.7290 H   0  0  0  0  0  0  0  0  0  0  0  0
   35.6070   27.4060   42.0590 H   0  0  0  0  0  0  0  0  0  0  0  0
   37.2720   26.3090   42.6780 N   0  0  0  0  0  0  0  0  0  0  0  0
   38.2200   26.2310   43.1510 H   0  0  0  0  0  0  0  0  0  0  0  0
   37.0800   25.0370   42.1280 C   0  0  0  0  0  0  0  0  0  0  0  0
   36.2210   24.5550   41.7580 H   0  0  0  0  0  0  0  0  0  0  0  0
   38.0360   24.2430   42.0030 O   0  0  0  0  0  0  0  0  0  0  0  0
  1  7  1  0  0  0  0
  2 13  1  0  0  0  0
  2  1  2  0  0  0  0
  3  2  1  0  0  0  0
  4  3  2  0  0  0  0
  4  5  1  0  0  0  0
  5  6  2  0  0  0  0
  6  1  1  0  0  0  0
  8  5  1  0  0  0  0
  9 11  1  0  0  0  0
  9  3  1  0  0  0  0
 10  9  1  0  0  0  0
 12  9  1  0  0  0  0
 13 14  1  0  0  0  0
 15 13  1  0  0  0  0
 16 13  1  0  0  0  0
 16 17  1  0  0  0  0
 18 16  1  0  0  0  0
 19 18  1  0  0  0  0
 20 18  2  0  0  0  0
M  END
>  <minimizedAffinity>
-3.66753936

$$$$

 OpenBabel03252501203D

 20 20  0  0  0  0  0  0  0  0999 V2000
   37.0130   30.7200   41.1880 C   0  0  0  0  0  0  0  0  0  0  0  0
   37.6890   29.6820   41.8000 C   0  0  0  0  0  0  0  0  0  0  0  0
   37.1080   28.4130   41.6690 C   0  0  0  0  0  0  0  0  0  0  0  0
   35.9370   28.2740   40.9680 N   0  0  0  0  0  0  0  0  0  0  0  0
   35.3360   29.3230   40.4040 C   0  0  0  0  0  0  0  0  0  0  0  0
   35.8780   30.5700   40.5120 N   0  0  0  0  0  0  0  0  0  0  0  0
   37.2760   31.7420   41.1420 H   0  0  0  0  0  0  0  0  0  0  0  0
   34.4290   29.0010   39.9010 H   0  0  0  0  0  0  0  0  0  0  0  0
   37.8310   27.2950   42.3040 C   0  0  0  0  0  0  0  0  0  0  0  0
   37.0870   26.1290   42.1600 F   0  0  0  0  0  0  0  0  0  0  0  0
   37.8520   27.5650   43.6490 F   0  0  0  0  0  0  0  0  0  0  0  0
   39.0500   27.0910   41.7420 F   0  0  0  0  0  0  0  0  0  0  0  0
   38.9100   29.8590   42.5800 C   0  0  0  0  0  0  0  0  0  0  0  0
   38.7910   30.0090   43.6370 H   0  0  0  0  0  0  0  0  0  0  0  0
   39.6320   29.0080   42.4380 H   0  0  0  0  0  0  0  0  0  0  0  0
   39.5720   31.0830   42.2200 N   0  0  0  0  0  0  0  0  0  0  0  0
   39.2520   32.0200   42.6040 H   0  0  0  0  0  0  0  0  0  0  0  0
   40.6520   31.4230   41.3980 C   0  0  0  0  0  0  0  0  0  0  0  0
   41.4240   30.8430   40.9770 H   0  0  0  0  0  0  0  0  0  0  0  0
   40.8330   32.6040   41.0330 O   0  0  0  0  0  0  0  0  0  0  0  0
  1  2  1  0  0  0  0
  2 13  1  0  0  0  0
  3  2  2  0  0  0  0
  3  9  1  0  0  0  0
  4  3  1  0  0  0  0
  5  6  1  0  0  0  0
  5  4  2  0  0  0  0
  6  1  2  0  0  0  0
  7  1  1  0  0  0  0
  8  5  1  0  0  0  0
  9 11  1  0  0  0  0
 10  9  1  0  0  0  0
 12  9  1  0  0  0  0
 13 14  1  0  0  0  0
 15 13  1  0  0  0  0
 16 13  1  0  0  0  0
 16 17  1  0  0  0  0
 18 16  1  0  0  0  0
 19 18  1  0  0  0  0
 20 18  2  0  0  0  0
M  END
>  <minimizedAffinity>
-3.65016866

$$$$

 OpenBabel03252501203D

 20 20  0  0  0  0  0  0  0  0999 V2000
   37.8030   29.7090   42.3250 C   0  0  0  0  0  0  0  0  0  0  0  0
   37.0130   29.6520   41.1930 C   0  0  0  0  0  0  0  0  0  0  0  0
   37.2800   28.5930   40.3140 C   0  0  0  0  0  0  0  0  0  0  0  0
   38.2800   27.7020   40.6130 N   0  0  0  0  0  0  0  0  0  0  0  0
   39.0060   27.8190   41.7250 C   0  0  0  0  0  0  0  0  0  0  0  0
   38.7690   28.8380   42.6010 N   0  0  0  0  0  0  0  0  0  0  0  0
   37.7640   30.4010   43.1230 H   0  0  0  0  0  0  0  0  0  0  0  0
   39.7400   27.0190   41.7730 H   0  0  0  0  0  0  0  0  0  0  0  0
   36.4310   28.5130   39.1110 C   0  0  0  0  0  0  0  0  0  0  0  0
   36.7400   27.3510   38.4110 F   0  0  0  0  0  0  0  0  0  0  0  0
   36.8120   29.5530   38.3020 F   0  0  0  0  0  0  0  0  0  0  0  0
   35.1100   28.4810   39.4200 F   0  0  0  0  0  0  0  0  0  0  0  0
   35.9850   30.6380   40.8720 C   0  0  0  0  0  0  0  0  0  0  0  0
   35.4840   30.5230   39.9300 H   0  0  0  0  0  0  0  0  0  0  0  0
   35.1960   30.7030   41.6710 H   0  0  0  0  0  0  0  0  0  0  0  0
   36.5670   31.9410   40.6980 N   0  0  0  0  0  0  0  0  0  0  0  0
   36.5180   32.6760   41.4620 H   0  0  0  0  0  0  0  0  0  0  0  0
   37.2630   32.5880   39.6710 C   0  0  0  0  0  0  0  0  0  0  0  0
   37.7440   32.2220   38.8090 H   0  0  0  0  0  0  0  0  0  0  0  0
   37.3980   33.8300   39.6740 O   0  0  0  0  0  0  0  0  0  0  0  0
  1  6  1  0  0  0  0
  1  7  1  0  0  0  0
  2  1  2  0  0  0  0
  3  4  2  0  0  0  0
  3  2  1  0  0  0  0
  4  5  1  0  0  0  0
  5  8  1  0  0  0  0
  5  6  2  0  0  0  0
  9 12  1  0  0  0  0
  9  3  1  0  0  0  0
 10  9  1  0  0  0  0
 11  9  1  0  0  0  0
 13  2  1  0  0  0  0
 13 15  1  0  0  0  0
 14 13  1  0  0  0  0
 16 13  1  0  0  0  0
 16 17  1  0  0  0  0
 18 20  2  0  0  0  0
 18 16  1  0  0  0  0
 19 18  1  0  0  0  0
M  END
>  <minimizedAffinity>
-3.64329863

$$$$

 OpenBabel03252501203D

 20 20  0  0  0  0  0  0  0  0999 V2000
   37.2500   29.1950   40.1810 C   0  0  0  0  0  0  0  0  0  0  0  0
   37.2760   28.5910   41.4230 C   0  0  0  0  0  0  0  0  0  0  0  0
   36.9700   27.2230   41.4430 C   0  0  0  0  0  0  0  0  0  0  0  0
   36.6690   26.5800   40.2690 N   0  0  0  0  0  0  0  0  0  0  0  0
   36.6620   27.2280   39.1030 C   0  0  0  0  0  0  0  0  0  0  0  0
   36.9570   28.5590   39.0510 N   0  0  0  0  0  0  0  0  0  0  0  0
   37.4650   30.2000   39.9310 H   0  0  0  0  0  0  0  0  0  0  0  0
   36.4000   26.5430   38.3020 H   0  0  0  0  0  0  0  0  0  0  0  0
   37.0110   26.5640   42.7620 C   0  0  0  0  0  0  0  0  0  0  0  0
   36.6400   25.2320   42.6180 F   0  0  0  0  0  0  0  0  0  0  0  0
   36.0250   27.1510   43.5150 F   0  0  0  0  0  0  0  0  0  0  0  0
   38.2510   26.6000   43.3120 F   0  0  0  0  0  0  0  0  0  0  0  0
   37.5530   29.3050   42.6660 C   0  0  0  0  0  0  0  0  0  0  0  0
   37.0050   30.2130   42.8340 H   0  0  0  0  0  0  0  0  0  0  0  0
   37.4120   28.6500   43.5700 H   0  0  0  0  0  0  0  0  0  0  0  0
   38.8990   29.8100   42.6730 N   0  0  0  0  0  0  0  0  0  0  0  0
   39.1010   30.8460   42.7930 H   0  0  0  0  0  0  0  0  0  0  0  0
   40.1720   29.2440   42.5480 C   0  0  0  0  0  0  0  0  0  0  0  0
   40.5100   28.2500   42.6260 H   0  0  0  0  0  0  0  0  0  0  0  0
   41.1670   29.9560   42.2950 O   0  0  0  0  0  0  0  0  0  0  0  0
  1  2  1  0  0  0  0
  2  3  2  0  0  0  0
  2 13  1  0  0  0  0
  3  9  1  0  0  0  0
  4  3  1  0  0  0  0
  5  4  2  0  0  0  0
  6  5  1  0  0  0  0
  6  1  2  0  0  0  0
  7  1  1  0  0  0  0
  8  5  1  0  0  0  0
  9 12  1  0  0  0  0
  9 11  1  0  0  0  0
 10  9  1  0  0  0  0
 13 16  1  0  0  0  0
 13 14  1  0  0  0  0
 13 15  1  0  0  0  0
 16 17  1  0  0  0  0
 18 19  1  0  0  0  0
 18 16  1  0  0  0  0
 20 18  2  0  0  0  0
M  END
>  <minimizedAffinity>
-3.62350798

$$$$
