
 OpenBabel03252507503D

 39 40  0  0  0  0  0  0  0  0999 V2000
   40.5290   30.3970   41.1500 C   0  0  0  0  0  0  0  0  0  0  0  0
   40.3000   29.6540   40.3420 H   0  0  0  0  0  0  0  0  0  0  0  0
   41.6510   30.4160   41.1880 H   0  0  0  0  0  0  0  0  0  0  0  0
   39.9830   31.7150   40.7740 C   0  0  0  0  0  0  0  0  0  0  0  0
   40.8250   32.5760   40.0850 C   0  0  0  0  0  0  0  0  0  0  0  0
   40.3930   33.8250   39.6970 C   0  0  0  0  0  0  0  0  0  0  0  0
   39.0930   34.1610   40.0300 N   0  0  0  0  0  0  0  0  0  0  0  0
   38.3060   33.2920   40.7000 C   0  0  0  0  0  0  0  0  0  0  0  0
   38.7540   32.0950   41.0620 N   0  0  0  0  0  0  0  0  0  0  0  0
   41.0490   34.5010   39.1580 H   0  0  0  0  0  0  0  0  0  0  0  0
   37.3140   33.6540   40.9090 H   0  0  0  0  0  0  0  0  0  0  0  0
   42.4870   32.0570   39.6990 S   0  0  0  0  0  0  0  0  0  0  0  0
   42.7610   32.0860   37.9070 C   0  0  0  0  0  0  0  0  0  0  0  0
   43.2820   31.1900   37.5250 H   0  0  0  0  0  0  0  0  0  0  0  0
   41.7360   32.0510   37.4560 H   0  0  0  0  0  0  0  0  0  0  0  0
   43.4070   33.3830   37.5400 C   0  0  0  0  0  0  0  0  0  0  0  0
   43.6300   33.9630   38.4800 H   0  0  0  0  0  0  0  0  0  0  0  0
   44.3990   33.2360   37.0480 H   0  0  0  0  0  0  0  0  0  0  0  0
   42.4960   34.1570   36.7710 N   0  0  0  0  0  0  0  0  0  0  0  0
   41.9360   33.5070   36.1420 H   0  0  0  0  0  0  0  0  0  0  0  0
   43.0620   34.7570   36.1180 H   0  0  0  0  0  0  0  0  0  0  0  0
   40.0610   29.8940   42.4690 C   0  0  0  0  0  0  0  0  0  0  0  0
   40.9130   29.5180   43.0800 H   0  0  0  0  0  0  0  0  0  0  0  0
   39.6430   30.7550   43.0600 H   0  0  0  0  0  0  0  0  0  0  0  0
   39.0150   28.8560   42.3800 C   0  0  0  0  0  0  0  0  0  0  0  0
   39.0450   27.7530   43.2870 C   0  0  0  0  0  0  0  0  0  0  0  0
   37.5810   26.7750   42.7840 S   0  0  0  0  0  0  0  0  0  0  0  0
   37.1660   28.0360   41.4160 C   0  0  0  0  0  0  0  0  0  0  0  0
   38.0130   28.7930   41.5530 N   0  0  0  0  0  0  0  0  0  0  0  0
   39.7500   27.5410   44.0720 H   0  0  0  0  0  0  0  0  0  0  0  0
   36.0790   27.9140   40.5620 O   0  0  0  0  0  0  0  0  0  0  0  0
   33.9050   29.2030   39.7660 O   0  0  0  0  0  0  0  0  0  0  0  0
   35.4220   29.3540   39.9430 P   0  0  1  0  0  0  0  0  0  0  0  0
   35.7060   30.5820   41.0700 O   0  0  0  0  0  0  0  0  0  0  0  0
   35.2200   30.4010   41.9030 H   0  0  0  0  0  0  0  0  0  0  0  0
   36.1680   29.7670   38.4910 O   0  0  0  0  0  0  0  0  0  0  0  0
   36.8760   30.9500   38.3340 C   0  0  0  0  0  0  0  0  0  0  0  0
   36.3750   31.8170   38.7530 H   0  0  0  0  0  0  0  0  0  0  0  0
   37.9880   30.9490   37.7510 O   0  0  0  0  0  0  0  0  0  0  0  0
  1  3  1  0  0  0  0
  1 22  1  0  0  0  0
  2  1  1  0  0  0  0
  4  9  1  0  0  0  0
  4  1  1  0  0  0  0
  5  4  2  0  0  0  0
  6  7  2  0  0  0  0
  6  5  1  0  0  0  0
  7  8  1  0  0  0  0
  8 11  1  0  0  0  0
  8  9  2  0  0  0  0
 10  6  1  0  0  0  0
 12  5  1  0  0  0  0
 13 12  1  0  0  0  0
 14 13  1  0  0  0  0
 15 13  1  0  0  0  0
 16 13  1  0  0  0  0
 16 17  1  0  0  0  0
 18 16  1  0  0  0  0
 19 16  1  0  0  0  0
 20 19  1  0  0  0  0
 21 19  1  0  0  0  0
 22 24  1  0  0  0  0
 22 23  1  0  0  0  0
 25 22  1  0  0  0  0
 25 26  2  0  0  0  0
 26 30  1  0  0  0  0
 27 26  1  0  0  0  0
 28 29  2  0  0  0  0
 28 27  1  0  0  0  0
 29 25  1  0  0  0  0
 31 28  1  0  0  0  0
 33 32  2  6  0  0  0
 33 31  1  0  0  0  0
 33 34  1  0  0  0  0
 34 35  1  0  0  0  0
 36 33  1  0  0  0  0
 37 36  1  0  0  0  0
 37 38  1  0  0  0  0
 39 37  2  0  0  0  0
M  END
>  <minimizedAffinity>
-4.75491285

$$$$

 OpenBabel03252507503D

 39 40  0  0  0  0  0  0  0  0999 V2000
   39.1550   30.5660   42.3840 C   0  0  0  0  0  0  0  0  0  0  0  0
   38.9410   31.0810   41.4110 H   0  0  0  0  0  0  0  0  0  0  0  0
   38.7400   31.2670   43.1570 H   0  0  0  0  0  0  0  0  0  0  0  0
   38.4600   29.2650   42.4130 C   0  0  0  0  0  0  0  0  0  0  0  0
   37.1960   29.2100   41.8470 C   0  0  0  0  0  0  0  0  0  0  0  0
   36.4790   28.0330   41.8330 C   0  0  0  0  0  0  0  0  0  0  0  0
   37.0870   26.9320   42.4070 N   0  0  0  0  0  0  0  0  0  0  0  0
   38.3220   27.0280   42.9470 C   0  0  0  0  0  0  0  0  0  0  0  0
   38.9860   28.1790   42.9450 N   0  0  0  0  0  0  0  0  0  0  0  0
   35.4890   27.9860   41.3910 H   0  0  0  0  0  0  0  0  0  0  0  0
   38.7010   26.1130   43.3670 H   0  0  0  0  0  0  0  0  0  0  0  0
   36.4890   30.6820   41.1290 S   0  0  0  0  0  0  0  0  0  0  0  0
   37.0980   30.9180   39.4380 C   0  0  0  0  0  0  0  0  0  0  0  0
   37.8090   30.1380   39.1110 H   0  0  0  0  0  0  0  0  0  0  0  0
   36.1970   30.7920   38.7850 H   0  0  0  0  0  0  0  0  0  0  0  0
   37.6040   32.3170   39.2990 C   0  0  0  0  0  0  0  0  0  0  0  0
   36.7460   32.9940   39.0230 H   0  0  0  0  0  0  0  0  0  0  0  0
   37.9930   32.7230   40.2650 H   0  0  0  0  0  0  0  0  0  0  0  0
   38.5450   32.3700   38.2350 N   0  0  0  0  0  0  0  0  0  0  0  0
   39.1110   31.4690   38.2300 H   0  0  0  0  0  0  0  0  0  0  0  0
   39.2360   33.1310   38.4600 H   0  0  0  0  0  0  0  0  0  0  0  0
   40.6210   30.4840   42.6180 C   0  0  0  0  0  0  0  0  0  0  0  0
   40.8550   30.4960   43.7070 H   0  0  0  0  0  0  0  0  0  0  0  0
   40.9920   29.4840   42.2570 H   0  0  0  0  0  0  0  0  0  0  0  0
   41.4000   31.5310   41.9290 C   0  0  0  0  0  0  0  0  0  0  0  0
   42.6030   32.0170   42.5280 C   0  0  0  0  0  0  0  0  0  0  0  0
   43.1800   33.2670   41.3220 S   0  0  0  0  0  0  0  0  0  0  0  0
   41.6820   32.9210   40.1940 C   0  0  0  0  0  0  0  0  0  0  0  0
   41.1400   32.1110   40.7940 N   0  0  0  0  0  0  0  0  0  0  0  0
   43.0610   31.7260   43.4560 H   0  0  0  0  0  0  0  0  0  0  0  0
   41.4590   33.5750   38.9900 O   0  0  0  0  0  0  0  0  0  0  0  0
   41.1750   31.9450   36.9200 O   0  0  0  0  0  0  0  0  0  0  0  0
   42.1690   32.8940   37.6040 P   0  0  1  0  0  0  0  0  0  0  0  0
   42.5270   34.1500   36.5310 O   0  0  0  0  0  0  0  0  0  0  0  0
   41.7020   34.5850   36.2250 H   0  0  0  0  0  0  0  0  0  0  0  0
   43.5980   32.0970   38.0030 O   0  0  0  0  0  0  0  0  0  0  0  0
   44.8420   32.6980   37.8670 C   0  0  0  0  0  0  0  0  0  0  0  0
   45.6200   32.0190   37.5350 H   0  0  0  0  0  0  0  0  0  0  0  0
   44.9840   33.9200   38.1210 O   0  0  0  0  0  0  0  0  0  0  0  0
  1  4  1  0  0  0  0
  1 22  1  0  0  0  0
  1  3  1  0  0  0  0
  2  1  1  0  0  0  0
  4  9  1  0  0  0  0
  5  4  2  0  0  0  0
  6  5  1  0  0  0  0
  6  7  2  0  0  0  0
  7  8  1  0  0  0  0
  8 11  1  0  0  0  0
  9  8  2  0  0  0  0
 10  6  1  0  0  0  0
 12  5  1  0  0  0  0
 13 12  1  0  0  0  0
 14 13  1  0  0  0  0
 15 13  1  0  0  0  0
 16 13  1  0  0  0  0
 16 18  1  0  0  0  0
 17 16  1  0  0  0  0
 19 21  1  0  0  0  0
 19 16  1  0  0  0  0
 20 19  1  0  0  0  0
 22 23  1  0  0  0  0
 24 22  1  0  0  0  0
 25 26  2  0  0  0  0
 25 22  1  0  0  0  0
 26 30  1  0  0  0  0
 27 26  1  0  0  0  0
 28 29  2  0  0  0  0
 28 27  1  0  0  0  0
 29 25  1  0  0  0  0
 31 28  1  0  0  0  0
 33 32  2  6  0  0  0
 33 36  1  0  0  0  0
 33 31  1  0  0  0  0
 34 33  1  0  0  0  0
 35 34  1  0  0  0  0
 37 36  1  0  0  0  0
 37 39  2  0  0  0  0
 38 37  1  0  0  0  0
M  END
>  <minimizedAffinity>
-4.66509533

$$$$

 OpenBabel03252507503D

 39 40  0  0  0  0  0  0  0  0999 V2000
   35.9710   30.2020   40.6790 C   0  0  0  0  0  0  0  0  0  0  0  0
   35.4210   31.0210   41.2140 H   0  0  0  0  0  0  0  0  0  0  0  0
   36.2920   30.6780   39.7140 H   0  0  0  0  0  0  0  0  0  0  0  0
   37.1340   29.7850   41.4850 C   0  0  0  0  0  0  0  0  0  0  0  0
   38.2390   30.6230   41.4810 C   0  0  0  0  0  0  0  0  0  0  0  0
   39.3670   30.3070   42.2070 C   0  0  0  0  0  0  0  0  0  0  0  0
   39.3300   29.1260   42.9240 N   0  0  0  0  0  0  0  0  0  0  0  0
   38.2320   28.3390   42.9010 C   0  0  0  0  0  0  0  0  0  0  0  0
   37.1610   28.6720   42.1900 N   0  0  0  0  0  0  0  0  0  0  0  0
   40.2330   30.9610   42.2060 H   0  0  0  0  0  0  0  0  0  0  0  0
   38.3090   27.4440   43.4950 H   0  0  0  0  0  0  0  0  0  0  0  0
   38.1970   32.1280   40.5240 S   0  0  0  0  0  0  0  0  0  0  0  0
   38.8200   31.8310   38.8470 C   0  0  0  0  0  0  0  0  0  0  0  0
   39.7230   32.4200   38.6010 H   0  0  0  0  0  0  0  0  0  0  0  0
   39.1520   30.7620   38.8460 H   0  0  0  0  0  0  0  0  0  0  0  0
   37.6920   31.9890   37.8800 C   0  0  0  0  0  0  0  0  0  0  0  0
   37.0370   31.0740   37.9250 H   0  0  0  0  0  0  0  0  0  0  0  0
   37.0200   32.8400   38.1510 H   0  0  0  0  0  0  0  0  0  0  0  0
   38.2170   32.0710   36.5620 N   0  0  0  0  0  0  0  0  0  0  0  0
   39.1330   32.6100   36.5870 H   0  0  0  0  0  0  0  0  0  0  0  0
   37.5590   32.6660   35.9950 H   0  0  0  0  0  0  0  0  0  0  0  0
   35.0410   29.0960   40.3270 C   0  0  0  0  0  0  0  0  0  0  0  0
   35.3910   28.1280   40.7520 H   0  0  0  0  0  0  0  0  0  0  0  0
   34.0480   29.2830   40.8220 H   0  0  0  0  0  0  0  0  0  0  0  0
   34.8040   28.9470   38.8780 C   0  0  0  0  0  0  0  0  0  0  0  0
   35.9200   28.8810   37.9890 C   0  0  0  0  0  0  0  0  0  0  0  0
   35.1230   28.7020   36.3500 S   0  0  0  0  0  0  0  0  0  0  0  0
   33.3920   28.7450   37.1490 C   0  0  0  0  0  0  0  0  0  0  0  0
   33.6650   28.8610   38.2540 N   0  0  0  0  0  0  0  0  0  0  0  0
   36.9700   28.9260   38.2170 H   0  0  0  0  0  0  0  0  0  0  0  0
   32.2110   28.6480   36.4270 O   0  0  0  0  0  0  0  0  0  0  0  0
   29.5810   28.9510   36.5520 O   0  0  0  0  0  0  0  0  0  0  0  0
   30.9100   29.6070   36.9530 P   0  0  1  0  0  0  0  0  0  0  0  0
   30.9720   29.6900   38.6410 O   0  0  0  0  0  0  0  0  0  0  0  0
   30.8280   28.8020   39.0330 H   0  0  0  0  0  0  0  0  0  0  0  0
   31.0340   31.1660   36.3280 O   0  0  0  0  0  0  0  0  0  0  0  0
   30.2130   32.2000   36.7530 C   0  0  0  0  0  0  0  0  0  0  0  0
   29.8750   32.8470   35.9500 H   0  0  0  0  0  0  0  0  0  0  0  0
   29.9270   32.3210   37.9700 O   0  0  0  0  0  0  0  0  0  0  0  0
  1  2  1  0  0  0  0
  1  4  1  0  0  0  0
  3  1  1  0  0  0  0
  4  9  1  0  0  0  0
  5  4  2  0  0  0  0
  5  6  1  0  0  0  0
  6  7  2  0  0  0  0
  8  7  1  0  0  0  0
  8 11  1  0  0  0  0
  9  8  2  0  0  0  0
 10  6  1  0  0  0  0
 12  5  1  0  0  0  0
 13 12  1  0  0  0  0
 14 13  1  0  0  0  0
 15 13  1  0  0  0  0
 16 17  1  0  0  0  0
 16 18  1  0  0  0  0
 16 13  1  0  0  0  0
 19 20  1  0  0  0  0
 19 16  1  0  0  0  0
 21 19  1  0  0  0  0
 22  1  1  0  0  0  0
 22 23  1  0  0  0  0
 22 24  1  0  0  0  0
 25 22  1  0  0  0  0
 26 30  1  0  0  0  0
 26 25  2  0  0  0  0
 27 28  1  0  0  0  0
 27 26  1  0  0  0  0
 28 29  2  0  0  0  0
 29 25  1  0  0  0  0
 31 33  1  0  0  0  0
 31 28  1  0  0  0  0
 33 32  2  6  0  0  0
 33 34  1  0  0  0  0
 34 35  1  0  0  0  0
 36 37  1  0  0  0  0
 36 33  1  0  0  0  0
 37 39  2  0  0  0  0
 38 37  1  0  0  0  0
M  END
>  <minimizedAffinity>
-4.65627146

$$$$

 OpenBabel03252507503D

 39 40  0  0  0  0  0  0  0  0999 V2000
   36.5380   30.7260   39.7670 C   0  0  0  0  0  0  0  0  0  0  0  0
   35.6670   31.2620   39.3050 H   0  0  0  0  0  0  0  0  0  0  0  0
   36.4570   29.6820   39.3620 H   0  0  0  0  0  0  0  0  0  0  0  0
   37.7930   31.3710   39.3380 C   0  0  0  0  0  0  0  0  0  0  0  0
   38.5170   30.7450   38.3350 C   0  0  0  0  0  0  0  0  0  0  0  0
   39.7000   31.2810   37.8770 C   0  0  0  0  0  0  0  0  0  0  0  0
   40.1140   32.4610   38.4690 N   0  0  0  0  0  0  0  0  0  0  0  0
   39.3780   33.0390   39.4420 C   0  0  0  0  0  0  0  0  0  0  0  0
   38.2420   32.4950   39.8620 N   0  0  0  0  0  0  0  0  0  0  0  0
   40.2690   30.7930   37.0920 H   0  0  0  0  0  0  0  0  0  0  0  0
   39.7910   33.9530   39.8340 H   0  0  0  0  0  0  0  0  0  0  0  0
   37.9060   29.2240   37.6300 S   0  0  0  0  0  0  0  0  0  0  0  0
   36.7740   29.5710   36.2570 C   0  0  0  0  0  0  0  0  0  0  0  0
   35.7240   29.7070   36.5740 H   0  0  0  0  0  0  0  0  0  0  0  0
   37.0970   30.5660   35.8580 H   0  0  0  0  0  0  0  0  0  0  0  0
   36.9730   28.5370   35.1960 C   0  0  0  0  0  0  0  0  0  0  0  0
   37.9790   28.0510   35.3390 H   0  0  0  0  0  0  0  0  0  0  0  0
   36.2340   27.7030   35.2760 H   0  0  0  0  0  0  0  0  0  0  0  0
   36.9850   29.1710   33.9240 N   0  0  0  0  0  0  0  0  0  0  0  0
   36.2840   29.9710   33.9300 H   0  0  0  0  0  0  0  0  0  0  0  0
   36.6120   28.4800   33.2220 H   0  0  0  0  0  0  0  0  0  0  0  0
   36.3690   30.6320   41.2410 C   0  0  0  0  0  0  0  0  0  0  0  0
   36.6310   31.5940   41.7370 H   0  0  0  0  0  0  0  0  0  0  0  0
   35.2790   30.4770   41.4740 H   0  0  0  0  0  0  0  0  0  0  0  0
   37.1260   29.5280   41.8640 C   0  0  0  0  0  0  0  0  0  0  0  0
   38.4050   29.7950   42.4410 C   0  0  0  0  0  0  0  0  0  0  0  0
   38.9190   28.1520   43.0640 S   0  0  0  0  0  0  0  0  0  0  0  0
   37.2990   27.3680   42.4350 C   0  0  0  0  0  0  0  0  0  0  0  0
   36.7820   28.2780   41.9730 N   0  0  0  0  0  0  0  0  0  0  0  0
   38.9400   30.7260   42.4980 H   0  0  0  0  0  0  0  0  0  0  0  0
   36.9880   26.0230   42.5820 O   0  0  0  0  0  0  0  0  0  0  0  0
   36.3210   24.0340   40.9620 O   0  0  0  0  0  0  0  0  0  0  0  0
   37.4710   24.9820   41.3290 P   0  0  1  0  0  0  0  0  0  0  0  0
   37.8310   25.9280   39.9740 O   0  0  0  0  0  0  0  0  0  0  0  0
   37.0240   26.3830   39.6500 H   0  0  0  0  0  0  0  0  0  0  0  0
   38.8510   24.1240   41.7730 O   0  0  0  0  0  0  0  0  0  0  0  0
   39.5130   24.3570   42.9700 C   0  0  0  0  0  0  0  0  0  0  0  0
   38.9250   24.1140   43.8490 H   0  0  0  0  0  0  0  0  0  0  0  0
   40.6850   24.8100   42.9670 O   0  0  0  0  0  0  0  0  0  0  0  0
  1 22  1  0  0  0  0
  2  1  1  0  0  0  0
  3  1  1  0  0  0  0
  4  1  1  0  0  0  0
  4  9  1  0  0  0  0
  5  4  2  0  0  0  0
  6  5  1  0  0  0  0
  6  7  2  0  0  0  0
  7  8  1  0  0  0  0
  8 11  1  0  0  0  0
  8  9  2  0  0  0  0
 10  6  1  0  0  0  0
 12  5  1  0  0  0  0
 13 14  1  0  0  0  0
 13 12  1  0  0  0  0
 15 13  1  0  0  0  0
 16 18  1  0  0  0  0
 16 17  1  0  0  0  0
 16 13  1  0  0  0  0
 19 20  1  0  0  0  0
 19 16  1  0  0  0  0
 21 19  1  0  0  0  0
 22 24  1  0  0  0  0
 22 23  1  0  0  0  0
 22 25  1  0  0  0  0
 25 29  1  0  0  0  0
 25 26  2  0  0  0  0
 26 30  1  0  0  0  0
 26 27  1  0  0  0  0
 28 31  1  0  0  0  0
 28 27  1  0  0  0  0
 29 28  2  0  0  0  0
 33 32  2  6  0  0  0
 33 36  1  0  0  0  0
 33 31  1  0  0  0  0
 34 33  1  0  0  0  0
 35 34  1  0  0  0  0
 36 37  1  0  0  0  0
 37 38  1  0  0  0  0
 39 37  2  0  0  0  0
M  END
>  <minimizedAffinity>
-4.58054781

$$$$

 OpenBabel03252507503D

 39 40  0  0  0  0  0  0  0  0999 V2000
   40.4170   30.8970   41.4130 C   0  0  0  0  0  0  0  0  0  0  0  0
   39.7920   31.1270   40.5100 H   0  0  0  0  0  0  0  0  0  0  0  0
   40.8640   29.8940   41.1820 H   0  0  0  0  0  0  0  0  0  0  0  0
   41.4610   31.9280   41.5640 C   0  0  0  0  0  0  0  0  0  0  0  0
   41.3820   33.0350   40.7320 C   0  0  0  0  0  0  0  0  0  0  0  0
   42.3180   34.0430   40.8070 C   0  0  0  0  0  0  0  0  0  0  0  0
   43.3210   33.8860   41.7460 N   0  0  0  0  0  0  0  0  0  0  0  0
   43.3600   32.7930   42.5380 C   0  0  0  0  0  0  0  0  0  0  0  0
   42.4430   31.8380   42.4390 N   0  0  0  0  0  0  0  0  0  0  0  0
   42.2590   34.9110   40.1580 H   0  0  0  0  0  0  0  0  0  0  0  0
   44.1820   32.7710   43.2330 H   0  0  0  0  0  0  0  0  0  0  0  0
   40.0520   33.1520   39.5490 S   0  0  0  0  0  0  0  0  0  0  0  0
   38.6320   34.0160   40.2740 C   0  0  0  0  0  0  0  0  0  0  0  0
   38.6220   33.9990   41.3790 H   0  0  0  0  0  0  0  0  0  0  0  0
   38.7730   35.0920   39.9940 H   0  0  0  0  0  0  0  0  0  0  0  0
   37.3810   33.5090   39.6330 C   0  0  0  0  0  0  0  0  0  0  0  0
   36.6370   34.3520   39.5580 H   0  0  0  0  0  0  0  0  0  0  0  0
   37.5510   33.1790   38.5790 H   0  0  0  0  0  0  0  0  0  0  0  0
   36.8060   32.5080   40.4610 N   0  0  0  0  0  0  0  0  0  0  0  0
   37.5860   31.9390   40.9070 H   0  0  0  0  0  0  0  0  0  0  0  0
   36.2930   31.8340   39.8350 H   0  0  0  0  0  0  0  0  0  0  0  0
   39.5530   30.7200   42.6110 C   0  0  0  0  0  0  0  0  0  0  0  0
   40.1630   30.4970   43.5150 H   0  0  0  0  0  0  0  0  0  0  0  0
   39.0460   31.6980   42.8420 H   0  0  0  0  0  0  0  0  0  0  0  0
   38.5050   29.6930   42.4510 C   0  0  0  0  0  0  0  0  0  0  0  0
   38.6560   28.4310   43.1030 C   0  0  0  0  0  0  0  0  0  0  0  0
   37.1380   27.5350   42.6080 S   0  0  0  0  0  0  0  0  0  0  0  0
   36.5430   29.0340   41.5900 C   0  0  0  0  0  0  0  0  0  0  0  0
   37.4010   29.7710   41.7660 N   0  0  0  0  0  0  0  0  0  0  0  0
   39.4590   28.0860   43.7290 H   0  0  0  0  0  0  0  0  0  0  0  0
   35.3520   29.0560   40.8790 O   0  0  0  0  0  0  0  0  0  0  0  0
   36.1520   27.6050   38.8100 O   0  0  0  0  0  0  0  0  0  0  0  0
   35.4640   28.9250   39.1890 P   0  0  1  0  0  0  0  0  0  0  0  0
   33.8940   28.9030   38.5620 O   0  0  0  0  0  0  0  0  0  0  0  0
   33.4160   28.1010   38.8630 H   0  0  0  0  0  0  0  0  0  0  0  0
   36.2860   30.2470   38.5470 O   0  0  0  0  0  0  0  0  0  0  0  0
   37.4630   30.1070   37.8250 C   0  0  0  0  0  0  0  0  0  0  0  0
   37.3120   30.0410   36.7530 H   0  0  0  0  0  0  0  0  0  0  0  0
   38.5690   30.0660   38.4200 O   0  0  0  0  0  0  0  0  0  0  0  0
  1  4  1  0  0  0  0
  1 22  1  0  0  0  0
  2  1  1  0  0  0  0
  3  1  1  0  0  0  0
  4  9  1  0  0  0  0
  5  6  1  0  0  0  0
  5  4  2  0  0  0  0
  6  7  2  0  0  0  0
  7  8  1  0  0  0  0
  8 11  1  0  0  0  0
  9  8  2  0  0  0  0
 10  6  1  0  0  0  0
 12 13  1  0  0  0  0
 12  5  1  0  0  0  0
 13 14  1  0  0  0  0
 15 13  1  0  0  0  0
 16 13  1  0  0  0  0
 16 19  1  0  0  0  0
 17 16  1  0  0  0  0
 18 16  1  0  0  0  0
 19 20  1  0  0  0  0
 21 19  1  0  0  0  0
 22 24  1  0  0  0  0
 22 23  1  0  0  0  0
 25 22  1  0  0  0  0
 25 26  2  0  0  0  0
 26 30  1  0  0  0  0
 27 26  1  0  0  0  0
 28 29  2  0  0  0  0
 28 27  1  0  0  0  0
 29 25  1  0  0  0  0
 31 28  1  0  0  0  0
 33 32  2  6  0  0  0
 33 31  1  0  0  0  0
 34 35  1  0  0  0  0
 34 33  1  0  0  0  0
 36 33  1  0  0  0  0
 37 39  2  0  0  0  0
 37 36  1  0  0  0  0
 38 37  1  0  0  0  0
M  END
>  <minimizedAffinity>
-4.55753469

$$$$

 OpenBabel03252507503D

 39 40  0  0  0  0  0  0  0  0999 V2000
   35.9130   30.2840   40.5090 C   0  0  0  0  0  0  0  0  0  0  0  0
   35.2130   31.0340   40.9640 H   0  0  0  0  0  0  0  0  0  0  0  0
   36.1450   30.7110   39.4980 H   0  0  0  0  0  0  0  0  0  0  0  0
   37.1270   30.1800   41.3400 C   0  0  0  0  0  0  0  0  0  0  0  0
   38.1840   31.0210   41.0230 C   0  0  0  0  0  0  0  0  0  0  0  0
   39.3550   30.9880   41.7480 C   0  0  0  0  0  0  0  0  0  0  0  0
   39.4100   30.0820   42.7920 N   0  0  0  0  0  0  0  0  0  0  0  0
   38.3570   29.2830   43.0680 C   0  0  0  0  0  0  0  0  0  0  0  0
   37.2430   29.3380   42.3480 N   0  0  0  0  0  0  0  0  0  0  0  0
   40.1830   31.6440   41.5030 H   0  0  0  0  0  0  0  0  0  0  0  0
   38.5060   28.6160   43.9000 H   0  0  0  0  0  0  0  0  0  0  0  0
   38.0230   32.1580   39.6570 S   0  0  0  0  0  0  0  0  0  0  0  0
   38.6990   31.4280   38.1410 C   0  0  0  0  0  0  0  0  0  0  0  0
   39.7060   31.8010   37.8830 H   0  0  0  0  0  0  0  0  0  0  0  0
   38.8340   30.3420   38.3770 H   0  0  0  0  0  0  0  0  0  0  0  0
   37.6870   31.5640   37.0490 C   0  0  0  0  0  0  0  0  0  0  0  0
   37.4710   30.5450   36.6190 H   0  0  0  0  0  0  0  0  0  0  0  0
   36.7030   31.9330   37.4290 H   0  0  0  0  0  0  0  0  0  0  0  0
   38.2320   32.3590   36.0050 N   0  0  0  0  0  0  0  0  0  0  0  0
   38.8360   33.1230   36.4320 H   0  0  0  0  0  0  0  0  0  0  0  0
   37.4330   32.8620   35.5400 H   0  0  0  0  0  0  0  0  0  0  0  0
   35.2140   28.9910   40.2820 C   0  0  0  0  0  0  0  0  0  0  0  0
   34.9300   28.5140   41.2480 H   0  0  0  0  0  0  0  0  0  0  0  0
   34.2350   29.1910   39.7640 H   0  0  0  0  0  0  0  0  0  0  0  0
   35.9750   28.0320   39.4580 C   0  0  0  0  0  0  0  0  0  0  0  0
   36.0130   28.2030   38.0400 C   0  0  0  0  0  0  0  0  0  0  0  0
   37.0530   26.8010   37.4900 S   0  0  0  0  0  0  0  0  0  0  0  0
   37.2680   26.2090   39.2900 C   0  0  0  0  0  0  0  0  0  0  0  0
   36.6550   26.9950   39.8520 N   0  0  0  0  0  0  0  0  0  0  0  0
   35.5480   28.9640   37.4380 H   0  0  0  0  0  0  0  0  0  0  0  0
   38.0090   25.0910   39.6480 O   0  0  0  0  0  0  0  0  0  0  0  0
   36.1080   23.9440   41.0950 O   0  0  0  0  0  0  0  0  0  0  0  0
   37.5940   24.3310   41.1100 P   0  0  1  0  0  0  0  0  0  0  0  0
   38.5100   22.9160   41.2400 O   0  0  0  0  0  0  0  0  0  0  0  0
   38.2660   22.2840   40.5290 H   0  0  0  0  0  0  0  0  0  0  0  0
   37.9510   25.3310   42.4170 O   0  0  0  0  0  0  0  0  0  0  0  0
   39.2430   25.4790   42.9020 C   0  0  0  0  0  0  0  0  0  0  0  0
   39.2890   25.9160   43.8940 H   0  0  0  0  0  0  0  0  0  0  0  0
   40.2250   25.1210   42.2060 O   0  0  0  0  0  0  0  0  0  0  0  0
  1  2  1  0  0  0  0
  1  4  1  0  0  0  0
  3  1  1  0  0  0  0
  4  9  1  0  0  0  0
  5  4  2  0  0  0  0
  5  6  1  0  0  0  0
  6  7  2  0  0  0  0
  7  8  1  0  0  0  0
  8 11  1  0  0  0  0
  9  8  2  0  0  0  0
 10  6  1  0  0  0  0
 12  5  1  0  0  0  0
 13 15  1  0  0  0  0
 13 12  1  0  0  0  0
 14 13  1  0  0  0  0
 16 18  1  0  0  0  0
 16 13  1  0  0  0  0
 17 16  1  0  0  0  0
 19 20  1  0  0  0  0
 19 16  1  0  0  0  0
 21 19  1  0  0  0  0
 22  1  1  0  0  0  0
 22 23  1  0  0  0  0
 24 22  1  0  0  0  0
 25 29  1  0  0  0  0
 25 22  1  0  0  0  0
 26 25  2  0  0  0  0
 27 26  1  0  0  0  0
 27 28  1  0  0  0  0
 28 31  1  0  0  0  0
 28 29  2  0  0  0  0
 30 26  1  0  0  0  0
 31 33  1  0  0  0  0
 33 32  2  1  0  0  0
 33 34  1  0  0  0  0
 33 36  1  0  0  0  0
 35 34  1  0  0  0  0
 36 37  1  0  0  0  0
 37 38  1  0  0  0  0
 39 37  2  0  0  0  0
M  END
>  <minimizedAffinity>
-4.55377436

$$$$

 OpenBabel03252507503D

 39 40  0  0  0  0  0  0  0  0999 V2000
   36.7210   27.4130   42.6500 C   0  0  0  0  0  0  0  0  0  0  0  0
   36.5560   28.3390   42.0380 H   0  0  0  0  0  0  0  0  0  0  0  0
   35.7510   27.2750   43.1980 H   0  0  0  0  0  0  0  0  0  0  0  0
   36.9980   26.2750   41.7540 C   0  0  0  0  0  0  0  0  0  0  0  0
   37.2560   26.5660   40.4230 C   0  0  0  0  0  0  0  0  0  0  0  0
   37.5240   25.5610   39.5190 C   0  0  0  0  0  0  0  0  0  0  0  0
   37.5190   24.2690   40.0130 N   0  0  0  0  0  0  0  0  0  0  0  0
   37.2640   24.0290   41.3170 C   0  0  0  0  0  0  0  0  0  0  0  0
   37.0080   25.0210   42.1620 N   0  0  0  0  0  0  0  0  0  0  0  0
   37.7260   25.7850   38.4770 H   0  0  0  0  0  0  0  0  0  0  0  0
   37.2850   22.9890   41.5950 H   0  0  0  0  0  0  0  0  0  0  0  0
   37.2410   28.2640   39.8760 S   0  0  0  0  0  0  0  0  0  0  0  0
   35.7020   28.6300   38.9880 C   0  0  0  0  0  0  0  0  0  0  0  0
   35.8550   29.2200   38.0660 H   0  0  0  0  0  0  0  0  0  0  0  0
   35.3200   27.6350   38.6460 H   0  0  0  0  0  0  0  0  0  0  0  0
   34.7220   29.2210   39.9480 C   0  0  0  0  0  0  0  0  0  0  0  0
   34.0500   29.9380   39.3950 H   0  0  0  0  0  0  0  0  0  0  0  0
   34.0340   28.4520   40.3760 H   0  0  0  0  0  0  0  0  0  0  0  0
   35.4240   29.9710   40.9310 N   0  0  0  0  0  0  0  0  0  0  0  0
   36.3380   29.4740   41.1560 H   0  0  0  0  0  0  0  0  0  0  0  0
   34.8620   29.9350   41.8200 H   0  0  0  0  0  0  0  0  0  0  0  0
   37.7680   27.6510   43.6800 C   0  0  0  0  0  0  0  0  0  0  0  0
   37.3340   28.1200   44.5920 H   0  0  0  0  0  0  0  0  0  0  0  0
   38.1670   26.6590   44.0300 H   0  0  0  0  0  0  0  0  0  0  0  0
   38.9110   28.4550   43.2020 C   0  0  0  0  0  0  0  0  0  0  0  0
   40.1970   27.8440   43.0900 C   0  0  0  0  0  0  0  0  0  0  0  0
   41.2430   29.2150   42.4730 S   0  0  0  0  0  0  0  0  0  0  0  0
   39.7490   30.3990   42.4680 C   0  0  0  0  0  0  0  0  0  0  0  0
   38.9210   29.7060   42.8460 N   0  0  0  0  0  0  0  0  0  0  0  0
   40.4880   26.8330   43.3110 H   0  0  0  0  0  0  0  0  0  0  0  0
   39.8230   31.7290   42.0760 O   0  0  0  0  0  0  0  0  0  0  0  0
   39.9990   33.4200   40.0440 O   0  0  0  0  0  0  0  0  0  0  0  0
   39.3800   32.0830   40.4740 P   0  0  1  0  0  0  0  0  0  0  0  0
   40.0030   30.8650   39.4800 O   0  0  0  0  0  0  0  0  0  0  0  0
   40.9840   30.8780   39.4960 H   0  0  0  0  0  0  0  0  0  0  0  0
   37.7040   32.1080   40.3170 O   0  0  0  0  0  0  0  0  0  0  0  0
   37.0790   32.3220   39.0970 C   0  0  0  0  0  0  0  0  0  0  0  0
   36.2070   32.9640   39.1590 H   0  0  0  0  0  0  0  0  0  0  0  0
   37.5330   31.7900   38.0530 O   0  0  0  0  0  0  0  0  0  0  0  0
  1  3  1  0  0  0  0
  1 22  1  0  0  0  0
  2  1  1  0  0  0  0
  4  9  1  0  0  0  0
  4  1  1  0  0  0  0
  5  4  2  0  0  0  0
  6  7  2  0  0  0  0
  6  5  1  0  0  0  0
  7  8  1  0  0  0  0
  8 11  1  0  0  0  0
  8  9  2  0  0  0  0
 10  6  1  0  0  0  0
 12  5  1  0  0  0  0
 13 12  1  0  0  0  0
 13 16  1  0  0  0  0
 14 13  1  0  0  0  0
 15 13  1  0  0  0  0
 16 18  1  0  0  0  0
 16 19  1  0  0  0  0
 17 16  1  0  0  0  0
 19 20  1  0  0  0  0
 19 21  1  0  0  0  0
 22 24  1  0  0  0  0
 22 23  1  0  0  0  0
 25 22  1  0  0  0  0
 26 25  2  0  0  0  0
 26 30  1  0  0  0  0
 27 26  1  0  0  0  0
 28 27  1  0  0  0  0
 28 29  2  0  0  0  0
 29 25  1  0  0  0  0
 31 28  1  0  0  0  0
 33 32  2  6  0  0  0
 33 31  1  0  0  0  0
 34 35  1  0  0  0  0
 34 33  1  0  0  0  0
 36 33  1  0  0  0  0
 37 38  1  0  0  0  0
 37 36  1  0  0  0  0
 39 37  2  0  0  0  0
M  END
>  <minimizedAffinity>
-4.52247477

$$$$

 OpenBabel03252507503D

 39 40  0  0  0  0  0  0  0  0999 V2000
   38.0110   27.7800   43.2680 C   0  0  0  0  0  0  0  0  0  0  0  0
   37.4780   27.4370   44.1940 H   0  0  0  0  0  0  0  0  0  0  0  0
   39.0400   28.0440   43.6310 H   0  0  0  0  0  0  0  0  0  0  0  0
   38.0530   26.6780   42.2890 C   0  0  0  0  0  0  0  0  0  0  0  0
   39.1040   25.7780   42.3950 C   0  0  0  0  0  0  0  0  0  0  0  0
   39.2180   24.7200   41.5190 C   0  0  0  0  0  0  0  0  0  0  0  0
   38.2390   24.6130   40.5490 N   0  0  0  0  0  0  0  0  0  0  0  0
   37.2310   25.5100   40.4820 C   0  0  0  0  0  0  0  0  0  0  0  0
   37.1510   26.5200   41.3410 N   0  0  0  0  0  0  0  0  0  0  0  0
   40.0390   24.0150   41.6000 H   0  0  0  0  0  0  0  0  0  0  0  0
   36.5250   25.3330   39.6900 H   0  0  0  0  0  0  0  0  0  0  0  0
   40.3220   25.9970   43.6800 S   0  0  0  0  0  0  0  0  0  0  0  0
   41.7240   26.9700   43.0660 C   0  0  0  0  0  0  0  0  0  0  0  0
   41.4740   27.6060   42.1980 H   0  0  0  0  0  0  0  0  0  0  0  0
   41.9690   27.6810   43.8960 H   0  0  0  0  0  0  0  0  0  0  0  0
   42.8870   26.0560   42.8520 C   0  0  0  0  0  0  0  0  0  0  0  0
   43.0950   25.9760   41.7470 H   0  0  0  0  0  0  0  0  0  0  0  0
   43.8290   26.4610   43.2950 H   0  0  0  0  0  0  0  0  0  0  0  0
   42.5490   24.7550   43.3150 N   0  0  0  0  0  0  0  0  0  0  0  0
   41.9420   24.8450   44.1840 H   0  0  0  0  0  0  0  0  0  0  0  0
   43.4370   24.2940   43.6420 H   0  0  0  0  0  0  0  0  0  0  0  0
   37.4000   29.0340   42.7520 C   0  0  0  0  0  0  0  0  0  0  0  0
   36.5490   28.8140   42.0690 H   0  0  0  0  0  0  0  0  0  0  0  0
   36.9390   29.5950   43.6120 H   0  0  0  0  0  0  0  0  0  0  0  0
   38.3550   29.9380   42.0830 C   0  0  0  0  0  0  0  0  0  0  0  0
   39.6840   30.0550   42.5930 C   0  0  0  0  0  0  0  0  0  0  0  0
   40.4540   31.2600   41.4500 S   0  0  0  0  0  0  0  0  0  0  0  0
   38.8310   31.4070   40.4580 C   0  0  0  0  0  0  0  0  0  0  0  0
   38.1570   30.6870   41.0370 N   0  0  0  0  0  0  0  0  0  0  0  0
   40.1290   29.5620   43.4390 H   0  0  0  0  0  0  0  0  0  0  0  0
   38.6810   32.2260   39.3480 O   0  0  0  0  0  0  0  0  0  0  0  0
   37.5390   31.5660   37.0490 O   0  0  0  0  0  0  0  0  0  0  0  0
   38.8620   31.4940   37.8250 P   0  0  1  0  0  0  0  0  0  0  0  0
   40.0290   32.3630   36.9640 O   0  0  0  0  0  0  0  0  0  0  0  0
   39.7160   33.2770   36.7880 H   0  0  0  0  0  0  0  0  0  0  0  0
   39.3860   29.9020   37.9930 O   0  0  0  0  0  0  0  0  0  0  0  0
   38.6300   28.8250   37.5520 C   0  0  0  0  0  0  0  0  0  0  0  0
   38.7620   28.6020   36.4990 H   0  0  0  0  0  0  0  0  0  0  0  0
   37.8810   28.2090   38.3500 O   0  0  0  0  0  0  0  0  0  0  0  0
  1  3  1  0  0  0  0
  1  2  1  0  0  0  0
  4  5  1  0  0  0  0
  4  1  1  0  0  0  0
  5 12  1  0  0  0  0
  6 10  1  0  0  0  0
  6  5  2  0  0  0  0
  7  6  1  0  0  0  0
  8  7  2  0  0  0  0
  8  9  1  0  0  0  0
  9  4  2  0  0  0  0
 11  8  1  0  0  0  0
 13 12  1  0  0  0  0
 13 15  1  0  0  0  0
 14 13  1  0  0  0  0
 16 13  1  0  0  0  0
 16 18  1  0  0  0  0
 16 19  1  0  0  0  0
 17 16  1  0  0  0  0
 19 21  1  0  0  0  0
 19 20  1  0  0  0  0
 22  1  1  0  0  0  0
 22 24  1  0  0  0  0
 23 22  1  0  0  0  0
 25 26  2  0  0  0  0
 25 22  1  0  0  0  0
 26 30  1  0  0  0  0
 27 26  1  0  0  0  0
 28 29  2  0  0  0  0
 28 27  1  0  0  0  0
 29 25  1  0  0  0  0
 31 28  1  0  0  0  0
 33 32  2  6  0  0  0
 33 36  1  0  0  0  0
 33 31  1  0  0  0  0
 34 33  1  0  0  0  0
 35 34  1  0  0  0  0
 37 36  1  0  0  0  0
 37 39  2  0  0  0  0
 38 37  1  0  0  0  0
M  END
>  <minimizedAffinity>
-4.45911551

$$$$

 OpenBabel03252507503D

 39 40  0  0  0  0  0  0  0  0999 V2000
   37.6620   28.0840   42.8170 C   0  0  0  0  0  0  0  0  0  0  0  0
   36.9780   27.8170   43.6660 H   0  0  0  0  0  0  0  0  0  0  0  0
   38.4480   27.2830   42.8440 H   0  0  0  0  0  0  0  0  0  0  0  0
   36.9080   28.0520   41.5500 C   0  0  0  0  0  0  0  0  0  0  0  0
   37.1750   27.0060   40.6800 C   0  0  0  0  0  0  0  0  0  0  0  0
   36.5140   26.9030   39.4750 C   0  0  0  0  0  0  0  0  0  0  0  0
   35.5870   27.8890   39.1930 N   0  0  0  0  0  0  0  0  0  0  0  0
   35.3560   28.8900   40.0690 C   0  0  0  0  0  0  0  0  0  0  0  0
   36.0110   28.9610   41.2220 N   0  0  0  0  0  0  0  0  0  0  0  0
   36.7210   26.0850   38.7930 H   0  0  0  0  0  0  0  0  0  0  0  0
   34.6150   29.6030   39.7510 H   0  0  0  0  0  0  0  0  0  0  0  0
   38.3900   25.7790   41.1290 S   0  0  0  0  0  0  0  0  0  0  0  0
   37.5830   24.3030   41.8040 C   0  0  0  0  0  0  0  0  0  0  0  0
   38.0910   23.8890   42.6940 H   0  0  0  0  0  0  0  0  0  0  0  0
   36.5850   24.6590   42.1690 H   0  0  0  0  0  0  0  0  0  0  0  0
   37.3710   23.3210   40.6970 C   0  0  0  0  0  0  0  0  0  0  0  0
   36.3030   22.9620   40.7230 H   0  0  0  0  0  0  0  0  0  0  0  0
   37.4950   23.7880   39.6900 H   0  0  0  0  0  0  0  0  0  0  0  0
   38.2040   22.1900   40.9110 N   0  0  0  0  0  0  0  0  0  0  0  0
   39.1280   22.5150   41.3260 H   0  0  0  0  0  0  0  0  0  0  0  0
   38.4470   21.7920   39.9680 H   0  0  0  0  0  0  0  0  0  0  0  0
   38.3500   29.3740   43.0900 C   0  0  0  0  0  0  0  0  0  0  0  0
   37.6180   30.2090   43.1710 H   0  0  0  0  0  0  0  0  0  0  0  0
   38.8370   29.3200   44.1030 H   0  0  0  0  0  0  0  0  0  0  0  0
   39.3930   29.7200   42.1040 C   0  0  0  0  0  0  0  0  0  0  0  0
   40.6740   29.0960   42.1920 C   0  0  0  0  0  0  0  0  0  0  0  0
   41.5840   29.8380   40.7870 S   0  0  0  0  0  0  0  0  0  0  0  0
   40.0610   30.8800   40.3060 C   0  0  0  0  0  0  0  0  0  0  0  0
   39.3130   30.5560   41.1090 N   0  0  0  0  0  0  0  0  0  0  0  0
   41.0260   28.3710   42.9040 H   0  0  0  0  0  0  0  0  0  0  0  0
   40.0380   31.7570   39.2310 O   0  0  0  0  0  0  0  0  0  0  0  0
   37.5300   32.4230   38.6920 O   0  0  0  0  0  0  0  0  0  0  0  0
   38.7260   31.6230   38.1590 P   0  0  1  0  0  0  0  0  0  0  0  0
   39.1930   32.2910   36.6770 O   0  0  0  0  0  0  0  0  0  0  0  0
   39.3650   33.2520   36.7740 H   0  0  0  0  0  0  0  0  0  0  0  0
   38.3210   30.0050   37.9210 O   0  0  0  0  0  0  0  0  0  0  0  0
   37.5850   29.5810   36.8230 C   0  0  0  0  0  0  0  0  0  0  0  0
   37.6220   28.5100   36.6610 H   0  0  0  0  0  0  0  0  0  0  0  0
   36.9560   30.4150   36.1240 O   0  0  0  0  0  0  0  0  0  0  0  0
  1  3  1  0  0  0  0
  1 22  1  0  0  0  0
  1  2  1  0  0  0  0
  4  1  1  0  0  0  0
  5 12  1  0  0  0  0
  5  4  2  0  0  0  0
  6  5  1  0  0  0  0
  7  6  2  0  0  0  0
  7  8  1  0  0  0  0
  8  9  2  0  0  0  0
  9  4  1  0  0  0  0
 10  6  1  0  0  0  0
 11  8  1  0  0  0  0
 12 13  1  0  0  0  0
 13 15  1  0  0  0  0
 13 14  1  0  0  0  0
 16 17  1  0  0  0  0
 16 19  1  0  0  0  0
 16 13  1  0  0  0  0
 18 16  1  0  0  0  0
 19 20  1  0  0  0  0
 21 19  1  0  0  0  0
 22 23  1  0  0  0  0
 22 24  1  0  0  0  0
 25 26  2  0  0  0  0
 25 22  1  0  0  0  0
 26 30  1  0  0  0  0
 27 26  1  0  0  0  0
 28 27  1  0  0  0  0
 28 29  2  0  0  0  0
 29 25  1  0  0  0  0
 31 28  1  0  0  0  0
 33 32  2  1  0  0  0
 33 31  1  0  0  0  0
 34 35  1  0  0  0  0
 34 33  1  0  0  0  0
 36 33  1  0  0  0  0
 37 36  1  0  0  0  0
 38 37  1  0  0  0  0
 39 37  2  0  0  0  0
M  END
>  <minimizedAffinity>
-4.3468895

$$$$
