
 OpenBabel03252507293D

 39 41  0  0  1  0  0  0  0  0999 V2000
   38.0500   31.7690   40.8390 C   0  0  2  0  0  0  0  0  0  0  0  0
   37.3040   32.6670   39.8690 C   0  0  0  0  0  0  0  0  0  0  0  0
   37.9110   34.0390   39.9180 C   0  0  0  0  0  0  0  0  0  0  0  0
   39.3940   34.0630   39.7860 C   0  0  0  0  0  0  0  0  0  0  0  0
   40.0630   33.0650   40.6440 C   0  0  0  0  0  0  0  0  0  0  0  0
   39.4700   31.6840   40.4440 C   0  0  2  0  0  0  0  0  0  0  0  0
   37.9630   32.2830   41.8230 H   0  0  0  0  0  0  0  0  0  0  0  0
   36.2800   32.7870   40.3620 H   0  0  0  0  0  0  0  0  0  0  0  0
   37.1190   32.2490   38.8890 H   0  0  0  0  0  0  0  0  0  0  0  0
   37.6660   34.4780   40.9220 H   0  0  0  0  0  0  0  0  0  0  0  0
   37.4550   34.7230   39.1840 H   0  0  0  0  0  0  0  0  0  0  0  0
   39.7070   33.9200   38.7230 H   0  0  0  0  0  0  0  0  0  0  0  0
   39.7280   35.0890   40.0680 H   0  0  0  0  0  0  0  0  0  0  0  0
   39.9560   33.3030   41.7230 H   0  0  0  0  0  0  0  0  0  0  0  0
   41.1580   33.0630   40.4130 H   0  0  0  0  0  0  0  0  0  0  0  0
   40.0940   31.0740   41.1510 H   0  0  0  0  0  0  0  0  0  0  0  0
   37.4290   30.4580   40.9890 C   0  0  0  0  0  0  0  0  0  0  0  0
   36.0980   30.3080   40.5910 C   0  0  0  0  0  0  0  0  0  0  0  0
   35.4860   29.0430   40.7510 C   0  0  0  0  0  0  0  0  0  0  0  0
   36.2600   28.0280   41.2960 N   0  0  0  0  0  0  0  0  0  0  0  0
   37.5420   28.2510   41.6550 C   0  0  0  0  0  0  0  0  0  0  0  0
   38.1260   29.4420   41.5080 N   0  0  0  0  0  0  0  0  0  0  0  0
   35.4160   30.9600   40.1620 H   0  0  0  0  0  0  0  0  0  0  0  0
   34.4740   28.7800   40.4930 H   0  0  0  0  0  0  0  0  0  0  0  0
   38.2990   27.1320   42.2250 C   0  0  0  0  0  0  0  0  0  0  0  0
   39.2990   27.3130   43.1210 C   0  0  0  0  0  0  0  0  0  0  0  0
   40.0340   26.2910   43.6780 C   0  0  0  0  0  0  0  0  0  0  0  0
   39.7030   25.0270   43.2720 C   0  0  0  0  0  0  0  0  0  0  0  0
   38.6870   24.8070   42.3570 C   0  0  0  0  0  0  0  0  0  0  0  0
   37.9780   25.8530   41.8260 N   0  0  0  0  0  0  0  0  0  0  0  0
   39.5010   28.3350   43.3920 H   0  0  0  0  0  0  0  0  0  0  0  0
   40.8100   26.5180   44.3810 H   0  0  0  0  0  0  0  0  0  0  0  0
   40.2690   24.1990   43.6950 H   0  0  0  0  0  0  0  0  0  0  0  0
   38.4930   23.7890   42.0950 H   0  0  0  0  0  0  0  0  0  0  0  0
   39.6440   31.2570   39.1060 N   0  0  0  0  0  0  0  0  0  0  0  0
   38.7380   31.1370   38.5790 H   0  0  0  0  0  0  0  0  0  0  0  0
   40.7260   30.9290   38.2040 C   0  0  0  0  0  0  0  0  0  0  0  0
   41.1510   29.9530   38.0850 H   0  0  0  0  0  0  0  0  0  0  0  0
   41.1500   31.9330   37.5370 O   0  0  0  0  0  0  0  0  0  0  0  0
  1 17  1  0  0  0  0
  1  7  1  1  0  0  0
  2  3  1  0  0  0  0
  2  8  1  0  0  0  0
  2  1  1  0  0  0  0
  3 10  1  0  0  0  0
  4  3  1  0  0  0  0
  4 13  1  0  0  0  0
  4  5  1  0  0  0  0
  5 14  1  0  0  0  0
  6  5  1  0  0  0  0
  6  1  1  0  0  0  0
  6 16  1  1  0  0  0
  9  2  1  0  0  0  0
 11  3  1  0  0  0  0
 12  4  1  0  0  0  0
 15  5  1  0  0  0  0
 17 22  1  0  0  0  0
 18 19  1  0  0  0  0
 18 17  2  0  0  0  0
 19 20  2  0  0  0  0
 20 21  1  0  0  0  0
 21 25  1  0  0  0  0
 22 21  2  0  0  0  0
 23 18  1  0  0  0  0
 24 19  1  0  0  0  0
 25 26  1  0  0  0  0
 26 31  1  0  0  0  0
 26 27  2  0  0  0  0
 27 32  1  0  0  0  0
 28 27  1  0  0  0  0
 28 33  1  0  0  0  0
 29 28  2  0  0  0  0
 30 25  2  0  0  0  0
 30 29  1  0  0  0  0
 34 29  1  0  0  0  0
 35  6  1  0  0  0  0
 36 35  1  0  0  0  0
 37 35  1  0  0  0  0
 38 37  1  0  0  0  0
 39 37  2  0  0  0  0
M  END
>  <minimizedAffinity>
-5.519063

$$$$

 OpenBabel03252507293D

 39 41  0  0  1  0  0  0  0  0999 V2000
   38.1060   27.3040   42.4060 C   0  0  2  0  0  0  0  0  0  0  0  0
   39.5110   27.6600   42.8590 C   0  0  0  0  0  0  0  0  0  0  0  0
   40.0550   26.5270   43.6800 C   0  0  0  0  0  0  0  0  0  0  0  0
   39.9150   25.1850   43.0490 C   0  0  0  0  0  0  0  0  0  0  0  0
   38.5690   24.9490   42.4930 C   0  0  0  0  0  0  0  0  0  0  0  0
   38.1460   26.0830   41.5780 C   0  0  2  0  0  0  0  0  0  0  0  0
   37.5500   27.1030   43.3490 H   0  0  0  0  0  0  0  0  0  0  0  0
   39.3370   28.5030   43.6100 H   0  0  0  0  0  0  0  0  0  0  0  0
   40.1620   28.0660   42.0960 H   0  0  0  0  0  0  0  0  0  0  0  0
   39.4710   26.4980   44.6380 H   0  0  0  0  0  0  0  0  0  0  0  0
   41.1010   26.6950   43.9830 H   0  0  0  0  0  0  0  0  0  0  0  0
   40.6870   25.0300   42.2550 H   0  0  0  0  0  0  0  0  0  0  0  0
   40.1350   24.4310   43.8400 H   0  0  0  0  0  0  0  0  0  0  0  0
   37.7960   24.8760   43.2860 H   0  0  0  0  0  0  0  0  0  0  0  0
   38.5680   23.9750   41.9420 H   0  0  0  0  0  0  0  0  0  0  0  0
   37.1300   25.7330   41.2520 H   0  0  0  0  0  0  0  0  0  0  0  0
   37.4290   28.4120   41.7420 C   0  0  0  0  0  0  0  0  0  0  0  0
   36.1040   28.2310   41.3390 C   0  0  0  0  0  0  0  0  0  0  0  0
   35.4490   29.2970   40.6780 C   0  0  0  0  0  0  0  0  0  0  0  0
   36.1780   30.4610   40.4760 N   0  0  0  0  0  0  0  0  0  0  0  0
   37.4560   30.5600   40.8970 C   0  0  0  0  0  0  0  0  0  0  0  0
   38.0810   29.5580   41.5210 N   0  0  0  0  0  0  0  0  0  0  0  0
   35.4440   27.4380   41.4350 H   0  0  0  0  0  0  0  0  0  0  0  0
   34.4370   29.3020   40.3100 H   0  0  0  0  0  0  0  0  0  0  0  0
   38.1640   31.8200   40.6490 C   0  0  0  0  0  0  0  0  0  0  0  0
   37.5390   32.9230   40.1700 C   0  0  0  0  0  0  0  0  0  0  0  0
   38.1670   34.1220   39.9210 C   0  0  0  0  0  0  0  0  0  0  0  0
   39.5070   34.1610   40.1880 C   0  0  0  0  0  0  0  0  0  0  0  0
   40.1770   33.0520   40.6780 C   0  0  0  0  0  0  0  0  0  0  0  0
   39.5140   31.8750   40.9120 N   0  0  0  0  0  0  0  0  0  0  0  0
   36.4840   32.8150   39.9840 H   0  0  0  0  0  0  0  0  0  0  0  0
   37.5990   34.9490   39.5420 H   0  0  0  0  0  0  0  0  0  0  0  0
   40.0310   35.0970   40.0000 H   0  0  0  0  0  0  0  0  0  0  0  0
   41.2240   33.1690   40.8590 H   0  0  0  0  0  0  0  0  0  0  0  0
   39.0310   26.1920   40.4790 N   0  0  0  0  0  0  0  0  0  0  0  0
   39.9550   26.6370   40.7230 H   0  0  0  0  0  0  0  0  0  0  0  0
   39.0570   25.8600   39.0710 C   0  0  0  0  0  0  0  0  0  0  0  0
   38.7310   26.5060   38.2830 H   0  0  0  0  0  0  0  0  0  0  0  0
   39.5170   24.6900   38.8370 O   0  0  0  0  0  0  0  0  0  0  0  0
  1  2  1  0  0  0  0
  1  7  1  1  0  0  0
  2  8  1  0  0  0  0
  2  3  1  0  0  0  0
  3 11  1  0  0  0  0
  3 10  1  0  0  0  0
  4  3  1  0  0  0  0
  4 13  1  0  0  0  0
  5  4  1  0  0  0  0
  5 14  1  0  0  0  0
  6 16  1  6  0  0  0
  6  1  1  0  0  0  0
  6  5  1  0  0  0  0
  9  2  1  0  0  0  0
 12  4  1  0  0  0  0
 15  5  1  0  0  0  0
 17  1  1  0  0  0  0
 18 23  1  0  0  0  0
 18 17  2  0  0  0  0
 19 18  1  0  0  0  0
 20 19  2  0  0  0  0
 20 21  1  0  0  0  0
 21 22  2  0  0  0  0
 22 17  1  0  0  0  0
 24 19  1  0  0  0  0
 25 21  1  0  0  0  0
 25 30  1  0  0  0  0
 26 25  2  0  0  0  0
 27 26  1  0  0  0  0
 27 28  2  0  0  0  0
 28 29  1  0  0  0  0
 29 34  1  0  0  0  0
 29 30  2  0  0  0  0
 31 26  1  0  0  0  0
 32 27  1  0  0  0  0
 33 28  1  0  0  0  0
 35 36  1  0  0  0  0
 35  6  1  0  0  0  0
 37 35  1  0  0  0  0
 38 37  1  0  0  0  0
 39 37  2  0  0  0  0
M  END
>  <minimizedAffinity>
-5.39364529

$$$$

 OpenBabel03252507293D

 39 41  0  0  1  0  0  0  0  0999 V2000
   37.9140   31.6490   39.8400 C   0  0  2  0  0  0  0  0  0  0  0  0
   37.3050   32.9250   39.2840 C   0  0  0  0  0  0  0  0  0  0  0  0
   37.9100   34.0980   39.9970 C   0  0  0  0  0  0  0  0  0  0  0  0
   39.3980   34.0840   40.0590 C   0  0  0  0  0  0  0  0  0  0  0  0
   39.9440   32.7730   40.4630 C   0  0  0  0  0  0  0  0  0  0  0  0
   39.3730   31.6550   39.6110 C   0  0  2  0  0  0  0  0  0  0  0  0
   37.7030   31.6900   40.9320 H   0  0  0  0  0  0  0  0  0  0  0  0
   36.2270   32.8830   39.6590 H   0  0  0  0  0  0  0  0  0  0  0  0
   37.2460   32.9860   38.2060 H   0  0  0  0  0  0  0  0  0  0  0  0
   37.5400   34.0720   41.0570 H   0  0  0  0  0  0  0  0  0  0  0  0
   37.5580   35.0600   39.5920 H   0  0  0  0  0  0  0  0  0  0  0  0
   39.8460   34.3980   39.0840 H   0  0  0  0  0  0  0  0  0  0  0  0
   39.6990   34.8630   40.7980 H   0  0  0  0  0  0  0  0  0  0  0  0
   39.6990   32.5250   41.5160 H   0  0  0  0  0  0  0  0  0  0  0  0
   41.0590   32.8030   40.3810 H   0  0  0  0  0  0  0  0  0  0  0  0
   39.8950   30.7620   40.0450 H   0  0  0  0  0  0  0  0  0  0  0  0
   37.2690   30.4450   39.3270 C   0  0  0  0  0  0  0  0  0  0  0  0
   36.5760   30.5300   38.1180 C   0  0  0  0  0  0  0  0  0  0  0  0
   35.9350   29.3690   37.6260 C   0  0  0  0  0  0  0  0  0  0  0  0
   36.0420   28.2140   38.3890 N   0  0  0  0  0  0  0  0  0  0  0  0
   36.7320   28.2120   39.5490 C   0  0  0  0  0  0  0  0  0  0  0  0
   37.3390   29.3040   40.0190 N   0  0  0  0  0  0  0  0  0  0  0  0
   36.4290   31.3060   37.4470 H   0  0  0  0  0  0  0  0  0  0  0  0
   35.3660   29.2850   36.7160 H   0  0  0  0  0  0  0  0  0  0  0  0
   36.8020   26.9560   40.3020 C   0  0  0  0  0  0  0  0  0  0  0  0
   37.0760   26.9180   41.6280 C   0  0  0  0  0  0  0  0  0  0  0  0
   37.1530   25.7610   42.3710 C   0  0  0  0  0  0  0  0  0  0  0  0
   36.9340   24.5970   41.6870 C   0  0  0  0  0  0  0  0  0  0  0  0
   36.6520   24.6000   40.3300 C   0  0  0  0  0  0  0  0  0  0  0  0
   36.5840   25.7750   39.6280 N   0  0  0  0  0  0  0  0  0  0  0  0
   37.2360   27.8730   42.0970 H   0  0  0  0  0  0  0  0  0  0  0  0
   37.3740   25.8170   43.4180 H   0  0  0  0  0  0  0  0  0  0  0  0
   36.9900   23.6660   42.2480 H   0  0  0  0  0  0  0  0  0  0  0  0
   36.4940   23.6470   39.8740 H   0  0  0  0  0  0  0  0  0  0  0  0
   39.7150   31.8410   38.2510 N   0  0  0  0  0  0  0  0  0  0  0  0
   38.8890   32.0570   37.6320 H   0  0  0  0  0  0  0  0  0  0  0  0
   40.8990   31.8320   37.4200 C   0  0  0  0  0  0  0  0  0  0  0  0
   41.2930   30.9690   36.9230 H   0  0  0  0  0  0  0  0  0  0  0  0
   41.4570   32.9780   37.3220 O   0  0  0  0  0  0  0  0  0  0  0  0
  1  7  1  1  0  0  0
  2  8  1  0  0  0  0
  2  1  1  0  0  0  0
  2  3  1  0  0  0  0
  3  4  1  0  0  0  0
  3 10  1  0  0  0  0
  4  5  1  0  0  0  0
  4 13  1  0  0  0  0
  5 14  1  0  0  0  0
  6  1  1  0  0  0  0
  6 16  1  1  0  0  0
  6  5  1  0  0  0  0
  9  2  1  0  0  0  0
 11  3  1  0  0  0  0
 12  4  1  0  0  0  0
 15  5  1  0  0  0  0
 17  1  1  0  0  0  0
 17 22  1  0  0  0  0
 18 17  2  0  0  0  0
 19 18  1  0  0  0  0
 19 20  2  0  0  0  0
 20 21  1  0  0  0  0
 21 22  2  0  0  0  0
 21 25  1  0  0  0  0
 23 18  1  0  0  0  0
 24 19  1  0  0  0  0
 25 26  1  0  0  0  0
 26 31  1  0  0  0  0
 26 27  2  0  0  0  0
 27 32  1  0  0  0  0
 28 33  1  0  0  0  0
 28 27  1  0  0  0  0
 29 28  2  0  0  0  0
 30 25  2  0  0  0  0
 30 29  1  0  0  0  0
 34 29  1  0  0  0  0
 35  6  1  0  0  0  0
 36 35  1  0  0  0  0
 37 35  1  0  0  0  0
 38 37  1  0  0  0  0
 39 37  2  0  0  0  0
M  END
>  <minimizedAffinity>
-5.34574413

$$$$

 OpenBabel03252507293D

 39 41  0  0  1  0  0  0  0  0999 V2000
   38.3630   28.1580   41.4000 C   0  0  2  0  0  0  0  0  0  0  0  0
   37.2460   27.1760   41.0990 C   0  0  0  0  0  0  0  0  0  0  0  0
   36.8620   26.4780   42.3710 C   0  0  0  0  0  0  0  0  0  0  0  0
   36.6090   27.3870   43.5230 C   0  0  0  0  0  0  0  0  0  0  0  0
   37.6530   28.4190   43.6800 C   0  0  0  0  0  0  0  0  0  0  0  0
   37.8930   29.1600   42.3780 C   0  0  2  0  0  0  0  0  0  0  0  0
   39.1690   27.5380   41.8520 H   0  0  0  0  0  0  0  0  0  0  0  0
   37.7670   26.3730   40.4750 H   0  0  0  0  0  0  0  0  0  0  0  0
   36.4380   27.5550   40.4870 H   0  0  0  0  0  0  0  0  0  0  0  0
   37.7210   25.8160   42.6620 H   0  0  0  0  0  0  0  0  0  0  0  0
   36.0070   25.7970   42.2320 H   0  0  0  0  0  0  0  0  0  0  0  0
   35.6060   27.8720   43.4410 H   0  0  0  0  0  0  0  0  0  0  0  0
   36.5670   26.7490   44.4360 H   0  0  0  0  0  0  0  0  0  0  0  0
   38.6290   27.9840   43.9810 H   0  0  0  0  0  0  0  0  0  0  0  0
   37.3450   29.1290   44.4880 H   0  0  0  0  0  0  0  0  0  0  0  0
   38.6890   29.8890   42.6860 H   0  0  0  0  0  0  0  0  0  0  0  0
   38.9210   28.7670   40.1960 C   0  0  0  0  0  0  0  0  0  0  0  0
   38.7690   28.0910   38.9840 C   0  0  0  0  0  0  0  0  0  0  0  0
   39.3230   28.6690   37.8170 C   0  0  0  0  0  0  0  0  0  0  0  0
   39.9850   29.8800   37.9630 N   0  0  0  0  0  0  0  0  0  0  0  0
   40.0890   30.4720   39.1710 C   0  0  0  0  0  0  0  0  0  0  0  0
   39.5690   29.9330   40.2750 N   0  0  0  0  0  0  0  0  0  0  0  0
   38.2950   27.2060   38.7280 H   0  0  0  0  0  0  0  0  0  0  0  0
   39.2870   28.2650   36.8190 H   0  0  0  0  0  0  0  0  0  0  0  0
   40.8030   31.7500   39.2490 C   0  0  0  0  0  0  0  0  0  0  0  0
   40.1590   32.9390   39.3400 C   0  0  0  0  0  0  0  0  0  0  0  0
   40.7910   34.1600   39.4120 C   0  0  0  0  0  0  0  0  0  0  0  0
   42.1570   34.1260   39.3870 C   0  0  0  0  0  0  0  0  0  0  0  0
   42.8480   32.9290   39.2940 C   0  0  0  0  0  0  0  0  0  0  0  0
   42.1800   31.7340   39.2240 N   0  0  0  0  0  0  0  0  0  0  0  0
   39.0830   32.8850   39.3550 H   0  0  0  0  0  0  0  0  0  0  0  0
   40.2070   35.0560   39.4830 H   0  0  0  0  0  0  0  0  0  0  0  0
   42.6850   35.0780   39.4420 H   0  0  0  0  0  0  0  0  0  0  0  0
   43.9150   32.9930   39.2800 H   0  0  0  0  0  0  0  0  0  0  0  0
   36.7170   29.8260   41.9600 N   0  0  0  0  0  0  0  0  0  0  0  0
   36.0030   29.9460   42.7270 H   0  0  0  0  0  0  0  0  0  0  0  0
   36.1780   30.4240   40.7580 C   0  0  0  0  0  0  0  0  0  0  0  0
   35.5930   29.9060   40.0260 H   0  0  0  0  0  0  0  0  0  0  0  0
   36.4680   31.6630   40.6350 O   0  0  0  0  0  0  0  0  0  0  0  0
  1  7  1  1  0  0  0
  1  6  1  0  0  0  0
  2  1  1  0  0  0  0
  2  3  1  0  0  0  0
  3 10  1  0  0  0  0
  3  4  1  0  0  0  0
  4  5  1  0  0  0  0
  4 13  1  0  0  0  0
  5 14  1  0  0  0  0
  5 15  1  0  0  0  0
  6 16  1  1  0  0  0
  6  5  1  0  0  0  0
  8  2  1  0  0  0  0
  9  2  1  0  0  0  0
 11  3  1  0  0  0  0
 12  4  1  0  0  0  0
 17 22  1  0  0  0  0
 17  1  1  0  0  0  0
 18 17  2  0  0  0  0
 19 20  2  0  0  0  0
 19 18  1  0  0  0  0
 20 21  1  0  0  0  0
 21 25  1  0  0  0  0
 21 22  2  0  0  0  0
 23 18  1  0  0  0  0
 24 19  1  0  0  0  0
 25 26  1  0  0  0  0
 26 31  1  0  0  0  0
 26 27  2  0  0  0  0
 27 32  1  0  0  0  0
 28 27  1  0  0  0  0
 28 33  1  0  0  0  0
 29 28  2  0  0  0  0
 30 25  2  0  0  0  0
 30 29  1  0  0  0  0
 34 29  1  0  0  0  0
 35  6  1  0  0  0  0
 35 36  1  0  0  0  0
 37 35  1  0  0  0  0
 38 37  1  0  0  0  0
 39 37  2  0  0  0  0
M  END
>  <minimizedAffinity>
-5.23413563

$$$$

 OpenBabel03252507293D

 39 41  0  0  1  0  0  0  0  0999 V2000
   37.7050   30.2560   40.3300 C   0  0  2  0  0  0  0  0  0  0  0  0
   36.9300   31.4750   40.7990 C   0  0  0  0  0  0  0  0  0  0  0  0
   37.3350   32.6550   39.9640 C   0  0  0  0  0  0  0  0  0  0  0  0
   37.3010   32.4120   38.4940 C   0  0  0  0  0  0  0  0  0  0  0  0
   37.9390   31.1380   38.1080 C   0  0  0  0  0  0  0  0  0  0  0  0
   37.3850   29.9800   38.9150 C   0  0  2  0  0  0  0  0  0  0  0  0
   38.7740   30.5490   40.4250 H   0  0  0  0  0  0  0  0  0  0  0  0
   37.3750   31.6850   41.8300 H   0  0  0  0  0  0  0  0  0  0  0  0
   35.8700   31.3270   40.9530 H   0  0  0  0  0  0  0  0  0  0  0  0
   38.3980   32.9030   40.2280 H   0  0  0  0  0  0  0  0  0  0  0  0
   36.7570   33.5590   40.2110 H   0  0  0  0  0  0  0  0  0  0  0  0
   36.2550   32.4460   38.1040 H   0  0  0  0  0  0  0  0  0  0  0  0
   37.8350   33.2640   38.0130 H   0  0  0  0  0  0  0  0  0  0  0  0
   39.0350   31.1500   38.2810 H   0  0  0  0  0  0  0  0  0  0  0  0
   37.7800   30.9690   37.0130 H   0  0  0  0  0  0  0  0  0  0  0  0
   37.9660   29.1190   38.4880 H   0  0  0  0  0  0  0  0  0  0  0  0
   37.5050   29.0940   41.1890 C   0  0  0  0  0  0  0  0  0  0  0  0
   37.4430   29.2960   42.5690 C   0  0  0  0  0  0  0  0  0  0  0  0
   37.2670   28.1700   43.4070 C   0  0  0  0  0  0  0  0  0  0  0  0
   37.1660   26.9310   42.7910 N   0  0  0  0  0  0  0  0  0  0  0  0
   37.2340   26.8170   41.4480 C   0  0  0  0  0  0  0  0  0  0  0  0
   37.4000   27.8750   40.6510 N   0  0  0  0  0  0  0  0  0  0  0  0
   37.4870   30.1490   43.1570 H   0  0  0  0  0  0  0  0  0  0  0  0
   37.2040   28.1710   44.4820 H   0  0  0  0  0  0  0  0  0  0  0  0
   37.1200   25.4760   40.8660 C   0  0  0  0  0  0  0  0  0  0  0  0
   37.7250   24.3930   41.4120 C   0  0  0  0  0  0  0  0  0  0  0  0
   37.6450   23.1190   40.8960 C   0  0  0  0  0  0  0  0  0  0  0  0
   36.8980   22.9810   39.7600 C   0  0  0  0  0  0  0  0  0  0  0  0
   36.2660   24.0670   39.1760 C   0  0  0  0  0  0  0  0  0  0  0  0
   36.3710   25.3200   39.7210 N   0  0  0  0  0  0  0  0  0  0  0  0
   38.2960   24.5810   42.3050 H   0  0  0  0  0  0  0  0  0  0  0  0
   38.1550   22.3150   41.3890 H   0  0  0  0  0  0  0  0  0  0  0  0
   36.8170   21.9840   39.3290 H   0  0  0  0  0  0  0  0  0  0  0  0
   35.7020   23.8710   38.2900 H   0  0  0  0  0  0  0  0  0  0  0  0
   35.9970   29.8300   38.6840 N   0  0  0  0  0  0  0  0  0  0  0  0
   35.4120   30.5940   39.1140 H   0  0  0  0  0  0  0  0  0  0  0  0
   35.1030   28.9180   38.0050 C   0  0  0  0  0  0  0  0  0  0  0  0
   34.6540   28.0540   38.4500 H   0  0  0  0  0  0  0  0  0  0  0  0
   34.8850   29.2370   36.7860 O   0  0  0  0  0  0  0  0  0  0  0  0
  1  7  1  1  0  0  0
  1  2  1  0  0  0  0
  1 17  1  0  0  0  0
  2  9  1  0  0  0  0
  2  8  1  0  0  0  0
  3 11  1  0  0  0  0
  3 10  1  0  0  0  0
  3  2  1  0  0  0  0
  4  3  1  0  0  0  0
  5 14  1  0  0  0  0
  5  4  1  0  0  0  0
  5  6  1  0  0  0  0
  6 16  1  6  0  0  0
  6  1  1  0  0  0  0
 12  4  1  0  0  0  0
 13  4  1  0  0  0  0
 15  5  1  0  0  0  0
 17 18  1  0  0  0  0
 18 23  1  0  0  0  0
 18 19  2  0  0  0  0
 19 24  1  0  0  0  0
 20 19  1  0  0  0  0
 21 20  2  0  0  0  0
 22 17  2  0  0  0  0
 22 21  1  0  0  0  0
 25 26  1  0  0  0  0
 25 21  1  0  0  0  0
 26 31  1  0  0  0  0
 27 32  1  0  0  0  0
 27 26  2  0  0  0  0
 28 27  1  0  0  0  0
 29 30  1  0  0  0  0
 29 28  2  0  0  0  0
 30 25  2  0  0  0  0
 33 28  1  0  0  0  0
 34 29  1  0  0  0  0
 35  6  1  0  0  0  0
 35 36  1  0  0  0  0
 37 38  1  0  0  0  0
 37 35  1  0  0  0  0
 39 37  2  0  0  0  0
M  END
>  <minimizedAffinity>
-5.18302155

$$$$

 OpenBabel03252507293D

 39 41  0  0  1  0  0  0  0  0999 V2000
   37.1590   29.0810   41.6810 C   0  0  2  0  0  0  0  0  0  0  0  0
   37.4790   28.8550   43.1480 C   0  0  0  0  0  0  0  0  0  0  0  0
   36.8160   27.5850   43.5960 C   0  0  0  0  0  0  0  0  0  0  0  0
   37.0600   26.4140   42.7080 C   0  0  0  0  0  0  0  0  0  0  0  0
   36.8780   26.7300   41.2780 C   0  0  0  0  0  0  0  0  0  0  0  0
   37.6790   27.9560   40.8800 C   0  0  2  0  0  0  0  0  0  0  0  0
   36.0470   29.0950   41.6350 H   0  0  0  0  0  0  0  0  0  0  0  0
   36.8960   29.6860   43.6730 H   0  0  0  0  0  0  0  0  0  0  0  0
   38.5150   28.9900   43.4290 H   0  0  0  0  0  0  0  0  0  0  0  0
   35.7080   27.7680   43.5950 H   0  0  0  0  0  0  0  0  0  0  0  0
   37.0660   27.3290   44.6380 H   0  0  0  0  0  0  0  0  0  0  0  0
   38.0790   25.9860   42.8760 H   0  0  0  0  0  0  0  0  0  0  0  0
   36.3400   25.6200   43.0150 H   0  0  0  0  0  0  0  0  0  0  0  0
   35.8190   26.9490   41.0290 H   0  0  0  0  0  0  0  0  0  0  0  0
   37.1830   25.8430   40.6680 H   0  0  0  0  0  0  0  0  0  0  0  0
   37.4300   28.0340   39.7880 H   0  0  0  0  0  0  0  0  0  0  0  0
   37.6200   30.3770   41.1960 C   0  0  0  0  0  0  0  0  0  0  0  0
   36.7230   31.1710   40.4760 C   0  0  0  0  0  0  0  0  0  0  0  0
   37.1720   32.4210   39.9880 C   0  0  0  0  0  0  0  0  0  0  0  0
   38.4860   32.7740   40.2630 N   0  0  0  0  0  0  0  0  0  0  0  0
   39.2920   31.9520   40.9670 C   0  0  0  0  0  0  0  0  0  0  0  0
   38.8750   30.7710   41.4300 N   0  0  0  0  0  0  0  0  0  0  0  0
   35.7290   31.0440   40.2140 H   0  0  0  0  0  0  0  0  0  0  0  0
   36.5980   33.1330   39.4200 H   0  0  0  0  0  0  0  0  0  0  0  0
   40.6680   32.3910   41.2190 C   0  0  0  0  0  0  0  0  0  0  0  0
   41.5430   31.6580   41.9490 C   0  0  0  0  0  0  0  0  0  0  0  0
   42.8400   32.0350   42.2110 C   0  0  0  0  0  0  0  0  0  0  0  0
   43.2320   33.2340   41.6820 C   0  0  0  0  0  0  0  0  0  0  0  0
   42.3620   34.0090   40.9310 C   0  0  0  0  0  0  0  0  0  0  0  0
   41.0770   33.5970   40.6940 N   0  0  0  0  0  0  0  0  0  0  0  0
   41.1620   30.7270   42.3330 H   0  0  0  0  0  0  0  0  0  0  0  0
   43.4700   31.3970   42.7980 H   0  0  0  0  0  0  0  0  0  0  0  0
   44.2530   33.5590   41.8730 H   0  0  0  0  0  0  0  0  0  0  0  0
   42.7490   34.9310   40.5550 H   0  0  0  0  0  0  0  0  0  0  0  0
   39.0620   27.7320   41.0790 N   0  0  0  0  0  0  0  0  0  0  0  0
   39.4800   28.3210   41.8480 H   0  0  0  0  0  0  0  0  0  0  0  0
   40.1170   26.9070   40.5320 C   0  0  0  0  0  0  0  0  0  0  0  0
   40.7480   27.1820   39.7120 H   0  0  0  0  0  0  0  0  0  0  0  0
   40.2380   25.7820   41.1270 O   0  0  0  0  0  0  0  0  0  0  0  0
  1  7  1  6  0  0  0
  1  2  1  0  0  0  0
  2  9  1  0  0  0  0
  2  3  1  0  0  0  0
  2  8  1  0  0  0  0
  3 11  1  0  0  0  0
  4 12  1  0  0  0  0
  4 13  1  0  0  0  0
  4  3  1  0  0  0  0
  5  4  1  0  0  0  0
  6 16  1  6  0  0  0
  6 35  1  0  0  0  0
  6  5  1  0  0  0  0
  6  1  1  0  0  0  0
 10  3  1  0  0  0  0
 14  5  1  0  0  0  0
 15  5  1  0  0  0  0
 17 22  1  0  0  0  0
 17  1  1  0  0  0  0
 18 17  2  0  0  0  0
 19 20  2  0  0  0  0
 19 18  1  0  0  0  0
 20 21  1  0  0  0  0
 21 25  1  0  0  0  0
 21 22  2  0  0  0  0
 23 18  1  0  0  0  0
 24 19  1  0  0  0  0
 25 26  1  0  0  0  0
 26 27  2  0  0  0  0
 26 31  1  0  0  0  0
 27 32  1  0  0  0  0
 28 33  1  0  0  0  0
 28 27  1  0  0  0  0
 29 28  2  0  0  0  0
 30 29  1  0  0  0  0
 30 25  2  0  0  0  0
 34 29  1  0  0  0  0
 35 36  1  0  0  0  0
 37 35  1  0  0  0  0
 37 39  2  0  0  0  0
 38 37  1  0  0  0  0
M  END
>  <minimizedAffinity>
-5.17422199

$$$$

 OpenBabel03252507293D

 39 41  0  0  1  0  0  0  0  0999 V2000
   38.8450   26.8500   42.5170 C   0  0  2  0  0  0  0  0  0  0  0  0
   39.7060   25.6950   42.0360 C   0  0  0  0  0  0  0  0  0  0  0  0
   39.0390   24.4060   42.4160 C   0  0  0  0  0  0  0  0  0  0  0  0
   37.6000   24.3190   42.0400 C   0  0  0  0  0  0  0  0  0  0  0  0
   36.8400   25.5330   42.3990 C   0  0  0  0  0  0  0  0  0  0  0  0
   37.5190   26.7820   41.8720 C   0  0  2  0  0  0  0  0  0  0  0  0
   38.7400   26.6850   43.6130 H   0  0  0  0  0  0  0  0  0  0  0  0
   40.6240   25.7560   42.7130 H   0  0  0  0  0  0  0  0  0  0  0  0
   40.0740   25.7740   41.0220 H   0  0  0  0  0  0  0  0  0  0  0  0
   39.0890   24.3200   43.5340 H   0  0  0  0  0  0  0  0  0  0  0  0
   39.5830   23.5260   42.0340 H   0  0  0  0  0  0  0  0  0  0  0  0
   37.4800   24.1040   40.9500 H   0  0  0  0  0  0  0  0  0  0  0  0
   37.1780   23.4360   42.5740 H   0  0  0  0  0  0  0  0  0  0  0  0
   36.7500   25.6600   43.4980 H   0  0  0  0  0  0  0  0  0  0  0  0
   35.8010   25.4450   41.9910 H   0  0  0  0  0  0  0  0  0  0  0  0
   36.8110   27.5800   42.2240 H   0  0  0  0  0  0  0  0  0  0  0  0
   39.4900   28.1470   42.3430 C   0  0  0  0  0  0  0  0  0  0  0  0
   40.7740   28.3210   42.8620 C   0  0  0  0  0  0  0  0  0  0  0  0
   41.3960   29.5830   42.7110 C   0  0  0  0  0  0  0  0  0  0  0  0
   40.6780   30.5680   42.0480 N   0  0  0  0  0  0  0  0  0  0  0  0
   39.4390   30.3220   41.5720 C   0  0  0  0  0  0  0  0  0  0  0  0
   38.8460   29.1340   41.7120 N   0  0  0  0  0  0  0  0  0  0  0  0
   41.4240   27.6830   43.3570 H   0  0  0  0  0  0  0  0  0  0  0  0
   42.3760   29.8640   43.0590 H   0  0  0  0  0  0  0  0  0  0  0  0
   38.7400   31.4110   40.8830 C   0  0  0  0  0  0  0  0  0  0  0  0
   37.6980   31.1900   40.0460 C   0  0  0  0  0  0  0  0  0  0  0  0
   37.0170   32.1830   39.3780 C   0  0  0  0  0  0  0  0  0  0  0  0
   37.4520   33.4600   39.6020 C   0  0  0  0  0  0  0  0  0  0  0  0
   38.5150   33.7200   40.4530 C   0  0  0  0  0  0  0  0  0  0  0  0
   39.1660   32.7020   41.0980 N   0  0  0  0  0  0  0  0  0  0  0  0
   37.4130   30.1600   39.9190 H   0  0  0  0  0  0  0  0  0  0  0  0
   36.2020   31.9240   38.7320 H   0  0  0  0  0  0  0  0  0  0  0  0
   36.9320   34.2660   39.0870 H   0  0  0  0  0  0  0  0  0  0  0  0
   38.7900   34.7460   40.5710 H   0  0  0  0  0  0  0  0  0  0  0  0
   37.5960   26.7490   40.4590 N   0  0  0  0  0  0  0  0  0  0  0  0
   38.5610   26.5350   40.0930 H   0  0  0  0  0  0  0  0  0  0  0  0
   36.7180   26.9180   39.3210 C   0  0  0  0  0  0  0  0  0  0  0  0
   36.5250   27.8490   38.8290 H   0  0  0  0  0  0  0  0  0  0  0  0
   36.1730   25.8270   38.9370 O   0  0  0  0  0  0  0  0  0  0  0  0
  1  7  1  1  0  0  0
  2  3  1  0  0  0  0
  2  1  1  0  0  0  0
  2  8  1  0  0  0  0
  3 10  1  0  0  0  0
  4  5  1  0  0  0  0
  4  3  1  0  0  0  0
  4 13  1  0  0  0  0
  5 14  1  0  0  0  0
  6 16  1  1  0  0  0
  6  5  1  0  0  0  0
  6  1  1  0  0  0  0
  9  2  1  0  0  0  0
 11  3  1  0  0  0  0
 12  4  1  0  0  0  0
 15  5  1  0  0  0  0
 17  1  1  0  0  0  0
 17 18  1  0  0  0  0
 18 23  1  0  0  0  0
 19 18  2  0  0  0  0
 19 24  1  0  0  0  0
 20 19  1  0  0  0  0
 21 22  1  0  0  0  0
 21 20  2  0  0  0  0
 22 17  2  0  0  0  0
 25 30  1  0  0  0  0
 25 21  1  0  0  0  0
 26 25  2  0  0  0  0
 27 28  2  0  0  0  0
 27 26  1  0  0  0  0
 28 29  1  0  0  0  0
 29 34  1  0  0  0  0
 29 30  2  0  0  0  0
 31 26  1  0  0  0  0
 32 27  1  0  0  0  0
 33 28  1  0  0  0  0
 35  6  1  0  0  0  0
 36 35  1  0  0  0  0
 37 35  1  0  0  0  0
 38 37  1  0  0  0  0
 39 37  2  0  0  0  0
M  END
>  <minimizedAffinity>
-5.1655941

$$$$

 OpenBabel03252507293D

 39 41  0  0  1  0  0  0  0  0999 V2000
   36.6710   26.2150   40.6990 C   0  0  2  0  0  0  0  0  0  0  0  0
   37.1550   24.8770   41.2300 C   0  0  0  0  0  0  0  0  0  0  0  0
   36.5070   23.7810   40.4350 C   0  0  0  0  0  0  0  0  0  0  0  0
   36.6060   23.9470   38.9580 C   0  0  0  0  0  0  0  0  0  0  0  0
   36.2670   25.3120   38.5100 C   0  0  0  0  0  0  0  0  0  0  0  0
   37.0560   26.3550   39.2810 C   0  0  2  0  0  0  0  0  0  0  0  0
   35.5630   26.1680   40.7870 H   0  0  0  0  0  0  0  0  0  0  0  0
   36.6660   24.8140   42.2600 H   0  0  0  0  0  0  0  0  0  0  0  0
   38.2200   24.7950   41.3970 H   0  0  0  0  0  0  0  0  0  0  0  0
   35.4140   23.7830   40.6900 H   0  0  0  0  0  0  0  0  0  0  0  0
   36.8700   22.7830   40.7280 H   0  0  0  0  0  0  0  0  0  0  0  0
   37.6230   23.6680   38.5880 H   0  0  0  0  0  0  0  0  0  0  0  0
   35.9020   23.2140   38.5020 H   0  0  0  0  0  0  0  0  0  0  0  0
   35.1940   25.5490   38.6650 H   0  0  0  0  0  0  0  0  0  0  0  0
   36.4690   25.3960   37.4120 H   0  0  0  0  0  0  0  0  0  0  0  0
   36.6820   27.3030   38.8090 H   0  0  0  0  0  0  0  0  0  0  0  0
   37.1150   27.3400   41.5150 C   0  0  0  0  0  0  0  0  0  0  0  0
   37.3190   27.1260   42.8800 C   0  0  0  0  0  0  0  0  0  0  0  0
   37.7320   28.2190   43.6780 C   0  0  0  0  0  0  0  0  0  0  0  0
   37.9080   29.4400   43.0400 N   0  0  0  0  0  0  0  0  0  0  0  0
   37.6910   29.5660   41.7150 C   0  0  0  0  0  0  0  0  0  0  0  0
   37.3010   28.5400   40.9560 N   0  0  0  0  0  0  0  0  0  0  0  0
   37.2440   26.2830   43.4780 H   0  0  0  0  0  0  0  0  0  0  0  0
   37.9260   28.2060   44.7380 H   0  0  0  0  0  0  0  0  0  0  0  0
   37.8960   30.8860   41.1090 C   0  0  0  0  0  0  0  0  0  0  0  0
   36.9990   31.4420   40.2590 C   0  0  0  0  0  0  0  0  0  0  0  0
   37.1550   32.6760   39.6680 C   0  0  0  0  0  0  0  0  0  0  0  0
   38.3020   33.3490   39.9860 C   0  0  0  0  0  0  0  0  0  0  0  0
   39.2390   32.8090   40.8510 C   0  0  0  0  0  0  0  0  0  0  0  0
   39.0460   31.5770   41.4190 N   0  0  0  0  0  0  0  0  0  0  0  0
   36.1220   30.8520   40.0570 H   0  0  0  0  0  0  0  0  0  0  0  0
   36.3980   33.0460   39.0050 H   0  0  0  0  0  0  0  0  0  0  0  0
   38.4520   34.3280   39.5320 H   0  0  0  0  0  0  0  0  0  0  0  0
   40.1070   33.4030   41.0450 H   0  0  0  0  0  0  0  0  0  0  0  0
   38.4440   26.1860   39.0680 N   0  0  0  0  0  0  0  0  0  0  0  0
   38.9160   25.5940   39.8030 H   0  0  0  0  0  0  0  0  0  0  0  0
   39.4510   26.5860   38.1100 C   0  0  0  0  0  0  0  0  0  0  0  0
   40.0370   27.4800   38.1740 H   0  0  0  0  0  0  0  0  0  0  0  0
   39.5900   25.7580   37.1460 O   0  0  0  0  0  0  0  0  0  0  0  0
  1  7  1  1  0  0  0
  1  2  1  0  0  0  0
  1 17  1  0  0  0  0
  2  9  1  0  0  0  0
  2  8  1  0  0  0  0
  3 10  1  0  0  0  0
  3 11  1  0  0  0  0
  3  2  1  0  0  0  0
  4  3  1  0  0  0  0
  5 14  1  0  0  0  0
  5  4  1  0  0  0  0
  5  6  1  0  0  0  0
  6 16  1  6  0  0  0
  6  1  1  0  0  0  0
 12  4  1  0  0  0  0
 13  4  1  0  0  0  0
 15  5  1  0  0  0  0
 17 18  1  0  0  0  0
 18 23  1  0  0  0  0
 18 19  2  0  0  0  0
 19 24  1  0  0  0  0
 20 19  1  0  0  0  0
 21 20  2  0  0  0  0
 22 17  2  0  0  0  0
 22 21  1  0  0  0  0
 25 30  1  0  0  0  0
 25 21  1  0  0  0  0
 26 25  2  0  0  0  0
 27 28  2  0  0  0  0
 27 26  1  0  0  0  0
 28 29  1  0  0  0  0
 29 34  1  0  0  0  0
 29 30  2  0  0  0  0
 31 26  1  0  0  0  0
 32 27  1  0  0  0  0
 33 28  1  0  0  0  0
 35  6  1  0  0  0  0
 35 36  1  0  0  0  0
 37 38  1  0  0  0  0
 37 35  1  0  0  0  0
 39 37  2  0  0  0  0
M  END
>  <minimizedAffinity>
-5.10395956

$$$$

 OpenBabel03252507293D

 39 41  0  0  1  0  0  0  0  0999 V2000
   37.4680   30.4990   39.8730 C   0  0  2  0  0  0  0  0  0  0  0  0
   36.1830   30.5980   40.6760 C   0  0  0  0  0  0  0  0  0  0  0  0
   35.4230   29.3120   40.5300 C   0  0  0  0  0  0  0  0  0  0  0  0
   36.2310   28.0850   40.7790 C   0  0  0  0  0  0  0  0  0  0  0  0
   37.5360   28.1080   40.0920 C   0  0  0  0  0  0  0  0  0  0  0  0
   38.2920   29.3890   40.3900 C   0  0  2  0  0  0  0  0  0  0  0  0
   37.1340   30.2700   38.8360 H   0  0  0  0  0  0  0  0  0  0  0  0
   35.5690   31.3640   40.0910 H   0  0  0  0  0  0  0  0  0  0  0  0
   36.2840   30.9950   41.6770 H   0  0  0  0  0  0  0  0  0  0  0  0
   35.0640   29.2540   39.4680 H   0  0  0  0  0  0  0  0  0  0  0  0
   34.5100   29.2950   41.1460 H   0  0  0  0  0  0  0  0  0  0  0  0
   36.3810   27.9170   41.8740 H   0  0  0  0  0  0  0  0  0  0  0  0
   35.6270   27.2210   40.4170 H   0  0  0  0  0  0  0  0  0  0  0  0
   37.4290   28.0530   38.9890 H   0  0  0  0  0  0  0  0  0  0  0  0
   38.1310   27.2150   40.4100 H   0  0  0  0  0  0  0  0  0  0  0  0
   39.2370   29.2260   39.8060 H   0  0  0  0  0  0  0  0  0  0  0  0
   38.1970   31.7610   39.8150 C   0  0  0  0  0  0  0  0  0  0  0  0
   37.5240   32.9300   40.1780 C   0  0  0  0  0  0  0  0  0  0  0  0
   38.2220   34.1590   40.1060 C   0  0  0  0  0  0  0  0  0  0  0  0
   39.5410   34.1140   39.6770 N   0  0  0  0  0  0  0  0  0  0  0  0
   40.1230   32.9430   39.3450 C   0  0  0  0  0  0  0  0  0  0  0  0
   39.4700   31.7800   39.4090 N   0  0  0  0  0  0  0  0  0  0  0  0
   36.5640   33.1080   40.5250 H   0  0  0  0  0  0  0  0  0  0  0  0
   37.8350   35.1340   40.3500 H   0  0  0  0  0  0  0  0  0  0  0  0
   41.5190   32.9730   38.8990 C   0  0  0  0  0  0  0  0  0  0  0  0
   41.9840   33.8990   38.0260 C   0  0  0  0  0  0  0  0  0  0  0  0
   43.2850   33.9600   37.5810 C   0  0  0  0  0  0  0  0  0  0  0  0
   44.1310   33.0060   38.0760 C   0  0  0  0  0  0  0  0  0  0  0  0
   43.6880   32.0450   38.9710 C   0  0  0  0  0  0  0  0  0  0  0  0
   42.3830   32.0190   39.3890 N   0  0  0  0  0  0  0  0  0  0  0  0
   41.2600   34.6160   37.6800 H   0  0  0  0  0  0  0  0  0  0  0  0
   43.5730   34.7250   36.8880 H   0  0  0  0  0  0  0  0  0  0  0  0
   45.1670   33.0290   37.7410 H   0  0  0  0  0  0  0  0  0  0  0  0
   44.4150   31.3370   39.3080 H   0  0  0  0  0  0  0  0  0  0  0  0
   38.5560   29.5000   41.7760 N   0  0  0  0  0  0  0  0  0  0  0  0
   37.9680   30.2280   42.2620 H   0  0  0  0  0  0  0  0  0  0  0  0
   39.4150   28.8910   42.7680 C   0  0  0  0  0  0  0  0  0  0  0  0
   40.3970   29.2330   43.0220 H   0  0  0  0  0  0  0  0  0  0  0  0
   38.8880   27.8750   43.3370 O   0  0  0  0  0  0  0  0  0  0  0  0
  1  7  1  6  0  0  0
  1  6  1  0  0  0  0
  1  2  1  0  0  0  0
  2  9  1  0  0  0  0
  3  2  1  0  0  0  0
  3  4  1  0  0  0  0
  3 11  1  0  0  0  0
  4 12  1  0  0  0  0
  5  6  1  0  0  0  0
  5 15  1  0  0  0  0
  5  4  1  0  0  0  0
  6 16  1  6  0  0  0
  6 35  1  0  0  0  0
  8  2  1  0  0  0  0
 10  3  1  0  0  0  0
 13  4  1  0  0  0  0
 14  5  1  0  0  0  0
 17  1  1  0  0  0  0
 17 18  1  0  0  0  0
 18 23  1  0  0  0  0
 19 18  2  0  0  0  0
 19 24  1  0  0  0  0
 20 19  1  0  0  0  0
 21 22  1  0  0  0  0
 21 20  2  0  0  0  0
 22 17  2  0  0  0  0
 25 21  1  0  0  0  0
 25 30  1  0  0  0  0
 26 25  2  0  0  0  0
 27 26  1  0  0  0  0
 27 28  2  0  0  0  0
 28 29  1  0  0  0  0
 29 34  1  0  0  0  0
 29 30  2  0  0  0  0
 31 26  1  0  0  0  0
 32 27  1  0  0  0  0
 33 28  1  0  0  0  0
 35 36  1  0  0  0  0
 35 37  1  0  0  0  0
 37 38  1  0  0  0  0
 37 39  2  0  0  0  0
M  END
>  <minimizedAffinity>
-5.01549959

$$$$
