
 OpenBabel03242512553D

 23 23  0  0  0  0  0  0  0  0999 V2000
   35.6700   29.3600   40.7640 C   0  0  0  0  0  0  0  0  0  0  0  0
   35.4190   29.3350   39.6870 H   0  0  0  0  0  0  0  0  0  0  0  0
   34.6930   29.1360   41.2850 H   0  0  0  0  0  0  0  0  0  0  0  0
   37.0220   28.0870   42.3860 C   0  0  0  0  0  3  0  0  0  0  0  0
   36.5650   28.2420   41.1460 C   0  0  0  0  0  3  0  0  0  0  0  0
   37.8960   26.9610   42.6710 C   0  0  0  0  0  0  0  0  0  0  0  0
   37.5470   25.7180   42.0900 C   0  0  0  0  0  0  0  0  0  0  0  0
   38.3670   24.6000   42.3410 C   0  0  0  0  0  0  0  0  0  0  0  0
   39.4630   24.7860   43.1380 N   0  0  0  0  0  0  0  0  0  0  0  0
   39.7620   25.9970   43.6750 C   0  0  0  0  0  0  0  0  0  0  0  0
   38.9840   27.0520   43.4370 N   0  0  0  0  0  0  0  0  0  0  0  0
   36.6960   25.5400   41.4620 H   0  0  0  0  0  0  0  0  0  0  0  0
   38.1260   23.6370   41.9120 H   0  0  0  0  0  0  0  0  0  0  0  0
   40.6390   26.1120   44.3040 H   0  0  0  0  0  0  0  0  0  0  0  0
   36.0890   30.5680   41.2320 O   0  0  0  0  0  0  0  0  0  0  0  0
   36.6070   30.9410   38.7280 O   0  0  0  0  0  0  0  0  0  0  0  0
   37.0240   31.4080   40.1060 P   0  0  1  0  0  0  0  0  0  0  0  0
   36.7860   33.0620   40.2460 O   0  0  0  0  0  0  0  0  0  0  0  0
   37.4020   33.5440   39.6550 H   0  0  0  0  0  0  0  0  0  0  0  0
   38.6690   31.1050   40.2780 O   0  0  0  0  0  0  0  0  0  0  0  0
   39.4230   31.9280   41.1270 C   0  0  0  0  0  0  0  0  0  0  0  0
   40.0000   31.4690   41.9190 H   0  0  0  0  0  0  0  0  0  0  0  0
   39.4350   33.1780   40.9800 O   0  0  0  0  0  0  0  0  0  0  0  0
  1  5  1  0  0  0  0
  1 15  1  0  0  0  0
  1  3  1  0  0  0  0
  2  1  1  0  0  0  0
  4  6  1  0  0  0  0
  5  4  2  0  0  0  0
  6 11  1  0  0  0  0
  7  8  1  0  0  0  0
  7  6  2  0  0  0  0
  8  9  2  0  0  0  0
  9 10  1  0  0  0  0
 10 14  1  0  0  0  0
 11 10  2  0  0  0  0
 12  7  1  0  0  0  0
 13  8  1  0  0  0  0
 17 16  2  6  0  0  0
 17 18  1  0  0  0  0
 17 20  1  0  0  0  0
 17 15  1  0  0  0  0
 19 18  1  0  0  0  0
 20 21  1  0  0  0  0
 21 22  1  0  0  0  0
 23 21  2  0  0  0  0
M  END
>  <minimizedAffinity>
-4.3214879

$$$$

 OpenBabel03242512553D

 23 23  0  0  0  0  0  0  0  0999 V2000
   38.6510   30.5350   41.9890 C   0  0  0  0  0  0  0  0  0  0  0  0
   37.7840   30.8140   42.6160 H   0  0  0  0  0  0  0  0  0  0  0  0
   39.5080   31.1380   42.4100 H   0  0  0  0  0  0  0  0  0  0  0  0
   38.1720   28.1790   42.5390 C   0  0  0  0  0  3  0  0  0  0  0  0
   39.0470   29.1220   42.1980 C   0  0  0  0  0  3  0  0  0  0  0  0
   38.6490   26.8190   42.7240 C   0  0  0  0  0  0  0  0  0  0  0  0
   39.8440   26.6560   43.4650 C   0  0  0  0  0  0  0  0  0  0  0  0
   40.3430   25.3540   43.6680 C   0  0  0  0  0  0  0  0  0  0  0  0
   39.6340   24.3150   43.1290 N   0  0  0  0  0  0  0  0  0  0  0  0
   38.4910   24.5160   42.4240 C   0  0  0  0  0  0  0  0  0  0  0  0
   38.0230   25.7490   42.2340 N   0  0  0  0  0  0  0  0  0  0  0  0
   40.4230   27.4490   43.8990 H   0  0  0  0  0  0  0  0  0  0  0  0
   41.2530   25.1970   44.2300 H   0  0  0  0  0  0  0  0  0  0  0  0
   37.9510   23.6700   42.0100 H   0  0  0  0  0  0  0  0  0  0  0  0
   38.5490   30.8760   40.6750 O   0  0  0  0  0  0  0  0  0  0  0  0
   36.0470   30.8230   41.3240 O   0  0  0  0  0  0  0  0  0  0  0  0
   36.9820   31.3320   40.2460 P   0  0  1  0  0  0  0  0  0  0  0  0
   36.8570   32.9990   40.1220 O   0  0  0  0  0  0  0  0  0  0  0  0
   35.9730   33.2480   39.7800 H   0  0  0  0  0  0  0  0  0  0  0  0
   36.4920   30.6640   38.7820 O   0  0  0  0  0  0  0  0  0  0  0  0
   37.3020   30.8460   37.6520 C   0  0  0  0  0  0  0  0  0  0  0  0
   37.5130   29.9930   37.0200 H   0  0  0  0  0  0  0  0  0  0  0  0
   37.7810   31.9750   37.3700 O   0  0  0  0  0  0  0  0  0  0  0  0
  1  5  1  0  0  0  0
  1  3  1  0  0  0  0
  1  2  1  0  0  0  0
  4  6  1  0  0  0  0
  5  4  2  0  0  0  0
  6  7  1  0  0  0  0
  7  8  2  0  0  0  0
  7 12  1  0  0  0  0
  8 13  1  0  0  0  0
  9  8  1  0  0  0  0
 10  9  2  0  0  0  0
 11 10  1  0  0  0  0
 11  6  2  0  0  0  0
 14 10  1  0  0  0  0
 15  1  1  0  0  0  0
 17 15  1  0  0  0  0
 17 16  2  1  0  0  0
 18 17  1  0  0  0  0
 19 18  1  0  0  0  0
 20 17  1  0  0  0  0
 21 20  1  0  0  0  0
 22 21  1  0  0  0  0
 23 21  2  0  0  0  0
M  END
>  <minimizedAffinity>
-4.04945326

$$$$

 OpenBabel03242512553D

 23 23  0  0  0  0  0  0  0  0999 V2000
   35.5370   29.8530   40.4810 C   0  0  0  0  0  0  0  0  0  0  0  0
   35.4960   29.9320   39.3790 H   0  0  0  0  0  0  0  0  0  0  0  0
   34.4570   29.9180   40.8070 H   0  0  0  0  0  0  0  0  0  0  0  0
   36.4180   27.5890   40.0640 C   0  0  0  0  0  3  0  0  0  0  0  0
   35.9830   28.5100   40.9200 C   0  0  0  0  0  3  0  0  0  0  0  0
   36.8350   26.2970   40.5830 C   0  0  0  0  0  0  0  0  0  0  0  0
   37.6120   26.3050   41.7670 C   0  0  0  0  0  0  0  0  0  0  0  0
   38.0390   25.0730   42.3040 C   0  0  0  0  0  0  0  0  0  0  0  0
   37.6710   23.9340   41.6420 N   0  0  0  0  0  0  0  0  0  0  0  0
   36.9240   23.9720   40.5090 C   0  0  0  0  0  0  0  0  0  0  0  0
   36.5230   25.1380   40.0030 N   0  0  0  0  0  0  0  0  0  0  0  0
   37.9170   27.1790   42.3080 H   0  0  0  0  0  0  0  0  0  0  0  0
   38.6330   25.0470   43.2070 H   0  0  0  0  0  0  0  0  0  0  0  0
   36.6490   23.0500   40.0070 H   0  0  0  0  0  0  0  0  0  0  0  0
   36.1910   30.8690   41.1100 O   0  0  0  0  0  0  0  0  0  0  0  0
   36.9660   31.2070   38.6680 O   0  0  0  0  0  0  0  0  0  0  0  0
   37.2090   31.7230   40.0710 P   0  0  1  0  0  0  0  0  0  0  0  0
   36.8900   33.3670   40.1380 O   0  0  0  0  0  0  0  0  0  0  0  0
   37.5490   33.8620   39.6060 H   0  0  0  0  0  0  0  0  0  0  0  0
   38.8370   31.4950   40.4290 O   0  0  0  0  0  0  0  0  0  0  0  0
   39.6100   32.6060   40.7990 C   0  0  0  0  0  0  0  0  0  0  0  0
   40.0300   32.6380   41.7950 H   0  0  0  0  0  0  0  0  0  0  0  0
   39.8140   33.5510   39.9940 O   0  0  0  0  0  0  0  0  0  0  0  0
  1  3  1  0  0  0  0
  1  5  1  0  0  0  0
  1 15  1  0  0  0  0
  2  1  1  0  0  0  0
  4  6  1  0  0  0  0
  4  5  2  0  0  0  0
  6  7  1  0  0  0  0
  7  8  2  0  0  0  0
  7 12  1  0  0  0  0
  8 13  1  0  0  0  0
  9  8  1  0  0  0  0
 10  9  2  0  0  0  0
 11 10  1  0  0  0  0
 11  6  2  0  0  0  0
 14 10  1  0  0  0  0
 17 16  2  6  0  0  0
 17 18  1  0  0  0  0
 17 20  1  0  0  0  0
 17 15  1  0  0  0  0
 19 18  1  0  0  0  0
 20 21  1  0  0  0  0
 21 22  1  0  0  0  0
 23 21  2  0  0  0  0
M  END
>  <minimizedAffinity>
-3.99494791

$$$$

 OpenBabel03242512553D

 23 23  0  0  0  0  0  0  0  0999 V2000
   36.1660   30.0040   38.2230 C   0  0  0  0  0  0  0  0  0  0  0  0
   35.2910   29.4020   37.9120 H   0  0  0  0  0  0  0  0  0  0  0  0
   35.7400   31.0270   38.4410 H   0  0  0  0  0  0  0  0  0  0  0  0
   36.5580   28.2960   39.9570 C   0  0  0  0  0  3  0  0  0  0  0  0
   36.7190   29.5420   39.5170 C   0  0  0  0  0  3  0  0  0  0  0  0
   37.1350   27.9300   41.2400 C   0  0  0  0  0  0  0  0  0  0  0  0
   37.2140   28.9490   42.2190 C   0  0  0  0  0  0  0  0  0  0  0  0
   37.7670   28.6370   43.4780 C   0  0  0  0  0  0  0  0  0  0  0  0
   38.1990   27.3540   43.6780 N   0  0  0  0  0  0  0  0  0  0  0  0
   38.1050   26.4060   42.7100 C   0  0  0  0  0  0  0  0  0  0  0  0
   37.5820   26.7050   41.5210 N   0  0  0  0  0  0  0  0  0  0  0  0
   36.8850   29.9620   42.0940 H   0  0  0  0  0  0  0  0  0  0  0  0
   37.8400   29.3940   44.2460 H   0  0  0  0  0  0  0  0  0  0  0  0
   38.4560   25.3980   42.9000 H   0  0  0  0  0  0  0  0  0  0  0  0
   37.1170   30.1790   37.2630 O   0  0  0  0  0  0  0  0  0  0  0  0
   39.3290   31.3190   37.9620 O   0  0  0  0  0  0  0  0  0  0  0  0
   37.9460   31.6390   37.4350 P   0  0  1  0  0  0  0  0  0  0  0  0
   38.0630   32.4360   35.9660 O   0  0  0  0  0  0  0  0  0  0  0  0
   38.4600   33.3240   36.0930 H   0  0  0  0  0  0  0  0  0  0  0  0
   37.2040   32.6770   38.5310 O   0  0  0  0  0  0  0  0  0  0  0  0
   37.9390   33.1320   39.6360 C   0  0  0  0  0  0  0  0  0  0  0  0
   38.5780   33.9960   39.5150 H   0  0  0  0  0  0  0  0  0  0  0  0
   37.8640   32.5510   40.7500 O   0  0  0  0  0  0  0  0  0  0  0  0
  1  3  1  0  0  0  0
  1  5  1  0  0  0  0
  2  1  1  0  0  0  0
  4  6  1  0  0  0  0
  5  4  2  0  0  0  0
  6 11  2  0  0  0  0
  6  7  1  0  0  0  0
  7  8  2  0  0  0  0
  8  9  1  0  0  0  0
  8 13  1  0  0  0  0
 10 14  1  0  0  0  0
 10  9  2  0  0  0  0
 11 10  1  0  0  0  0
 12  7  1  0  0  0  0
 15 17  1  0  0  0  0
 15  1  1  0  0  0  0
 17 16  2  1  0  0  0
 17 20  1  0  0  0  0
 18 19  1  0  0  0  0
 18 17  1  0  0  0  0
 20 21  1  0  0  0  0
 21 23  2  0  0  0  0
 22 21  1  0  0  0  0
M  END
>  <minimizedAffinity>
-3.92771339

$$$$

 OpenBabel03242512553D

 23 23  0  0  0  0  0  0  0  0999 V2000
   36.2420   29.3190   39.0870 C   0  0  0  0  0  0  0  0  0  0  0  0
   35.5450   29.3020   38.2280 H   0  0  0  0  0  0  0  0  0  0  0  0
   35.5800   29.5120   39.9820 H   0  0  0  0  0  0  0  0  0  0  0  0
   36.5340   27.2610   40.4130 C   0  0  0  0  0  3  0  0  0  0  0  0
   36.8370   27.9860   39.3380 C   0  0  0  0  0  3  0  0  0  0  0  0
   37.1660   25.9630   40.5790 C   0  0  0  0  0  0  0  0  0  0  0  0
   37.1620   25.4120   41.8830 C   0  0  0  0  0  0  0  0  0  0  0  0
   37.7650   24.1550   42.0890 C   0  0  0  0  0  0  0  0  0  0  0  0
   38.3220   23.5360   41.0030 N   0  0  0  0  0  0  0  0  0  0  0  0
   38.3030   24.1010   39.7670 C   0  0  0  0  0  0  0  0  0  0  0  0
   37.7330   25.2900   39.5770 N   0  0  0  0  0  0  0  0  0  0  0  0
   36.7350   25.8710   42.7530 H   0  0  0  0  0  0  0  0  0  0  0  0
   37.7780   23.7080   43.0730 H   0  0  0  0  0  0  0  0  0  0  0  0
   38.7540   23.5840   38.9260 H   0  0  0  0  0  0  0  0  0  0  0  0
   37.1630   30.3230   39.0650 O   0  0  0  0  0  0  0  0  0  0  0  0
   37.1440   32.7370   39.9880 O   0  0  0  0  0  0  0  0  0  0  0  0
   37.0920   31.2940   40.4430 P   0  0  1  0  0  0  0  0  0  0  0  0
   35.6780   31.0150   41.2990 O   0  0  0  0  0  0  0  0  0  0  0  0
   35.6900   31.5110   42.1440 H   0  0  0  0  0  0  0  0  0  0  0  0
   38.3880   31.0330   41.4840 O   0  0  0  0  0  0  0  0  0  0  0  0
   38.4760   29.8070   42.1590 C   0  0  0  0  0  0  0  0  0  0  0  0
   39.3690   29.2090   42.0350 H   0  0  0  0  0  0  0  0  0  0  0  0
   37.5400   29.4020   42.8960 O   0  0  0  0  0  0  0  0  0  0  0  0
  1  5  1  0  0  0  0
  1  3  1  0  0  0  0
  2  1  1  0  0  0  0
  4  6  1  0  0  0  0
  5  4  2  0  0  0  0
  6  7  1  0  0  0  0
  7  8  2  0  0  0  0
  7 12  1  0  0  0  0
  8 13  1  0  0  0  0
  9  8  1  0  0  0  0
 10  9  2  0  0  0  0
 11 10  1  0  0  0  0
 11  6  2  0  0  0  0
 14 10  1  0  0  0  0
 15  1  1  0  0  0  0
 15 17  1  0  0  0  0
 17 16  2  6  0  0  0
 17 18  1  0  0  0  0
 17 20  1  0  0  0  0
 18 19  1  0  0  0  0
 20 21  1  0  0  0  0
 21 23  2  0  0  0  0
 22 21  1  0  0  0  0
M  END
>  <minimizedAffinity>
-3.92542052

$$$$

 OpenBabel03242512553D

 23 23  0  0  0  0  0  0  0  0999 V2000
   38.6990   32.5450   39.3000 C   0  0  0  0  0  0  0  0  0  0  0  0
   38.1330   32.7400   38.3690 H   0  0  0  0  0  0  0  0  0  0  0  0
   38.4640   33.4310   39.9610 H   0  0  0  0  0  0  0  0  0  0  0  0
   38.5320   31.0860   41.2800 C   0  0  0  0  0  3  0  0  0  0  0  0
   38.1630   31.3750   40.0340 C   0  0  0  0  0  3  0  0  0  0  0  0
   37.9550   29.9170   41.9230 C   0  0  0  0  0  0  0  0  0  0  0  0
   36.9240   29.2450   41.2230 C   0  0  0  0  0  0  0  0  0  0  0  0
   36.3360   28.1070   41.8110 C   0  0  0  0  0  0  0  0  0  0  0  0
   36.8040   27.7170   43.0360 N   0  0  0  0  0  0  0  0  0  0  0  0
   37.7950   28.3910   43.6740 C   0  0  0  0  0  0  0  0  0  0  0  0
   38.3480   29.4670   43.1150 N   0  0  0  0  0  0  0  0  0  0  0  0
   36.5360   29.5260   40.2630 H   0  0  0  0  0  0  0  0  0  0  0  0
   35.5480   27.5730   41.3010 H   0  0  0  0  0  0  0  0  0  0  0  0
   38.1440   28.0560   44.6460 H   0  0  0  0  0  0  0  0  0  0  0  0
   40.0530   32.5180   39.1590 O   0  0  0  0  0  0  0  0  0  0  0  0
   40.6650   30.4400   37.7490 O   0  0  0  0  0  0  0  0  0  0  0  0
   40.5330   31.9450   37.6460 P   0  0  1  0  0  0  0  0  0  0  0  0
   39.4050   32.3420   36.4720 O   0  0  0  0  0  0  0  0  0  0  0  0
   39.7380   32.0900   35.5840 H   0  0  0  0  0  0  0  0  0  0  0  0
   42.0220   32.5620   37.1640 O   0  0  0  0  0  0  0  0  0  0  0  0
   43.0610   31.6670   36.8700 C   0  0  0  0  0  0  0  0  0  0  0  0
   42.9630   31.0230   36.0060 H   0  0  0  0  0  0  0  0  0  0  0  0
   44.0910   31.6060   37.5900 O   0  0  0  0  0  0  0  0  0  0  0  0
  1  3  1  0  0  0  0
  1  5  1  0  0  0  0
  2  1  1  0  0  0  0
  4  6  1  0  0  0  0
  5  4  2  0  0  0  0
  6 11  1  0  0  0  0
  7  8  1  0  0  0  0
  7  6  2  0  0  0  0
  8  9  2  0  0  0  0
  9 10  1  0  0  0  0
 10 14  1  0  0  0  0
 11 10  2  0  0  0  0
 12  7  1  0  0  0  0
 13  8  1  0  0  0  0
 15  1  1  0  0  0  0
 17 16  2  1  0  0  0
 17 15  1  0  0  0  0
 18 17  1  0  0  0  0
 19 18  1  0  0  0  0
 20 17  1  0  0  0  0
 21 20  1  0  0  0  0
 21 23  2  0  0  0  0
 22 21  1  0  0  0  0
M  END
>  <minimizedAffinity>
-3.85141706

$$$$

 OpenBabel03242512553D

 23 23  0  0  0  0  0  0  0  0999 V2000
   38.2930   27.3710   43.6800 C   0  0  0  0  0  0  0  0  0  0  0  0
   38.2210   27.6670   44.7430 H   0  0  0  0  0  0  0  0  0  0  0  0
   37.3950   26.7070   43.5120 H   0  0  0  0  0  0  0  0  0  0  0  0
   38.8630   29.6030   42.7990 C   0  0  0  0  0  3  0  0  0  0  0  0
   38.0830   28.5240   42.7730 C   0  0  0  0  0  3  0  0  0  0  0  0
   38.5830   30.6870   41.8730 C   0  0  0  0  0  0  0  0  0  0  0  0
   37.3430   30.6420   41.1920 C   0  0  0  0  0  0  0  0  0  0  0  0
   37.0320   31.6740   40.2830 C   0  0  0  0  0  0  0  0  0  0  0  0
   37.9580   32.6670   40.1140 N   0  0  0  0  0  0  0  0  0  0  0  0
   39.1370   32.6720   40.7880 C   0  0  0  0  0  0  0  0  0  0  0  0
   39.4280   31.6940   41.6460 N   0  0  0  0  0  0  0  0  0  0  0  0
   36.5970   29.8790   41.3020 H   0  0  0  0  0  0  0  0  0  0  0  0
   36.0930   31.6680   39.7490 H   0  0  0  0  0  0  0  0  0  0  0  0
   39.8500   33.4740   40.6320 H   0  0  0  0  0  0  0  0  0  0  0  0
   39.3880   26.6270   43.3590 O   0  0  0  0  0  0  0  0  0  0  0  0
   39.7970   25.4530   41.0930 O   0  0  0  0  0  0  0  0  0  0  0  0
   39.0070   25.3090   42.3770 P   0  0  1  0  0  0  0  0  0  0  0  0
   39.4030   23.8660   43.1330 O   0  0  0  0  0  0  0  0  0  0  0  0
   39.0910   23.1070   42.5970 H   0  0  0  0  0  0  0  0  0  0  0  0
   37.3750   25.2530   41.9750 O   0  0  0  0  0  0  0  0  0  0  0  0
   36.8810   24.1210   41.3100 C   0  0  0  0  0  0  0  0  0  0  0  0
   35.8560   24.1270   40.9650 H   0  0  0  0  0  0  0  0  0  0  0  0
   37.6080   23.1130   41.1150 O   0  0  0  0  0  0  0  0  0  0  0  0
  1  2  1  0  0  0  0
  3  1  1  0  0  0  0
  5  4  2  0  0  0  0
  5  1  1  0  0  0  0
  6  4  1  0  0  0  0
  7 12  1  0  0  0  0
  7  6  2  0  0  0  0
  8  7  1  0  0  0  0
  9  8  2  0  0  0  0
  9 10  1  0  0  0  0
 10 11  2  0  0  0  0
 11  6  1  0  0  0  0
 13  8  1  0  0  0  0
 14 10  1  0  0  0  0
 15  1  1  0  0  0  0
 17 16  2  6  0  0  0
 17 18  1  0  0  0  0
 17 15  1  0  0  0  0
 19 18  1  0  0  0  0
 20 17  1  0  0  0  0
 21 20  1  0  0  0  0
 22 21  1  0  0  0  0
 23 21  2  0  0  0  0
M  END
>  <minimizedAffinity>
-3.74525619

$$$$

 OpenBabel03242512553D

 23 23  0  0  0  0  0  0  0  0999 V2000
   36.8390   30.9820   40.8750 C   0  0  0  0  0  0  0  0  0  0  0  0
   36.5130   31.9950   41.1770 H   0  0  0  0  0  0  0  0  0  0  0  0
   36.1640   30.2850   41.4550 H   0  0  0  0  0  0  0  0  0  0  0  0
   35.8420   29.6340   39.0670 C   0  0  0  0  0  3  0  0  0  0  0  0
   36.5300   30.7060   39.4520 C   0  0  0  0  0  3  0  0  0  0  0  0
   35.5860   29.4440   37.6490 C   0  0  0  0  0  0  0  0  0  0  0  0
   36.6310   29.7880   36.7580 C   0  0  0  0  0  0  0  0  0  0  0  0
   36.4230   29.6200   35.3740 C   0  0  0  0  0  0  0  0  0  0  0  0
   35.2120   29.1270   34.9720 N   0  0  0  0  0  0  0  0  0  0  0  0
   34.2360   28.8090   35.8610 C   0  0  0  0  0  0  0  0  0  0  0  0
   34.4350   28.9710   37.1690 N   0  0  0  0  0  0  0  0  0  0  0  0
   37.5900   30.1760   37.0410 H   0  0  0  0  0  0  0  0  0  0  0  0
   37.2020   29.8730   34.6690 H   0  0  0  0  0  0  0  0  0  0  0  0
   33.2850   28.4210   35.5100 H   0  0  0  0  0  0  0  0  0  0  0  0
   38.1160   30.6570   41.2210 O   0  0  0  0  0  0  0  0  0  0  0  0
   39.5510   29.2840   42.8740 O   0  0  0  0  0  0  0  0  0  0  0  0
   38.1900   29.2930   42.2100 P   0  0  1  0  0  0  0  0  0  0  0  0
   36.9850   29.3330   43.3750 O   0  0  0  0  0  0  0  0  0  0  0  0
   36.9760   28.4930   43.8810 H   0  0  0  0  0  0  0  0  0  0  0  0
   38.0290   27.8590   41.3460 O   0  0  0  0  0  0  0  0  0  0  0  0
   37.8800   26.6560   42.0520 C   0  0  0  0  0  0  0  0  0  0  0  0
   38.6410   25.8960   41.9500 H   0  0  0  0  0  0  0  0  0  0  0  0
   36.8820   26.4570   42.7930 O   0  0  0  0  0  0  0  0  0  0  0  0
  1  2  1  0  0  0  0
  1 15  1  0  0  0  0
  1  3  1  0  0  0  0
  4  5  2  0  0  0  0
  5  1  1  0  0  0  0
  6  4  1  0  0  0  0
  7 12  1  0  0  0  0
  7  6  2  0  0  0  0
  8  7  1  0  0  0  0
  9  8  2  0  0  0  0
  9 10  1  0  0  0  0
 10 11  2  0  0  0  0
 11  6  1  0  0  0  0
 13  8  1  0  0  0  0
 14 10  1  0  0  0  0
 15 17  1  0  0  0  0
 17 16  2  1  0  0  0
 17 18  1  0  0  0  0
 18 19  1  0  0  0  0
 20 21  1  0  0  0  0
 20 17  1  0  0  0  0
 21 23  2  0  0  0  0
 22 21  1  0  0  0  0
M  END
>  <minimizedAffinity>
-3.62868643

$$$$

 OpenBabel03242512553D

 23 23  0  0  0  0  0  0  0  0999 V2000
   36.4390   28.5780   41.0200 C   0  0  0  0  0  0  0  0  0  0  0  0
   36.1390   29.5510   41.4510 H   0  0  0  0  0  0  0  0  0  0  0  0
   35.8230   27.8180   41.5860 H   0  0  0  0  0  0  0  0  0  0  0  0
   35.4000   29.4320   38.9530 C   0  0  0  0  0  3  0  0  0  0  0  0
   36.0010   28.4430   39.6110 C   0  0  0  0  0  3  0  0  0  0  0  0
   35.0040   29.2110   37.5730 C   0  0  0  0  0  0  0  0  0  0  0  0
   33.6630   28.8150   37.3480 C   0  0  0  0  0  0  0  0  0  0  0  0
   33.2370   28.5890   36.0240 C   0  0  0  0  0  0  0  0  0  0  0  0
   34.1550   28.7700   35.0250 N   0  0  0  0  0  0  0  0  0  0  0  0
   35.4320   29.1530   35.2850 C   0  0  0  0  0  0  0  0  0  0  0  0
   35.8310   29.3640   36.5380 N   0  0  0  0  0  0  0  0  0  0  0  0
   32.9210   28.6640   38.1080 H   0  0  0  0  0  0  0  0  0  0  0  0
   32.2200   28.2850   35.8200 H   0  0  0  0  0  0  0  0  0  0  0  0
   36.1360   29.2880   34.4700 H   0  0  0  0  0  0  0  0  0  0  0  0
   37.7430   28.2360   41.2120 O   0  0  0  0  0  0  0  0  0  0  0  0
   39.5460   29.2290   42.7760 O   0  0  0  0  0  0  0  0  0  0  0  0
   38.2410   28.4620   42.8090 P   0  0  1  0  0  0  0  0  0  0  0  0
   37.0930   29.3220   43.6760 O   0  0  0  0  0  0  0  0  0  0  0  0
   37.3460   29.3640   44.6230 H   0  0  0  0  0  0  0  0  0  0  0  0
   38.5170   27.0090   43.6110 O   0  0  0  0  0  0  0  0  0  0  0  0
   39.7850   26.4170   43.5190 C   0  0  0  0  0  0  0  0  0  0  0  0
   40.6390   27.0460   43.3080 H   0  0  0  0  0  0  0  0  0  0  0  0
   39.9360   25.1780   43.6780 O   0  0  0  0  0  0  0  0  0  0  0  0
  1 15  1  0  0  0  0
  1  2  1  0  0  0  0
  1  3  1  0  0  0  0
  4  5  2  0  0  0  0
  5  1  1  0  0  0  0
  6  4  1  0  0  0  0
  7  6  1  0  0  0  0
  7 12  1  0  0  0  0
  8  7  2  0  0  0  0
  9 10  2  0  0  0  0
  9  8  1  0  0  0  0
 10 11  1  0  0  0  0
 11  6  2  0  0  0  0
 13  8  1  0  0  0  0
 14 10  1  0  0  0  0
 15 17  1  0  0  0  0
 17 16  2  6  0  0  0
 17 20  1  0  0  0  0
 17 18  1  0  0  0  0
 18 19  1  0  0  0  0
 21 20  1  0  0  0  0
 21 23  2  0  0  0  0
 22 21  1  0  0  0  0
M  END
>  <minimizedAffinity>
-3.62299562

$$$$
