
 OpenBabel03252504593D

 31 32  0  0  1  0  0  0  0  0999 V2000
   38.8470   29.4330   42.6760 N   0  0  0  0  0  0  0  0  0  0  0  0
   39.5190   28.1910   42.7640 C   0  0  0  0  0  0  0  0  0  0  0  0
   38.5230   27.3350   43.4430 C   0  0  0  0  0  0  0  0  0  0  0  0
   37.2600   28.1490   43.6760 C   0  0  0  0  0  0  0  0  0  0  0  0
   37.4490   29.2960   42.6700 C   0  0  2  0  0  0  0  0  0  0  0  0
   40.4390   27.7280   42.5110 H   0  0  0  0  0  0  0  0  0  0  0  0
   38.5610   26.3020   43.7390 H   0  0  0  0  0  0  0  0  0  0  0  0
   37.2150   28.5300   44.7040 H   0  0  0  0  0  0  0  0  0  0  0  0
   36.4150   27.5270   43.3720 H   0  0  0  0  0  0  0  0  0  0  0  0
   36.9260   30.2130   42.9340 H   0  0  0  0  0  0  0  0  0  0  0  0
   39.5720   30.5980   42.6430 C   0  0  0  0  0  0  0  0  0  0  0  0
   39.2740   31.3620   43.3970 H   0  0  0  0  0  0  0  0  0  0  0  0
   40.6180   30.3550   42.9670 H   0  0  0  0  0  0  0  0  0  0  0  0
   40.1810   31.6200   39.0460 C   0  0  0  0  0  0  0  0  0  0  0  0
   40.2860   30.8560   40.2480 C   0  0  0  0  0  0  0  0  0  0  0  0
   39.5790   31.2900   41.3700 C   0  0  0  0  0  0  0  0  0  0  0  0
   38.8390   32.4130   41.2420 N   0  0  0  0  0  0  0  0  0  0  0  0
   38.7480   33.1380   40.0730 C   0  0  0  0  0  0  0  0  0  0  0  0
   39.4150   32.7410   38.9880 N   0  0  0  0  0  0  0  0  0  0  0  0
   40.7640   31.2020   38.2380 H   0  0  0  0  0  0  0  0  0  0  0  0
   40.8820   29.9750   40.3100 H   0  0  0  0  0  0  0  0  0  0  0  0
   38.1500   34.0190   40.0170 H   0  0  0  0  0  0  0  0  0  0  0  0
   37.1050   28.7710   41.4160 O   0  0  0  0  0  0  0  0  0  0  0  0
   36.8710   30.2610   39.2280 O   0  0  0  0  0  0  0  0  0  0  0  0
   36.1830   29.7850   40.4820 P   0  0  2  0  0  0  0  0  0  0  0  0
   35.8130   31.1640   41.4020 O   0  0  0  0  0  0  0  0  0  0  0  0
   36.6460   31.4610   41.8830 H   0  0  0  0  0  0  0  0  0  0  0  0
   34.6740   29.0680   40.0990 O   0  0  0  0  0  0  0  0  0  0  0  0
   34.2200   28.8530   38.8240 C   0  0  0  0  0  0  0  0  0  0  0  0
   33.4180   29.5250   38.5320 H   0  0  0  0  0  0  0  0  0  0  0  0
   34.7180   27.9570   38.1070 O   0  0  0  0  0  0  0  0  0  0  0  0
  1  2  1  0  0  0  0
  2  3  2  0  0  0  0
  3  4  1  0  0  0  0
  3  7  1  0  0  0  0
  4  8  1  0  0  0  0
  5  1  1  0  0  0  0
  5 10  1  1  0  0  0
  5  4  1  0  0  0  0
  6  2  1  0  0  0  0
  9  4  1  0  0  0  0
 11  1  1  0  0  0  0
 11 13  1  0  0  0  0
 11 12  1  0  0  0  0
 14 15  1  0  0  0  0
 15 21  1  0  0  0  0
 15 16  2  0  0  0  0
 16 11  1  0  0  0  0
 17 16  1  0  0  0  0
 18 17  2  0  0  0  0
 19 14  2  0  0  0  0
 19 18  1  0  0  0  0
 20 14  1  0  0  0  0
 22 18  1  0  0  0  0
 23  5  1  0  0  0  0
 25 24  2  6  0  0  0
 25 26  1  0  0  0  0
 25 23  1  0  0  0  0
 26 27  1  0  0  0  0
 28 25  1  0  0  0  0
 29 28  1  0  0  0  0
 30 29  1  0  0  0  0
 31 29  2  0  0  0  0
M  END
>  <minimizedAffinity>
-4.69385147

$$$$

 OpenBabel03252504593D

 31 32  0  0  1  0  0  0  0  0999 V2000
   36.5190   28.0640   39.0560 N   0  0  0  0  0  0  0  0  0  0  0  0
   37.1440   27.7500   37.8270 C   0  0  0  0  0  0  0  0  0  0  0  0
   36.4520   28.6460   36.8770 C   0  0  0  0  0  0  0  0  0  0  0  0
   35.4580   29.5000   37.6480 C   0  0  0  0  0  0  0  0  0  0  0  0
   35.9960   29.3670   39.0830 C   0  0  2  0  0  0  0  0  0  0  0  0
   37.8940   27.1220   37.4160 H   0  0  0  0  0  0  0  0  0  0  0  0
   36.5690   28.7810   35.8160 H   0  0  0  0  0  0  0  0  0  0  0  0
   34.4410   29.0950   37.5710 H   0  0  0  0  0  0  0  0  0  0  0  0
   35.5790   30.5280   37.3020 H   0  0  0  0  0  0  0  0  0  0  0  0
   35.2450   29.5130   39.8570 H   0  0  0  0  0  0  0  0  0  0  0  0
   36.4490   27.1160   40.0460 C   0  0  0  0  0  0  0  0  0  0  0  0
   35.4190   26.8660   40.3900 H   0  0  0  0  0  0  0  0  0  0  0  0
   36.7820   26.1400   39.6040 H   0  0  0  0  0  0  0  0  0  0  0  0
   37.4750   27.9860   43.5870 C   0  0  0  0  0  0  0  0  0  0  0  0
   36.6150   27.7420   42.4720 C   0  0  0  0  0  0  0  0  0  0  0  0
   37.1990   27.4150   41.2480 C   0  0  0  0  0  0  0  0  0  0  0  0
   38.5480   27.3520   41.2000 N   0  0  0  0  0  0  0  0  0  0  0  0
   39.3620   27.5900   42.2860 C   0  0  0  0  0  0  0  0  0  0  0  0
   38.8260   27.9050   43.4660 N   0  0  0  0  0  0  0  0  0  0  0  0
   36.9280   28.2310   44.4860 H   0  0  0  0  0  0  0  0  0  0  0  0
   35.5550   27.8030   42.5500 H   0  0  0  0  0  0  0  0  0  0  0  0
   40.4230   27.5290   42.2020 H   0  0  0  0  0  0  0  0  0  0  0  0
   37.0930   30.2370   39.1660 O   0  0  0  0  0  0  0  0  0  0  0  0
   38.1840   30.8330   41.5150 O   0  0  0  0  0  0  0  0  0  0  0  0
   37.1060   31.1910   40.5220 P   0  0  2  0  0  0  0  0  0  0  0  0
   35.6170   31.0050   41.3160 O   0  0  0  0  0  0  0  0  0  0  0  0
   35.3810   30.0250   41.3320 H   0  0  0  0  0  0  0  0  0  0  0  0
   37.2030   32.8510   40.1070 O   0  0  0  0  0  0  0  0  0  0  0  0
   38.3570   33.5890   40.1360 C   0  0  0  0  0  0  0  0  0  0  0  0
   38.2990   34.4550   40.7890 H   0  0  0  0  0  0  0  0  0  0  0  0
   39.3520   33.2530   39.4570 O   0  0  0  0  0  0  0  0  0  0  0  0
  1  5  1  0  0  0  0
  1 11  1  0  0  0  0
  2  1  1  0  0  0  0
  3  4  1  0  0  0  0
  3  2  2  0  0  0  0
  4  5  1  0  0  0  0
  5 23  1  0  0  0  0
  5 10  1  1  0  0  0
  6  2  1  0  0  0  0
  7  3  1  0  0  0  0
  8  4  1  0  0  0  0
  9  4  1  0  0  0  0
 11 12  1  0  0  0  0
 11 16  1  0  0  0  0
 13 11  1  0  0  0  0
 14 20  1  0  0  0  0
 15 21  1  0  0  0  0
 15 14  2  0  0  0  0
 16 15  1  0  0  0  0
 17 16  2  0  0  0  0
 17 18  1  0  0  0  0
 18 19  2  0  0  0  0
 19 14  1  0  0  0  0
 22 18  1  0  0  0  0
 23 25  1  0  0  0  0
 25 26  1  0  0  0  0
 25 24  2  1  0  0  0
 26 27  1  0  0  0  0
 28 29  1  0  0  0  0
 28 25  1  0  0  0  0
 29 30  1  0  0  0  0
 31 29  2  0  0  0  0
M  END
>  <minimizedAffinity>
-4.53087234

$$$$

 OpenBabel03252504593D

 31 32  0  0  1  0  0  0  0  0999 V2000
   36.6230   28.6240   41.8180 N   0  0  0  0  0  0  0  0  0  0  0  0
   35.8640   28.3710   40.6520 C   0  0  0  0  0  0  0  0  0  0  0  0
   35.5860   29.7340   40.1490 C   0  0  0  0  0  0  0  0  0  0  0  0
   36.2700   30.7390   41.0620 C   0  0  0  0  0  0  0  0  0  0  0  0
   37.3080   29.8490   41.7670 C   0  0  2  0  0  0  0  0  0  0  0  0
   35.4680   27.5710   40.0790 H   0  0  0  0  0  0  0  0  0  0  0  0
   35.0400   30.0730   39.2870 H   0  0  0  0  0  0  0  0  0  0  0  0
   35.5630   31.1660   41.7850 H   0  0  0  0  0  0  0  0  0  0  0  0
   36.7780   31.4620   40.4210 H   0  0  0  0  0  0  0  0  0  0  0  0
   37.6150   30.2110   42.7460 H   0  0  0  0  0  0  0  0  0  0  0  0
   36.6010   27.7230   42.8540 C   0  0  0  0  0  0  0  0  0  0  0  0
   36.5110   28.1710   43.8690 H   0  0  0  0  0  0  0  0  0  0  0  0
   35.6430   27.1440   42.7770 H   0  0  0  0  0  0  0  0  0  0  0  0
   39.9170   26.0890   43.6790 C   0  0  0  0  0  0  0  0  0  0  0  0
   38.8820   27.0730   43.6790 C   0  0  0  0  0  0  0  0  0  0  0  0
   37.7360   26.8270   42.9230 C   0  0  0  0  0  0  0  0  0  0  0  0
   37.6840   25.6640   42.2360 N   0  0  0  0  0  0  0  0  0  0  0  0
   38.6920   24.7240   42.2480 C   0  0  0  0  0  0  0  0  0  0  0  0
   39.7960   24.9400   42.9640 N   0  0  0  0  0  0  0  0  0  0  0  0
   40.7600   26.3730   44.2940 H   0  0  0  0  0  0  0  0  0  0  0  0
   38.9610   27.9790   44.2330 H   0  0  0  0  0  0  0  0  0  0  0  0
   38.6080   23.8190   41.6900 H   0  0  0  0  0  0  0  0  0  0  0  0
   38.3580   29.6820   40.8530 O   0  0  0  0  0  0  0  0  0  0  0  0
   40.8690   29.1180   41.5140 O   0  0  0  0  0  0  0  0  0  0  0  0
   39.8310   30.2060   41.4040 P   0  0  2  0  0  0  0  0  0  0  0  0
   39.6180   30.8500   42.9610 O   0  0  0  0  0  0  0  0  0  0  0  0
   39.0200   30.2310   43.4840 H   0  0  0  0  0  0  0  0  0  0  0  0
   40.4220   31.5000   40.4480 O   0  0  0  0  0  0  0  0  0  0  0  0
   40.0020   32.8000   40.5600 C   0  0  0  0  0  0  0  0  0  0  0  0
   40.6850   33.5140   40.1080 H   0  0  0  0  0  0  0  0  0  0  0  0
   38.9290   33.0810   41.1370 O   0  0  0  0  0  0  0  0  0  0  0  0
  1 11  1  0  0  0  0
  2  1  1  0  0  0  0
  3  2  2  0  0  0  0
  3  4  1  0  0  0  0
  4  5  1  0  0  0  0
  4  8  1  0  0  0  0
  5  1  1  0  0  0  0
  5 10  1  1  0  0  0
  6  2  1  0  0  0  0
  7  3  1  0  0  0  0
  9  4  1  0  0  0  0
 11 16  1  0  0  0  0
 11 12  1  0  0  0  0
 13 11  1  0  0  0  0
 14 20  1  0  0  0  0
 15 14  1  0  0  0  0
 15 21  1  0  0  0  0
 16 15  2  0  0  0  0
 17 18  2  0  0  0  0
 17 16  1  0  0  0  0
 18 19  1  0  0  0  0
 19 14  2  0  0  0  0
 22 18  1  0  0  0  0
 23 25  1  0  0  0  0
 23  5  1  0  0  0  0
 25 24  2  1  0  0  0
 25 26  1  0  0  0  0
 26 27  1  0  0  0  0
 28 29  1  0  0  0  0
 28 25  1  0  0  0  0
 29 31  2  0  0  0  0
 30 29  1  0  0  0  0
M  END
>  <minimizedAffinity>
-4.37409019

$$$$

 OpenBabel03252504593D

 31 32  0  0  1  0  0  0  0  0999 V2000
   37.0860   30.6760   39.5170 N   0  0  0  0  0  0  0  0  0  0  0  0
   37.0040   29.7190   38.4790 C   0  0  0  0  0  0  0  0  0  0  0  0
   37.3150   30.5210   37.2770 C   0  0  0  0  0  0  0  0  0  0  0  0
   37.6220   31.9460   37.7090 C   0  0  0  0  0  0  0  0  0  0  0  0
   37.9360   31.7490   39.2010 C   0  0  2  0  0  0  0  0  0  0  0  0
   36.8040   28.6890   38.3160 H   0  0  0  0  0  0  0  0  0  0  0  0
   37.3760   30.2470   36.2390 H   0  0  0  0  0  0  0  0  0  0  0  0
   36.7510   32.6000   37.5740 H   0  0  0  0  0  0  0  0  0  0  0  0
   38.5250   32.2560   37.1790 H   0  0  0  0  0  0  0  0  0  0  0  0
   37.7630   32.6300   39.8150 H   0  0  0  0  0  0  0  0  0  0  0  0
   36.3470   30.5060   40.6610 C   0  0  0  0  0  0  0  0  0  0  0  0
   36.1850   31.4300   41.2610 H   0  0  0  0  0  0  0  0  0  0  0  0
   35.3000   30.2500   40.3520 H   0  0  0  0  0  0  0  0  0  0  0  0
   36.9130   27.3820   42.7270 C   0  0  0  0  0  0  0  0  0  0  0  0
   36.2860   28.2670   41.7980 C   0  0  0  0  0  0  0  0  0  0  0  0
   36.8590   29.5220   41.5920 C   0  0  0  0  0  0  0  0  0  0  0  0
   37.9770   29.8160   42.2920 N   0  0  0  0  0  0  0  0  0  0  0  0
   38.5690   28.9490   43.1850 C   0  0  0  0  0  0  0  0  0  0  0  0
   38.0380   27.7450   43.3970 N   0  0  0  0  0  0  0  0  0  0  0  0
   36.3930   26.4380   42.8150 H   0  0  0  0  0  0  0  0  0  0  0  0
   35.4040   27.9980   41.2650 H   0  0  0  0  0  0  0  0  0  0  0  0
   39.4520   29.2240   43.7160 H   0  0  0  0  0  0  0  0  0  0  0  0
   39.2460   31.2500   39.2580 O   0  0  0  0  0  0  0  0  0  0  0  0
   41.6240   31.5060   40.4150 O   0  0  0  0  0  0  0  0  0  0  0  0
   40.2780   32.1490   40.1940 P   0  0  2  0  0  0  0  0  0  0  0  0
   39.5670   32.3530   41.7220 O   0  0  0  0  0  0  0  0  0  0  0  0
   39.1800   31.4700   42.0170 H   0  0  0  0  0  0  0  0  0  0  0  0
   40.4680   33.7300   39.5600 O   0  0  0  0  0  0  0  0  0  0  0  0
   41.4770   34.1070   38.7120 C   0  0  0  0  0  0  0  0  0  0  0  0
   42.0990   34.9030   39.1100 H   0  0  0  0  0  0  0  0  0  0  0  0
   41.6220   33.5540   37.5990 O   0  0  0  0  0  0  0  0  0  0  0  0
  1 11  1  0  0  0  0
  2  1  1  0  0  0  0
  3  4  1  0  0  0  0
  3  2  2  0  0  0  0
  4  5  1  0  0  0  0
  5 23  1  0  0  0  0
  5  1  1  0  0  0  0
  5 10  1  1  0  0  0
  6  2  1  0  0  0  0
  7  3  1  0  0  0  0
  8  4  1  0  0  0  0
  9  4  1  0  0  0  0
 11 12  1  0  0  0  0
 11 16  1  0  0  0  0
 13 11  1  0  0  0  0
 14 20  1  0  0  0  0
 14 19  1  0  0  0  0
 15 14  2  0  0  0  0
 16 15  1  0  0  0  0
 16 17  2  0  0  0  0
 17 18  1  0  0  0  0
 18 19  2  0  0  0  0
 18 22  1  0  0  0  0
 21 15  1  0  0  0  0
 23 25  1  0  0  0  0
 25 24  2  1  0  0  0
 25 26  1  0  0  0  0
 26 27  1  0  0  0  0
 28 25  1  0  0  0  0
 29 30  1  0  0  0  0
 29 28  1  0  0  0  0
 31 29  2  0  0  0  0
M  END
>  <minimizedAffinity>
-4.28516293

$$$$

 OpenBabel03252504593D

 31 32  0  0  1  0  0  0  0  0999 V2000
   37.0250   30.6830   39.6910 N   0  0  0  0  0  0  0  0  0  0  0  0
   37.2510   29.7490   38.6540 C   0  0  0  0  0  0  0  0  0  0  0  0
   37.4420   30.6200   37.4740 C   0  0  0  0  0  0  0  0  0  0  0  0
   37.3610   32.0700   37.9220 C   0  0  0  0  0  0  0  0  0  0  0  0
   37.6080   31.9340   39.4330 C   0  0  2  0  0  0  0  0  0  0  0  0
   37.3210   28.7040   38.4800 H   0  0  0  0  0  0  0  0  0  0  0  0
   37.6400   30.3840   36.4440 H   0  0  0  0  0  0  0  0  0  0  0  0
   36.3680   32.4940   37.7220 H   0  0  0  0  0  0  0  0  0  0  0  0
   38.1960   32.5980   37.4570 H   0  0  0  0  0  0  0  0  0  0  0  0
   37.1830   32.7380   40.0300 H   0  0  0  0  0  0  0  0  0  0  0  0
   36.2710   30.3220   40.7800 C   0  0  0  0  0  0  0  0  0  0  0  0
   35.9140   31.1680   41.4100 H   0  0  0  0  0  0  0  0  0  0  0  0
   35.3040   29.9010   40.3980 H   0  0  0  0  0  0  0  0  0  0  0  0
   38.6090   28.6550   43.2500 C   0  0  0  0  0  0  0  0  0  0  0  0
   38.1120   29.6460   42.3500 C   0  0  0  0  0  0  0  0  0  0  0  0
   36.9050   29.3960   41.6960 C   0  0  0  0  0  0  0  0  0  0  0  0
   36.2860   28.2240   41.9610 N   0  0  0  0  0  0  0  0  0  0  0  0
   36.7810   27.2800   42.8340 C   0  0  0  0  0  0  0  0  0  0  0  0
   37.9330   27.4980   43.4700 N   0  0  0  0  0  0  0  0  0  0  0  0
   39.5470   28.9420   43.7050 H   0  0  0  0  0  0  0  0  0  0  0  0
   38.6300   30.5570   42.1660 H   0  0  0  0  0  0  0  0  0  0  0  0
   36.2570   26.3680   43.0130 H   0  0  0  0  0  0  0  0  0  0  0  0
   38.9930   31.7690   39.5850 O   0  0  0  0  0  0  0  0  0  0  0  0
   38.8900   34.0300   40.9770 O   0  0  0  0  0  0  0  0  0  0  0  0
   39.7770   33.1000   40.1880 P   0  0  2  0  0  0  0  0  0  0  0  0
   40.3940   33.9900   38.8810 O   0  0  0  0  0  0  0  0  0  0  0  0
   39.6870   34.0420   38.1650 H   0  0  0  0  0  0  0  0  0  0  0  0
   41.1410   32.6430   41.1190 O   0  0  0  0  0  0  0  0  0  0  0  0
   42.3950   32.4360   40.6060 C   0  0  0  0  0  0  0  0  0  0  0  0
   43.1900   32.6260   41.3210 H   0  0  0  0  0  0  0  0  0  0  0  0
   42.5510   32.0650   39.4220 O   0  0  0  0  0  0  0  0  0  0  0  0
  1 11  1  0  0  0  0
  2  1  1  0  0  0  0
  3  4  1  0  0  0  0
  3  2  2  0  0  0  0
  4  5  1  0  0  0  0
  5 23  1  0  0  0  0
  5  1  1  0  0  0  0
  5 10  1  1  0  0  0
  6  2  1  0  0  0  0
  7  3  1  0  0  0  0
  8  4  1  0  0  0  0
  9  4  1  0  0  0  0
 11 12  1  0  0  0  0
 11 16  1  0  0  0  0
 13 11  1  0  0  0  0
 14 19  1  0  0  0  0
 14 20  1  0  0  0  0
 15 14  2  0  0  0  0
 16 17  2  0  0  0  0
 16 15  1  0  0  0  0
 17 18  1  0  0  0  0
 18 22  1  0  0  0  0
 18 19  2  0  0  0  0
 21 15  1  0  0  0  0
 23 25  1  0  0  0  0
 25 24  2  1  0  0  0
 25 28  1  0  0  0  0
 26 25  1  0  0  0  0
 27 26  1  0  0  0  0
 29 28  1  0  0  0  0
 29 30  1  0  0  0  0
 31 29  2  0  0  0  0
M  END
>  <minimizedAffinity>
-4.26942492

$$$$

 OpenBabel03252504593D

 31 32  0  0  1  0  0  0  0  0999 V2000
   36.8950   28.1730   38.4740 N   0  0  0  0  0  0  0  0  0  0  0  0
   36.6900   28.2410   37.0760 C   0  0  0  0  0  0  0  0  0  0  0  0
   35.2530   28.5760   36.9780 C   0  0  0  0  0  0  0  0  0  0  0  0
   34.6940   28.7370   38.3820 C   0  0  0  0  0  0  0  0  0  0  0  0
   35.9800   28.9570   39.1960 C   0  0  2  0  0  0  0  0  0  0  0  0
   37.2100   28.1360   36.1570 H   0  0  0  0  0  0  0  0  0  0  0  0
   34.6190   28.7330   36.1230 H   0  0  0  0  0  0  0  0  0  0  0  0
   34.1710   27.8290   38.7100 H   0  0  0  0  0  0  0  0  0  0  0  0
   34.0940   29.6490   38.3870 H   0  0  0  0  0  0  0  0  0  0  0  0
   35.9010   28.6700   40.2430 H   0  0  0  0  0  0  0  0  0  0  0  0
   37.8850   27.3680   38.9780 C   0  0  0  0  0  0  0  0  0  0  0  0
   38.5340   26.8810   38.2140 H   0  0  0  0  0  0  0  0  0  0  0  0
   38.6190   28.0280   39.5100 H   0  0  0  0  0  0  0  0  0  0  0  0
   36.3560   24.1940   40.3700 C   0  0  0  0  0  0  0  0  0  0  0  0
   36.7100   25.1910   39.4100 C   0  0  0  0  0  0  0  0  0  0  0  0
   37.4370   26.2990   39.8460 C   0  0  0  0  0  0  0  0  0  0  0  0
   37.7570   26.3540   41.1570 N   0  0  0  0  0  0  0  0  0  0  0  0
   37.4080   25.3820   42.0700 C   0  0  0  0  0  0  0  0  0  0  0  0
   36.7130   24.3150   41.6750 N   0  0  0  0  0  0  0  0  0  0  0  0
   35.7950   23.3790   39.9340 H   0  0  0  0  0  0  0  0  0  0  0  0
   36.4370   25.1110   38.3830 H   0  0  0  0  0  0  0  0  0  0  0  0
   37.6830   25.4670   43.0970 H   0  0  0  0  0  0  0  0  0  0  0  0
   36.3470   30.2940   38.9860 O   0  0  0  0  0  0  0  0  0  0  0  0
   38.0440   30.4560   41.0240 O   0  0  0  0  0  0  0  0  0  0  0  0
   36.8490   31.0860   40.3530 P   0  0  2  0  0  0  0  0  0  0  0  0
   35.5770   31.0620   41.4780 O   0  0  0  0  0  0  0  0  0  0  0  0
   35.1770   30.1380   41.4900 H   0  0  0  0  0  0  0  0  0  0  0  0
   37.1490   32.7430   40.0310 O   0  0  0  0  0  0  0  0  0  0  0  0
   38.3530   33.3650   40.2360 C   0  0  0  0  0  0  0  0  0  0  0  0
   38.3780   33.9700   41.1380 H   0  0  0  0  0  0  0  0  0  0  0  0
   39.2990   33.2160   39.4310 O   0  0  0  0  0  0  0  0  0  0  0  0
  1 11  1  0  0  0  0
  1  5  1  0  0  0  0
  2  1  1  0  0  0  0
  3  2  2  0  0  0  0
  3  4  1  0  0  0  0
  4  9  1  0  0  0  0
  4  8  1  0  0  0  0
  4  5  1  0  0  0  0
  5 10  1  1  0  0  0
  6  2  1  0  0  0  0
  7  3  1  0  0  0  0
 11 13  1  0  0  0  0
 11 16  1  0  0  0  0
 12 11  1  0  0  0  0
 14 19  1  0  0  0  0
 15 16  1  0  0  0  0
 15 14  2  0  0  0  0
 16 17  2  0  0  0  0
 17 18  1  0  0  0  0
 18 22  1  0  0  0  0
 19 18  2  0  0  0  0
 20 14  1  0  0  0  0
 21 15  1  0  0  0  0
 23  5  1  0  0  0  0
 23 25  1  0  0  0  0
 25 24  2  1  0  0  0
 25 26  1  0  0  0  0
 26 27  1  0  0  0  0
 28 29  1  0  0  0  0
 28 25  1  0  0  0  0
 29 30  1  0  0  0  0
 31 29  2  0  0  0  0
M  END
>  <minimizedAffinity>
-4.26650667

$$$$

 OpenBabel03252504593D

 31 32  0  0  1  0  0  0  0  0999 V2000
   37.3230   27.7850   41.4280 N   0  0  0  0  0  0  0  0  0  0  0  0
   36.5620   27.4640   42.5770 C   0  0  0  0  0  0  0  0  0  0  0  0
   37.4630   27.8600   43.6800 C   0  0  0  0  0  0  0  0  0  0  0  0
   38.7280   28.4580   43.0840 C   0  0  0  0  0  0  0  0  0  0  0  0
   38.2570   28.8080   41.6630 C   0  0  2  0  0  0  0  0  0  0  0  0
   35.6230   27.0610   42.8610 H   0  0  0  0  0  0  0  0  0  0  0  0
   37.3410   27.8110   44.7470 H   0  0  0  0  0  0  0  0  0  0  0  0
   39.5430   27.7230   43.0590 H   0  0  0  0  0  0  0  0  0  0  0  0
   38.9420   29.3740   43.6380 H   0  0  0  0  0  0  0  0  0  0  0  0
   39.0540   28.8400   40.9230 H   0  0  0  0  0  0  0  0  0  0  0  0
   37.1230   27.0880   40.2630 C   0  0  0  0  0  0  0  0  0  0  0  0
   36.1150   27.2110   39.8060 H   0  0  0  0  0  0  0  0  0  0  0  0
   37.7830   27.5450   39.4790 H   0  0  0  0  0  0  0  0  0  0  0  0
   36.7570   23.3230   40.0800 C   0  0  0  0  0  0  0  0  0  0  0  0
   36.3980   24.7010   39.9730 C   0  0  0  0  0  0  0  0  0  0  0  0
   37.3410   25.6590   40.3460 C   0  0  0  0  0  0  0  0  0  0  0  0
   38.5380   25.2140   40.7880 N   0  0  0  0  0  0  0  0  0  0  0  0
   38.8680   23.8790   40.8840 C   0  0  0  0  0  0  0  0  0  0  0  0
   37.9810   22.9460   40.5330 N   0  0  0  0  0  0  0  0  0  0  0  0
   35.9600   22.6620   39.7680 H   0  0  0  0  0  0  0  0  0  0  0  0
   35.4430   25.0130   39.6210 H   0  0  0  0  0  0  0  0  0  0  0  0
   39.8250   23.5720   41.2380 H   0  0  0  0  0  0  0  0  0  0  0  0
   37.5240   29.9980   41.7810 O   0  0  0  0  0  0  0  0  0  0  0  0
   39.1200   31.8460   40.7310 O   0  0  0  0  0  0  0  0  0  0  0  0
   37.8170   31.1000   40.5780 P   0  0  2  0  0  0  0  0  0  0  0  0
   36.5750   32.2580   40.6030 O   0  0  0  0  0  0  0  0  0  0  0  0
   36.3990   32.5180   41.5600 H   0  0  0  0  0  0  0  0  0  0  0  0
   37.7290   30.3640   39.0320 O   0  0  0  0  0  0  0  0  0  0  0  0
   37.4010   31.0260   37.8770 C   0  0  0  0  0  0  0  0  0  0  0  0
   37.1720   30.3610   37.0490 H   0  0  0  0  0  0  0  0  0  0  0  0
   37.3820   32.2760   37.8360 O   0  0  0  0  0  0  0  0  0  0  0  0
  1  5  1  0  0  0  0
  1  2  1  0  0  0  0
  2  6  1  0  0  0  0
  2  3  2  0  0  0  0
  3  7  1  0  0  0  0
  4  9  1  0  0  0  0
  4  3  1  0  0  0  0
  5 10  1  6  0  0  0
  5 23  1  0  0  0  0
  5  4  1  0  0  0  0
  8  4  1  0  0  0  0
 11 16  1  0  0  0  0
 11  1  1  0  0  0  0
 12 11  1  0  0  0  0
 13 11  1  0  0  0  0
 14 19  1  0  0  0  0
 15 14  2  0  0  0  0
 15 16  1  0  0  0  0
 16 17  2  0  0  0  0
 17 18  1  0  0  0  0
 18 22  1  0  0  0  0
 19 18  2  0  0  0  0
 20 14  1  0  0  0  0
 21 15  1  0  0  0  0
 25 26  1  0  0  0  0
 25 24  2  1  0  0  0
 25 23  1  0  0  0  0
 26 27  1  0  0  0  0
 28 25  1  0  0  0  0
 29 28  1  0  0  0  0
 30 29  1  0  0  0  0
 31 29  2  0  0  0  0
M  END
>  <minimizedAffinity>
-4.25176811

$$$$

 OpenBabel03252504593D

 31 32  0  0  1  0  0  0  0  0999 V2000
   38.4780   28.0610   41.7980 N   0  0  0  0  0  0  0  0  0  0  0  0
   38.5620   28.8830   42.9460 C   0  0  0  0  0  0  0  0  0  0  0  0
   37.3250   28.5380   43.6790 C   0  0  0  0  0  0  0  0  0  0  0  0
   36.5880   27.4550   42.9080 C   0  0  0  0  0  0  0  0  0  0  0  0
   37.7100   26.9040   42.0130 C   0  0  2  0  0  0  0  0  0  0  0  0
   39.1890   29.6080   43.4010 H   0  0  0  0  0  0  0  0  0  0  0  0
   36.9310   28.8990   44.6130 H   0  0  0  0  0  0  0  0  0  0  0  0
   35.7760   27.8790   42.3040 H   0  0  0  0  0  0  0  0  0  0  0  0
   36.2850   26.6950   43.6310 H   0  0  0  0  0  0  0  0  0  0  0  0
   37.3620   26.4420   41.0920 H   0  0  0  0  0  0  0  0  0  0  0  0
   39.0850   28.4550   40.6320 C   0  0  0  0  0  0  0  0  0  0  0  0
   40.1670   28.7050   40.7240 H   0  0  0  0  0  0  0  0  0  0  0  0
   39.1160   27.5660   39.9500 H   0  0  0  0  0  0  0  0  0  0  0  0
   36.6960   30.7950   38.8550 C   0  0  0  0  0  0  0  0  0  0  0  0
   37.1780   29.5960   39.4620 C   0  0  0  0  0  0  0  0  0  0  0  0
   38.4790   29.5900   39.9680 C   0  0  0  0  0  0  0  0  0  0  0  0
   39.1980   30.7270   39.8460 N   0  0  0  0  0  0  0  0  0  0  0  0
   38.7160   31.8760   39.2570 C   0  0  0  0  0  0  0  0  0  0  0  0
   37.4760   31.9040   38.7670 N   0  0  0  0  0  0  0  0  0  0  0  0
   35.6810   30.6990   38.4960 H   0  0  0  0  0  0  0  0  0  0  0  0
   36.5800   28.7190   39.5380 H   0  0  0  0  0  0  0  0  0  0  0  0
   39.3200   32.7520   39.1830 H   0  0  0  0  0  0  0  0  0  0  0  0
   38.4780   26.0620   42.8310 O   0  0  0  0  0  0  0  0  0  0  0  0
   37.6500   23.7860   41.7360 O   0  0  0  0  0  0  0  0  0  0  0  0
   38.8530   24.6000   42.1430 P   0  0  2  0  0  0  0  0  0  0  0  0
   39.7140   23.6820   43.2820 O   0  0  0  0  0  0  0  0  0  0  0  0
   39.2580   23.7710   44.1760 H   0  0  0  0  0  0  0  0  0  0  0  0
   39.9170   24.8000   40.8130 O   0  0  0  0  0  0  0  0  0  0  0  0
   39.5750   24.5630   39.5070 C   0  0  0  0  0  0  0  0  0  0  0  0
   39.1600   25.4320   39.0060 H   0  0  0  0  0  0  0  0  0  0  0  0
   39.7480   23.4360   38.9920 O   0  0  0  0  0  0  0  0  0  0  0  0
  1  5  1  0  0  0  0
  1  2  1  0  0  0  0
  2  6  1  0  0  0  0
  2  3  2  0  0  0  0
  3  7  1  0  0  0  0
  4  9  1  0  0  0  0
  4  3  1  0  0  0  0
  5 10  1  6  0  0  0
  5 23  1  0  0  0  0
  5  4  1  0  0  0  0
  8  4  1  0  0  0  0
 11 12  1  0  0  0  0
 11  1  1  0  0  0  0
 13 11  1  0  0  0  0
 14 15  1  0  0  0  0
 15 21  1  0  0  0  0
 15 16  2  0  0  0  0
 16 11  1  0  0  0  0
 17 16  1  0  0  0  0
 18 17  2  0  0  0  0
 19 14  2  0  0  0  0
 19 18  1  0  0  0  0
 20 14  1  0  0  0  0
 22 18  1  0  0  0  0
 25 24  2  6  0  0  0
 25 23  1  0  0  0  0
 25 26  1  0  0  0  0
 26 27  1  0  0  0  0
 28 25  1  0  0  0  0
 29 28  1  0  0  0  0
 30 29  1  0  0  0  0
 31 29  2  0  0  0  0
M  END
>  <minimizedAffinity>
-4.20294714

$$$$

 OpenBabel03252504593D

 31 32  0  0  1  0  0  0  0  0999 V2000
   39.0120   32.2520   40.1440 N   0  0  0  0  0  0  0  0  0  0  0  0
   38.8160   33.5670   40.6240 C   0  0  0  0  0  0  0  0  0  0  0  0
   37.6470   34.0230   39.8430 C   0  0  0  0  0  0  0  0  0  0  0  0
   37.1800   32.8820   38.9540 C   0  0  0  0  0  0  0  0  0  0  0  0
   37.8330   31.6740   39.6460 C   0  0  2  0  0  0  0  0  0  0  0  0
   39.2190   34.2650   41.3150 H   0  0  0  0  0  0  0  0  0  0  0  0
   37.1150   34.9580   39.8430 H   0  0  0  0  0  0  0  0  0  0  0  0
   37.5550   32.9970   37.9280 H   0  0  0  0  0  0  0  0  0  0  0  0
   36.0950   32.8210   39.0500 H   0  0  0  0  0  0  0  0  0  0  0  0
   38.0140   30.8260   38.9880 H   0  0  0  0  0  0  0  0  0  0  0  0
   40.2670   31.6970   40.1710 C   0  0  0  0  0  0  0  0  0  0  0  0
   40.7240   31.6090   41.1830 H   0  0  0  0  0  0  0  0  0  0  0  0
   40.1670   30.6200   39.8750 H   0  0  0  0  0  0  0  0  0  0  0  0
   42.1810   33.2520   37.2960 C   0  0  0  0  0  0  0  0  0  0  0  0
   41.1380   32.5510   37.9760 C   0  0  0  0  0  0  0  0  0  0  0  0
   41.2590   32.3620   39.3530 C   0  0  0  0  0  0  0  0  0  0  0  0
   42.3640   32.8580   39.9530 N   0  0  0  0  0  0  0  0  0  0  0  0
   43.3600   33.5330   39.2810 C   0  0  0  0  0  0  0  0  0  0  0  0
   43.2650   33.7250   37.9640 N   0  0  0  0  0  0  0  0  0  0  0  0
   41.9930   33.3450   36.2350 H   0  0  0  0  0  0  0  0  0  0  0  0
   40.2830   32.1740   37.4670 H   0  0  0  0  0  0  0  0  0  0  0  0
   44.2150   33.9080   39.7960 H   0  0  0  0  0  0  0  0  0  0  0  0
   37.0290   31.3840   40.7580 O   0  0  0  0  0  0  0  0  0  0  0  0
   37.3790   28.8760   39.9550 O   0  0  0  0  0  0  0  0  0  0  0  0
   36.7630   29.7660   41.0040 P   0  0  2  0  0  0  0  0  0  0  0  0
   35.0880   29.4920   40.9700 O   0  0  0  0  0  0  0  0  0  0  0  0
   34.6940   30.0050   40.1970 H   0  0  0  0  0  0  0  0  0  0  0  0
   37.2760   29.2890   42.5690 O   0  0  0  0  0  0  0  0  0  0  0  0
   38.5410   29.4820   43.0610 C   0  0  0  0  0  0  0  0  0  0  0  0
   38.5870   30.2240   43.8530 H   0  0  0  0  0  0  0  0  0  0  0  0
   39.5130   28.8390   42.6060 O   0  0  0  0  0  0  0  0  0  0  0  0
  1 11  1  0  0  0  0
  1  2  1  0  0  0  0
  2  6  1  0  0  0  0
  3  2  2  0  0  0  0
  4  9  1  0  0  0  0
  4  5  1  0  0  0  0
  4  3  1  0  0  0  0
  5 10  1  6  0  0  0
  5  1  1  0  0  0  0
  5 23  1  0  0  0  0
  7  3  1  0  0  0  0
  8  4  1  0  0  0  0
 11 12  1  0  0  0  0
 13 11  1  0  0  0  0
 14 19  2  0  0  0  0
 14 15  1  0  0  0  0
 15 16  2  0  0  0  0
 16 17  1  0  0  0  0
 16 11  1  0  0  0  0
 18 22  1  0  0  0  0
 18 17  2  0  0  0  0
 19 18  1  0  0  0  0
 20 14  1  0  0  0  0
 21 15  1  0  0  0  0
 23 25  1  0  0  0  0
 25 24  2  6  0  0  0
 25 28  1  0  0  0  0
 26 25  1  0  0  0  0
 27 26  1  0  0  0  0
 28 29  1  0  0  0  0
 29 30  1  0  0  0  0
 31 29  2  0  0  0  0
M  END
>  <minimizedAffinity>
-4.19538784

$$$$
