
 OpenBabel03252509303D

 21 21  0  0  0  0  0  0  0  0999 V2000
   46.9690   33.4450   42.9230 C   0  0  0  0  0  0  0  0  0  0  0  0
   46.5310   32.4640   42.7080 H   0  0  0  0  0  0  0  0  0  0  0  0
   46.9050   34.0260   41.9700 H   0  0  0  0  0  0  0  0  0  0  0  0
   45.0960   34.2970   46.0310 C   0  0  0  0  0  0  0  0  0  0  0  0
   45.9290   33.6020   45.1500 C   0  0  0  0  0  0  0  0  0  0  0  0
   46.1060   34.1300   43.8910 C   0  0  0  0  0  0  0  0  0  0  0  0
   45.4650   35.3070   43.5520 N   0  0  0  0  0  0  0  0  0  0  0  0
   44.6690   35.9380   44.4450 C   0  0  0  0  0  0  0  0  0  0  0  0
   44.4840   35.4380   45.6790 N   0  0  0  0  0  0  0  0  0  0  0  0
   44.9980   33.8280   47.0090 H   0  0  0  0  0  0  0  0  0  0  0  0
   46.4390   32.6740   45.4070 H   0  0  0  0  0  0  0  0  0  0  0  0
   44.1800   36.8550   44.1550 H   0  0  0  0  0  0  0  0  0  0  0  0
   48.2750   33.3510   43.4070 O   0  0  0  0  0  0  0  0  0  0  0  0
   50.0300   33.1380   41.4880 O   0  0  0  0  0  0  0  0  0  0  0  0
   49.2690   34.1490   42.2970 P   0  0  2  0  0  0  0  0  0  0  0  0
   50.2600   35.1910   43.1630 O   0  0  0  0  0  0  0  0  0  0  0  0
   51.1370   34.7700   43.3470 H   0  0  0  0  0  0  0  0  0  0  0  0
   48.2620   35.0270   41.2540 O   0  0  0  0  0  0  0  0  0  0  0  0
   48.3770   34.8210   39.8840 C   0  0  0  0  0  0  0  0  0  0  0  0
   49.1960   35.3680   39.4190 H   0  0  0  0  0  0  0  0  0  0  0  0
   47.7200   34.1290   39.0920 O   0  0  0  0  0  0  0  0  0  0  0  0
  1 13  1  0  0  0  0
  1  6  1  0  0  0  0
  2  1  1  0  0  0  0
  3  1  1  0  0  0  0
  4 10  1  0  0  0  0
  5 11  1  0  0  0  0
  5  4  2  0  0  0  0
  6  5  1  0  0  0  0
  7  6  2  0  0  0  0
  7  8  1  0  0  0  0
  8  9  2  0  0  0  0
  9  4  1  0  0  0  0
 12  8  1  0  0  0  0
 15 14  2  6  0  0  0
 15 16  1  0  0  0  0
 15 13  1  0  0  0  0
 16 17  1  0  0  0  0
 18 15  1  0  0  0  0
 19 18  1  0  0  0  0
 20 19  1  0  0  0  0
 21 19  2  0  0  0  0
M  END
>  <minimizedAffinity>
-4.282722

>  <minimizedRMSD>
0.810608447

$$$$
