
 OpenBabel03252509313D

 21 21  0  0  0  0  0  0  0  0999 V2000
   46.9900   33.4630   42.9030 C   0  0  0  0  0  0  0  0  0  0  0  0
   46.5500   32.4850   42.6770 H   0  0  0  0  0  0  0  0  0  0  0  0
   46.9340   34.0520   41.9540 H   0  0  0  0  0  0  0  0  0  0  0  0
   45.1060   34.3000   46.0080 C   0  0  0  0  0  0  0  0  0  0  0  0
   45.9440   33.6100   45.1280 C   0  0  0  0  0  0  0  0  0  0  0  0
   46.1220   34.1420   43.8700 C   0  0  0  0  0  0  0  0  0  0  0  0
   45.4780   35.3190   43.5330 N   0  0  0  0  0  0  0  0  0  0  0  0
   44.6780   35.9450   44.4260 C   0  0  0  0  0  0  0  0  0  0  0  0
   44.4910   35.4410   45.6580 N   0  0  0  0  0  0  0  0  0  0  0  0
   45.0060   33.8280   46.9850 H   0  0  0  0  0  0  0  0  0  0  0  0
   46.4550   32.6830   45.3830 H   0  0  0  0  0  0  0  0  0  0  0  0
   44.1880   36.8610   44.1370 H   0  0  0  0  0  0  0  0  0  0  0  0
   48.2920   33.3600   43.3960 O   0  0  0  0  0  0  0  0  0  0  0  0
   50.1140   33.0740   41.5500 O   0  0  0  0  0  0  0  0  0  0  0  0
   49.3040   34.1130   42.2700 P   0  0  2  0  0  0  0  0  0  0  0  0
   50.2400   35.2310   43.1000 O   0  0  0  0  0  0  0  0  0  0  0  0
   51.1200   34.8450   43.3380 H   0  0  0  0  0  0  0  0  0  0  0  0
   48.3110   34.9000   41.1420 O   0  0  0  0  0  0  0  0  0  0  0  0
   48.1210   34.3140   39.8960 C   0  0  0  0  0  0  0  0  0  0  0  0
   47.6940   33.3140   39.9340 H   0  0  0  0  0  0  0  0  0  0  0  0
   48.3490   34.7200   38.7460 O   0  0  0  0  0  0  0  0  0  0  0  0
  1 13  1  0  0  0  0
  1  6  1  0  0  0  0
  2  1  1  0  0  0  0
  3  1  1  0  0  0  0
  4 10  1  0  0  0  0
  5 11  1  0  0  0  0
  5  4  2  0  0  0  0
  6  5  1  0  0  0  0
  7  6  2  0  0  0  0
  7  8  1  0  0  0  0
  8  9  2  0  0  0  0
  9  4  1  0  0  0  0
 12  8  1  0  0  0  0
 15 14  2  6  0  0  0
 15 16  1  0  0  0  0
 15 13  1  0  0  0  0
 16 17  1  0  0  0  0
 18 15  1  0  0  0  0
 19 20  1  0  0  0  0
 19 18  1  0  0  0  0
 21 19  2  0  0  0  0
M  END
>  <minimizedAffinity>
-4.39336872

>  <minimizedRMSD>
0.679682612

$$$$
