
 OpenBabel03252506143D

 30 31  0  0  0  0  0  0  0  0999 V2000
   37.9020   27.6360   39.5370 F   0  0  0  0  0  0  0  0  0  0  0  0
   37.6320   27.6930   40.8320 C   0  0  0  0  0  0  0  0  0  0  0  0
   37.2010   26.5490   41.4790 C   0  0  0  0  0  0  0  0  0  0  0  0
   36.8940   26.5130   42.8420 C   0  0  0  0  0  0  0  0  0  0  0  0
   37.0250   27.6800   43.5970 C   0  0  0  0  0  0  0  0  0  0  0  0
   37.4580   28.8000   42.9160 C   0  0  0  0  0  0  0  0  0  0  0  0
   37.7600   28.8500   41.5910 C   0  0  0  0  0  0  0  0  0  0  0  0
   36.5570   25.5670   43.2810 H   0  0  0  0  0  0  0  0  0  0  0  0
   36.7750   27.5920   44.6320 H   0  0  0  0  0  0  0  0  0  0  0  0
   37.5210   29.6230   43.6200 H   0  0  0  0  0  0  0  0  0  0  0  0
   37.6120   23.0390   40.4920 C   0  0  0  0  0  0  0  0  0  0  0  0
   36.7750   22.9630   39.3430 C   0  0  0  0  0  0  0  0  0  0  0  0
   36.0760   24.1280   38.9210 C   0  0  0  0  0  0  0  0  0  0  0  0
   36.2620   25.2600   39.6640 N   0  0  0  0  0  0  0  0  0  0  0  0
   37.0540   25.2930   40.7350 C   0  0  0  0  0  0  0  0  0  0  0  0
   37.7190   24.1970   41.1410 N   0  0  0  0  0  0  0  0  0  0  0  0
   36.6700   22.0360   38.7970 H   0  0  0  0  0  0  0  0  0  0  0  0
   35.4390   24.0980   38.0600 H   0  0  0  0  0  0  0  0  0  0  0  0
   38.2940   21.8730   40.8910 N   0  0  0  0  0  0  0  0  0  0  0  0
   37.8110   21.0700   41.3610 H   0  0  0  0  0  0  0  0  0  0  0  0
   39.3050   21.8090   40.7140 H   0  0  0  0  0  0  0  0  0  0  0  0
   38.1810   30.0190   41.0190 O   0  0  0  0  0  0  0  0  0  0  0  0
   37.7890   32.6280   40.7250 O   0  0  0  0  0  0  0  0  0  0  0  0
   37.1900   31.2760   40.4800 P   0  0  2  0  0  0  0  0  0  0  0  0
   35.6830   31.1300   41.2870 O   0  0  0  0  0  0  0  0  0  0  0  0
   35.5030   30.1760   41.4160 H   0  0  0  0  0  0  0  0  0  0  0  0
   36.8000   31.1440   38.8370 O   0  0  0  0  0  0  0  0  0  0  0  0
   36.2550   30.0110   38.2600 C   0  0  0  0  0  0  0  0  0  0  0  0
   36.6170   29.6280   37.3040 H   0  0  0  0  0  0  0  0  0  0  0  0
   35.3390   29.5420   38.9810 O   0  0  0  0  0  0  0  0  0  0  0  0
  1  2  1  0  0  0  0
  2  3  2  0  0  0  0
  2  7  1  0  0  0  0
  3  4  1  0  0  0  0
  4  8  1  0  0  0  0
  4  5  2  0  0  0  0
  5  9  1  0  0  0  0
  6  5  1  0  0  0  0
  6 10  1  0  0  0  0
  7  6  2  0  0  0  0
 11 19  1  0  0  0  0
 11 16  1  0  0  0  0
 12 11  2  0  0  0  0
 13 12  1  0  0  0  0
 13 14  2  0  0  0  0
 14 15  1  0  0  0  0
 15 16  2  0  0  0  0
 15  3  1  0  0  0  0
 17 12  1  0  0  0  0
 18 13  1  0  0  0  0
 19 20  1  0  0  0  0
 21 19  1  0  0  0  0
 22  7  1  0  0  0  0
 24 23  2  1  0  0  0
 24 22  1  0  0  0  0
 24 25  1  0  0  0  0
 25 26  1  0  0  0  0
 27 24  1  0  0  0  0
 28 27  1  0  0  0  0
 28 30  2  0  0  0  0
 29 28  1  0  0  0  0
M  END
>  <minimizedAffinity>
-5.42179966

$$$$

 OpenBabel03252506143D

 30 31  0  0  0  0  0  0  0  0999 V2000
   38.2450   28.1910   39.7540 F   0  0  0  0  0  0  0  0  0  0  0  0
   37.8400   27.9730   40.9950 C   0  0  0  0  0  0  0  0  0  0  0  0
   37.8690   29.0160   41.9040 C   0  0  0  0  0  0  0  0  0  0  0  0
   37.4630   28.8810   43.2330 C   0  0  0  0  0  0  0  0  0  0  0  0
   37.0010   27.6400   43.6780 C   0  0  0  0  0  0  0  0  0  0  0  0
   36.9870   26.6260   42.7420 C   0  0  0  0  0  0  0  0  0  0  0  0
   37.3800   26.7410   41.4460 C   0  0  0  0  0  0  0  0  0  0  0  0
   37.5170   29.7550   43.8920 H   0  0  0  0  0  0  0  0  0  0  0  0
   36.7050   27.5970   44.7040 H   0  0  0  0  0  0  0  0  0  0  0  0
   36.6020   25.7290   43.2190 H   0  0  0  0  0  0  0  0  0  0  0  0
   37.8580   32.4230   40.5400 C   0  0  0  0  0  0  0  0  0  0  0  0
   39.2180   32.8070   40.7130 C   0  0  0  0  0  0  0  0  0  0  0  0
   40.1260   31.8820   41.3000 C   0  0  0  0  0  0  0  0  0  0  0  0
   39.6180   30.6660   41.6630 N   0  0  0  0  0  0  0  0  0  0  0  0
   38.3380   30.3420   41.4870 C   0  0  0  0  0  0  0  0  0  0  0  0
   37.4720   31.2090   40.9320 N   0  0  0  0  0  0  0  0  0  0  0  0
   39.5590   33.7840   40.4040 H   0  0  0  0  0  0  0  0  0  0  0  0
   41.1540   32.1460   41.4410 H   0  0  0  0  0  0  0  0  0  0  0  0
   36.9770   33.3540   39.9580 N   0  0  0  0  0  0  0  0  0  0  0  0
   36.6200   34.1930   40.4750 H   0  0  0  0  0  0  0  0  0  0  0  0
   36.6730   33.2030   38.9860 H   0  0  0  0  0  0  0  0  0  0  0  0
   37.3230   25.6650   40.6040 O   0  0  0  0  0  0  0  0  0  0  0  0
   38.4740   23.7300   39.1980 O   0  0  0  0  0  0  0  0  0  0  0  0
   38.4290   24.3910   40.5430 P   0  0  2  0  0  0  0  0  0  0  0  0
   37.9840   23.2600   41.7540 O   0  0  0  0  0  0  0  0  0  0  0  0
   37.6170   23.7610   42.5110 H   0  0  0  0  0  0  0  0  0  0  0  0
   39.9990   24.8640   40.9680 O   0  0  0  0  0  0  0  0  0  0  0  0
   40.3810   25.2090   42.2530 C   0  0  0  0  0  0  0  0  0  0  0  0
   40.8070   26.1890   42.4770 H   0  0  0  0  0  0  0  0  0  0  0  0
   40.1650   24.2620   43.0490 O   0  0  0  0  0  0  0  0  0  0  0  0
  1  2  1  0  0  0  0
  2  7  2  0  0  0  0
  2  3  1  0  0  0  0
  3  4  2  0  0  0  0
  4  5  1  0  0  0  0
  4  8  1  0  0  0  0
  5  9  1  0  0  0  0
  6 10  1  0  0  0  0
  6  5  2  0  0  0  0
  7  6  1  0  0  0  0
 11 12  2  0  0  0  0
 11 16  1  0  0  0  0
 12 13  1  0  0  0  0
 13 18  1  0  0  0  0
 13 14  2  0  0  0  0
 15 14  1  0  0  0  0
 15  3  1  0  0  0  0
 16 15  2  0  0  0  0
 17 12  1  0  0  0  0
 19 20  1  0  0  0  0
 19 11  1  0  0  0  0
 21 19  1  0  0  0  0
 22  7  1  0  0  0  0
 24 23  2  6  0  0  0
 24 22  1  0  0  0  0
 24 27  1  0  0  0  0
 24 25  1  0  0  0  0
 25 26  1  0  0  0  0
 27 28  1  0  0  0  0
 28 29  1  0  0  0  0
 28 30  2  0  0  0  0
M  END
>  <minimizedAffinity>
-5.32378626

$$$$

 OpenBabel03252506143D

 30 31  0  0  0  0  0  0  0  0999 V2000
   40.2240   29.9950   40.5510 F   0  0  0  0  0  0  0  0  0  0  0  0
   39.2810   30.8960   40.3280 C   0  0  0  0  0  0  0  0  0  0  0  0
   37.9940   30.6450   40.7680 C   0  0  0  0  0  0  0  0  0  0  0  0
   36.9350   31.5360   40.5790 C   0  0  0  0  0  0  0  0  0  0  0  0
   37.1740   32.7420   39.9160 C   0  0  0  0  0  0  0  0  0  0  0  0
   38.4700   32.9570   39.4930 C   0  0  0  0  0  0  0  0  0  0  0  0
   39.5100   32.0990   39.6690 C   0  0  0  0  0  0  0  0  0  0  0  0
   35.9430   31.2640   40.9570 H   0  0  0  0  0  0  0  0  0  0  0  0
   36.3260   33.3820   39.8010 H   0  0  0  0  0  0  0  0  0  0  0  0
   38.5120   33.9260   39.0050 H   0  0  0  0  0  0  0  0  0  0  0  0
   37.1570   27.1250   41.3810 C   0  0  0  0  0  0  0  0  0  0  0  0
   37.1230   27.0810   42.8040 C   0  0  0  0  0  0  0  0  0  0  0  0
   37.3900   28.2700   43.5370 C   0  0  0  0  0  0  0  0  0  0  0  0
   37.6660   29.3940   42.8090 N   0  0  0  0  0  0  0  0  0  0  0  0
   37.6900   29.3980   41.4770 C   0  0  0  0  0  0  0  0  0  0  0  0
   37.4380   28.2780   40.7750 N   0  0  0  0  0  0  0  0  0  0  0  0
   36.8980   26.1600   43.3220 H   0  0  0  0  0  0  0  0  0  0  0  0
   37.3710   28.2640   44.6080 H   0  0  0  0  0  0  0  0  0  0  0  0
   36.8900   25.9360   40.6770 N   0  0  0  0  0  0  0  0  0  0  0  0
   37.5800   25.1490   40.6160 H   0  0  0  0  0  0  0  0  0  0  0  0
   35.9820   25.8380   40.2020 H   0  0  0  0  0  0  0  0  0  0  0  0
   40.7570   32.4160   39.2060 O   0  0  0  0  0  0  0  0  0  0  0  0
   42.0830   33.5950   37.2310 O   0  0  0  0  0  0  0  0  0  0  0  0
   41.2520   32.4000   37.5910 P   0  0  2  0  0  0  0  0  0  0  0  0
   39.8410   32.3340   36.6180 O   0  0  0  0  0  0  0  0  0  0  0  0
   39.1730   31.7990   37.0930 H   0  0  0  0  0  0  0  0  0  0  0  0
   42.1090   30.9980   37.1820 O   0  0  0  0  0  0  0  0  0  0  0  0
   41.7200   29.7210   37.5430 C   0  0  0  0  0  0  0  0  0  0  0  0
   42.4330   29.0040   37.9550 H   0  0  0  0  0  0  0  0  0  0  0  0
   40.4940   29.5520   37.3270 O   0  0  0  0  0  0  0  0  0  0  0  0
  2  1  1  0  0  0  0
  2  3  1  0  0  0  0
  3 15  1  0  0  0  0
  4  3  2  0  0  0  0
  4  8  1  0  0  0  0
  5  4  1  0  0  0  0
  6  7  1  0  0  0  0
  6  5  2  0  0  0  0
  7  2  2  0  0  0  0
  9  5  1  0  0  0  0
 10  6  1  0  0  0  0
 11 12  1  0  0  0  0
 12 17  1  0  0  0  0
 12 13  2  0  0  0  0
 13 18  1  0  0  0  0
 14 13  1  0  0  0  0
 15 14  2  0  0  0  0
 16 11  2  0  0  0  0
 16 15  1  0  0  0  0
 19 11  1  0  0  0  0
 20 19  1  0  0  0  0
 21 19  1  0  0  0  0
 22  7  1  0  0  0  0
 24 23  2  6  0  0  0
 24 22  1  0  0  0  0
 25 26  1  0  0  0  0
 25 24  1  0  0  0  0
 27 28  1  0  0  0  0
 27 24  1  0  0  0  0
 28 29  1  0  0  0  0
 30 28  2  0  0  0  0
M  END
>  <minimizedAffinity>
-5.14815235

$$$$

 OpenBabel03252506143D

 30 31  0  0  0  0  0  0  0  0999 V2000
   38.2160   28.2210   39.7370 F   0  0  0  0  0  0  0  0  0  0  0  0
   37.8040   27.9920   40.9730 C   0  0  0  0  0  0  0  0  0  0  0  0
   37.7220   29.0490   41.8610 C   0  0  0  0  0  0  0  0  0  0  0  0
   37.2980   28.9040   43.1840 C   0  0  0  0  0  0  0  0  0  0  0  0
   36.9350   27.6360   43.6430 C   0  0  0  0  0  0  0  0  0  0  0  0
   37.0290   26.6070   42.7280 C   0  0  0  0  0  0  0  0  0  0  0  0
   37.4410   26.7330   41.4390 C   0  0  0  0  0  0  0  0  0  0  0  0
   37.2610   29.7910   43.8260 H   0  0  0  0  0  0  0  0  0  0  0  0
   36.6190   27.5860   44.6630 H   0  0  0  0  0  0  0  0  0  0  0  0
   36.7120   25.6900   43.2140 H   0  0  0  0  0  0  0  0  0  0  0  0
   39.6860   32.0980   41.3020 C   0  0  0  0  0  0  0  0  0  0  0  0
   38.7470   32.9240   40.6200 C   0  0  0  0  0  0  0  0  0  0  0  0
   37.4440   32.4180   40.3610 C   0  0  0  0  0  0  0  0  0  0  0  0
   37.1790   31.1480   40.7940 N   0  0  0  0  0  0  0  0  0  0  0  0
   38.0840   30.4030   41.4280 C   0  0  0  0  0  0  0  0  0  0  0  0
   39.3180   30.8740   41.6780 N   0  0  0  0  0  0  0  0  0  0  0  0
   39.0170   33.9210   40.3030 H   0  0  0  0  0  0  0  0  0  0  0  0
   36.7190   33.0180   39.8500 H   0  0  0  0  0  0  0  0  0  0  0  0
   40.9700   32.6200   41.5460 N   0  0  0  0  0  0  0  0  0  0  0  0
   41.6900   32.7260   40.7910 H   0  0  0  0  0  0  0  0  0  0  0  0
   41.2100   32.9090   42.5040 H   0  0  0  0  0  0  0  0  0  0  0  0
   37.4960   25.6410   40.6170 O   0  0  0  0  0  0  0  0  0  0  0  0
   39.0190   23.8560   39.3760 O   0  0  0  0  0  0  0  0  0  0  0  0
   38.6070   24.3740   40.7220 P   0  0  2  0  0  0  0  0  0  0  0  0
   37.8820   23.1260   41.6500 O   0  0  0  0  0  0  0  0  0  0  0  0
   37.3180   23.5470   42.3300 H   0  0  0  0  0  0  0  0  0  0  0  0
   39.9970   24.7910   41.5930 O   0  0  0  0  0  0  0  0  0  0  0  0
   40.1660   24.5460   42.9440 C   0  0  0  0  0  0  0  0  0  0  0  0
   40.2950   23.5320   43.3270 H   0  0  0  0  0  0  0  0  0  0  0  0
   40.1450   25.6190   43.5970 O   0  0  0  0  0  0  0  0  0  0  0  0
  1  2  1  0  0  0  0
  2  7  2  0  0  0  0
  2  3  1  0  0  0  0
  3  4  2  0  0  0  0
  4  5  1  0  0  0  0
  4  8  1  0  0  0  0
  5  9  1  0  0  0  0
  6 10  1  0  0  0  0
  6  5  2  0  0  0  0
  7  6  1  0  0  0  0
 11 19  1  0  0  0  0
 11 16  1  0  0  0  0
 12 11  2  0  0  0  0
 13 12  1  0  0  0  0
 13 14  2  0  0  0  0
 14 15  1  0  0  0  0
 15 16  2  0  0  0  0
 15  3  1  0  0  0  0
 17 12  1  0  0  0  0
 18 13  1  0  0  0  0
 19 21  1  0  0  0  0
 20 19  1  0  0  0  0
 22 24  1  0  0  0  0
 22  7  1  0  0  0  0
 24 23  2  6  0  0  0
 24 27  1  0  0  0  0
 24 25  1  0  0  0  0
 25 26  1  0  0  0  0
 27 28  1  0  0  0  0
 28 29  1  0  0  0  0
 28 30  2  0  0  0  0
M  END
>  <minimizedAffinity>
-5.10083961

$$$$

 OpenBabel03252506143D

 30 31  0  0  0  0  0  0  0  0999 V2000
   40.2900   30.7530   40.8230 F   0  0  0  0  0  0  0  0  0  0  0  0
   39.2470   31.5050   40.5100 C   0  0  0  0  0  0  0  0  0  0  0  0
   39.4580   32.7270   39.8980 C   0  0  0  0  0  0  0  0  0  0  0  0
   38.4200   33.5870   39.5310 C   0  0  0  0  0  0  0  0  0  0  0  0
   37.1020   33.2050   39.7890 C   0  0  0  0  0  0  0  0  0  0  0  0
   36.9310   31.9790   40.3990 C   0  0  0  0  0  0  0  0  0  0  0  0
   37.9310   31.1330   40.7630 C   0  0  0  0  0  0  0  0  0  0  0  0
   38.6700   34.5400   39.0510 H   0  0  0  0  0  0  0  0  0  0  0  0
   36.3510   33.9030   39.4870 H   0  0  0  0  0  0  0  0  0  0  0  0
   35.8670   31.8100   40.5300 H   0  0  0  0  0  0  0  0  0  0  0  0
   42.3980   33.8560   38.0140 C   0  0  0  0  0  0  0  0  0  0  0  0
   43.3650   34.0000   39.0490 C   0  0  0  0  0  0  0  0  0  0  0  0
   42.9900   33.7050   40.3890 C   0  0  0  0  0  0  0  0  0  0  0  0
   41.7020   33.2960   40.5920 N   0  0  0  0  0  0  0  0  0  0  0  0
   40.8230   33.1730   39.5980 C   0  0  0  0  0  0  0  0  0  0  0  0
   41.1690   33.4490   38.3280 N   0  0  0  0  0  0  0  0  0  0  0  0
   44.3700   34.3280   38.8240 H   0  0  0  0  0  0  0  0  0  0  0  0
   43.6980   33.8060   41.1860 H   0  0  0  0  0  0  0  0  0  0  0  0
   42.7920   34.1540   36.6960 N   0  0  0  0  0  0  0  0  0  0  0  0
   42.9310   35.1370   36.3570 H   0  0  0  0  0  0  0  0  0  0  0  0
   42.9480   33.3770   36.0410 H   0  0  0  0  0  0  0  0  0  0  0  0
   37.6460   29.9380   41.3650 O   0  0  0  0  0  0  0  0  0  0  0  0
   36.9130   28.4300   39.3070 O   0  0  0  0  0  0  0  0  0  0  0  0
   36.6380   28.7310   40.7490 P   0  0  2  0  0  0  0  0  0  0  0  0
   35.0170   29.2540   40.9560 O   0  0  0  0  0  0  0  0  0  0  0  0
   34.9720   29.7710   41.7860 H   0  0  0  0  0  0  0  0  0  0  0  0
   36.7290   27.2890   41.6320 O   0  0  0  0  0  0  0  0  0  0  0  0
   37.8060   26.9340   42.4250 C   0  0  0  0  0  0  0  0  0  0  0  0
   37.7010   26.7990   43.5030 H   0  0  0  0  0  0  0  0  0  0  0  0
   38.8460   26.8080   41.7300 O   0  0  0  0  0  0  0  0  0  0  0  0
  2  7  1  0  0  0  0
  2  1  1  0  0  0  0
  3  2  2  0  0  0  0
  4  5  2  0  0  0  0
  4  3  1  0  0  0  0
  5  6  1  0  0  0  0
  6 10  1  0  0  0  0
  6  7  2  0  0  0  0
  7 22  1  0  0  0  0
  8  4  1  0  0  0  0
  9  5  1  0  0  0  0
 11 16  2  0  0  0  0
 11 12  1  0  0  0  0
 12 13  2  0  0  0  0
 13 14  1  0  0  0  0
 13 18  1  0  0  0  0
 15  3  1  0  0  0  0
 15 14  2  0  0  0  0
 16 15  1  0  0  0  0
 17 12  1  0  0  0  0
 19 11  1  0  0  0  0
 20 19  1  0  0  0  0
 21 19  1  0  0  0  0
 24 23  2  6  0  0  0
 24 25  1  0  0  0  0
 24 22  1  0  0  0  0
 24 27  1  0  0  0  0
 25 26  1  0  0  0  0
 27 28  1  0  0  0  0
 28 29  1  0  0  0  0
 30 28  2  0  0  0  0
M  END
>  <minimizedAffinity>
-5.09330511

$$$$

 OpenBabel03252506143D

 30 31  0  0  0  0  0  0  0  0999 V2000
   39.4000   28.4090   39.6150 F   0  0  0  0  0  0  0  0  0  0  0  0
   38.1450   28.7200   39.8990 C   0  0  0  0  0  0  0  0  0  0  0  0
   37.5450   28.1490   41.0060 C   0  0  0  0  0  0  0  0  0  0  0  0
   36.2260   28.4170   41.3830 C   0  0  0  0  0  0  0  0  0  0  0  0
   35.4690   29.3030   40.6150 C   0  0  0  0  0  0  0  0  0  0  0  0
   36.1030   29.8530   39.5190 C   0  0  0  0  0  0  0  0  0  0  0  0
   37.3830   29.6010   39.1390 C   0  0  0  0  0  0  0  0  0  0  0  0
   35.8230   27.9230   42.2740 H   0  0  0  0  0  0  0  0  0  0  0  0
   34.4680   29.4690   40.9520 H   0  0  0  0  0  0  0  0  0  0  0  0
   35.4060   30.5210   39.0230 H   0  0  0  0  0  0  0  0  0  0  0  0
   38.8970   25.0170   42.3580 C   0  0  0  0  0  0  0  0  0  0  0  0
   39.7020   25.4910   43.4330 C   0  0  0  0  0  0  0  0  0  0  0  0
   39.7670   26.8900   43.6800 C   0  0  0  0  0  0  0  0  0  0  0  0
   39.0390   27.6970   42.8500 N   0  0  0  0  0  0  0  0  0  0  0  0
   38.2980   27.2170   41.8520 C   0  0  0  0  0  0  0  0  0  0  0  0
   38.2290   25.8960   41.6120 N   0  0  0  0  0  0  0  0  0  0  0  0
   40.2540   24.8010   44.0540 H   0  0  0  0  0  0  0  0  0  0  0  0
   40.3650   27.2730   44.4820 H   0  0  0  0  0  0  0  0  0  0  0  0
   38.8480   23.6280   42.1320 N   0  0  0  0  0  0  0  0  0  0  0  0
   39.6430   23.0970   41.7020 H   0  0  0  0  0  0  0  0  0  0  0  0
   37.9960   23.1160   42.3990 H   0  0  0  0  0  0  0  0  0  0  0  0
   37.9110   30.2040   38.0300 O   0  0  0  0  0  0  0  0  0  0  0  0
   38.3370   32.6440   38.9840 O   0  0  0  0  0  0  0  0  0  0  0  0
   38.8350   31.6170   38.0120 P   0  0  2  0  0  0  0  0  0  0  0  0
   38.8040   32.2360   36.4130 O   0  0  0  0  0  0  0  0  0  0  0  0
   38.7750   31.4760   35.7970 H   0  0  0  0  0  0  0  0  0  0  0  0
   40.4760   31.3300   38.3180 O   0  0  0  0  0  0  0  0  0  0  0  0
   41.4270   32.3280   38.4350 C   0  0  0  0  0  0  0  0  0  0  0  0
   42.1110   32.3670   39.2850 H   0  0  0  0  0  0  0  0  0  0  0  0
   41.3640   33.1170   37.4590 O   0  0  0  0  0  0  0  0  0  0  0  0
  1  2  1  0  0  0  0
  2  3  1  0  0  0  0
  3  4  2  0  0  0  0
  3 15  1  0  0  0  0
  4  8  1  0  0  0  0
  5  9  1  0  0  0  0
  5  4  1  0  0  0  0
  6  5  2  0  0  0  0
  7  6  1  0  0  0  0
  7  2  2  0  0  0  0
 10  6  1  0  0  0  0
 11 12  1  0  0  0  0
 12 13  2  0  0  0  0
 12 17  1  0  0  0  0
 13 18  1  0  0  0  0
 14 13  1  0  0  0  0
 15 14  2  0  0  0  0
 16 15  1  0  0  0  0
 16 11  2  0  0  0  0
 19 11  1  0  0  0  0
 19 21  1  0  0  0  0
 20 19  1  0  0  0  0
 22  7  1  0  0  0  0
 24 22  1  0  0  0  0
 24 27  1  0  0  0  0
 24 23  2  1  0  0  0
 25 24  1  0  0  0  0
 26 25  1  0  0  0  0
 27 28  1  0  0  0  0
 28 29  1  0  0  0  0
 30 28  2  0  0  0  0
M  END
>  <minimizedAffinity>
-5.01253891

$$$$

 OpenBabel03252506143D

 30 31  0  0  0  0  0  0  0  0999 V2000
   39.6280   29.3680   41.7460 F   0  0  0  0  0  0  0  0  0  0  0  0
   38.3430   29.3310   41.4300 C   0  0  0  0  0  0  0  0  0  0  0  0
   37.8230   30.3170   40.6120 C   0  0  0  0  0  0  0  0  0  0  0  0
   36.4810   30.3600   40.2250 C   0  0  0  0  0  0  0  0  0  0  0  0
   35.6140   29.3640   40.6790 C   0  0  0  0  0  0  0  0  0  0  0  0
   36.1700   28.3970   41.4920 C   0  0  0  0  0  0  0  0  0  0  0  0
   37.4730   28.3430   41.8770 C   0  0  0  0  0  0  0  0  0  0  0  0
   36.1460   31.1760   39.5750 H   0  0  0  0  0  0  0  0  0  0  0  0
   34.6000   29.4490   40.3510 H   0  0  0  0  0  0  0  0  0  0  0  0
   35.3910   27.6910   41.7610 H   0  0  0  0  0  0  0  0  0  0  0  0
   39.8400   32.3340   38.3020 C   0  0  0  0  0  0  0  0  0  0  0  0
   40.3120   33.3680   39.1600 C   0  0  0  0  0  0  0  0  0  0  0  0
   39.9270   33.3570   40.5290 C   0  0  0  0  0  0  0  0  0  0  0  0
   39.1160   32.3340   40.9330 N   0  0  0  0  0  0  0  0  0  0  0  0
   38.6930   31.3830   40.1010 C   0  0  0  0  0  0  0  0  0  0  0  0
   39.0510   31.3850   38.8050 N   0  0  0  0  0  0  0  0  0  0  0  0
   40.9520   34.1510   38.7800 H   0  0  0  0  0  0  0  0  0  0  0  0
   40.2680   34.1230   41.1950 H   0  0  0  0  0  0  0  0  0  0  0  0
   40.2320   32.3650   36.9510 N   0  0  0  0  0  0  0  0  0  0  0  0
   39.8320   33.0470   36.2620 H   0  0  0  0  0  0  0  0  0  0  0  0
   40.9400   31.6920   36.6270 H   0  0  0  0  0  0  0  0  0  0  0  0
   37.9160   27.3360   42.6890 O   0  0  0  0  0  0  0  0  0  0  0  0
   39.2980   25.1060   43.0920 O   0  0  0  0  0  0  0  0  0  0  0  0
   38.2790   25.7580   42.2070 P   0  0  2  0  0  0  0  0  0  0  0  0
   38.8440   25.8280   40.5890 O   0  0  0  0  0  0  0  0  0  0  0  0
   38.3610   26.5470   40.1330 H   0  0  0  0  0  0  0  0  0  0  0  0
   36.9100   24.7650   42.1300 O   0  0  0  0  0  0  0  0  0  0  0  0
   36.5660   24.0050   41.0260 C   0  0  0  0  0  0  0  0  0  0  0  0
   35.6170   24.1500   40.5080 H   0  0  0  0  0  0  0  0  0  0  0  0
   37.4760   23.1820   40.7530 O   0  0  0  0  0  0  0  0  0  0  0  0
  2  1  1  0  0  0  0
  2  7  1  0  0  0  0
  3  2  2  0  0  0  0
  4  3  1  0  0  0  0
  4  5  2  0  0  0  0
  5  6  1  0  0  0  0
  6 10  1  0  0  0  0
  6  7  2  0  0  0  0
  7 22  1  0  0  0  0
  8  4  1  0  0  0  0
  9  5  1  0  0  0  0
 11 16  2  0  0  0  0
 11 12  1  0  0  0  0
 12 13  2  0  0  0  0
 13 14  1  0  0  0  0
 13 18  1  0  0  0  0
 15  3  1  0  0  0  0
 15 14  2  0  0  0  0
 16 15  1  0  0  0  0
 17 12  1  0  0  0  0
 19 11  1  0  0  0  0
 20 19  1  0  0  0  0
 21 19  1  0  0  0  0
 24 22  1  0  0  0  0
 24 23  2  1  0  0  0
 25 24  1  0  0  0  0
 26 25  1  0  0  0  0
 27 24  1  0  0  0  0
 28 27  1  0  0  0  0
 29 28  1  0  0  0  0
 30 28  2  0  0  0  0
M  END
>  <minimizedAffinity>
-4.99979687

$$$$

 OpenBabel03252506143D

 30 31  0  0  0  0  0  0  0  0999 V2000
   36.6040   31.6800   38.2400 F   0  0  0  0  0  0  0  0  0  0  0  0
   36.4400   30.7510   39.1680 C   0  0  0  0  0  0  0  0  0  0  0  0
   35.9060   29.5270   38.8090 C   0  0  0  0  0  0  0  0  0  0  0  0
   35.6970   28.4880   39.7190 C   0  0  0  0  0  0  0  0  0  0  0  0
   36.0420   28.6820   41.0590 C   0  0  0  0  0  0  0  0  0  0  0  0
   36.5720   29.9150   41.3780 C   0  0  0  0  0  0  0  0  0  0  0  0
   36.7800   30.9360   40.5040 C   0  0  0  0  0  0  0  0  0  0  0  0
   35.2680   27.5470   39.3560 H   0  0  0  0  0  0  0  0  0  0  0  0
   35.8590   27.8530   41.7080 H   0  0  0  0  0  0  0  0  0  0  0  0
   36.7990   29.9230   42.4400 H   0  0  0  0  0  0  0  0  0  0  0  0
   36.1940   28.9780   35.1920 C   0  0  0  0  0  0  0  0  0  0  0  0
   34.8330   28.7880   34.8200 C   0  0  0  0  0  0  0  0  0  0  0  0
   33.8290   28.8510   35.8250 C   0  0  0  0  0  0  0  0  0  0  0  0
   34.2500   29.0960   37.1030 N   0  0  0  0  0  0  0  0  0  0  0  0
   35.5340   29.2680   37.4140 C   0  0  0  0  0  0  0  0  0  0  0  0
   36.4910   29.2100   36.4700 N   0  0  0  0  0  0  0  0  0  0  0  0
   34.5630   28.5980   33.7910 H   0  0  0  0  0  0  0  0  0  0  0  0
   32.7980   28.7120   35.5730 H   0  0  0  0  0  0  0  0  0  0  0  0
   37.1710   28.9100   34.1810 N   0  0  0  0  0  0  0  0  0  0  0  0
   37.4710   28.0040   33.7450 H   0  0  0  0  0  0  0  0  0  0  0  0
   37.6070   29.7840   33.8570 H   0  0  0  0  0  0  0  0  0  0  0  0
   37.3140   32.1200   40.9330 O   0  0  0  0  0  0  0  0  0  0  0  0
   39.7920   31.6320   41.7480 O   0  0  0  0  0  0  0  0  0  0  0  0
   38.9490   32.5410   40.9050 P   0  0  2  0  0  0  0  0  0  0  0  0
   39.0750   34.1610   41.4540 O   0  0  0  0  0  0  0  0  0  0  0  0
   38.2800   34.6440   41.1510 H   0  0  0  0  0  0  0  0  0  0  0  0
   39.5890   32.5780   39.3380 O   0  0  0  0  0  0  0  0  0  0  0  0
   40.6650   33.3620   38.9600 C   0  0  0  0  0  0  0  0  0  0  0  0
   40.8490   33.6100   37.9140 H   0  0  0  0  0  0  0  0  0  0  0  0
   41.3370   33.7070   39.9640 O   0  0  0  0  0  0  0  0  0  0  0  0
  1  2  1  0  0  0  0
  2  7  1  0  0  0  0
  3  2  2  0  0  0  0
  3  4  1  0  0  0  0
  4  5  2  0  0  0  0
  5  6  1  0  0  0  0
  5  9  1  0  0  0  0
  6 10  1  0  0  0  0
  7 22  1  0  0  0  0
  7  6  2  0  0  0  0
  8  4  1  0  0  0  0
 11 16  1  0  0  0  0
 12 11  2  0  0  0  0
 12 13  1  0  0  0  0
 13 14  2  0  0  0  0
 14 15  1  0  0  0  0
 15  3  1  0  0  0  0
 16 15  2  0  0  0  0
 17 12  1  0  0  0  0
 18 13  1  0  0  0  0
 19 11  1  0  0  0  0
 20 19  1  0  0  0  0
 21 19  1  0  0  0  0
 24 22  1  0  0  0  0
 24 25  1  0  0  0  0
 24 23  2  1  0  0  0
 26 25  1  0  0  0  0
 27 24  1  0  0  0  0
 28 27  1  0  0  0  0
 28 30  2  0  0  0  0
 29 28  1  0  0  0  0
M  END
>  <minimizedAffinity>
-4.99889708

$$$$

 OpenBabel03252506143D

 30 31  0  0  0  0  0  0  0  0999 V2000
   39.1860   28.4190   40.0430 F   0  0  0  0  0  0  0  0  0  0  0  0
   37.9070   28.7560   39.9970 C   0  0  0  0  0  0  0  0  0  0  0  0
   37.5680   30.0790   39.7750 C   0  0  0  0  0  0  0  0  0  0  0  0
   36.2470   30.5270   39.7110 C   0  0  0  0  0  0  0  0  0  0  0  0
   35.2100   29.6070   39.8760 C   0  0  0  0  0  0  0  0  0  0  0  0
   35.5880   28.2980   40.0950 C   0  0  0  0  0  0  0  0  0  0  0  0
   36.8690   27.8460   40.1610 C   0  0  0  0  0  0  0  0  0  0  0  0
   36.0600   31.5920   39.5320 H   0  0  0  0  0  0  0  0  0  0  0  0
   34.2210   30.0080   39.8170 H   0  0  0  0  0  0  0  0  0  0  0  0
   34.6890   27.6970   40.1970 H   0  0  0  0  0  0  0  0  0  0  0  0
   40.0330   32.2490   38.1380 C   0  0  0  0  0  0  0  0  0  0  0  0
   40.5730   32.9590   39.2470 C   0  0  0  0  0  0  0  0  0  0  0  0
   40.0790   32.6800   40.5510 C   0  0  0  0  0  0  0  0  0  0  0  0
   39.1010   31.7300   40.6490 N   0  0  0  0  0  0  0  0  0  0  0  0
   38.6180   31.0860   39.5870 C   0  0  0  0  0  0  0  0  0  0  0  0
   39.0790   31.3430   38.3500 N   0  0  0  0  0  0  0  0  0  0  0  0
   41.3470   33.7000   39.1050 H   0  0  0  0  0  0  0  0  0  0  0  0
   40.4690   33.1990   41.4030 H   0  0  0  0  0  0  0  0  0  0  0  0
   40.5360   32.5430   36.8560 N   0  0  0  0  0  0  0  0  0  0  0  0
   40.2940   33.4250   36.3430 H   0  0  0  0  0  0  0  0  0  0  0  0
   41.1660   31.8650   36.4070 H   0  0  0  0  0  0  0  0  0  0  0  0
   37.1280   26.5220   40.3840 O   0  0  0  0  0  0  0  0  0  0  0  0
   38.9930   25.3990   41.9030 O   0  0  0  0  0  0  0  0  0  0  0  0
   37.5570   25.8280   41.8630 P   0  0  2  0  0  0  0  0  0  0  0  0
   36.5200   24.4870   42.1250 O   0  0  0  0  0  0  0  0  0  0  0  0
   35.6450   24.7050   41.7450 H   0  0  0  0  0  0  0  0  0  0  0  0
   37.2590   26.8530   43.1780 O   0  0  0  0  0  0  0  0  0  0  0  0
   38.1810   27.7550   43.6800 C   0  0  0  0  0  0  0  0  0  0  0  0
   39.1310   27.4230   44.1020 H   0  0  0  0  0  0  0  0  0  0  0  0
   37.7560   28.9320   43.5690 O   0  0  0  0  0  0  0  0  0  0  0  0
  2  1  1  0  0  0  0
  2  7  1  0  0  0  0
  3  2  2  0  0  0  0
  4  3  1  0  0  0  0
  4  5  2  0  0  0  0
  5  6  1  0  0  0  0
  6  7  2  0  0  0  0
  6 10  1  0  0  0  0
  7 22  1  0  0  0  0
  8  4  1  0  0  0  0
  9  5  1  0  0  0  0
 11 16  2  0  0  0  0
 11 12  1  0  0  0  0
 12 13  2  0  0  0  0
 13 14  1  0  0  0  0
 13 18  1  0  0  0  0
 15  3  1  0  0  0  0
 15 14  2  0  0  0  0
 16 15  1  0  0  0  0
 17 12  1  0  0  0  0
 19 11  1  0  0  0  0
 20 19  1  0  0  0  0
 21 19  1  0  0  0  0
 22 24  1  0  0  0  0
 24 23  2  6  0  0  0
 24 25  1  0  0  0  0
 24 27  1  0  0  0  0
 26 25  1  0  0  0  0
 27 28  1  0  0  0  0
 28 29  1  0  0  0  0
 30 28  2  0  0  0  0
M  END
>  <minimizedAffinity>
-4.77847052

$$$$
