
 OpenBabel03242511523D

 28 31  0  0  1  0  0  0  0  0999 V2000
   36.0000   29.4730   39.2350 C   0  0  1  0  0  0  0  0  0  0  0  0
   35.9180   28.2240   39.9390 C   0  0  2  0  0  0  0  0  0  0  0  0
   34.8500   29.2410   40.0920 C   0  0  0  0  0  0  0  0  0  0  0  0
   35.8380   29.4250   38.1170 H   0  0  0  0  0  0  0  0  0  0  0  0
   35.5890   27.3290   39.3280 H   0  0  0  0  0  0  0  0  0  0  0  0
   34.7830   29.8860   41.0070 H   0  0  0  0  0  0  0  0  0  0  0  0
   33.8150   29.0430   39.6880 H   0  0  0  0  0  0  0  0  0  0  0  0
   38.3080   30.2320   38.9950 C   0  0  0  0  0  0  0  0  0  0  0  0
   37.0650   30.4230   39.5780 C   0  0  0  0  0  0  0  0  0  0  0  0
   36.8340   31.5100   40.4190 C   0  0  0  0  0  0  0  0  0  0  0  0
   37.9010   32.3590   40.6210 N   0  0  0  0  0  0  0  0  0  0  0  0
   39.1060   32.1700   40.0510 C   0  0  0  0  0  0  0  0  0  0  0  0
   39.3020   31.0950   39.2350 N   0  0  0  0  0  0  0  0  0  0  0  0
   38.4850   29.3910   38.3470 H   0  0  0  0  0  0  0  0  0  0  0  0
   35.8770   31.6670   40.8770 H   0  0  0  0  0  0  0  0  0  0  0  0
   39.8510   32.9130   40.2970 H   0  0  0  0  0  0  0  0  0  0  0  0
   36.6090   27.9220   41.2070 C   0  0  1  0  0  0  0  0  0  0  0  0
   36.8560   26.7170   41.3990 O   0  0  0  0  0  0  0  0  0  0  0  0
   37.7350   27.6250   42.0920 C   0  0  2  0  0  0  0  0  0  0  0  0
   37.5170   28.1660   43.5040 C   0  0  0  0  0  0  0  0  0  0  0  0
   38.6660   28.5280   42.7360 C   0  0  1  0  0  0  0  0  0  0  0  0
   35.6550   28.0870   41.8860 H   0  0  0  0  0  0  0  0  0  0  0  0
   36.7460   28.9010   43.7080 H   0  0  0  0  0  0  0  0  0  0  0  0
   37.5790   27.3520   44.2610 H   0  0  0  0  0  0  0  0  0  0  0  0
   38.6870   29.5320   42.2190 H   0  0  0  0  0  0  0  0  0  0  0  0
   39.9760   27.9610   43.1660 C   0  0  0  0  0  0  0  0  0  0  0  0
   40.8700   28.5390   42.9620 H   0  0  0  0  0  0  0  0  0  0  0  0
   39.6140   26.8900   43.6780 O   0  0  0  0  0  0  0  0  0  0  0  0
  1  4  1  6  0  0  0
  1  9  1  0  0  0  0
  1  2  1  0  0  0  0
  1  3  1  0  0  0  0
  2  5  1  6  0  0  0
  2  3  1  0  0  0  0
  2 17  1  0  0  0  0
  3  6  1  0  0  0  0
  7  3  1  0  0  0  0
  8 13  2  0  0  0  0
  8  9  1  0  0  0  0
  9 10  2  0  0  0  0
 10 11  1  0  0  0  0
 10 15  1  0  0  0  0
 12 16  1  0  0  0  0
 12 11  2  0  0  0  0
 13 12  1  0  0  0  0
 14  8  1  0  0  0  0
 17 18  1  0  0  0  0
 17 22  1  1  0  0  0
 17 19  1  0  0  0  0
 19 18  1  6  0  0  0
 19 21  1  0  0  0  0
 19 20  1  0  0  0  0
 20 23  1  0  0  0  0
 20 24  1  0  0  0  0
 21 25  1  6  0  0  0
 21 26  1  0  0  0  0
 21 20  1  0  0  0  0
 26 28  2  0  0  0  0
 27 26  1  0  0  0  0
M  END
>  <minimizedAffinity>
-4.35313988

$$$$

 OpenBabel03242511523D

 28 31  0  0  1  0  0  0  0  0999 V2000
   36.1970   27.9160   40.3830 C   0  0  1  0  0  0  0  0  0  0  0  0
   35.5930   29.1560   39.9860 C   0  0  2  0  0  0  0  0  0  0  0  0
   36.3110   28.3210   38.9940 C   0  0  0  0  0  0  0  0  0  0  0  0
   35.4850   27.0720   40.6260 H   0  0  0  0  0  0  0  0  0  0  0  0
   34.4690   29.1400   39.8430 H   0  0  0  0  0  0  0  0  0  0  0  0
   37.3420   28.5850   38.6430 H   0  0  0  0  0  0  0  0  0  0  0  0
   35.7440   27.8150   38.1590 H   0  0  0  0  0  0  0  0  0  0  0  0
   37.0580   27.8830   42.6680 C   0  0  0  0  0  0  0  0  0  0  0  0
   37.3350   27.9360   41.3100 C   0  0  0  0  0  0  0  0  0  0  0  0
   38.6510   27.9550   40.8540 C   0  0  0  0  0  0  0  0  0  0  0  0
   39.6310   27.9180   41.8230 N   0  0  0  0  0  0  0  0  0  0  0  0
   39.3570   27.8650   43.1400 C   0  0  0  0  0  0  0  0  0  0  0  0
   38.0580   27.8490   43.5560 N   0  0  0  0  0  0  0  0  0  0  0  0
   36.0410   27.8690   43.0190 H   0  0  0  0  0  0  0  0  0  0  0  0
   38.8770   27.9980   39.8060 H   0  0  0  0  0  0  0  0  0  0  0  0
   40.2220   27.8400   43.7870 H   0  0  0  0  0  0  0  0  0  0  0  0
   36.2020   30.4880   40.1630 C   0  0  1  0  0  0  0  0  0  0  0  0
   35.9420   31.0470   41.2440 O   0  0  0  0  0  0  0  0  0  0  0  0
   37.1740   31.4750   40.6310 C   0  0  2  0  0  0  0  0  0  0  0  0
   37.3230   32.6450   39.6600 C   0  0  0  0  0  0  0  0  0  0  0  0
   38.4480   31.8600   40.0600 C   0  0  1  0  0  0  0  0  0  0  0  0
   35.4640   31.0380   39.4200 H   0  0  0  0  0  0  0  0  0  0  0  0
   36.9470   32.5800   38.6450 H   0  0  0  0  0  0  0  0  0  0  0  0
   37.1060   33.6150   40.1620 H   0  0  0  0  0  0  0  0  0  0  0  0
   38.8390   31.0650   39.3590 H   0  0  0  0  0  0  0  0  0  0  0  0
   39.4360   32.5040   40.9710 C   0  0  0  0  0  0  0  0  0  0  0  0
   39.7860   33.4980   40.7180 H   0  0  0  0  0  0  0  0  0  0  0  0
   39.5750   31.6200   41.8310 O   0  0  0  0  0  0  0  0  0  0  0  0
  1  4  1  1  0  0  0
  1  9  1  0  0  0  0
  2  5  1  6  0  0  0
  2 17  1  0  0  0  0
  2  1  1  0  0  0  0
  3  2  1  0  0  0  0
  3  1  1  0  0  0  0
  6  3  1  0  0  0  0
  7  3  1  0  0  0  0
  8 14  1  0  0  0  0
  8 13  1  0  0  0  0
  9  8  2  0  0  0  0
 10  9  1  0  0  0  0
 10 11  2  0  0  0  0
 11 12  1  0  0  0  0
 12 13  2  0  0  0  0
 12 16  1  0  0  0  0
 15 10  1  0  0  0  0
 17 22  1  6  0  0  0
 17 19  1  0  0  0  0
 17 18  1  0  0  0  0
 19 18  1  1  0  0  0
 20 21  1  0  0  0  0
 20 24  1  0  0  0  0
 20 19  1  0  0  0  0
 21 25  1  6  0  0  0
 21 19  1  0  0  0  0
 21 26  1  0  0  0  0
 23 20  1  0  0  0  0
 26 28  2  0  0  0  0
 27 26  1  0  0  0  0
M  END
>  <minimizedAffinity>
-4.23852301

$$$$

 OpenBabel03242511523D

 28 31  0  0  1  0  0  0  0  0999 V2000
   35.7280   29.5110   38.5130 C   0  0  1  0  0  0  0  0  0  0  0  0
   35.7150   28.1630   39.0060 C   0  0  2  0  0  0  0  0  0  0  0  0
   34.5780   29.0730   39.2830 C   0  0  0  0  0  0  0  0  0  0  0  0
   35.5950   29.6350   37.3970 H   0  0  0  0  0  0  0  0  0  0  0  0
   35.4590   27.3590   38.2500 H   0  0  0  0  0  0  0  0  0  0  0  0
   34.4470   29.5560   40.2860 H   0  0  0  0  0  0  0  0  0  0  0  0
   33.5670   28.8790   38.8200 H   0  0  0  0  0  0  0  0  0  0  0  0
   37.8970   30.6160   38.3250 C   0  0  0  0  0  0  0  0  0  0  0  0
   36.7180   30.4590   39.0380 C   0  0  0  0  0  0  0  0  0  0  0  0
   36.4750   31.2140   40.1830 C   0  0  0  0  0  0  0  0  0  0  0  0
   37.4620   32.1070   40.5440 N   0  0  0  0  0  0  0  0  0  0  0  0
   38.6040   32.2570   39.8460 C   0  0  0  0  0  0  0  0  0  0  0  0
   38.8140   31.5020   38.7310 N   0  0  0  0  0  0  0  0  0  0  0  0
   38.0840   30.0310   37.4420 H   0  0  0  0  0  0  0  0  0  0  0  0
   35.5670   31.1000   40.7440 H   0  0  0  0  0  0  0  0  0  0  0  0
   39.2890   32.9930   40.2430 H   0  0  0  0  0  0  0  0  0  0  0  0
   36.3950   27.7040   40.2310 C   0  0  1  0  0  0  0  0  0  0  0  0
   37.4400   27.0540   40.0420 O   0  0  0  0  0  0  0  0  0  0  0  0
   37.3740   27.7220   41.3180 C   0  0  2  0  0  0  0  0  0  0  0  0
   36.8170   27.1210   42.6070 C   0  0  0  0  0  0  0  0  0  0  0  0
   37.3490   28.4470   42.5710 C   0  0  1  0  0  0  0  0  0  0  0  0
   35.6140   26.8480   40.4690 H   0  0  0  0  0  0  0  0  0  0  0  0
   35.7510   26.9660   42.7360 H   0  0  0  0  0  0  0  0  0  0  0  0
   37.4450   26.2710   42.9590 H   0  0  0  0  0  0  0  0  0  0  0  0
   36.6380   29.3230   42.5240 H   0  0  0  0  0  0  0  0  0  0  0  0
   38.6560   28.6730   43.2530 C   0  0  0  0  0  0  0  0  0  0  0  0
   39.0950   27.8420   43.7940 H   0  0  0  0  0  0  0  0  0  0  0  0
   38.8680   29.8610   42.9680 O   0  0  0  0  0  0  0  0  0  0  0  0
  1  4  1  6  0  0  0
  1  2  1  0  0  0  0
  1  9  1  0  0  0  0
  1  3  1  0  0  0  0
  2  5  1  6  0  0  0
  2  3  1  0  0  0  0
  2 17  1  0  0  0  0
  3  6  1  0  0  0  0
  7  3  1  0  0  0  0
  8 13  2  0  0  0  0
  8  9  1  0  0  0  0
  9 10  2  0  0  0  0
 10 11  1  0  0  0  0
 10 15  1  0  0  0  0
 12 16  1  0  0  0  0
 12 11  2  0  0  0  0
 13 12  1  0  0  0  0
 14  8  1  0  0  0  0
 17 22  1  1  0  0  0
 17 19  1  0  0  0  0
 18 17  1  0  0  0  0
 19 18  1  6  0  0  0
 19 21  1  0  0  0  0
 19 20  1  0  0  0  0
 20 23  1  0  0  0  0
 20 24  1  0  0  0  0
 21 25  1  1  0  0  0
 21 20  1  0  0  0  0
 21 26  1  0  0  0  0
 26 27  1  0  0  0  0
 28 26  2  0  0  0  0
M  END
>  <minimizedAffinity>
-4.20893192

$$$$

 OpenBabel03242511523D

 28 31  0  0  1  0  0  0  0  0999 V2000
   36.8280   30.4980   39.6860 C   0  0  1  0  0  0  0  0  0  0  0  0
   35.8880   29.6700   40.3860 C   0  0  2  0  0  0  0  0  0  0  0  0
   36.2040   31.0310   40.8830 C   0  0  0  0  0  0  0  0  0  0  0  0
   36.4840   30.9080   38.6890 H   0  0  0  0  0  0  0  0  0  0  0  0
   34.8520   29.5970   39.9320 H   0  0  0  0  0  0  0  0  0  0  0  0
   36.8830   31.1900   41.7610 H   0  0  0  0  0  0  0  0  0  0  0  0
   35.4200   31.8420   40.8570 H   0  0  0  0  0  0  0  0  0  0  0  0
   38.6350   29.2560   38.6120 C   0  0  0  0  0  0  0  0  0  0  0  0
   38.2400   30.1010   39.6380 C   0  0  0  0  0  0  0  0  0  0  0  0
   39.1690   30.5870   40.5560 C   0  0  0  0  0  0  0  0  0  0  0  0
   40.4740   30.1800   40.3720 N   0  0  0  0  0  0  0  0  0  0  0  0
   40.8530   29.3610   39.3730 C   0  0  0  0  0  0  0  0  0  0  0  0
   39.9200   28.9010   38.4920 N   0  0  0  0  0  0  0  0  0  0  0  0
   37.9160   28.8810   37.9050 H   0  0  0  0  0  0  0  0  0  0  0  0
   38.8750   31.2390   41.3550 H   0  0  0  0  0  0  0  0  0  0  0  0
   41.9070   29.1250   39.3490 H   0  0  0  0  0  0  0  0  0  0  0  0
   36.2470   28.6100   41.3470 C   0  0  1  0  0  0  0  0  0  0  0  0
   36.4530   27.4900   40.8440 O   0  0  0  0  0  0  0  0  0  0  0  0
   37.1220   27.7130   42.1010 C   0  0  2  0  0  0  0  0  0  0  0  0
   36.5560   27.3780   43.4800 C   0  0  0  0  0  0  0  0  0  0  0  0
   37.8550   27.9530   43.3270 C   0  0  1  0  0  0  0  0  0  0  0  0
   35.1530   28.4870   41.7790 H   0  0  0  0  0  0  0  0  0  0  0  0
   35.7500   27.9630   43.9100 H   0  0  0  0  0  0  0  0  0  0  0  0
   36.4390   26.2780   43.6110 H   0  0  0  0  0  0  0  0  0  0  0  0
   37.9920   29.0590   43.5130 H   0  0  0  0  0  0  0  0  0  0  0  0
   39.0250   27.0710   43.6040 C   0  0  0  0  0  0  0  0  0  0  0  0
   39.8270   27.4700   44.2130 H   0  0  0  0  0  0  0  0  0  0  0  0
   38.6950   26.0430   42.9920 O   0  0  0  0  0  0  0  0  0  0  0  0
  1  4  1  6  0  0  0
  1  2  1  0  0  0  0
  1  3  1  0  0  0  0
  2  5  1  6  0  0  0
  2  3  1  0  0  0  0
  2 17  1  0  0  0  0
  3  6  1  0  0  0  0
  7  3  1  0  0  0  0
  8  9  1  0  0  0  0
  9  1  1  0  0  0  0
  9 10  2  0  0  0  0
 10 15  1  0  0  0  0
 11 10  1  0  0  0  0
 12 11  2  0  0  0  0
 13  8  2  0  0  0  0
 13 12  1  0  0  0  0
 14  8  1  0  0  0  0
 16 12  1  0  0  0  0
 17 22  1  1  0  0  0
 17 19  1  0  0  0  0
 18 17  1  0  0  0  0
 19 18  1  6  0  0  0
 19 21  1  0  0  0  0
 19 20  1  0  0  0  0
 20 24  1  0  0  0  0
 20 23  1  0  0  0  0
 21 20  1  0  0  0  0
 21 25  1  1  0  0  0
 21 26  1  0  0  0  0
 26 27  1  0  0  0  0
 28 26  2  0  0  0  0
M  END
>  <minimizedAffinity>
-4.15308142

$$$$

 OpenBabel03242511523D

 28 31  0  0  1  0  0  0  0  0999 V2000
   36.9360   27.0540   42.3980 C   0  0  1  0  0  0  0  0  0  0  0  0
   38.1360   27.3740   43.1180 C   0  0  2  0  0  0  0  0  0  0  0  0
   36.8090   27.7230   43.6800 C   0  0  0  0  0  0  0  0  0  0  0  0
   36.6620   25.9570   42.3500 H   0  0  0  0  0  0  0  0  0  0  0  0
   38.6330   26.5150   43.6650 H   0  0  0  0  0  0  0  0  0  0  0  0
   36.4190   28.7740   43.6470 H   0  0  0  0  0  0  0  0  0  0  0  0
   36.4300   27.2050   44.6070 H   0  0  0  0  0  0  0  0  0  0  0  0
   37.2170   27.1770   39.9750 C   0  0  0  0  0  0  0  0  0  0  0  0
   36.6630   27.7260   41.1220 C   0  0  0  0  0  0  0  0  0  0  0  0
   35.8370   28.8460   41.0460 C   0  0  0  0  0  0  0  0  0  0  0  0
   35.6160   29.3540   39.7840 N   0  0  0  0  0  0  0  0  0  0  0  0
   36.1550   28.8160   38.6730 C   0  0  0  0  0  0  0  0  0  0  0  0
   36.9610   27.7210   38.7800 N   0  0  0  0  0  0  0  0  0  0  0  0
   37.8550   26.3130   40.0360 H   0  0  0  0  0  0  0  0  0  0  0  0
   35.4040   29.2800   41.9270 H   0  0  0  0  0  0  0  0  0  0  0  0
   35.8970   29.3160   37.7500 H   0  0  0  0  0  0  0  0  0  0  0  0
   38.9830   28.5550   42.8670 C   0  0  1  0  0  0  0  0  0  0  0  0
   40.1890   28.3100   42.6810 O   0  0  0  0  0  0  0  0  0  0  0  0
   39.7290   29.5370   42.0810 C   0  0  2  0  0  0  0  0  0  0  0  0
   39.7510   30.9120   42.7460 C   0  0  0  0  0  0  0  0  0  0  0  0
   39.2620   30.7350   41.4150 C   0  0  1  0  0  0  0  0  0  0  0  0
   38.9790   28.9250   43.9900 H   0  0  0  0  0  0  0  0  0  0  0  0
   39.0650   31.1550   43.5500 H   0  0  0  0  0  0  0  0  0  0  0  0
   40.7950   31.2590   42.9200 H   0  0  0  0  0  0  0  0  0  0  0  0
   38.1460   30.6980   41.2400 H   0  0  0  0  0  0  0  0  0  0  0  0
   40.1030   31.2680   40.3050 C   0  0  0  0  0  0  0  0  0  0  0  0
   40.0850   30.7420   39.3580 H   0  0  0  0  0  0  0  0  0  0  0  0
   40.6220   32.2520   40.8550 O   0  0  0  0  0  0  0  0  0  0  0  0
  1  4  1  1  0  0  0
  1  2  1  0  0  0  0
  1  3  1  0  0  0  0
  2  5  1  1  0  0  0
  2  3  1  0  0  0  0
  3  7  1  0  0  0  0
  6  3  1  0  0  0  0
  8 14  1  0  0  0  0
  8  9  1  0  0  0  0
  9  1  1  0  0  0  0
 10  9  2  0  0  0  0
 10 15  1  0  0  0  0
 11 10  1  0  0  0  0
 12 13  1  0  0  0  0
 12 11  2  0  0  0  0
 13  8  2  0  0  0  0
 16 12  1  0  0  0  0
 17  2  1  0  0  0  0
 17 22  1  1  0  0  0
 18 17  1  0  0  0  0
 19 18  1  6  0  0  0
 19 20  1  0  0  0  0
 19 17  1  0  0  0  0
 20 24  1  0  0  0  0
 20 23  1  0  0  0  0
 21 25  1  6  0  0  0
 21 19  1  0  0  0  0
 21 20  1  0  0  0  0
 26 28  2  0  0  0  0
 26 21  1  0  0  0  0
 27 26  1  0  0  0  0
M  END
>  <minimizedAffinity>
-4.08847809

$$$$

 OpenBabel03242511523D

 28 31  0  0  1  0  0  0  0  0999 V2000
   36.5910   28.0080   42.2590 C   0  0  1  0  0  0  0  0  0  0  0  0
   36.9440   26.6210   42.3680 C   0  0  2  0  0  0  0  0  0  0  0  0
   36.4940   27.3750   43.5620 C   0  0  0  0  0  0  0  0  0  0  0  0
   35.6280   28.2350   41.7130 H   0  0  0  0  0  0  0  0  0  0  0  0
   36.1710   25.8800   41.9980 H   0  0  0  0  0  0  0  0  0  0  0  0
   37.2210   27.7330   44.3360 H   0  0  0  0  0  0  0  0  0  0  0  0
   35.5070   27.1290   44.0510 H   0  0  0  0  0  0  0  0  0  0  0  0
   38.3550   29.5340   42.9830 C   0  0  0  0  0  0  0  0  0  0  0  0
   37.6320   28.9910   41.9320 C   0  0  0  0  0  0  0  0  0  0  0  0
   37.9250   29.3360   40.6140 C   0  0  0  0  0  0  0  0  0  0  0  0
   38.9590   30.2300   40.4360 N   0  0  0  0  0  0  0  0  0  0  0  0
   39.6600   30.7530   41.4590 C   0  0  0  0  0  0  0  0  0  0  0  0
   39.3480   30.3970   42.7380 N   0  0  0  0  0  0  0  0  0  0  0  0
   38.1270   29.2670   43.9990 H   0  0  0  0  0  0  0  0  0  0  0  0
   37.3710   28.9230   39.7930 H   0  0  0  0  0  0  0  0  0  0  0  0
   40.4430   31.4410   41.1740 H   0  0  0  0  0  0  0  0  0  0  0  0
   38.3200   26.1060   42.4990 C   0  0  1  0  0  0  0  0  0  0  0  0
   38.8430   25.7210   41.4370 O   0  0  0  0  0  0  0  0  0  0  0  0
   39.7820   26.1360   42.4490 C   0  0  2  0  0  0  0  0  0  0  0  0
   40.4130   25.2240   43.5000 C   0  0  0  0  0  0  0  0  0  0  0  0
   40.7300   26.6160   43.4330 C   0  0  1  0  0  0  0  0  0  0  0  0
   38.0010   25.0830   42.9990 H   0  0  0  0  0  0  0  0  0  0  0  0
   39.8300   24.8380   44.3290 H   0  0  0  0  0  0  0  0  0  0  0  0
   41.0850   24.4710   43.0280 H   0  0  0  0  0  0  0  0  0  0  0  0
   40.2390   27.3260   44.1620 H   0  0  0  0  0  0  0  0  0  0  0  0
   42.0910   26.9800   42.9450 C   0  0  0  0  0  0  0  0  0  0  0  0
   42.9320   26.4050   43.3130 H   0  0  0  0  0  0  0  0  0  0  0  0
   41.8240   27.9280   42.1890 O   0  0  0  0  0  0  0  0  0  0  0  0
  1  4  1  6  0  0  0
  1  2  1  0  0  0  0
  1  3  1  0  0  0  0
  2  5  1  6  0  0  0
  2 17  1  0  0  0  0
  2  3  1  0  0  0  0
  3  7  1  0  0  0  0
  3  6  1  0  0  0  0
  8 14  1  0  0  0  0
  9  1  1  0  0  0  0
  9  8  2  0  0  0  0
 10  9  1  0  0  0  0
 11 10  2  0  0  0  0
 11 12  1  0  0  0  0
 12 13  2  0  0  0  0
 13  8  1  0  0  0  0
 15 10  1  0  0  0  0
 16 12  1  0  0  0  0
 17 22  1  1  0  0  0
 18 17  1  0  0  0  0
 19 18  1  6  0  0  0
 19 17  1  0  0  0  0
 19 21  1  0  0  0  0
 19 20  1  0  0  0  0
 20 23  1  0  0  0  0
 21 20  1  0  0  0  0
 21 25  1  1  0  0  0
 24 20  1  0  0  0  0
 26 27  1  0  0  0  0
 26 21  1  0  0  0  0
 28 26  2  0  0  0  0
M  END
>  <minimizedAffinity>
-4.08399773

$$$$

 OpenBabel03242511523D

 28 31  0  0  1  0  0  0  0  0999 V2000
   38.0170   29.7360   42.4100 C   0  0  1  0  0  0  0  0  0  0  0  0
   38.0120   28.6190   43.3120 C   0  0  2  0  0  0  0  0  0  0  0  0
   39.2850   29.1020   42.7240 C   0  0  0  0  0  0  0  0  0  0  0  0
   37.8090   30.7480   42.8700 H   0  0  0  0  0  0  0  0  0  0  0  0
   37.9150   28.8690   44.4130 H   0  0  0  0  0  0  0  0  0  0  0  0
   39.7820   28.5570   41.8800 H   0  0  0  0  0  0  0  0  0  0  0  0
   40.0660   29.5850   43.3780 H   0  0  0  0  0  0  0  0  0  0  0  0
   38.1510   29.1880   40.0340 C   0  0  0  0  0  0  0  0  0  0  0  0
   37.3680   29.6040   41.1000 C   0  0  0  0  0  0  0  0  0  0  0  0
   36.0040   29.8370   40.9310 C   0  0  0  0  0  0  0  0  0  0  0  0
   35.5040   29.6270   39.6640 N   0  0  0  0  0  0  0  0  0  0  0  0
   36.2690   29.2220   38.6330 C   0  0  0  0  0  0  0  0  0  0  0  0
   37.6000   29.0040   38.8280 N   0  0  0  0  0  0  0  0  0  0  0  0
   39.2040   29.0090   40.1660 H   0  0  0  0  0  0  0  0  0  0  0  0
   35.3890   30.1600   41.7480 H   0  0  0  0  0  0  0  0  0  0  0  0
   35.7450   29.0970   37.6950 H   0  0  0  0  0  0  0  0  0  0  0  0
   37.6960   27.2290   42.9350 C   0  0  1  0  0  0  0  0  0  0  0  0
   36.5690   26.8310   43.2860 O   0  0  0  0  0  0  0  0  0  0  0  0
   37.1170   26.1450   42.1420 C   0  0  2  0  0  0  0  0  0  0  0  0
   37.9670   24.8760   42.1910 C   0  0  0  0  0  0  0  0  0  0  0  0
   37.6270   25.4990   40.9510 C   0  0  1  0  0  0  0  0  0  0  0  0
   38.3940   26.7380   43.7540 H   0  0  0  0  0  0  0  0  0  0  0  0
   38.9900   24.9030   42.5500 H   0  0  0  0  0  0  0  0  0  0  0  0
   37.3760   24.0100   42.5670 H   0  0  0  0  0  0  0  0  0  0  0  0
   38.3950   26.1440   40.4310 H   0  0  0  0  0  0  0  0  0  0  0  0
   36.6400   24.7920   40.0850 C   0  0  0  0  0  0  0  0  0  0  0  0
   36.5440   25.1180   39.0550 H   0  0  0  0  0  0  0  0  0  0  0  0
   36.1780   23.9610   40.8820 O   0  0  0  0  0  0  0  0  0  0  0  0
  1  3  1  0  0  0  0
  1  4  1  1  0  0  0
  1  2  1  0  0  0  0
  2  5  1  1  0  0  0
  3  2  1  0  0  0  0
  3  7  1  0  0  0  0
  6  3  1  0  0  0  0
  8 14  1  0  0  0  0
  8  9  1  0  0  0  0
  9  1  1  0  0  0  0
 10  9  2  0  0  0  0
 10 15  1  0  0  0  0
 11 10  1  0  0  0  0
 12 13  1  0  0  0  0
 12 11  2  0  0  0  0
 13  8  2  0  0  0  0
 16 12  1  0  0  0  0
 17 18  1  0  0  0  0
 17  2  1  0  0  0  0
 17 22  1  1  0  0  0
 19 20  1  0  0  0  0
 19 17  1  0  0  0  0
 19 18  1  1  0  0  0
 20 23  1  0  0  0  0
 20 24  1  0  0  0  0
 21 25  1  6  0  0  0
 21 19  1  0  0  0  0
 21 20  1  0  0  0  0
 26 28  2  0  0  0  0
 26 21  1  0  0  0  0
 27 26  1  0  0  0  0
M  END
>  <minimizedAffinity>
-4.0481534

$$$$

 OpenBabel03242511523D

 28 31  0  0  1  0  0  0  0  0999 V2000
   38.4540   27.3830   42.9830 C   0  0  1  0  0  0  0  0  0  0  0  0
   38.2970   28.7930   43.2070 C   0  0  2  0  0  0  0  0  0  0  0  0
   37.2520   27.8420   43.6560 C   0  0  0  0  0  0  0  0  0  0  0  0
   39.2400   26.8640   43.6090 H   0  0  0  0  0  0  0  0  0  0  0  0
   38.8930   29.2300   44.0660 H   0  0  0  0  0  0  0  0  0  0  0  0
   36.2940   27.7150   43.0880 H   0  0  0  0  0  0  0  0  0  0  0  0
   37.0670   27.6800   44.7570 H   0  0  0  0  0  0  0  0  0  0  0  0
   39.6410   26.8940   40.9050 C   0  0  0  0  0  0  0  0  0  0  0  0
   38.4450   26.8690   41.6080 C   0  0  0  0  0  0  0  0  0  0  0  0
   37.2960   26.3280   41.0360 C   0  0  0  0  0  0  0  0  0  0  0  0
   37.4300   25.8300   39.7570 N   0  0  0  0  0  0  0  0  0  0  0  0
   38.5940   25.8550   39.0800 C   0  0  0  0  0  0  0  0  0  0  0  0
   39.7010   26.3930   39.6660 N   0  0  0  0  0  0  0  0  0  0  0  0
   40.5270   27.3130   41.3480 H   0  0  0  0  0  0  0  0  0  0  0  0
   36.3650   26.3050   41.5690 H   0  0  0  0  0  0  0  0  0  0  0  0
   38.5550   25.4300   38.0860 H   0  0  0  0  0  0  0  0  0  0  0  0
   37.8040   29.7580   42.2060 C   0  0  1  0  0  0  0  0  0  0  0  0
   38.6740   30.5030   41.7190 O   0  0  0  0  0  0  0  0  0  0  0  0
   37.5230   30.2970   40.8760 C   0  0  2  0  0  0  0  0  0  0  0  0
   36.2680   31.1680   40.8600 C   0  0  0  0  0  0  0  0  0  0  0  0
   36.4040   30.0400   39.9940 C   0  0  1  0  0  0  0  0  0  0  0  0
   37.2880   30.4700   42.9970 H   0  0  0  0  0  0  0  0  0  0  0  0
   35.5590   31.1420   41.6800 H   0  0  0  0  0  0  0  0  0  0  0  0
   36.4940   32.1930   40.4890 H   0  0  0  0  0  0  0  0  0  0  0  0
   35.8820   29.0740   40.2630 H   0  0  0  0  0  0  0  0  0  0  0  0
   36.6040   30.3180   38.5430 C   0  0  0  0  0  0  0  0  0  0  0  0
   36.4440   29.5050   37.8440 H   0  0  0  0  0  0  0  0  0  0  0  0
   36.9260   31.5160   38.5740 O   0  0  0  0  0  0  0  0  0  0  0  0
  1  2  1  0  0  0  0
  1  4  1  1  0  0  0
  1  3  1  0  0  0  0
  2  3  1  0  0  0  0
  2  5  1  1  0  0  0
  3  7  1  0  0  0  0
  6  3  1  0  0  0  0
  8 14  1  0  0  0  0
  8  9  1  0  0  0  0
  9  1  1  0  0  0  0
 10 15  1  0  0  0  0
 10  9  2  0  0  0  0
 11 10  1  0  0  0  0
 12 13  1  0  0  0  0
 12 11  2  0  0  0  0
 13  8  2  0  0  0  0
 16 12  1  0  0  0  0
 17 22  1  1  0  0  0
 17  2  1  0  0  0  0
 18 17  1  0  0  0  0
 19 18  1  6  0  0  0
 19 17  1  0  0  0  0
 20 19  1  0  0  0  0
 20 23  1  0  0  0  0
 21 25  1  1  0  0  0
 21 20  1  0  0  0  0
 21 19  1  0  0  0  0
 24 20  1  0  0  0  0
 26 28  2  0  0  0  0
 26 21  1  0  0  0  0
 27 26  1  0  0  0  0
M  END
>  <minimizedAffinity>
-4.03424692

$$$$

 OpenBabel03242511523D

 28 31  0  0  1  0  0  0  0  0999 V2000
   40.0540   25.9500   43.6680 C   0  0  1  0  0  0  0  0  0  0  0  0
   39.5940   24.6910   43.1540 C   0  0  2  0  0  0  0  0  0  0  0  0
   40.9660   25.1660   42.8550 C   0  0  0  0  0  0  0  0  0  0  0  0
   40.2480   25.9920   44.7810 H   0  0  0  0  0  0  0  0  0  0  0  0
   39.5780   23.8290   43.8900 H   0  0  0  0  0  0  0  0  0  0  0  0
   41.2290   25.6000   41.8560 H   0  0  0  0  0  0  0  0  0  0  0  0
   41.8600   24.6270   43.2830 H   0  0  0  0  0  0  0  0  0  0  0  0
   38.1760   27.5110   43.6800 C   0  0  0  0  0  0  0  0  0  0  0  0
   39.4330   27.1910   43.1890 C   0  0  0  0  0  0  0  0  0  0  0  0
   40.0930   28.0490   42.3120 C   0  0  0  0  0  0  0  0  0  0  0  0
   39.4250   29.2080   41.9780 N   0  0  0  0  0  0  0  0  0  0  0  0
   38.2060   29.5160   42.4590 C   0  0  0  0  0  0  0  0  0  0  0  0
   37.5850   28.6550   43.3140 N   0  0  0  0  0  0  0  0  0  0  0  0
   37.6670   26.8470   44.3560 H   0  0  0  0  0  0  0  0  0  0  0  0
   41.0650   27.8110   41.9240 H   0  0  0  0  0  0  0  0  0  0  0  0
   37.8010   30.4570   42.1140 H   0  0  0  0  0  0  0  0  0  0  0  0
   38.7680   24.5220   41.9440 C   0  0  1  0  0  0  0  0  0  0  0  0
   37.6360   24.0410   42.1400 O   0  0  0  0  0  0  0  0  0  0  0  0
   37.7430   24.8520   40.9530 C   0  0  2  0  0  0  0  0  0  0  0  0
   38.1030   24.3410   39.5590 C   0  0  0  0  0  0  0  0  0  0  0  0
   37.8220   25.7210   39.7980 C   0  0  1  0  0  0  0  0  0  0  0  0
   39.3650   23.5840   41.5410 H   0  0  0  0  0  0  0  0  0  0  0  0
   39.1130   24.0240   39.3240 H   0  0  0  0  0  0  0  0  0  0  0  0
   37.3110   23.6660   39.1610 H   0  0  0  0  0  0  0  0  0  0  0  0
   38.6820   26.4490   39.8910 H   0  0  0  0  0  0  0  0  0  0  0  0
   36.5390   26.2570   39.2600 C   0  0  0  0  0  0  0  0  0  0  0  0
   36.2690   27.2760   39.5130 H   0  0  0  0  0  0  0  0  0  0  0  0
   36.1240   25.2770   38.6220 O   0  0  0  0  0  0  0  0  0  0  0  0
  1  4  1  1  0  0  0
  2  1  1  0  0  0  0
  2  5  1  1  0  0  0
  3  2  1  0  0  0  0
  3  7  1  0  0  0  0
  3  1  1  0  0  0  0
  6  3  1  0  0  0  0
  8 14  1  0  0  0  0
  9  1  1  0  0  0  0
  9  8  2  0  0  0  0
 10  9  1  0  0  0  0
 11 10  2  0  0  0  0
 11 12  1  0  0  0  0
 12 13  2  0  0  0  0
 13  8  1  0  0  0  0
 15 10  1  0  0  0  0
 16 12  1  0  0  0  0
 17 22  1  6  0  0  0
 17 18  1  0  0  0  0
 17  2  1  0  0  0  0
 19 17  1  0  0  0  0
 19 18  1  1  0  0  0
 20 21  1  0  0  0  0
 20 19  1  0  0  0  0
 21 25  1  6  0  0  0
 21 19  1  0  0  0  0
 23 20  1  0  0  0  0
 24 20  1  0  0  0  0
 26 27  1  0  0  0  0
 26 21  1  0  0  0  0
 28 26  2  0  0  0  0
M  END
>  <minimizedAffinity>
-4.02942514

$$$$
