
 OpenBabel03252501053D

 34 36  0  0  1  0  0  0  0  0999 V2000
   47.7440   34.1660   39.8050 O   0  0  0  0  0  0  0  0  0  0  0  0
   48.1010   35.4640   41.8140 C   0  0  1  0  0  0  0  0  0  0  0  0
   49.3270   34.6660   41.6750 C   0  0  0  0  0  0  0  0  0  0  0  0
   48.4850   35.0790   40.4560 C   0  0  1  0  0  0  0  0  0  0  0  0
   48.2070   36.5140   42.1660 H   0  0  0  0  0  0  0  0  0  0  0  0
   49.3100   33.5460   41.8040 H   0  0  0  0  0  0  0  0  0  0  0  0
   50.3320   35.0660   41.8080 H   0  0  0  0  0  0  0  0  0  0  0  0
   49.0760   35.7580   39.8100 H   0  0  0  0  0  0  0  0  0  0  0  0
   46.0560   32.9400   43.7650 C   0  0  0  0  0  0  0  0  0  0  0  0
   47.1520   33.6140   43.2370 C   0  0  0  0  0  0  0  0  0  0  0  0
   46.9310   34.7310   42.4070 C   0  0  0  0  0  0  0  0  0  0  0  0
   45.6570   35.1230   42.1420 N   0  0  0  0  0  0  0  0  0  0  0  0
   44.6030   34.4440   42.6720 C   0  0  0  0  0  0  0  0  0  0  0  0
   44.8030   33.3570   43.4800 N   0  0  0  0  0  0  0  0  0  0  0  0
   46.2210   32.0910   44.3960 H   0  0  0  0  0  0  0  0  0  0  0  0
   48.1420   33.2720   43.4710 H   0  0  0  0  0  0  0  0  0  0  0  0
   43.5980   34.7730   42.4480 H   0  0  0  0  0  0  0  0  0  0  0  0
   48.5100   32.4010   38.0110 O   0  0  0  0  0  0  0  0  0  0  0  0
   48.0880   33.8520   38.2360 P   0  0  2  0  0  0  0  0  0  0  0  0
   49.3350   34.7880   37.5780 O   0  0  0  0  0  0  0  0  0  0  0  0
   49.1200   35.2070   36.7240 H   0  0  0  0  0  0  0  0  0  0  0  0
   46.7320   34.0550   37.2670 O   0  0  0  0  0  0  0  0  0  0  0  0
   45.7840   33.0790   37.0320 C   0  0  0  0  0  0  0  0  0  0  0  0
   45.6690   32.2310   35.9540 C   0  0  0  0  0  0  0  0  0  0  0  0
   44.6740   31.3130   35.8590 C   0  0  0  0  0  0  0  0  0  0  0  0
   43.7380   31.2090   36.8650 C   0  0  0  0  0  0  0  0  0  0  0  0
   43.8730   32.0770   37.9470 C   0  0  0  0  0  0  0  0  0  0  0  0
   44.8840   32.9860   38.0070 N   0  0  0  0  0  0  0  0  0  0  0  0
   46.4460   32.3680   35.1930 H   0  0  0  0  0  0  0  0  0  0  0  0
   44.6320   30.6700   34.9880 H   0  0  0  0  0  0  0  0  0  0  0  0
   42.9380   30.4950   36.8230 H   0  0  0  0  0  0  0  0  0  0  0  0
   42.8900   31.9980   39.0450 C   0  0  0  0  0  0  0  0  0  0  0  0
   41.8860   31.6690   38.8170 H   0  0  0  0  0  0  0  0  0  0  0  0
   43.2330   32.3100   40.2140 O   0  0  0  0  0  0  0  0  0  0  0  0
  1  4  1  0  0  0  0
  2  5  1  1  0  0  0
  2 11  1  0  0  0  0
  3  6  1  0  0  0  0
  3  7  1  0  0  0  0
  3  2  1  0  0  0  0
  4  8  1  6  0  0  0
  4  3  1  0  0  0  0
  4  2  1  0  0  0  0
  9 15  1  0  0  0  0
 10 16  1  0  0  0  0
 10  9  2  0  0  0  0
 11 10  1  0  0  0  0
 12 11  2  0  0  0  0
 12 13  1  0  0  0  0
 13 14  2  0  0  0  0
 14  9  1  0  0  0  0
 17 13  1  0  0  0  0
 19 18  2  6  0  0  0
 19  1  1  0  0  0  0
 20 19  1  0  0  0  0
 21 20  1  0  0  0  0
 22 19  1  0  0  0  0
 23 22  1  0  0  0  0
 23 28  1  0  0  0  0
 24 23  2  0  0  0  0
 25 24  1  0  0  0  0
 25 26  2  0  0  0  0
 26 27  1  0  0  0  0
 27 28  2  0  0  0  0
 27 32  1  0  0  0  0
 29 24  1  0  0  0  0
 30 25  1  0  0  0  0
 31 26  1  0  0  0  0
 32 34  2  0  0  0  0
 33 32  1  0  0  0  0
M  END
>  <minimizedAffinity>
-4.27630806

>  <minimizedRMSD>
0.0692002699

$$$$
