
 OpenBabel03242520333D

 22 23  0  0  1  0  0  0  0  0999 V2000
   47.5790   33.2730   41.2240 C   0  0  1  0  0  0  0  0  0  0  0  0
   47.2410   34.1270   40.1040 C   0  0  0  0  0  0  0  0  0  0  0  0
   48.5610   34.3410   40.7510 C   0  0  1  0  0  0  0  0  0  0  0  0
   47.8950   32.2130   41.0200 H   0  0  0  0  0  0  0  0  0  0  0  0
   47.1760   33.7290   39.0620 H   0  0  0  0  0  0  0  0  0  0  0  0
   46.4900   34.9410   40.2970 H   0  0  0  0  0  0  0  0  0  0  0  0
   49.4290   34.0030   40.1330 H   0  0  0  0  0  0  0  0  0  0  0  0
   45.6360   34.0690   42.6660 C   0  0  0  0  0  0  0  0  0  0  0  0
   46.9300   33.4630   42.5410 C   0  0  0  0  0  0  0  0  0  0  0  0
   47.5570   33.0730   43.7100 C   0  0  0  0  0  0  0  0  0  0  0  0
   46.9200   33.2840   44.9010 N   0  0  0  0  0  0  0  0  0  0  0  0
   45.7200   33.8490   44.9820 C   0  0  0  0  0  0  0  0  0  0  0  0
   45.0760   34.2440   43.8580 N   0  0  0  0  0  0  0  0  0  0  0  0
   45.1320   34.3810   41.7590 H   0  0  0  0  0  0  0  0  0  0  0  0
   48.5270   32.6100   43.7120 H   0  0  0  0  0  0  0  0  0  0  0  0
   45.1300   34.0280   46.3060 C   0  0  0  0  0  0  0  0  0  0  0  0
   45.2990   33.3690   47.1470 H   0  0  0  0  0  0  0  0  0  0  0  0
   44.3730   35.0210   46.4650 O   0  0  0  0  0  0  0  0  0  0  0  0
   48.8320   35.5400   41.5880 C   0  0  0  0  0  0  0  0  0  0  0  0
   49.4060   36.5670   40.8600 F   0  0  0  0  0  0  0  0  0  0  0  0
   49.6600   35.2350   42.6700 F   0  0  0  0  0  0  0  0  0  0  0  0
   47.6300   36.0080   42.0630 F   0  0  0  0  0  0  0  0  0  0  0  0
  1  4  1  6  0  0  0
  1  9  1  0  0  0  0
  2  6  1  0  0  0  0
  2  3  1  0  0  0  0
  2  1  1  0  0  0  0
  3  7  1  6  0  0  0
  3  1  1  0  0  0  0
  3 19  1  0  0  0  0
  5  2  1  0  0  0  0
  8 13  1  0  0  0  0
  9  8  2  0  0  0  0
  9 10  1  0  0  0  0
 10 15  1  0  0  0  0
 10 11  2  0  0  0  0
 11 12  1  0  0  0  0
 12 16  1  0  0  0  0
 13 12  2  0  0  0  0
 14  8  1  0  0  0  0
 16 18  2  0  0  0  0
 16 17  1  0  0  0  0
 19 22  1  0  0  0  0
 19 21  1  0  0  0  0
 20 19  1  0  0  0  0
M  END
>  <minimizedAffinity>
-4.5340538

>  <minimizedRMSD>
0.290830672

$$$$
