
 OpenBabel03252501053D

 34 36  0  0  1  0  0  0  0  0999 V2000
   47.7530   34.1580   39.8010 O   0  0  0  0  0  0  0  0  0  0  0  0
   48.0920   35.4640   41.8090 C   0  0  1  0  0  0  0  0  0  0  0  0
   49.3240   34.6750   41.6770 C   0  0  0  0  0  0  0  0  0  0  0  0
   48.4840   35.0780   40.4530 C   0  0  1  0  0  0  0  0  0  0  0  0
   48.1880   36.5160   42.1590 H   0  0  0  0  0  0  0  0  0  0  0  0
   49.3150   33.5550   41.8090 H   0  0  0  0  0  0  0  0  0  0  0  0
   50.3250   35.0830   41.8140 H   0  0  0  0  0  0  0  0  0  0  0  0
   49.0730   35.7600   39.8080 H   0  0  0  0  0  0  0  0  0  0  0  0
   46.0570   32.9340   43.7630 C   0  0  0  0  0  0  0  0  0  0  0  0
   47.1500   33.6150   43.2390 C   0  0  0  0  0  0  0  0  0  0  0  0
   46.9250   34.7240   42.3990 C   0  0  0  0  0  0  0  0  0  0  0  0
   45.6490   35.1010   42.1220 N   0  0  0  0  0  0  0  0  0  0  0  0
   44.5980   34.4150   42.6490 C   0  0  0  0  0  0  0  0  0  0  0  0
   44.8020   33.3370   43.4660 N   0  0  0  0  0  0  0  0  0  0  0  0
   46.2260   32.0920   44.4010 H   0  0  0  0  0  0  0  0  0  0  0  0
   48.1420   33.2850   43.4820 H   0  0  0  0  0  0  0  0  0  0  0  0
   43.5900   34.7330   42.4150 H   0  0  0  0  0  0  0  0  0  0  0  0
   48.5190   32.4060   37.9940 O   0  0  0  0  0  0  0  0  0  0  0  0
   48.0940   33.8550   38.2300 P   0  0  2  0  0  0  0  0  0  0  0  0
   49.3390   34.7980   37.5760 O   0  0  0  0  0  0  0  0  0  0  0  0
   49.1210   35.2220   36.7250 H   0  0  0  0  0  0  0  0  0  0  0  0
   46.7370   34.0620   37.2640 O   0  0  0  0  0  0  0  0  0  0  0  0
   45.7940   33.0830   37.0180 C   0  0  0  0  0  0  0  0  0  0  0  0
   45.6560   32.2800   35.9090 C   0  0  0  0  0  0  0  0  0  0  0  0
   44.6700   31.3530   35.8070 C   0  0  0  0  0  0  0  0  0  0  0  0
   43.7680   31.1930   36.8370 C   0  0  0  0  0  0  0  0  0  0  0  0
   43.9270   32.0160   37.9500 C   0  0  0  0  0  0  0  0  0  0  0  0
   44.9270   32.9370   38.0170 N   0  0  0  0  0  0  0  0  0  0  0  0
   46.4050   32.4610   35.1310 H   0  0  0  0  0  0  0  0  0  0  0  0
   44.6070   30.7460   34.9110 H   0  0  0  0  0  0  0  0  0  0  0  0
   42.9770   30.4700   36.7900 H   0  0  0  0  0  0  0  0  0  0  0  0
   42.9810   31.8770   39.0740 C   0  0  0  0  0  0  0  0  0  0  0  0
   42.3950   32.7360   39.3660 H   0  0  0  0  0  0  0  0  0  0  0  0
   42.8740   30.7740   39.6690 O   0  0  0  0  0  0  0  0  0  0  0  0
  1  4  1  0  0  0  0
  2  5  1  1  0  0  0
  2 11  1  0  0  0  0
  3  2  1  0  0  0  0
  3  6  1  0  0  0  0
  3  7  1  0  0  0  0
  4  8  1  6  0  0  0
  4  3  1  0  0  0  0
  4  2  1  0  0  0  0
  9 15  1  0  0  0  0
 10 16  1  0  0  0  0
 10  9  2  0  0  0  0
 11 10  1  0  0  0  0
 12 11  2  0  0  0  0
 12 13  1  0  0  0  0
 13 14  2  0  0  0  0
 14  9  1  0  0  0  0
 17 13  1  0  0  0  0
 19 18  2  6  0  0  0
 19  1  1  0  0  0  0
 20 19  1  0  0  0  0
 21 20  1  0  0  0  0
 22 19  1  0  0  0  0
 23 22  1  0  0  0  0
 23 28  1  0  0  0  0
 24 23  2  0  0  0  0
 25 24  1  0  0  0  0
 25 26  2  0  0  0  0
 26 27  1  0  0  0  0
 27 28  2  0  0  0  0
 27 32  1  0  0  0  0
 29 24  1  0  0  0  0
 30 25  1  0  0  0  0
 31 26  1  0  0  0  0
 32 33  1  0  0  0  0
 32 34  2  0  0  0  0
M  END
>  <minimizedAffinity>
-4.22968817

>  <minimizedRMSD>
0.0126196174

$$$$
