
 OpenBabel03252501053D

 34 36  0  0  1  0  0  0  0  0999 V2000
   47.7810   34.0580   39.8080 O   0  0  0  0  0  0  0  0  0  0  0  0
   48.0250   35.4400   41.7770 C   0  0  1  0  0  0  0  0  0  0  0  0
   49.2870   34.6920   41.7010 C   0  0  0  0  0  0  0  0  0  0  0  0
   48.4630   35.0250   40.4450 C   0  0  1  0  0  0  0  0  0  0  0  0
   48.0760   36.5060   42.0930 H   0  0  0  0  0  0  0  0  0  0  0  0
   49.3140   33.5780   41.8700 H   0  0  0  0  0  0  0  0  0  0  0  0
   50.2690   35.1400   41.8460 H   0  0  0  0  0  0  0  0  0  0  0  0
   49.0430   35.7050   39.7900 H   0  0  0  0  0  0  0  0  0  0  0  0
   46.0310   32.9620   43.8370 C   0  0  0  0  0  0  0  0  0  0  0  0
   47.1110   33.6670   43.3150 C   0  0  0  0  0  0  0  0  0  0  0  0
   46.8710   34.6790   42.3650 C   0  0  0  0  0  0  0  0  0  0  0  0
   45.5940   34.9440   41.9820 N   0  0  0  0  0  0  0  0  0  0  0  0
   44.5560   34.2380   42.5090 C   0  0  0  0  0  0  0  0  0  0  0  0
   44.7750   33.2520   43.4320 N   0  0  0  0  0  0  0  0  0  0  0  0
   46.2100   32.1930   44.5590 H   0  0  0  0  0  0  0  0  0  0  0  0
   48.1040   33.4260   43.6440 H   0  0  0  0  0  0  0  0  0  0  0  0
   43.5480   34.4660   42.1900 H   0  0  0  0  0  0  0  0  0  0  0  0
   48.5820   32.3430   37.9810 O   0  0  0  0  0  0  0  0  0  0  0  0
   48.1100   33.7750   38.2300 P   0  0  2  0  0  0  0  0  0  0  0  0
   49.3100   34.7650   37.5640 O   0  0  0  0  0  0  0  0  0  0  0  0
   49.0650   35.1840   36.7180 H   0  0  0  0  0  0  0  0  0  0  0  0
   46.7320   33.9370   37.2850 O   0  0  0  0  0  0  0  0  0  0  0  0
   45.6770   33.0450   37.2790 C   0  0  0  0  0  0  0  0  0  0  0  0
   45.4170   32.0260   36.3910 C   0  0  0  0  0  0  0  0  0  0  0  0
   44.3290   31.2230   36.5120 C   0  0  0  0  0  0  0  0  0  0  0  0
   43.4450   31.4170   37.5510 C   0  0  0  0  0  0  0  0  0  0  0  0
   43.7280   32.4540   38.4380 C   0  0  0  0  0  0  0  0  0  0  0  0
   44.8280   33.2400   38.2840 N   0  0  0  0  0  0  0  0  0  0  0  0
   46.1590   31.9290   35.5920 H   0  0  0  0  0  0  0  0  0  0  0  0
   44.1730   30.4350   35.7850 H   0  0  0  0  0  0  0  0  0  0  0  0
   42.5750   30.8010   37.6770 H   0  0  0  0  0  0  0  0  0  0  0  0
   42.8050   32.6950   39.5630 C   0  0  0  0  0  0  0  0  0  0  0  0
   43.1200   32.4160   40.5590 H   0  0  0  0  0  0  0  0  0  0  0  0
   41.6790   33.2150   39.3500 O   0  0  0  0  0  0  0  0  0  0  0  0
  1  4  1  0  0  0  0
  2  5  1  1  0  0  0
  2 11  1  0  0  0  0
  3  2  1  0  0  0  0
  3  7  1  0  0  0  0
  3  6  1  0  0  0  0
  4  8  1  6  0  0  0
  4  3  1  0  0  0  0
  4  2  1  0  0  0  0
  9 15  1  0  0  0  0
 10 16  1  0  0  0  0
 10  9  2  0  0  0  0
 11 10  1  0  0  0  0
 12 11  2  0  0  0  0
 12 13  1  0  0  0  0
 13 14  2  0  0  0  0
 14  9  1  0  0  0  0
 17 13  1  0  0  0  0
 19 18  2  6  0  0  0
 19  1  1  0  0  0  0
 20 19  1  0  0  0  0
 21 20  1  0  0  0  0
 22 19  1  0  0  0  0
 23 22  1  0  0  0  0
 23 28  1  0  0  0  0
 24 25  1  0  0  0  0
 24 23  2  0  0  0  0
 25 26  2  0  0  0  0
 26 31  1  0  0  0  0
 26 27  1  0  0  0  0
 27 32  1  0  0  0  0
 28 27  2  0  0  0  0
 29 24  1  0  0  0  0
 30 25  1  0  0  0  0
 32 33  1  0  0  0  0
 34 32  2  0  0  0  0
M  END
>  <minimizedAffinity>
-4.356318

>  <minimizedRMSD>
0.474999875

$$$$
