
 OpenBabel03252501053D

 34 36  0  0  1  0  0  0  0  0999 V2000
   47.7470   34.0380   39.7710 O   0  0  0  0  0  0  0  0  0  0  0  0
   47.9480   35.3990   41.7600 C   0  0  1  0  0  0  0  0  0  0  0  0
   49.2140   34.6550   41.7010 C   0  0  0  0  0  0  0  0  0  0  0  0
   48.4140   34.9990   40.4320 C   0  0  1  0  0  0  0  0  0  0  0  0
   47.9890   36.4610   42.0900 H   0  0  0  0  0  0  0  0  0  0  0  0
   49.2400   33.5390   41.8580 H   0  0  0  0  0  0  0  0  0  0  0  0
   50.1910   35.1040   41.8710 H   0  0  0  0  0  0  0  0  0  0  0  0
   49.0040   35.6890   39.7970 H   0  0  0  0  0  0  0  0  0  0  0  0
   45.9140   32.9320   43.7960 C   0  0  0  0  0  0  0  0  0  0  0  0
   47.0020   33.6470   43.3040 C   0  0  0  0  0  0  0  0  0  0  0  0
   46.7840   34.6270   42.3170 C   0  0  0  0  0  0  0  0  0  0  0  0
   45.5210   34.8530   41.8690 N   0  0  0  0  0  0  0  0  0  0  0  0
   44.4750   34.1390   42.3680 C   0  0  0  0  0  0  0  0  0  0  0  0
   44.6720   33.1830   43.3270 N   0  0  0  0  0  0  0  0  0  0  0  0
   46.0770   32.1870   44.5460 H   0  0  0  0  0  0  0  0  0  0  0  0
   47.9840   33.4370   43.6840 H   0  0  0  0  0  0  0  0  0  0  0  0
   43.4780   34.3360   41.9970 H   0  0  0  0  0  0  0  0  0  0  0  0
   48.6140   32.3430   37.9550 O   0  0  0  0  0  0  0  0  0  0  0  0
   48.1150   33.7670   38.2000 P   0  0  2  0  0  0  0  0  0  0  0  0
   49.3160   34.7770   37.5650 O   0  0  0  0  0  0  0  0  0  0  0  0
   49.0840   35.1970   36.7160 H   0  0  0  0  0  0  0  0  0  0  0  0
   46.7570   33.9140   37.2250 O   0  0  0  0  0  0  0  0  0  0  0  0
   45.7020   33.0220   37.2110 C   0  0  0  0  0  0  0  0  0  0  0  0
   45.4960   31.9450   36.3800 C   0  0  0  0  0  0  0  0  0  0  0  0
   44.4010   31.1500   36.4850 C   0  0  0  0  0  0  0  0  0  0  0  0
   43.4530   31.4130   37.4500 C   0  0  0  0  0  0  0  0  0  0  0  0
   43.6810   32.5080   38.2800 C   0  0  0  0  0  0  0  0  0  0  0  0
   44.7910   33.2840   38.1440 N   0  0  0  0  0  0  0  0  0  0  0  0
   46.2880   31.7950   35.6390 H   0  0  0  0  0  0  0  0  0  0  0  0
   44.2890   30.3140   35.8050 H   0  0  0  0  0  0  0  0  0  0  0  0
   42.5750   30.8050   37.5620 H   0  0  0  0  0  0  0  0  0  0  0  0
   42.6880   32.8230   39.3260 C   0  0  0  0  0  0  0  0  0  0  0  0
   42.5340   33.8590   39.5960 H   0  0  0  0  0  0  0  0  0  0  0  0
   42.0460   31.8950   39.8800 O   0  0  0  0  0  0  0  0  0  0  0  0
  1  4  1  0  0  0  0
  2  5  1  1  0  0  0
  2 11  1  0  0  0  0
  3  2  1  0  0  0  0
  3  6  1  0  0  0  0
  3  7  1  0  0  0  0
  4  8  1  6  0  0  0
  4  3  1  0  0  0  0
  4  2  1  0  0  0  0
  9 15  1  0  0  0  0
 10 16  1  0  0  0  0
 10  9  2  0  0  0  0
 11 10  1  0  0  0  0
 12 11  2  0  0  0  0
 12 13  1  0  0  0  0
 13 14  2  0  0  0  0
 14  9  1  0  0  0  0
 17 13  1  0  0  0  0
 19 18  2  6  0  0  0
 19  1  1  0  0  0  0
 20 19  1  0  0  0  0
 21 20  1  0  0  0  0
 22 19  1  0  0  0  0
 23 22  1  0  0  0  0
 23 28  1  0  0  0  0
 24 25  1  0  0  0  0
 24 23  2  0  0  0  0
 25 26  2  0  0  0  0
 26 31  1  0  0  0  0
 26 27  1  0  0  0  0
 27 32  1  0  0  0  0
 28 27  2  0  0  0  0
 29 24  1  0  0  0  0
 30 25  1  0  0  0  0
 32 33  1  0  0  0  0
 32 34  2  0  0  0  0
M  END
>  <minimizedAffinity>
-4.3138113

>  <minimizedRMSD>
0.500936389

$$$$
