
 OpenBabel03252500223D

 30 31  0  0  1  0  0  0  0  0999 V2000
   38.2570   28.7740   41.9650 C   0  0  1  0  0  0  0  0  0  0  0  0
   37.2440   28.7310   43.1230 C   0  0  0  0  0  0  0  0  0  0  0  0
   36.6400   27.4520   43.5050 C   0  0  0  0  0  0  0  0  0  0  0  0
   37.0800   26.2670   42.6490 C   0  0  0  0  0  0  0  0  0  0  0  0
   36.9360   26.7870   41.2310 C   0  0  0  0  0  0  0  0  0  0  0  0
   38.2020   27.6530   41.0580 C   0  0  2  0  0  0  0  0  0  0  0  0
   39.2100   28.8090   42.5730 H   0  0  0  0  0  0  0  0  0  0  0  0
   36.9690   29.5990   43.6510 H   0  0  0  0  0  0  0  0  0  0  0  0
   35.9330   27.4580   44.3270 H   0  0  0  0  0  0  0  0  0  0  0  0
   38.0680   25.9060   42.9110 H   0  0  0  0  0  0  0  0  0  0  0  0
   36.2470   25.5500   42.7840 H   0  0  0  0  0  0  0  0  0  0  0  0
   36.9550   25.9970   40.4760 H   0  0  0  0  0  0  0  0  0  0  0  0
   36.0610   27.4310   41.1640 H   0  0  0  0  0  0  0  0  0  0  0  0
   38.2350   27.9940   39.9900 H   0  0  0  0  0  0  0  0  0  0  0  0
   39.2070   30.9890   41.2550 C   0  0  0  0  0  0  0  0  0  0  0  0
   38.0920   30.1300   41.3830 C   0  0  0  0  0  0  0  0  0  0  0  0
   36.8530   30.6730   41.0320 C   0  0  0  0  0  0  0  0  0  0  0  0
   36.7500   31.9520   40.6000 N   0  0  0  0  0  0  0  0  0  0  0  0
   37.8660   32.7230   40.5030 C   0  0  0  0  0  0  0  0  0  0  0  0
   39.0770   32.2340   40.8290 N   0  0  0  0  0  0  0  0  0  0  0  0
   37.7920   34.0540   40.0510 N   0  0  0  0  0  0  0  0  0  0  0  0
   40.2080   30.6560   41.5000 H   0  0  0  0  0  0  0  0  0  0  0  0
   37.2380   34.2380   39.1810 H   0  0  0  0  0  0  0  0  0  0  0  0
   38.2740   34.8330   40.5650 H   0  0  0  0  0  0  0  0  0  0  0  0
   35.7300   29.7920   41.1040 N   0  0  0  0  0  0  0  0  0  0  0  0
   35.6340   29.5430   40.0760 H   0  0  0  0  0  0  0  0  0  0  0  0
   35.2360   29.5400   41.9660 H   0  0  0  0  0  0  0  0  0  0  0  0
   39.3590   26.7050   41.1700 C   0  0  0  0  0  0  0  0  0  0  0  0
   39.5890   25.6860   40.9840 H   0  0  0  0  0  0  0  0  0  0  0  0
   40.4780   27.0160   41.5870 O   0  0  0  0  0  0  0  0  0  0  0  0
  1  7  1  1  0  0  0
  1  2  1  0  0  0  0
  2  3  2  0  0  0  0
  2  8  1  0  0  0  0
  3  9  1  0  0  0  0
  4 11  1  0  0  0  0
  4 10  1  0  0  0  0
  4  3  1  0  0  0  0
  5  4  1  0  0  0  0
  6 14  1  6  0  0  0
  6 28  1  0  0  0  0
  6  5  1  0  0  0  0
  6  1  1  0  0  0  0
 12  5  1  0  0  0  0
 13  5  1  0  0  0  0
 15 16  1  0  0  0  0
 15 22  1  0  0  0  0
 16  1  1  0  0  0  0
 17 25  1  0  0  0  0
 17 16  2  0  0  0  0
 18 17  1  0  0  0  0
 19 18  2  0  0  0  0
 19 20  1  0  0  0  0
 20 15  2  0  0  0  0
 21 19  1  0  0  0  0
 21 24  1  0  0  0  0
 23 21  1  0  0  0  0
 25 27  1  0  0  0  0
 26 25  1  0  0  0  0
 28 30  2  0  0  0  0
 29 28  1  0  0  0  0
M  END
>  <minimizedAffinity>
-5.06038141

$$$$

 OpenBabel03252500223D

 30 31  0  0  1  0  0  0  0  0999 V2000
   39.0320   29.5240   42.5990 C   0  0  1  0  0  0  0  0  0  0  0  0
   37.7850   29.0100   43.3410 C   0  0  0  0  0  0  0  0  0  0  0  0
   37.6830   27.5890   43.6790 C   0  0  0  0  0  0  0  0  0  0  0  0
   38.8600   26.7410   43.2040 C   0  0  0  0  0  0  0  0  0  0  0  0
   39.0410   27.1730   41.7600 C   0  0  0  0  0  0  0  0  0  0  0  0
   39.7910   28.5150   41.9000 C   0  0  2  0  0  0  0  0  0  0  0  0
   39.5850   29.9670   43.4810 H   0  0  0  0  0  0  0  0  0  0  0  0
   36.9980   29.6540   43.6140 H   0  0  0  0  0  0  0  0  0  0  0  0
   36.7920   27.2620   44.2050 H   0  0  0  0  0  0  0  0  0  0  0  0
   39.7360   26.8510   43.8320 H   0  0  0  0  0  0  0  0  0  0  0  0
   38.4210   25.7260   43.1530 H   0  0  0  0  0  0  0  0  0  0  0  0
   39.6660   26.4900   41.1790 H   0  0  0  0  0  0  0  0  0  0  0  0
   38.0680   27.3620   41.3090 H   0  0  0  0  0  0  0  0  0  0  0  0
   40.0660   28.8580   40.8680 H   0  0  0  0  0  0  0  0  0  0  0  0
   37.2610   30.6250   41.1980 C   0  0  0  0  0  0  0  0  0  0  0  0
   38.5370   30.6770   41.8050 C   0  0  0  0  0  0  0  0  0  0  0  0
   39.3090   31.8070   41.5220 C   0  0  0  0  0  0  0  0  0  0  0  0
   38.8410   32.7830   40.7080 N   0  0  0  0  0  0  0  0  0  0  0  0
   37.6040   32.6670   40.1570 C   0  0  0  0  0  0  0  0  0  0  0  0
   36.8310   31.5940   40.4080 N   0  0  0  0  0  0  0  0  0  0  0  0
   37.0880   33.6680   39.3120 N   0  0  0  0  0  0  0  0  0  0  0  0
   36.5920   29.7910   41.3610 H   0  0  0  0  0  0  0  0  0  0  0  0
   37.1680   34.6610   39.6370 H   0  0  0  0  0  0  0  0  0  0  0  0
   36.6410   33.4290   38.3920 H   0  0  0  0  0  0  0  0  0  0  0  0
   40.5750   31.8920   42.1780 N   0  0  0  0  0  0  0  0  0  0  0  0
   40.3240   32.5640   42.9610 H   0  0  0  0  0  0  0  0  0  0  0  0
   41.4220   31.3930   41.8850 H   0  0  0  0  0  0  0  0  0  0  0  0
   41.1090   28.1790   42.5320 C   0  0  0  0  0  0  0  0  0  0  0  0
   41.7380   27.3390   42.6870 H   0  0  0  0  0  0  0  0  0  0  0  0
   41.8390   28.9950   43.0990 O   0  0  0  0  0  0  0  0  0  0  0  0
  1  2  1  0  0  0  0
  1  7  1  1  0  0  0
  2  8  1  0  0  0  0
  2  3  2  0  0  0  0
  3  9  1  0  0  0  0
  4  3  1  0  0  0  0
  4 10  1  0  0  0  0
  5  6  1  0  0  0  0
  5  4  1  0  0  0  0
  6 14  1  6  0  0  0
  6 28  1  0  0  0  0
  6  1  1  0  0  0  0
 11  4  1  0  0  0  0
 12  5  1  0  0  0  0
 13  5  1  0  0  0  0
 15 22  1  0  0  0  0
 15 16  1  0  0  0  0
 16  1  1  0  0  0  0
 17 16  2  0  0  0  0
 17 25  1  0  0  0  0
 18 17  1  0  0  0  0
 19 20  1  0  0  0  0
 19 18  2  0  0  0  0
 20 15  2  0  0  0  0
 21 23  1  0  0  0  0
 21 19  1  0  0  0  0
 24 21  1  0  0  0  0
 25 26  1  0  0  0  0
 27 25  1  0  0  0  0
 28 29  1  0  0  0  0
 28 30  2  0  0  0  0
M  END
>  <minimizedAffinity>
-5.0426898

$$$$

 OpenBabel03252500223D

 30 31  0  0  1  0  0  0  0  0999 V2000
   37.9390   28.8440   41.4270 C   0  0  1  0  0  0  0  0  0  0  0  0
   38.6330   27.9290   40.4010 C   0  0  0  0  0  0  0  0  0  0  0  0
   39.2870   26.7000   40.8590 C   0  0  0  0  0  0  0  0  0  0  0  0
   39.2330   26.4810   42.3690 C   0  0  0  0  0  0  0  0  0  0  0  0
   39.6520   27.8270   42.9320 C   0  0  0  0  0  0  0  0  0  0  0  0
   38.3640   28.6670   42.7950 C   0  0  2  0  0  0  0  0  0  0  0  0
   36.8700   28.5220   41.2460 H   0  0  0  0  0  0  0  0  0  0  0  0
   38.6520   28.1610   39.3750 H   0  0  0  0  0  0  0  0  0  0  0  0
   39.7640   26.0770   40.1090 H   0  0  0  0  0  0  0  0  0  0  0  0
   38.2680   26.1200   42.7040 H   0  0  0  0  0  0  0  0  0  0  0  0
   40.0940   25.8090   42.5460 H   0  0  0  0  0  0  0  0  0  0  0  0
   39.9240   27.7870   43.9900 H   0  0  0  0  0  0  0  0  0  0  0  0
   40.4230   28.2650   42.3010 H   0  0  0  0  0  0  0  0  0  0  0  0
   38.5500   29.6550   43.2910 H   0  0  0  0  0  0  0  0  0  0  0  0
   39.3130   30.6650   40.3730 C   0  0  0  0  0  0  0  0  0  0  0  0
   38.0620   30.2050   40.8450 C   0  0  0  0  0  0  0  0  0  0  0  0
   37.0170   31.1310   40.8220 C   0  0  0  0  0  0  0  0  0  0  0  0
   37.2140   32.3920   40.3710 N   0  0  0  0  0  0  0  0  0  0  0  0
   38.4440   32.7670   39.9320 C   0  0  0  0  0  0  0  0  0  0  0  0
   39.4760   31.9020   39.9370 N   0  0  0  0  0  0  0  0  0  0  0  0
   38.6790   34.0700   39.4520 N   0  0  0  0  0  0  0  0  0  0  0  0
   40.1810   30.0180   40.3500 H   0  0  0  0  0  0  0  0  0  0  0  0
   37.9950   34.4580   38.7600 H   0  0  0  0  0  0  0  0  0  0  0  0
   39.5070   34.6300   39.7740 H   0  0  0  0  0  0  0  0  0  0  0  0
   35.7370   30.6550   41.2440 N   0  0  0  0  0  0  0  0  0  0  0  0
   35.2870   30.4940   40.2960 H   0  0  0  0  0  0  0  0  0  0  0  0
   35.4470   30.5390   42.2200 H   0  0  0  0  0  0  0  0  0  0  0  0
   37.3510   28.0030   43.6790 C   0  0  0  0  0  0  0  0  0  0  0  0
   37.2560   27.6540   44.6770 H   0  0  0  0  0  0  0  0  0  0  0  0
   36.2150   27.6820   43.3200 O   0  0  0  0  0  0  0  0  0  0  0  0
  1  7  1  6  0  0  0
  1  6  1  0  0  0  0
  2  3  2  0  0  0  0
  2  1  1  0  0  0  0
  3  4  1  0  0  0  0
  4 11  1  0  0  0  0
  4 10  1  0  0  0  0
  4  5  1  0  0  0  0
  5 12  1  0  0  0  0
  6  5  1  0  0  0  0
  6 14  1  1  0  0  0
  6 28  1  0  0  0  0
  8  2  1  0  0  0  0
  9  3  1  0  0  0  0
 13  5  1  0  0  0  0
 15 16  1  0  0  0  0
 16  1  1  0  0  0  0
 17 16  2  0  0  0  0
 17 25  1  0  0  0  0
 18 17  1  0  0  0  0
 19 20  1  0  0  0  0
 19 18  2  0  0  0  0
 20 15  2  0  0  0  0
 21 24  1  0  0  0  0
 21 19  1  0  0  0  0
 22 15  1  0  0  0  0
 23 21  1  0  0  0  0
 25 27  1  0  0  0  0
 26 25  1  0  0  0  0
 28 29  1  0  0  0  0
 30 28  2  0  0  0  0
M  END
>  <minimizedAffinity>
-4.95139456

$$$$

 OpenBabel03252500223D

 30 31  0  0  1  0  0  0  0  0999 V2000
   37.5550   30.0650   40.9310 C   0  0  1  0  0  0  0  0  0  0  0  0
   36.3650   29.0870   40.9120 C   0  0  0  0  0  0  0  0  0  0  0  0
   36.4110   27.8800   41.7410 C   0  0  0  0  0  0  0  0  0  0  0  0
   37.7050   27.7080   42.5340 C   0  0  0  0  0  0  0  0  0  0  0  0
   38.7850   27.9680   41.5000 C   0  0  0  0  0  0  0  0  0  0  0  0
   38.8000   29.5080   41.4050 C   0  0  2  0  0  0  0  0  0  0  0  0
   37.1230   30.8460   41.6260 H   0  0  0  0  0  0  0  0  0  0  0  0
   35.5150   29.2610   40.3170 H   0  0  0  0  0  0  0  0  0  0  0  0
   35.5550   27.2160   41.7060 H   0  0  0  0  0  0  0  0  0  0  0  0
   37.7440   28.3410   43.4120 H   0  0  0  0  0  0  0  0  0  0  0  0
   37.7320   26.6170   42.7180 H   0  0  0  0  0  0  0  0  0  0  0  0
   39.7770   27.6350   41.8180 H   0  0  0  0  0  0  0  0  0  0  0  0
   38.4770   27.5620   40.5380 H   0  0  0  0  0  0  0  0  0  0  0  0
   39.6530   29.7980   40.7370 H   0  0  0  0  0  0  0  0  0  0  0  0
   37.9220   29.9000   38.4510 C   0  0  0  0  0  0  0  0  0  0  0  0
   37.5520   30.6720   39.5770 C   0  0  0  0  0  0  0  0  0  0  0  0
   37.2970   32.0250   39.3390 C   0  0  0  0  0  0  0  0  0  0  0  0
   37.4070   32.5460   38.0940 N   0  0  0  0  0  0  0  0  0  0  0  0
   37.7690   31.7450   37.0570 C   0  0  0  0  0  0  0  0  0  0  0  0
   38.0200   30.4360   37.2470 N   0  0  0  0  0  0  0  0  0  0  0  0
   37.8860   32.2560   35.7500 N   0  0  0  0  0  0  0  0  0  0  0  0
   38.1350   28.8420   38.5380 H   0  0  0  0  0  0  0  0  0  0  0  0
   37.1020   32.8520   35.3940 H   0  0  0  0  0  0  0  0  0  0  0  0
   38.7260   32.0470   35.1550 H   0  0  0  0  0  0  0  0  0  0  0  0
   36.8670   32.7970   40.4610 N   0  0  0  0  0  0  0  0  0  0  0  0
   35.8230   32.8210   40.2700 H   0  0  0  0  0  0  0  0  0  0  0  0
   37.4860   33.1700   41.1890 H   0  0  0  0  0  0  0  0  0  0  0  0
   39.2220   29.9940   42.7600 C   0  0  0  0  0  0  0  0  0  0  0  0
   39.1750   29.6920   43.7760 H   0  0  0  0  0  0  0  0  0  0  0  0
   39.8210   31.0520   42.9670 O   0  0  0  0  0  0  0  0  0  0  0  0
  1  6  1  0  0  0  0
  1  7  1  1  0  0  0
  2  1  1  0  0  0  0
  2  3  2  0  0  0  0
  3  4  1  0  0  0  0
  4 11  1  0  0  0  0
  4 10  1  0  0  0  0
  5 12  1  0  0  0  0
  5  4  1  0  0  0  0
  6 14  1  6  0  0  0
  6  5  1  0  0  0  0
  6 28  1  0  0  0  0
  8  2  1  0  0  0  0
  9  3  1  0  0  0  0
 13  5  1  0  0  0  0
 15 22  1  0  0  0  0
 15 16  1  0  0  0  0
 16  1  1  0  0  0  0
 17 16  2  0  0  0  0
 17 25  1  0  0  0  0
 18 17  1  0  0  0  0
 19 20  1  0  0  0  0
 19 18  2  0  0  0  0
 20 15  2  0  0  0  0
 21 19  1  0  0  0  0
 23 21  1  0  0  0  0
 24 21  1  0  0  0  0
 25 27  1  0  0  0  0
 26 25  1  0  0  0  0
 28 30  2  0  0  0  0
 28 29  1  0  0  0  0
M  END
>  <minimizedAffinity>
-4.91864491

$$$$

 OpenBabel03252500223D

 30 31  0  0  1  0  0  0  0  0999 V2000
   36.7990   28.1110   40.8340 C   0  0  1  0  0  0  0  0  0  0  0  0
   36.4520   26.9370   39.9010 C   0  0  0  0  0  0  0  0  0  0  0  0
   36.8400   25.5760   40.2800 C   0  0  0  0  0  0  0  0  0  0  0  0
   37.6080   25.4830   41.5960 C   0  0  0  0  0  0  0  0  0  0  0  0
   38.6590   26.5700   41.4650 C   0  0  0  0  0  0  0  0  0  0  0  0
   37.8600   27.8530   41.7780 C   0  0  2  0  0  0  0  0  0  0  0  0
   35.7890   28.2440   41.3240 H   0  0  0  0  0  0  0  0  0  0  0  0
   35.9410   27.0840   38.9920 H   0  0  0  0  0  0  0  0  0  0  0  0
   36.5760   24.7720   39.6010 H   0  0  0  0  0  0  0  0  0  0  0  0
   36.9640   25.5660   42.4630 H   0  0  0  0  0  0  0  0  0  0  0  0
   38.1580   24.5290   41.4870 H   0  0  0  0  0  0  0  0  0  0  0  0
   39.4660   26.4820   42.1970 H   0  0  0  0  0  0  0  0  0  0  0  0
   39.0090   26.6190   40.4350 H   0  0  0  0  0  0  0  0  0  0  0  0
   38.5890   28.7050   41.8110 H   0  0  0  0  0  0  0  0  0  0  0  0
   37.7150   29.1290   38.7270 C   0  0  0  0  0  0  0  0  0  0  0  0
   36.9680   29.2690   39.9190 C   0  0  0  0  0  0  0  0  0  0  0  0
   36.5090   30.5560   40.2110 C   0  0  0  0  0  0  0  0  0  0  0  0
   36.7790   31.5950   39.3860 N   0  0  0  0  0  0  0  0  0  0  0  0
   37.5050   31.3880   38.2560 C   0  0  0  0  0  0  0  0  0  0  0  0
   37.9620   30.1620   37.9400 N   0  0  0  0  0  0  0  0  0  0  0  0
   37.7970   32.4480   37.3760 N   0  0  0  0  0  0  0  0  0  0  0  0
   38.1090   28.1690   38.4170 H   0  0  0  0  0  0  0  0  0  0  0  0
   37.0060   33.0760   37.1000 H   0  0  0  0  0  0  0  0  0  0  0  0
   38.7690   32.6010   37.0100 H   0  0  0  0  0  0  0  0  0  0  0  0
   35.7050   30.6920   41.3840 N   0  0  0  0  0  0  0  0  0  0  0  0
   34.7420   30.7180   40.9370 H   0  0  0  0  0  0  0  0  0  0  0  0
   36.0670   30.7390   42.3420 H   0  0  0  0  0  0  0  0  0  0  0  0
   37.4060   27.7110   43.2000 C   0  0  0  0  0  0  0  0  0  0  0  0
   37.8180   27.6010   44.1720 H   0  0  0  0  0  0  0  0  0  0  0  0
   36.2250   27.6940   43.5570 O   0  0  0  0  0  0  0  0  0  0  0  0
  1  7  1  1  0  0  0
  1  6  1  0  0  0  0
  2  3  2  0  0  0  0
  2  1  1  0  0  0  0
  3  4  1  0  0  0  0
  4 10  1  0  0  0  0
  5  4  1  0  0  0  0
  5  6  1  0  0  0  0
  5 12  1  0  0  0  0
  6 14  1  6  0  0  0
  6 28  1  0  0  0  0
  8  2  1  0  0  0  0
  9  3  1  0  0  0  0
 11  4  1  0  0  0  0
 13  5  1  0  0  0  0
 15 16  1  0  0  0  0
 16 17  2  0  0  0  0
 16  1  1  0  0  0  0
 17 25  1  0  0  0  0
 18 17  1  0  0  0  0
 19 18  2  0  0  0  0
 20 19  1  0  0  0  0
 20 15  2  0  0  0  0
 21 19  1  0  0  0  0
 22 15  1  0  0  0  0
 23 21  1  0  0  0  0
 24 21  1  0  0  0  0
 25 27  1  0  0  0  0
 26 25  1  0  0  0  0
 28 30  2  0  0  0  0
 28 29  1  0  0  0  0
M  END
>  <minimizedAffinity>
-4.89363623

$$$$

 OpenBabel03252500223D

 30 31  0  0  1  0  0  0  0  0999 V2000
   37.8410   25.6700   41.7960 C   0  0  1  0  0  0  0  0  0  0  0  0
   36.7570   24.7660   41.1820 C   0  0  0  0  0  0  0  0  0  0  0  0
   37.1510   23.5270   40.5060 C   0  0  0  0  0  0  0  0  0  0  0  0
   38.6580   23.2860   40.4580 C   0  0  0  0  0  0  0  0  0  0  0  0
   39.2100   24.6210   39.9910 C   0  0  0  0  0  0  0  0  0  0  0  0
   39.1740   25.4710   41.2790 C   0  0  2  0  0  0  0  0  0  0  0  0
   37.7310   25.3590   42.8770 H   0  0  0  0  0  0  0  0  0  0  0  0
   35.7350   25.0120   41.2320 H   0  0  0  0  0  0  0  0  0  0  0  0
   36.3610   22.9110   40.0880 H   0  0  0  0  0  0  0  0  0  0  0  0
   39.0550   22.9260   41.4000 H   0  0  0  0  0  0  0  0  0  0  0  0
   38.7660   22.6050   39.5910 H   0  0  0  0  0  0  0  0  0  0  0  0
   40.2460   24.5640   39.6470 H   0  0  0  0  0  0  0  0  0  0  0  0
   38.5330   25.0620   39.2620 H   0  0  0  0  0  0  0  0  0  0  0  0
   39.6700   26.4510   41.0510 H   0  0  0  0  0  0  0  0  0  0  0  0
   36.4060   27.3770   40.6370 C   0  0  0  0  0  0  0  0  0  0  0  0
   37.2720   27.0390   41.7030 C   0  0  0  0  0  0  0  0  0  0  0  0
   37.6210   28.0790   42.5670 C   0  0  0  0  0  0  0  0  0  0  0  0
   37.1470   29.3330   42.3740 N   0  0  0  0  0  0  0  0  0  0  0  0
   36.3190   29.5880   41.3270 C   0  0  0  0  0  0  0  0  0  0  0  0
   35.9580   28.6100   40.4740 N   0  0  0  0  0  0  0  0  0  0  0  0
   35.8050   30.8800   41.1030 N   0  0  0  0  0  0  0  0  0  0  0  0
   36.0780   26.6360   39.9190 H   0  0  0  0  0  0  0  0  0  0  0  0
   35.3950   31.3830   41.9250 H   0  0  0  0  0  0  0  0  0  0  0  0
   35.8320   31.3200   40.1510 H   0  0  0  0  0  0  0  0  0  0  0  0
   38.4480   27.7310   43.6780 N   0  0  0  0  0  0  0  0  0  0  0  0
   37.7090   27.6780   44.4400 H   0  0  0  0  0  0  0  0  0  0  0  0
   39.4630   27.5940   43.6340 H   0  0  0  0  0  0  0  0  0  0  0  0
   40.1170   24.8010   42.2330 C   0  0  0  0  0  0  0  0  0  0  0  0
   40.7020   23.9190   42.3030 H   0  0  0  0  0  0  0  0  0  0  0  0
   40.4390   25.2600   43.3320 O   0  0  0  0  0  0  0  0  0  0  0  0
  1  7  1  1  0  0  0
  2  8  1  0  0  0  0
  2  1  1  0  0  0  0
  3  2  2  0  0  0  0
  4  3  1  0  0  0  0
  4 10  1  0  0  0  0
  5  4  1  0  0  0  0
  5  6  1  0  0  0  0
  6 14  1  6  0  0  0
  6  1  1  0  0  0  0
  6 28  1  0  0  0  0
  9  3  1  0  0  0  0
 11  4  1  0  0  0  0
 12  5  1  0  0  0  0
 13  5  1  0  0  0  0
 15 16  1  0  0  0  0
 16  1  1  0  0  0  0
 16 17  2  0  0  0  0
 17 25  1  0  0  0  0
 18 17  1  0  0  0  0
 19 18  2  0  0  0  0
 20 15  2  0  0  0  0
 20 19  1  0  0  0  0
 21 19  1  0  0  0  0
 21 23  1  0  0  0  0
 22 15  1  0  0  0  0
 24 21  1  0  0  0  0
 25 26  1  0  0  0  0
 27 25  1  0  0  0  0
 28 29  1  0  0  0  0
 28 30  2  0  0  0  0
M  END
>  <minimizedAffinity>
-4.81766224

$$$$

 OpenBabel03252500223D

 30 31  0  0  1  0  0  0  0  0999 V2000
   37.5480   28.7770   42.0360 C   0  0  1  0  0  0  0  0  0  0  0  0
   37.4790   27.4110   42.7440 C   0  0  0  0  0  0  0  0  0  0  0  0
   38.6630   26.9000   43.4390 C   0  0  0  0  0  0  0  0  0  0  0  0
   39.8890   27.8050   43.3460 C   0  0  0  0  0  0  0  0  0  0  0  0
   39.9580   28.1490   41.8700 C   0  0  0  0  0  0  0  0  0  0  0  0
   38.8780   29.2430   41.7260 C   0  0  2  0  0  0  0  0  0  0  0  0
   37.0290   29.4030   42.8230 H   0  0  0  0  0  0  0  0  0  0  0  0
   36.6020   26.8300   42.7420 H   0  0  0  0  0  0  0  0  0  0  0  0
   38.5780   25.9360   43.9290 H   0  0  0  0  0  0  0  0  0  0  0  0
   39.8340   28.6550   44.0160 H   0  0  0  0  0  0  0  0  0  0  0  0
   40.7230   27.0990   43.5220 H   0  0  0  0  0  0  0  0  0  0  0  0
   40.9190   28.5750   41.5690 H   0  0  0  0  0  0  0  0  0  0  0  0
   39.6610   27.2850   41.2780 H   0  0  0  0  0  0  0  0  0  0  0  0
   38.9340   29.6380   40.6780 H   0  0  0  0  0  0  0  0  0  0  0  0
   36.5920   27.4990   40.0960 C   0  0  0  0  0  0  0  0  0  0  0  0
   36.5880   28.6550   40.9100 C   0  0  0  0  0  0  0  0  0  0  0  0
   35.7190   29.6780   40.5220 C   0  0  0  0  0  0  0  0  0  0  0  0
   34.9370   29.5490   39.4240 N   0  0  0  0  0  0  0  0  0  0  0  0
   34.9940   28.4090   38.6860 C   0  0  0  0  0  0  0  0  0  0  0  0
   35.8170   27.4000   39.0300 N   0  0  0  0  0  0  0  0  0  0  0  0
   34.1880   28.2430   37.5430 N   0  0  0  0  0  0  0  0  0  0  0  0
   37.2300   26.6540   40.3190 H   0  0  0  0  0  0  0  0  0  0  0  0
   33.1720   28.4790   37.6320 H   0  0  0  0  0  0  0  0  0  0  0  0
   34.5910   27.8950   36.6380 H   0  0  0  0  0  0  0  0  0  0  0  0
   35.6690   30.8250   41.3740 N   0  0  0  0  0  0  0  0  0  0  0  0
   34.7780   30.6080   41.9100 H   0  0  0  0  0  0  0  0  0  0  0  0
   36.3590   31.5820   41.3790 H   0  0  0  0  0  0  0  0  0  0  0  0
   39.3480   30.3900   42.5700 C   0  0  0  0  0  0  0  0  0  0  0  0
   39.3490   30.6970   43.5850 H   0  0  0  0  0  0  0  0  0  0  0  0
   39.9380   31.3820   42.1330 O   0  0  0  0  0  0  0  0  0  0  0  0
  1  2  1  0  0  0  0
  1  7  1  1  0  0  0
  2  3  2  0  0  0  0
  3  9  1  0  0  0  0
  4  3  1  0  0  0  0
  4 11  1  0  0  0  0
  4 10  1  0  0  0  0
  5  4  1  0  0  0  0
  6 14  1  6  0  0  0
  6  5  1  0  0  0  0
  6  1  1  0  0  0  0
  6 28  1  0  0  0  0
  8  2  1  0  0  0  0
 12  5  1  0  0  0  0
 13  5  1  0  0  0  0
 15 22  1  0  0  0  0
 15 16  1  0  0  0  0
 16  1  1  0  0  0  0
 17 16  2  0  0  0  0
 17 25  1  0  0  0  0
 18 17  1  0  0  0  0
 19 20  1  0  0  0  0
 19 18  2  0  0  0  0
 20 15  2  0  0  0  0
 21 23  1  0  0  0  0
 21 19  1  0  0  0  0
 24 21  1  0  0  0  0
 25 27  1  0  0  0  0
 25 26  1  0  0  0  0
 28 29  1  0  0  0  0
 30 28  2  0  0  0  0
M  END
>  <minimizedAffinity>
-4.73583412

$$$$

 OpenBabel03252500223D

 30 31  0  0  1  0  0  0  0  0999 V2000
   38.7940   30.7100   39.2850 C   0  0  1  0  0  0  0  0  0  0  0  0
   39.2950   30.4430   40.7160 C   0  0  0  0  0  0  0  0  0  0  0  0
   38.3230   30.2420   41.7940 C   0  0  0  0  0  0  0  0  0  0  0  0
   36.8650   30.3630   41.3580 C   0  0  0  0  0  0  0  0  0  0  0  0
   36.8490   31.6420   40.5420 C   0  0  0  0  0  0  0  0  0  0  0  0
   37.4350   31.1870   39.1880 C   0  0  2  0  0  0  0  0  0  0  0  0
   38.9340   29.6720   38.8580 H   0  0  0  0  0  0  0  0  0  0  0  0
   40.3210   30.4000   40.9450 H   0  0  0  0  0  0  0  0  0  0  0  0
   38.7110   30.0530   42.7890 H   0  0  0  0  0  0  0  0  0  0  0  0
   36.5080   29.4800   40.8410 H   0  0  0  0  0  0  0  0  0  0  0  0
   36.3500   30.6140   42.3060 H   0  0  0  0  0  0  0  0  0  0  0  0
   35.8420   32.0300   40.3650 H   0  0  0  0  0  0  0  0  0  0  0  0
   37.5240   32.3700   40.9880 H   0  0  0  0  0  0  0  0  0  0  0  0
   37.3600   32.0520   38.4790 H   0  0  0  0  0  0  0  0  0  0  0  0
   40.0960   32.8560   39.1640 C   0  0  0  0  0  0  0  0  0  0  0  0
   39.8560   31.5510   38.6760 C   0  0  0  0  0  0  0  0  0  0  0  0
   40.5930   31.1680   37.5520 C   0  0  0  0  0  0  0  0  0  0  0  0
   41.4790   32.0170   36.9790 N   0  0  0  0  0  0  0  0  0  0  0  0
   41.6580   33.2590   37.5010 C   0  0  0  0  0  0  0  0  0  0  0  0
   40.9680   33.6620   38.5840 N   0  0  0  0  0  0  0  0  0  0  0  0
   42.5760   34.1610   36.9300 N   0  0  0  0  0  0  0  0  0  0  0  0
   39.5750   33.2390   40.0320 H   0  0  0  0  0  0  0  0  0  0  0  0
   43.5340   33.7990   36.7110 H   0  0  0  0  0  0  0  0  0  0  0  0
   42.3110   35.1580   36.7330 H   0  0  0  0  0  0  0  0  0  0  0  0
   40.3970   29.8310   37.0900 N   0  0  0  0  0  0  0  0  0  0  0  0
   41.2600   29.3710   37.5050 H   0  0  0  0  0  0  0  0  0  0  0  0
   39.6030   29.5170   36.5220 H   0  0  0  0  0  0  0  0  0  0  0  0
   36.4620   30.1850   38.6410 C   0  0  0  0  0  0  0  0  0  0  0  0
   35.6570   29.5790   38.9720 H   0  0  0  0  0  0  0  0  0  0  0  0
   36.4270   29.8180   37.4640 O   0  0  0  0  0  0  0  0  0  0  0  0
  1  7  1  6  0  0  0
  1  2  1  0  0  0  0
  2  8  1  0  0  0  0
  2  3  2  0  0  0  0
  3  9  1  0  0  0  0
  4  3  1  0  0  0  0
  4 11  1  0  0  0  0
  5 13  1  0  0  0  0
  5  4  1  0  0  0  0
  6 14  1  6  0  0  0
  6  1  1  0  0  0  0
  6  5  1  0  0  0  0
 10  4  1  0  0  0  0
 12  5  1  0  0  0  0
 15 22  1  0  0  0  0
 16 15  1  0  0  0  0
 16  1  1  0  0  0  0
 17 16  2  0  0  0  0
 18 19  2  0  0  0  0
 18 17  1  0  0  0  0
 19 20  1  0  0  0  0
 20 15  2  0  0  0  0
 21 19  1  0  0  0  0
 23 21  1  0  0  0  0
 24 21  1  0  0  0  0
 25 26  1  0  0  0  0
 25 17  1  0  0  0  0
 27 25  1  0  0  0  0
 28 29  1  0  0  0  0
 28  6  1  0  0  0  0
 30 28  2  0  0  0  0
M  END
>  <minimizedAffinity>
-4.70119047

$$$$

 OpenBabel03252500223D

 30 31  0  0  1  0  0  0  0  0999 V2000
   38.3340   28.9320   41.1190 C   0  0  1  0  0  0  0  0  0  0  0  0
   39.7470   29.0980   41.7060 C   0  0  0  0  0  0  0  0  0  0  0  0
   40.1380   28.3090   42.8780 C   0  0  0  0  0  0  0  0  0  0  0  0
   39.0370   27.4030   43.4240 C   0  0  0  0  0  0  0  0  0  0  0  0
   37.8290   28.3200   43.4860 C   0  0  0  0  0  0  0  0  0  0  0  0
   37.3580   28.3610   42.0170 C   0  0  2  0  0  0  0  0  0  0  0  0
   38.5880   28.2560   40.2490 H   0  0  0  0  0  0  0  0  0  0  0  0
   40.4460   29.7650   41.2890 H   0  0  0  0  0  0  0  0  0  0  0  0
   41.1420   28.4490   43.2630 H   0  0  0  0  0  0  0  0  0  0  0  0
   38.9040   26.5040   42.8340 H   0  0  0  0  0  0  0  0  0  0  0  0
   39.3470   27.2550   44.4760 H   0  0  0  0  0  0  0  0  0  0  0  0
   37.0140   27.9210   44.0960 H   0  0  0  0  0  0  0  0  0  0  0  0
   38.1430   29.3200   43.7810 H   0  0  0  0  0  0  0  0  0  0  0  0
   36.3950   28.9350   41.9860 H   0  0  0  0  0  0  0  0  0  0  0  0
   38.5130   31.4380   41.1400 C   0  0  0  0  0  0  0  0  0  0  0  0
   38.0230   30.2590   40.5310 C   0  0  0  0  0  0  0  0  0  0  0  0
   37.1710   30.4390   39.4390 C   0  0  0  0  0  0  0  0  0  0  0  0
   36.8430   31.6800   39.0070 N   0  0  0  0  0  0  0  0  0  0  0  0
   37.3510   32.7700   39.6420 C   0  0  0  0  0  0  0  0  0  0  0  0
   38.1770   32.6370   40.6960 N   0  0  0  0  0  0  0  0  0  0  0  0
   37.0340   34.0730   39.2130 N   0  0  0  0  0  0  0  0  0  0  0  0
   39.1820   31.3980   41.9900 H   0  0  0  0  0  0  0  0  0  0  0  0
   37.1100   34.2740   38.1880 H   0  0  0  0  0  0  0  0  0  0  0  0
   36.7340   34.8140   39.8940 H   0  0  0  0  0  0  0  0  0  0  0  0
   36.7190   29.2520   38.7840 N   0  0  0  0  0  0  0  0  0  0  0  0
   37.3800   29.2460   37.9520 H   0  0  0  0  0  0  0  0  0  0  0  0
   35.9600   28.6500   39.1190 H   0  0  0  0  0  0  0  0  0  0  0  0
   36.9530   26.9560   41.6820 C   0  0  0  0  0  0  0  0  0  0  0  0
   36.7030   26.0500   42.1730 H   0  0  0  0  0  0  0  0  0  0  0  0
   36.8130   26.5250   40.5350 O   0  0  0  0  0  0  0  0  0  0  0  0
  1  7  1  6  0  0  0
  1  2  1  0  0  0  0
  1  6  1  0  0  0  0
  2  3  2  0  0  0  0
  3  9  1  0  0  0  0
  3  4  1  0  0  0  0
  4  5  1  0  0  0  0
  4 11  1  0  0  0  0
  5 13  1  0  0  0  0
  5 12  1  0  0  0  0
  6 14  1  6  0  0  0
  6  5  1  0  0  0  0
  8  2  1  0  0  0  0
 10  4  1  0  0  0  0
 15 22  1  0  0  0  0
 16  1  1  0  0  0  0
 16 15  2  0  0  0  0
 17 16  1  0  0  0  0
 18 17  2  0  0  0  0
 18 19  1  0  0  0  0
 19 20  2  0  0  0  0
 20 15  1  0  0  0  0
 21 19  1  0  0  0  0
 21 24  1  0  0  0  0
 23 21  1  0  0  0  0
 25 27  1  0  0  0  0
 25 17  1  0  0  0  0
 26 25  1  0  0  0  0
 28  6  1  0  0  0  0
 28 29  1  0  0  0  0
 30 28  2  0  0  0  0
M  END
>  <minimizedAffinity>
-4.6929698

$$$$
