
 OpenBabel03252509143D

 39 42  0  0  1  0  0  0  0  0999 V2000
   47.4800   32.6180   44.2370 C   0  0  0  0  0  0  0  0  0  0  0  0
   46.7830   33.5750   43.5060 C   0  0  0  0  0  0  0  0  0  0  0  0
   45.7450   34.3140   44.0470 C   0  0  0  0  0  0  0  0  0  0  0  0
   45.3670   34.1060   45.3770 C   0  0  0  0  0  0  0  0  0  0  0  0
   44.4470   34.6150   46.2040 N   0  0  0  0  0  0  0  0  0  0  0  0
   44.5210   34.0390   47.4070 C   0  0  0  0  0  0  0  0  0  0  0  0
   45.5280   33.1430   47.3090 N   0  0  0  0  0  0  0  0  0  0  0  0
   46.0680   33.1600   46.0730 C   0  0  0  0  0  0  0  0  0  0  0  0
   47.1120   32.4000   45.5680 C   0  0  0  0  0  0  0  0  0  0  0  0
   48.2930   32.0440   43.7980 H   0  0  0  0  0  0  0  0  0  0  0  0
   43.7620   35.3640   45.9420 H   0  0  0  0  0  0  0  0  0  0  0  0
   43.9080   34.2360   48.2910 H   0  0  0  0  0  0  0  0  0  0  0  0
   47.6240   31.6690   46.1760 H   0  0  0  0  0  0  0  0  0  0  0  0
   46.9910   33.1890   39.8700 C   0  0  0  0  0  0  0  0  0  0  0  0
   47.8490   34.2260   39.4970 C   0  0  0  0  0  0  0  0  0  0  0  0
   48.3530   35.0550   40.5040 C   0  0  0  0  0  0  0  0  0  0  0  0
   47.9880   34.8200   41.8070 N   0  0  0  0  0  0  0  0  0  0  0  0
   47.1600   33.8090   42.1120 C   0  0  0  0  0  0  0  0  0  0  0  0
   46.6470   32.9800   41.1690 N   0  0  0  0  0  0  0  0  0  0  0  0
   46.5530   32.4970   39.1560 H   0  0  0  0  0  0  0  0  0  0  0  0
   48.0700   34.3230   38.4610 H   0  0  0  0  0  0  0  0  0  0  0  0
   49.0110   35.8520   40.2300 H   0  0  0  0  0  0  0  0  0  0  0  0
   44.8710   35.5320   43.0890 S   0  0  0  0  0  0  0  0  0  0  0  0
   42.3330   35.4300   42.4300 N   0  0  0  0  0  0  0  0  0  0  0  0
   43.5930   34.8340   42.0190 C   0  0  1  0  0  0  0  0  0  0  0  0
   43.9610   35.2630   40.5980 C   0  0  0  0  0  0  0  0  0  0  0  0
   42.8900   35.2310   39.7280 O   0  0  0  0  0  0  0  0  0  0  0  0
   41.7570   34.6100   40.1900 C   0  0  0  0  0  0  0  0  0  0  0  0
   41.3010   35.3060   41.4510 C   0  0  1  0  0  0  0  0  0  0  0  0
   42.1090   35.0700   43.3620 H   0  0  0  0  0  0  0  0  0  0  0  0
   43.5840   33.7330   42.1360 H   0  0  0  0  0  0  0  0  0  0  0  0
   44.6660   34.5420   40.1930 H   0  0  0  0  0  0  0  0  0  0  0  0
   44.4360   36.2510   40.5930 H   0  0  0  0  0  0  0  0  0  0  0  0
   41.9170   33.5500   40.4600 H   0  0  0  0  0  0  0  0  0  0  0  0
   40.9840   34.6980   39.4310 H   0  0  0  0  0  0  0  0  0  0  0  0
   40.9060   36.3070   41.1460 H   0  0  0  0  0  0  0  0  0  0  0  0
   40.1910   34.5110   42.0450 C   0  0  0  0  0  0  0  0  0  0  0  0
   39.9040   34.4720   43.0820 H   0  0  0  0  0  0  0  0  0  0  0  0
   39.5500   33.8410   41.2670 O   0  0  0  0  0  0  0  0  0  0  0  0
  1  9  1  0  0  0  0
  2  3  1  0  0  0  0
  2  1  2  0  0  0  0
  3  4  2  0  0  0  0
  4  8  1  0  0  0  0
  4  5  1  0  0  0  0
  5  6  1  0  0  0  0
  6 12  1  0  0  0  0
  7  6  2  0  0  0  0
  8  7  1  0  0  0  0
  9  8  2  0  0  0  0
  9 13  1  0  0  0  0
 10  1  1  0  0  0  0
 11  5  1  0  0  0  0
 14 19  1  0  0  0  0
 15 14  2  0  0  0  0
 15 16  1  0  0  0  0
 16 17  2  0  0  0  0
 17 18  1  0  0  0  0
 18  2  1  0  0  0  0
 19 18  2  0  0  0  0
 20 14  1  0  0  0  0
 21 15  1  0  0  0  0
 22 16  1  0  0  0  0
 23  3  1  0  0  0  0
 24 30  1  0  0  0  0
 25 31  1  1  0  0  0
 25 24  1  0  0  0  0
 25 23  1  0  0  0  0
 26 25  1  0  0  0  0
 27 28  1  0  0  0  0
 27 26  1  0  0  0  0
 28 34  1  0  0  0  0
 28 29  1  0  0  0  0
 29 36  1  6  0  0  0
 29 37  1  0  0  0  0
 29 24  1  0  0  0  0
 32 26  1  0  0  0  0
 33 26  1  0  0  0  0
 35 28  1  0  0  0  0
 37 38  1  0  0  0  0
 39 37  2  0  0  0  0
M  END
>  <minimizedAffinity>
-5.73850298

>  <minimizedRMSD>
0.271105081

$$$$
