
 OpenBabel03252509133D

 39 42  0  0  1  0  0  0  0  0999 V2000
   47.4780   32.5470   44.3310 C   0  0  0  0  0  0  0  0  0  0  0  0
   46.7870   33.5240   43.6210 C   0  0  0  0  0  0  0  0  0  0  0  0
   45.7540   34.2580   44.1770 C   0  0  0  0  0  0  0  0  0  0  0  0
   45.3750   34.0250   45.5030 C   0  0  0  0  0  0  0  0  0  0  0  0
   44.4600   34.5220   46.3420 N   0  0  0  0  0  0  0  0  0  0  0  0
   44.5310   33.9200   47.5320 C   0  0  0  0  0  0  0  0  0  0  0  0
   45.5320   33.0190   47.4150 N   0  0  0  0  0  0  0  0  0  0  0  0
   46.0710   33.0590   46.1780 C   0  0  0  0  0  0  0  0  0  0  0  0
   47.1100   32.3040   45.6570 C   0  0  0  0  0  0  0  0  0  0  0  0
   48.2870   31.9770   43.8790 H   0  0  0  0  0  0  0  0  0  0  0  0
   43.7790   35.2800   46.0960 H   0  0  0  0  0  0  0  0  0  0  0  0
   43.9200   34.1030   48.4210 H   0  0  0  0  0  0  0  0  0  0  0  0
   47.6170   31.5560   46.2480 H   0  0  0  0  0  0  0  0  0  0  0  0
   47.0050   33.2010   39.9780 C   0  0  0  0  0  0  0  0  0  0  0  0
   47.8540   34.2510   39.6250 C   0  0  0  0  0  0  0  0  0  0  0  0
   48.3480   35.0680   40.6470 C   0  0  0  0  0  0  0  0  0  0  0  0
   47.9830   34.8090   41.9450 N   0  0  0  0  0  0  0  0  0  0  0  0
   47.1640   33.7850   42.2310 C   0  0  0  0  0  0  0  0  0  0  0  0
   46.6610   32.9660   41.2740 N   0  0  0  0  0  0  0  0  0  0  0  0
   46.5750   32.5170   39.2520 H   0  0  0  0  0  0  0  0  0  0  0  0
   48.0760   34.3690   38.5910 H   0  0  0  0  0  0  0  0  0  0  0  0
   48.9990   35.8760   40.3880 H   0  0  0  0  0  0  0  0  0  0  0  0
   44.8870   35.5010   43.2460 S   0  0  0  0  0  0  0  0  0  0  0  0
   42.3600   35.4220   42.5440 N   0  0  0  0  0  0  0  0  0  0  0  0
   43.6260   34.8320   42.1400 C   0  0  1  0  0  0  0  0  0  0  0  0
   44.0170   35.2930   40.7350 C   0  0  0  0  0  0  0  0  0  0  0  0
   42.9610   35.2830   39.8480 O   0  0  0  0  0  0  0  0  0  0  0  0
   41.8190   34.6550   40.2770 C   0  0  0  0  0  0  0  0  0  0  0  0
   41.3450   35.3240   41.5450 C   0  0  1  0  0  0  0  0  0  0  0  0
   42.1200   35.0410   43.4630 H   0  0  0  0  0  0  0  0  0  0  0  0
   43.6120   33.7280   42.2310 H   0  0  0  0  0  0  0  0  0  0  0  0
   44.7270   34.5790   40.3250 H   0  0  0  0  0  0  0  0  0  0  0  0
   44.4960   36.2780   40.7610 H   0  0  0  0  0  0  0  0  0  0  0  0
   41.9720   33.5890   40.5240 H   0  0  0  0  0  0  0  0  0  0  0  0
   41.0580   34.7630   39.5070 H   0  0  0  0  0  0  0  0  0  0  0  0
   40.9560   36.3330   41.2570 H   0  0  0  0  0  0  0  0  0  0  0  0
   40.2220   34.5180   42.1020 C   0  0  0  0  0  0  0  0  0  0  0  0
   39.8830   34.4990   43.1240 H   0  0  0  0  0  0  0  0  0  0  0  0
   39.6360   33.8140   41.3100 O   0  0  0  0  0  0  0  0  0  0  0  0
  1  9  1  0  0  0  0
  2  3  1  0  0  0  0
  2  1  2  0  0  0  0
  3  4  2  0  0  0  0
  4  8  1  0  0  0  0
  4  5  1  0  0  0  0
  5  6  1  0  0  0  0
  6 12  1  0  0  0  0
  7  6  2  0  0  0  0
  8  7  1  0  0  0  0
  9  8  2  0  0  0  0
  9 13  1  0  0  0  0
 10  1  1  0  0  0  0
 11  5  1  0  0  0  0
 14 19  1  0  0  0  0
 15 14  2  0  0  0  0
 15 16  1  0  0  0  0
 16 17  2  0  0  0  0
 17 18  1  0  0  0  0
 18  2  1  0  0  0  0
 19 18  2  0  0  0  0
 20 14  1  0  0  0  0
 21 15  1  0  0  0  0
 22 16  1  0  0  0  0
 23  3  1  0  0  0  0
 24 30  1  0  0  0  0
 25 31  1  1  0  0  0
 25 24  1  0  0  0  0
 25 23  1  0  0  0  0
 26 33  1  0  0  0  0
 26 25  1  0  0  0  0
 27 28  1  0  0  0  0
 27 26  1  0  0  0  0
 28 34  1  0  0  0  0
 28 29  1  0  0  0  0
 29 36  1  6  0  0  0
 29 37  1  0  0  0  0
 29 24  1  0  0  0  0
 32 26  1  0  0  0  0
 35 28  1  0  0  0  0
 37 38  1  0  0  0  0
 39 37  2  0  0  0  0
M  END
>  <minimizedAffinity>
-5.69479609

>  <minimizedRMSD>
0.367297918

$$$$
