
 OpenBabel03252501143D

 22 23  0  0  1  0  0  0  0  0999 V2000
   44.4600   35.1340   41.8750 C   0  0  0  0  0  0  0  0  0  0  0  0
   43.0830   35.3440   41.8210 C   0  0  0  0  0  0  0  0  0  0  0  0
   42.3940   34.6540   40.8410 C   0  0  0  0  0  0  0  0  0  0  0  0
   43.0790   33.8290   40.0020 N   0  0  0  0  0  0  0  0  0  0  0  0
   44.4140   33.6560   40.0890 C   0  0  0  0  0  0  0  0  0  0  0  0
   45.1160   34.3220   41.0420 N   0  0  0  0  0  0  0  0  0  0  0  0
   42.5730   36.0070   42.5050 H   0  0  0  0  0  0  0  0  0  0  0  0
   44.9330   32.9950   39.4080 H   0  0  0  0  0  0  0  0  0  0  0  0
   40.9120   34.8070   40.6870 C   0  0  1  0  0  0  0  0  0  0  0  0
   40.4330   36.2230   40.7740 C   0  0  0  0  0  0  0  0  0  0  0  0
   40.3980   35.4050   39.4440 C   0  0  1  0  0  0  0  0  0  0  0  0
   40.3370   34.0580   41.2490 H   0  0  0  0  0  0  0  0  0  0  0  0
   41.1760   37.0580   40.7500 H   0  0  0  0  0  0  0  0  0  0  0  0
   39.4190   36.4560   41.1970 H   0  0  0  0  0  0  0  0  0  0  0  0
   39.4040   35.1830   39.0490 H   0  0  0  0  0  0  0  0  0  0  0  0
   41.4050   35.7740   38.4110 C   0  0  0  0  0  0  0  0  0  0  0  0
   42.4820   35.8050   38.6150 H   0  0  0  0  0  0  0  0  0  0  0  0
   41.0340   36.0540   37.2870 O   0  0  0  0  0  0  0  0  0  0  0  0
   45.2310   35.8590   42.9330 C   0  0  0  0  0  0  0  0  0  0  0  0
   46.5790   35.6620   42.6680 F   0  0  0  0  0  0  0  0  0  0  0  0
   44.9450   35.2840   44.1410 F   0  0  0  0  0  0  0  0  0  0  0  0
   44.9890   37.2080   42.8940 F   0  0  0  0  0  0  0  0  0  0  0  0
  1 19  1  0  0  0  0
  2  1  1  0  0  0  0
  2  7  1  0  0  0  0
  3  2  2  0  0  0  0
  4  5  2  0  0  0  0
  4  3  1  0  0  0  0
  5  6  1  0  0  0  0
  6  1  2  0  0  0  0
  8  5  1  0  0  0  0
  9 10  1  0  0  0  0
  9  3  1  0  0  0  0
  9 12  1  1  0  0  0
 10 14  1  0  0  0  0
 11 15  1  6  0  0  0
 11  9  1  0  0  0  0
 11 10  1  0  0  0  0
 13 10  1  0  0  0  0
 16 17  1  0  0  0  0
 16 11  1  0  0  0  0
 18 16  2  0  0  0  0
 19 21  1  0  0  0  0
 20 19  1  0  0  0  0
 22 19  1  0  0  0  0
M  END
>  <minimizedAffinity>
-4.72835541

>  <minimizedRMSD>
6.55366898

$$$$
