
 OpenBabel03252509143D

 39 42  0  0  1  0  0  0  0  0999 V2000
   47.4270   32.5670   44.2020 C   0  0  0  0  0  0  0  0  0  0  0  0
   46.7320   33.5280   43.4740 C   0  0  0  0  0  0  0  0  0  0  0  0
   45.7140   34.2860   44.0240 C   0  0  0  0  0  0  0  0  0  0  0  0
   45.3560   34.0970   45.3630 C   0  0  0  0  0  0  0  0  0  0  0  0
   44.4580   34.6270   46.2010 N   0  0  0  0  0  0  0  0  0  0  0  0
   44.5440   34.0610   47.4080 C   0  0  0  0  0  0  0  0  0  0  0  0
   45.5370   33.1490   47.3020 N   0  0  0  0  0  0  0  0  0  0  0  0
   46.0560   33.1470   46.0560 C   0  0  0  0  0  0  0  0  0  0  0  0
   47.0800   32.3680   45.5410 C   0  0  0  0  0  0  0  0  0  0  0  0
   48.2250   31.9770   43.7550 H   0  0  0  0  0  0  0  0  0  0  0  0
   43.7790   35.3830   45.9430 H   0  0  0  0  0  0  0  0  0  0  0  0
   43.9500   34.2760   48.3000 H   0  0  0  0  0  0  0  0  0  0  0  0
   47.5910   31.6340   46.1470 H   0  0  0  0  0  0  0  0  0  0  0  0
   46.8830   33.0940   39.8400 C   0  0  0  0  0  0  0  0  0  0  0  0
   47.7380   34.1230   39.4410 C   0  0  0  0  0  0  0  0  0  0  0  0
   48.2580   34.9640   40.4290 C   0  0  0  0  0  0  0  0  0  0  0  0
   47.9130   34.7480   41.7410 N   0  0  0  0  0  0  0  0  0  0  0  0
   47.0880   33.7420   42.0710 C   0  0  0  0  0  0  0  0  0  0  0  0
   46.5590   32.9020   41.1470 N   0  0  0  0  0  0  0  0  0  0  0  0
   46.4340   32.3930   39.1410 H   0  0  0  0  0  0  0  0  0  0  0  0
   47.9430   34.2070   38.4000 H   0  0  0  0  0  0  0  0  0  0  0  0
   48.9140   35.7570   40.1350 H   0  0  0  0  0  0  0  0  0  0  0  0
   44.8410   35.5080   43.0700 S   0  0  0  0  0  0  0  0  0  0  0  0
   42.3050   35.3940   42.4040 N   0  0  0  0  0  0  0  0  0  0  0  0
   43.5710   34.8130   41.9890 C   0  0  1  0  0  0  0  0  0  0  0  0
   43.9380   35.2610   40.5740 C   0  0  0  0  0  0  0  0  0  0  0  0
   42.8700   35.2300   39.7020 O   0  0  0  0  0  0  0  0  0  0  0  0
   41.7410   34.5960   40.1540 C   0  0  0  0  0  0  0  0  0  0  0  0
   41.2770   35.2740   41.4220 C   0  0  1  0  0  0  0  0  0  0  0  0
   42.0830   35.0210   43.3320 H   0  0  0  0  0  0  0  0  0  0  0  0
   43.5700   33.7100   42.0940 H   0  0  0  0  0  0  0  0  0  0  0  0
   44.6500   34.5500   40.1620 H   0  0  0  0  0  0  0  0  0  0  0  0
   44.4060   36.2520   40.5810 H   0  0  0  0  0  0  0  0  0  0  0  0
   41.9080   33.5350   40.4120 H   0  0  0  0  0  0  0  0  0  0  0  0
   40.9680   34.6870   39.3940 H   0  0  0  0  0  0  0  0  0  0  0  0
   40.8740   36.2760   41.1270 H   0  0  0  0  0  0  0  0  0  0  0  0
   40.1710   34.4630   42.0040 C   0  0  0  0  0  0  0  0  0  0  0  0
   39.3700   34.8160   42.6300 H   0  0  0  0  0  0  0  0  0  0  0  0
   40.1870   33.2840   41.7360 O   0  0  0  0  0  0  0  0  0  0  0  0
  1  9  1  0  0  0  0
  2  3  1  0  0  0  0
  2  1  2  0  0  0  0
  3  4  2  0  0  0  0
  4  8  1  0  0  0  0
  4  5  1  0  0  0  0
  5  6  1  0  0  0  0
  6 12  1  0  0  0  0
  7  6  2  0  0  0  0
  8  7  1  0  0  0  0
  9  8  2  0  0  0  0
  9 13  1  0  0  0  0
 10  1  1  0  0  0  0
 11  5  1  0  0  0  0
 14 19  1  0  0  0  0
 15 14  2  0  0  0  0
 15 16  1  0  0  0  0
 16 17  2  0  0  0  0
 17 18  1  0  0  0  0
 18  2  1  0  0  0  0
 19 18  2  0  0  0  0
 20 14  1  0  0  0  0
 21 15  1  0  0  0  0
 22 16  1  0  0  0  0
 23  3  1  0  0  0  0
 24 30  1  0  0  0  0
 25 31  1  1  0  0  0
 25 24  1  0  0  0  0
 25 23  1  0  0  0  0
 26 33  1  0  0  0  0
 26 25  1  0  0  0  0
 27 28  1  0  0  0  0
 27 26  1  0  0  0  0
 28 34  1  0  0  0  0
 28 29  1  0  0  0  0
 29 36  1  6  0  0  0
 29 37  1  0  0  0  0
 29 24  1  0  0  0  0
 32 26  1  0  0  0  0
 35 28  1  0  0  0  0
 37 38  1  0  0  0  0
 39 37  2  0  0  0  0
M  END
>  <minimizedAffinity>
-5.68518543

>  <minimizedRMSD>
0.384693593

$$$$
