
 OpenBabel03252500223D

 30 31  0  0  1  0  0  0  0  0999 V2000
   44.9110   34.3820   41.9920 C   0  0  1  0  0  0  0  0  0  0  0  0
   46.1490   34.1790   41.0990 C   0  0  0  0  0  0  0  0  0  0  0  0
   45.9780   33.6700   39.7360 C   0  0  0  0  0  0  0  0  0  0  0  0
   44.5340   33.3530   39.3570 C   0  0  0  0  0  0  0  0  0  0  0  0
   44.0300   32.5500   40.5420 C   0  0  0  0  0  0  0  0  0  0  0  0
   43.7370   33.6430   41.5920 C   0  0  2  0  0  0  0  0  0  0  0  0
   44.7960   35.5010   41.8730 H   0  0  0  0  0  0  0  0  0  0  0  0
   47.1200   34.3960   41.4410 H   0  0  0  0  0  0  0  0  0  0  0  0
   46.8720   33.5430   39.1330 H   0  0  0  0  0  0  0  0  0  0  0  0
   43.9580   34.2410   39.1220 H   0  0  0  0  0  0  0  0  0  0  0  0
   44.6550   32.6200   38.5360 H   0  0  0  0  0  0  0  0  0  0  0  0
   43.1000   32.0140   40.3370 H   0  0  0  0  0  0  0  0  0  0  0  0
   44.8280   31.9100   40.9170 H   0  0  0  0  0  0  0  0  0  0  0  0
   43.2540   33.1450   42.4730 H   0  0  0  0  0  0  0  0  0  0  0  0
   46.4660   33.2500   43.6080 C   0  0  0  0  0  0  0  0  0  0  0  0
   45.4150   34.1650   43.3710 C   0  0  0  0  0  0  0  0  0  0  0  0
   44.8390   34.7480   44.5030 C   0  0  0  0  0  0  0  0  0  0  0  0
   45.2770   34.4360   45.7460 N   0  0  0  0  0  0  0  0  0  0  0  0
   46.2920   33.5450   45.9000 C   0  0  0  0  0  0  0  0  0  0  0  0
   46.8740   32.9650   44.8330 N   0  0  0  0  0  0  0  0  0  0  0  0
   46.7730   33.2050   47.1790 N   0  0  0  0  0  0  0  0  0  0  0  0
   46.9760   32.7520   42.7930 H   0  0  0  0  0  0  0  0  0  0  0  0
   46.9750   33.9900   47.8420 H   0  0  0  0  0  0  0  0  0  0  0  0
   46.9240   32.2040   47.4570 H   0  0  0  0  0  0  0  0  0  0  0  0
   43.8160   35.7170   44.2680 N   0  0  0  0  0  0  0  0  0  0  0  0
   44.3810   36.6060   44.4020 H   0  0  0  0  0  0  0  0  0  0  0  0
   42.8410   35.4970   44.0380 H   0  0  0  0  0  0  0  0  0  0  0  0
   42.6430   34.4850   41.0060 C   0  0  0  0  0  0  0  0  0  0  0  0
   41.9560   34.4670   40.1980 H   0  0  0  0  0  0  0  0  0  0  0  0
   42.2790   35.5720   41.4620 O   0  0  0  0  0  0  0  0  0  0  0  0
  1  7  1  6  0  0  0
  1 16  1  0  0  0  0
  2  8  1  0  0  0  0
  2  1  1  0  0  0  0
  3  2  2  0  0  0  0
  4  3  1  0  0  0  0
  4  5  1  0  0  0  0
  5 13  1  0  0  0  0
  5  6  1  0  0  0  0
  6  1  1  0  0  0  0
  6 14  1  1  0  0  0
  9  3  1  0  0  0  0
 10  4  1  0  0  0  0
 11  4  1  0  0  0  0
 12  5  1  0  0  0  0
 15 20  1  0  0  0  0
 16 15  2  0  0  0  0
 16 17  1  0  0  0  0
 17 18  2  0  0  0  0
 18 19  1  0  0  0  0
 19 21  1  0  0  0  0
 20 19  2  0  0  0  0
 21 24  1  0  0  0  0
 21 23  1  0  0  0  0
 22 15  1  0  0  0  0
 25 26  1  0  0  0  0
 25 17  1  0  0  0  0
 27 25  1  0  0  0  0
 28 30  2  0  0  0  0
 28  6  1  0  0  0  0
 29 28  1  0  0  0  0
M  END
>  <minimizedAffinity>
-4.82395554

>  <minimizedRMSD>
2.51514935

$$$$
