
 OpenBabel03252509133D

 39 42  0  0  1  0  0  0  0  0999 V2000
   47.4770   32.7220   43.7270 C   0  0  0  0  0  0  0  0  0  0  0  0
   46.7190   33.5520   42.9070 C   0  0  0  0  0  0  0  0  0  0  0  0
   45.6580   34.3010   43.3850 C   0  0  0  0  0  0  0  0  0  0  0  0
   45.3180   34.2360   44.7400 C   0  0  0  0  0  0  0  0  0  0  0  0
   44.3930   34.7960   45.5260 N   0  0  0  0  0  0  0  0  0  0  0  0
   44.5200   34.3710   46.7860 C   0  0  0  0  0  0  0  0  0  0  0  0
   45.5680   33.5170   46.7670 N   0  0  0  0  0  0  0  0  0  0  0  0
   46.0800   33.4120   45.5230 C   0  0  0  0  0  0  0  0  0  0  0  0
   47.1490   32.6470   45.0830 C   0  0  0  0  0  0  0  0  0  0  0  0
   48.3080   32.1380   43.3370 H   0  0  0  0  0  0  0  0  0  0  0  0
   43.6660   35.4760   45.1960 H   0  0  0  0  0  0  0  0  0  0  0  0
   43.9180   34.6440   47.6560 H   0  0  0  0  0  0  0  0  0  0  0  0
   47.7080   32.0170   45.7590 H   0  0  0  0  0  0  0  0  0  0  0  0
   46.8140   32.7850   39.3270 C   0  0  0  0  0  0  0  0  0  0  0  0
   47.6650   33.7710   38.8220 C   0  0  0  0  0  0  0  0  0  0  0  0
   48.2020   34.6970   39.7210 C   0  0  0  0  0  0  0  0  0  0  0  0
   47.8770   34.6030   41.0520 N   0  0  0  0  0  0  0  0  0  0  0  0
   47.0540   33.6360   41.4860 C   0  0  0  0  0  0  0  0  0  0  0  0
   46.5090   32.7160   40.6510 N   0  0  0  0  0  0  0  0  0  0  0  0
   46.3520   32.0260   38.7030 H   0  0  0  0  0  0  0  0  0  0  0  0
   47.8540   33.7570   37.7750 H   0  0  0  0  0  0  0  0  0  0  0  0
   48.8550   35.4570   39.3450 H   0  0  0  0  0  0  0  0  0  0  0  0
   44.7050   35.3550   42.3140 S   0  0  0  0  0  0  0  0  0  0  0  0
   42.4330   34.0720   42.0310 N   0  0  0  0  0  0  0  0  0  0  0  0
   43.5800   34.4560   41.2240 C   0  0  1  0  0  0  0  0  0  0  0  0
   43.1710   35.4500   40.1360 C   0  0  0  0  0  0  0  0  0  0  0  0
   41.9920   35.1090   39.5060 O   0  0  0  0  0  0  0  0  0  0  0  0
   41.5100   33.8510   39.7690 C   0  0  0  0  0  0  0  0  0  0  0  0
   41.2870   33.7190   41.2570 C   0  0  1  0  0  0  0  0  0  0  0  0
   42.7510   33.3690   42.7050 H   0  0  0  0  0  0  0  0  0  0  0  0
   44.1040   33.5730   40.8100 H   0  0  0  0  0  0  0  0  0  0  0  0
   43.9200   35.4260   39.3500 H   0  0  0  0  0  0  0  0  0  0  0  0
   43.1190   36.4710   40.5320 H   0  0  0  0  0  0  0  0  0  0  0  0
   42.2100   33.0450   39.4850 H   0  0  0  0  0  0  0  0  0  0  0  0
   40.5610   33.7330   39.2520 H   0  0  0  0  0  0  0  0  0  0  0  0
   40.4070   34.3600   41.5140 H   0  0  0  0  0  0  0  0  0  0  0  0
   40.9490   32.2980   41.5500 C   0  0  0  0  0  0  0  0  0  0  0  0
   41.4900   31.4240   41.2320 H   0  0  0  0  0  0  0  0  0  0  0  0
   39.9570   32.1210   42.2200 O   0  0  0  0  0  0  0  0  0  0  0  0
  1  9  1  0  0  0  0
  2  3  1  0  0  0  0
  2  1  2  0  0  0  0
  3  4  2  0  0  0  0
  4  8  1  0  0  0  0
  4  5  1  0  0  0  0
  5  6  1  0  0  0  0
  6 12  1  0  0  0  0
  7  6  2  0  0  0  0
  8  7  1  0  0  0  0
  9  8  2  0  0  0  0
  9 13  1  0  0  0  0
 10  1  1  0  0  0  0
 11  5  1  0  0  0  0
 14 19  1  0  0  0  0
 15 14  2  0  0  0  0
 15 16  1  0  0  0  0
 16 17  2  0  0  0  0
 17 18  1  0  0  0  0
 18  2  1  0  0  0  0
 19 18  2  0  0  0  0
 20 14  1  0  0  0  0
 21 15  1  0  0  0  0
 22 16  1  0  0  0  0
 23  3  1  0  0  0  0
 24 30  1  0  0  0  0
 25 31  1  6  0  0  0
 25 24  1  0  0  0  0
 25 23  1  0  0  0  0
 26 33  1  0  0  0  0
 26 25  1  0  0  0  0
 27 28  1  0  0  0  0
 27 26  1  0  0  0  0
 28 29  1  0  0  0  0
 29 36  1  1  0  0  0
 29 37  1  0  0  0  0
 29 24  1  0  0  0  0
 32 26  1  0  0  0  0
 34 28  1  0  0  0  0
 35 28  1  0  0  0  0
 37 39  2  0  0  0  0
 38 37  1  0  0  0  0
M  END
>  <minimizedAffinity>
-5.2199316

>  <minimizedRMSD>
1.31145537

$$$$
