
 OpenBabel03242519083D

 37 39  0  0  1  0  0  0  0  0999 V2000
   39.6910   27.4770   43.1800 N   0  0  0  0  0  0  0  0  0  0  0  0
   39.0470   28.3730   42.2460 C   0  0  0  0  0  0  0  0  0  0  0  0
   38.1080   29.0670   43.1950 C   0  0  2  0  0  0  0  0  0  0  0  0
   37.4730   27.8830   43.8940 C   0  0  0  0  0  0  0  0  0  0  0  0
   38.6270   26.9150   43.9950 C   0  0  0  0  0  0  0  0  0  0  0  0
   38.5160   27.8550   41.4380 H   0  0  0  0  0  0  0  0  0  0  0  0
   39.8100   29.1050   41.8640 H   0  0  0  0  0  0  0  0  0  0  0  0
   38.7010   29.7000   43.8590 H   0  0  0  0  0  0  0  0  0  0  0  0
   37.1410   28.1910   44.9090 H   0  0  0  0  0  0  0  0  0  0  0  0
   36.6400   27.4950   43.2810 H   0  0  0  0  0  0  0  0  0  0  0  0
   38.9820   26.7830   45.0360 H   0  0  0  0  0  0  0  0  0  0  0  0
   38.2970   25.9790   43.5170 H   0  0  0  0  0  0  0  0  0  0  0  0
   43.3660   27.6110   43.7400 C   0  0  0  0  0  0  0  0  0  0  0  0
   42.0610   28.0630   43.6030 C   0  0  0  0  0  0  0  0  0  0  0  0
   41.0460   27.1560   43.3390 C   0  0  0  0  0  0  0  0  0  0  0  0
   41.4020   25.8400   43.2260 N   0  0  0  0  0  0  0  0  0  0  0  0
   42.6700   25.4020   43.3580 C   0  0  0  0  0  0  0  0  0  0  0  0
   43.6510   26.2950   43.6150 N   0  0  0  0  0  0  0  0  0  0  0  0
   44.0460   28.4190   43.9410 H   0  0  0  0  0  0  0  0  0  0  0  0
   41.7490   29.1000   43.6880 H   0  0  0  0  0  0  0  0  0  0  0  0
   42.9180   24.3590   43.2640 H   0  0  0  0  0  0  0  0  0  0  0  0
   37.0490   29.7730   42.5170 N   0  0  0  0  0  0  0  0  0  0  0  0
   36.4220   30.3600   43.1150 H   0  0  0  0  0  0  0  0  0  0  0  0
   37.1860   30.7760   40.2430 C   0  0  0  0  0  0  0  0  0  0  0  0
   36.6740   29.8360   41.1590 C   0  0  0  0  0  0  0  0  0  0  0  0
   35.7590   28.9620   40.6180 C   0  0  0  0  0  0  0  0  0  0  0  0
   35.3470   28.9660   39.3020 C   0  0  0  0  0  0  0  0  0  0  0  0
   35.8610   29.8890   38.4400 C   0  0  0  0  0  0  0  0  0  0  0  0
   36.7740   30.7780   38.9310 C   0  0  0  0  0  0  0  0  0  0  0  0
   35.3100   28.2000   41.2520 H   0  0  0  0  0  0  0  0  0  0  0  0
   34.6240   28.2520   38.9410 H   0  0  0  0  0  0  0  0  0  0  0  0
   35.5720   29.9360   37.3980 H   0  0  0  0  0  0  0  0  0  0  0  0
   37.3260   31.7660   38.0130 C   0  0  0  0  0  0  0  0  0  0  0  0
   36.9920   32.7550   37.8260 H   0  0  0  0  0  0  0  0  0  0  0  0
   38.3460   31.5230   37.2830 O   0  0  0  0  0  0  0  0  0  0  0  0
   38.9240   32.5020   41.1420 N   0  0  0  0  0  0  0  0  0  0  0  0
   38.1560   31.7320   40.7330 C   0  0  0  0  0  0  0  0  0  0  0  0
  1 15  1  0  0  0  0
  1  5  1  0  0  0  0
  2  1  1  0  0  0  0
  2  3  1  0  0  0  0
  3  8  1  1  0  0  0
  3  4  1  0  0  0  0
  4  5  1  0  0  0  0
  4  9  1  0  0  0  0
  5 11  1  0  0  0  0
  6  2  1  0  0  0  0
  7  2  1  0  0  0  0
 10  4  1  0  0  0  0
 12  5  1  0  0  0  0
 13 19  1  0  0  0  0
 14 20  1  0  0  0  0
 14 13  2  0  0  0  0
 15 14  1  0  0  0  0
 16 15  2  0  0  0  0
 16 17  1  0  0  0  0
 17 18  2  0  0  0  0
 18 13  1  0  0  0  0
 21 17  1  0  0  0  0
 22 23  1  0  0  0  0
 22  3  1  0  0  0  0
 24 37  1  0  0  0  0
 24 25  1  0  0  0  0
 25 22  1  0  0  0  0
 26 25  2  0  0  0  0
 26 30  1  0  0  0  0
 27 26  1  0  0  0  0
 28 29  1  0  0  0  0
 28 27  2  0  0  0  0
 29 24  2  0  0  0  0
 31 27  1  0  0  0  0
 32 28  1  0  0  0  0
 33 29  1  0  0  0  0
 34 33  1  0  0  0  0
 35 33  2  0  0  0  0
 37 36  3  0  0  0  0
M  END
>  <minimizedAffinity>
-5.28740406

$$$$

 OpenBabel03242519083D

 37 39  0  0  1  0  0  0  0  0999 V2000
   39.0450   32.5710   39.9830 N   0  0  0  0  0  0  0  0  0  0  0  0
   39.0480   31.5780   41.0340 C   0  0  0  0  0  0  0  0  0  0  0  0
   37.9000   30.7290   40.5590 C   0  0  2  0  0  0  0  0  0  0  0  0
   36.8400   31.7830   40.3170 C   0  0  0  0  0  0  0  0  0  0  0  0
   37.6530   32.9370   39.7810 C   0  0  0  0  0  0  0  0  0  0  0  0
   38.8730   31.9980   42.0320 H   0  0  0  0  0  0  0  0  0  0  0  0
   40.0060   30.9910   40.9720 H   0  0  0  0  0  0  0  0  0  0  0  0
   38.2130   30.2070   39.6530 H   0  0  0  0  0  0  0  0  0  0  0  0
   36.1330   31.4200   39.5410 H   0  0  0  0  0  0  0  0  0  0  0  0
   36.3310   32.0220   41.2670 H   0  0  0  0  0  0  0  0  0  0  0  0
   37.4670   33.1270   38.7060 H   0  0  0  0  0  0  0  0  0  0  0  0
   37.4380   33.8020   40.4290 H   0  0  0  0  0  0  0  0  0  0  0  0
   41.8280   34.7230   38.7710 C   0  0  0  0  0  0  0  0  0  0  0  0
   40.7880   34.2850   39.5810 C   0  0  0  0  0  0  0  0  0  0  0  0
   40.1090   33.1220   39.2550 C   0  0  0  0  0  0  0  0  0  0  0  0
   40.5150   32.4600   38.1280 N   0  0  0  0  0  0  0  0  0  0  0  0
   41.5240   32.8860   37.3430 C   0  0  0  0  0  0  0  0  0  0  0  0
   42.1780   34.0210   37.6700 N   0  0  0  0  0  0  0  0  0  0  0  0
   42.2620   35.6340   39.1420 H   0  0  0  0  0  0  0  0  0  0  0  0
   40.4440   34.7900   40.4800 H   0  0  0  0  0  0  0  0  0  0  0  0
   41.8200   32.3420   36.4620 H   0  0  0  0  0  0  0  0  0  0  0  0
   37.3940   29.8510   41.5860 N   0  0  0  0  0  0  0  0  0  0  0  0
   36.5720   30.1990   42.1330 H   0  0  0  0  0  0  0  0  0  0  0  0
   37.4350   27.3720   41.3680 C   0  0  0  0  0  0  0  0  0  0  0  0
   37.7960   28.5700   42.0160 C   0  0  0  0  0  0  0  0  0  0  0  0
   38.5890   28.3940   43.1270 C   0  0  0  0  0  0  0  0  0  0  0  0
   39.0180   27.1730   43.6030 C   0  0  0  0  0  0  0  0  0  0  0  0
   38.6520   26.0310   42.9530 C   0  0  0  0  0  0  0  0  0  0  0  0
   37.8650   26.1560   41.8440 C   0  0  0  0  0  0  0  0  0  0  0  0
   38.9160   29.2640   43.6920 H   0  0  0  0  0  0  0  0  0  0  0  0
   39.6390   27.1040   44.4820 H   0  0  0  0  0  0  0  0  0  0  0  0
   38.9620   25.0490   43.2860 H   0  0  0  0  0  0  0  0  0  0  0  0
   37.4720   24.9380   41.1470 C   0  0  0  0  0  0  0  0  0  0  0  0
   37.9080   24.4990   40.2860 H   0  0  0  0  0  0  0  0  0  0  0  0
   36.4870   24.2220   41.5300 O   0  0  0  0  0  0  0  0  0  0  0  0
   35.9350   27.5690   39.2410 N   0  0  0  0  0  0  0  0  0  0  0  0
   36.6020   27.4710   40.1890 C   0  0  0  0  0  0  0  0  0  0  0  0
  1  2  1  0  0  0  0
  2  6  1  0  0  0  0
  3  8  1  6  0  0  0
  3  2  1  0  0  0  0
  3 22  1  0  0  0  0
  4  3  1  0  0  0  0
  4 10  1  0  0  0  0
  5  1  1  0  0  0  0
  5  4  1  0  0  0  0
  5 12  1  0  0  0  0
  7  2  1  0  0  0  0
  9  4  1  0  0  0  0
 11  5  1  0  0  0  0
 13 19  1  0  0  0  0
 13 14  1  0  0  0  0
 14 20  1  0  0  0  0
 15 14  2  0  0  0  0
 15  1  1  0  0  0  0
 16 15  1  0  0  0  0
 17 18  1  0  0  0  0
 17 16  2  0  0  0  0
 18 13  2  0  0  0  0
 21 17  1  0  0  0  0
 22 25  1  0  0  0  0
 22 23  1  0  0  0  0
 24 29  2  0  0  0  0
 24 25  1  0  0  0  0
 25 26  2  0  0  0  0
 26 27  1  0  0  0  0
 26 30  1  0  0  0  0
 27 31  1  0  0  0  0
 28 32  1  0  0  0  0
 28 27  2  0  0  0  0
 29 28  1  0  0  0  0
 33 35  2  0  0  0  0
 33 29  1  0  0  0  0
 34 33  1  0  0  0  0
 36 37  3  0  0  0  0
 37 24  1  0  0  0  0
M  END
>  <minimizedAffinity>
-5.22713947

$$$$

 OpenBabel03242519083D

 37 39  0  0  1  0  0  0  0  0999 V2000
   39.0450   31.1350   41.3650 N   0  0  0  0  0  0  0  0  0  0  0  0
   38.0150   30.2990   40.7900 C   0  0  0  0  0  0  0  0  0  0  0  0
   37.2760   29.9360   42.0500 C   0  0  2  0  0  0  0  0  0  0  0  0
   38.4170   29.4820   42.9360 C   0  0  0  0  0  0  0  0  0  0  0  0
   39.5250   30.4290   42.5420 C   0  0  0  0  0  0  0  0  0  0  0  0
   38.4080   29.4170   40.2690 H   0  0  0  0  0  0  0  0  0  0  0  0
   37.3590   30.9350   40.1350 H   0  0  0  0  0  0  0  0  0  0  0  0
   36.7670   30.8300   42.4160 H   0  0  0  0  0  0  0  0  0  0  0  0
   38.1400   29.6390   44.0010 H   0  0  0  0  0  0  0  0  0  0  0  0
   38.6580   28.4270   42.7180 H   0  0  0  0  0  0  0  0  0  0  0  0
   39.7700   31.1550   43.3410 H   0  0  0  0  0  0  0  0  0  0  0  0
   40.3790   29.8040   42.2320 H   0  0  0  0  0  0  0  0  0  0  0  0
   39.3950   34.6820   40.2990 C   0  0  0  0  0  0  0  0  0  0  0  0
   38.7760   33.5100   40.7110 C   0  0  0  0  0  0  0  0  0  0  0  0
   39.5400   32.3780   40.9470 C   0  0  0  0  0  0  0  0  0  0  0  0
   40.8910   32.4890   40.7540 N   0  0  0  0  0  0  0  0  0  0  0  0
   41.4900   33.6270   40.3540 C   0  0  0  0  0  0  0  0  0  0  0  0
   40.7350   34.7230   40.1270 N   0  0  0  0  0  0  0  0  0  0  0  0
   38.6830   35.4750   40.1550 H   0  0  0  0  0  0  0  0  0  0  0  0
   37.7070   33.3920   40.8720 H   0  0  0  0  0  0  0  0  0  0  0  0
   42.5560   33.6820   40.2120 H   0  0  0  0  0  0  0  0  0  0  0  0
   36.4010   28.8030   41.8770 N   0  0  0  0  0  0  0  0  0  0  0  0
   35.3800   28.9740   42.0350 H   0  0  0  0  0  0  0  0  0  0  0  0
   36.5050   26.9470   40.2210 C   0  0  0  0  0  0  0  0  0  0  0  0
   36.6520   27.4600   41.5250 C   0  0  0  0  0  0  0  0  0  0  0  0
   37.0680   26.5330   42.4520 C   0  0  0  0  0  0  0  0  0  0  0  0
   37.3300   25.2080   42.1790 C   0  0  0  0  0  0  0  0  0  0  0  0
   37.1790   24.7410   40.9060 C   0  0  0  0  0  0  0  0  0  0  0  0
   36.7680   25.6250   39.9500 C   0  0  0  0  0  0  0  0  0  0  0  0
   37.2080   26.8390   43.4870 H   0  0  0  0  0  0  0  0  0  0  0  0
   37.6540   24.5300   42.9540 H   0  0  0  0  0  0  0  0  0  0  0  0
   37.3720   23.7100   40.6380 H   0  0  0  0  0  0  0  0  0  0  0  0
   36.6060   25.1310   38.5890 C   0  0  0  0  0  0  0  0  0  0  0  0
   37.2460   25.2670   37.7550 H   0  0  0  0  0  0  0  0  0  0  0  0
   35.5980   24.4310   38.2350 O   0  0  0  0  0  0  0  0  0  0  0  0
   35.7050   28.5860   38.3540 N   0  0  0  0  0  0  0  0  0  0  0  0
   36.0710   27.8600   39.1850 C   0  0  0  0  0  0  0  0  0  0  0  0
  1  5  1  0  0  0  0
  2  1  1  0  0  0  0
  2  3  1  0  0  0  0
  3  8  1  1  0  0  0
  3  4  1  0  0  0  0
  4  9  1  0  0  0  0
  5  4  1  0  0  0  0
  5 11  1  0  0  0  0
  6  2  1  0  0  0  0
  7  2  1  0  0  0  0
 10  4  1  0  0  0  0
 12  5  1  0  0  0  0
 13 14  1  0  0  0  0
 14 20  1  0  0  0  0
 14 15  2  0  0  0  0
 15  1  1  0  0  0  0
 16 15  1  0  0  0  0
 17 16  2  0  0  0  0
 18 13  2  0  0  0  0
 18 17  1  0  0  0  0
 19 13  1  0  0  0  0
 21 17  1  0  0  0  0
 22 23  1  0  0  0  0
 22  3  1  0  0  0  0
 24 25  1  0  0  0  0
 25 22  1  0  0  0  0
 25 26  2  0  0  0  0
 26 30  1  0  0  0  0
 27 26  1  0  0  0  0
 27 31  1  0  0  0  0
 28 27  2  0  0  0  0
 29 24  2  0  0  0  0
 29 28  1  0  0  0  0
 32 28  1  0  0  0  0
 33 29  1  0  0  0  0
 34 33  1  0  0  0  0
 35 33  2  0  0  0  0
 36 37  3  0  0  0  0
 37 24  1  0  0  0  0
M  END
>  <minimizedAffinity>
-5.19938993

$$$$

 OpenBabel03242519083D

 37 39  0  0  1  0  0  0  0  0999 V2000
   36.5390   30.1780   38.5050 N   0  0  0  0  0  0  0  0  0  0  0  0
   36.8520   29.4390   39.7080 C   0  0  0  0  0  0  0  0  0  0  0  0
   36.3200   30.4120   40.7260 C   0  0  2  0  0  0  0  0  0  0  0  0
   36.9690   31.7000   40.2630 C   0  0  0  0  0  0  0  0  0  0  0  0
   36.9410   31.5510   38.7610 C   0  0  0  0  0  0  0  0  0  0  0  0
   37.9230   29.2450   39.8360 H   0  0  0  0  0  0  0  0  0  0  0  0
   36.2350   28.4990   39.7240 H   0  0  0  0  0  0  0  0  0  0  0  0
   35.2310   30.4210   40.6540 H   0  0  0  0  0  0  0  0  0  0  0  0
   36.3390   32.5610   40.5750 H   0  0  0  0  0  0  0  0  0  0  0  0
   37.9940   31.7650   40.6680 H   0  0  0  0  0  0  0  0  0  0  0  0
   36.2290   32.2460   38.2770 H   0  0  0  0  0  0  0  0  0  0  0  0
   37.9800   31.6660   38.4130 H   0  0  0  0  0  0  0  0  0  0  0  0
   34.3060   28.7050   35.9190 C   0  0  0  0  0  0  0  0  0  0  0  0
   34.7590   29.0780   37.1770 C   0  0  0  0  0  0  0  0  0  0  0  0
   35.9680   29.7450   37.3000 C   0  0  0  0  0  0  0  0  0  0  0  0
   36.6570   30.0010   36.1460 N   0  0  0  0  0  0  0  0  0  0  0  0
   36.2160   29.6380   34.9250 C   0  0  0  0  0  0  0  0  0  0  0  0
   35.0370   28.9890   34.8180 N   0  0  0  0  0  0  0  0  0  0  0  0
   33.3600   28.1980   35.9740 H   0  0  0  0  0  0  0  0  0  0  0  0
   34.2350   28.8890   38.1100 H   0  0  0  0  0  0  0  0  0  0  0  0
   36.7820   29.8550   34.0350 H   0  0  0  0  0  0  0  0  0  0  0  0
   36.8090   30.1500   42.0570 N   0  0  0  0  0  0  0  0  0  0  0  0
   36.5590   30.8520   42.7920 H   0  0  0  0  0  0  0  0  0  0  0  0
   38.9880   29.1320   42.6990 C   0  0  0  0  0  0  0  0  0  0  0  0
   37.5840   29.0980   42.5890 C   0  0  0  0  0  0  0  0  0  0  0  0
   37.0100   27.9360   43.0510 C   0  0  0  0  0  0  0  0  0  0  0  0
   37.7060   26.8710   43.5820 C   0  0  0  0  0  0  0  0  0  0  0  0
   39.0650   26.9340   43.6750 C   0  0  0  0  0  0  0  0  0  0  0  0
   39.6800   28.0690   43.2290 C   0  0  0  0  0  0  0  0  0  0  0  0
   35.9290   27.8200   43.0060 H   0  0  0  0  0  0  0  0  0  0  0  0
   37.1940   25.9850   43.9260 H   0  0  0  0  0  0  0  0  0  0  0  0
   39.6580   26.1260   44.0830 H   0  0  0  0  0  0  0  0  0  0  0  0
   41.1320   28.1410   43.3270 C   0  0  0  0  0  0  0  0  0  0  0  0
   41.7950   28.8160   42.8480 H   0  0  0  0  0  0  0  0  0  0  0  0
   41.8060   27.3370   44.0540 O   0  0  0  0  0  0  0  0  0  0  0  0
   40.2030   31.2890   41.8710 N   0  0  0  0  0  0  0  0  0  0  0  0
   39.6700   30.3230   42.2360 C   0  0  0  0  0  0  0  0  0  0  0  0
  1  5  1  0  0  0  0
  1  2  1  0  0  0  0
  2  7  1  0  0  0  0
  2  6  1  0  0  0  0
  2  3  1  0  0  0  0
  3  8  1  6  0  0  0
  3 22  1  0  0  0  0
  4  9  1  0  0  0  0
  4 10  1  0  0  0  0
  4  3  1  0  0  0  0
  5  4  1  0  0  0  0
 11  5  1  0  0  0  0
 12  5  1  0  0  0  0
 13 19  1  0  0  0  0
 13 14  1  0  0  0  0
 14 15  2  0  0  0  0
 14 20  1  0  0  0  0
 15  1  1  0  0  0  0
 16 15  1  0  0  0  0
 17 16  2  0  0  0  0
 18 17  1  0  0  0  0
 18 13  2  0  0  0  0
 21 17  1  0  0  0  0
 22 25  1  0  0  0  0
 22 23  1  0  0  0  0
 24 29  1  0  0  0  0
 25 24  2  0  0  0  0
 25 26  1  0  0  0  0
 26 27  2  0  0  0  0
 27 28  1  0  0  0  0
 27 31  1  0  0  0  0
 28 32  1  0  0  0  0
 29 33  1  0  0  0  0
 29 28  2  0  0  0  0
 30 26  1  0  0  0  0
 33 35  2  0  0  0  0
 34 33  1  0  0  0  0
 36 37  3  0  0  0  0
 37 24  1  0  0  0  0
M  END
>  <minimizedAffinity>
-5.13080454

$$$$

 OpenBabel03242519083D

 37 39  0  0  1  0  0  0  0  0999 V2000
   36.8610   30.3610   38.7590 N   0  0  0  0  0  0  0  0  0  0  0  0
   37.4710   29.6710   39.8730 C   0  0  0  0  0  0  0  0  0  0  0  0
   36.9360   30.5180   40.9960 C   0  0  2  0  0  0  0  0  0  0  0  0
   37.2770   31.9080   40.4990 C   0  0  0  0  0  0  0  0  0  0  0  0
   37.0530   31.7790   39.0110 C   0  0  0  0  0  0  0  0  0  0  0  0
   38.5670   29.6670   39.8390 H   0  0  0  0  0  0  0  0  0  0  0  0
   37.0350   28.6360   39.9380 H   0  0  0  0  0  0  0  0  0  0  0  0
   35.8630   30.3350   41.0800 H   0  0  0  0  0  0  0  0  0  0  0  0
   36.5610   32.6380   40.9320 H   0  0  0  0  0  0  0  0  0  0  0  0
   38.3240   32.1460   40.7560 H   0  0  0  0  0  0  0  0  0  0  0  0
   36.1680   32.3450   38.6630 H   0  0  0  0  0  0  0  0  0  0  0  0
   37.9940   32.0810   38.5230 H   0  0  0  0  0  0  0  0  0  0  0  0
   34.4300   28.7510   36.4470 C   0  0  0  0  0  0  0  0  0  0  0  0
   34.9750   29.2060   37.6410 C   0  0  0  0  0  0  0  0  0  0  0  0
   36.2010   29.8530   37.6310 C   0  0  0  0  0  0  0  0  0  0  0  0
   36.8130   30.0070   36.4170 N   0  0  0  0  0  0  0  0  0  0  0  0
   36.2840   29.5650   35.2600 C   0  0  0  0  0  0  0  0  0  0  0  0
   35.0890   28.9350   35.2810 N   0  0  0  0  0  0  0  0  0  0  0  0
   33.4810   28.2700   36.6030 H   0  0  0  0  0  0  0  0  0  0  0  0
   34.5120   29.0980   38.6180 H   0  0  0  0  0  0  0  0  0  0  0  0
   36.7900   29.7010   34.3200 H   0  0  0  0  0  0  0  0  0  0  0  0
   37.6540   30.3250   42.2320 N   0  0  0  0  0  0  0  0  0  0  0  0
   37.2870   30.8360   43.0690 H   0  0  0  0  0  0  0  0  0  0  0  0
   38.7410   28.2620   43.1020 C   0  0  0  0  0  0  0  0  0  0  0  0
   38.7940   29.5590   42.5530 C   0  0  0  0  0  0  0  0  0  0  0  0
   40.0680   30.0330   42.3480 C   0  0  0  0  0  0  0  0  0  0  0  0
   41.2240   29.3400   42.6390 C   0  0  0  0  0  0  0  0  0  0  0  0
   41.1400   28.0860   43.1690 C   0  0  0  0  0  0  0  0  0  0  0  0
   39.8940   27.5710   43.3900 C   0  0  0  0  0  0  0  0  0  0  0  0
   40.2060   31.0280   41.9280 H   0  0  0  0  0  0  0  0  0  0  0  0
   42.1960   29.7700   42.4550 H   0  0  0  0  0  0  0  0  0  0  0  0
   42.0160   27.4990   43.4150 H   0  0  0  0  0  0  0  0  0  0  0  0
   39.8010   26.2320   43.9570 C   0  0  0  0  0  0  0  0  0  0  0  0
   39.5990   25.9510   44.9590 H   0  0  0  0  0  0  0  0  0  0  0  0
   39.9640   25.1810   43.2500 O   0  0  0  0  0  0  0  0  0  0  0  0
   36.3780   27.2450   43.5430 N   0  0  0  0  0  0  0  0  0  0  0  0
   37.4350   27.6880   43.3470 C   0  0  0  0  0  0  0  0  0  0  0  0
  1  5  1  0  0  0  0
  1  2  1  0  0  0  0
  2  7  1  0  0  0  0
  2  3  1  0  0  0  0
  3  8  1  1  0  0  0
  3 22  1  0  0  0  0
  4 10  1  0  0  0  0
  4  9  1  0  0  0  0
  4  3  1  0  0  0  0
  5  4  1  0  0  0  0
  6  2  1  0  0  0  0
 11  5  1  0  0  0  0
 12  5  1  0  0  0  0
 13 19  1  0  0  0  0
 13 14  1  0  0  0  0
 14 20  1  0  0  0  0
 15 14  2  0  0  0  0
 15  1  1  0  0  0  0
 16 15  1  0  0  0  0
 17 18  1  0  0  0  0
 17 16  2  0  0  0  0
 18 13  2  0  0  0  0
 21 17  1  0  0  0  0
 22 25  1  0  0  0  0
 22 23  1  0  0  0  0
 24 37  1  0  0  0  0
 24 29  1  0  0  0  0
 25 24  2  0  0  0  0
 26 25  1  0  0  0  0
 26 27  2  0  0  0  0
 27 28  1  0  0  0  0
 28 29  2  0  0  0  0
 28 32  1  0  0  0  0
 29 33  1  0  0  0  0
 30 26  1  0  0  0  0
 31 27  1  0  0  0  0
 33 34  1  0  0  0  0
 35 33  2  0  0  0  0
 37 36  3  0  0  0  0
M  END
>  <minimizedAffinity>
-5.09482479

$$$$

 OpenBabel03242519083D

 37 39  0  0  1  0  0  0  0  0999 V2000
   37.6630   26.9530   41.9810 N   0  0  0  0  0  0  0  0  0  0  0  0
   38.1970   28.2340   41.5770 C   0  0  0  0  0  0  0  0  0  0  0  0
   38.5940   28.7610   42.9290 C   0  0  2  0  0  0  0  0  0  0  0  0
   37.3250   28.5210   43.7190 C   0  0  0  0  0  0  0  0  0  0  0  0
   36.8340   27.2130   43.1460 C   0  0  0  0  0  0  0  0  0  0  0  0
   37.4610   28.8770   41.0780 H   0  0  0  0  0  0  0  0  0  0  0  0
   39.1160   28.0600   40.9520 H   0  0  0  0  0  0  0  0  0  0  0  0
   39.4470   28.1790   43.2850 H   0  0  0  0  0  0  0  0  0  0  0  0
   37.5790   28.3970   44.7930 H   0  0  0  0  0  0  0  0  0  0  0  0
   36.6200   29.3540   43.5490 H   0  0  0  0  0  0  0  0  0  0  0  0
   36.9200   26.3750   43.8630 H   0  0  0  0  0  0  0  0  0  0  0  0
   35.8050   27.3910   42.7920 H   0  0  0  0  0  0  0  0  0  0  0  0
   37.3160   23.3790   41.0080 C   0  0  0  0  0  0  0  0  0  0  0  0
   37.0130   24.5900   41.6150 C   0  0  0  0  0  0  0  0  0  0  0  0
   37.8520   25.6780   41.4290 C   0  0  0  0  0  0  0  0  0  0  0  0
   38.9520   25.4870   40.6390 N   0  0  0  0  0  0  0  0  0  0  0  0
   39.2450   24.3110   40.0500 C   0  0  0  0  0  0  0  0  0  0  0  0
   38.4220   23.2580   40.2390 N   0  0  0  0  0  0  0  0  0  0  0  0
   36.5830   22.6260   41.2380 H   0  0  0  0  0  0  0  0  0  0  0  0
   36.1480   24.7710   42.2470 H   0  0  0  0  0  0  0  0  0  0  0  0
   40.1200   24.1920   39.4340 H   0  0  0  0  0  0  0  0  0  0  0  0
   38.8260   30.1840   42.9270 N   0  0  0  0  0  0  0  0  0  0  0  0
   38.1500   30.7680   43.4730 H   0  0  0  0  0  0  0  0  0  0  0  0
   39.5780   31.8390   41.2260 C   0  0  0  0  0  0  0  0  0  0  0  0
   39.8190   30.9800   42.3170 C   0  0  0  0  0  0  0  0  0  0  0  0
   41.1230   30.9740   42.7530 C   0  0  0  0  0  0  0  0  0  0  0  0
   42.1410   31.7230   42.2040 C   0  0  0  0  0  0  0  0  0  0  0  0
   41.8770   32.5460   41.1490 C   0  0  0  0  0  0  0  0  0  0  0  0
   40.5950   32.5870   40.6800 C   0  0  0  0  0  0  0  0  0  0  0  0
   41.4020   30.3380   43.5920 H   0  0  0  0  0  0  0  0  0  0  0  0
   43.1460   31.6720   42.5940 H   0  0  0  0  0  0  0  0  0  0  0  0
   42.6400   33.1550   40.6820 H   0  0  0  0  0  0  0  0  0  0  0  0
   40.3080   33.4640   39.5530 C   0  0  0  0  0  0  0  0  0  0  0  0
   40.1960   33.2110   38.5300 H   0  0  0  0  0  0  0  0  0  0  0  0
   40.1520   34.7230   39.6940 O   0  0  0  0  0  0  0  0  0  0  0  0
   37.1520   31.9630   40.2730 N   0  0  0  0  0  0  0  0  0  0  0  0
   38.2290   31.9040   40.7070 C   0  0  0  0  0  0  0  0  0  0  0  0
  1  5  1  0  0  0  0
  2  1  1  0  0  0  0
  2  3  1  0  0  0  0
  3  8  1  1  0  0  0
  3  4  1  0  0  0  0
  4  9  1  0  0  0  0
  5  4  1  0  0  0  0
  5 11  1  0  0  0  0
  6  2  1  0  0  0  0
  7  2  1  0  0  0  0
 10  4  1  0  0  0  0
 12  5  1  0  0  0  0
 13 19  1  0  0  0  0
 13 14  1  0  0  0  0
 14 20  1  0  0  0  0
 15 14  2  0  0  0  0
 15  1  1  0  0  0  0
 16 15  1  0  0  0  0
 17 18  1  0  0  0  0
 17 16  2  0  0  0  0
 18 13  2  0  0  0  0
 21 17  1  0  0  0  0
 22  3  1  0  0  0  0
 22 23  1  0  0  0  0
 24 25  1  0  0  0  0
 25 26  2  0  0  0  0
 25 22  1  0  0  0  0
 26 30  1  0  0  0  0
 27 31  1  0  0  0  0
 27 26  1  0  0  0  0
 28 27  2  0  0  0  0
 29 28  1  0  0  0  0
 29 24  2  0  0  0  0
 32 28  1  0  0  0  0
 33 35  2  0  0  0  0
 33 29  1  0  0  0  0
 34 33  1  0  0  0  0
 36 37  3  0  0  0  0
 37 24  1  0  0  0  0
M  END
>  <minimizedAffinity>
-5.0359354

$$$$

 OpenBabel03242519083D

 37 39  0  0  1  0  0  0  0  0999 V2000
   37.5530   31.2640   39.7640 N   0  0  0  0  0  0  0  0  0  0  0  0
   37.2400   30.3190   40.8110 C   0  0  0  0  0  0  0  0  0  0  0  0
   37.3380   29.0460   40.0160 C   0  0  2  0  0  0  0  0  0  0  0  0
   36.4760   29.3840   38.8180 C   0  0  0  0  0  0  0  0  0  0  0  0
   36.7870   30.8450   38.6020 C   0  0  0  0  0  0  0  0  0  0  0  0
   36.2430   30.4630   41.2460 H   0  0  0  0  0  0  0  0  0  0  0  0
   38.0580   30.3500   41.5820 H   0  0  0  0  0  0  0  0  0  0  0  0
   38.3880   28.8800   39.7670 H   0  0  0  0  0  0  0  0  0  0  0  0
   36.8130   28.7870   37.9430 H   0  0  0  0  0  0  0  0  0  0  0  0
   35.4150   29.2030   39.0620 H   0  0  0  0  0  0  0  0  0  0  0  0
   37.3750   31.0240   37.6810 H   0  0  0  0  0  0  0  0  0  0  0  0
   35.8240   31.3800   38.6250 H   0  0  0  0  0  0  0  0  0  0  0  0
   39.0210   34.6530   40.2240 C   0  0  0  0  0  0  0  0  0  0  0  0
   38.0810   33.6310   40.2730 C   0  0  0  0  0  0  0  0  0  0  0  0
   38.4040   32.3790   39.7750 C   0  0  0  0  0  0  0  0  0  0  0  0
   39.6590   32.2220   39.2520 N   0  0  0  0  0  0  0  0  0  0  0  0
   40.5690   33.2140   39.2030 C   0  0  0  0  0  0  0  0  0  0  0  0
   40.2440   34.4310   39.6920 N   0  0  0  0  0  0  0  0  0  0  0  0
   38.6360   35.5650   40.6430 H   0  0  0  0  0  0  0  0  0  0  0  0
   37.0790   33.7260   40.6820 H   0  0  0  0  0  0  0  0  0  0  0  0
   41.5490   33.0600   38.7850 H   0  0  0  0  0  0  0  0  0  0  0  0
   36.7170   27.9250   40.6780 N   0  0  0  0  0  0  0  0  0  0  0  0
   35.7550   28.0820   41.0590 H   0  0  0  0  0  0  0  0  0  0  0  0
   38.1220   26.2710   41.8990 C   0  0  0  0  0  0  0  0  0  0  0  0
   37.1610   26.6090   40.9240 C   0  0  0  0  0  0  0  0  0  0  0  0
   36.6760   25.5350   40.2150 C   0  0  0  0  0  0  0  0  0  0  0  0
   37.0650   24.2250   40.4020 C   0  0  0  0  0  0  0  0  0  0  0  0
   37.9970   23.9300   41.3530 C   0  0  0  0  0  0  0  0  0  0  0  0
   38.5070   24.9640   42.0850 C   0  0  0  0  0  0  0  0  0  0  0  0
   35.9300   25.7010   39.4400 H   0  0  0  0  0  0  0  0  0  0  0  0
   36.6450   23.4270   39.8100 H   0  0  0  0  0  0  0  0  0  0  0  0
   38.3360   22.9200   41.5410 H   0  0  0  0  0  0  0  0  0  0  0  0
   39.5030   24.6530   43.1020 C   0  0  0  0  0  0  0  0  0  0  0  0
   39.3520   24.4110   44.1230 H   0  0  0  0  0  0  0  0  0  0  0  0
   40.7540   24.6400   42.8490 O   0  0  0  0  0  0  0  0  0  0  0  0
   39.1400   28.1950   43.3390 N   0  0  0  0  0  0  0  0  0  0  0  0
   38.6820   27.3450   42.6910 C   0  0  0  0  0  0  0  0  0  0  0  0
  1 15  1  0  0  0  0
  1  2  1  0  0  0  0
  2  6  1  0  0  0  0
  2  7  1  0  0  0  0
  3  8  1  6  0  0  0
  3 22  1  0  0  0  0
  3  2  1  0  0  0  0
  4 10  1  0  0  0  0
  4  3  1  0  0  0  0
  5 12  1  0  0  0  0
  5  4  1  0  0  0  0
  5  1  1  0  0  0  0
  9  4  1  0  0  0  0
 11  5  1  0  0  0  0
 13 14  1  0  0  0  0
 13 19  1  0  0  0  0
 14 20  1  0  0  0  0
 15 14  2  0  0  0  0
 16 15  1  0  0  0  0
 17 16  2  0  0  0  0
 17 18  1  0  0  0  0
 18 13  2  0  0  0  0
 21 17  1  0  0  0  0
 22 25  1  0  0  0  0
 22 23  1  0  0  0  0
 24 29  1  0  0  0  0
 24 37  1  0  0  0  0
 25 24  2  0  0  0  0
 26 27  2  0  0  0  0
 26 25  1  0  0  0  0
 27 28  1  0  0  0  0
 28 32  1  0  0  0  0
 28 29  2  0  0  0  0
 29 33  1  0  0  0  0
 30 26  1  0  0  0  0
 31 27  1  0  0  0  0
 33 34  1  0  0  0  0
 35 33  2  0  0  0  0
 37 36  3  0  0  0  0
M  END
>  <minimizedAffinity>
-4.94633341

$$$$

 OpenBabel03242519083D

 37 39  0  0  1  0  0  0  0  0999 V2000
   39.1210   32.2770   40.7600 N   0  0  0  0  0  0  0  0  0  0  0  0
   38.6830   31.0420   41.3710 C   0  0  0  0  0  0  0  0  0  0  0  0
   37.7630   30.5560   40.2850 C   0  0  2  0  0  0  0  0  0  0  0  0
   36.9200   31.7910   40.0430 C   0  0  0  0  0  0  0  0  0  0  0  0
   37.9260   32.9030   40.2190 C   0  0  0  0  0  0  0  0  0  0  0  0
   38.1630   31.1870   42.3250 H   0  0  0  0  0  0  0  0  0  0  0  0
   39.5660   30.3510   41.4580 H   0  0  0  0  0  0  0  0  0  0  0  0
   38.3710   30.2660   39.4260 H   0  0  0  0  0  0  0  0  0  0  0  0
   36.5430   31.7790   38.9980 H   0  0  0  0  0  0  0  0  0  0  0  0
   36.1020   31.8320   40.7820 H   0  0  0  0  0  0  0  0  0  0  0  0
   38.1680   33.4140   39.2670 H   0  0  0  0  0  0  0  0  0  0  0  0
   37.5210   33.5750   40.9930 H   0  0  0  0  0  0  0  0  0  0  0  0
   42.7710   32.9450   41.0290 C   0  0  0  0  0  0  0  0  0  0  0  0
   41.5590   32.2910   41.2030 C   0  0  0  0  0  0  0  0  0  0  0  0
   40.4040   32.8330   40.6600 C   0  0  0  0  0  0  0  0  0  0  0  0
   40.5340   34.0070   39.9700 N   0  0  0  0  0  0  0  0  0  0  0  0
   41.7100   34.6410   39.8030 C   0  0  0  0  0  0  0  0  0  0  0  0
   42.8290   34.1040   40.3360 N   0  0  0  0  0  0  0  0  0  0  0  0
   43.5790   32.4140   41.5010 H   0  0  0  0  0  0  0  0  0  0  0  0
   41.4260   31.3580   41.7450 H   0  0  0  0  0  0  0  0  0  0  0  0
   41.7800   35.5650   39.2540 H   0  0  0  0  0  0  0  0  0  0  0  0
   36.8670   29.5180   40.7350 N   0  0  0  0  0  0  0  0  0  0  0  0
   36.0940   29.8150   41.3760 H   0  0  0  0  0  0  0  0  0  0  0  0
   36.9690   27.1410   41.4660 C   0  0  0  0  0  0  0  0  0  0  0  0
   36.8200   28.1330   40.4760 C   0  0  0  0  0  0  0  0  0  0  0  0
   36.6200   27.6380   39.2080 C   0  0  0  0  0  0  0  0  0  0  0  0
   36.5640   26.3000   38.8830 C   0  0  0  0  0  0  0  0  0  0  0  0
   36.7110   25.3630   39.8640 C   0  0  0  0  0  0  0  0  0  0  0  0
   36.9120   25.8060   41.1400 C   0  0  0  0  0  0  0  0  0  0  0  0
   36.4950   28.3320   38.3780 H   0  0  0  0  0  0  0  0  0  0  0  0
   36.4050   25.9770   37.8660 H   0  0  0  0  0  0  0  0  0  0  0  0
   36.6750   24.3000   39.6630 H   0  0  0  0  0  0  0  0  0  0  0  0
   37.0700   24.8090   42.1910 C   0  0  0  0  0  0  0  0  0  0  0  0
   36.3790   24.5280   42.9450 H   0  0  0  0  0  0  0  0  0  0  0  0
   38.1370   24.1210   42.3210 O   0  0  0  0  0  0  0  0  0  0  0  0
   37.3640   27.9440   43.9170 N   0  0  0  0  0  0  0  0  0  0  0  0
   37.1820   27.5780   42.8290 C   0  0  0  0  0  0  0  0  0  0  0  0
  1  2  1  0  0  0  0
  2  7  1  0  0  0  0
  2  6  1  0  0  0  0
  3  8  1  6  0  0  0
  3 22  1  0  0  0  0
  3  2  1  0  0  0  0
  4  5  1  0  0  0  0
  4  3  1  0  0  0  0
  4 10  1  0  0  0  0
  5  1  1  0  0  0  0
  5 12  1  0  0  0  0
  9  4  1  0  0  0  0
 11  5  1  0  0  0  0
 13 14  1  0  0  0  0
 13 19  1  0  0  0  0
 14 20  1  0  0  0  0
 15  1  1  0  0  0  0
 15 14  2  0  0  0  0
 16 15  1  0  0  0  0
 17 16  2  0  0  0  0
 17 18  1  0  0  0  0
 18 13  2  0  0  0  0
 21 17  1  0  0  0  0
 22 23  1  0  0  0  0
 24 37  1  0  0  0  0
 25 22  1  0  0  0  0
 25 24  2  0  0  0  0
 26 25  1  0  0  0  0
 27 26  2  0  0  0  0
 27 28  1  0  0  0  0
 28 29  2  0  0  0  0
 29 24  1  0  0  0  0
 29 33  1  0  0  0  0
 30 26  1  0  0  0  0
 31 27  1  0  0  0  0
 32 28  1  0  0  0  0
 33 35  2  0  0  0  0
 33 34  1  0  0  0  0
 37 36  3  0  0  0  0
M  END
>  <minimizedAffinity>
-4.90979338

$$$$

 OpenBabel03242519083D

 37 39  0  0  1  0  0  0  0  0999 V2000
   37.6270   26.1980   41.8530 N   0  0  0  0  0  0  0  0  0  0  0  0
   36.9560   27.4730   41.7340 C   0  0  0  0  0  0  0  0  0  0  0  0
   38.1600   28.3750   41.7580 C   0  0  2  0  0  0  0  0  0  0  0  0
   38.8930   27.8500   42.9750 C   0  0  0  0  0  0  0  0  0  0  0  0
   38.6290   26.3660   42.8930 C   0  0  0  0  0  0  0  0  0  0  0  0
   36.2630   27.6800   42.5580 H   0  0  0  0  0  0  0  0  0  0  0  0
   36.4610   27.5270   40.7260 H   0  0  0  0  0  0  0  0  0  0  0  0
   38.7090   28.2360   40.8240 H   0  0  0  0  0  0  0  0  0  0  0  0
   39.9800   28.0530   42.8650 H   0  0  0  0  0  0  0  0  0  0  0  0
   38.4720   28.3100   43.8870 H   0  0  0  0  0  0  0  0  0  0  0  0
   39.5360   25.7850   42.6370 H   0  0  0  0  0  0  0  0  0  0  0  0
   38.1690   26.0730   43.8500 H   0  0  0  0  0  0  0  0  0  0  0  0
   37.8200   22.7000   40.5980 C   0  0  0  0  0  0  0  0  0  0  0  0
   38.1240   23.8210   41.3600 C   0  0  0  0  0  0  0  0  0  0  0  0
   37.4230   24.9990   41.1550 C   0  0  0  0  0  0  0  0  0  0  0  0
   36.4520   24.9850   40.1910 N   0  0  0  0  0  0  0  0  0  0  0  0
   36.1590   23.8970   39.4520 C   0  0  0  0  0  0  0  0  0  0  0  0
   36.8480   22.7550   39.6600 N   0  0  0  0  0  0  0  0  0  0  0  0
   38.4390   21.8620   40.8630 H   0  0  0  0  0  0  0  0  0  0  0  0
   38.8880   23.8610   42.1320 H   0  0  0  0  0  0  0  0  0  0  0  0
   35.3880   23.9180   38.7000 H   0  0  0  0  0  0  0  0  0  0  0  0
   37.8220   29.7500   42.0310 N   0  0  0  0  0  0  0  0  0  0  0  0
   37.4070   29.9510   42.9710 H   0  0  0  0  0  0  0  0  0  0  0  0
   39.0870   31.7470   41.2500 C   0  0  0  0  0  0  0  0  0  0  0  0
   37.9430   30.9240   41.2590 C   0  0  0  0  0  0  0  0  0  0  0  0
   36.9290   31.3600   40.4380 C   0  0  0  0  0  0  0  0  0  0  0  0
   36.9790   32.4960   39.6580 C   0  0  0  0  0  0  0  0  0  0  0  0
   38.1000   33.2720   39.6710 C   0  0  0  0  0  0  0  0  0  0  0  0
   39.1360   32.8790   40.4710 C   0  0  0  0  0  0  0  0  0  0  0  0
   36.0050   30.7870   40.3810 H   0  0  0  0  0  0  0  0  0  0  0  0
   36.1460   32.7840   39.0350 H   0  0  0  0  0  0  0  0  0  0  0  0
   38.1910   34.1730   39.0780 H   0  0  0  0  0  0  0  0  0  0  0  0
   40.3360   33.7050   40.4880 C   0  0  0  0  0  0  0  0  0  0  0  0
   40.8920   34.0460   41.3240 H   0  0  0  0  0  0  0  0  0  0  0  0
   40.8810   34.1350   39.4170 O   0  0  0  0  0  0  0  0  0  0  0  0
   41.1000   31.0620   42.7630 N   0  0  0  0  0  0  0  0  0  0  0  0
   40.2020   31.3570   42.0870 C   0  0  0  0  0  0  0  0  0  0  0  0
  1  5  1  0  0  0  0
  2  3  1  0  0  0  0
  2  1  1  0  0  0  0
  2  6  1  0  0  0  0
  3  8  1  6  0  0  0
  3 22  1  0  0  0  0
  3  4  1  0  0  0  0
  4 10  1  0  0  0  0
  5  4  1  0  0  0  0
  5 12  1  0  0  0  0
  7  2  1  0  0  0  0
  9  4  1  0  0  0  0
 11  5  1  0  0  0  0
 13 19  1  0  0  0  0
 13 14  1  0  0  0  0
 14 20  1  0  0  0  0
 15 14  2  0  0  0  0
 15  1  1  0  0  0  0
 16 15  1  0  0  0  0
 17 18  1  0  0  0  0
 17 16  2  0  0  0  0
 18 13  2  0  0  0  0
 21 17  1  0  0  0  0
 22 23  1  0  0  0  0
 24 25  1  0  0  0  0
 24 37  1  0  0  0  0
 25 22  1  0  0  0  0
 26 25  2  0  0  0  0
 27 28  2  0  0  0  0
 27 26  1  0  0  0  0
 28 29  1  0  0  0  0
 29 33  1  0  0  0  0
 29 24  2  0  0  0  0
 30 26  1  0  0  0  0
 31 27  1  0  0  0  0
 32 28  1  0  0  0  0
 33 34  1  0  0  0  0
 35 33  2  0  0  0  0
 37 36  3  0  0  0  0
M  END
>  <minimizedAffinity>
-4.90305233

$$$$
