
 OpenBabel03252509153D

 39 42  0  0  1  0  0  0  0  0999 V2000
   37.2870   32.9720   39.6970 C   0  0  0  0  0  0  0  0  0  0  0  0
   37.6640   31.6380   39.5710 C   0  0  0  0  0  0  0  0  0  0  0  0
   38.9750   31.2190   39.7180 C   0  0  0  0  0  0  0  0  0  0  0  0
   39.9730   32.1560   40.0050 C   0  0  0  0  0  0  0  0  0  0  0  0
   41.2950   32.1180   40.2070 N   0  0  0  0  0  0  0  0  0  0  0  0
   41.7720   33.3420   40.4510 C   0  0  0  0  0  0  0  0  0  0  0  0
   40.6960   34.1590   40.3970 N   0  0  0  0  0  0  0  0  0  0  0  0
   39.5750   33.4590   40.1230 C   0  0  0  0  0  0  0  0  0  0  0  0
   38.2740   33.9180   39.9830 C   0  0  0  0  0  0  0  0  0  0  0  0
   36.2520   33.2860   39.5780 H   0  0  0  0  0  0  0  0  0  0  0  0
   41.8760   31.2470   40.1770 H   0  0  0  0  0  0  0  0  0  0  0  0
   42.8040   33.6380   40.6540 H   0  0  0  0  0  0  0  0  0  0  0  0
   38.0300   34.9640   40.0910 H   0  0  0  0  0  0  0  0  0  0  0  0
   34.9580   29.2140   40.0350 C   0  0  0  0  0  0  0  0  0  0  0  0
   34.7110   28.7740   38.7330 C   0  0  0  0  0  0  0  0  0  0  0  0
   35.4800   29.3170   37.7000 C   0  0  0  0  0  0  0  0  0  0  0  0
   36.4400   30.2520   38.0010 N   0  0  0  0  0  0  0  0  0  0  0  0
   36.6380   30.6410   39.2700 C   0  0  0  0  0  0  0  0  0  0  0  0
   35.9160   30.1420   40.3040 N   0  0  0  0  0  0  0  0  0  0  0  0
   34.4090   28.8480   40.8980 H   0  0  0  0  0  0  0  0  0  0  0  0
   33.9450   28.0460   38.6050 H   0  0  0  0  0  0  0  0  0  0  0  0
   35.3000   28.9870   36.6980 H   0  0  0  0  0  0  0  0  0  0  0  0
   39.4300   29.5070   39.5520 S   0  0  0  0  0  0  0  0  0  0  0  0
   38.1710   28.1920   41.4410 N   0  0  0  0  0  0  0  0  0  0  0  0
   39.5220   28.6250   41.1250 C   0  0  1  0  0  0  0  0  0  0  0  0
   40.4340   27.4220   40.8750 C   0  0  0  0  0  0  0  0  0  0  0  0
   40.2530   26.4060   41.7900 O   0  0  0  0  0  0  0  0  0  0  0  0
   39.4880   26.7120   42.8870 C   0  0  0  0  0  0  0  0  0  0  0  0
   38.1220   27.1540   42.4190 C   0  0  1  0  0  0  0  0  0  0  0  0
   37.6200   29.0290   41.6510 H   0  0  0  0  0  0  0  0  0  0  0  0
   39.9280   29.3040   41.8990 H   0  0  0  0  0  0  0  0  0  0  0  0
   41.4640   27.7370   41.0140 H   0  0  0  0  0  0  0  0  0  0  0  0
   40.3230   27.0480   39.8500 H   0  0  0  0  0  0  0  0  0  0  0  0
   39.8970   27.5440   43.4880 H   0  0  0  0  0  0  0  0  0  0  0  0
   39.3870   25.8150   43.4950 H   0  0  0  0  0  0  0  0  0  0  0  0
   37.6020   26.2450   42.0240 H   0  0  0  0  0  0  0  0  0  0  0  0
   37.3700   27.6630   43.6000 C   0  0  0  0  0  0  0  0  0  0  0  0
   37.7440   28.3040   44.3800 H   0  0  0  0  0  0  0  0  0  0  0  0
   36.2140   27.3120   43.6780 O   0  0  0  0  0  0  0  0  0  0  0  0
  1  9  1  0  0  0  0
  2  1  2  0  0  0  0
  2  3  1  0  0  0  0
  3  4  2  0  0  0  0
  4  8  1  0  0  0  0
  4  5  1  0  0  0  0
  5  6  1  0  0  0  0
  6 12  1  0  0  0  0
  7  6  2  0  0  0  0
  8  7  1  0  0  0  0
  9 13  1  0  0  0  0
  9  8  2  0  0  0  0
 10  1  1  0  0  0  0
 11  5  1  0  0  0  0
 14 19  1  0  0  0  0
 14 20  1  0  0  0  0
 15 14  2  0  0  0  0
 16 17  2  0  0  0  0
 16 15  1  0  0  0  0
 17 18  1  0  0  0  0
 18  2  1  0  0  0  0
 18 19  2  0  0  0  0
 21 15  1  0  0  0  0
 22 16  1  0  0  0  0
 23  3  1  0  0  0  0
 23 25  1  0  0  0  0
 24 30  1  0  0  0  0
 24 29  1  0  0  0  0
 25 24  1  0  0  0  0
 25 31  1  1  0  0  0
 26 32  1  0  0  0  0
 26 25  1  0  0  0  0
 26 27  1  0  0  0  0
 27 28  1  0  0  0  0
 28 34  1  0  0  0  0
 28 35  1  0  0  0  0
 29 36  1  6  0  0  0
 29 28  1  0  0  0  0
 29 37  1  0  0  0  0
 33 26  1  0  0  0  0
 37 39  2  0  0  0  0
 37 38  1  0  0  0  0
M  END
>  <minimizedAffinity>
-5.49265146

$$$$

 OpenBabel03252509153D

 39 42  0  0  1  0  0  0  0  0999 V2000
   39.4920   30.3870   42.1060 C   0  0  0  0  0  0  0  0  0  0  0  0
   38.2530   29.9430   41.6550 C   0  0  0  0  0  0  0  0  0  0  0  0
   37.3880   30.7500   40.9380 C   0  0  0  0  0  0  0  0  0  0  0  0
   37.7550   32.0680   40.6440 C   0  0  0  0  0  0  0  0  0  0  0  0
   37.1980   33.0980   39.9980 N   0  0  0  0  0  0  0  0  0  0  0  0
   38.0060   34.1610   40.0140 C   0  0  0  0  0  0  0  0  0  0  0  0
   39.1020   33.7620   40.6980 N   0  0  0  0  0  0  0  0  0  0  0  0
   38.9770   32.4790   41.0990 C   0  0  0  0  0  0  0  0  0  0  0  0
   39.8710   31.7020   41.8200 C   0  0  0  0  0  0  0  0  0  0  0  0
   40.1610   29.7410   42.6700 H   0  0  0  0  0  0  0  0  0  0  0  0
   36.2540   33.0730   39.5420 H   0  0  0  0  0  0  0  0  0  0  0  0
   37.8360   35.1480   39.5760 H   0  0  0  0  0  0  0  0  0  0  0  0
   40.8230   32.0920   42.1480 H   0  0  0  0  0  0  0  0  0  0  0  0
   37.8640   26.3120   41.3600 C   0  0  0  0  0  0  0  0  0  0  0  0
   37.1010   25.9910   42.4840 C   0  0  0  0  0  0  0  0  0  0  0  0
   36.7240   27.0300   43.3410 C   0  0  0  0  0  0  0  0  0  0  0  0
   37.1140   28.3130   43.0460 N   0  0  0  0  0  0  0  0  0  0  0  0
   37.8470   28.5690   41.9520 C   0  0  0  0  0  0  0  0  0  0  0  0
   38.2360   27.5940   41.0930 N   0  0  0  0  0  0  0  0  0  0  0  0
   38.2010   25.5710   40.6410 H   0  0  0  0  0  0  0  0  0  0  0  0
   36.8510   24.9660   42.6230 H   0  0  0  0  0  0  0  0  0  0  0  0
   36.1400   26.7950   44.2050 H   0  0  0  0  0  0  0  0  0  0  0  0
   35.8090   30.1560   40.3730 S   0  0  0  0  0  0  0  0  0  0  0  0
   36.9590   28.7700   38.4640 N   0  0  0  0  0  0  0  0  0  0  0  0
   35.8060   29.6370   38.6430 C   0  0  1  0  0  0  0  0  0  0  0  0
   34.5030   28.8600   38.4440 C   0  0  0  0  0  0  0  0  0  0  0  0
   34.5400   28.0100   37.3580 O   0  0  0  0  0  0  0  0  0  0  0  0
   35.6070   28.1640   36.5080 C   0  0  0  0  0  0  0  0  0  0  0  0
   36.8830   27.9610   37.2900 C   0  0  1  0  0  0  0  0  0  0  0  0
   37.7980   29.3490   38.5550 H   0  0  0  0  0  0  0  0  0  0  0  0
   35.8620   30.5340   37.9950 H   0  0  0  0  0  0  0  0  0  0  0  0
   33.7120   29.5680   38.2130 H   0  0  0  0  0  0  0  0  0  0  0  0
   34.2240   28.3160   39.3540 H   0  0  0  0  0  0  0  0  0  0  0  0
   35.6700   29.1730   36.0630 H   0  0  0  0  0  0  0  0  0  0  0  0
   35.5380   27.4070   35.7310 H   0  0  0  0  0  0  0  0  0  0  0  0
   36.9440   26.8730   37.5400 H   0  0  0  0  0  0  0  0  0  0  0  0
   38.0290   28.3180   36.4070 C   0  0  0  0  0  0  0  0  0  0  0  0
   38.2430   29.2820   35.9790 H   0  0  0  0  0  0  0  0  0  0  0  0
   38.7960   27.4160   36.1520 O   0  0  0  0  0  0  0  0  0  0  0  0
  1 10  1  0  0  0  0
  2 18  1  0  0  0  0
  2  1  2  0  0  0  0
  3  2  1  0  0  0  0
  4  3  2  0  0  0  0
  4  8  1  0  0  0  0
  5  6  1  0  0  0  0
  5  4  1  0  0  0  0
  6  7  2  0  0  0  0
  7  8  1  0  0  0  0
  8  9  2  0  0  0  0
  9  1  1  0  0  0  0
  9 13  1  0  0  0  0
 11  5  1  0  0  0  0
 12  6  1  0  0  0  0
 14 15  1  0  0  0  0
 15 21  1  0  0  0  0
 15 16  2  0  0  0  0
 16 22  1  0  0  0  0
 17 16  1  0  0  0  0
 18 17  2  0  0  0  0
 19 14  2  0  0  0  0
 19 18  1  0  0  0  0
 20 14  1  0  0  0  0
 23  3  1  0  0  0  0
 24 30  1  0  0  0  0
 24 25  1  0  0  0  0
 25 31  1  6  0  0  0
 25 23  1  0  0  0  0
 26 25  1  0  0  0  0
 26 33  1  0  0  0  0
 27 26  1  0  0  0  0
 28 29  1  0  0  0  0
 28 27  1  0  0  0  0
 29 36  1  1  0  0  0
 29 24  1  0  0  0  0
 32 26  1  0  0  0  0
 34 28  1  0  0  0  0
 35 28  1  0  0  0  0
 37 29  1  0  0  0  0
 38 37  1  0  0  0  0
 39 37  2  0  0  0  0
M  END
>  <minimizedAffinity>
-5.47518635

$$$$

 OpenBabel03252509153D

 39 42  0  0  1  0  0  0  0  0999 V2000
   36.6190   30.3130   40.1050 C   0  0  0  0  0  0  0  0  0  0  0  0
   37.6040   29.8710   40.9840 C   0  0  0  0  0  0  0  0  0  0  0  0
   38.6080   30.6990   41.4540 C   0  0  0  0  0  0  0  0  0  0  0  0
   38.6520   32.0350   41.0440 C   0  0  0  0  0  0  0  0  0  0  0  0
   39.4430   33.0870   41.2820 N   0  0  0  0  0  0  0  0  0  0  0  0
   39.0190   34.1610   40.6110 C   0  0  0  0  0  0  0  0  0  0  0  0
   37.9230   33.7470   39.9350 N   0  0  0  0  0  0  0  0  0  0  0  0
   37.6720   32.4440   40.1810 C   0  0  0  0  0  0  0  0  0  0  0  0
   36.6520   31.6460   39.6870 C   0  0  0  0  0  0  0  0  0  0  0  0
   35.8370   29.6490   39.7430 H   0  0  0  0  0  0  0  0  0  0  0  0
   40.2810   33.0690   41.9110 H   0  0  0  0  0  0  0  0  0  0  0  0
   39.4500   35.1650   40.5980 H   0  0  0  0  0  0  0  0  0  0  0  0
   35.9090   32.0350   39.0070 H   0  0  0  0  0  0  0  0  0  0  0  0
   36.8240   26.8800   42.9500 C   0  0  0  0  0  0  0  0  0  0  0  0
   37.5170   25.8750   42.2720 C   0  0  0  0  0  0  0  0  0  0  0  0
   38.2510   26.2340   41.1380 C   0  0  0  0  0  0  0  0  0  0  0  0
   38.2630   27.5480   40.7380 N   0  0  0  0  0  0  0  0  0  0  0  0
   37.5800   28.4760   41.4250 C   0  0  0  0  0  0  0  0  0  0  0  0
   36.8540   28.1740   42.5310 N   0  0  0  0  0  0  0  0  0  0  0  0
   36.2290   26.6930   43.8390 H   0  0  0  0  0  0  0  0  0  0  0  0
   37.4440   24.8880   42.6630 H   0  0  0  0  0  0  0  0  0  0  0  0
   38.7860   25.4720   40.6110 H   0  0  0  0  0  0  0  0  0  0  0  0
   39.8550   30.1070   42.5760 S   0  0  0  0  0  0  0  0  0  0  0  0
   41.8100   31.8380   42.8360 N   0  0  0  0  0  0  0  0  0  0  0  0
   41.5320   30.6020   42.1240 C   0  0  1  0  0  0  0  0  0  0  0  0
   42.4440   29.4750   42.6130 C   0  0  0  0  0  0  0  0  0  0  0  0
   43.7550   29.8730   42.7780 O   0  0  0  0  0  0  0  0  0  0  0  0
   44.0810   31.1040   42.2660 C   0  0  0  0  0  0  0  0  0  0  0  0
   43.2010   32.1470   42.9140 C   0  0  1  0  0  0  0  0  0  0  0  0
   41.2130   32.5670   42.4350 H   0  0  0  0  0  0  0  0  0  0  0  0
   41.5860   30.7390   41.0260 H   0  0  0  0  0  0  0  0  0  0  0  0
   42.4850   28.7080   41.8450 H   0  0  0  0  0  0  0  0  0  0  0  0
   42.0560   29.0230   43.5320 H   0  0  0  0  0  0  0  0  0  0  0  0
   43.9100   31.1850   41.1780 H   0  0  0  0  0  0  0  0  0  0  0  0
   45.1210   31.3110   42.5070 H   0  0  0  0  0  0  0  0  0  0  0  0
   43.5390   32.2440   43.9770 H   0  0  0  0  0  0  0  0  0  0  0  0
   43.4290   33.4440   42.2170 C   0  0  0  0  0  0  0  0  0  0  0  0
   44.2700   34.1040   42.3350 H   0  0  0  0  0  0  0  0  0  0  0  0
   42.5660   33.7790   41.4360 O   0  0  0  0  0  0  0  0  0  0  0  0
  1  2  1  0  0  0  0
  2 18  1  0  0  0  0
  2  3  2  0  0  0  0
  3 23  1  0  0  0  0
  4  5  1  0  0  0  0
  4  3  1  0  0  0  0
  5 11  1  0  0  0  0
  6  5  1  0  0  0  0
  7  8  1  0  0  0  0
  7  6  2  0  0  0  0
  8  4  2  0  0  0  0
  9  1  2  0  0  0  0
  9  8  1  0  0  0  0
 10  1  1  0  0  0  0
 12  6  1  0  0  0  0
 13  9  1  0  0  0  0
 14 20  1  0  0  0  0
 15 21  1  0  0  0  0
 15 14  2  0  0  0  0
 16 15  1  0  0  0  0
 17 16  2  0  0  0  0
 17 18  1  0  0  0  0
 18 19  2  0  0  0  0
 19 14  1  0  0  0  0
 22 16  1  0  0  0  0
 24 29  1  0  0  0  0
 25 31  1  6  0  0  0
 25 23  1  0  0  0  0
 25 26  1  0  0  0  0
 25 24  1  0  0  0  0
 26 27  1  0  0  0  0
 26 33  1  0  0  0  0
 28 35  1  0  0  0  0
 28 27  1  0  0  0  0
 28 29  1  0  0  0  0
 29 36  1  1  0  0  0
 30 24  1  0  0  0  0
 32 26  1  0  0  0  0
 34 28  1  0  0  0  0
 37 38  1  0  0  0  0
 37 29  1  0  0  0  0
 39 37  2  0  0  0  0
M  END
>  <minimizedAffinity>
-5.35279799

$$$$

 OpenBabel03252509153D

 39 42  0  0  1  0  0  0  0  0999 V2000
   37.6470   30.9660   37.1320 C   0  0  0  0  0  0  0  0  0  0  0  0
   37.4330   31.0800   38.5020 C   0  0  0  0  0  0  0  0  0  0  0  0
   36.4820   30.3320   39.1730 C   0  0  0  0  0  0  0  0  0  0  0  0
   35.6940   29.4180   38.4640 C   0  0  0  0  0  0  0  0  0  0  0  0
   34.7160   28.5580   38.7660 N   0  0  0  0  0  0  0  0  0  0  0  0
   34.3010   27.9100   37.6740 C   0  0  0  0  0  0  0  0  0  0  0  0
   35.0580   28.3960   36.6650 N   0  0  0  0  0  0  0  0  0  0  0  0
   35.9250   29.3260   37.1190 C   0  0  0  0  0  0  0  0  0  0  0  0
   36.8670   30.0570   36.4120 C   0  0  0  0  0  0  0  0  0  0  0  0
   38.3980   31.5620   36.6190 H   0  0  0  0  0  0  0  0  0  0  0  0
   34.3280   28.4130   39.7290 H   0  0  0  0  0  0  0  0  0  0  0  0
   33.5200   27.1500   37.5940 H   0  0  0  0  0  0  0  0  0  0  0  0
   36.9960   29.9320   35.3470 H   0  0  0  0  0  0  0  0  0  0  0  0
   40.2340   32.5050   40.3850 C   0  0  0  0  0  0  0  0  0  0  0  0
   39.7800   33.7890   40.6910 C   0  0  0  0  0  0  0  0  0  0  0  0
   38.5070   34.1580   40.2450 C   0  0  0  0  0  0  0  0  0  0  0  0
   37.7600   33.2530   39.5310 N   0  0  0  0  0  0  0  0  0  0  0  0
   38.2440   32.0300   39.2640 C   0  0  0  0  0  0  0  0  0  0  0  0
   39.4720   31.6280   39.6760 N   0  0  0  0  0  0  0  0  0  0  0  0
   41.2080   32.1330   40.6900 H   0  0  0  0  0  0  0  0  0  0  0  0
   40.4350   34.4140   41.2490 H   0  0  0  0  0  0  0  0  0  0  0  0
   38.1490   35.1400   40.4740 H   0  0  0  0  0  0  0  0  0  0  0  0
   36.2300   30.4990   40.9260 S   0  0  0  0  0  0  0  0  0  0  0  0
   37.2570   28.0840   40.9590 N   0  0  0  0  0  0  0  0  0  0  0  0
   36.9500   29.1550   41.8940 C   0  0  1  0  0  0  0  0  0  0  0  0
   38.2290   29.7240   42.5090 C   0  0  0  0  0  0  0  0  0  0  0  0
   39.1320   28.7490   42.8810 O   0  0  0  0  0  0  0  0  0  0  0  0
   38.6640   27.4590   42.8690 C   0  0  0  0  0  0  0  0  0  0  0  0
   38.1840   27.1290   41.4760 C   0  0  1  0  0  0  0  0  0  0  0  0
   36.3680   27.7060   40.6200 H   0  0  0  0  0  0  0  0  0  0  0  0
   36.2220   28.8310   42.6630 H   0  0  0  0  0  0  0  0  0  0  0  0
   37.9700   30.2270   43.4370 H   0  0  0  0  0  0  0  0  0  0  0  0
   38.6990   30.4550   41.8410 H   0  0  0  0  0  0  0  0  0  0  0  0
   37.8030   27.2990   43.5420 H   0  0  0  0  0  0  0  0  0  0  0  0
   39.4840   26.7950   43.1330 H   0  0  0  0  0  0  0  0  0  0  0  0
   39.0920   27.0500   40.8270 H   0  0  0  0  0  0  0  0  0  0  0  0
   37.5070   25.8030   41.5200 C   0  0  0  0  0  0  0  0  0  0  0  0
   37.5580   25.0240   40.7790 H   0  0  0  0  0  0  0  0  0  0  0  0
   36.8290   25.5910   42.5000 O   0  0  0  0  0  0  0  0  0  0  0  0
  1  2  1  0  0  0  0
  2  3  2  0  0  0  0
  2 18  1  0  0  0  0
  3 23  1  0  0  0  0
  4  5  1  0  0  0  0
  4  3  1  0  0  0  0
  5 11  1  0  0  0  0
  6  5  1  0  0  0  0
  7  8  1  0  0  0  0
  7  6  2  0  0  0  0
  8  4  2  0  0  0  0
  9  8  1  0  0  0  0
  9  1  2  0  0  0  0
 10  1  1  0  0  0  0
 12  6  1  0  0  0  0
 13  9  1  0  0  0  0
 14 20  1  0  0  0  0
 14 15  1  0  0  0  0
 15 21  1  0  0  0  0
 16 22  1  0  0  0  0
 16 15  2  0  0  0  0
 17 16  1  0  0  0  0
 18 17  2  0  0  0  0
 18 19  1  0  0  0  0
 19 14  2  0  0  0  0
 23 25  1  0  0  0  0
 24 29  1  0  0  0  0
 24 25  1  0  0  0  0
 25 26  1  0  0  0  0
 25 31  1  1  0  0  0
 26 27  1  0  0  0  0
 26 32  1  0  0  0  0
 28 27  1  0  0  0  0
 28 35  1  0  0  0  0
 28 34  1  0  0  0  0
 29 36  1  6  0  0  0
 29 37  1  0  0  0  0
 29 28  1  0  0  0  0
 30 24  1  0  0  0  0
 33 26  1  0  0  0  0
 37 39  2  0  0  0  0
 38 37  1  0  0  0  0
M  END
>  <minimizedAffinity>
-5.32914877

$$$$

 OpenBabel03252509153D

 39 42  0  0  1  0  0  0  0  0999 V2000
   35.0700   28.6470   39.4890 C   0  0  0  0  0  0  0  0  0  0  0  0
   36.4340   28.7420   39.7430 C   0  0  0  0  0  0  0  0  0  0  0  0
   37.3530   29.0710   38.7610 C   0  0  0  0  0  0  0  0  0  0  0  0
   36.9130   29.3210   37.4570 C   0  0  0  0  0  0  0  0  0  0  0  0
   37.4890   29.6530   36.2970 N   0  0  0  0  0  0  0  0  0  0  0  0
   36.5740   29.7720   35.3300 C   0  0  0  0  0  0  0  0  0  0  0  0
   35.3910   29.5030   35.9270 N   0  0  0  0  0  0  0  0  0  0  0  0
   35.5670   29.2210   37.2350 C   0  0  0  0  0  0  0  0  0  0  0  0
   34.6160   28.8950   38.1900 C   0  0  0  0  0  0  0  0  0  0  0  0
   34.3590   28.3860   40.2710 H   0  0  0  0  0  0  0  0  0  0  0  0
   38.5180   29.8000   36.1650 H   0  0  0  0  0  0  0  0  0  0  0  0
   36.7300   30.0310   34.2800 H   0  0  0  0  0  0  0  0  0  0  0  0
   33.5660   28.8340   37.9450 H   0  0  0  0  0  0  0  0  0  0  0  0
   37.4710   26.9390   42.7580 C   0  0  0  0  0  0  0  0  0  0  0  0
   37.8220   27.9710   43.6300 C   0  0  0  0  0  0  0  0  0  0  0  0
   37.6990   29.2870   43.1730 C   0  0  0  0  0  0  0  0  0  0  0  0
   37.2430   29.5110   41.8970 N   0  0  0  0  0  0  0  0  0  0  0  0
   36.9190   28.4830   41.0990 C   0  0  0  0  0  0  0  0  0  0  0  0
   37.0210   27.1910   41.4990 N   0  0  0  0  0  0  0  0  0  0  0  0
   37.5350   25.8880   43.0280 H   0  0  0  0  0  0  0  0  0  0  0  0
   38.1650   27.6920   44.5980 H   0  0  0  0  0  0  0  0  0  0  0  0
   37.9650   30.0860   43.8330 H   0  0  0  0  0  0  0  0  0  0  0  0
   39.0930   29.1850   39.1130 S   0  0  0  0  0  0  0  0  0  0  0  0
   38.5220   31.5980   39.9740 N   0  0  0  0  0  0  0  0  0  0  0  0
   39.6590   30.8710   39.4340 C   0  0  1  0  0  0  0  0  0  0  0  0
   40.7700   30.7450   40.4780 C   0  0  0  0  0  0  0  0  0  0  0  0
   40.9930   31.9140   41.1750 O   0  0  0  0  0  0  0  0  0  0  0  0
   40.3790   33.0370   40.6800 C   0  0  0  0  0  0  0  0  0  0  0  0
   38.8870   32.8010   40.6490 C   0  0  1  0  0  0  0  0  0  0  0  0
   37.8340   31.6990   39.2220 H   0  0  0  0  0  0  0  0  0  0  0  0
   40.0210   31.3180   38.4880 H   0  0  0  0  0  0  0  0  0  0  0  0
   41.7060   30.5500   39.9610 H   0  0  0  0  0  0  0  0  0  0  0  0
   40.5760   29.9130   41.1650 H   0  0  0  0  0  0  0  0  0  0  0  0
   40.6780   33.2800   39.6450 H   0  0  0  0  0  0  0  0  0  0  0  0
   40.5970   33.8690   41.3470 H   0  0  0  0  0  0  0  0  0  0  0  0
   38.5350   32.7960   41.7110 H   0  0  0  0  0  0  0  0  0  0  0  0
   38.2510   33.9440   39.9370 C   0  0  0  0  0  0  0  0  0  0  0  0
   38.6890   34.9070   39.7350 H   0  0  0  0  0  0  0  0  0  0  0  0
   37.1200   33.7580   39.5480 O   0  0  0  0  0  0  0  0  0  0  0  0
  1  2  1  0  0  0  0
  1 10  1  0  0  0  0
  2 18  1  0  0  0  0
  3 23  1  0  0  0  0
  3  2  2  0  0  0  0
  4  3  1  0  0  0  0
  5  4  1  0  0  0  0
  6  7  2  0  0  0  0
  6  5  1  0  0  0  0
  7  8  1  0  0  0  0
  8  4  2  0  0  0  0
  8  9  1  0  0  0  0
  9  1  2  0  0  0  0
 11  5  1  0  0  0  0
 12  6  1  0  0  0  0
 13  9  1  0  0  0  0
 14 20  1  0  0  0  0
 14 15  1  0  0  0  0
 15 21  1  0  0  0  0
 16 15  2  0  0  0  0
 16 22  1  0  0  0  0
 17 16  1  0  0  0  0
 18 19  1  0  0  0  0
 18 17  2  0  0  0  0
 19 14  2  0  0  0  0
 23 25  1  0  0  0  0
 24 29  1  0  0  0  0
 25 31  1  6  0  0  0
 25 24  1  0  0  0  0
 25 26  1  0  0  0  0
 26 33  1  0  0  0  0
 26 27  1  0  0  0  0
 28 27  1  0  0  0  0
 28 35  1  0  0  0  0
 29 28  1  0  0  0  0
 29 36  1  1  0  0  0
 30 24  1  0  0  0  0
 32 26  1  0  0  0  0
 34 28  1  0  0  0  0
 37 29  1  0  0  0  0
 38 37  1  0  0  0  0
 39 37  2  0  0  0  0
M  END
>  <minimizedAffinity>
-5.31154585

$$$$

 OpenBabel03252509153D

 39 42  0  0  1  0  0  0  0  0999 V2000
   37.0120   30.0980   36.9500 C   0  0  0  0  0  0  0  0  0  0  0  0
   36.3570   29.4570   37.9970 C   0  0  0  0  0  0  0  0  0  0  0  0
   36.2540   30.0100   39.2600 C   0  0  0  0  0  0  0  0  0  0  0  0
   36.8220   31.2620   39.5170 C   0  0  0  0  0  0  0  0  0  0  0  0
   36.9170   32.0750   40.5740 N   0  0  0  0  0  0  0  0  0  0  0  0
   37.5890   33.1860   40.2600 C   0  0  0  0  0  0  0  0  0  0  0  0
   37.9170   33.0440   38.9560 N   0  0  0  0  0  0  0  0  0  0  0  0
   37.4600   31.8710   38.4710 C   0  0  0  0  0  0  0  0  0  0  0  0
   37.5850   31.3500   37.1920 C   0  0  0  0  0  0  0  0  0  0  0  0
   37.0860   29.6500   35.9610 H   0  0  0  0  0  0  0  0  0  0  0  0
   36.5170   31.8680   41.5210 H   0  0  0  0  0  0  0  0  0  0  0  0
   37.8310   34.0360   40.9030 H   0  0  0  0  0  0  0  0  0  0  0  0
   38.1030   31.8870   36.4110 H   0  0  0  0  0  0  0  0  0  0  0  0
   33.9160   26.8940   37.0520 C   0  0  0  0  0  0  0  0  0  0  0  0
   34.6090   25.7060   37.2890 C   0  0  0  0  0  0  0  0  0  0  0  0
   35.9170   25.7930   37.7730 C   0  0  0  0  0  0  0  0  0  0  0  0
   36.4650   27.0330   37.9960 N   0  0  0  0  0  0  0  0  0  0  0  0
   35.7560   28.1460   37.7530 C   0  0  0  0  0  0  0  0  0  0  0  0
   34.4840   28.1090   37.2820 N   0  0  0  0  0  0  0  0  0  0  0  0
   32.8970   26.9220   36.6760 H   0  0  0  0  0  0  0  0  0  0  0  0
   34.0940   24.7960   37.0830 H   0  0  0  0  0  0  0  0  0  0  0  0
   36.4570   24.8890   37.9580 H   0  0  0  0  0  0  0  0  0  0  0  0
   35.4100   29.1680   40.5810 S   0  0  0  0  0  0  0  0  0  0  0  0
   37.4710   27.5550   40.7750 N   0  0  0  0  0  0  0  0  0  0  0  0
   36.5080   28.2070   41.6470 C   0  0  1  0  0  0  0  0  0  0  0  0
   37.1980   29.2240   42.5580 C   0  0  0  0  0  0  0  0  0  0  0  0
   38.3780   28.7540   43.0970 O   0  0  0  0  0  0  0  0  0  0  0  0
   38.6220   27.4140   42.9380 C   0  0  0  0  0  0  0  0  0  0  0  0
   38.6350   27.0940   41.4620 C   0  0  1  0  0  0  0  0  0  0  0  0
   36.9670   26.8520   40.2290 H   0  0  0  0  0  0  0  0  0  0  0  0
   35.9070   27.4720   42.2170 H   0  0  0  0  0  0  0  0  0  0  0  0
   36.5570   29.4070   43.4160 H   0  0  0  0  0  0  0  0  0  0  0  0
   37.3580   30.1760   42.0390 H   0  0  0  0  0  0  0  0  0  0  0  0
   37.8450   26.7700   43.3890 H   0  0  0  0  0  0  0  0  0  0  0  0
   39.5980   27.1900   43.3630 H   0  0  0  0  0  0  0  0  0  0  0  0
   39.5660   27.5480   41.0380 H   0  0  0  0  0  0  0  0  0  0  0  0
   38.7090   25.6140   41.3080 C   0  0  0  0  0  0  0  0  0  0  0  0
   39.2830   25.0660   40.5800 H   0  0  0  0  0  0  0  0  0  0  0  0
   38.0480   24.9710   42.0910 O   0  0  0  0  0  0  0  0  0  0  0  0
  1  9  2  0  0  0  0
  1  2  1  0  0  0  0
  2  3  2  0  0  0  0
  3  4  1  0  0  0  0
  3 23  1  0  0  0  0
  4  5  1  0  0  0  0
  5 11  1  0  0  0  0
  6  5  1  0  0  0  0
  6 12  1  0  0  0  0
  7  6  2  0  0  0  0
  8  7  1  0  0  0  0
  8  4  2  0  0  0  0
  9  8  1  0  0  0  0
 10  1  1  0  0  0  0
 13  9  1  0  0  0  0
 14 19  2  0  0  0  0
 14 15  1  0  0  0  0
 15 16  2  0  0  0  0
 16 22  1  0  0  0  0
 16 17  1  0  0  0  0
 18 17  2  0  0  0  0
 18  2  1  0  0  0  0
 19 18  1  0  0  0  0
 20 14  1  0  0  0  0
 21 15  1  0  0  0  0
 23 25  1  0  0  0  0
 24 29  1  0  0  0  0
 24 25  1  0  0  0  0
 25 31  1  1  0  0  0
 25 26  1  0  0  0  0
 26 27  1  0  0  0  0
 26 32  1  0  0  0  0
 28 27  1  0  0  0  0
 28 35  1  0  0  0  0
 28 34  1  0  0  0  0
 29 36  1  6  0  0  0
 29 28  1  0  0  0  0
 30 24  1  0  0  0  0
 33 26  1  0  0  0  0
 37 29  1  0  0  0  0
 37 39  2  0  0  0  0
 38 37  1  0  0  0  0
M  END
>  <minimizedAffinity>
-5.25904274

$$$$

 OpenBabel03252509153D

 39 42  0  0  1  0  0  0  0  0999 V2000
   34.5720   27.9280   37.9140 C   0  0  0  0  0  0  0  0  0  0  0  0
   35.8300   28.2950   38.3800 C   0  0  0  0  0  0  0  0  0  0  0  0
   36.7170   29.0390   37.6220 C   0  0  0  0  0  0  0  0  0  0  0  0
   36.3530   29.4480   36.3350 C   0  0  0  0  0  0  0  0  0  0  0  0
   36.9280   30.1510   35.3530 N   0  0  0  0  0  0  0  0  0  0  0  0
   36.1120   30.2480   34.3000 C   0  0  0  0  0  0  0  0  0  0  0  0
   34.9930   29.5780   34.6550 N   0  0  0  0  0  0  0  0  0  0  0  0
   35.1110   29.0740   35.9020 C   0  0  0  0  0  0  0  0  0  0  0  0
   34.1950   28.3300   36.6300 C   0  0  0  0  0  0  0  0  0  0  0  0
   33.8860   27.3410   38.5220 H   0  0  0  0  0  0  0  0  0  0  0  0
   37.8890   30.5670   35.4040 H   0  0  0  0  0  0  0  0  0  0  0  0
   36.2920   30.7550   33.3480 H   0  0  0  0  0  0  0  0  0  0  0  0
   33.2290   28.0700   36.2250 H   0  0  0  0  0  0  0  0  0  0  0  0
   36.3060   28.3190   42.0120 C   0  0  0  0  0  0  0  0  0  0  0  0
   36.9770   27.1170   42.2440 C   0  0  0  0  0  0  0  0  0  0  0  0
   37.2620   26.3020   41.1450 C   0  0  0  0  0  0  0  0  0  0  0  0
   36.8760   26.7100   39.8920 N   0  0  0  0  0  0  0  0  0  0  0  0
   36.2340   27.8760   39.7230 C   0  0  0  0  0  0  0  0  0  0  0  0
   35.9360   28.7000   40.7590 N   0  0  0  0  0  0  0  0  0  0  0  0
   36.0450   29.0140   42.8050 H   0  0  0  0  0  0  0  0  0  0  0  0
   37.2330   26.8910   43.2530 H   0  0  0  0  0  0  0  0  0  0  0  0
   37.7750   25.3780   41.3110 H   0  0  0  0  0  0  0  0  0  0  0  0
   38.3210   29.4940   38.2430 S   0  0  0  0  0  0  0  0  0  0  0  0
   39.5310   31.6770   39.0540 N   0  0  0  0  0  0  0  0  0  0  0  0
   38.2990   30.9500   39.3120 C   0  0  1  0  0  0  0  0  0  0  0  0
   37.0830   31.7690   38.8740 C   0  0  0  0  0  0  0  0  0  0  0  0
   37.1660   33.0970   39.2370 O   0  0  0  0  0  0  0  0  0  0  0  0
   38.1710   33.4210   40.1140 C   0  0  0  0  0  0  0  0  0  0  0  0
   39.4940   33.0320   39.5000 C   0  0  1  0  0  0  0  0  0  0  0  0
   40.3050   31.1090   39.4120 H   0  0  0  0  0  0  0  0  0  0  0  0
   38.2270   30.6240   40.3680 H   0  0  0  0  0  0  0  0  0  0  0  0
   36.2090   31.3940   39.4010 H   0  0  0  0  0  0  0  0  0  0  0  0
   36.9060   31.6700   37.7970 H   0  0  0  0  0  0  0  0  0  0  0  0
   38.1030   32.8840   41.0760 H   0  0  0  0  0  0  0  0  0  0  0  0
   38.1520   34.4970   40.2750 H   0  0  0  0  0  0  0  0  0  0  0  0
   39.6860   33.7440   38.6590 H   0  0  0  0  0  0  0  0  0  0  0  0
   40.5540   33.2100   40.5320 C   0  0  0  0  0  0  0  0  0  0  0  0
   40.6790   32.6420   41.4380 H   0  0  0  0  0  0  0  0  0  0  0  0
   41.3550   34.0910   40.3160 O   0  0  0  0  0  0  0  0  0  0  0  0
  1  2  1  0  0  0  0
  1 10  1  0  0  0  0
  2 18  1  0  0  0  0
  3 23  1  0  0  0  0
  3  2  2  0  0  0  0
  4  3  1  0  0  0  0
  5 11  1  0  0  0  0
  5  4  1  0  0  0  0
  6  7  2  0  0  0  0
  6  5  1  0  0  0  0
  7  8  1  0  0  0  0
  8  4  2  0  0  0  0
  8  9  1  0  0  0  0
  9  1  2  0  0  0  0
 12  6  1  0  0  0  0
 13  9  1  0  0  0  0
 14 15  1  0  0  0  0
 14 20  1  0  0  0  0
 15 21  1  0  0  0  0
 16 22  1  0  0  0  0
 16 15  2  0  0  0  0
 17 16  1  0  0  0  0
 18 17  2  0  0  0  0
 18 19  1  0  0  0  0
 19 14  2  0  0  0  0
 23 25  1  0  0  0  0
 24 25  1  0  0  0  0
 24 30  1  0  0  0  0
 24 29  1  0  0  0  0
 25 31  1  1  0  0  0
 26 27  1  0  0  0  0
 26 25  1  0  0  0  0
 26 32  1  0  0  0  0
 27 28  1  0  0  0  0
 28 35  1  0  0  0  0
 28 34  1  0  0  0  0
 29 36  1  6  0  0  0
 29 28  1  0  0  0  0
 29 37  1  0  0  0  0
 33 26  1  0  0  0  0
 37 38  1  0  0  0  0
 39 37  2  0  0  0  0
M  END
>  <minimizedAffinity>
-5.22474241

$$$$

 OpenBabel03252509153D

 39 42  0  0  1  0  0  0  0  0999 V2000
   37.2410   30.8140   36.6790 C   0  0  0  0  0  0  0  0  0  0  0  0
   37.0390   30.7690   38.0560 C   0  0  0  0  0  0  0  0  0  0  0  0
   36.1850   29.8600   38.6540 C   0  0  0  0  0  0  0  0  0  0  0  0
   35.4880   28.9410   37.8620 C   0  0  0  0  0  0  0  0  0  0  0  0
   34.6120   27.9550   38.0820 N   0  0  0  0  0  0  0  0  0  0  0  0
   34.2510   27.3760   36.9340 C   0  0  0  0  0  0  0  0  0  0  0  0
   34.9350   28.0380   35.9740 N   0  0  0  0  0  0  0  0  0  0  0  0
   35.7050   29.0060   36.5130 C   0  0  0  0  0  0  0  0  0  0  0  0
   36.5510   29.9010   35.8770 C   0  0  0  0  0  0  0  0  0  0  0  0
   37.9160   31.5350   36.2240 H   0  0  0  0  0  0  0  0  0  0  0  0
   34.2590   27.6740   39.0290 H   0  0  0  0  0  0  0  0  0  0  0  0
   33.5540   26.5480   36.7830 H   0  0  0  0  0  0  0  0  0  0  0  0
   36.6750   29.8960   34.8040 H   0  0  0  0  0  0  0  0  0  0  0  0
   37.8200   33.8060   39.9500 C   0  0  0  0  0  0  0  0  0  0  0  0
   39.0770   33.5200   40.4870 C   0  0  0  0  0  0  0  0  0  0  0  0
   39.6490   32.2790   40.1940 C   0  0  0  0  0  0  0  0  0  0  0  0
   38.9620   31.3980   39.3970 N   0  0  0  0  0  0  0  0  0  0  0  0
   37.7560   31.7220   38.9040 C   0  0  0  0  0  0  0  0  0  0  0  0
   37.1620   32.9130   39.1610 N   0  0  0  0  0  0  0  0  0  0  0  0
   37.3010   34.7440   40.1240 H   0  0  0  0  0  0  0  0  0  0  0  0
   39.5260   34.2710   41.0940 H   0  0  0  0  0  0  0  0  0  0  0  0
   40.6110   32.0490   40.6020 H   0  0  0  0  0  0  0  0  0  0  0  0
   35.9450   29.8250   40.4160 S   0  0  0  0  0  0  0  0  0  0  0  0
   38.0500   29.7800   41.9830 N   0  0  0  0  0  0  0  0  0  0  0  0
   37.1780   28.8410   41.2970 C   0  0  1  0  0  0  0  0  0  0  0  0
   36.3930   27.9940   42.3000 C   0  0  0  0  0  0  0  0  0  0  0  0
   37.1670   27.5440   43.3510 O   0  0  0  0  0  0  0  0  0  0  0  0
   38.5220   27.7120   43.2160 C   0  0  0  0  0  0  0  0  0  0  0  0
   38.8130   29.1830   43.0310 C   0  0  1  0  0  0  0  0  0  0  0  0
   38.5870   30.2810   41.2690 H   0  0  0  0  0  0  0  0  0  0  0  0
   37.7340   28.2200   40.5680 H   0  0  0  0  0  0  0  0  0  0  0  0
   36.0580   27.0900   41.7990 H   0  0  0  0  0  0  0  0  0  0  0  0
   35.5120   28.5310   42.6680 H   0  0  0  0  0  0  0  0  0  0  0  0
   38.9420   27.1980   42.3340 H   0  0  0  0  0  0  0  0  0  0  0  0
   39.0030   27.3630   44.1270 H   0  0  0  0  0  0  0  0  0  0  0  0
   38.6170   29.6810   44.0140 H   0  0  0  0  0  0  0  0  0  0  0  0
   40.2570   29.3310   42.6970 C   0  0  0  0  0  0  0  0  0  0  0  0
   40.7440   30.2070   42.3020 H   0  0  0  0  0  0  0  0  0  0  0  0
   40.9450   28.3560   42.8940 O   0  0  0  0  0  0  0  0  0  0  0  0
  1  2  1  0  0  0  0
  2  3  2  0  0  0  0
  2 18  1  0  0  0  0
  3 23  1  0  0  0  0
  4  5  1  0  0  0  0
  4  3  1  0  0  0  0
  5 11  1  0  0  0  0
  6  5  1  0  0  0  0
  7  8  1  0  0  0  0
  7  6  2  0  0  0  0
  8  4  2  0  0  0  0
  9  8  1  0  0  0  0
  9  1  2  0  0  0  0
 10  1  1  0  0  0  0
 12  6  1  0  0  0  0
 13  9  1  0  0  0  0
 14 20  1  0  0  0  0
 14 15  1  0  0  0  0
 15 21  1  0  0  0  0
 16 15  2  0  0  0  0
 16 22  1  0  0  0  0
 17 16  1  0  0  0  0
 18 19  1  0  0  0  0
 18 17  2  0  0  0  0
 19 14  2  0  0  0  0
 23 25  1  0  0  0  0
 24 29  1  0  0  0  0
 25 31  1  6  0  0  0
 25 24  1  0  0  0  0
 25 26  1  0  0  0  0
 26 33  1  0  0  0  0
 26 27  1  0  0  0  0
 28 27  1  0  0  0  0
 28 35  1  0  0  0  0
 29 28  1  0  0  0  0
 29 36  1  1  0  0  0
 30 24  1  0  0  0  0
 32 26  1  0  0  0  0
 34 28  1  0  0  0  0
 37 39  2  0  0  0  0
 37 29  1  0  0  0  0
 38 37  1  0  0  0  0
M  END
>  <minimizedAffinity>
-5.17049932

$$$$

 OpenBabel03252509153D

 39 42  0  0  1  0  0  0  0  0999 V2000
   36.5750   26.5280   39.4010 C   0  0  0  0  0  0  0  0  0  0  0  0
   36.4390   27.9010   39.2220 C   0  0  0  0  0  0  0  0  0  0  0  0
   36.5640   28.8020   40.2640 C   0  0  0  0  0  0  0  0  0  0  0  0
   36.8390   28.3360   41.5540 C   0  0  0  0  0  0  0  0  0  0  0  0
   37.0220   28.8910   42.7570 N   0  0  0  0  0  0  0  0  0  0  0  0
   37.2630   27.9560   43.6790 C   0  0  0  0  0  0  0  0  0  0  0  0
   37.2280   26.7810   43.0100 N   0  0  0  0  0  0  0  0  0  0  0  0
   36.9690   26.9820   41.7010 C   0  0  0  0  0  0  0  0  0  0  0  0
   36.8500   26.0480   40.6840 C   0  0  0  0  0  0  0  0  0  0  0  0
   36.4730   25.8310   38.5710 H   0  0  0  0  0  0  0  0  0  0  0  0
   36.9800   29.9210   42.9490 H   0  0  0  0  0  0  0  0  0  0  0  0
   37.4510   28.0910   44.7480 H   0  0  0  0  0  0  0  0  0  0  0  0
   36.9660   24.9910   40.8720 H   0  0  0  0  0  0  0  0  0  0  0  0
   34.5720   28.9270   36.2420 C   0  0  0  0  0  0  0  0  0  0  0  0
   35.5810   29.3640   35.3810 C   0  0  0  0  0  0  0  0  0  0  0  0
   36.9020   29.3040   35.8340 C   0  0  0  0  0  0  0  0  0  0  0  0
   37.1550   28.8210   37.0950 N   0  0  0  0  0  0  0  0  0  0  0  0
   36.1490   28.4120   37.8830 C   0  0  0  0  0  0  0  0  0  0  0  0
   34.8520   28.4530   37.4860 N   0  0  0  0  0  0  0  0  0  0  0  0
   33.5190   28.9380   35.9750 H   0  0  0  0  0  0  0  0  0  0  0  0
   35.2800   29.7210   34.4250 H   0  0  0  0  0  0  0  0  0  0  0  0
   37.6830   29.6370   35.1830 H   0  0  0  0  0  0  0  0  0  0  0  0
   36.3840   30.5540   40.0090 S   0  0  0  0  0  0  0  0  0  0  0  0
   38.5790   31.1980   38.7220 N   0  0  0  0  0  0  0  0  0  0  0  0
   37.9520   31.4520   40.0080 C   0  0  1  0  0  0  0  0  0  0  0  0
   37.5840   32.9300   40.1520 C   0  0  0  0  0  0  0  0  0  0  0  0
   38.5780   33.7800   39.7120 O   0  0  0  0  0  0  0  0  0  0  0  0
   39.7940   33.2010   39.4490 C   0  0  0  0  0  0  0  0  0  0  0  0
   39.6060   32.1340   38.3970 C   0  0  1  0  0  0  0  0  0  0  0  0
   38.8510   30.2110   38.7000 H   0  0  0  0  0  0  0  0  0  0  0  0
   38.5770   31.0910   40.8480 H   0  0  0  0  0  0  0  0  0  0  0  0
   37.4780   33.1560   41.2100 H   0  0  0  0  0  0  0  0  0  0  0  0
   36.6330   33.1520   39.6550 H   0  0  0  0  0  0  0  0  0  0  0  0
   40.2390   32.7000   40.3260 H   0  0  0  0  0  0  0  0  0  0  0  0
   40.4630   33.9690   39.0670 H   0  0  0  0  0  0  0  0  0  0  0  0
   39.3890   32.6600   37.4330 H   0  0  0  0  0  0  0  0  0  0  0  0
   40.8880   31.3870   38.2600 C   0  0  0  0  0  0  0  0  0  0  0  0
   41.4360   30.8920   39.0420 H   0  0  0  0  0  0  0  0  0  0  0  0
   41.3510   31.3390   37.1420 O   0  0  0  0  0  0  0  0  0  0  0  0
  1  9  1  0  0  0  0
  2  1  2  0  0  0  0
  2  3  1  0  0  0  0
  3  4  2  0  0  0  0
  4  8  1  0  0  0  0
  4  5  1  0  0  0  0
  5 11  1  0  0  0  0
  5  6  1  0  0  0  0
  6 12  1  0  0  0  0
  7  6  2  0  0  0  0
  8  7  1  0  0  0  0
  9 13  1  0  0  0  0
  9  8  2  0  0  0  0
 10  1  1  0  0  0  0
 14 19  1  0  0  0  0
 15 16  1  0  0  0  0
 15 14  2  0  0  0  0
 16 17  2  0  0  0  0
 17 18  1  0  0  0  0
 18  2  1  0  0  0  0
 19 18  2  0  0  0  0
 20 14  1  0  0  0  0
 21 15  1  0  0  0  0
 22 16  1  0  0  0  0
 23  3  1  0  0  0  0
 24 25  1  0  0  0  0
 25 23  1  0  0  0  0
 25 26  1  0  0  0  0
 25 31  1  1  0  0  0
 26 32  1  0  0  0  0
 27 26  1  0  0  0  0
 28 27  1  0  0  0  0
 28 34  1  0  0  0  0
 29 36  1  6  0  0  0
 29 24  1  0  0  0  0
 29 28  1  0  0  0  0
 30 24  1  0  0  0  0
 33 26  1  0  0  0  0
 35 28  1  0  0  0  0
 37 29  1  0  0  0  0
 37 38  1  0  0  0  0
 39 37  2  0  0  0  0
M  END
>  <minimizedAffinity>
-5.05424976

$$$$
