
 OpenBabel03242519053D

 37 39  0  0  1  0  0  0  0  0999 V2000
   47.7540   34.2600   42.2720 N   0  0  0  0  0  0  0  0  0  0  0  0
   47.9800   34.6820   40.9080 C   0  0  0  0  0  0  0  0  0  0  0  0
   48.3610   33.3540   40.3120 C   0  0  2  0  0  0  0  0  0  0  0  0
   49.4120   32.8840   41.2960 C   0  0  0  0  0  0  0  0  0  0  0  0
   48.8650   33.3860   42.6110 C   0  0  0  0  0  0  0  0  0  0  0  0
   48.7760   35.4290   40.8070 H   0  0  0  0  0  0  0  0  0  0  0  0
   47.0020   35.0270   40.4720 H   0  0  0  0  0  0  0  0  0  0  0  0
   47.4710   32.7230   40.2870 H   0  0  0  0  0  0  0  0  0  0  0  0
   49.4450   31.7730   41.2940 H   0  0  0  0  0  0  0  0  0  0  0  0
   50.3870   33.3320   41.0390 H   0  0  0  0  0  0  0  0  0  0  0  0
   48.5110   32.5660   43.2650 H   0  0  0  0  0  0  0  0  0  0  0  0
   49.6540   34.0070   43.0640 H   0  0  0  0  0  0  0  0  0  0  0  0
   44.7920   35.7860   43.9270 C   0  0  0  0  0  0  0  0  0  0  0  0
   45.7750   35.5770   42.9690 C   0  0  0  0  0  0  0  0  0  0  0  0
   46.7140   34.5760   43.1580 C   0  0  0  0  0  0  0  0  0  0  0  0
   46.6120   33.8360   44.3040 N   0  0  0  0  0  0  0  0  0  0  0  0
   45.6580   34.0390   45.2340 C   0  0  0  0  0  0  0  0  0  0  0  0
   44.7490   35.0180   45.0400 N   0  0  0  0  0  0  0  0  0  0  0  0
   44.1350   36.5910   43.6520 H   0  0  0  0  0  0  0  0  0  0  0  0
   45.8800   36.1480   42.0500 H   0  0  0  0  0  0  0  0  0  0  0  0
   45.6050   33.4390   46.1260 H   0  0  0  0  0  0  0  0  0  0  0  0
   49.0120   33.4840   39.0310 N   0  0  0  0  0  0  0  0  0  0  0  0
   49.8250   34.1420   38.9860 H   0  0  0  0  0  0  0  0  0  0  0  0
   49.6890   32.0510   37.1120 C   0  0  0  0  0  0  0  0  0  0  0  0
   48.7670   32.8800   37.7810 C   0  0  0  0  0  0  0  0  0  0  0  0
   47.5800   33.0600   37.1080 C   0  0  0  0  0  0  0  0  0  0  0  0
   47.2740   32.5020   35.8850 C   0  0  0  0  0  0  0  0  0  0  0  0
   48.1880   31.7030   35.2630 C   0  0  0  0  0  0  0  0  0  0  0  0
   49.3820   31.4940   35.8930 C   0  0  0  0  0  0  0  0  0  0  0  0
   46.8070   33.6860   37.5490 H   0  0  0  0  0  0  0  0  0  0  0  0
   46.3230   32.6840   35.4100 H   0  0  0  0  0  0  0  0  0  0  0  0
   47.9980   31.2410   34.3030 H   0  0  0  0  0  0  0  0  0  0  0  0
   50.3620   30.6420   35.2310 C   0  0  0  0  0  0  0  0  0  0  0  0
   50.6360   29.6450   35.4660 H   0  0  0  0  0  0  0  0  0  0  0  0
   51.0410   31.0390   34.2260 O   0  0  0  0  0  0  0  0  0  0  0  0
   51.9830   31.6270   38.2830 N   0  0  0  0  0  0  0  0  0  0  0  0
   50.9640   31.8090   37.7540 C   0  0  0  0  0  0  0  0  0  0  0  0
  1  5  1  0  0  0  0
  1 15  1  0  0  0  0
  2  1  1  0  0  0  0
  3  8  1  6  0  0  0
  3  2  1  0  0  0  0
  3  4  1  0  0  0  0
  4  5  1  0  0  0  0
  5 12  1  0  0  0  0
  5 11  1  0  0  0  0
  6  2  1  0  0  0  0
  7  2  1  0  0  0  0
  9  4  1  0  0  0  0
 10  4  1  0  0  0  0
 13 18  1  0  0  0  0
 14 15  1  0  0  0  0
 14 13  2  0  0  0  0
 15 16  2  0  0  0  0
 16 17  1  0  0  0  0
 17 21  1  0  0  0  0
 18 17  2  0  0  0  0
 19 13  1  0  0  0  0
 20 14  1  0  0  0  0
 22  3  1  0  0  0  0
 23 22  1  0  0  0  0
 24 37  1  0  0  0  0
 24 25  1  0  0  0  0
 25 22  1  0  0  0  0
 26 30  1  0  0  0  0
 26 25  2  0  0  0  0
 27 26  1  0  0  0  0
 28 27  2  0  0  0  0
 28 29  1  0  0  0  0
 29 24  2  0  0  0  0
 31 27  1  0  0  0  0
 32 28  1  0  0  0  0
 33 34  1  0  0  0  0
 33 29  1  0  0  0  0
 35 33  2  0  0  0  0
 37 36  3  0  0  0  0
M  END
>  <minimizedAffinity>
-4.7552433

>  <minimizedRMSD>
1.59724474

$$$$
