
 OpenBabel03252506443D

 34 36  0  0  1  0  0  0  0  0999 V2000
   36.7710   29.6670   41.1730 N   0  0  1  0  0  0  0  0  0  0  0  0
   37.3520   30.9510   40.8690 C   0  0  0  0  0  0  0  0  0  0  0  0
   36.7140   31.6470   39.7130 C   0  0  0  0  0  0  0  0  0  0  0  0
   37.0090   30.8530   38.4520 C   0  0  0  0  0  0  0  0  0  0  0  0
   36.9670   29.3800   38.7310 C   0  0  0  0  0  0  0  0  0  0  0  0
   36.1800   29.1100   39.9910 C   0  0  2  0  0  0  0  0  0  0  0  0
   38.4250   30.7950   40.5920 H   0  0  0  0  0  0  0  0  0  0  0  0
   37.3760   31.6080   41.7770 H   0  0  0  0  0  0  0  0  0  0  0  0
   37.2910   32.6060   39.5860 H   0  0  0  0  0  0  0  0  0  0  0  0
   35.6750   31.9410   39.8340 H   0  0  0  0  0  0  0  0  0  0  0  0
   38.0670   31.0700   38.1250 H   0  0  0  0  0  0  0  0  0  0  0  0
   36.3830   31.1360   37.5970 H   0  0  0  0  0  0  0  0  0  0  0  0
   36.3960   28.8920   37.9160 H   0  0  0  0  0  0  0  0  0  0  0  0
   37.9490   28.8960   38.8000 H   0  0  0  0  0  0  0  0  0  0  0  0
   36.2800   27.9930   40.1370 H   0  0  0  0  0  0  0  0  0  0  0  0
   37.5000   27.8770   42.8760 C   0  0  1  0  0  0  0  0  0  0  0  0
   38.0360   29.1730   43.2340 C   0  0  0  0  0  0  0  0  0  0  0  0
   37.8120   28.8810   41.7740 C   0  0  2  0  0  0  0  0  0  0  0  0
   36.4040   27.6560   42.9300 H   0  0  0  0  0  0  0  0  0  0  0  0
   39.1050   29.2260   43.5460 H   0  0  0  0  0  0  0  0  0  0  0  0
   37.4140   29.9190   43.7430 H   0  0  0  0  0  0  0  0  0  0  0  0
   38.6450   28.6240   41.1060 H   0  0  0  0  0  0  0  0  0  0  0  0
   37.9440   25.4760   42.2270 C   0  0  0  0  0  0  0  0  0  0  0  0
   38.3300   26.6550   42.9310 C   0  0  0  0  0  0  0  0  0  0  0  0
   39.5010   26.5980   43.6630 C   0  0  0  0  0  0  0  0  0  0  0  0
   40.2060   25.4300   43.6640 N   0  0  0  0  0  0  0  0  0  0  0  0
   39.8160   24.3310   42.9880 C   0  0  0  0  0  0  0  0  0  0  0  0
   38.6740   24.3410   42.2560 N   0  0  0  0  0  0  0  0  0  0  0  0
   37.0370   25.5320   41.6640 H   0  0  0  0  0  0  0  0  0  0  0  0
   39.8500   27.4510   44.2180 H   0  0  0  0  0  0  0  0  0  0  0  0
   40.3860   23.4230   43.0010 H   0  0  0  0  0  0  0  0  0  0  0  0
   34.7300   29.3460   39.8530 C   0  0  0  0  0  0  0  0  0  0  0  0
   34.3600   29.9340   40.7040 H   0  0  0  0  0  0  0  0  0  0  0  0
   33.9390   28.9900   38.9670 O   0  0  0  0  0  0  0  0  0  0  0  0
  1  2  1  6  0  0  0
  1 18  1  0  0  0  0
  2  8  1  0  0  0  0
  3 10  1  0  0  0  0
  3  2  1  0  0  0  0
  4  5  1  0  0  0  0
  4  3  1  0  0  0  0
  5 14  1  0  0  0  0
  5  6  1  0  0  0  0
  6 15  1  1  0  0  0
  6  1  1  0  0  0  0
  7  2  1  0  0  0  0
  9  3  1  0  0  0  0
 11  4  1  0  0  0  0
 12  4  1  0  0  0  0
 13  5  1  0  0  0  0
 16 19  1  1  0  0  0
 16 24  1  0  0  0  0
 16 17  1  0  0  0  0
 17 20  1  0  0  0  0
 17 21  1  0  0  0  0
 18 22  1  6  0  0  0
 18 16  1  0  0  0  0
 18 17  1  0  0  0  0
 23 28  2  0  0  0  0
 23 24  1  0  0  0  0
 24 25  2  0  0  0  0
 25 26  1  0  0  0  0
 25 30  1  0  0  0  0
 27 31  1  0  0  0  0
 27 26  2  0  0  0  0
 28 27  1  0  0  0  0
 29 23  1  0  0  0  0
 32  6  1  0  0  0  0
 32 33  1  0  0  0  0
 34 32  2  0  0  0  0
M  END
>  <minimizedAffinity>
-4.69020796

$$$$

 OpenBabel03252506443D

 34 36  0  0  1  0  0  0  0  0999 V2000
   36.9660   29.7260   40.6330 N   0  0  1  0  0  0  0  0  0  0  0  0
   37.2550   31.0950   40.9800 C   0  0  0  0  0  0  0  0  0  0  0  0
   36.9910   32.0690   39.8810 C   0  0  0  0  0  0  0  0  0  0  0  0
   37.9800   31.8050   38.7580 C   0  0  0  0  0  0  0  0  0  0  0  0
   38.2210   30.3330   38.5990 C   0  0  0  0  0  0  0  0  0  0  0  0
   37.0880   29.5490   39.2150 C   0  0  2  0  0  0  0  0  0  0  0  0
   38.3450   31.1740   41.2200 H   0  0  0  0  0  0  0  0  0  0  0  0
   36.7250   31.3920   41.9230 H   0  0  0  0  0  0  0  0  0  0  0  0
   37.2910   33.0740   40.2920 H   0  0  0  0  0  0  0  0  0  0  0  0
   35.9580   32.1760   39.5610 H   0  0  0  0  0  0  0  0  0  0  0  0
   38.9790   32.2470   39.0430 H   0  0  0  0  0  0  0  0  0  0  0  0
   37.7140   32.2920   37.8120 H   0  0  0  0  0  0  0  0  0  0  0  0
   38.1920   30.0950   37.5170 H   0  0  0  0  0  0  0  0  0  0  0  0
   39.1770   29.9770   39.0020 H   0  0  0  0  0  0  0  0  0  0  0  0
   37.4130   28.4720   39.1020 H   0  0  0  0  0  0  0  0  0  0  0  0
   37.2670   27.9070   42.4310 C   0  0  1  0  0  0  0  0  0  0  0  0
   37.7420   29.1860   42.9130 C   0  0  0  0  0  0  0  0  0  0  0  0
   37.8330   28.9100   41.4360 C   0  0  2  0  0  0  0  0  0  0  0  0
   36.1810   27.7130   42.2440 H   0  0  0  0  0  0  0  0  0  0  0  0
   38.7190   29.2100   43.4500 H   0  0  0  0  0  0  0  0  0  0  0  0
   37.0410   29.9440   43.2850 H   0  0  0  0  0  0  0  0  0  0  0  0
   38.7850   28.6380   40.9610 H   0  0  0  0  0  0  0  0  0  0  0  0
   39.2130   26.6640   43.4580 C   0  0  0  0  0  0  0  0  0  0  0  0
   38.0370   26.6640   42.6500 C   0  0  0  0  0  0  0  0  0  0  0  0
   37.6610   25.4600   42.0840 C   0  0  0  0  0  0  0  0  0  0  0  0
   38.4300   24.3610   42.3330 N   0  0  0  0  0  0  0  0  0  0  0  0
   39.5360   24.3910   43.1020 C   0  0  0  0  0  0  0  0  0  0  0  0
   39.9440   25.5500   43.6780 N   0  0  0  0  0  0  0  0  0  0  0  0
   39.4950   27.6000   43.8910 H   0  0  0  0  0  0  0  0  0  0  0  0
   36.7850   25.3900   41.4630 H   0  0  0  0  0  0  0  0  0  0  0  0
   40.1260   23.5150   43.2860 H   0  0  0  0  0  0  0  0  0  0  0  0
   35.8200   29.6440   38.4670 C   0  0  0  0  0  0  0  0  0  0  0  0
   35.0590   30.1530   39.0750 H   0  0  0  0  0  0  0  0  0  0  0  0
   35.5270   29.2500   37.3290 O   0  0  0  0  0  0  0  0  0  0  0  0
  1  2  1  6  0  0  0
  1 18  1  0  0  0  0
  2  7  1  0  0  0  0
  2  8  1  0  0  0  0
  3  9  1  0  0  0  0
  3  2  1  0  0  0  0
  4 11  1  0  0  0  0
  4  3  1  0  0  0  0
  5  4  1  0  0  0  0
  5 14  1  0  0  0  0
  5  6  1  0  0  0  0
  6 15  1  6  0  0  0
  6  1  1  0  0  0  0
 10  3  1  0  0  0  0
 12  4  1  0  0  0  0
 13  5  1  0  0  0  0
 16 19  1  6  0  0  0
 16 24  1  0  0  0  0
 16 17  1  0  0  0  0
 17 21  1  0  0  0  0
 17 20  1  0  0  0  0
 18 22  1  6  0  0  0
 18 16  1  0  0  0  0
 18 17  1  0  0  0  0
 23 28  1  0  0  0  0
 23 29  1  0  0  0  0
 24 23  2  0  0  0  0
 25 26  2  0  0  0  0
 25 24  1  0  0  0  0
 26 27  1  0  0  0  0
 27 31  1  0  0  0  0
 27 28  2  0  0  0  0
 30 25  1  0  0  0  0
 32 33  1  0  0  0  0
 32  6  1  0  0  0  0
 34 32  2  0  0  0  0
M  END
>  <minimizedAffinity>
-4.47846222

$$$$

 OpenBabel03252506443D

 34 36  0  0  1  0  0  0  0  0999 V2000
   38.2660   26.4170   42.2930 N   0  0  1  0  0  0  0  0  0  0  0  0
   37.2750   25.4180   41.9790 C   0  0  0  0  0  0  0  0  0  0  0  0
   37.8000   24.0220   41.9770 C   0  0  0  0  0  0  0  0  0  0  0  0
   38.7790   23.8780   40.8240 C   0  0  0  0  0  0  0  0  0  0  0  0
   39.5900   25.1300   40.6590 C   0  0  0  0  0  0  0  0  0  0  0  0
   39.5690   25.9370   41.9340 C   0  0  2  0  0  0  0  0  0  0  0  0
   36.8930   25.6160   40.9450 H   0  0  0  0  0  0  0  0  0  0  0  0
   36.3790   25.5160   42.6460 H   0  0  0  0  0  0  0  0  0  0  0  0
   36.9250   23.3730   41.6870 H   0  0  0  0  0  0  0  0  0  0  0  0
   38.1560   23.6320   42.9260 H   0  0  0  0  0  0  0  0  0  0  0  0
   38.1970   23.7660   39.8640 H   0  0  0  0  0  0  0  0  0  0  0  0
   39.4030   22.9790   40.8840 H   0  0  0  0  0  0  0  0  0  0  0  0
   40.6490   24.8360   40.5120 H   0  0  0  0  0  0  0  0  0  0  0  0
   39.2910   25.7650   39.8160 H   0  0  0  0  0  0  0  0  0  0  0  0
   40.1420   26.8750   41.6680 H   0  0  0  0  0  0  0  0  0  0  0  0
   37.5480   28.8860   42.4390 C   0  0  1  0  0  0  0  0  0  0  0  0
   36.4500   28.0600   41.9860 C   0  0  0  0  0  0  0  0  0  0  0  0
   37.8490   27.6260   41.6400 C   0  0  2  0  0  0  0  0  0  0  0  0
   37.9500   28.8150   43.4810 H   0  0  0  0  0  0  0  0  0  0  0  0
   35.8430   28.4260   41.1260 H   0  0  0  0  0  0  0  0  0  0  0  0
   35.8560   27.4720   42.6970 H   0  0  0  0  0  0  0  0  0  0  0  0
   38.2640   27.7760   40.6340 H   0  0  0  0  0  0  0  0  0  0  0  0
   36.8790   30.8590   41.0070 C   0  0  0  0  0  0  0  0  0  0  0  0
   37.8560   30.1820   41.7980 C   0  0  0  0  0  0  0  0  0  0  0  0
   39.0910   30.7890   41.9290 C   0  0  0  0  0  0  0  0  0  0  0  0
   39.2940   31.9830   41.3010 N   0  0  0  0  0  0  0  0  0  0  0  0
   38.3510   32.5990   40.5610 C   0  0  0  0  0  0  0  0  0  0  0  0
   37.1240   32.0410   40.4050 N   0  0  0  0  0  0  0  0  0  0  0  0
   35.9270   30.3800   40.9130 H   0  0  0  0  0  0  0  0  0  0  0  0
   39.8730   30.3330   42.5100 H   0  0  0  0  0  0  0  0  0  0  0  0
   38.5310   33.5390   40.0770 H   0  0  0  0  0  0  0  0  0  0  0  0
   40.3320   25.3280   43.0400 C   0  0  0  0  0  0  0  0  0  0  0  0
   39.6910   25.2150   43.9240 H   0  0  0  0  0  0  0  0  0  0  0  0
   41.5140   24.9590   43.0920 O   0  0  0  0  0  0  0  0  0  0  0  0
  1  2  1  6  0  0  0
  2  8  1  0  0  0  0
  3  2  1  0  0  0  0
  3 10  1  0  0  0  0
  4 12  1  0  0  0  0
  4  3  1  0  0  0  0
  5  4  1  0  0  0  0
  5  6  1  0  0  0  0
  6 15  1  6  0  0  0
  6  1  1  0  0  0  0
  6 32  1  0  0  0  0
  7  2  1  0  0  0  0
  9  3  1  0  0  0  0
 11  4  1  0  0  0  0
 13  5  1  0  0  0  0
 14  5  1  0  0  0  0
 16 19  1  1  0  0  0
 17 16  1  0  0  0  0
 17 21  1  0  0  0  0
 18 22  1  6  0  0  0
 18 17  1  0  0  0  0
 18  1  1  0  0  0  0
 18 16  1  0  0  0  0
 20 17  1  0  0  0  0
 23 24  1  0  0  0  0
 24 25  2  0  0  0  0
 24 16  1  0  0  0  0
 25 30  1  0  0  0  0
 26 25  1  0  0  0  0
 27 26  2  0  0  0  0
 28 27  1  0  0  0  0
 28 23  2  0  0  0  0
 29 23  1  0  0  0  0
 31 27  1  0  0  0  0
 32 34  2  0  0  0  0
 32 33  1  0  0  0  0
M  END
>  <minimizedAffinity>
-4.42975664

$$$$

 OpenBabel03252506443D

 34 36  0  0  1  0  0  0  0  0999 V2000
   37.3250   28.3280   40.7830 N   0  0  1  0  0  0  0  0  0  0  0  0
   37.0150   29.2420   41.8540 C   0  0  0  0  0  0  0  0  0  0  0  0
   37.7260   28.9440   43.1310 C   0  0  0  0  0  0  0  0  0  0  0  0
   37.2060   27.6240   43.6740 C   0  0  0  0  0  0  0  0  0  0  0  0
   36.9500   26.6560   42.5560 C   0  0  0  0  0  0  0  0  0  0  0  0
   37.7240   27.0620   41.3270 C   0  0  2  0  0  0  0  0  0  0  0  0
   35.9200   29.1660   42.0750 H   0  0  0  0  0  0  0  0  0  0  0  0
   37.1760   30.3050   41.5360 H   0  0  0  0  0  0  0  0  0  0  0  0
   37.3590   29.7160   43.8660 H   0  0  0  0  0  0  0  0  0  0  0  0
   38.8090   29.0370   43.1210 H   0  0  0  0  0  0  0  0  0  0  0  0
   36.2030   27.8000   44.1590 H   0  0  0  0  0  0  0  0  0  0  0  0
   37.8330   27.1950   44.4650 H   0  0  0  0  0  0  0  0  0  0  0  0
   37.3610   25.6710   42.8540 H   0  0  0  0  0  0  0  0  0  0  0  0
   35.8920   26.5210   42.2980 H   0  0  0  0  0  0  0  0  0  0  0  0
   37.3970   26.3140   40.5440 H   0  0  0  0  0  0  0  0  0  0  0  0
   35.8100   29.4960   39.0590 C   0  0  1  0  0  0  0  0  0  0  0  0
   35.1010   29.2850   40.3030 C   0  0  0  0  0  0  0  0  0  0  0  0
   36.1740   28.2990   39.9260 C   0  0  2  0  0  0  0  0  0  0  0  0
   36.6620   30.2170   38.9790 H   0  0  0  0  0  0  0  0  0  0  0  0
   34.0590   28.8940   40.2490 H   0  0  0  0  0  0  0  0  0  0  0  0
   35.2530   29.9560   41.1580 H   0  0  0  0  0  0  0  0  0  0  0  0
   35.9250   27.3100   39.5160 H   0  0  0  0  0  0  0  0  0  0  0  0
   35.9380   29.2590   36.5460 C   0  0  0  0  0  0  0  0  0  0  0  0
   35.1770   29.2170   37.7520 C   0  0  0  0  0  0  0  0  0  0  0  0
   33.8340   28.9120   37.6390 C   0  0  0  0  0  0  0  0  0  0  0  0
   33.3280   28.6720   36.3950 N   0  0  0  0  0  0  0  0  0  0  0  0
   34.0730   28.7180   35.2730 C   0  0  0  0  0  0  0  0  0  0  0  0
   35.3950   29.0130   35.3350 N   0  0  0  0  0  0  0  0  0  0  0  0
   36.9770   29.4960   36.6450 H   0  0  0  0  0  0  0  0  0  0  0  0
   33.2010   28.8640   38.5090 H   0  0  0  0  0  0  0  0  0  0  0  0
   33.6550   28.5250   34.3040 H   0  0  0  0  0  0  0  0  0  0  0  0
   39.1820   26.8710   41.4480 C   0  0  0  0  0  0  0  0  0  0  0  0
   39.7130   27.7230   41.0000 H   0  0  0  0  0  0  0  0  0  0  0  0
   39.8320   25.9440   41.9510 O   0  0  0  0  0  0  0  0  0  0  0  0
  1  6  1  0  0  0  0
  1  2  1  1  0  0  0
  2  7  1  0  0  0  0
  2  3  1  0  0  0  0
  3  4  1  0  0  0  0
  3  9  1  0  0  0  0
  4 11  1  0  0  0  0
  4 12  1  0  0  0  0
  5 13  1  0  0  0  0
  5  4  1  0  0  0  0
  6 15  1  6  0  0  0
  6 32  1  0  0  0  0
  6  5  1  0  0  0  0
  8  2  1  0  0  0  0
 10  3  1  0  0  0  0
 14  5  1  0  0  0  0
 16 19  1  1  0  0  0
 16 18  1  0  0  0  0
 16 17  1  0  0  0  0
 17 21  1  0  0  0  0
 18 22  1  6  0  0  0
 18 17  1  0  0  0  0
 18  1  1  0  0  0  0
 20 17  1  0  0  0  0
 23 29  1  0  0  0  0
 23 24  1  0  0  0  0
 24 16  1  0  0  0  0
 25 24  2  0  0  0  0
 25 30  1  0  0  0  0
 26 25  1  0  0  0  0
 27 28  1  0  0  0  0
 27 26  2  0  0  0  0
 28 23  2  0  0  0  0
 31 27  1  0  0  0  0
 32 34  2  0  0  0  0
 33 32  1  0  0  0  0
M  END
>  <minimizedAffinity>
-4.36538363

$$$$

 OpenBabel03252506443D

 34 36  0  0  1  0  0  0  0  0999 V2000
   38.0970   26.6010   41.5000 N   0  0  1  0  0  0  0  0  0  0  0  0
   37.1880   25.8810   42.3570 C   0  0  0  0  0  0  0  0  0  0  0  0
   37.1450   24.4120   42.0980 C   0  0  0  0  0  0  0  0  0  0  0  0
   36.5390   24.1850   40.7240 C   0  0  0  0  0  0  0  0  0  0  0  0
   36.9970   25.2400   39.7610 C   0  0  0  0  0  0  0  0  0  0  0  0
   38.2630   25.8910   40.2640 C   0  0  2  0  0  0  0  0  0  0  0  0
   36.1540   26.2670   42.1750 H   0  0  0  0  0  0  0  0  0  0  0  0
   37.3960   26.0990   43.4370 H   0  0  0  0  0  0  0  0  0  0  0  0
   36.3780   24.0050   42.8170 H   0  0  0  0  0  0  0  0  0  0  0  0
   38.0570   23.8550   42.2920 H   0  0  0  0  0  0  0  0  0  0  0  0
   35.4190   24.3050   40.7960 H   0  0  0  0  0  0  0  0  0  0  0  0
   36.6910   23.1700   40.3380 H   0  0  0  0  0  0  0  0  0  0  0  0
   37.2780   24.7410   38.8120 H   0  0  0  0  0  0  0  0  0  0  0  0
   36.2510   26.0120   39.5350 H   0  0  0  0  0  0  0  0  0  0  0  0
   38.4660   26.7050   39.5070 H   0  0  0  0  0  0  0  0  0  0  0  0
   38.1850   29.0860   42.1710 C   0  0  1  0  0  0  0  0  0  0  0  0
   36.9670   28.4700   42.6500 C   0  0  0  0  0  0  0  0  0  0  0  0
   37.5770   27.9340   41.3820 C   0  0  2  0  0  0  0  0  0  0  0  0
   39.1880   28.8130   42.5860 H   0  0  0  0  0  0  0  0  0  0  0  0
   36.0120   29.0290   42.5150 H   0  0  0  0  0  0  0  0  0  0  0  0
   36.9660   27.8530   43.5580 H   0  0  0  0  0  0  0  0  0  0  0  0
   37.1640   28.1870   40.3960 H   0  0  0  0  0  0  0  0  0  0  0  0
   39.3610   31.2170   41.4900 C   0  0  0  0  0  0  0  0  0  0  0  0
   38.1780   30.4200   41.5340 C   0  0  0  0  0  0  0  0  0  0  0  0
   37.0380   30.9520   40.9620 C   0  0  0  0  0  0  0  0  0  0  0  0
   37.1160   32.1910   40.3980 N   0  0  0  0  0  0  0  0  0  0  0  0
   38.2490   32.9210   40.3710 C   0  0  0  0  0  0  0  0  0  0  0  0
   39.3920   32.4400   40.9200 N   0  0  0  0  0  0  0  0  0  0  0  0
   40.2370   30.7950   41.9350 H   0  0  0  0  0  0  0  0  0  0  0  0
   36.1110   30.4040   40.9610 H   0  0  0  0  0  0  0  0  0  0  0  0
   38.2890   33.8940   39.9220 H   0  0  0  0  0  0  0  0  0  0  0  0
   39.4480   25.0150   40.2070 C   0  0  0  0  0  0  0  0  0  0  0  0
   39.3730   24.3310   39.3510 H   0  0  0  0  0  0  0  0  0  0  0  0
   40.4420   24.9590   40.9460 O   0  0  0  0  0  0  0  0  0  0  0  0
  1  2  1  1  0  0  0
  2  8  1  0  0  0  0
  3 10  1  0  0  0  0
  3  2  1  0  0  0  0
  3  9  1  0  0  0  0
  4 11  1  0  0  0  0
  4  3  1  0  0  0  0
  5  6  1  0  0  0  0
  5  4  1  0  0  0  0
  6 15  1  6  0  0  0
  6  1  1  0  0  0  0
  7  2  1  0  0  0  0
 12  4  1  0  0  0  0
 13  5  1  0  0  0  0
 14  5  1  0  0  0  0
 16 19  1  1  0  0  0
 16 17  1  0  0  0  0
 17 21  1  0  0  0  0
 18 22  1  6  0  0  0
 18  1  1  0  0  0  0
 18 16  1  0  0  0  0
 18 17  1  0  0  0  0
 20 17  1  0  0  0  0
 23 24  1  0  0  0  0
 23 29  1  0  0  0  0
 24 16  1  0  0  0  0
 25 24  2  0  0  0  0
 26 25  1  0  0  0  0
 27 26  2  0  0  0  0
 27 28  1  0  0  0  0
 28 23  2  0  0  0  0
 30 25  1  0  0  0  0
 31 27  1  0  0  0  0
 32  6  1  0  0  0  0
 32 34  2  0  0  0  0
 33 32  1  0  0  0  0
M  END
>  <minimizedAffinity>
-4.26317215

$$$$

 OpenBabel03252506443D

 34 36  0  0  1  0  0  0  0  0999 V2000
   37.3630   30.7230   41.1370 N   0  0  1  0  0  0  0  0  0  0  0  0
   36.1790   30.5140   40.3410 C   0  0  0  0  0  0  0  0  0  0  0  0
   35.4520   29.2500   40.6560 C   0  0  0  0  0  0  0  0  0  0  0  0
   36.3270   28.0780   40.2450 C   0  0  0  0  0  0  0  0  0  0  0  0
   37.7700   28.3660   40.5380 C   0  0  0  0  0  0  0  0  0  0  0  0
   37.8850   29.4590   41.5710 C   0  0  2  0  0  0  0  0  0  0  0  0
   36.4850   30.4460   39.2670 H   0  0  0  0  0  0  0  0  0  0  0  0
   35.4960   31.4020   40.3960 H   0  0  0  0  0  0  0  0  0  0  0  0
   34.5820   29.2190   39.9400 H   0  0  0  0  0  0  0  0  0  0  0  0
   35.0200   29.1690   41.6500 H   0  0  0  0  0  0  0  0  0  0  0  0
   36.2630   27.9510   39.1260 H   0  0  0  0  0  0  0  0  0  0  0  0
   35.9980   27.1170   40.6580 H   0  0  0  0  0  0  0  0  0  0  0  0
   38.2110   27.4650   41.0090 H   0  0  0  0  0  0  0  0  0  0  0  0
   38.3750   28.6240   39.6600 H   0  0  0  0  0  0  0  0  0  0  0  0
   38.9980   29.6370   41.6520 H   0  0  0  0  0  0  0  0  0  0  0  0
   38.9400   32.7480   40.9230 C   0  0  1  0  0  0  0  0  0  0  0  0
   37.7680   32.9230   40.0930 C   0  0  0  0  0  0  0  0  0  0  0  0
   38.2540   31.5200   40.3410 C   0  0  2  0  0  0  0  0  0  0  0  0
   38.8800   32.7600   42.0400 H   0  0  0  0  0  0  0  0  0  0  0  0
   37.9160   33.2970   39.0540 H   0  0  0  0  0  0  0  0  0  0  0  0
   36.8150   33.2550   40.5250 H   0  0  0  0  0  0  0  0  0  0  0  0
   38.8170   30.9660   39.5790 H   0  0  0  0  0  0  0  0  0  0  0  0
   40.4760   33.8530   39.2470 C   0  0  0  0  0  0  0  0  0  0  0  0
   40.2950   33.0660   40.4230 C   0  0  0  0  0  0  0  0  0  0  0  0
   41.4350   32.6170   41.0630 C   0  0  0  0  0  0  0  0  0  0  0  0
   42.6460   32.9510   40.5340 N   0  0  0  0  0  0  0  0  0  0  0  0
   42.7860   33.6980   39.4200 C   0  0  0  0  0  0  0  0  0  0  0  0
   41.6960   34.1610   38.7590 N   0  0  0  0  0  0  0  0  0  0  0  0
   39.5870   34.1960   38.7610 H   0  0  0  0  0  0  0  0  0  0  0  0
   41.3700   32.0180   41.9550 H   0  0  0  0  0  0  0  0  0  0  0  0
   43.7490   33.9500   39.0210 H   0  0  0  0  0  0  0  0  0  0  0  0
   37.4670   29.0490   42.9250 C   0  0  0  0  0  0  0  0  0  0  0  0
   36.8690   29.8430   43.3940 H   0  0  0  0  0  0  0  0  0  0  0  0
   37.6890   28.0030   43.5520 O   0  0  0  0  0  0  0  0  0  0  0  0
  1  2  1  6  0  0  0
  1  6  1  0  0  0  0
  2  8  1  0  0  0  0
  2  3  1  0  0  0  0
  3 10  1  0  0  0  0
  4  5  1  0  0  0  0
  4  3  1  0  0  0  0
  4 12  1  0  0  0  0
  5 13  1  0  0  0  0
  5  6  1  0  0  0  0
  6 15  1  1  0  0  0
  6 32  1  0  0  0  0
  7  2  1  0  0  0  0
  9  3  1  0  0  0  0
 11  4  1  0  0  0  0
 14  5  1  0  0  0  0
 16 19  1  1  0  0  0
 17 18  1  0  0  0  0
 17 21  1  0  0  0  0
 17 16  1  0  0  0  0
 18 22  1  6  0  0  0
 18 16  1  0  0  0  0
 18  1  1  0  0  0  0
 20 17  1  0  0  0  0
 23 24  1  0  0  0  0
 24 16  1  0  0  0  0
 24 25  2  0  0  0  0
 25 30  1  0  0  0  0
 26 25  1  0  0  0  0
 27 26  2  0  0  0  0
 28 23  2  0  0  0  0
 28 27  1  0  0  0  0
 29 23  1  0  0  0  0
 31 27  1  0  0  0  0
 32 33  1  0  0  0  0
 32 34  2  0  0  0  0
M  END
>  <minimizedAffinity>
-4.26269293

$$$$

 OpenBabel03252506443D

 34 36  0  0  1  0  0  0  0  0999 V2000
   37.3750   28.9260   41.5610 N   0  0  1  0  0  0  0  0  0  0  0  0
   36.8010   28.1270   42.6150 C   0  0  0  0  0  0  0  0  0  0  0  0
   37.7730   27.7360   43.6780 C   0  0  0  0  0  0  0  0  0  0  0  0
   38.7920   26.7860   43.0710 C   0  0  0  0  0  0  0  0  0  0  0  0
   39.1310   27.1980   41.6690 C   0  0  0  0  0  0  0  0  0  0  0  0
   38.7780   28.6500   41.4520 C   0  0  2  0  0  0  0  0  0  0  0  0
   36.4210   27.1750   42.1660 H   0  0  0  0  0  0  0  0  0  0  0  0
   35.8970   28.6260   43.0530 H   0  0  0  0  0  0  0  0  0  0  0  0
   37.1870   27.0990   44.3990 H   0  0  0  0  0  0  0  0  0  0  0  0
   38.1980   28.5400   44.2710 H   0  0  0  0  0  0  0  0  0  0  0  0
   38.3260   25.7620   42.9820 H   0  0  0  0  0  0  0  0  0  0  0  0
   39.6830   26.6400   43.6930 H   0  0  0  0  0  0  0  0  0  0  0  0
   40.2320   27.1400   41.5510 H   0  0  0  0  0  0  0  0  0  0  0  0
   38.6690   26.5860   40.8840 H   0  0  0  0  0  0  0  0  0  0  0  0
   39.0050   28.8210   40.3570 H   0  0  0  0  0  0  0  0  0  0  0  0
   35.9480   29.8010   39.6040 C   0  0  1  0  0  0  0  0  0  0  0  0
   35.1410   29.0190   40.5150 C   0  0  0  0  0  0  0  0  0  0  0  0
   36.5980   28.6660   40.3820 C   0  0  2  0  0  0  0  0  0  0  0  0
   36.3750   30.7930   39.8950 H   0  0  0  0  0  0  0  0  0  0  0  0
   34.4330   28.2770   40.0790 H   0  0  0  0  0  0  0  0  0  0  0  0
   34.7680   29.4530   41.4520 H   0  0  0  0  0  0  0  0  0  0  0  0
   36.9270   27.7990   39.7930 H   0  0  0  0  0  0  0  0  0  0  0  0
   36.8880   30.0620   37.2720 C   0  0  0  0  0  0  0  0  0  0  0  0
   35.8360   29.6380   38.1380 C   0  0  0  0  0  0  0  0  0  0  0  0
   34.7190   29.0790   37.5470 C   0  0  0  0  0  0  0  0  0  0  0  0
   34.6940   28.9690   36.1880 N   0  0  0  0  0  0  0  0  0  0  0  0
   35.7040   29.3780   35.3940 C   0  0  0  0  0  0  0  0  0  0  0  0
   36.8200   29.9320   35.9300 N   0  0  0  0  0  0  0  0  0  0  0  0
   37.7470   30.4930   37.7410 H   0  0  0  0  0  0  0  0  0  0  0  0
   33.8890   28.7390   38.1420 H   0  0  0  0  0  0  0  0  0  0  0  0
   35.6650   29.2820   34.3270 H   0  0  0  0  0  0  0  0  0  0  0  0
   39.6540   29.5920   42.1730 C   0  0  0  0  0  0  0  0  0  0  0  0
   40.6570   29.1600   42.2930 H   0  0  0  0  0  0  0  0  0  0  0  0
   39.4180   30.7220   42.6260 O   0  0  0  0  0  0  0  0  0  0  0  0
  1  2  1  1  0  0  0
  2  8  1  0  0  0  0
  2  3  1  0  0  0  0
  3 10  1  0  0  0  0
  3  9  1  0  0  0  0
  4  3  1  0  0  0  0
  4 12  1  0  0  0  0
  5  4  1  0  0  0  0
  6 15  1  6  0  0  0
  6  1  1  0  0  0  0
  6  5  1  0  0  0  0
  6 32  1  0  0  0  0
  7  2  1  0  0  0  0
 11  4  1  0  0  0  0
 13  5  1  0  0  0  0
 14  5  1  0  0  0  0
 16 19  1  1  0  0  0
 16 18  1  0  0  0  0
 16 17  1  0  0  0  0
 17 21  1  0  0  0  0
 18 22  1  6  0  0  0
 18 17  1  0  0  0  0
 18  1  1  0  0  0  0
 20 17  1  0  0  0  0
 23 29  1  0  0  0  0
 23 24  1  0  0  0  0
 24 16  1  0  0  0  0
 25 24  2  0  0  0  0
 25 30  1  0  0  0  0
 26 25  1  0  0  0  0
 27 28  1  0  0  0  0
 27 26  2  0  0  0  0
 28 23  2  0  0  0  0
 31 27  1  0  0  0  0
 32 33  1  0  0  0  0
 32 34  2  0  0  0  0
M  END
>  <minimizedAffinity>
-4.21690845

$$$$

 OpenBabel03252506443D

 34 36  0  0  1  0  0  0  0  0999 V2000
   38.1950   29.1810   41.9620 N   0  0  1  0  0  0  0  0  0  0  0  0
   39.2730   29.6710   42.7840 C   0  0  0  0  0  0  0  0  0  0  0  0
   39.7050   31.0600   42.4540 C   0  0  0  0  0  0  0  0  0  0  0  0
   40.3340   31.0520   41.0710 C   0  0  0  0  0  0  0  0  0  0  0  0
   39.5980   30.1130   40.1600 C   0  0  0  0  0  0  0  0  0  0  0  0
   38.2110   29.8500   40.6920 C   0  0  2  0  0  0  0  0  0  0  0  0
   40.1650   29.0140   42.6230 H   0  0  0  0  0  0  0  0  0  0  0  0
   39.0270   29.5690   43.8740 H   0  0  0  0  0  0  0  0  0  0  0  0
   40.5610   31.2820   43.1530 H   0  0  0  0  0  0  0  0  0  0  0  0
   38.9770   31.8500   42.6180 H   0  0  0  0  0  0  0  0  0  0  0  0
   41.3810   30.6400   41.1500 H   0  0  0  0  0  0  0  0  0  0  0  0
   40.4540   32.0510   40.6350 H   0  0  0  0  0  0  0  0  0  0  0  0
   39.4500   30.6230   39.1870 H   0  0  0  0  0  0  0  0  0  0  0  0
   40.1080   29.1600   39.9730 H   0  0  0  0  0  0  0  0  0  0  0  0
   37.7880   29.0840   39.9760 H   0  0  0  0  0  0  0  0  0  0  0  0
   37.1330   26.8370   42.0760 C   0  0  1  0  0  0  0  0  0  0  0  0
   38.0110   27.0560   43.2040 C   0  0  0  0  0  0  0  0  0  0  0  0
   38.3380   27.7530   41.9110 C   0  0  2  0  0  0  0  0  0  0  0  0
   36.1730   27.4000   41.9570 H   0  0  0  0  0  0  0  0  0  0  0  0
   38.7100   26.2350   43.4880 H   0  0  0  0  0  0  0  0  0  0  0  0
   37.6800   27.6420   44.0710 H   0  0  0  0  0  0  0  0  0  0  0  0
   39.1360   27.3890   41.2490 H   0  0  0  0  0  0  0  0  0  0  0  0
   36.6390   25.4970   39.9910 C   0  0  0  0  0  0  0  0  0  0  0  0
   37.1430   25.5640   41.3240 C   0  0  0  0  0  0  0  0  0  0  0  0
   37.6310   24.3940   41.8730 C   0  0  0  0  0  0  0  0  0  0  0  0
   37.6000   23.2620   41.1120 N   0  0  0  0  0  0  0  0  0  0  0  0
   37.1180   23.2290   39.8540 C   0  0  0  0  0  0  0  0  0  0  0  0
   36.6290   24.3530   39.2740 N   0  0  0  0  0  0  0  0  0  0  0  0
   36.2640   26.4090   39.5760 H   0  0  0  0  0  0  0  0  0  0  0  0
   38.0250   24.3730   42.8740 H   0  0  0  0  0  0  0  0  0  0  0  0
   37.1040   22.3280   39.2730 H   0  0  0  0  0  0  0  0  0  0  0  0
   37.3020   31.0070   40.5910 C   0  0  0  0  0  0  0  0  0  0  0  0
   37.7480   31.7840   39.9550 H   0  0  0  0  0  0  0  0  0  0  0  0
   36.1850   31.1970   41.0940 O   0  0  0  0  0  0  0  0  0  0  0  0
  1  2  1  1  0  0  0
  2  8  1  0  0  0  0
  3 10  1  0  0  0  0
  3  2  1  0  0  0  0
  3  9  1  0  0  0  0
  4 11  1  0  0  0  0
  4  3  1  0  0  0  0
  5  6  1  0  0  0  0
  5  4  1  0  0  0  0
  6 15  1  6  0  0  0
  6  1  1  0  0  0  0
  7  2  1  0  0  0  0
 12  4  1  0  0  0  0
 13  5  1  0  0  0  0
 14  5  1  0  0  0  0
 16 19  1  1  0  0  0
 16 17  1  0  0  0  0
 17 20  1  0  0  0  0
 17 21  1  0  0  0  0
 18 22  1  6  0  0  0
 18  1  1  0  0  0  0
 18 16  1  0  0  0  0
 18 17  1  0  0  0  0
 23 24  1  0  0  0  0
 24 25  2  0  0  0  0
 24 16  1  0  0  0  0
 25 30  1  0  0  0  0
 26 25  1  0  0  0  0
 27 26  2  0  0  0  0
 28 27  1  0  0  0  0
 28 23  2  0  0  0  0
 29 23  1  0  0  0  0
 31 27  1  0  0  0  0
 32  6  1  0  0  0  0
 32 34  2  0  0  0  0
 33 32  1  0  0  0  0
M  END
>  <minimizedAffinity>
-4.13296223

$$$$

 OpenBabel03252506443D

 34 36  0  0  1  0  0  0  0  0999 V2000
   36.1240   28.4510   40.9420 N   0  0  1  0  0  0  0  0  0  0  0  0
   36.7980   29.5910   41.5120 C   0  0  0  0  0  0  0  0  0  0  0  0
   36.3230   30.9030   40.9840 C   0  0  0  0  0  0  0  0  0  0  0  0
   36.7100   31.0000   39.5180 C   0  0  0  0  0  0  0  0  0  0  0  0
   36.5640   29.6690   38.8420 C   0  0  0  0  0  0  0  0  0  0  0  0
   35.6350   28.7810   39.6340 C   0  0  2  0  0  0  0  0  0  0  0  0
   37.8850   29.5200   41.2550 H   0  0  0  0  0  0  0  0  0  0  0  0
   36.7590   29.5630   42.6320 H   0  0  0  0  0  0  0  0  0  0  0  0
   36.9590   31.6800   41.4970 H   0  0  0  0  0  0  0  0  0  0  0  0
   35.2940   31.1730   41.2020 H   0  0  0  0  0  0  0  0  0  0  0  0
   37.8070   31.2570   39.4480 H   0  0  0  0  0  0  0  0  0  0  0  0
   36.1950   31.8040   38.9790 H   0  0  0  0  0  0  0  0  0  0  0  0
   36.0600   29.8310   37.8690 H   0  0  0  0  0  0  0  0  0  0  0  0
   37.5070   29.1410   38.6560 H   0  0  0  0  0  0  0  0  0  0  0  0
   35.6620   27.7980   39.0760 H   0  0  0  0  0  0  0  0  0  0  0  0
   36.7420   26.1040   41.8020 C   0  0  1  0  0  0  0  0  0  0  0  0
   37.6220   27.1040   42.3670 C   0  0  0  0  0  0  0  0  0  0  0  0
   37.0530   27.3580   40.9970 C   0  0  2  0  0  0  0  0  0  0  0  0
   35.6580   26.0500   42.0730 H   0  0  0  0  0  0  0  0  0  0  0  0
   38.7150   26.8830   42.3920 H   0  0  0  0  0  0  0  0  0  0  0  0
   37.3010   27.7230   43.2150 H   0  0  0  0  0  0  0  0  0  0  0  0
   37.6560   27.2140   40.0900 H   0  0  0  0  0  0  0  0  0  0  0  0
   36.4430   23.9670   40.4860 C   0  0  0  0  0  0  0  0  0  0  0  0
   37.2630   24.8210   41.2830 C   0  0  0  0  0  0  0  0  0  0  0  0
   38.5500   24.3920   41.5470 C   0  0  0  0  0  0  0  0  0  0  0  0
   38.9500   23.1940   41.0330 N   0  0  0  0  0  0  0  0  0  0  0  0
   38.1530   22.4080   40.2830 C   0  0  0  0  0  0  0  0  0  0  0  0
   36.8820   22.7880   39.9970 N   0  0  0  0  0  0  0  0  0  0  0  0
   35.4490   24.3090   40.2880 H   0  0  0  0  0  0  0  0  0  0  0  0
   39.2210   24.9870   42.1430 H   0  0  0  0  0  0  0  0  0  0  0  0
   38.4880   21.4690   39.8870 H   0  0  0  0  0  0  0  0  0  0  0  0
   34.2220   29.2030   39.5900 C   0  0  0  0  0  0  0  0  0  0  0  0
   33.9430   29.6900   40.5340 H   0  0  0  0  0  0  0  0  0  0  0  0
   33.3770   29.0870   38.6910 O   0  0  0  0  0  0  0  0  0  0  0  0
  1 18  1  0  0  0  0
  1  2  1  6  0  0  0
  2  8  1  0  0  0  0
  3 10  1  0  0  0  0
  3  9  1  0  0  0  0
  3  2  1  0  0  0  0
  4  3  1  0  0  0  0
  5  4  1  0  0  0  0
  5  6  1  0  0  0  0
  6 15  1  6  0  0  0
  6  1  1  0  0  0  0
  7  2  1  0  0  0  0
 11  4  1  0  0  0  0
 12  4  1  0  0  0  0
 13  5  1  0  0  0  0
 14  5  1  0  0  0  0
 16 19  1  1  0  0  0
 16 17  1  0  0  0  0
 17 20  1  0  0  0  0
 17 21  1  0  0  0  0
 18 22  1  6  0  0  0
 18 16  1  0  0  0  0
 18 17  1  0  0  0  0
 23 24  1  0  0  0  0
 24 25  2  0  0  0  0
 24 16  1  0  0  0  0
 25 30  1  0  0  0  0
 26 25  1  0  0  0  0
 27 26  2  0  0  0  0
 28 27  1  0  0  0  0
 28 23  2  0  0  0  0
 29 23  1  0  0  0  0
 31 27  1  0  0  0  0
 32  6  1  0  0  0  0
 32 33  1  0  0  0  0
 34 32  2  0  0  0  0
M  END
>  <minimizedAffinity>
-4.10020018

$$$$
