
 OpenBabel03252509333D

 34 35  0  0  1  0  0  0  0  0999 V2000
   44.6420   35.2570   45.0800 O   0  0  0  0  0  0  0  0  0  0  0  0
   45.4700   34.2080   44.4180 P   0  0  2  0  0  0  0  0  0  0  0  0
   44.5490   32.9560   43.7850 O   0  0  0  0  0  0  0  0  0  0  0  0
   44.8680   32.6510   42.9180 H   0  0  0  0  0  0  0  0  0  0  0  0
   46.5000   33.4930   45.5620 O   0  0  0  0  0  0  0  0  0  0  0  0
   46.2910   32.1470   45.5410 C   0  0  0  0  0  0  0  0  0  0  0  0
   45.6130   31.7300   44.8110 H   0  0  0  0  0  0  0  0  0  0  0  0
   47.2950   31.6880   45.3030 H   0  0  0  0  0  0  0  0  0  0  0  0
   45.6840   31.9300   49.2050 C   0  0  0  0  0  0  0  0  0  0  0  0
   46.0330   32.4500   47.9520 C   0  0  0  0  0  0  0  0  0  0  0  0
   45.9270   31.6130   46.8550 C   0  0  0  0  0  0  0  0  0  0  0  0
   45.4890   30.3300   47.0540 N   0  0  0  0  0  0  0  0  0  0  0  0
   45.1600   29.8610   48.2750 C   0  0  0  0  0  0  0  0  0  0  0  0
   45.2620   30.6690   49.3380 N   0  0  0  0  0  0  0  0  0  0  0  0
   45.7820   32.6130   50.0300 H   0  0  0  0  0  0  0  0  0  0  0  0
   46.3760   33.4660   47.8290 H   0  0  0  0  0  0  0  0  0  0  0  0
   44.8160   28.8510   48.4190 H   0  0  0  0  0  0  0  0  0  0  0  0
   46.4350   34.9290   43.2440 O   0  0  0  0  0  0  0  0  0  0  0  0
   46.6740   34.0160   42.2170 C   0  0  1  0  0  0  0  0  0  0  0  0
   45.9590   34.3530   40.9370 C   0  0  0  0  0  0  0  0  0  0  0  0
   46.6670   33.4360   39.9570 C   0  0  0  0  0  0  0  0  0  0  0  0
   48.0600   33.2220   40.5100 C   0  0  0  0  0  0  0  0  0  0  0  0
   48.1340   34.1040   41.7670 C   0  0  1  0  0  0  0  0  0  0  0  0
   46.4900   32.9700   42.4860 H   0  0  0  0  0  0  0  0  0  0  0  0
   46.0180   35.4070   40.6690 H   0  0  0  0  0  0  0  0  0  0  0  0
   44.9110   33.9840   40.9990 H   0  0  0  0  0  0  0  0  0  0  0  0
   46.1170   32.4900   39.8140 H   0  0  0  0  0  0  0  0  0  0  0  0
   46.7820   33.9770   38.9910 H   0  0  0  0  0  0  0  0  0  0  0  0
   48.1030   32.1720   40.8700 H   0  0  0  0  0  0  0  0  0  0  0  0
   48.8470   33.4690   39.7800 H   0  0  0  0  0  0  0  0  0  0  0  0
   48.7540   33.6480   42.5420 H   0  0  0  0  0  0  0  0  0  0  0  0
   48.5540   35.4770   41.4600 C   0  0  0  0  0  0  0  0  0  0  0  0
   48.0100   36.0980   40.7650 H   0  0  0  0  0  0  0  0  0  0  0  0
   49.5640   35.9230   42.0230 O   0  0  0  0  0  0  0  0  0  0  0  0
  2  1  2  1  0  0  0
  2  5  1  0  0  0  0
  3  2  1  0  0  0  0
  4  3  1  0  0  0  0
  6  5  1  0  0  0  0
  6 11  1  0  0  0  0
  7  6  1  0  0  0  0
  8  6  1  0  0  0  0
  9 14  1  0  0  0  0
  9 15  1  0  0  0  0
 10  9  2  0  0  0  0
 11 12  2  0  0  0  0
 11 10  1  0  0  0  0
 12 13  1  0  0  0  0
 13 17  1  0  0  0  0
 13 14  2  0  0  0  0
 16 10  1  0  0  0  0
 18  2  1  0  0  0  0
 19 24  1  1  0  0  0
 19 18  1  0  0  0  0
 20 26  1  0  0  0  0
 20 19  1  0  0  0  0
 21 22  1  0  0  0  0
 21 20  1  0  0  0  0
 22 29  1  0  0  0  0
 22 23  1  0  0  0  0
 23 19  1  0  0  0  0
 23 31  1  1  0  0  0
 25 20  1  0  0  0  0
 27 21  1  0  0  0  0
 28 21  1  0  0  0  0
 30 22  1  0  0  0  0
 32 23  1  0  0  0  0
 32 34  2  0  0  0  0
 33 32  1  0  0  0  0
M  END
>  <minimizedAffinity>
-4.93383026

>  <minimizedRMSD>
0.830993712

$$$$
