
 OpenBabel03242520433D

 33 35  0  0  1  0  0  0  0  0999 V2000
   38.5870   28.0770   36.7380 C   0  0  0  0  0  0  0  0  0  0  0  0
   37.4900   28.0150   35.8520 C   0  0  0  0  0  0  0  0  0  0  0  0
   36.6370   29.1560   35.7550 C   0  0  0  0  0  0  0  0  0  0  0  0
   36.9160   30.2550   36.5210 N   0  0  0  0  0  0  0  0  0  0  0  0
   37.9830   30.2560   37.3550 C   0  0  0  0  0  0  0  0  0  0  0  0
   38.8010   29.1790   37.4560 N   0  0  0  0  0  0  0  0  0  0  0  0
   38.1910   31.4220   38.1020 N   0  0  0  0  0  0  0  0  0  0  0  0
   37.1950   31.9020   39.0030 C   0  0  2  0  0  0  0  0  0  0  0  0
   37.4320   33.2750   39.5300 C   0  0  0  0  0  0  0  0  0  0  0  0
   38.7750   33.6960   39.6410 N   0  0  0  0  0  0  0  0  0  0  0  0
   39.7380   32.7010   39.3350 C   0  0  0  0  0  0  0  0  0  0  0  0
   39.4330   32.1550   37.9650 C   0  0  0  0  0  0  0  0  0  0  0  0
   39.1680   27.1870   36.7470 H   0  0  0  0  0  0  0  0  0  0  0  0
   37.2010   27.2000   35.2190 H   0  0  0  0  0  0  0  0  0  0  0  0
   35.7850   29.1890   35.1060 H   0  0  0  0  0  0  0  0  0  0  0  0
   36.2530   32.0090   38.3800 H   0  0  0  0  0  0  0  0  0  0  0  0
   36.8830   34.0590   38.9690 H   0  0  0  0  0  0  0  0  0  0  0  0
   36.9700   33.3110   40.5610 H   0  0  0  0  0  0  0  0  0  0  0  0
   38.9960   34.3100   40.4390 H   0  0  0  0  0  0  0  0  0  0  0  0
   40.7310   33.2450   39.2680 H   0  0  0  0  0  0  0  0  0  0  0  0
   39.9000   31.9390   40.1030 H   0  0  0  0  0  0  0  0  0  0  0  0
   40.2220   31.4150   37.7220 H   0  0  0  0  0  0  0  0  0  0  0  0
   39.3630   32.9980   37.2690 H   0  0  0  0  0  0  0  0  0  0  0  0
   36.8930   30.9170   40.0730 C   0  0  0  0  0  0  0  0  0  0  0  0
   35.8060   30.1040   40.3140 C   0  0  0  0  0  0  0  0  0  0  0  0
   35.9730   29.3580   41.4090 N   0  0  0  0  0  0  0  0  0  0  0  0
   37.1810   29.6940   41.8790 C   0  0  0  0  0  0  0  0  0  0  0  0
   37.7260   30.6200   41.0840 N   0  0  0  0  0  0  0  0  0  0  0  0
   34.9230   30.0770   39.6920 H   0  0  0  0  0  0  0  0  0  0  0  0
   35.2800   28.6660   41.7890 H   0  0  0  0  0  0  0  0  0  0  0  0
   37.7550   29.1000   43.0820 C   0  0  0  0  0  0  0  0  0  0  0  0
   38.7110   29.4300   43.4980 H   0  0  0  0  0  0  0  0  0  0  0  0
   37.1490   28.1790   43.6760 O   0  0  0  0  0  0  0  0  0  0  0  0
  1 13  1  0  0  0  0
  1  6  1  0  0  0  0
  2  1  2  0  0  0  0
  3  2  1  0  0  0  0
  3  4  2  0  0  0  0
  4  5  1  0  0  0  0
  5  6  2  0  0  0  0
  5  7  1  0  0  0  0
  7  8  1  0  0  0  0
  8 16  1  6  0  0  0
  8  9  1  0  0  0  0
  8 24  1  0  0  0  0
  9 10  1  0  0  0  0
  9 18  1  0  0  0  0
 10 19  1  0  0  0  0
 11 10  1  0  0  0  0
 11 21  1  0  0  0  0
 12  7  1  0  0  0  0
 12 11  1  0  0  0  0
 14  2  1  0  0  0  0
 15  3  1  0  0  0  0
 17  9  1  0  0  0  0
 20 11  1  0  0  0  0
 22 12  1  0  0  0  0
 23 12  1  0  0  0  0
 24 25  2  0  0  0  0
 24 28  1  0  0  0  0
 25 26  1  0  0  0  0
 26 30  1  0  0  0  0
 26 27  1  0  0  0  0
 27 31  1  0  0  0  0
 28 27  2  0  0  0  0
 29 25  1  0  0  0  0
 31 32  1  0  0  0  0
 31 33  2  0  0  0  0
M  END
>  <minimizedAffinity>
-5.06185961

$$$$

 OpenBabel03242520433D

 33 35  0  0  1  0  0  0  0  0999 V2000
   39.0830   28.2240   43.1370 C   0  0  0  0  0  0  0  0  0  0  0  0
   37.9330   27.4860   43.4910 C   0  0  0  0  0  0  0  0  0  0  0  0
   37.0300   27.1070   42.4530 C   0  0  0  0  0  0  0  0  0  0  0  0
   37.3140   27.4720   41.1650 N   0  0  0  0  0  0  0  0  0  0  0  0
   38.4330   28.1810   40.8860 C   0  0  0  0  0  0  0  0  0  0  0  0
   39.3000   28.5480   41.8620 N   0  0  0  0  0  0  0  0  0  0  0  0
   38.6430   28.5140   39.5410 N   0  0  0  0  0  0  0  0  0  0  0  0
   37.6900   29.2950   38.8230 C   0  0  2  0  0  0  0  0  0  0  0  0
   37.9050   29.3530   37.3500 C   0  0  0  0  0  0  0  0  0  0  0  0
   39.2340   29.2260   36.8920 N   0  0  0  0  0  0  0  0  0  0  0  0
   40.2150   29.1700   37.9140 C   0  0  0  0  0  0  0  0  0  0  0  0
   39.8420   28.0640   38.8650 C   0  0  0  0  0  0  0  0  0  0  0  0
   39.6990   28.4630   43.9690 H   0  0  0  0  0  0  0  0  0  0  0  0
   37.6360   27.1600   44.4680 H   0  0  0  0  0  0  0  0  0  0  0  0
   36.1350   26.5460   42.6390 H   0  0  0  0  0  0  0  0  0  0  0  0
   36.7050   28.7440   38.9320 H   0  0  0  0  0  0  0  0  0  0  0  0
   37.2890   28.6210   36.7900 H   0  0  0  0  0  0  0  0  0  0  0  0
   37.5120   30.3540   37.0040 H   0  0  0  0  0  0  0  0  0  0  0  0
   39.4830   29.7770   36.0560 H   0  0  0  0  0  0  0  0  0  0  0  0
   41.1780   28.8640   37.4010 H   0  0  0  0  0  0  0  0  0  0  0  0
   40.4590   30.1210   38.3970 H   0  0  0  0  0  0  0  0  0  0  0  0
   40.6420   28.0020   39.6300 H   0  0  0  0  0  0  0  0  0  0  0  0
   39.6910   27.1480   38.2820 H   0  0  0  0  0  0  0  0  0  0  0  0
   37.5010   30.6360   39.4320 C   0  0  0  0  0  0  0  0  0  0  0  0
   36.4920   31.1800   40.2000 C   0  0  0  0  0  0  0  0  0  0  0  0
   36.7500   32.4450   40.5410 N   0  0  0  0  0  0  0  0  0  0  0  0
   37.9380   32.7200   39.9870 C   0  0  0  0  0  0  0  0  0  0  0  0
   38.3820   31.6450   39.3280 N   0  0  0  0  0  0  0  0  0  0  0  0
   35.5990   30.6450   40.4880 H   0  0  0  0  0  0  0  0  0  0  0  0
   36.1280   33.0600   41.1220 H   0  0  0  0  0  0  0  0  0  0  0  0
   38.5910   34.0180   40.1220 C   0  0  0  0  0  0  0  0  0  0  0  0
   38.0770   34.8910   40.5330 H   0  0  0  0  0  0  0  0  0  0  0  0
   39.7820   34.1610   39.7600 O   0  0  0  0  0  0  0  0  0  0  0  0
  1  2  1  0  0  0  0
  1 13  1  0  0  0  0
  2 14  1  0  0  0  0
  3 15  1  0  0  0  0
  3  2  2  0  0  0  0
  4  3  1  0  0  0  0
  5  4  2  0  0  0  0
  5  6  1  0  0  0  0
  6  1  2  0  0  0  0
  7  5  1  0  0  0  0
  8 16  1  1  0  0  0
  8 24  1  0  0  0  0
  8  7  1  0  0  0  0
  9  8  1  0  0  0  0
 10  9  1  0  0  0  0
 10 11  1  0  0  0  0
 11 21  1  0  0  0  0
 11 12  1  0  0  0  0
 12  7  1  0  0  0  0
 12 22  1  0  0  0  0
 17  9  1  0  0  0  0
 18  9  1  0  0  0  0
 19 10  1  0  0  0  0
 20 11  1  0  0  0  0
 23 12  1  0  0  0  0
 24 25  2  0  0  0  0
 25 29  1  0  0  0  0
 25 26  1  0  0  0  0
 26 30  1  0  0  0  0
 27 31  1  0  0  0  0
 27 26  1  0  0  0  0
 28 24  1  0  0  0  0
 28 27  2  0  0  0  0
 31 32  1  0  0  0  0
 33 31  2  0  0  0  0
M  END
>  <minimizedAffinity>
-5.01181412

$$$$

 OpenBabel03242520433D

 33 35  0  0  1  0  0  0  0  0999 V2000
   39.2420   28.4780   37.3150 C   0  0  0  0  0  0  0  0  0  0  0  0
   40.6510   28.5240   37.4000 C   0  0  0  0  0  0  0  0  0  0  0  0
   41.2480   28.5140   38.6970 C   0  0  0  0  0  0  0  0  0  0  0  0
   40.4360   28.4620   39.7970 N   0  0  0  0  0  0  0  0  0  0  0  0
   39.0900   28.4200   39.6530 C   0  0  0  0  0  0  0  0  0  0  0  0
   38.5090   28.4280   38.4280 N   0  0  0  0  0  0  0  0  0  0  0  0
   38.3370   28.3700   40.8330 N   0  0  0  0  0  0  0  0  0  0  0  0
   38.4320   29.4070   41.8070 C   0  0  2  0  0  0  0  0  0  0  0  0
   37.7870   29.1040   43.1150 C   0  0  0  0  0  0  0  0  0  0  0  0
   36.6820   28.2250   43.0960 N   0  0  0  0  0  0  0  0  0  0  0  0
   36.2590   27.8270   41.8020 C   0  0  0  0  0  0  0  0  0  0  0  0
   37.4450   27.2540   41.0730 C   0  0  0  0  0  0  0  0  0  0  0  0
   38.8820   28.4880   36.3150 H   0  0  0  0  0  0  0  0  0  0  0  0
   41.3560   28.5660   36.5950 H   0  0  0  0  0  0  0  0  0  0  0  0
   42.3090   28.5470   38.8460 H   0  0  0  0  0  0  0  0  0  0  0  0
   39.5350   29.4820   42.0600 H   0  0  0  0  0  0  0  0  0  0  0  0
   38.4990   28.7260   43.8760 H   0  0  0  0  0  0  0  0  0  0  0  0
   37.4380   30.0900   43.5410 H   0  0  0  0  0  0  0  0  0  0  0  0
   35.9330   28.4180   43.7770 H   0  0  0  0  0  0  0  0  0  0  0  0
   35.5220   26.9820   41.9660 H   0  0  0  0  0  0  0  0  0  0  0  0
   35.6930   28.5720   41.2340 H   0  0  0  0  0  0  0  0  0  0  0  0
   37.0870   26.9050   40.0840 H   0  0  0  0  0  0  0  0  0  0  0  0
   37.8890   26.4750   41.7030 H   0  0  0  0  0  0  0  0  0  0  0  0
   38.0270   30.7250   41.2560 C   0  0  0  0  0  0  0  0  0  0  0  0
   36.8060   31.2460   40.8820 C   0  0  0  0  0  0  0  0  0  0  0  0
   36.9120   32.5010   40.4400 N   0  0  0  0  0  0  0  0  0  0  0  0
   38.2160   32.7930   40.5290 C   0  0  0  0  0  0  0  0  0  0  0  0
   38.8770   31.7370   41.0130 N   0  0  0  0  0  0  0  0  0  0  0  0
   35.8750   30.7010   40.9390 H   0  0  0  0  0  0  0  0  0  0  0  0
   36.1170   33.0990   40.1010 H   0  0  0  0  0  0  0  0  0  0  0  0
   38.7650   34.0880   40.1380 C   0  0  0  0  0  0  0  0  0  0  0  0
   38.2000   35.0190   40.2470 H   0  0  0  0  0  0  0  0  0  0  0  0
   39.9200   34.1610   39.6610 O   0  0  0  0  0  0  0  0  0  0  0  0
  1  2  2  0  0  0  0
  1  6  1  0  0  0  0
  2  3  1  0  0  0  0
  3 15  1  0  0  0  0
  3  4  2  0  0  0  0
  5  4  1  0  0  0  0
  5  7  1  0  0  0  0
  6  5  2  0  0  0  0
  7 12  1  0  0  0  0
  7  8  1  0  0  0  0
  8 16  1  1  0  0  0
  8  9  1  0  0  0  0
  9 18  1  0  0  0  0
  9 17  1  0  0  0  0
 10  9  1  0  0  0  0
 10 19  1  0  0  0  0
 11 20  1  0  0  0  0
 11 10  1  0  0  0  0
 12 23  1  0  0  0  0
 12 11  1  0  0  0  0
 13  1  1  0  0  0  0
 14  2  1  0  0  0  0
 21 11  1  0  0  0  0
 22 12  1  0  0  0  0
 24  8  1  0  0  0  0
 25 29  1  0  0  0  0
 25 24  2  0  0  0  0
 26 27  1  0  0  0  0
 26 25  1  0  0  0  0
 27 28  2  0  0  0  0
 28 24  1  0  0  0  0
 30 26  1  0  0  0  0
 31 32  1  0  0  0  0
 31 27  1  0  0  0  0
 33 31  2  0  0  0  0
M  END
>  <minimizedAffinity>
-4.88918114

$$$$

 OpenBabel03242520433D

 33 35  0  0  1  0  0  0  0  0999 V2000
   38.3120   27.2020   40.7940 C   0  0  0  0  0  0  0  0  0  0  0  0
   37.4680   26.9930   41.9060 C   0  0  0  0  0  0  0  0  0  0  0  0
   36.5920   28.0500   42.2960 C   0  0  0  0  0  0  0  0  0  0  0  0
   36.6070   29.2160   41.5800 N   0  0  0  0  0  0  0  0  0  0  0  0
   37.4390   29.3600   40.5220 C   0  0  0  0  0  0  0  0  0  0  0  0
   38.2760   28.3630   40.1400 N   0  0  0  0  0  0  0  0  0  0  0  0
   37.3880   30.5880   39.8490 N   0  0  0  0  0  0  0  0  0  0  0  0
   37.6700   31.8080   40.5310 C   0  0  2  0  0  0  0  0  0  0  0  0
   37.3280   33.0450   39.7740 C   0  0  0  0  0  0  0  0  0  0  0  0
   37.3830   32.9700   38.3660 N   0  0  0  0  0  0  0  0  0  0  0  0
   37.8690   31.7410   37.8520 C   0  0  0  0  0  0  0  0  0  0  0  0
   37.0480   30.6250   38.4410 C   0  0  0  0  0  0  0  0  0  0  0  0
   38.9290   26.3650   40.5730 H   0  0  0  0  0  0  0  0  0  0  0  0
   37.3940   26.1160   42.5180 H   0  0  0  0  0  0  0  0  0  0  0  0
   35.9220   27.9700   43.1280 H   0  0  0  0  0  0  0  0  0  0  0  0
   36.9630   31.8280   41.4170 H   0  0  0  0  0  0  0  0  0  0  0  0
   36.3380   33.4640   40.0460 H   0  0  0  0  0  0  0  0  0  0  0  0
   38.0560   33.8420   40.1080 H   0  0  0  0  0  0  0  0  0  0  0  0
   37.6960   33.8210   37.8750 H   0  0  0  0  0  0  0  0  0  0  0  0
   37.6560   31.7670   36.7390 H   0  0  0  0  0  0  0  0  0  0  0  0
   38.9510   31.5920   37.9150 H   0  0  0  0  0  0  0  0  0  0  0  0
   37.4100   29.6780   37.9940 H   0  0  0  0  0  0  0  0  0  0  0  0
   35.9900   30.8470   38.2590 H   0  0  0  0  0  0  0  0  0  0  0  0
   39.0490   31.8310   41.0800 C   0  0  0  0  0  0  0  0  0  0  0  0
   39.6140   31.2770   42.2100 C   0  0  0  0  0  0  0  0  0  0  0  0
   40.9170   31.5520   42.3040 N   0  0  0  0  0  0  0  0  0  0  0  0
   41.1960   32.2920   41.2230 C   0  0  0  0  0  0  0  0  0  0  0  0
   40.0860   32.4570   40.4980 N   0  0  0  0  0  0  0  0  0  0  0  0
   39.0650   30.6920   42.9340 H   0  0  0  0  0  0  0  0  0  0  0  0
   41.5540   31.2370   43.0780 H   0  0  0  0  0  0  0  0  0  0  0  0
   42.5320   32.8070   40.9410 C   0  0  0  0  0  0  0  0  0  0  0  0
   43.4140   32.1600   40.9090 H   0  0  0  0  0  0  0  0  0  0  0  0
   42.7000   34.0290   40.7240 O   0  0  0  0  0  0  0  0  0  0  0  0
  1  2  1  0  0  0  0
  2  3  2  0  0  0  0
  2 14  1  0  0  0  0
  3 15  1  0  0  0  0
  4  3  1  0  0  0  0
  5  4  2  0  0  0  0
  6  5  1  0  0  0  0
  6  1  2  0  0  0  0
  7  5  1  0  0  0  0
  7  8  1  0  0  0  0
  8 24  1  0  0  0  0
  8 16  1  1  0  0  0
  9 17  1  0  0  0  0
  9 18  1  0  0  0  0
  9  8  1  0  0  0  0
 10  9  1  0  0  0  0
 11 21  1  0  0  0  0
 11 10  1  0  0  0  0
 11 12  1  0  0  0  0
 12  7  1  0  0  0  0
 13  1  1  0  0  0  0
 19 10  1  0  0  0  0
 20 11  1  0  0  0  0
 22 12  1  0  0  0  0
 23 12  1  0  0  0  0
 24 25  2  0  0  0  0
 25 26  1  0  0  0  0
 25 29  1  0  0  0  0
 26 30  1  0  0  0  0
 27 26  1  0  0  0  0
 28 24  1  0  0  0  0
 28 27  2  0  0  0  0
 31 27  1  0  0  0  0
 32 31  1  0  0  0  0
 33 31  2  0  0  0  0
M  END
>  <minimizedAffinity>
-4.78768492

$$$$

 OpenBabel03242520433D

 33 35  0  0  1  0  0  0  0  0999 V2000
   40.5210   26.6630   41.2350 C   0  0  0  0  0  0  0  0  0  0  0  0
   41.4200   27.2170   42.1720 C   0  0  0  0  0  0  0  0  0  0  0  0
   41.0390   28.4170   42.8440 C   0  0  0  0  0  0  0  0  0  0  0  0
   39.8250   28.9780   42.5540 N   0  0  0  0  0  0  0  0  0  0  0  0
   39.0030   28.4010   41.6450 C   0  0  0  0  0  0  0  0  0  0  0  0
   39.3530   27.2610   40.9990 N   0  0  0  0  0  0  0  0  0  0  0  0
   37.7820   29.0450   41.4100 N   0  0  0  0  0  0  0  0  0  0  0  0
   37.7420   30.3900   40.9350 C   0  0  2  0  0  0  0  0  0  0  0  0
   36.3990   31.0330   40.9780 C   0  0  0  0  0  0  0  0  0  0  0  0
   35.2780   30.1840   40.8510 N   0  0  0  0  0  0  0  0  0  0  0  0
   35.5860   28.8260   40.5850 C   0  0  0  0  0  0  0  0  0  0  0  0
   36.5380   28.3410   41.6460 C   0  0  0  0  0  0  0  0  0  0  0  0
   40.8830   25.7720   40.7830 H   0  0  0  0  0  0  0  0  0  0  0  0
   42.3840   26.8450   42.4560 H   0  0  0  0  0  0  0  0  0  0  0  0
   41.6640   28.9000   43.5680 H   0  0  0  0  0  0  0  0  0  0  0  0
   38.3540   30.9890   41.6790 H   0  0  0  0  0  0  0  0  0  0  0  0
   36.2420   31.6570   41.8810 H   0  0  0  0  0  0  0  0  0  0  0  0
   36.3690   31.7780   40.1290 H   0  0  0  0  0  0  0  0  0  0  0  0
   34.4670   30.5710   40.3450 H   0  0  0  0  0  0  0  0  0  0  0  0
   34.6140   28.2580   40.7190 H   0  0  0  0  0  0  0  0  0  0  0  0
   35.8920   28.5960   39.5600 H   0  0  0  0  0  0  0  0  0  0  0  0
   36.7300   27.2670   41.4520 H   0  0  0  0  0  0  0  0  0  0  0  0
   36.0980   28.5610   42.6260 H   0  0  0  0  0  0  0  0  0  0  0  0
   38.4090   30.5330   39.6160 C   0  0  0  0  0  0  0  0  0  0  0  0
   38.2690   29.8590   38.4210 C   0  0  0  0  0  0  0  0  0  0  0  0
   39.0820   30.3400   37.4780 N   0  0  0  0  0  0  0  0  0  0  0  0
   39.7540   31.3350   38.0710 C   0  0  0  0  0  0  0  0  0  0  0  0
   39.3530   31.4480   39.3410 N   0  0  0  0  0  0  0  0  0  0  0  0
   37.5840   29.0370   38.2680 H   0  0  0  0  0  0  0  0  0  0  0  0
   39.1520   29.9850   36.4910 H   0  0  0  0  0  0  0  0  0  0  0  0
   40.7590   32.1340   37.3770 C   0  0  0  0  0  0  0  0  0  0  0  0
   40.6810   33.2220   37.2870 H   0  0  0  0  0  0  0  0  0  0  0  0
   41.7540   31.5780   36.8600 O   0  0  0  0  0  0  0  0  0  0  0  0
  1  2  1  0  0  0  0
  2 14  1  0  0  0  0
  2  3  2  0  0  0  0
  3 15  1  0  0  0  0
  4  3  1  0  0  0  0
  5  4  2  0  0  0  0
  6  1  2  0  0  0  0
  6  5  1  0  0  0  0
  7  5  1  0  0  0  0
  7 12  1  0  0  0  0
  8  9  1  0  0  0  0
  8  7  1  0  0  0  0
  8 16  1  1  0  0  0
  9 17  1  0  0  0  0
 10  9  1  0  0  0  0
 11 20  1  0  0  0  0
 11 10  1  0  0  0  0
 11 12  1  0  0  0  0
 12 23  1  0  0  0  0
 13  1  1  0  0  0  0
 18  9  1  0  0  0  0
 19 10  1  0  0  0  0
 21 11  1  0  0  0  0
 22 12  1  0  0  0  0
 24  8  1  0  0  0  0
 25 24  2  0  0  0  0
 26 27  1  0  0  0  0
 26 25  1  0  0  0  0
 27 28  2  0  0  0  0
 28 24  1  0  0  0  0
 29 25  1  0  0  0  0
 30 26  1  0  0  0  0
 31 27  1  0  0  0  0
 32 31  1  0  0  0  0
 33 31  2  0  0  0  0
M  END
>  <minimizedAffinity>
-4.77090216

$$$$

 OpenBabel03242520433D

 33 35  0  0  1  0  0  0  0  0999 V2000
   41.8990   32.1350   39.6850 C   0  0  0  0  0  0  0  0  0  0  0  0
   41.8340   33.5460   39.6970 C   0  0  0  0  0  0  0  0  0  0  0  0
   40.6300   34.1610   40.1550 C   0  0  0  0  0  0  0  0  0  0  0  0
   39.5950   33.3640   40.5600 N   0  0  0  0  0  0  0  0  0  0  0  0
   39.7140   32.0160   40.5250 C   0  0  0  0  0  0  0  0  0  0  0  0
   40.8520   31.4180   40.0930 N   0  0  0  0  0  0  0  0  0  0  0  0
   38.6040   31.2790   40.9570 N   0  0  0  0  0  0  0  0  0  0  0  0
   37.3390   31.4140   40.3110 C   0  0  2  0  0  0  0  0  0  0  0  0
   36.1960   30.7810   41.0250 C   0  0  0  0  0  0  0  0  0  0  0  0
   36.4860   29.6540   41.8260 N   0  0  0  0  0  0  0  0  0  0  0  0
   37.8290   29.2020   41.7550 C   0  0  0  0  0  0  0  0  0  0  0  0
   38.7340   30.3630   42.0710 C   0  0  0  0  0  0  0  0  0  0  0  0
   42.8280   31.7620   39.3310 H   0  0  0  0  0  0  0  0  0  0  0  0
   42.5940   34.2400   39.3990 H   0  0  0  0  0  0  0  0  0  0  0  0
   40.5020   35.2250   40.1940 H   0  0  0  0  0  0  0  0  0  0  0  0
   37.1010   32.5220   40.3460 H   0  0  0  0  0  0  0  0  0  0  0  0
   35.6230   31.4940   41.6520 H   0  0  0  0  0  0  0  0  0  0  0  0
   35.4550   30.4630   40.2340 H   0  0  0  0  0  0  0  0  0  0  0  0
   35.7630   28.9200   41.8600 H   0  0  0  0  0  0  0  0  0  0  0  0
   37.9430   28.4470   42.5920 H   0  0  0  0  0  0  0  0  0  0  0  0
   38.1000   28.6470   40.8520 H   0  0  0  0  0  0  0  0  0  0  0  0
   39.7750   29.9820   42.0590 H   0  0  0  0  0  0  0  0  0  0  0  0
   38.4130   30.7960   43.0260 H   0  0  0  0  0  0  0  0  0  0  0  0
   37.4050   31.0350   38.8770 C   0  0  0  0  0  0  0  0  0  0  0  0
   37.6350   31.7620   37.7280 C   0  0  0  0  0  0  0  0  0  0  0  0
   37.6130   30.9920   36.6370 N   0  0  0  0  0  0  0  0  0  0  0  0
   37.3650   29.7560   37.0870 C   0  0  0  0  0  0  0  0  0  0  0  0
   37.2420   29.7830   38.4170 N   0  0  0  0  0  0  0  0  0  0  0  0
   37.8100   32.8280   37.7130 H   0  0  0  0  0  0  0  0  0  0  0  0
   37.7620   31.3240   35.6510 H   0  0  0  0  0  0  0  0  0  0  0  0
   37.2590   28.5990   36.2040 C   0  0  0  0  0  0  0  0  0  0  0  0
   37.2950   27.5720   36.5780 H   0  0  0  0  0  0  0  0  0  0  0  0
   37.1210   28.7630   34.9700 O   0  0  0  0  0  0  0  0  0  0  0  0
  1  2  2  0  0  0  0
  1  6  1  0  0  0  0
  2  3  1  0  0  0  0
  3 15  1  0  0  0  0
  3  4  2  0  0  0  0
  5  4  1  0  0  0  0
  5  7  1  0  0  0  0
  6  5  2  0  0  0  0
  7 12  1  0  0  0  0
  8 16  1  1  0  0  0
  8  7  1  0  0  0  0
  8  9  1  0  0  0  0
  9 17  1  0  0  0  0
  9 10  1  0  0  0  0
 10 19  1  0  0  0  0
 11 10  1  0  0  0  0
 11 12  1  0  0  0  0
 11 20  1  0  0  0  0
 12 23  1  0  0  0  0
 13  1  1  0  0  0  0
 14  2  1  0  0  0  0
 18  9  1  0  0  0  0
 21 11  1  0  0  0  0
 22 12  1  0  0  0  0
 24  8  1  0  0  0  0
 25 24  2  0  0  0  0
 26 27  1  0  0  0  0
 26 25  1  0  0  0  0
 27 28  2  0  0  0  0
 28 24  1  0  0  0  0
 29 25  1  0  0  0  0
 30 26  1  0  0  0  0
 31 32  1  0  0  0  0
 31 27  1  0  0  0  0
 33 31  2  0  0  0  0
M  END
>  <minimizedAffinity>
-4.75789022

$$$$

 OpenBabel03242520433D

 33 35  0  0  1  0  0  0  0  0999 V2000
   36.7270   27.2850   37.7690 C   0  0  0  0  0  0  0  0  0  0  0  0
   35.3220   27.1670   37.8470 C   0  0  0  0  0  0  0  0  0  0  0  0
   34.5670   28.3270   38.1960 C   0  0  0  0  0  0  0  0  0  0  0  0
   35.2300   29.4980   38.4390 N   0  0  0  0  0  0  0  0  0  0  0  0
   36.5810   29.5510   38.3490 C   0  0  0  0  0  0  0  0  0  0  0  0
   37.3110   28.4570   38.0180 N   0  0  0  0  0  0  0  0  0  0  0  0
   37.1760   30.7910   38.6160 N   0  0  0  0  0  0  0  0  0  0  0  0
   37.0040   31.4280   39.8810 C   0  0  2  0  0  0  0  0  0  0  0  0
   37.4660   32.8430   39.9400 C   0  0  0  0  0  0  0  0  0  0  0  0
   38.5250   33.2080   39.0800 N   0  0  0  0  0  0  0  0  0  0  0  0
   39.0900   32.1370   38.3420 C   0  0  0  0  0  0  0  0  0  0  0  0
   37.9810   31.4380   37.6010 C   0  0  0  0  0  0  0  0  0  0  0  0
   37.2090   26.3760   37.5030 H   0  0  0  0  0  0  0  0  0  0  0  0
   34.7260   26.2930   37.6740 H   0  0  0  0  0  0  0  0  0  0  0  0
   33.4980   28.3190   38.2760 H   0  0  0  0  0  0  0  0  0  0  0  0
   35.8830   31.5020   40.0300 H   0  0  0  0  0  0  0  0  0  0  0  0
   36.6480   33.5760   39.7890 H   0  0  0  0  0  0  0  0  0  0  0  0
   37.8010   33.0310   41.0020 H   0  0  0  0  0  0  0  0  0  0  0  0
   39.1900   33.9060   39.4460 H   0  0  0  0  0  0  0  0  0  0  0  0
   39.7630   32.6180   37.5680 H   0  0  0  0  0  0  0  0  0  0  0  0
   39.7550   31.4700   38.8990 H   0  0  0  0  0  0  0  0  0  0  0  0
   38.4450   30.6360   36.9930 H   0  0  0  0  0  0  0  0  0  0  0  0
   37.4280   32.1900   37.0260 H   0  0  0  0  0  0  0  0  0  0  0  0
   37.5330   30.6010   40.9950 C   0  0  0  0  0  0  0  0  0  0  0  0
   38.7930   30.4610   41.5380 C   0  0  0  0  0  0  0  0  0  0  0  0
   38.8050   29.5960   42.5550 N   0  0  0  0  0  0  0  0  0  0  0  0
   37.5390   29.1740   42.6700 C   0  0  0  0  0  0  0  0  0  0  0  0
   36.7850   29.7720   41.7420 N   0  0  0  0  0  0  0  0  0  0  0  0
   39.6660   30.9860   41.1790 H   0  0  0  0  0  0  0  0  0  0  0  0
   39.6490   29.3290   43.1210 H   0  0  0  0  0  0  0  0  0  0  0  0
   37.1160   28.2070   43.6770 C   0  0  0  0  0  0  0  0  0  0  0  0
   37.1890   28.4100   44.7500 H   0  0  0  0  0  0  0  0  0  0  0  0
   36.6490   27.1000   43.3260 O   0  0  0  0  0  0  0  0  0  0  0  0
  1  2  2  0  0  0  0
  1  6  1  0  0  0  0
  2  3  1  0  0  0  0
  3 15  1  0  0  0  0
  3  4  2  0  0  0  0
  5  4  1  0  0  0  0
  5  7  1  0  0  0  0
  6  5  2  0  0  0  0
  7  8  1  0  0  0  0
  8  9  1  0  0  0  0
  8 16  1  1  0  0  0
  8 24  1  0  0  0  0
  9 18  1  0  0  0  0
 10 19  1  0  0  0  0
 10  9  1  0  0  0  0
 11 21  1  0  0  0  0
 11 10  1  0  0  0  0
 12 11  1  0  0  0  0
 12  7  1  0  0  0  0
 13  1  1  0  0  0  0
 14  2  1  0  0  0  0
 17  9  1  0  0  0  0
 20 11  1  0  0  0  0
 22 12  1  0  0  0  0
 23 12  1  0  0  0  0
 24 25  2  0  0  0  0
 24 28  1  0  0  0  0
 25 26  1  0  0  0  0
 26 27  1  0  0  0  0
 26 30  1  0  0  0  0
 27 31  1  0  0  0  0
 28 27  2  0  0  0  0
 29 25  1  0  0  0  0
 31 32  1  0  0  0  0
 33 31  2  0  0  0  0
M  END
>  <minimizedAffinity>
-4.74642038

$$$$

 OpenBabel03242520433D

 33 35  0  0  1  0  0  0  0  0999 V2000
   37.2260   27.0720   41.3940 C   0  0  0  0  0  0  0  0  0  0  0  0
   37.5850   26.7880   42.7290 C   0  0  0  0  0  0  0  0  0  0  0  0
   37.9990   27.8710   43.5610 C   0  0  0  0  0  0  0  0  0  0  0  0
   38.0320   29.1330   43.0330 N   0  0  0  0  0  0  0  0  0  0  0  0
   37.6770   29.3460   41.7440 C   0  0  0  0  0  0  0  0  0  0  0  0
   37.2810   28.3260   40.9430 N   0  0  0  0  0  0  0  0  0  0  0  0
   37.7420   30.6690   41.2880 N   0  0  0  0  0  0  0  0  0  0  0  0
   38.9720   31.3910   41.3090 C   0  0  2  0  0  0  0  0  0  0  0  0
   38.8490   32.8510   41.0460 C   0  0  0  0  0  0  0  0  0  0  0  0
   37.7770   33.2670   40.2260 N   0  0  0  0  0  0  0  0  0  0  0  0
   37.0130   32.2120   39.6650 C   0  0  0  0  0  0  0  0  0  0  0  0
   36.5490   31.3170   40.7830 C   0  0  0  0  0  0  0  0  0  0  0  0
   36.9310   26.2110   40.8470 H   0  0  0  0  0  0  0  0  0  0  0  0
   37.5880   25.8350   43.2200 H   0  0  0  0  0  0  0  0  0  0  0  0
   38.2870   27.7390   44.5850 H   0  0  0  0  0  0  0  0  0  0  0  0
   39.3330   31.3380   42.3830 H   0  0  0  0  0  0  0  0  0  0  0  0
   38.8140   33.4610   41.9720 H   0  0  0  0  0  0  0  0  0  0  0  0
   39.8110   33.1740   40.5500 H   0  0  0  0  0  0  0  0  0  0  0  0
   37.9600   34.0720   39.6090 H   0  0  0  0  0  0  0  0  0  0  0  0
   36.0930   32.7020   39.2200 H   0  0  0  0  0  0  0  0  0  0  0  0
   37.4710   31.6860   38.8210 H   0  0  0  0  0  0  0  0  0  0  0  0
   35.9150   30.5280   40.3330 H   0  0  0  0  0  0  0  0  0  0  0  0
   36.0470   31.9400   41.5320 H   0  0  0  0  0  0  0  0  0  0  0  0
   40.0120   30.7390   40.4740 C   0  0  0  0  0  0  0  0  0  0  0  0
   41.0350   29.8630   40.7710 C   0  0  0  0  0  0  0  0  0  0  0  0
   41.7340   29.5240   39.6850 N   0  0  0  0  0  0  0  0  0  0  0  0
   41.1560   30.1890   38.6760 C   0  0  0  0  0  0  0  0  0  0  0  0
   40.1340   30.9110   39.1470 N   0  0  0  0  0  0  0  0  0  0  0  0
   41.2470   29.4970   41.7650 H   0  0  0  0  0  0  0  0  0  0  0  0
   42.5570   28.8710   39.6660 H   0  0  0  0  0  0  0  0  0  0  0  0
   41.6220   30.0950   37.2970 C   0  0  0  0  0  0  0  0  0  0  0  0
   41.6080   29.1550   36.7380 H   0  0  0  0  0  0  0  0  0  0  0  0
   42.0570   31.1130   36.7110 O   0  0  0  0  0  0  0  0  0  0  0  0
  1  2  1  0  0  0  0
  2 14  1  0  0  0  0
  2  3  2  0  0  0  0
  3 15  1  0  0  0  0
  4  3  1  0  0  0  0
  5  4  2  0  0  0  0
  6  1  2  0  0  0  0
  6  5  1  0  0  0  0
  7  8  1  0  0  0  0
  7  5  1  0  0  0  0
  8 16  1  1  0  0  0
  9  8  1  0  0  0  0
  9 17  1  0  0  0  0
 10  9  1  0  0  0  0
 11 10  1  0  0  0  0
 11 12  1  0  0  0  0
 12  7  1  0  0  0  0
 12 23  1  0  0  0  0
 13  1  1  0  0  0  0
 18  9  1  0  0  0  0
 19 10  1  0  0  0  0
 20 11  1  0  0  0  0
 21 11  1  0  0  0  0
 22 12  1  0  0  0  0
 24 25  2  0  0  0  0
 24  8  1  0  0  0  0
 25 29  1  0  0  0  0
 26 25  1  0  0  0  0
 27 28  2  0  0  0  0
 27 26  1  0  0  0  0
 28 24  1  0  0  0  0
 30 26  1  0  0  0  0
 31 27  1  0  0  0  0
 32 31  1  0  0  0  0
 33 31  2  0  0  0  0
M  END
>  <minimizedAffinity>
-4.69908905

$$$$

 OpenBabel03242520433D

 33 35  0  0  1  0  0  0  0  0999 V2000
   39.2500   27.7940   41.9300 C   0  0  0  0  0  0  0  0  0  0  0  0
   38.7090   28.0660   43.2050 C   0  0  0  0  0  0  0  0  0  0  0  0
   37.3000   28.2620   43.3120 C   0  0  0  0  0  0  0  0  0  0  0  0
   36.5350   28.1800   42.1810 N   0  0  0  0  0  0  0  0  0  0  0  0
   37.1090   27.9170   40.9830 C   0  0  0  0  0  0  0  0  0  0  0  0
   38.4470   27.7280   40.8670 N   0  0  0  0  0  0  0  0  0  0  0  0
   36.2500   27.8530   39.8780 N   0  0  0  0  0  0  0  0  0  0  0  0
   35.4490   28.9740   39.5080 C   0  0  2  0  0  0  0  0  0  0  0  0
   34.4010   28.6890   38.4890 C   0  0  0  0  0  0  0  0  0  0  0  0
   34.6660   27.6510   37.5700 N   0  0  0  0  0  0  0  0  0  0  0  0
   35.9610   27.0810   37.6720 C   0  0  0  0  0  0  0  0  0  0  0  0
   36.1710   26.6370   39.0950 C   0  0  0  0  0  0  0  0  0  0  0  0
   40.3040   27.6610   41.9410 H   0  0  0  0  0  0  0  0  0  0  0  0
   39.2330   28.1470   44.1370 H   0  0  0  0  0  0  0  0  0  0  0  0
   36.8130   28.4720   44.2440 H   0  0  0  0  0  0  0  0  0  0  0  0
   34.8580   29.2410   40.4380 H   0  0  0  0  0  0  0  0  0  0  0  0
   33.4030   28.4940   38.9310 H   0  0  0  0  0  0  0  0  0  0  0  0
   34.2520   29.6420   37.9020 H   0  0  0  0  0  0  0  0  0  0  0  0
   34.3050   27.7830   36.6140 H   0  0  0  0  0  0  0  0  0  0  0  0
   35.9390   26.1490   37.0270 H   0  0  0  0  0  0  0  0  0  0  0  0
   36.7800   27.6760   37.2550 H   0  0  0  0  0  0  0  0  0  0  0  0
   37.1660   26.1520   39.1460 H   0  0  0  0  0  0  0  0  0  0  0  0
   35.3300   25.9950   39.3800 H   0  0  0  0  0  0  0  0  0  0  0  0
   36.2760   30.1600   39.1700 C   0  0  0  0  0  0  0  0  0  0  0  0
   37.0090   30.4990   38.0510 C   0  0  0  0  0  0  0  0  0  0  0  0
   37.5990   31.6900   38.1830 N   0  0  0  0  0  0  0  0  0  0  0  0
   37.2420   32.1230   39.3990 C   0  0  0  0  0  0  0  0  0  0  0  0
   36.4580   31.2130   39.9840 N   0  0  0  0  0  0  0  0  0  0  0  0
   37.0970   29.8730   37.1750 H   0  0  0  0  0  0  0  0  0  0  0  0
   38.2060   32.1540   37.4620 H   0  0  0  0  0  0  0  0  0  0  0  0
   37.6810   33.4050   39.9410 C   0  0  0  0  0  0  0  0  0  0  0  0
   37.2460   34.3560   39.6190 H   0  0  0  0  0  0  0  0  0  0  0  0
   38.5850   33.4430   40.8070 O   0  0  0  0  0  0  0  0  0  0  0  0
  1 13  1  0  0  0  0
  1  2  1  0  0  0  0
  2  3  2  0  0  0  0
  2 14  1  0  0  0  0
  3 15  1  0  0  0  0
  4  3  1  0  0  0  0
  5  4  2  0  0  0  0
  6  5  1  0  0  0  0
  6  1  2  0  0  0  0
  7  5  1  0  0  0  0
  8  7  1  0  0  0  0
  8 16  1  1  0  0  0
  9 17  1  0  0  0  0
  9  8  1  0  0  0  0
 10 11  1  0  0  0  0
 10  9  1  0  0  0  0
 11 12  1  0  0  0  0
 12 22  1  0  0  0  0
 12 23  1  0  0  0  0
 12  7  1  0  0  0  0
 18  9  1  0  0  0  0
 19 10  1  0  0  0  0
 20 11  1  0  0  0  0
 21 11  1  0  0  0  0
 24  8  1  0  0  0  0
 24 28  1  0  0  0  0
 25 26  1  0  0  0  0
 25 24  2  0  0  0  0
 26 27  1  0  0  0  0
 27 31  1  0  0  0  0
 27 28  2  0  0  0  0
 29 25  1  0  0  0  0
 30 26  1  0  0  0  0
 31 33  2  0  0  0  0
 32 31  1  0  0  0  0
M  END
>  <minimizedAffinity>
-4.64627314

$$$$
