
 OpenBabel03252502353D

 34 35  0  0  1  0  0  0  0  0999 V2000
   39.1040   28.9610   42.4670 C   0  0  2  0  0  0  0  0  0  0  0  0
   40.4810   28.7650   41.8070 C   0  0  0  0  0  0  0  0  0  0  0  0
   41.3720   28.3030   42.9720 C   0  0  0  0  0  0  0  0  0  0  0  0
   40.9220   26.8770   43.2170 C   0  0  0  0  0  0  0  0  0  0  0  0
   39.5110   26.8310   43.6730 C   0  0  0  0  0  0  0  0  0  0  0  0
   38.5450   27.6530   42.8940 C   0  0  1  0  0  0  0  0  0  0  0  0
   39.2870   29.6080   43.3720 H   0  0  0  0  0  0  0  0  0  0  0  0
   40.8230   29.7220   41.4020 H   0  0  0  0  0  0  0  0  0  0  0  0
   40.4680   27.9420   41.0920 H   0  0  0  0  0  0  0  0  0  0  0  0
   41.2260   28.9160   43.8620 H   0  0  0  0  0  0  0  0  0  0  0  0
   42.4400   28.2580   42.6750 H   0  0  0  0  0  0  0  0  0  0  0  0
   41.1290   26.2840   42.3060 H   0  0  0  0  0  0  0  0  0  0  0  0
   41.5760   26.4970   44.0340 H   0  0  0  0  0  0  0  0  0  0  0  0
   39.4660   27.0750   44.7670 H   0  0  0  0  0  0  0  0  0  0  0  0
   39.1640   25.7670   43.6270 H   0  0  0  0  0  0  0  0  0  0  0  0
   38.2770   27.0600   41.9830 H   0  0  0  0  0  0  0  0  0  0  0  0
   37.7000   31.6800   40.2890 C   0  0  0  0  0  0  0  0  0  0  0  0
   38.5560   31.0520   41.2120 C   0  0  0  0  0  0  0  0  0  0  0  0
   38.2920   29.7060   41.5270 C   0  0  0  0  0  0  0  0  0  0  0  0
   37.2250   29.0980   40.9180 N   0  0  0  0  0  0  0  0  0  0  0  0
   36.4380   29.7370   40.0460 C   0  0  0  0  0  0  0  0  0  0  0  0
   36.6750   31.0310   39.7310 N   0  0  0  0  0  0  0  0  0  0  0  0
   39.3880   31.5660   41.6690 H   0  0  0  0  0  0  0  0  0  0  0  0
   38.0030   33.1050   39.9720 C   0  0  0  0  0  0  0  0  0  0  0  0
   36.9080   33.7390   39.4180 F   0  0  0  0  0  0  0  0  0  0  0  0
   38.4000   33.7380   41.1460 F   0  0  0  0  0  0  0  0  0  0  0  0
   39.0970   33.1740   39.1170 F   0  0  0  0  0  0  0  0  0  0  0  0
   35.2840   29.0320   39.4120 C   0  0  0  0  0  0  0  0  0  0  0  0
   34.1460   29.1770   40.1400 F   0  0  0  0  0  0  0  0  0  0  0  0
   35.6010   27.6670   39.2420 F   0  0  0  0  0  0  0  0  0  0  0  0
   35.0740   29.4690   38.1230 F   0  0  0  0  0  0  0  0  0  0  0  0
   37.2950   27.8720   43.6520 C   0  0  0  0  0  0  0  0  0  0  0  0
   37.2510   28.5990   44.4570 H   0  0  0  0  0  0  0  0  0  0  0  0
   36.1540   27.4610   43.6800 O   0  0  0  0  0  0  0  0  0  0  0  0
  1  6  1  0  0  0  0
  1  7  1  1  0  0  0
  2  1  1  0  0  0  0
  2  3  1  0  0  0  0
  3  4  1  0  0  0  0
  3 10  1  0  0  0  0
  4  5  1  0  0  0  0
  4 13  1  0  0  0  0
  5 14  1  0  0  0  0
  6 16  1  6  0  0  0
  6 32  1  0  0  0  0
  6  5  1  0  0  0  0
  8  2  1  0  0  0  0
  9  2  1  0  0  0  0
 11  3  1  0  0  0  0
 12  4  1  0  0  0  0
 15  5  1  0  0  0  0
 17 18  1  0  0  0  0
 18 19  2  0  0  0  0
 18 23  1  0  0  0  0
 19  1  1  0  0  0  0
 20 19  1  0  0  0  0
 21 20  2  0  0  0  0
 22 21  1  0  0  0  0
 22 17  2  0  0  0  0
 24 17  1  0  0  0  0
 24 26  1  0  0  0  0
 25 24  1  0  0  0  0
 27 24  1  0  0  0  0
 28 21  1  0  0  0  0
 28 29  1  0  0  0  0
 30 28  1  0  0  0  0
 31 28  1  0  0  0  0
 32 34  2  0  0  0  0
 32 33  1  0  0  0  0
M  END
>  <minimizedAffinity>
-5.70347166

$$$$

 OpenBabel03252502353D

 34 35  0  0  1  0  0  0  0  0999 V2000
   35.4610   29.3480   37.9660 C   0  0  2  0  0  0  0  0  0  0  0  0
   34.0750   28.9980   38.5380 C   0  0  0  0  0  0  0  0  0  0  0  0
   33.2140   28.7860   37.2820 C   0  0  0  0  0  0  0  0  0  0  0  0
   33.6920   27.4520   36.7470 C   0  0  0  0  0  0  0  0  0  0  0  0
   35.1110   27.5230   36.3220 C   0  0  0  0  0  0  0  0  0  0  0  0
   36.0490   28.1690   37.2810 C   0  0  1  0  0  0  0  0  0  0  0  0
   35.2830   30.1720   37.2160 H   0  0  0  0  0  0  0  0  0  0  0  0
   33.7100   29.8420   39.1310 H   0  0  0  0  0  0  0  0  0  0  0  0
   34.0890   28.0420   39.0600 H   0  0  0  0  0  0  0  0  0  0  0  0
   33.3660   29.5780   36.5470 H   0  0  0  0  0  0  0  0  0  0  0  0
   32.1410   28.6650   37.5400 H   0  0  0  0  0  0  0  0  0  0  0  0
   33.4780   26.6750   37.5060 H   0  0  0  0  0  0  0  0  0  0  0  0
   33.0600   27.2480   35.8540 H   0  0  0  0  0  0  0  0  0  0  0  0
   35.1730   27.9960   35.3070 H   0  0  0  0  0  0  0  0  0  0  0  0
   35.4760   26.4770   36.1470 H   0  0  0  0  0  0  0  0  0  0  0  0
   36.3110   27.3990   38.0490 H   0  0  0  0  0  0  0  0  0  0  0  0
   37.5280   31.5990   40.1480 C   0  0  0  0  0  0  0  0  0  0  0  0
   36.7820   31.1830   39.0320 C   0  0  0  0  0  0  0  0  0  0  0  0
   36.2420   29.8840   39.0610 C   0  0  0  0  0  0  0  0  0  0  0  0
   36.4780   29.1130   40.1700 N   0  0  0  0  0  0  0  0  0  0  0  0
   37.1960   29.5520   41.2090 C   0  0  0  0  0  0  0  0  0  0  0  0
   37.7230   30.7990   41.1990 N   0  0  0  0  0  0  0  0  0  0  0  0
   36.6170   31.8220   38.1770 H   0  0  0  0  0  0  0  0  0  0  0  0
   38.0870   32.9810   40.0920 C   0  0  0  0  0  0  0  0  0  0  0  0
   37.1110   33.9040   39.7700 F   0  0  0  0  0  0  0  0  0  0  0  0
   38.6550   33.2720   41.3290 F   0  0  0  0  0  0  0  0  0  0  0  0
   39.1300   33.0280   39.1760 F   0  0  0  0  0  0  0  0  0  0  0  0
   37.4280   28.6720   42.3930 C   0  0  0  0  0  0  0  0  0  0  0  0
   37.8330   29.3860   43.4760 F   0  0  0  0  0  0  0  0  0  0  0  0
   38.3740   27.6770   42.0640 F   0  0  0  0  0  0  0  0  0  0  0  0
   36.3020   27.9440   42.7080 F   0  0  0  0  0  0  0  0  0  0  0  0
   37.3090   28.5610   36.6150 C   0  0  0  0  0  0  0  0  0  0  0  0
   37.8020   29.4970   36.8610 H   0  0  0  0  0  0  0  0  0  0  0  0
   38.0780   28.1350   35.7790 O   0  0  0  0  0  0  0  0  0  0  0  0
  1  7  1  6  0  0  0
  1  2  1  0  0  0  0
  1 19  1  0  0  0  0
  2  9  1  0  0  0  0
  2  8  1  0  0  0  0
  3 11  1  0  0  0  0
  3  2  1  0  0  0  0
  4  3  1  0  0  0  0
  4 12  1  0  0  0  0
  5  4  1  0  0  0  0
  5  6  1  0  0  0  0
  6  1  1  0  0  0  0
  6 16  1  1  0  0  0
 10  3  1  0  0  0  0
 13  4  1  0  0  0  0
 14  5  1  0  0  0  0
 15  5  1  0  0  0  0
 17 22  1  0  0  0  0
 18 19  1  0  0  0  0
 18 17  2  0  0  0  0
 19 20  2  0  0  0  0
 20 21  1  0  0  0  0
 21 28  1  0  0  0  0
 22 21  2  0  0  0  0
 23 18  1  0  0  0  0
 24 17  1  0  0  0  0
 24 26  1  0  0  0  0
 25 24  1  0  0  0  0
 27 24  1  0  0  0  0
 28 31  1  0  0  0  0
 28 29  1  0  0  0  0
 30 28  1  0  0  0  0
 32 33  1  0  0  0  0
 32  6  1  0  0  0  0
 34 32  2  0  0  0  0
M  END
>  <minimizedAffinity>
-5.35119534

$$$$

 OpenBabel03252502353D

 34 35  0  0  1  0  0  0  0  0999 V2000
   35.3460   29.3240   37.9930 C   0  0  2  0  0  0  0  0  0  0  0  0
   33.9400   28.9940   38.5280 C   0  0  0  0  0  0  0  0  0  0  0  0
   33.0850   28.9020   37.2530 C   0  0  0  0  0  0  0  0  0  0  0  0
   33.5160   27.5880   36.6340 C   0  0  0  0  0  0  0  0  0  0  0  0
   34.9420   27.6280   36.2270 C   0  0  0  0  0  0  0  0  0  0  0  0
   35.8930   28.1700   37.2350 C   0  0  1  0  0  0  0  0  0  0  0  0
   35.2100   30.2030   37.2990 H   0  0  0  0  0  0  0  0  0  0  0  0
   33.6030   29.8100   39.1730 H   0  0  0  0  0  0  0  0  0  0  0  0
   33.9090   28.0050   38.9850 H   0  0  0  0  0  0  0  0  0  0  0  0
   33.2790   29.7340   36.5740 H   0  0  0  0  0  0  0  0  0  0  0  0
   32.0060   28.8080   37.4920 H   0  0  0  0  0  0  0  0  0  0  0  0
   33.2620   26.7710   37.3360 H   0  0  0  0  0  0  0  0  0  0  0  0
   32.8860   27.4710   35.7230 H   0  0  0  0  0  0  0  0  0  0  0  0
   35.0340   28.1660   35.2470 H   0  0  0  0  0  0  0  0  0  0  0  0
   35.2650   26.5830   35.9850 H   0  0  0  0  0  0  0  0  0  0  0  0
   36.1150   27.3400   37.9520 H   0  0  0  0  0  0  0  0  0  0  0  0
   37.1280   29.4490   41.2960 C   0  0  0  0  0  0  0  0  0  0  0  0
   36.3490   28.9280   40.2480 C   0  0  0  0  0  0  0  0  0  0  0  0
   36.1350   29.7530   39.1280 C   0  0  0  0  0  0  0  0  0  0  0  0
   36.6960   31.0050   39.1320 N   0  0  0  0  0  0  0  0  0  0  0  0
   37.4300   31.4570   40.1540 C   0  0  0  0  0  0  0  0  0  0  0  0
   37.6470   30.6780   41.2390 N   0  0  0  0  0  0  0  0  0  0  0  0
   35.9250   27.9360   40.2820 H   0  0  0  0  0  0  0  0  0  0  0  0
   37.3410   28.5540   42.4690 C   0  0  0  0  0  0  0  0  0  0  0  0
   36.1910   27.8550   42.7820 F   0  0  0  0  0  0  0  0  0  0  0  0
   38.3840   27.6820   42.1680 F   0  0  0  0  0  0  0  0  0  0  0  0
   37.7750   29.3000   43.5570 F   0  0  0  0  0  0  0  0  0  0  0  0
   38.0170   32.8300   40.1130 C   0  0  0  0  0  0  0  0  0  0  0  0
   38.5750   33.1730   41.3040 F   0  0  0  0  0  0  0  0  0  0  0  0
   37.0220   33.7580   39.7380 F   0  0  0  0  0  0  0  0  0  0  0  0
   38.9520   32.9480   39.1080 F   0  0  0  0  0  0  0  0  0  0  0  0
   37.1760   28.5540   36.6080 C   0  0  0  0  0  0  0  0  0  0  0  0
   37.7310   29.4190   36.9590 H   0  0  0  0  0  0  0  0  0  0  0  0
   37.9130   28.1790   35.7210 O   0  0  0  0  0  0  0  0  0  0  0  0
  1  7  1  6  0  0  0
  1  2  1  0  0  0  0
  1 19  1  0  0  0  0
  2  9  1  0  0  0  0
  2  8  1  0  0  0  0
  3 11  1  0  0  0  0
  3  2  1  0  0  0  0
  4  3  1  0  0  0  0
  4 12  1  0  0  0  0
  5  4  1  0  0  0  0
  5  6  1  0  0  0  0
  6 16  1  1  0  0  0
  6  1  1  0  0  0  0
 10  3  1  0  0  0  0
 13  4  1  0  0  0  0
 14  5  1  0  0  0  0
 15  5  1  0  0  0  0
 17 24  1  0  0  0  0
 18 23  1  0  0  0  0
 18 17  2  0  0  0  0
 19 20  2  0  0  0  0
 19 18  1  0  0  0  0
 20 21  1  0  0  0  0
 21 22  2  0  0  0  0
 22 17  1  0  0  0  0
 24 25  1  0  0  0  0
 24 27  1  0  0  0  0
 26 24  1  0  0  0  0
 28 21  1  0  0  0  0
 28 29  1  0  0  0  0
 30 28  1  0  0  0  0
 31 28  1  0  0  0  0
 32 33  1  0  0  0  0
 32  6  1  0  0  0  0
 34 32  2  0  0  0  0
M  END
>  <minimizedAffinity>
-5.34412193

$$$$

 OpenBabel03252502353D

 34 35  0  0  1  0  0  0  0  0999 V2000
   38.6690   31.2900   40.5410 C   0  0  2  0  0  0  0  0  0  0  0  0
   37.8880   32.6170   40.5400 C   0  0  0  0  0  0  0  0  0  0  0  0
   38.9720   33.6690   40.8260 C   0  0  0  0  0  0  0  0  0  0  0  0
   39.7430   33.7440   39.5240 C   0  0  0  0  0  0  0  0  0  0  0  0
   40.4210   32.4580   39.2280 C   0  0  0  0  0  0  0  0  0  0  0  0
   39.5890   31.2320   39.3780 C   0  0  1  0  0  0  0  0  0  0  0  0
   39.2670   31.2880   41.4980 H   0  0  0  0  0  0  0  0  0  0  0  0
   37.1400   32.5920   41.3380 H   0  0  0  0  0  0  0  0  0  0  0  0
   37.4960   32.8480   39.5500 H   0  0  0  0  0  0  0  0  0  0  0  0
   39.6230   33.3680   41.6480 H   0  0  0  0  0  0  0  0  0  0  0  0
   38.5300   34.6730   40.9970 H   0  0  0  0  0  0  0  0  0  0  0  0
   39.0560   34.0940   38.7300 H   0  0  0  0  0  0  0  0  0  0  0  0
   40.5170   34.5280   39.6840 H   0  0  0  0  0  0  0  0  0  0  0  0
   41.3650   32.3880   39.8300 H   0  0  0  0  0  0  0  0  0  0  0  0
   40.7860   32.4910   38.1690 H   0  0  0  0  0  0  0  0  0  0  0  0
   38.9830   31.1350   38.4420 H   0  0  0  0  0  0  0  0  0  0  0  0
   35.7680   29.0160   39.8210 C   0  0  0  0  0  0  0  0  0  0  0  0
   36.6700   30.0820   39.6510 C   0  0  0  0  0  0  0  0  0  0  0  0
   37.6880   30.2270   40.6110 C   0  0  0  0  0  0  0  0  0  0  0  0
   37.7330   29.3270   41.6450 N   0  0  0  0  0  0  0  0  0  0  0  0
   36.8520   28.3290   41.7650 C   0  0  0  0  0  0  0  0  0  0  0  0
   35.8660   28.1730   40.8510 N   0  0  0  0  0  0  0  0  0  0  0  0
   36.6010   30.7700   38.8220 H   0  0  0  0  0  0  0  0  0  0  0  0
   34.7010   28.8840   38.7880 C   0  0  0  0  0  0  0  0  0  0  0  0
   33.4700   29.2640   39.2870 F   0  0  0  0  0  0  0  0  0  0  0  0
   35.0540   29.6680   37.6930 F   0  0  0  0  0  0  0  0  0  0  0  0
   34.6600   27.5770   38.3190 F   0  0  0  0  0  0  0  0  0  0  0  0
   36.9420   27.3750   42.9110 C   0  0  0  0  0  0  0  0  0  0  0  0
   35.8220   27.4080   43.6800 F   0  0  0  0  0  0  0  0  0  0  0  0
   38.0890   27.6680   43.6800 F   0  0  0  0  0  0  0  0  0  0  0  0
   37.1730   26.0880   42.4780 F   0  0  0  0  0  0  0  0  0  0  0  0
   40.4330   30.0210   39.4730 C   0  0  0  0  0  0  0  0  0  0  0  0
   40.3760   29.2420   38.7200 H   0  0  0  0  0  0  0  0  0  0  0  0
   41.2760   29.5450   40.2030 O   0  0  0  0  0  0  0  0  0  0  0  0
  1 19  1  0  0  0  0
  1  7  1  1  0  0  0
  2  1  1  0  0  0  0
  2  3  1  0  0  0  0
  2  8  1  0  0  0  0
  3 11  1  0  0  0  0
  3 10  1  0  0  0  0
  4 13  1  0  0  0  0
  4  3  1  0  0  0  0
  5  6  1  0  0  0  0
  5  4  1  0  0  0  0
  5 14  1  0  0  0  0
  6 16  1  6  0  0  0
  6 32  1  0  0  0  0
  6  1  1  0  0  0  0
  9  2  1  0  0  0  0
 12  4  1  0  0  0  0
 15  5  1  0  0  0  0
 17 22  1  0  0  0  0
 18 17  2  0  0  0  0
 18 19  1  0  0  0  0
 19 20  2  0  0  0  0
 20 21  1  0  0  0  0
 21 28  1  0  0  0  0
 22 21  2  0  0  0  0
 23 18  1  0  0  0  0
 24 25  1  0  0  0  0
 24 17  1  0  0  0  0
 26 24  1  0  0  0  0
 27 24  1  0  0  0  0
 28 29  1  0  0  0  0
 28 30  1  0  0  0  0
 31 28  1  0  0  0  0
 32 34  2  0  0  0  0
 33 32  1  0  0  0  0
M  END
>  <minimizedAffinity>
-5.31535387

$$$$

 OpenBabel03252502353D

 34 35  0  0  1  0  0  0  0  0999 V2000
   37.4830   27.6360   40.8060 C   0  0  2  0  0  0  0  0  0  0  0  0
   37.0990   26.2950   40.1550 C   0  0  0  0  0  0  0  0  0  0  0  0
   37.7810   25.2520   41.0570 C   0  0  0  0  0  0  0  0  0  0  0  0
   36.9320   25.2620   42.3110 C   0  0  0  0  0  0  0  0  0  0  0  0
   37.0020   26.5750   42.9960 C   0  0  0  0  0  0  0  0  0  0  0  0
   36.8270   27.7740   42.1300 C   0  0  1  0  0  0  0  0  0  0  0  0
   38.6030   27.6020   40.9390 H   0  0  0  0  0  0  0  0  0  0  0  0
   37.5010   26.2620   39.1380 H   0  0  0  0  0  0  0  0  0  0  0  0
   36.0280   26.1060   40.2320 H   0  0  0  0  0  0  0  0  0  0  0  0
   38.8130   25.5250   41.2830 H   0  0  0  0  0  0  0  0  0  0  0  0
   37.7100   24.2320   40.6260 H   0  0  0  0  0  0  0  0  0  0  0  0
   35.9080   24.9380   42.0430 H   0  0  0  0  0  0  0  0  0  0  0  0
   37.3780   24.4870   42.9750 H   0  0  0  0  0  0  0  0  0  0  0  0
   37.9510   26.6350   43.5910 H   0  0  0  0  0  0  0  0  0  0  0  0
   36.2000   26.6040   43.7790 H   0  0  0  0  0  0  0  0  0  0  0  0
   35.7260   27.9050   41.9770 H   0  0  0  0  0  0  0  0  0  0  0  0
   36.1930   29.4900   37.8050 C   0  0  0  0  0  0  0  0  0  0  0  0
   36.4390   28.4090   38.6700 C   0  0  0  0  0  0  0  0  0  0  0  0
   37.1670   28.6720   39.8450 C   0  0  0  0  0  0  0  0  0  0  0  0
   37.5880   29.9580   40.0680 N   0  0  0  0  0  0  0  0  0  0  0  0
   37.3300   30.9550   39.2150 C   0  0  0  0  0  0  0  0  0  0  0  0
   36.6310   30.7200   38.0800 N   0  0  0  0  0  0  0  0  0  0  0  0
   36.0890   27.4090   38.4580 H   0  0  0  0  0  0  0  0  0  0  0  0
   35.4180   29.1830   36.5680 C   0  0  0  0  0  0  0  0  0  0  0  0
   35.8550   29.9430   35.5010 F   0  0  0  0  0  0  0  0  0  0  0  0
   35.5520   27.8240   36.2960 F   0  0  0  0  0  0  0  0  0  0  0  0
   34.0640   29.3900   36.7990 F   0  0  0  0  0  0  0  0  0  0  0  0
   37.8130   32.3390   39.5010 C   0  0  0  0  0  0  0  0  0  0  0  0
   37.9760   32.5460   40.8350 F   0  0  0  0  0  0  0  0  0  0  0  0
   36.9110   33.2760   38.9530 F   0  0  0  0  0  0  0  0  0  0  0  0
   38.9900   32.6090   38.8390 F   0  0  0  0  0  0  0  0  0  0  0  0
   37.3190   28.9960   42.8020 C   0  0  0  0  0  0  0  0  0  0  0  0
   36.7150   29.8980   42.8300 H   0  0  0  0  0  0  0  0  0  0  0  0
   38.2950   29.3790   43.4110 O   0  0  0  0  0  0  0  0  0  0  0  0
  1  7  1  1  0  0  0
  1  6  1  0  0  0  0
  2  9  1  0  0  0  0
  2  1  1  0  0  0  0
  2  3  1  0  0  0  0
  3 10  1  0  0  0  0
  3  4  1  0  0  0  0
  4 13  1  0  0  0  0
  4  5  1  0  0  0  0
  5 14  1  0  0  0  0
  5 15  1  0  0  0  0
  6 16  1  6  0  0  0
  6 32  1  0  0  0  0
  6  5  1  0  0  0  0
  8  2  1  0  0  0  0
 11  3  1  0  0  0  0
 12  4  1  0  0  0  0
 17 22  2  0  0  0  0
 17 18  1  0  0  0  0
 18 19  2  0  0  0  0
 19 20  1  0  0  0  0
 19  1  1  0  0  0  0
 21 28  1  0  0  0  0
 21 20  2  0  0  0  0
 22 21  1  0  0  0  0
 23 18  1  0  0  0  0
 24 27  1  0  0  0  0
 24 17  1  0  0  0  0
 25 24  1  0  0  0  0
 26 24  1  0  0  0  0
 28 29  1  0  0  0  0
 30 28  1  0  0  0  0
 31 28  1  0  0  0  0
 32 33  1  0  0  0  0
 32 34  2  0  0  0  0
M  END
>  <minimizedAffinity>
-5.16828728

$$$$

 OpenBabel03252502353D

 34 35  0  0  1  0  0  0  0  0999 V2000
   36.7460   28.4220   38.0520 C   0  0  2  0  0  0  0  0  0  0  0  0
   37.9740   28.6640   37.1560 C   0  0  0  0  0  0  0  0  0  0  0  0
   37.5610   28.0440   35.8100 C   0  0  0  0  0  0  0  0  0  0  0  0
   36.5550   29.0350   35.2600 C   0  0  0  0  0  0  0  0  0  0  0  0
   35.3490   29.1080   36.1200 C   0  0  0  0  0  0  0  0  0  0  0  0
   35.5960   29.2340   37.5830 C   0  0  1  0  0  0  0  0  0  0  0  0
   36.5020   27.3250   37.9480 H   0  0  0  0  0  0  0  0  0  0  0  0
   38.8360   28.1440   37.5830 H   0  0  0  0  0  0  0  0  0  0  0  0
   38.1260   29.7260   36.9650 H   0  0  0  0  0  0  0  0  0  0  0  0
   37.1080   27.0610   35.9380 H   0  0  0  0  0  0  0  0  0  0  0  0
   38.4100   28.0170   35.0960 H   0  0  0  0  0  0  0  0  0  0  0  0
   37.0670   30.0040   35.1060 H   0  0  0  0  0  0  0  0  0  0  0  0
   36.2620   28.6350   34.2630 H   0  0  0  0  0  0  0  0  0  0  0  0
   34.6770   28.2390   35.8930 H   0  0  0  0  0  0  0  0  0  0  0  0
   34.7450   29.9970   35.8010 H   0  0  0  0  0  0  0  0  0  0  0  0
   35.8110   30.3140   37.7830 H   0  0  0  0  0  0  0  0  0  0  0  0
   37.3700   28.1020   41.7420 C   0  0  0  0  0  0  0  0  0  0  0  0
   36.9200   27.7560   40.4560 C   0  0  0  0  0  0  0  0  0  0  0  0
   37.1680   28.6700   39.4150 C   0  0  0  0  0  0  0  0  0  0  0  0
   37.8270   29.8330   39.7210 N   0  0  0  0  0  0  0  0  0  0  0  0
   38.2360   30.1190   40.9620 C   0  0  0  0  0  0  0  0  0  0  0  0
   38.0080   29.2520   41.9750 N   0  0  0  0  0  0  0  0  0  0  0  0
   36.4040   26.8290   40.2550 H   0  0  0  0  0  0  0  0  0  0  0  0
   37.0970   27.1150   42.8250 C   0  0  0  0  0  0  0  0  0  0  0  0
   35.9510   27.4420   43.5240 F   0  0  0  0  0  0  0  0  0  0  0  0
   36.9800   25.8540   42.2460 F   0  0  0  0  0  0  0  0  0  0  0  0
   38.1900   27.0390   43.6780 F   0  0  0  0  0  0  0  0  0  0  0  0
   38.9490   31.4010   41.2450 C   0  0  0  0  0  0  0  0  0  0  0  0
   39.4580   31.4230   42.5050 F   0  0  0  0  0  0  0  0  0  0  0  0
   38.0700   32.4850   41.0380 F   0  0  0  0  0  0  0  0  0  0  0  0
   39.9540   31.6310   40.3320 F   0  0  0  0  0  0  0  0  0  0  0  0
   34.3900   28.8820   38.3620 C   0  0  0  0  0  0  0  0  0  0  0  0
   34.4550   28.2280   39.2260 H   0  0  0  0  0  0  0  0  0  0  0  0
   33.1980   29.1080   38.3610 O   0  0  0  0  0  0  0  0  0  0  0  0
  1  7  1  6  0  0  0
  1 19  1  0  0  0  0
  2  8  1  0  0  0  0
  2  1  1  0  0  0  0
  3 10  1  0  0  0  0
  3  2  1  0  0  0  0
  4  3  1  0  0  0  0
  4  5  1  0  0  0  0
  5  6  1  0  0  0  0
  6 16  1  1  0  0  0
  6  1  1  0  0  0  0
  6 32  1  0  0  0  0
  9  2  1  0  0  0  0
 11  3  1  0  0  0  0
 12  4  1  0  0  0  0
 13  4  1  0  0  0  0
 14  5  1  0  0  0  0
 15  5  1  0  0  0  0
 17 22  1  0  0  0  0
 17 24  1  0  0  0  0
 18 17  2  0  0  0  0
 19 20  2  0  0  0  0
 19 18  1  0  0  0  0
 20 21  1  0  0  0  0
 21 28  1  0  0  0  0
 21 22  2  0  0  0  0
 23 18  1  0  0  0  0
 24 25  1  0  0  0  0
 24 27  1  0  0  0  0
 26 24  1  0  0  0  0
 28 29  1  0  0  0  0
 30 28  1  0  0  0  0
 31 28  1  0  0  0  0
 32 33  1  0  0  0  0
 34 32  2  0  0  0  0
M  END
>  <minimizedAffinity>
-5.11732769

$$$$

 OpenBabel03252502353D

 34 35  0  0  1  0  0  0  0  0999 V2000
   36.9230   28.8130   38.0160 C   0  0  2  0  0  0  0  0  0  0  0  0
   37.9120   29.0680   36.8640 C   0  0  0  0  0  0  0  0  0  0  0  0
   37.5480   27.9840   35.8350 C   0  0  0  0  0  0  0  0  0  0  0  0
   36.2370   28.4750   35.2550 C   0  0  0  0  0  0  0  0  0  0  0  0
   35.1710   28.5040   36.2860 C   0  0  0  0  0  0  0  0  0  0  0  0
   35.5370   29.1290   37.5860 C   0  0  1  0  0  0  0  0  0  0  0  0
   37.0040   27.7130   38.2520 H   0  0  0  0  0  0  0  0  0  0  0  0
   38.9330   28.9360   37.2330 H   0  0  0  0  0  0  0  0  0  0  0  0
   37.7200   30.0230   36.3760 H   0  0  0  0  0  0  0  0  0  0  0  0
   37.4250   27.0060   36.3020 H   0  0  0  0  0  0  0  0  0  0  0  0
   38.2790   27.9520   35.0010 H   0  0  0  0  0  0  0  0  0  0  0  0
   36.4180   29.4460   34.7550 H   0  0  0  0  0  0  0  0  0  0  0  0
   35.9620   27.7290   34.4750 H   0  0  0  0  0  0  0  0  0  0  0  0
   34.7650   27.4680   36.4300 H   0  0  0  0  0  0  0  0  0  0  0  0
   34.2990   29.0720   35.8710 H   0  0  0  0  0  0  0  0  0  0  0  0
   35.4450   30.2370   37.4510 H   0  0  0  0  0  0  0  0  0  0  0  0
   38.0820   31.5820   40.2720 C   0  0  0  0  0  0  0  0  0  0  0  0
   37.6040   30.9560   39.1080 C   0  0  0  0  0  0  0  0  0  0  0  0
   37.4070   29.5640   39.1560 C   0  0  0  0  0  0  0  0  0  0  0  0
   37.6940   28.9110   40.3270 N   0  0  0  0  0  0  0  0  0  0  0  0
   38.1480   29.5510   41.4100 C   0  0  0  0  0  0  0  0  0  0  0  0
   38.3430   30.8900   41.3830 N   0  0  0  0  0  0  0  0  0  0  0  0
   37.3890   31.5060   38.2040 H   0  0  0  0  0  0  0  0  0  0  0  0
   38.2800   33.0580   40.1950 C   0  0  0  0  0  0  0  0  0  0  0  0
   38.7080   33.5710   41.4040 F   0  0  0  0  0  0  0  0  0  0  0  0
   39.2060   33.3210   39.1900 F   0  0  0  0  0  0  0  0  0  0  0  0
   37.1000   33.6700   39.7910 F   0  0  0  0  0  0  0  0  0  0  0  0
   38.4490   28.7950   42.6630 C   0  0  0  0  0  0  0  0  0  0  0  0
   39.7310   28.9900   43.0700 F   0  0  0  0  0  0  0  0  0  0  0  0
   38.1890   27.4220   42.4600 F   0  0  0  0  0  0  0  0  0  0  0  0
   37.5800   29.1330   43.6770 F   0  0  0  0  0  0  0  0  0  0  0  0
   34.5880   28.7440   38.6520 C   0  0  0  0  0  0  0  0  0  0  0  0
   34.1120   27.7680   38.6480 H   0  0  0  0  0  0  0  0  0  0  0  0
   34.0990   29.2100   39.6590 O   0  0  0  0  0  0  0  0  0  0  0  0
  1  7  1  1  0  0  0
  1 19  1  0  0  0  0
  2  8  1  0  0  0  0
  2  1  1  0  0  0  0
  3 10  1  0  0  0  0
  3  2  1  0  0  0  0
  4  3  1  0  0  0  0
  4  5  1  0  0  0  0
  5 14  1  0  0  0  0
  5  6  1  0  0  0  0
  6 16  1  6  0  0  0
  6  1  1  0  0  0  0
  6 32  1  0  0  0  0
  9  2  1  0  0  0  0
 11  3  1  0  0  0  0
 12  4  1  0  0  0  0
 13  4  1  0  0  0  0
 15  5  1  0  0  0  0
 17 22  1  0  0  0  0
 18 19  1  0  0  0  0
 18 17  2  0  0  0  0
 19 20  2  0  0  0  0
 20 21  1  0  0  0  0
 21 28  1  0  0  0  0
 22 21  2  0  0  0  0
 23 18  1  0  0  0  0
 24 17  1  0  0  0  0
 24 25  1  0  0  0  0
 26 24  1  0  0  0  0
 27 24  1  0  0  0  0
 28 29  1  0  0  0  0
 28 31  1  0  0  0  0
 30 28  1  0  0  0  0
 32 34  2  0  0  0  0
 33 32  1  0  0  0  0
M  END
>  <minimizedAffinity>
-5.01882553

$$$$

 OpenBabel03252502353D

 34 35  0  0  1  0  0  0  0  0999 V2000
   37.3180   26.9490   40.2900 C   0  0  2  0  0  0  0  0  0  0  0  0
   36.7620   25.6010   39.7950 C   0  0  0  0  0  0  0  0  0  0  0  0
   37.5800   24.5660   40.5850 C   0  0  0  0  0  0  0  0  0  0  0  0
   37.0100   24.6600   41.9860 C   0  0  0  0  0  0  0  0  0  0  0  0
   37.2650   25.9950   42.5800 C   0  0  0  0  0  0  0  0  0  0  0  0
   36.9570   27.1650   41.7130 C   0  0  1  0  0  0  0  0  0  0  0  0
   38.4400   26.8710   40.1920 H   0  0  0  0  0  0  0  0  0  0  0  0
   36.9430   25.5120   38.7200 H   0  0  0  0  0  0  0  0  0  0  0  0
   35.7250   25.4620   40.0990 H   0  0  0  0  0  0  0  0  0  0  0  0
   38.6450   24.8020   40.5810 H   0  0  0  0  0  0  0  0  0  0  0  0
   37.3860   23.5340   40.2260 H   0  0  0  0  0  0  0  0  0  0  0  0
   35.9420   24.3710   41.9480 H   0  0  0  0  0  0  0  0  0  0  0  0
   37.5570   23.8930   42.5790 H   0  0  0  0  0  0  0  0  0  0  0  0
   38.3190   26.0360   42.9630 H   0  0  0  0  0  0  0  0  0  0  0  0
   36.6440   26.0880   43.5080 H   0  0  0  0  0  0  0  0  0  0  0  0
   35.8530   27.3380   41.7830 H   0  0  0  0  0  0  0  0  0  0  0  0
   37.0960   29.9520   38.0460 C   0  0  0  0  0  0  0  0  0  0  0  0
   37.6600   29.0250   38.9400 C   0  0  0  0  0  0  0  0  0  0  0  0
   36.8460   27.9600   39.3670 C   0  0  0  0  0  0  0  0  0  0  0  0
   35.5630   27.8960   38.8870 N   0  0  0  0  0  0  0  0  0  0  0  0
   35.0700   28.8030   38.0380 C   0  0  0  0  0  0  0  0  0  0  0  0
   35.8380   29.8340   37.6160 N   0  0  0  0  0  0  0  0  0  0  0  0
   38.6760   29.1100   39.2950 H   0  0  0  0  0  0  0  0  0  0  0  0
   37.9810   31.0690   37.6090 C   0  0  0  0  0  0  0  0  0  0  0  0
   39.2880   30.6470   37.4640 F   0  0  0  0  0  0  0  0  0  0  0  0
   37.4870   31.5710   36.4080 F   0  0  0  0  0  0  0  0  0  0  0  0
   37.9000   32.1170   38.5180 F   0  0  0  0  0  0  0  0  0  0  0  0
   33.6640   28.6920   37.5450 C   0  0  0  0  0  0  0  0  0  0  0  0
   33.3340   27.4050   37.2570 F   0  0  0  0  0  0  0  0  0  0  0  0
   33.4930   29.5200   36.4150 F   0  0  0  0  0  0  0  0  0  0  0  0
   32.7690   29.2110   38.4550 F   0  0  0  0  0  0  0  0  0  0  0  0
   37.6180   28.3900   42.2120 C   0  0  0  0  0  0  0  0  0  0  0  0
   38.6530   28.6040   41.9640 H   0  0  0  0  0  0  0  0  0  0  0  0
   37.3610   29.3610   42.8920 O   0  0  0  0  0  0  0  0  0  0  0  0
  1  7  1  6  0  0  0
  1  6  1  0  0  0  0
  2  9  1  0  0  0  0
  2  1  1  0  0  0  0
  2  3  1  0  0  0  0
  3  4  1  0  0  0  0
  4 13  1  0  0  0  0
  4  5  1  0  0  0  0
  5 14  1  0  0  0  0
  5 15  1  0  0  0  0
  6 16  1  1  0  0  0
  6 32  1  0  0  0  0
  6  5  1  0  0  0  0
  8  2  1  0  0  0  0
 10  3  1  0  0  0  0
 11  3  1  0  0  0  0
 12  4  1  0  0  0  0
 17 18  1  0  0  0  0
 18 23  1  0  0  0  0
 18 19  2  0  0  0  0
 19  1  1  0  0  0  0
 20 19  1  0  0  0  0
 21 20  2  0  0  0  0
 22 21  1  0  0  0  0
 22 17  2  0  0  0  0
 24 17  1  0  0  0  0
 24 27  1  0  0  0  0
 25 24  1  0  0  0  0
 26 24  1  0  0  0  0
 28 21  1  0  0  0  0
 28 31  1  0  0  0  0
 29 28  1  0  0  0  0
 30 28  1  0  0  0  0
 32 34  2  0  0  0  0
 33 32  1  0  0  0  0
M  END
>  <minimizedAffinity>
-4.99686384

$$$$

 OpenBabel03252502353D

 34 35  0  0  1  0  0  0  0  0999 V2000
   37.8230   26.5500   40.6650 C   0  0  2  0  0  0  0  0  0  0  0  0
   38.0410   25.5500   39.5150 C   0  0  0  0  0  0  0  0  0  0  0  0
   39.0330   24.5350   40.1080 C   0  0  0  0  0  0  0  0  0  0  0  0
   38.1850   23.7380   41.0780 C   0  0  0  0  0  0  0  0  0  0  0  0
   37.6890   24.5930   42.1840 C   0  0  0  0  0  0  0  0  0  0  0  0
   37.0970   25.8990   41.7850 C   0  0  1  0  0  0  0  0  0  0  0  0
   38.8540   26.8520   41.0070 H   0  0  0  0  0  0  0  0  0  0  0  0
   38.4750   26.0760   38.6600 H   0  0  0  0  0  0  0  0  0  0  0  0
   37.1310   24.9900   39.2950 H   0  0  0  0  0  0  0  0  0  0  0  0
   39.8570   25.0290   40.6250 H   0  0  0  0  0  0  0  0  0  0  0  0
   39.3970   23.8240   39.3370 H   0  0  0  0  0  0  0  0  0  0  0  0
   37.3910   23.2220   40.5050 H   0  0  0  0  0  0  0  0  0  0  0  0
   38.8670   22.9660   41.4990 H   0  0  0  0  0  0  0  0  0  0  0  0
   38.5030   24.7270   42.9440 H   0  0  0  0  0  0  0  0  0  0  0  0
   36.9020   24.0210   42.7400 H   0  0  0  0  0  0  0  0  0  0  0  0
   36.0450   25.6940   41.4630 H   0  0  0  0  0  0  0  0  0  0  0  0
   35.4180   28.8050   38.8670 C   0  0  0  0  0  0  0  0  0  0  0  0
   35.9590   27.6150   39.3840 C   0  0  0  0  0  0  0  0  0  0  0  0
   37.1710   27.7090   40.0920 C   0  0  0  0  0  0  0  0  0  0  0  0
   37.7430   28.9480   40.2300 N   0  0  0  0  0  0  0  0  0  0  0  0
   37.1900   30.0530   39.7190 C   0  0  0  0  0  0  0  0  0  0  0  0
   36.0250   29.9820   39.0350 N   0  0  0  0  0  0  0  0  0  0  0  0
   35.4770   26.6580   39.2540 H   0  0  0  0  0  0  0  0  0  0  0  0
   34.1320   28.6770   38.1220 C   0  0  0  0  0  0  0  0  0  0  0  0
   33.8940   27.3670   37.7540 F   0  0  0  0  0  0  0  0  0  0  0  0
   33.1080   29.1560   38.9350 F   0  0  0  0  0  0  0  0  0  0  0  0
   34.1490   29.5070   37.0080 F   0  0  0  0  0  0  0  0  0  0  0  0
   37.8540   31.3800   39.8940 C   0  0  0  0  0  0  0  0  0  0  0  0
   39.0370   31.2660   40.5530 F   0  0  0  0  0  0  0  0  0  0  0  0
   36.9820   32.2580   40.5730 F   0  0  0  0  0  0  0  0  0  0  0  0
   38.0520   32.0070   38.6830 F   0  0  0  0  0  0  0  0  0  0  0  0
   37.0250   26.8270   42.9330 C   0  0  0  0  0  0  0  0  0  0  0  0
   37.9280   27.2200   43.3900 H   0  0  0  0  0  0  0  0  0  0  0  0
   36.1880   27.3670   43.6260 O   0  0  0  0  0  0  0  0  0  0  0  0
  1  7  1  1  0  0  0
  1  6  1  0  0  0  0
  2  3  1  0  0  0  0
  2  1  1  0  0  0  0
  3 10  1  0  0  0  0
  3  4  1  0  0  0  0
  4 13  1  0  0  0  0
  4  5  1  0  0  0  0
  5 15  1  0  0  0  0
  5 14  1  0  0  0  0
  6 16  1  6  0  0  0
  6  5  1  0  0  0  0
  6 32  1  0  0  0  0
  8  2  1  0  0  0  0
  9  2  1  0  0  0  0
 11  3  1  0  0  0  0
 12  4  1  0  0  0  0
 17 22  2  0  0  0  0
 17 18  1  0  0  0  0
 18 19  2  0  0  0  0
 19 20  1  0  0  0  0
 19  1  1  0  0  0  0
 21 28  1  0  0  0  0
 21 20  2  0  0  0  0
 22 21  1  0  0  0  0
 23 18  1  0  0  0  0
 24 17  1  0  0  0  0
 24 26  1  0  0  0  0
 25 24  1  0  0  0  0
 27 24  1  0  0  0  0
 28 29  1  0  0  0  0
 28 30  1  0  0  0  0
 31 28  1  0  0  0  0
 32 33  1  0  0  0  0
 32 34  2  0  0  0  0
M  END
>  <minimizedAffinity>
-4.97388315

$$$$
