
 OpenBabel03242510303D

 28 29  0  0  1  0  0  0  0  0999 V2000
   37.1340   30.5410   39.8340 C   0  0  1  0  0  0  0  0  0  0  0  0
   35.9950   30.4300   40.8070 C   0  0  0  0  0  0  0  0  0  0  0  0
   35.3650   29.0670   40.5820 C   0  0  0  0  0  0  0  0  0  0  0  0
   34.7030   29.0980   39.2250 C   0  0  0  0  0  0  0  0  0  0  0  0
   35.6450   29.4580   38.1180 C   0  0  0  0  0  0  0  0  0  0  0  0
   36.6160   30.5360   38.4150 C   0  0  2  0  0  0  0  0  0  0  0  0
   37.7630   29.6420   39.9350 H   0  0  0  0  0  0  0  0  0  0  0  0
   35.2140   31.1940   40.6190 H   0  0  0  0  0  0  0  0  0  0  0  0
   36.4050   30.4880   41.8380 H   0  0  0  0  0  0  0  0  0  0  0  0
   36.1000   28.2520   40.6850 H   0  0  0  0  0  0  0  0  0  0  0  0
   34.5330   28.9780   41.3280 H   0  0  0  0  0  0  0  0  0  0  0  0
   34.3050   28.0950   39.0390 H   0  0  0  0  0  0  0  0  0  0  0  0
   33.9090   29.8920   39.2810 H   0  0  0  0  0  0  0  0  0  0  0  0
   35.0300   29.7860   37.2530 H   0  0  0  0  0  0  0  0  0  0  0  0
   36.1990   28.5460   37.7870 H   0  0  0  0  0  0  0  0  0  0  0  0
   36.1880   31.5470   38.2400 H   0  0  0  0  0  0  0  0  0  0  0  0
   38.2870   34.1610   40.0680 C   0  0  0  0  0  0  0  0  0  0  0  0
   37.4640   33.0620   39.8420 C   0  0  0  0  0  0  0  0  0  0  0  0
   37.9470   31.7560   40.0530 C   0  0  0  0  0  0  0  0  0  0  0  0
   39.2340   31.6320   40.4790 N   0  0  0  0  0  0  0  0  0  0  0  0
   40.0170   32.7160   40.6920 C   0  0  0  0  0  0  0  0  0  0  0  0
   39.5630   33.9680   40.4940 N   0  0  0  0  0  0  0  0  0  0  0  0
   37.8260   35.1060   39.8800 H   0  0  0  0  0  0  0  0  0  0  0  0
   36.4240   33.1320   39.5000 H   0  0  0  0  0  0  0  0  0  0  0  0
   41.0350   32.6320   41.0290 H   0  0  0  0  0  0  0  0  0  0  0  0
   37.7570   30.3820   37.4610 C   0  0  0  0  0  0  0  0  0  0  0  0
   38.1190   31.0510   36.6770 H   0  0  0  0  0  0  0  0  0  0  0  0
   38.4970   29.3900   37.4390 O   0  0  0  0  0  0  0  0  0  0  0  0
  1  7  1  1  0  0  0
  1 19  1  0  0  0  0
  1  2  1  0  0  0  0
  2  9  1  0  0  0  0
  3 10  1  0  0  0  0
  3  2  1  0  0  0  0
  3 11  1  0  0  0  0
  4 13  1  0  0  0  0
  4  3  1  0  0  0  0
  5  6  1  0  0  0  0
  5  4  1  0  0  0  0
  6 16  1  6  0  0  0
  6  1  1  0  0  0  0
  8  2  1  0  0  0  0
 12  4  1  0  0  0  0
 14  5  1  0  0  0  0
 15  5  1  0  0  0  0
 17 22  1  0  0  0  0
 18 19  1  0  0  0  0
 18 17  2  0  0  0  0
 19 20  2  0  0  0  0
 20 21  1  0  0  0  0
 21 25  1  0  0  0  0
 22 21  2  0  0  0  0
 23 17  1  0  0  0  0
 24 18  1  0  0  0  0
 26  6  1  0  0  0  0
 27 26  1  0  0  0  0
 28 26  2  0  0  0  0
M  END
>  <minimizedAffinity>
-4.23363733

$$$$

 OpenBabel03242510303D

 28 29  0  0  1  0  0  0  0  0999 V2000
   37.9840   29.1600   41.1880 C   0  0  1  0  0  0  0  0  0  0  0  0
   38.5670   29.6020   42.4990 C   0  0  0  0  0  0  0  0  0  0  0  0
   38.7810   28.3450   43.3240 C   0  0  0  0  0  0  0  0  0  0  0  0
   37.4160   27.8060   43.6800 C   0  0  0  0  0  0  0  0  0  0  0  0
   36.5580   27.5390   42.4820 C   0  0  0  0  0  0  0  0  0  0  0  0
   36.6190   28.5480   41.3990 C   0  0  2  0  0  0  0  0  0  0  0  0
   38.6200   28.3570   40.7790 H   0  0  0  0  0  0  0  0  0  0  0  0
   37.8720   30.2570   43.0610 H   0  0  0  0  0  0  0  0  0  0  0  0
   39.5450   30.0920   42.3020 H   0  0  0  0  0  0  0  0  0  0  0  0
   39.4110   27.6100   42.7980 H   0  0  0  0  0  0  0  0  0  0  0  0
   39.2410   28.6780   44.2900 H   0  0  0  0  0  0  0  0  0  0  0  0
   37.5720   26.8670   44.2190 H   0  0  0  0  0  0  0  0  0  0  0  0
   36.9150   28.6000   44.2980 H   0  0  0  0  0  0  0  0  0  0  0  0
   35.5050   27.4840   42.8330 H   0  0  0  0  0  0  0  0  0  0  0  0
   36.8050   26.5330   42.0610 H   0  0  0  0  0  0  0  0  0  0  0  0
   35.9260   29.3970   41.5770 H   0  0  0  0  0  0  0  0  0  0  0  0
   37.0910   32.4500   39.4950 C   0  0  0  0  0  0  0  0  0  0  0  0
   37.1480   31.4480   40.4580 C   0  0  0  0  0  0  0  0  0  0  0  0
   37.8770   30.2670   40.2140 C   0  0  0  0  0  0  0  0  0  0  0  0
   38.5060   30.1640   39.0120 N   0  0  0  0  0  0  0  0  0  0  0  0
   38.4360   31.1520   38.0880 C   0  0  0  0  0  0  0  0  0  0  0  0
   37.7420   32.2840   38.3140 N   0  0  0  0  0  0  0  0  0  0  0  0
   36.5130   33.3030   39.7770 H   0  0  0  0  0  0  0  0  0  0  0  0
   36.6520   31.5040   41.4350 H   0  0  0  0  0  0  0  0  0  0  0  0
   38.9280   31.0830   37.1350 H   0  0  0  0  0  0  0  0  0  0  0  0
   36.1640   27.8790   40.1410 C   0  0  0  0  0  0  0  0  0  0  0  0
   35.5080   28.2400   39.3460 H   0  0  0  0  0  0  0  0  0  0  0  0
   36.5040   26.7340   39.8180 O   0  0  0  0  0  0  0  0  0  0  0  0
  1  7  1  6  0  0  0
  1  6  1  0  0  0  0
  1  2  1  0  0  0  0
  2  8  1  0  0  0  0
  2  3  1  0  0  0  0
  3  4  1  0  0  0  0
  3 11  1  0  0  0  0
  4 12  1  0  0  0  0
  4 13  1  0  0  0  0
  5 14  1  0  0  0  0
  5  4  1  0  0  0  0
  6 16  1  1  0  0  0
  6  5  1  0  0  0  0
  9  2  1  0  0  0  0
 10  3  1  0  0  0  0
 15  5  1  0  0  0  0
 17 23  1  0  0  0  0
 17 18  1  0  0  0  0
 18 24  1  0  0  0  0
 19 18  2  0  0  0  0
 19  1  1  0  0  0  0
 20 19  1  0  0  0  0
 21 22  1  0  0  0  0
 21 20  2  0  0  0  0
 22 17  2  0  0  0  0
 25 21  1  0  0  0  0
 26  6  1  0  0  0  0
 27 26  1  0  0  0  0
 28 26  2  0  0  0  0
M  END
>  <minimizedAffinity>
-4.08677101

$$$$

 OpenBabel03242510303D

 28 29  0  0  1  0  0  0  0  0999 V2000
   37.4280   25.3450   41.6810 C   0  0  1  0  0  0  0  0  0  0  0  0
   36.6430   25.3480   40.4010 C   0  0  0  0  0  0  0  0  0  0  0  0
   36.2370   23.9080   40.1390 C   0  0  0  0  0  0  0  0  0  0  0  0
   37.4950   23.1420   39.8090 C   0  0  0  0  0  0  0  0  0  0  0  0
   38.5390   23.2340   40.8790 C   0  0  0  0  0  0  0  0  0  0  0  0
   38.7100   24.5630   41.5090 C   0  0  2  0  0  0  0  0  0  0  0  0
   36.8420   24.8110   42.4450 H   0  0  0  0  0  0  0  0  0  0  0  0
   37.2540   25.6850   39.5400 H   0  0  0  0  0  0  0  0  0  0  0  0
   35.7360   25.9730   40.5460 H   0  0  0  0  0  0  0  0  0  0  0  0
   35.6790   23.4780   40.9860 H   0  0  0  0  0  0  0  0  0  0  0  0
   35.6280   23.9200   39.1980 H   0  0  0  0  0  0  0  0  0  0  0  0
   37.2090   22.0930   39.6830 H   0  0  0  0  0  0  0  0  0  0  0  0
   37.9120   23.6080   38.8740 H   0  0  0  0  0  0  0  0  0  0  0  0
   39.5100   22.9500   40.4200 H   0  0  0  0  0  0  0  0  0  0  0  0
   38.3280   22.4750   41.6730 H   0  0  0  0  0  0  0  0  0  0  0  0
   39.3950   25.2180   40.9300 H   0  0  0  0  0  0  0  0  0  0  0  0
   37.4980   28.5970   43.6580 C   0  0  0  0  0  0  0  0  0  0  0  0
   37.1470   27.3070   43.2750 C   0  0  0  0  0  0  0  0  0  0  0  0
   37.7490   26.7110   42.1500 C   0  0  0  0  0  0  0  0  0  0  0  0
   38.6700   27.4500   41.4740 N   0  0  0  0  0  0  0  0  0  0  0  0
   38.9970   28.7050   41.8660 C   0  0  0  0  0  0  0  0  0  0  0  0
   38.4270   29.2820   42.9400 N   0  0  0  0  0  0  0  0  0  0  0  0
   36.9850   28.9570   44.5230 H   0  0  0  0  0  0  0  0  0  0  0  0
   36.4090   26.6870   43.8000 H   0  0  0  0  0  0  0  0  0  0  0  0
   39.7230   29.3000   41.3420 H   0  0  0  0  0  0  0  0  0  0  0  0
   39.3510   24.3440   42.8430 C   0  0  0  0  0  0  0  0  0  0  0  0
   38.9590   23.8720   43.7470 H   0  0  0  0  0  0  0  0  0  0  0  0
   40.5050   24.7020   43.1100 O   0  0  0  0  0  0  0  0  0  0  0  0
  1 19  1  0  0  0  0
  1  7  1  1  0  0  0
  2  9  1  0  0  0  0
  2  1  1  0  0  0  0
  3  2  1  0  0  0  0
  3 10  1  0  0  0  0
  4  3  1  0  0  0  0
  4  5  1  0  0  0  0
  5  6  1  0  0  0  0
  5 15  1  0  0  0  0
  6 16  1  6  0  0  0
  6  1  1  0  0  0  0
  6 26  1  0  0  0  0
  8  2  1  0  0  0  0
 11  3  1  0  0  0  0
 12  4  1  0  0  0  0
 13  4  1  0  0  0  0
 14  5  1  0  0  0  0
 17 23  1  0  0  0  0
 18 17  1  0  0  0  0
 18 24  1  0  0  0  0
 19 18  2  0  0  0  0
 20 21  2  0  0  0  0
 20 19  1  0  0  0  0
 21 22  1  0  0  0  0
 22 17  2  0  0  0  0
 25 21  1  0  0  0  0
 26 28  2  0  0  0  0
 26 27  1  0  0  0  0
M  END
>  <minimizedAffinity>
-4.08051968

$$$$

 OpenBabel03242510303D

 28 29  0  0  1  0  0  0  0  0999 V2000
   37.4240   29.6060   41.7500 C   0  0  1  0  0  0  0  0  0  0  0  0
   36.6140   28.3560   41.5640 C   0  0  0  0  0  0  0  0  0  0  0  0
   36.5420   27.6790   42.9210 C   0  0  0  0  0  0  0  0  0  0  0  0
   37.9300   27.1850   43.2490 C   0  0  0  0  0  0  0  0  0  0  0  0
   38.9620   28.2700   43.2290 C   0  0  0  0  0  0  0  0  0  0  0  0
   38.8440   29.2600   42.1330 C   0  0  2  0  0  0  0  0  0  0  0  0
   37.0050   30.1670   42.6020 H   0  0  0  0  0  0  0  0  0  0  0  0
   37.1000   27.6480   40.8630 H   0  0  0  0  0  0  0  0  0  0  0  0
   35.5930   28.6440   41.2340 H   0  0  0  0  0  0  0  0  0  0  0  0
   36.1290   28.3490   43.6930 H   0  0  0  0  0  0  0  0  0  0  0  0
   35.9130   26.7620   42.7820 H   0  0  0  0  0  0  0  0  0  0  0  0
   37.8890   26.7550   44.2550 H   0  0  0  0  0  0  0  0  0  0  0  0
   38.1940   26.4370   42.4520 H   0  0  0  0  0  0  0  0  0  0  0  0
   39.9560   27.7810   43.1370 H   0  0  0  0  0  0  0  0  0  0  0  0
   38.9610   28.8060   44.2100 H   0  0  0  0  0  0  0  0  0  0  0  0
   39.3390   28.9150   41.2000 H   0  0  0  0  0  0  0  0  0  0  0  0
   37.8160   30.8490   38.1740 C   0  0  0  0  0  0  0  0  0  0  0  0
   37.8270   29.9920   39.2690 C   0  0  0  0  0  0  0  0  0  0  0  0
   37.4390   30.4570   40.5410 C   0  0  0  0  0  0  0  0  0  0  0  0
   37.0630   31.7610   40.6360 N   0  0  0  0  0  0  0  0  0  0  0  0
   37.0600   32.5780   39.5560 C   0  0  0  0  0  0  0  0  0  0  0  0
   37.4290   32.1410   38.3370 N   0  0  0  0  0  0  0  0  0  0  0  0
   38.1270   30.4000   37.2560 H   0  0  0  0  0  0  0  0  0  0  0  0
   38.1250   28.9360   39.2220 H   0  0  0  0  0  0  0  0  0  0  0  0
   36.7650   33.6100   39.6170 H   0  0  0  0  0  0  0  0  0  0  0  0
   39.5660   30.4950   42.5700 C   0  0  0  0  0  0  0  0  0  0  0  0
   39.3290   31.2100   43.3600 H   0  0  0  0  0  0  0  0  0  0  0  0
   40.6130   30.8930   42.0440 O   0  0  0  0  0  0  0  0  0  0  0  0
  1  6  1  0  0  0  0
  1  7  1  1  0  0  0
  2  1  1  0  0  0  0
  2  3  1  0  0  0  0
  3  4  1  0  0  0  0
  3 10  1  0  0  0  0
  4 12  1  0  0  0  0
  5  4  1  0  0  0  0
  5 15  1  0  0  0  0
  6 16  1  6  0  0  0
  6 26  1  0  0  0  0
  6  5  1  0  0  0  0
  8  2  1  0  0  0  0
  9  2  1  0  0  0  0
 11  3  1  0  0  0  0
 13  4  1  0  0  0  0
 14  5  1  0  0  0  0
 17 22  2  0  0  0  0
 17 18  1  0  0  0  0
 18 19  2  0  0  0  0
 19 20  1  0  0  0  0
 19  1  1  0  0  0  0
 21 25  1  0  0  0  0
 21 20  2  0  0  0  0
 22 21  1  0  0  0  0
 23 17  1  0  0  0  0
 24 18  1  0  0  0  0
 26 27  1  0  0  0  0
 28 26  2  0  0  0  0
M  END
>  <minimizedAffinity>
-4.07557535

$$$$

 OpenBabel03242510303D

 28 29  0  0  1  0  0  0  0  0999 V2000
   36.1970   28.4370   40.9140 C   0  0  1  0  0  0  0  0  0  0  0  0
   36.7800   27.0930   41.2440 C   0  0  0  0  0  0  0  0  0  0  0  0
   36.8850   27.0250   42.7570 C   0  0  0  0  0  0  0  0  0  0  0  0
   37.9490   28.0110   43.1760 C   0  0  0  0  0  0  0  0  0  0  0  0
   37.6770   29.4070   42.7050 C   0  0  0  0  0  0  0  0  0  0  0  0
   37.1470   29.5370   41.3280 C   0  0  2  0  0  0  0  0  0  0  0  0
   35.2850   28.5760   41.5170 H   0  0  0  0  0  0  0  0  0  0  0  0
   37.8020   26.9730   40.8320 H   0  0  0  0  0  0  0  0  0  0  0  0
   36.0820   26.3080   40.8810 H   0  0  0  0  0  0  0  0  0  0  0  0
   35.9140   27.2050   43.2450 H   0  0  0  0  0  0  0  0  0  0  0  0
   37.2950   26.0100   42.9980 H   0  0  0  0  0  0  0  0  0  0  0  0
   37.9780   28.0070   44.2700 H   0  0  0  0  0  0  0  0  0  0  0  0
   38.9060   27.6630   42.7010 H   0  0  0  0  0  0  0  0  0  0  0  0
   38.6360   29.9660   42.7520 H   0  0  0  0  0  0  0  0  0  0  0  0
   36.9790   29.9130   43.4170 H   0  0  0  0  0  0  0  0  0  0  0  0
   37.9550   29.5490   40.5660 H   0  0  0  0  0  0  0  0  0  0  0  0
   34.3640   28.9640   37.6210 C   0  0  0  0  0  0  0  0  0  0  0  0
   34.5870   28.8420   38.9880 C   0  0  0  0  0  0  0  0  0  0  0  0
   35.8820   28.5800   39.4770 C   0  0  0  0  0  0  0  0  0  0  0  0
   36.8770   28.4530   38.5580 N   0  0  0  0  0  0  0  0  0  0  0  0
   36.6370   28.5750   37.2310 C   0  0  0  0  0  0  0  0  0  0  0  0
   35.4030   28.8270   36.7560 N   0  0  0  0  0  0  0  0  0  0  0  0
   33.3490   29.1630   37.3530 H   0  0  0  0  0  0  0  0  0  0  0  0
   33.8040   28.9400   39.7510 H   0  0  0  0  0  0  0  0  0  0  0  0
   37.4140   28.4770   36.4950 H   0  0  0  0  0  0  0  0  0  0  0  0
   36.4560   30.8610   41.2410 C   0  0  0  0  0  0  0  0  0  0  0  0
   35.5240   31.2030   41.6950 H   0  0  0  0  0  0  0  0  0  0  0  0
   36.8940   31.8150   40.5860 O   0  0  0  0  0  0  0  0  0  0  0  0
  1  2  1  0  0  0  0
  1  6  1  0  0  0  0
  1  7  1  1  0  0  0
  2  3  1  0  0  0  0
  3 11  1  0  0  0  0
  3  4  1  0  0  0  0
  3 10  1  0  0  0  0
  4 12  1  0  0  0  0
  5 14  1  0  0  0  0
  5  4  1  0  0  0  0
  5 15  1  0  0  0  0
  6 16  1  6  0  0  0
  6  5  1  0  0  0  0
  8  2  1  0  0  0  0
  9  2  1  0  0  0  0
 13  4  1  0  0  0  0
 17 18  1  0  0  0  0
 18 19  2  0  0  0  0
 18 24  1  0  0  0  0
 19  1  1  0  0  0  0
 20 19  1  0  0  0  0
 21 20  2  0  0  0  0
 22 21  1  0  0  0  0
 22 17  2  0  0  0  0
 23 17  1  0  0  0  0
 25 21  1  0  0  0  0
 26  6  1  0  0  0  0
 26 27  1  0  0  0  0
 28 26  2  0  0  0  0
M  END
>  <minimizedAffinity>
-4.05210686

$$$$

 OpenBabel03242510303D

 28 29  0  0  1  0  0  0  0  0999 V2000
   38.1070   29.2000   41.4740 C   0  0  1  0  0  0  0  0  0  0  0  0
   38.5930   29.3740   42.8850 C   0  0  0  0  0  0  0  0  0  0  0  0
   38.5470   28.0010   43.5320 C   0  0  0  0  0  0  0  0  0  0  0  0
   37.0920   27.6230   43.6770 C   0  0  0  0  0  0  0  0  0  0  0  0
   36.3450   27.6460   42.3790 C   0  0  0  0  0  0  0  0  0  0  0  0
   36.6580   28.7700   41.4670 C   0  0  2  0  0  0  0  0  0  0  0  0
   38.6730   28.3750   41.0120 H   0  0  0  0  0  0  0  0  0  0  0  0
   37.9310   30.0420   43.4710 H   0  0  0  0  0  0  0  0  0  0  0  0
   39.6420   29.7390   42.8530 H   0  0  0  0  0  0  0  0  0  0  0  0
   39.1300   27.2590   42.9630 H   0  0  0  0  0  0  0  0  0  0  0  0
   38.9360   28.1320   44.5750 H   0  0  0  0  0  0  0  0  0  0  0  0
   37.0630   26.6080   44.0850 H   0  0  0  0  0  0  0  0  0  0  0  0
   36.6340   28.3920   44.3570 H   0  0  0  0  0  0  0  0  0  0  0  0
   35.2620   27.6980   42.6210 H   0  0  0  0  0  0  0  0  0  0  0  0
   36.5040   26.6800   41.8390 H   0  0  0  0  0  0  0  0  0  0  0  0
   36.0660   29.6800   41.7040 H   0  0  0  0  0  0  0  0  0  0  0  0
   39.3470   31.8000   38.9870 C   0  0  0  0  0  0  0  0  0  0  0  0
   39.2680   30.6130   39.7080 C   0  0  0  0  0  0  0  0  0  0  0  0
   38.2550   30.4310   40.6690 C   0  0  0  0  0  0  0  0  0  0  0  0
   37.3790   31.4570   40.8490 N   0  0  0  0  0  0  0  0  0  0  0  0
   37.4750   32.6040   40.1350 C   0  0  0  0  0  0  0  0  0  0  0  0
   38.4400   32.7860   39.2150 N   0  0  0  0  0  0  0  0  0  0  0  0
   40.1500   31.8380   38.2830 H   0  0  0  0  0  0  0  0  0  0  0  0
   39.9590   29.7700   39.5840 H   0  0  0  0  0  0  0  0  0  0  0  0
   36.7900   33.4210   40.2670 H   0  0  0  0  0  0  0  0  0  0  0  0
   36.2620   28.3480   40.0880 C   0  0  0  0  0  0  0  0  0  0  0  0
   36.8090   27.7650   39.3430 H   0  0  0  0  0  0  0  0  0  0  0  0
   35.1720   28.6310   39.5770 O   0  0  0  0  0  0  0  0  0  0  0  0
  1  7  1  6  0  0  0
  1  2  1  0  0  0  0
  2  8  1  0  0  0  0
  2  3  1  0  0  0  0
  3  4  1  0  0  0  0
  3 11  1  0  0  0  0
  4 12  1  0  0  0  0
  4 13  1  0  0  0  0
  5 14  1  0  0  0  0
  5  4  1  0  0  0  0
  6  1  1  0  0  0  0
  6 16  1  1  0  0  0
  6  5  1  0  0  0  0
  9  2  1  0  0  0  0
 10  3  1  0  0  0  0
 15  5  1  0  0  0  0
 17 22  2  0  0  0  0
 17 18  1  0  0  0  0
 18 19  2  0  0  0  0
 19 20  1  0  0  0  0
 19  1  1  0  0  0  0
 21 25  1  0  0  0  0
 21 20  2  0  0  0  0
 22 21  1  0  0  0  0
 23 17  1  0  0  0  0
 24 18  1  0  0  0  0
 26  6  1  0  0  0  0
 27 26  1  0  0  0  0
 28 26  2  0  0  0  0
M  END
>  <minimizedAffinity>
-4.04297066

$$$$

 OpenBabel03242510303D

 28 29  0  0  1  0  0  0  0  0999 V2000
   36.6650   30.6490   39.4160 C   0  0  1  0  0  0  0  0  0  0  0  0
   36.4550   30.1770   38.0060 C   0  0  0  0  0  0  0  0  0  0  0  0
   35.2560   29.2460   38.0340 C   0  0  0  0  0  0  0  0  0  0  0  0
   35.6700   28.0070   38.7900 C   0  0  0  0  0  0  0  0  0  0  0  0
   36.1730   28.2980   40.1700 C   0  0  0  0  0  0  0  0  0  0  0  0
   37.0430   29.4890   40.3070 C   0  0  2  0  0  0  0  0  0  0  0  0
   35.7050   31.0300   39.8000 H   0  0  0  0  0  0  0  0  0  0  0  0
   37.3210   29.5960   37.6310 H   0  0  0  0  0  0  0  0  0  0  0  0
   36.2300   31.0600   37.3700 H   0  0  0  0  0  0  0  0  0  0  0  0
   34.3660   29.7360   38.4620 H   0  0  0  0  0  0  0  0  0  0  0  0
   35.0870   28.9190   36.9750 H   0  0  0  0  0  0  0  0  0  0  0  0
   34.7860   27.3650   38.8640 H   0  0  0  0  0  0  0  0  0  0  0  0
   36.5100   27.5450   38.2020 H   0  0  0  0  0  0  0  0  0  0  0  0
   36.7550   27.4130   40.5050 H   0  0  0  0  0  0  0  0  0  0  0  0
   35.3080   28.3930   40.8710 H   0  0  0  0  0  0  0  0  0  0  0  0
   38.1060   29.2600   40.0800 H   0  0  0  0  0  0  0  0  0  0  0  0
   38.4660   33.9510   40.0020 C   0  0  0  0  0  0  0  0  0  0  0  0
   37.4390   33.0150   39.9350 C   0  0  0  0  0  0  0  0  0  0  0  0
   37.7030   31.6970   39.5130 C   0  0  0  0  0  0  0  0  0  0  0  0
   38.9890   31.3980   39.1820 N   0  0  0  0  0  0  0  0  0  0  0  0
   39.9730   32.3250   39.2550 C   0  0  0  0  0  0  0  0  0  0  0  0
   39.7290   33.5860   39.6570 N   0  0  0  0  0  0  0  0  0  0  0  0
   38.1620   34.9200   40.3330 H   0  0  0  0  0  0  0  0  0  0  0  0
   36.3940   33.2280   40.1960 H   0  0  0  0  0  0  0  0  0  0  0  0
   40.9930   32.1020   38.9960 H   0  0  0  0  0  0  0  0  0  0  0  0
   36.9920   29.9140   41.7410 C   0  0  0  0  0  0  0  0  0  0  0  0
   36.7110   30.8720   42.1840 H   0  0  0  0  0  0  0  0  0  0  0  0
   37.2870   29.1680   42.6830 O   0  0  0  0  0  0  0  0  0  0  0  0
  1 19  1  0  0  0  0
  1  7  1  1  0  0  0
  1  6  1  0  0  0  0
  2  3  1  0  0  0  0
  2  1  1  0  0  0  0
  3 10  1  0  0  0  0
  3  4  1  0  0  0  0
  4 12  1  0  0  0  0
  4  5  1  0  0  0  0
  5  6  1  0  0  0  0
  5 14  1  0  0  0  0
  5 15  1  0  0  0  0
  6 16  1  6  0  0  0
  6 26  1  0  0  0  0
  8  2  1  0  0  0  0
  9  2  1  0  0  0  0
 11  3  1  0  0  0  0
 13  4  1  0  0  0  0
 17 23  1  0  0  0  0
 18 17  1  0  0  0  0
 18 24  1  0  0  0  0
 19 18  2  0  0  0  0
 20 21  2  0  0  0  0
 20 19  1  0  0  0  0
 21 22  1  0  0  0  0
 22 17  2  0  0  0  0
 25 21  1  0  0  0  0
 26 27  1  0  0  0  0
 26 28  2  0  0  0  0
M  END
>  <minimizedAffinity>
-4.01747799

$$$$

 OpenBabel03242510303D

 28 29  0  0  1  0  0  0  0  0999 V2000
   36.9990   26.5640   41.3550 C   0  0  1  0  0  0  0  0  0  0  0  0
   36.7760   25.4580   40.3630 C   0  0  0  0  0  0  0  0  0  0  0  0
   36.7500   24.1630   41.1570 C   0  0  0  0  0  0  0  0  0  0  0  0
   38.1480   23.9290   41.6770 C   0  0  0  0  0  0  0  0  0  0  0  0
   38.6700   25.0680   42.4980 C   0  0  0  0  0  0  0  0  0  0  0  0
   38.3600   26.4270   41.9980 C   0  0  2  0  0  0  0  0  0  0  0  0
   36.2630   26.4540   42.1670 H   0  0  0  0  0  0  0  0  0  0  0  0
   37.6050   25.3850   39.6310 H   0  0  0  0  0  0  0  0  0  0  0  0
   35.7920   25.6180   39.8730 H   0  0  0  0  0  0  0  0  0  0  0  0
   35.9910   24.1860   41.9550 H   0  0  0  0  0  0  0  0  0  0  0  0
   36.5560   23.3450   40.4160 H   0  0  0  0  0  0  0  0  0  0  0  0
   38.1120   23.0300   42.3010 H   0  0  0  0  0  0  0  0  0  0  0  0
   38.8060   23.8200   40.7720 H   0  0  0  0  0  0  0  0  0  0  0  0
   39.7760   24.9670   42.5400 H   0  0  0  0  0  0  0  0  0  0  0  0
   38.3010   24.9700   43.5490 H   0  0  0  0  0  0  0  0  0  0  0  0
   39.0940   26.7730   41.2400 H   0  0  0  0  0  0  0  0  0  0  0  0
   35.7770   30.0400   40.4010 C   0  0  0  0  0  0  0  0  0  0  0  0
   35.8240   28.7930   41.0150 C   0  0  0  0  0  0  0  0  0  0  0  0
   36.8820   27.9040   40.7420 C   0  0  0  0  0  0  0  0  0  0  0  0
   37.8330   28.3240   39.8640 N   0  0  0  0  0  0  0  0  0  0  0  0
   37.7680   29.5430   39.2770 C   0  0  0  0  0  0  0  0  0  0  0  0
   36.7600   30.3980   39.5330 N   0  0  0  0  0  0  0  0  0  0  0  0
   34.9360   30.6380   40.6750 H   0  0  0  0  0  0  0  0  0  0  0  0
   35.0720   28.4280   41.7270 H   0  0  0  0  0  0  0  0  0  0  0  0
   38.5120   29.8860   38.5820 H   0  0  0  0  0  0  0  0  0  0  0  0
   38.4670   27.3640   43.1590 C   0  0  0  0  0  0  0  0  0  0  0  0
   37.8370   27.4670   44.0440 H   0  0  0  0  0  0  0  0  0  0  0  0
   39.3620   28.2110   43.2680 O   0  0  0  0  0  0  0  0  0  0  0  0
  1  6  1  0  0  0  0
  1  7  1  1  0  0  0
  2  3  1  0  0  0  0
  2  1  1  0  0  0  0
  3  4  1  0  0  0  0
  3 10  1  0  0  0  0
  4 12  1  0  0  0  0
  4  5  1  0  0  0  0
  5 14  1  0  0  0  0
  5 15  1  0  0  0  0
  6 16  1  6  0  0  0
  6  5  1  0  0  0  0
  6 26  1  0  0  0  0
  8  2  1  0  0  0  0
  9  2  1  0  0  0  0
 11  3  1  0  0  0  0
 13  4  1  0  0  0  0
 17 23  1  0  0  0  0
 17 18  1  0  0  0  0
 18 24  1  0  0  0  0
 19 18  2  0  0  0  0
 19  1  1  0  0  0  0
 20 19  1  0  0  0  0
 21 22  1  0  0  0  0
 21 20  2  0  0  0  0
 22 17  2  0  0  0  0
 25 21  1  0  0  0  0
 26 28  2  0  0  0  0
 26 27  1  0  0  0  0
M  END
>  <minimizedAffinity>
-3.979316

$$$$

 OpenBabel03242510303D

 28 29  0  0  1  0  0  0  0  0999 V2000
   37.1270   27.4710   40.2430 C   0  0  1  0  0  0  0  0  0  0  0  0
   36.2120   27.0490   39.1300 C   0  0  0  0  0  0  0  0  0  0  0  0
   35.7460   28.3220   38.4460 C   0  0  0  0  0  0  0  0  0  0  0  0
   34.8480   29.0490   39.4170 C   0  0  0  0  0  0  0  0  0  0  0  0
   35.5120   29.3400   40.7280 C   0  0  0  0  0  0  0  0  0  0  0  0
   36.3630   28.2610   41.2800 C   0  0  2  0  0  0  0  0  0  0  0  0
   37.8820   28.1580   39.8290 H   0  0  0  0  0  0  0  0  0  0  0  0
   35.3120   26.5250   39.5100 H   0  0  0  0  0  0  0  0  0  0  0  0
   36.7920   26.4280   38.4140 H   0  0  0  0  0  0  0  0  0  0  0  0
   36.5930   28.9350   38.0980 H   0  0  0  0  0  0  0  0  0  0  0  0
   35.0860   27.9990   37.5990 H   0  0  0  0  0  0  0  0  0  0  0  0
   34.5650   29.9960   38.9460 H   0  0  0  0  0  0  0  0  0  0  0  0
   33.9760   28.3670   39.6110 H   0  0  0  0  0  0  0  0  0  0  0  0
   34.7090   29.5500   41.4670 H   0  0  0  0  0  0  0  0  0  0  0  0
   36.1170   30.2760   40.6410 H   0  0  0  0  0  0  0  0  0  0  0  0
   35.7750   27.5190   41.8610 H   0  0  0  0  0  0  0  0  0  0  0  0
   37.7830   24.2600   42.1790 C   0  0  0  0  0  0  0  0  0  0  0  0
   37.0930   25.3130   41.5880 C   0  0  0  0  0  0  0  0  0  0  0  0
   37.7900   26.3220   40.8960 C   0  0  0  0  0  0  0  0  0  0  0  0
   39.1450   26.2130   40.8410 N   0  0  0  0  0  0  0  0  0  0  0  0
   39.7980   25.1790   41.4240 C   0  0  0  0  0  0  0  0  0  0  0  0
   39.1380   24.2100   42.0870 N   0  0  0  0  0  0  0  0  0  0  0  0
   37.1630   23.5480   42.6790 H   0  0  0  0  0  0  0  0  0  0  0  0
   36.0010   25.4270   41.6160 H   0  0  0  0  0  0  0  0  0  0  0  0
   40.8670   25.0810   41.3880 H   0  0  0  0  0  0  0  0  0  0  0  0
   37.3200   28.8960   42.2390 C   0  0  0  0  0  0  0  0  0  0  0  0
   38.1290   29.6070   42.0630 H   0  0  0  0  0  0  0  0  0  0  0  0
   37.3110   28.6730   43.4560 O   0  0  0  0  0  0  0  0  0  0  0  0
  1  7  1  6  0  0  0
  1 19  1  0  0  0  0
  1  6  1  0  0  0  0
  2  8  1  0  0  0  0
  2  1  1  0  0  0  0
  3  2  1  0  0  0  0
  3  4  1  0  0  0  0
  4 13  1  0  0  0  0
  4  5  1  0  0  0  0
  5  6  1  0  0  0  0
  5 14  1  0  0  0  0
  6 16  1  1  0  0  0
  6 26  1  0  0  0  0
  9  2  1  0  0  0  0
 10  3  1  0  0  0  0
 11  3  1  0  0  0  0
 12  4  1  0  0  0  0
 15  5  1  0  0  0  0
 17 23  1  0  0  0  0
 18 24  1  0  0  0  0
 18 17  2  0  0  0  0
 19 18  1  0  0  0  0
 20 19  2  0  0  0  0
 20 21  1  0  0  0  0
 21 22  2  0  0  0  0
 22 17  1  0  0  0  0
 25 21  1  0  0  0  0
 26 28  2  0  0  0  0
 27 26  1  0  0  0  0
M  END
>  <minimizedAffinity>
-3.96965861

$$$$
