
 OpenBabel03242514103D

 40 42  0  0  1  0  0  0  0  0999 V2000
   47.2990   34.0430   42.6590 C   0  0  0  0  0  0  0  0  0  0  0  0
   48.2250   35.0570   42.5270 C   0  0  0  0  0  0  0  0  0  0  0  0
   48.7320   35.4920   41.3060 C   0  0  0  0  0  0  0  0  0  0  0  0
   48.2160   34.8050   40.2000 C   0  0  0  0  0  0  0  0  0  0  0  0
   47.2720   33.7720   40.3390 C   0  0  0  0  0  0  0  0  0  0  0  0
   46.8270   33.4050   41.5540 N   0  0  0  0  0  0  0  0  0  0  0  0
   48.5650   35.5290   43.4460 H   0  0  0  0  0  0  0  0  0  0  0  0
   49.4440   36.2770   41.2590 H   0  0  0  0  0  0  0  0  0  0  0  0
   48.6450   35.1810   39.2820 H   0  0  0  0  0  0  0  0  0  0  0  0
   46.7670   33.1170   39.1360 C   0  0  1  0  0  0  0  0  0  0  0  0
   45.2300   33.4410   38.9360 C   0  0  0  0  0  0  0  0  0  0  0  0
   44.8000   32.3240   37.9450 C   0  0  0  0  0  0  0  0  0  0  0  0
   45.4000   32.7890   36.6080 C   0  0  0  0  0  0  0  0  0  0  0  0
   46.8820   32.8010   36.6740 C   0  0  0  0  0  0  0  0  0  0  0  0
   47.5050   33.2980   37.9230 C   0  0  2  0  0  0  0  0  0  0  0  0
   46.6840   32.0210   39.4060 H   0  0  0  0  0  0  0  0  0  0  0  0
   45.1280   34.3990   38.4200 H   0  0  0  0  0  0  0  0  0  0  0  0
   44.7150   33.3470   39.8900 H   0  0  0  0  0  0  0  0  0  0  0  0
   45.2040   31.3650   38.2680 H   0  0  0  0  0  0  0  0  0  0  0  0
   43.7060   32.3790   37.9090 H   0  0  0  0  0  0  0  0  0  0  0  0
   44.9170   33.7320   36.3350 H   0  0  0  0  0  0  0  0  0  0  0  0
   45.0470   32.0370   35.8730 H   0  0  0  0  0  0  0  0  0  0  0  0
   47.2050   31.7410   36.4500 H   0  0  0  0  0  0  0  0  0  0  0  0
   47.2640   33.3670   35.7970 H   0  0  0  0  0  0  0  0  0  0  0  0
   47.7240   34.3960   37.7470 H   0  0  0  0  0  0  0  0  0  0  0  0
   49.0710   32.3840   38.1060 S   0  0  0  0  0  0  0  0  0  0  0  0
   50.1760   33.1880   37.7940 H   0  0  0  0  0  0  0  0  0  0  0  0
   46.7670   32.3410   45.8450 C   0  0  0  0  0  0  0  0  0  0  0  0
   45.8010   33.0840   46.4740 C   0  0  0  0  0  0  0  0  0  0  0  0
   45.3310   34.1840   45.7840 C   0  0  0  0  0  0  0  0  0  0  0  0
   45.8490   34.4580   44.5440 N   0  0  0  0  0  0  0  0  0  0  0  0
   46.8230   33.6610   43.9740 C   0  0  0  0  0  0  0  0  0  0  0  0
   47.2630   32.6350   44.6130 N   0  0  0  0  0  0  0  0  0  0  0  0
   44.3500   35.0810   46.2350 N   0  0  0  0  0  0  0  0  0  0  0  0
   47.1380   31.4730   46.3860 H   0  0  0  0  0  0  0  0  0  0  0  0
   43.4780   35.2830   45.6960 H   0  0  0  0  0  0  0  0  0  0  0  0
   44.2940   35.6640   47.0970 H   0  0  0  0  0  0  0  0  0  0  0  0
   45.2450   32.8160   47.7700 C   0  0  0  0  0  0  0  0  0  0  0  0
   44.1890   32.8670   48.0080 H   0  0  0  0  0  0  0  0  0  0  0  0
   46.0340   32.5020   48.6950 O   0  0  0  0  0  0  0  0  0  0  0  0
  1 32  1  0  0  0  0
  2  1  1  0  0  0  0
  2  7  1  0  0  0  0
  3  2  2  0  0  0  0
  4  5  2  0  0  0  0
  4  3  1  0  0  0  0
  5  6  1  0  0  0  0
  6  1  2  0  0  0  0
  8  3  1  0  0  0  0
  9  4  1  0  0  0  0
 10 16  1  1  0  0  0
 10  5  1  0  0  0  0
 11 10  1  0  0  0  0
 11 18  1  0  0  0  0
 12 19  1  0  0  0  0
 12 11  1  0  0  0  0
 13 14  1  0  0  0  0
 13 12  1  0  0  0  0
 14 15  1  0  0  0  0
 15 25  1  6  0  0  0
 15 26  1  0  0  0  0
 15 10  1  0  0  0  0
 17 11  1  0  0  0  0
 20 12  1  0  0  0  0
 21 13  1  0  0  0  0
 22 13  1  0  0  0  0
 23 14  1  0  0  0  0
 24 14  1  0  0  0  0
 27 26  1  0  0  0  0
 28 35  1  0  0  0  0
 28 29  1  0  0  0  0
 29 38  1  0  0  0  0
 30 34  1  0  0  0  0
 30 29  2  0  0  0  0
 31 30  1  0  0  0  0
 32 31  2  0  0  0  0
 32 33  1  0  0  0  0
 33 28  2  0  0  0  0
 34 37  1  0  0  0  0
 36 34  1  0  0  0  0
 38 39  1  0  0  0  0
 38 40  2  0  0  0  0
M  END
>  <minimizedAffinity>
-6.11410141

>  <minimizedRMSD>
0.432324171

$$$$
