
 OpenBabel03252509333D

 34 35  0  0  1  0  0  0  0  0999 V2000
   44.7020   35.0790   45.3470 O   0  0  0  0  0  0  0  0  0  0  0  0
   45.5120   34.1120   44.5510 P   0  0  2  0  0  0  0  0  0  0  0  0
   44.5860   32.8750   43.8960 O   0  0  0  0  0  0  0  0  0  0  0  0
   44.8500   32.6440   42.9880 H   0  0  0  0  0  0  0  0  0  0  0  0
   46.6460   33.3550   45.5620 O   0  0  0  0  0  0  0  0  0  0  0  0
   46.3910   32.0180   45.5630 C   0  0  0  0  0  0  0  0  0  0  0  0
   45.7120   31.6090   44.8290 H   0  0  0  0  0  0  0  0  0  0  0  0
   47.3840   31.5200   45.3530 H   0  0  0  0  0  0  0  0  0  0  0  0
   45.7180   31.8910   49.2200 C   0  0  0  0  0  0  0  0  0  0  0  0
   46.1070   32.3730   47.9640 C   0  0  0  0  0  0  0  0  0  0  0  0
   45.9860   31.5220   46.8810 C   0  0  0  0  0  0  0  0  0  0  0  0
   45.4950   30.2610   47.0940 N   0  0  0  0  0  0  0  0  0  0  0  0
   45.1280   29.8270   48.3170 C   0  0  0  0  0  0  0  0  0  0  0  0
   45.2440   30.6500   49.3680 N   0  0  0  0  0  0  0  0  0  0  0  0
   45.8290   32.5840   50.0350 H   0  0  0  0  0  0  0  0  0  0  0  0
   46.4920   33.3730   47.8290 H   0  0  0  0  0  0  0  0  0  0  0  0
   44.7430   28.8340   48.4730 H   0  0  0  0  0  0  0  0  0  0  0  0
   46.3640   34.9500   43.3680 O   0  0  0  0  0  0  0  0  0  0  0  0
   46.6880   34.0800   42.3270 C   0  0  1  0  0  0  0  0  0  0  0  0
   45.9990   34.4100   41.0310 C   0  0  0  0  0  0  0  0  0  0  0  0
   46.7910   33.5600   40.0550 C   0  0  0  0  0  0  0  0  0  0  0  0
   48.1730   33.4090   40.6520 C   0  0  0  0  0  0  0  0  0  0  0  0
   48.1560   34.2590   41.9320 C   0  0  1  0  0  0  0  0  0  0  0  0
   46.5540   33.0180   42.5640 H   0  0  0  0  0  0  0  0  0  0  0  0
   46.0080   35.4720   40.7920 H   0  0  0  0  0  0  0  0  0  0  0  0
   44.9720   33.9820   41.0470 H   0  0  0  0  0  0  0  0  0  0  0  0
   46.2990   32.5900   39.8690 H   0  0  0  0  0  0  0  0  0  0  0  0
   46.9080   34.1320   39.1080 H   0  0  0  0  0  0  0  0  0  0  0  0
   48.2640   32.3540   40.9870 H   0  0  0  0  0  0  0  0  0  0  0  0
   48.9690   33.7180   39.9560 H   0  0  0  0  0  0  0  0  0  0  0  0
   48.7740   33.8190   42.7160 H   0  0  0  0  0  0  0  0  0  0  0  0
   48.5070   35.6610   41.6740 C   0  0  0  0  0  0  0  0  0  0  0  0
   48.2700   36.4470   42.3750 H   0  0  0  0  0  0  0  0  0  0  0  0
   49.0930   35.9360   40.6170 O   0  0  0  0  0  0  0  0  0  0  0  0
  2  1  2  1  0  0  0
  2  5  1  0  0  0  0
  3  2  1  0  0  0  0
  4  3  1  0  0  0  0
  5  6  1  0  0  0  0
  6 11  1  0  0  0  0
  7  6  1  0  0  0  0
  8  6  1  0  0  0  0
  9 14  1  0  0  0  0
  9 15  1  0  0  0  0
 10  9  2  0  0  0  0
 11 12  2  0  0  0  0
 11 10  1  0  0  0  0
 12 13  1  0  0  0  0
 13 17  1  0  0  0  0
 13 14  2  0  0  0  0
 16 10  1  0  0  0  0
 18  2  1  0  0  0  0
 19 24  1  1  0  0  0
 19 18  1  0  0  0  0
 20 26  1  0  0  0  0
 20 19  1  0  0  0  0
 21 22  1  0  0  0  0
 21 20  1  0  0  0  0
 22 29  1  0  0  0  0
 22 23  1  0  0  0  0
 23 19  1  0  0  0  0
 23 31  1  1  0  0  0
 25 20  1  0  0  0  0
 27 21  1  0  0  0  0
 28 21  1  0  0  0  0
 30 22  1  0  0  0  0
 32 23  1  0  0  0  0
 32 33  1  0  0  0  0
 34 32  2  0  0  0  0
M  END
>  <minimizedAffinity>
-4.88674545

>  <minimizedRMSD>
0.653963745

$$$$
