
 OpenBabel03252509333D

 34 35  0  0  1  0  0  0  0  0999 V2000
   44.6940   35.1750   45.1620 O   0  0  0  0  0  0  0  0  0  0  0  0
   45.5090   34.1490   44.4490 P   0  0  2  0  0  0  0  0  0  0  0  0
   44.5790   32.9020   43.8200 O   0  0  0  0  0  0  0  0  0  0  0  0
   44.8720   32.6190   42.9360 H   0  0  0  0  0  0  0  0  0  0  0  0
   46.5830   33.4180   45.5430 O   0  0  0  0  0  0  0  0  0  0  0  0
   46.3480   32.0770   45.5390 C   0  0  0  0  0  0  0  0  0  0  0  0
   45.6680   31.6620   44.8100 H   0  0  0  0  0  0  0  0  0  0  0  0
   47.3450   31.5950   45.3170 H   0  0  0  0  0  0  0  0  0  0  0  0
   45.7100   31.9230   49.2010 C   0  0  0  0  0  0  0  0  0  0  0  0
   46.0810   32.4170   47.9440 C   0  0  0  0  0  0  0  0  0  0  0  0
   45.9620   31.5690   46.8580 C   0  0  0  0  0  0  0  0  0  0  0  0
   45.4930   30.2990   47.0700 N   0  0  0  0  0  0  0  0  0  0  0  0
   45.1440   29.8540   48.2950 C   0  0  0  0  0  0  0  0  0  0  0  0
   45.2570   30.6740   49.3480 N   0  0  0  0  0  0  0  0  0  0  0  0
   45.8180   32.6140   50.0180 H   0  0  0  0  0  0  0  0  0  0  0  0
   46.4480   33.4240   47.8110 H   0  0  0  0  0  0  0  0  0  0  0  0
   44.7760   28.8550   48.4490 H   0  0  0  0  0  0  0  0  0  0  0  0
   46.4290   34.9040   43.2600 O   0  0  0  0  0  0  0  0  0  0  0  0
   46.6720   34.0050   42.2230 C   0  0  1  0  0  0  0  0  0  0  0  0
   45.9550   34.3530   40.9470 C   0  0  0  0  0  0  0  0  0  0  0  0
   46.6680   33.4510   39.9560 C   0  0  0  0  0  0  0  0  0  0  0  0
   48.0620   33.2390   40.5070 C   0  0  0  0  0  0  0  0  0  0  0  0
   48.1320   34.1060   41.7730 C   0  0  1  0  0  0  0  0  0  0  0  0
   46.4950   32.9540   42.4790 H   0  0  0  0  0  0  0  0  0  0  0  0
   46.0080   35.4090   40.6910 H   0  0  0  0  0  0  0  0  0  0  0  0
   44.9090   33.9770   41.0050 H   0  0  0  0  0  0  0  0  0  0  0  0
   46.1230   32.5040   39.8020 H   0  0  0  0  0  0  0  0  0  0  0  0
   46.7790   34.0040   38.9970 H   0  0  0  0  0  0  0  0  0  0  0  0
   48.1110   32.1850   40.8540 H   0  0  0  0  0  0  0  0  0  0  0  0
   48.8470   33.4990   39.7780 H   0  0  0  0  0  0  0  0  0  0  0  0
   48.7550   33.6450   42.5420 H   0  0  0  0  0  0  0  0  0  0  0  0
   48.5430   35.4850   41.4830 C   0  0  0  0  0  0  0  0  0  0  0  0
   47.9810   36.1200   40.8160 H   0  0  0  0  0  0  0  0  0  0  0  0
   49.5700   35.9200   42.0260 O   0  0  0  0  0  0  0  0  0  0  0  0
  2  1  2  1  0  0  0
  2  5  1  0  0  0  0
  3  2  1  0  0  0  0
  4  3  1  0  0  0  0
  6  5  1  0  0  0  0
  6 11  1  0  0  0  0
  7  6  1  0  0  0  0
  8  6  1  0  0  0  0
  9 14  1  0  0  0  0
  9 15  1  0  0  0  0
 10  9  2  0  0  0  0
 11 12  2  0  0  0  0
 11 10  1  0  0  0  0
 12 13  1  0  0  0  0
 13 17  1  0  0  0  0
 13 14  2  0  0  0  0
 16 10  1  0  0  0  0
 18  2  1  0  0  0  0
 19 24  1  1  0  0  0
 19 18  1  0  0  0  0
 20 26  1  0  0  0  0
 20 19  1  0  0  0  0
 21 22  1  0  0  0  0
 21 20  1  0  0  0  0
 22 29  1  0  0  0  0
 22 23  1  0  0  0  0
 23 19  1  0  0  0  0
 23 31  1  1  0  0  0
 25 20  1  0  0  0  0
 27 21  1  0  0  0  0
 28 21  1  0  0  0  0
 30 22  1  0  0  0  0
 32 23  1  0  0  0  0
 32 34  2  0  0  0  0
 33 32  1  0  0  0  0
M  END
>  <minimizedAffinity>
-4.9180584

>  <minimizedRMSD>
0.804435551

$$$$
