
 OpenBabel03242511113D

 38 41  0  0  1  0  0  0  0  0999 V2000
   47.6510   33.0150   42.0550 N   0  0  0  0  0  0  0  0  0  0  0  0
   47.5100   33.5460   41.1820 H   0  0  0  0  0  0  0  0  0  0  0  0
   47.1710   33.0430   43.3740 C   0  0  0  0  0  0  0  0  0  0  0  0
   47.4800   32.0500   44.2470 C   0  0  0  0  0  0  0  0  0  0  0  0
   46.9540   31.9810   45.5270 C   0  0  0  0  0  0  0  0  0  0  0  0
   46.0710   32.9410   45.9780 C   0  0  0  0  0  0  0  0  0  0  0  0
   45.7360   33.9690   45.1150 C   0  0  0  0  0  0  0  0  0  0  0  0
   44.8480   34.9470   45.5320 C   0  0  0  0  0  0  0  0  0  0  0  0
   44.4790   35.9850   44.7270 C   0  0  0  0  0  0  0  0  0  0  0  0
   45.0360   36.0230   43.4660 C   0  0  0  0  0  0  0  0  0  0  0  0
   45.9180   35.0420   43.0650 C   0  0  0  0  0  0  0  0  0  0  0  0
   46.2890   33.9970   43.8530 C   0  0  0  0  0  0  0  0  0  0  0  0
   48.1670   31.2720   43.9410 H   0  0  0  0  0  0  0  0  0  0  0  0
   47.2400   31.1640   46.1760 H   0  0  0  0  0  0  0  0  0  0  0  0
   45.6300   32.9370   46.9630 H   0  0  0  0  0  0  0  0  0  0  0  0
   44.4260   34.8950   46.5330 H   0  0  0  0  0  0  0  0  0  0  0  0
   43.7850   36.7170   45.0940 H   0  0  0  0  0  0  0  0  0  0  0  0
   44.7680   36.8330   42.8010 H   0  0  0  0  0  0  0  0  0  0  0  0
   46.4670   35.1240   41.8050 O   0  0  0  0  0  0  0  0  0  0  0  0
   45.8890   35.4930   41.0640 H   0  0  0  0  0  0  0  0  0  0  0  0
   49.6200   32.2620   40.6310 C   0  0  1  0  0  0  0  0  0  0  0  0
   48.4240   31.4610   40.2010 C   0  0  0  0  0  0  0  0  0  0  0  0
   48.6120   32.0300   41.6330 C   0  0  2  0  0  0  0  0  0  0  0  0
   49.7080   33.2540   40.2030 H   0  0  0  0  0  0  0  0  0  0  0  0
   48.5760   30.3650   40.0700 H   0  0  0  0  0  0  0  0  0  0  0  0
   47.6300   31.9290   39.6000 H   0  0  0  0  0  0  0  0  0  0  0  0
   48.8130   31.2540   42.4010 H   0  0  0  0  0  0  0  0  0  0  0  0
   53.0040   30.9030   39.8820 C   0  0  0  0  0  0  0  0  0  0  0  0
   53.2810   30.1650   41.0850 C   0  0  0  0  0  0  0  0  0  0  0  0
   52.2990   30.1640   42.1070 C   0  0  0  0  0  0  0  0  0  0  0  0
   51.1750   30.8400   41.9090 N   0  0  0  0  0  0  0  0  0  0  0  0
   50.9380   31.5280   40.7680 C   0  0  0  0  0  0  0  0  0  0  0  0
   51.8540   31.5680   39.7330 N   0  0  0  0  0  0  0  0  0  0  0  0
   53.7480   30.9060   39.1050 H   0  0  0  0  0  0  0  0  0  0  0  0
   54.2070   29.6270   41.2080 H   0  0  0  0  0  0  0  0  0  0  0  0
   52.5600   29.4240   43.3290 C   0  0  0  0  0  0  0  0  0  0  0  0
   52.7410   28.3690   43.2550 H   0  0  0  0  0  0  0  0  0  0  0  0
   52.5720   30.0120   44.4390 O   0  0  0  0  0  0  0  0  0  0  0  0
  1  3  1  0  0  0  0
  2  1  1  0  0  0  0
  3 12  2  0  0  0  0
  3  4  1  0  0  0  0
  4  5  2  0  0  0  0
  5  6  1  0  0  0  0
  5 14  1  0  0  0  0
  6 15  1  0  0  0  0
  7  8  1  0  0  0  0
  7  6  2  0  0  0  0
  8 16  1  0  0  0  0
  9 17  1  0  0  0  0
  9  8  2  0  0  0  0
 10  9  1  0  0  0  0
 11 10  2  0  0  0  0
 11 12  1  0  0  0  0
 12  7  1  0  0  0  0
 13  4  1  0  0  0  0
 18 10  1  0  0  0  0
 19 11  1  0  0  0  0
 20 19  1  0  0  0  0
 21 24  1  6  0  0  0
 21 32  1  0  0  0  0
 21 23  1  0  0  0  0
 22 21  1  0  0  0  0
 22 23  1  0  0  0  0
 23  1  1  0  0  0  0
 23 27  1  1  0  0  0
 25 22  1  0  0  0  0
 26 22  1  0  0  0  0
 28 29  1  0  0  0  0
 29 35  1  0  0  0  0
 29 30  2  0  0  0  0
 30 36  1  0  0  0  0
 31 30  1  0  0  0  0
 32 31  2  0  0  0  0
 33 28  2  0  0  0  0
 33 32  1  0  0  0  0
 34 28  1  0  0  0  0
 36 38  2  0  0  0  0
 37 36  1  0  0  0  0
M  END
>  <minimizedAffinity>
-4.97524691

>  <minimizedRMSD>
1.75599182

$$$$
