
 OpenBabel03242518343D

 29 31  0  0  1  0  0  0  0  0999 V2000
   47.2880   33.5970   39.7650 C   0  0  0  0  0  0  0  0  0  0  0  0
   48.2010   34.0430   38.8210 C   0  0  0  0  0  0  0  0  0  0  0  0
   47.6340   33.9320   37.5610 C   0  0  0  0  0  0  0  0  0  0  0  0
   46.3880   33.4180   37.8040 C   0  0  0  0  0  0  0  0  0  0  0  0
   46.1970   33.2250   39.0940 O   0  0  0  0  0  0  0  0  0  0  0  0
   49.1810   34.4030   39.1140 H   0  0  0  0  0  0  0  0  0  0  0  0
   48.1000   34.1990   36.6360 H   0  0  0  0  0  0  0  0  0  0  0  0
   45.3880   33.1210   36.7680 C   0  0  2  0  0  0  0  0  0  0  0  0
   44.6030   31.8720   36.8450 C   0  0  0  0  0  0  0  0  0  0  0  0
   45.7480   31.9100   35.8850 C   0  0  1  0  0  0  0  0  0  0  0  0
   44.9570   33.9920   36.2120 H   0  0  0  0  0  0  0  0  0  0  0  0
   43.5620   31.8110   36.4350 H   0  0  0  0  0  0  0  0  0  0  0  0
   44.7150   31.1810   37.7060 H   0  0  0  0  0  0  0  0  0  0  0  0
   46.6920   31.3930   36.0770 H   0  0  0  0  0  0  0  0  0  0  0  0
   45.4090   32.0960   34.4510 C   0  0  0  0  0  0  0  0  0  0  0  0
   45.6120   33.0060   33.8920 H   0  0  0  0  0  0  0  0  0  0  0  0
   44.8640   31.1550   33.8610 O   0  0  0  0  0  0  0  0  0  0  0  0
   47.3650   33.5030   41.1700 O   0  0  0  0  0  0  0  0  0  0  0  0
   47.4280   34.6890   41.9400 C   0  0  0  0  0  0  0  0  0  0  0  0
   48.2530   35.5550   41.5680 O   0  0  0  0  0  0  0  0  0  0  0  0
   46.5360   34.7490   43.0540 C   0  0  0  0  0  0  0  0  0  0  0  0
   45.6290   35.7740   43.0020 C   0  0  0  0  0  0  0  0  0  0  0  0
   44.7160   35.8970   44.0550 C   0  0  0  0  0  0  0  0  0  0  0  0
   44.7800   34.9930   45.0720 N   0  0  0  0  0  0  0  0  0  0  0  0
   45.6860   34.0150   45.0680 C   0  0  0  0  0  0  0  0  0  0  0  0
   46.5620   33.8840   44.0740 N   0  0  0  0  0  0  0  0  0  0  0  0
   45.5480   36.5050   42.2170 H   0  0  0  0  0  0  0  0  0  0  0  0
   43.9760   36.6940   44.0620 H   0  0  0  0  0  0  0  0  0  0  0  0
   45.7550   33.2780   45.8750 H   0  0  0  0  0  0  0  0  0  0  0  0
  1 18  1  0  0  0  0
  2  6  1  0  0  0  0
  2  1  2  0  0  0  0
  3  4  2  0  0  0  0
  3  2  1  0  0  0  0
  4  5  1  0  0  0  0
  5  1  1  0  0  0  0
  7  3  1  0  0  0  0
  8 11  1  6  0  0  0
  8  9  1  0  0  0  0
  8  4  1  0  0  0  0
  9 13  1  0  0  0  0
 10 14  1  1  0  0  0
 10  8  1  0  0  0  0
 10  9  1  0  0  0  0
 12  9  1  0  0  0  0
 15 10  1  0  0  0  0
 16 15  1  0  0  0  0
 17 15  2  0  0  0  0
 18 19  1  0  0  0  0
 19 21  1  0  0  0  0
 20 19  2  0  0  0  0
 21 26  1  0  0  0  0
 22 21  2  0  0  0  0
 22 23  1  0  0  0  0
 23 28  1  0  0  0  0
 23 24  2  0  0  0  0
 25 24  1  0  0  0  0
 25 29  1  0  0  0  0
 26 25  2  0  0  0  0
 27 22  1  0  0  0  0
M  END
>  <minimizedAffinity>
-4.4792366

>  <minimizedRMSD>
0.303349346

$$$$
