
 OpenBabel03252506043D

 37 40  0  0  0  0  0  0  0  0999 V2000
   44.7930   35.9810   43.2630 Cl  0  0  0  0  0  0  0  0  0  0  0  0
   45.5380   34.7410   44.2140 C   0  0  0  0  0  0  0  0  0  0  0  0
   46.6300   34.0480   43.7190 C   0  0  0  0  0  0  0  0  0  0  0  0
   47.1450   33.0830   44.5590 C   0  0  0  0  0  0  0  0  0  0  0  0
   46.6590   32.7750   45.8150 C   0  0  0  0  0  0  0  0  0  0  0  0
   45.5780   33.4900   46.2590 C   0  0  0  0  0  0  0  0  0  0  0  0
   44.9890   33.0690   47.8630 Cl  0  0  0  0  0  0  0  0  0  0  0  0
   45.0210   34.4580   45.4780 C   0  0  0  0  0  0  0  0  0  0  0  0
   48.0080   32.5410   44.1590 H   0  0  0  0  0  0  0  0  0  0  0  0
   44.1680   34.9960   45.8700 H   0  0  0  0  0  0  0  0  0  0  0  0
   47.3470   31.7200   46.5450 C   0  0  0  0  0  0  0  0  0  0  0  0
   47.4610   30.4250   46.0830 C   0  0  0  0  0  0  0  0  0  0  0  0
   48.1050   29.4090   46.7510 C   0  0  0  0  0  0  0  0  0  0  0  0
   48.6870   29.6850   47.9800 C   0  0  0  0  0  0  0  0  0  0  0  0
   49.3100   28.6850   48.6180 N   0  0  0  0  0  0  0  0  0  0  0  0
   49.9020   28.8530   49.8110 C   0  0  0  0  0  0  0  0  0  0  0  0
   49.8380   30.1390   50.3620 C   0  0  0  0  0  0  0  0  0  0  0  0
   49.2020   31.1480   49.7040 C   0  0  0  0  0  0  0  0  0  0  0  0
   48.5970   30.9570   48.4790 C   0  0  0  0  0  0  0  0  0  0  0  0
   47.9470   31.9530   47.7880 C   0  0  0  0  0  0  0  0  0  0  0  0
   47.0070   30.1990   45.1180 H   0  0  0  0  0  0  0  0  0  0  0  0
   48.1610   28.4040   46.3300 H   0  0  0  0  0  0  0  0  0  0  0  0
   50.3960   28.0440   50.3090 H   0  0  0  0  0  0  0  0  0  0  0  0
   50.3210   30.2590   51.3250 H   0  0  0  0  0  0  0  0  0  0  0  0
   49.1620   32.1400   50.1500 H   0  0  0  0  0  0  0  0  0  0  0  0
   47.9010   32.9410   48.2160 H   0  0  0  0  0  0  0  0  0  0  0  0
   48.7610   35.4510   41.1220 C   0  0  0  0  0  0  0  0  0  0  0  0
   48.2890   34.8440   39.9540 C   0  0  0  0  0  0  0  0  0  0  0  0
   47.2180   33.9330   40.0600 C   0  0  0  0  0  0  0  0  0  0  0  0
   46.7300   33.7210   41.3040 N   0  0  0  0  0  0  0  0  0  0  0  0
   47.1950   34.3140   42.4110 C   0  0  0  0  0  0  0  0  0  0  0  0
   48.2220   35.1900   42.3290 N   0  0  0  0  0  0  0  0  0  0  0  0
   49.5900   36.1540   41.0240 H   0  0  0  0  0  0  0  0  0  0  0  0
   48.7450   35.0780   39.0130 H   0  0  0  0  0  0  0  0  0  0  0  0
   46.6980   33.2800   38.8780 C   0  0  0  0  0  0  0  0  0  0  0  0
   45.9260   32.5380   39.0330 H   0  0  0  0  0  0  0  0  0  0  0  0
   47.1500   33.5930   37.7460 O   0  0  0  0  0  0  0  0  0  0  0  0
  1  2  1  0  0  0  0
  2  8  1  0  0  0  0
  3  2  2  0  0  0  0
  3  4  1  0  0  0  0
  4  5  2  0  0  0  0
  5  6  1  0  0  0  0
  5 11  1  0  0  0  0
  6  7  1  0  0  0  0
  8 10  1  0  0  0  0
  8  6  2  0  0  0  0
  9  4  1  0  0  0  0
 11 20  1  0  0  0  0
 12 11  2  0  0  0  0
 12 13  1  0  0  0  0
 13 14  2  0  0  0  0
 14 19  1  0  0  0  0
 14 15  1  0  0  0  0
 15 16  2  0  0  0  0
 16 23  1  0  0  0  0
 16 17  1  0  0  0  0
 17 24  1  0  0  0  0
 18 25  1  0  0  0  0
 18 17  2  0  0  0  0
 19 18  1  0  0  0  0
 20 26  1  0  0  0  0
 20 19  2  0  0  0  0
 21 12  1  0  0  0  0
 22 13  1  0  0  0  0
 27 32  1  0  0  0  0
 28 29  1  0  0  0  0
 28 27  2  0  0  0  0
 29 30  2  0  0  0  0
 30 31  1  0  0  0  0
 31  3  1  0  0  0  0
 32 31  2  0  0  0  0
 33 27  1  0  0  0  0
 34 28  1  0  0  0  0
 35 36  1  0  0  0  0
 35 29  1  0  0  0  0
 37 35  2  0  0  0  0
M  END
>  <minimizedAffinity>
-6.62018585

>  <minimizedRMSD>
0.0362739563

$$$$
