
 OpenBabel03252509233D

 21 22  0  0  1  0  0  0  0  0999 V2000
   44.6400   35.4310   45.1440 C   0  0  0  0  0  0  0  0  0  0  0  0
   45.1050   35.7090   43.8330 C   0  0  0  0  0  0  0  0  0  0  0  0
   46.0550   34.8370   43.3640 C   0  0  0  0  0  0  0  0  0  0  0  0
   46.5040   33.7800   44.1400 N   0  0  0  0  0  0  0  0  0  0  0  0
   46.0300   33.5620   45.3730 C   0  0  0  0  0  0  0  0  0  0  0  0
   45.0860   34.3990   45.8810 N   0  0  0  0  0  0  0  0  0  0  0  0
   43.8920   36.0880   45.5570 H   0  0  0  0  0  0  0  0  0  0  0  0
   46.4970   32.6980   45.8140 H   0  0  0  0  0  0  0  0  0  0  0  0
   46.5600   35.0190   41.9520 C   0  0  1  0  0  0  0  0  0  0  0  0
   48.0880   35.3050   41.9600 C   0  0  0  0  0  0  0  0  0  0  0  0
   47.4060   34.0220   41.3990 C   0  0  2  0  0  0  0  0  0  0  0  0
   45.9980   35.7690   41.3700 H   0  0  0  0  0  0  0  0  0  0  0  0
   48.4770   35.9620   41.1770 H   0  0  0  0  0  0  0  0  0  0  0  0
   48.6490   35.2050   42.8820 H   0  0  0  0  0  0  0  0  0  0  0  0
   47.7440   33.1010   41.9030 H   0  0  0  0  0  0  0  0  0  0  0  0
   47.3960   33.8810   39.8960 C   0  0  0  0  0  0  0  0  0  0  0  0
   48.2460   34.1720   39.2590 H   0  0  0  0  0  0  0  0  0  0  0  0
   46.4180   33.4240   39.2950 O   0  0  0  0  0  0  0  0  0  0  0  0
   44.6450   36.8170   43.0610 N   0  0  0  0  0  0  0  0  0  0  0  0
   43.6420   36.7940   42.7370 H   0  0  0  0  0  0  0  0  0  0  0  0
   45.1320   37.6830   42.7400 H   0  0  0  0  0  0  0  0  0  0  0  0
  1  7  1  0  0  0  0
  1  6  1  0  0  0  0
  2  1  2  0  0  0  0
  3  2  1  0  0  0  0
  3  4  2  0  0  0  0
  4  5  1  0  0  0  0
  5  8  1  0  0  0  0
  5  6  2  0  0  0  0
  9 12  1  6  0  0  0
  9 10  1  0  0  0  0
  9  3  1  0  0  0  0
 10 14  1  0  0  0  0
 11 15  1  1  0  0  0
 11  9  1  0  0  0  0
 11 10  1  0  0  0  0
 13 10  1  0  0  0  0
 16 11  1  0  0  0  0
 17 16  1  0  0  0  0
 18 16  2  0  0  0  0
 19  2  1  0  0  0  0
 20 19  1  0  0  0  0
 21 19  1  0  0  0  0
M  END
>  <minimizedAffinity>
-4.16491175

>  <minimizedRMSD>
0.293799698

$$$$
