
 OpenBabel03252507113D

 18 18  0  0  0  0  0  0  0  0999 V2000
   45.8100   34.7000   44.1870 C   0  0  0  0  0  0  0  0  0  0  0  0
   46.9120   34.1470   43.5600 C   0  0  0  0  0  0  0  0  0  0  0  0
   47.4900   33.0020   44.1720 C   0  0  0  0  0  0  0  0  0  0  0  0
   46.9690   32.5080   45.3100 N   0  0  0  0  0  0  0  0  0  0  0  0
   45.8920   33.0870   45.8960 C   0  0  0  0  0  0  0  0  0  0  0  0
   45.3030   34.1880   45.3400 N   0  0  0  0  0  0  0  0  0  0  0  0
   48.3320   32.6420   43.6140 H   0  0  0  0  0  0  0  0  0  0  0  0
   45.6520   32.5270   46.7970 H   0  0  0  0  0  0  0  0  0  0  0  0
   44.8660   35.7670   43.8820 C   0  0  0  0  0  0  0  0  0  0  0  0
   44.5800   36.1520   42.9170 H   0  0  0  0  0  0  0  0  0  0  0  0
   44.5380   36.0430   45.0990 O   0  0  0  0  0  0  0  0  0  0  0  0
   47.3000   34.7990   42.4220 O   0  0  0  0  0  0  0  0  0  0  0  0
   49.3130   33.4800   41.3180 O   0  0  0  0  0  0  0  0  0  0  0  0
   48.9310   34.8080   41.8970 P   0  0  0  0  0  0  0  0  0  0  0  0
   49.1390   35.9830   40.6880 O   0  0  0  0  0  0  0  0  0  0  0  0
   48.8400   35.5830   39.8240 H   0  0  0  0  0  0  0  0  0  0  0  0
   50.0050   35.2010   43.1380 O   0  0  0  0  0  0  0  0  0  0  0  0
   50.1100   34.4460   43.7770 H   0  0  0  0  0  0  0  0  0  0  0  0
  1  6  1  0  0  0  0
  2  3  1  0  0  0  0
  2  1  2  0  0  0  0
  3  4  2  0  0  0  0
  4  5  1  0  0  0  0
  5  8  1  0  0  0  0
  6  5  2  0  0  0  0
  7  3  1  0  0  0  0
  9  1  1  0  0  0  0
  9 11  1  0  0  0  0
 10  9  1  0  0  0  0
 12  2  1  0  0  0  0
 13 14  2  0  0  0  0
 14 12  1  0  0  0  0
 14 17  1  0  0  0  0
 15 14  1  0  0  0  0
 16 15  1  0  0  0  0
 17 18  1  0  0  0  0
M  END
>  <minimizedAffinity>
-4.71656036

>  <minimizedRMSD>
2.31489992

$$$$
