
 OpenBabel03252501563D

 15 15  0  0  0  0  0  0  0  0999 V2000
   36.4820   27.9450   41.9960 C   0  0  0  0  0  0  0  0  0  0  0  0
   36.2220   29.0790   41.2350 C   0  0  0  0  0  0  0  0  0  0  0  0
   37.0600   30.1760   41.3750 C   0  0  0  0  0  0  0  0  0  0  0  0
   38.1000   30.0910   42.2570 N   0  0  0  0  0  0  0  0  0  0  0  0
   38.3120   28.9720   42.9740 C   0  0  0  0  0  0  0  0  0  0  0  0
   37.5140   27.8920   42.8550 N   0  0  0  0  0  0  0  0  0  0  0  0
   35.8500   27.0720   41.9110 H   0  0  0  0  0  0  0  0  0  0  0  0
   39.1910   29.0810   43.6300 H   0  0  0  0  0  0  0  0  0  0  0  0
   35.0750   29.0740   40.3100 C   0  0  0  0  0  0  0  0  0  0  0  0
   35.3560   29.3000   39.2650 H   0  0  0  0  0  0  0  0  0  0  0  0
   34.5830   28.1090   40.3100 H   0  0  0  0  0  0  0  0  0  0  0  0
   34.4090   29.9180   40.6360 H   0  0  0  0  0  0  0  0  0  0  0  0
   36.8240   31.3660   40.6060 C   0  0  0  0  0  0  0  0  0  0  0  0
   35.9520   31.4500   39.9690 H   0  0  0  0  0  0  0  0  0  0  0  0
   37.5730   32.3870   40.5960 O   0  0  0  0  0  0  0  0  0  0  0  0
  1  6  1  0  0  0  0
  2  3  1  0  0  0  0
  2  1  2  0  0  0  0
  3  4  2  0  0  0  0
  4  5  1  0  0  0  0
  5  8  1  0  0  0  0
  6  5  2  0  0  0  0
  7  1  1  0  0  0  0
  9 11  1  0  0  0  0
  9 12  1  0  0  0  0
  9  2  1  0  0  0  0
 10  9  1  0  0  0  0
 13  3  1  0  0  0  0
 14 13  1  0  0  0  0
 15 13  2  0  0  0  0
M  END
>  <minimizedAffinity>
-3.07649183

$$$$

 OpenBabel03252501563D

 15 15  0  0  0  0  0  0  0  0999 V2000
   38.9550   28.1280   43.2320 C   0  0  0  0  0  0  0  0  0  0  0  0
   38.5140   29.2890   42.6080 C   0  0  0  0  0  0  0  0  0  0  0  0
   37.2520   29.2920   42.0310 C   0  0  0  0  0  0  0  0  0  0  0  0
   36.5030   28.1510   42.1020 N   0  0  0  0  0  0  0  0  0  0  0  0
   36.9730   27.0500   42.7160 C   0  0  0  0  0  0  0  0  0  0  0  0
   38.1940   27.0210   43.2850 N   0  0  0  0  0  0  0  0  0  0  0  0
   39.9320   28.0920   43.6930 H   0  0  0  0  0  0  0  0  0  0  0  0
   36.2370   26.2290   42.6780 H   0  0  0  0  0  0  0  0  0  0  0  0
   39.3950   30.4700   42.5840 C   0  0  0  0  0  0  0  0  0  0  0  0
   38.9300   31.3710   43.0230 H   0  0  0  0  0  0  0  0  0  0  0  0
   40.3100   30.2800   43.1330 H   0  0  0  0  0  0  0  0  0  0  0  0
   39.5640   30.7100   41.5000 H   0  0  0  0  0  0  0  0  0  0  0  0
   36.7610   30.4720   41.3760 C   0  0  0  0  0  0  0  0  0  0  0  0
   37.2270   31.4340   41.5480 H   0  0  0  0  0  0  0  0  0  0  0  0
   35.7830   30.5060   40.5720 O   0  0  0  0  0  0  0  0  0  0  0  0
  1  6  1  0  0  0  0
  1  7  1  0  0  0  0
  2  1  2  0  0  0  0
  3  4  2  0  0  0  0
  3  2  1  0  0  0  0
  4  5  1  0  0  0  0
  5  6  2  0  0  0  0
  8  5  1  0  0  0  0
  9  2  1  0  0  0  0
  9 10  1  0  0  0  0
  9 11  1  0  0  0  0
 12  9  1  0  0  0  0
 13 14  1  0  0  0  0
 13  3  1  0  0  0  0
 15 13  2  0  0  0  0
M  END
>  <minimizedAffinity>
-3.022439

$$$$

 OpenBabel03252501563D

 15 15  0  0  0  0  0  0  0  0999 V2000
   36.7300   27.7250   42.2780 C   0  0  0  0  0  0  0  0  0  0  0  0
   37.5140   26.5950   42.4800 C   0  0  0  0  0  0  0  0  0  0  0  0
   38.8050   26.7620   42.9590 C   0  0  0  0  0  0  0  0  0  0  0  0
   39.2460   28.0310   43.2080 N   0  0  0  0  0  0  0  0  0  0  0  0
   38.4520   29.0960   42.9960 C   0  0  0  0  0  0  0  0  0  0  0  0
   37.1930   28.9610   42.5320 N   0  0  0  0  0  0  0  0  0  0  0  0
   35.7190   27.6310   41.9060 H   0  0  0  0  0  0  0  0  0  0  0  0
   38.9690   30.0350   43.2500 H   0  0  0  0  0  0  0  0  0  0  0  0
   36.9470   25.2670   42.1820 C   0  0  0  0  0  0  0  0  0  0  0  0
   36.9770   24.5760   43.0440 H   0  0  0  0  0  0  0  0  0  0  0  0
   35.9130   25.3500   41.8710 H   0  0  0  0  0  0  0  0  0  0  0  0
   37.6160   24.8120   41.4030 H   0  0  0  0  0  0  0  0  0  0  0  0
   39.6450   25.6180   43.1810 C   0  0  0  0  0  0  0  0  0  0  0  0
   39.3070   24.6240   42.9180 H   0  0  0  0  0  0  0  0  0  0  0  0
   40.8090   25.6550   43.6800 O   0  0  0  0  0  0  0  0  0  0  0  0
  1  2  2  0  0  0  0
  1  6  1  0  0  0  0
  2  3  1  0  0  0  0
  3 13  1  0  0  0  0
  3  4  2  0  0  0  0
  5  4  1  0  0  0  0
  5  8  1  0  0  0  0
  6  5  2  0  0  0  0
  7  1  1  0  0  0  0
  9  2  1  0  0  0  0
  9 10  1  0  0  0  0
 11  9  1  0  0  0  0
 12  9  1  0  0  0  0
 13 15  2  0  0  0  0
 14 13  1  0  0  0  0
M  END
>  <minimizedAffinity>
-2.98968315

$$$$

 OpenBabel03252501563D

 15 15  0  0  0  0  0  0  0  0999 V2000
   38.3830   29.0000   42.8750 C   0  0  0  0  0  0  0  0  0  0  0  0
   38.4680   27.6130   42.8990 C   0  0  0  0  0  0  0  0  0  0  0  0
   37.5350   26.8810   42.1800 C   0  0  0  0  0  0  0  0  0  0  0  0
   36.5730   27.5590   41.4840 N   0  0  0  0  0  0  0  0  0  0  0  0
   36.5300   28.9030   41.4910 C   0  0  0  0  0  0  0  0  0  0  0  0
   37.4260   29.6390   42.1800 N   0  0  0  0  0  0  0  0  0  0  0  0
   39.0950   29.6020   43.4230 H   0  0  0  0  0  0  0  0  0  0  0  0
   35.6940   29.2770   40.8780 H   0  0  0  0  0  0  0  0  0  0  0  0
   39.5420   26.9740   43.6800 C   0  0  0  0  0  0  0  0  0  0  0  0
   40.1760   26.2970   43.0780 H   0  0  0  0  0  0  0  0  0  0  0  0
   40.1940   27.7180   44.1210 H   0  0  0  0  0  0  0  0  0  0  0  0
   39.0300   26.3200   44.4350 H   0  0  0  0  0  0  0  0  0  0  0  0
   37.5890   25.4450   42.1800 C   0  0  0  0  0  0  0  0  0  0  0  0
   38.5400   24.9280   42.1910 H   0  0  0  0  0  0  0  0  0  0  0  0
   36.5810   24.6780   42.1680 O   0  0  0  0  0  0  0  0  0  0  0  0
  1  2  1  0  0  0  0
  1  7  1  0  0  0  0
  2  9  1  0  0  0  0
  3 13  1  0  0  0  0
  3  2  2  0  0  0  0
  4  5  2  0  0  0  0
  4  3  1  0  0  0  0
  5  6  1  0  0  0  0
  6  1  2  0  0  0  0
  8  5  1  0  0  0  0
  9 11  1  0  0  0  0
  9 12  1  0  0  0  0
 10  9  1  0  0  0  0
 13 14  1  0  0  0  0
 15 13  2  0  0  0  0
M  END
>  <minimizedAffinity>
-2.98263478

$$$$

 OpenBabel03252501563D

 15 15  0  0  0  0  0  0  0  0999 V2000
   35.6260   28.6390   40.9560 C   0  0  0  0  0  0  0  0  0  0  0  0
   36.6710   28.5250   41.8660 C   0  0  0  0  0  0  0  0  0  0  0  0
   37.5250   29.6060   42.0320 C   0  0  0  0  0  0  0  0  0  0  0  0
   37.2980   30.7320   41.2900 N   0  0  0  0  0  0  0  0  0  0  0  0
   36.2730   30.7960   40.4210 C   0  0  0  0  0  0  0  0  0  0  0  0
   35.4290   29.7600   40.2420 N   0  0  0  0  0  0  0  0  0  0  0  0
   34.9410   27.8160   40.8030 H   0  0  0  0  0  0  0  0  0  0  0  0
   36.2420   31.7740   39.9140 H   0  0  0  0  0  0  0  0  0  0  0  0
   36.8330   27.2690   42.6190 C   0  0  0  0  0  0  0  0  0  0  0  0
   36.8310   27.4120   43.7140 H   0  0  0  0  0  0  0  0  0  0  0  0
   36.0360   26.5730   42.3840 H   0  0  0  0  0  0  0  0  0  0  0  0
   37.8560   26.8830   42.3630 H   0  0  0  0  0  0  0  0  0  0  0  0
   38.6160   29.5270   42.9620 C   0  0  0  0  0  0  0  0  0  0  0  0
   38.4720   29.1080   43.9490 H   0  0  0  0  0  0  0  0  0  0  0  0
   39.7990   29.9190   42.7320 O   0  0  0  0  0  0  0  0  0  0  0  0
  1  2  1  0  0  0  0
  2  3  2  0  0  0  0
  2  9  1  0  0  0  0
  3 13  1  0  0  0  0
  4  3  1  0  0  0  0
  5  4  2  0  0  0  0
  6  5  1  0  0  0  0
  6  1  2  0  0  0  0
  7  1  1  0  0  0  0
  8  5  1  0  0  0  0
  9 10  1  0  0  0  0
 11  9  1  0  0  0  0
 12  9  1  0  0  0  0
 13 14  1  0  0  0  0
 15 13  2  0  0  0  0
M  END
>  <minimizedAffinity>
-2.97751474

$$$$

 OpenBabel03252501563D

 15 15  0  0  0  0  0  0  0  0999 V2000
   39.2510   24.6880   42.6660 C   0  0  0  0  0  0  0  0  0  0  0  0
   38.0570   25.3720   42.4690 C   0  0  0  0  0  0  0  0  0  0  0  0
   37.9670   26.6860   42.9040 C   0  0  0  0  0  0  0  0  0  0  0  0
   39.0580   27.2460   43.5090 N   0  0  0  0  0  0  0  0  0  0  0  0
   40.1940   26.5440   43.6780 C   0  0  0  0  0  0  0  0  0  0  0  0
   40.3070   25.2670   43.2630 N   0  0  0  0  0  0  0  0  0  0  0  0
   39.3560   23.6630   42.3380 H   0  0  0  0  0  0  0  0  0  0  0  0
   40.9640   27.1520   44.1800 H   0  0  0  0  0  0  0  0  0  0  0  0
   36.9370   24.6810   41.8060 C   0  0  0  0  0  0  0  0  0  0  0  0
   36.5680   25.2090   40.9080 H   0  0  0  0  0  0  0  0  0  0  0  0
   37.2260   23.6840   41.4970 H   0  0  0  0  0  0  0  0  0  0  0  0
   36.0860   24.6950   42.5390 H   0  0  0  0  0  0  0  0  0  0  0  0
   36.7500   27.4260   42.7190 C   0  0  0  0  0  0  0  0  0  0  0  0
   35.9540   27.3710   43.4500 H   0  0  0  0  0  0  0  0  0  0  0  0
   36.4990   28.1790   41.7320 O   0  0  0  0  0  0  0  0  0  0  0  0
  1  6  1  0  0  0  0
  2  1  2  0  0  0  0
  2  3  1  0  0  0  0
  3  4  2  0  0  0  0
  4  5  1  0  0  0  0
  5  8  1  0  0  0  0
  6  5  2  0  0  0  0
  7  1  1  0  0  0  0
  9  2  1  0  0  0  0
  9 12  1  0  0  0  0
 10  9  1  0  0  0  0
 11  9  1  0  0  0  0
 13  3  1  0  0  0  0
 13 14  1  0  0  0  0
 15 13  2  0  0  0  0
M  END
>  <minimizedAffinity>
-2.92688107

$$$$

 OpenBabel03252501563D

 15 15  0  0  0  0  0  0  0  0999 V2000
   37.5430   30.5120   40.9720 C   0  0  0  0  0  0  0  0  0  0  0  0
   36.8340   29.4130   41.4450 C   0  0  0  0  0  0  0  0  0  0  0  0
   37.3410   28.7170   42.5320 C   0  0  0  0  0  0  0  0  0  0  0  0
   38.5150   29.1440   43.0860 N   0  0  0  0  0  0  0  0  0  0  0  0
   39.1670   30.2130   42.5940 C   0  0  0  0  0  0  0  0  0  0  0  0
   38.6950   30.9070   41.5390 N   0  0  0  0  0  0  0  0  0  0  0  0
   37.1760   31.0780   40.1270 H   0  0  0  0  0  0  0  0  0  0  0  0
   40.0900   30.4120   43.1620 H   0  0  0  0  0  0  0  0  0  0  0  0
   35.5760   29.0310   40.7790 C   0  0  0  0  0  0  0  0  0  0  0  0
   34.7120   28.9950   41.4670 H   0  0  0  0  0  0  0  0  0  0  0  0
   35.3290   29.7310   39.9900 H   0  0  0  0  0  0  0  0  0  0  0  0
   35.7230   27.9790   40.4170 H   0  0  0  0  0  0  0  0  0  0  0  0
   36.6380   27.5760   43.0500 C   0  0  0  0  0  0  0  0  0  0  0  0
   35.8280   27.7010   43.7570 H   0  0  0  0  0  0  0  0  0  0  0  0
   36.8810   26.3710   42.7460 O   0  0  0  0  0  0  0  0  0  0  0  0
  1  2  2  0  0  0  0
  1  6  1  0  0  0  0
  2  3  1  0  0  0  0
  3 13  1  0  0  0  0
  3  4  2  0  0  0  0
  5  4  1  0  0  0  0
  5  8  1  0  0  0  0
  6  5  2  0  0  0  0
  7  1  1  0  0  0  0
  9  2  1  0  0  0  0
  9 10  1  0  0  0  0
 11  9  1  0  0  0  0
 12  9  1  0  0  0  0
 13 14  1  0  0  0  0
 15 13  2  0  0  0  0
M  END
>  <minimizedAffinity>
-2.91004419

$$$$

 OpenBabel03252501563D

 15 15  0  0  0  0  0  0  0  0999 V2000
   37.5940   31.8620   37.6510 C   0  0  0  0  0  0  0  0  0  0  0  0
   37.2500   31.9260   38.9960 C   0  0  0  0  0  0  0  0  0  0  0  0
   36.6690   30.8120   39.5840 C   0  0  0  0  0  0  0  0  0  0  0  0
   36.4610   29.7040   38.8100 N   0  0  0  0  0  0  0  0  0  0  0  0
   36.8100   29.6890   37.5110 C   0  0  0  0  0  0  0  0  0  0  0  0
   37.3770   30.7580   36.9160 N   0  0  0  0  0  0  0  0  0  0  0  0
   38.0500   32.7120   37.1610 H   0  0  0  0  0  0  0  0  0  0  0  0
   36.5710   28.7190   37.0470 H   0  0  0  0  0  0  0  0  0  0  0  0
   37.5150   33.1670   39.7460 C   0  0  0  0  0  0  0  0  0  0  0  0
   38.1430   33.0100   40.6410 H   0  0  0  0  0  0  0  0  0  0  0  0
   38.0200   33.8950   39.1220 H   0  0  0  0  0  0  0  0  0  0  0  0
   36.5190   33.5170   40.1290 H   0  0  0  0  0  0  0  0  0  0  0  0
   36.2980   30.8390   40.9710 C   0  0  0  0  0  0  0  0  0  0  0  0
   35.5710   31.5530   41.3350 H   0  0  0  0  0  0  0  0  0  0  0  0
   36.7610   30.0680   41.8630 O   0  0  0  0  0  0  0  0  0  0  0  0
  1  2  1  0  0  0  0
  2  3  2  0  0  0  0
  2  9  1  0  0  0  0
  3 13  1  0  0  0  0
  4  3  1  0  0  0  0
  5  4  2  0  0  0  0
  6  5  1  0  0  0  0
  6  1  2  0  0  0  0
  7  1  1  0  0  0  0
  8  5  1  0  0  0  0
  9 12  1  0  0  0  0
  9 10  1  0  0  0  0
 11  9  1  0  0  0  0
 13 14  1  0  0  0  0
 13 15  2  0  0  0  0
M  END
>  <minimizedAffinity>
-2.89242411

$$$$

 OpenBabel03252501563D

 15 15  0  0  0  0  0  0  0  0999 V2000
   36.2510   29.8010   38.3920 C   0  0  0  0  0  0  0  0  0  0  0  0
   36.9200   30.9970   38.6250 C   0  0  0  0  0  0  0  0  0  0  0  0
   36.8850   31.5370   39.9030 C   0  0  0  0  0  0  0  0  0  0  0  0
   36.1920   30.8670   40.8720 N   0  0  0  0  0  0  0  0  0  0  0  0
   35.5580   29.7120   40.5990 C   0  0  0  0  0  0  0  0  0  0  0  0
   35.5770   29.1660   39.3660 N   0  0  0  0  0  0  0  0  0  0  0  0
   36.2580   29.3530   37.4080 H   0  0  0  0  0  0  0  0  0  0  0  0
   35.0540   29.3140   41.4950 H   0  0  0  0  0  0  0  0  0  0  0  0
   37.6410   31.6440   37.5140 C   0  0  0  0  0  0  0  0  0  0  0  0
   38.7100   31.8210   37.7320 H   0  0  0  0  0  0  0  0  0  0  0  0
   37.5910   31.0380   36.6170 H   0  0  0  0  0  0  0  0  0  0  0  0
   37.1810   32.6610   37.3960 H   0  0  0  0  0  0  0  0  0  0  0  0
   37.5650   32.7710   40.1840 C   0  0  0  0  0  0  0  0  0  0  0  0
   37.2220   33.7010   39.7500 H   0  0  0  0  0  0  0  0  0  0  0  0
   38.5810   32.8890   40.9300 O   0  0  0  0  0  0  0  0  0  0  0  0
  1  2  2  0  0  0  0
  1  6  1  0  0  0  0
  2  3  1  0  0  0  0
  3 13  1  0  0  0  0
  3  4  2  0  0  0  0
  5  4  1  0  0  0  0
  5  8  1  0  0  0  0
  6  5  2  0  0  0  0
  7  1  1  0  0  0  0
  9 10  1  0  0  0  0
  9  2  1  0  0  0  0
 11  9  1  0  0  0  0
 12  9  1  0  0  0  0
 13 15  2  0  0  0  0
 14 13  1  0  0  0  0
M  END
>  <minimizedAffinity>
-2.88381314

$$$$
