
 OpenBabel03252504073D

 13 13  0  0  0  0  0  0  0  0999 V2000
   45.0230   35.8360   43.8040 C   0  0  0  0  0  0  0  0  0  0  0  0
   45.9590   34.8820   43.3750 C   0  0  0  0  0  0  0  0  0  0  0  0
   46.2950   33.8490   44.2610 C   0  0  0  0  0  0  0  0  0  0  0  0
   45.7060   33.8230   45.4740 N   0  0  0  0  0  0  0  0  0  0  0  0
   44.8040   34.7620   45.8630 C   0  0  0  0  0  0  0  0  0  0  0  0
   44.4760   35.7540   45.0210 N   0  0  0  0  0  0  0  0  0  0  0  0
   47.0150   33.1200   43.9220 H   0  0  0  0  0  0  0  0  0  0  0  0
   44.3970   34.6400   46.8590 H   0  0  0  0  0  0  0  0  0  0  0  0
   46.5430   34.9720   42.0720 C   0  0  0  0  0  0  0  0  0  0  0  0
   45.9450   34.7060   41.2100 H   0  0  0  0  0  0  0  0  0  0  0  0
   47.7310   35.3570   41.9710 O   0  0  0  0  0  0  0  0  0  0  0  0
   44.6970   36.8380   42.9450 O   0  0  0  0  0  0  0  0  0  0  0  0
   44.7520   37.8380   43.1420 H   0  0  0  0  0  0  0  0  0  0  0  0
  1  6  1  0  0  0  0
  2  1  2  0  0  0  0
  2  3  1  0  0  0  0
  3  4  2  0  0  0  0
  4  5  1  0  0  0  0
  5  8  1  0  0  0  0
  6  5  2  0  0  0  0
  7  3  1  0  0  0  0
  9  2  1  0  0  0  0
 10  9  1  0  0  0  0
 11  9  2  0  0  0  0
 12 13  1  0  0  0  0
 12  1  1  0  0  0  0
M  END
>  <minimizedAffinity>
-3.51124024

>  <minimizedRMSD>
0.787769794

$$$$
