
 OpenBabel03252502003D

 28 30  0  0  0  0  0  0  0  0999 V2000
   45.8290   33.8230   45.3870 C   0  0  0  0  0  0  0  0  0  0  0  0
   44.8740   34.7700   45.5460 N   0  0  0  0  0  0  0  0  0  0  0  0
   44.5660   35.7080   44.6630 C   0  0  0  0  0  0  0  0  0  0  0  0
   45.2330   35.7690   43.4860 N   0  0  0  0  0  0  0  0  0  0  0  0
   46.2080   34.8780   43.2110 C   0  0  0  0  0  0  0  0  0  0  0  0
   46.8900   34.9380   42.0110 C   0  0  0  0  0  0  0  0  0  0  0  0
   47.8810   34.0390   41.7190 C   0  0  0  0  0  0  0  0  0  0  0  0
   48.1650   33.0860   42.6640 C   0  0  0  0  0  0  0  0  0  0  0  0
   47.4680   33.0560   43.8460 C   0  0  0  0  0  0  0  0  0  0  0  0
   46.4730   33.9290   44.1790 C   0  0  0  0  0  0  0  0  0  0  0  0
   43.7990   36.4420   44.8320 H   0  0  0  0  0  0  0  0  0  0  0  0
   46.6540   35.6990   41.2730 H   0  0  0  0  0  0  0  0  0  0  0  0
   48.4450   34.0410   40.7950 H   0  0  0  0  0  0  0  0  0  0  0  0
   48.9440   32.3500   42.4800 H   0  0  0  0  0  0  0  0  0  0  0  0
   47.7390   32.2720   44.5600 H   0  0  0  0  0  0  0  0  0  0  0  0
   47.5930   32.4300   48.1890 C   0  0  0  0  0  0  0  0  0  0  0  0
   47.0390   31.1850   48.4420 C   0  0  0  0  0  0  0  0  0  0  0  0
   46.0180   30.8020   47.6190 C   0  0  0  0  0  0  0  0  0  0  0  0
   45.6060   31.6050   46.6430 N   0  0  0  0  0  0  0  0  0  0  0  0
   46.1350   32.7970   46.4010 C   0  0  0  0  0  0  0  0  0  0  0  0
   47.1330   33.1840   47.1970 N   0  0  0  0  0  0  0  0  0  0  0  0
   48.4150   32.7440   48.8510 H   0  0  0  0  0  0  0  0  0  0  0  0
   47.5360   30.3970   49.4970 N   0  0  0  0  0  0  0  0  0  0  0  0
   47.7480   29.3790   49.3740 H   0  0  0  0  0  0  0  0  0  0  0  0
   47.7000   30.8240   50.4310 H   0  0  0  0  0  0  0  0  0  0  0  0
   45.3800   29.5370   47.7940 C   0  0  0  0  0  0  0  0  0  0  0  0
   44.3210   29.4340   48.0470 H   0  0  0  0  0  0  0  0  0  0  0  0
   45.8900   28.3990   47.6970 O   0  0  0  0  0  0  0  0  0  0  0  0
  1  2  1  0  0  0  0
  1 20  1  0  0  0  0
  3 11  1  0  0  0  0
  3  2  2  0  0  0  0
  4  3  1  0  0  0  0
  5  4  2  0  0  0  0
  5 10  1  0  0  0  0
  6  5  1  0  0  0  0
  7  6  2  0  0  0  0
  7  8  1  0  0  0  0
  8  9  2  0  0  0  0
  9 10  1  0  0  0  0
  9 15  1  0  0  0  0
 10  1  2  0  0  0  0
 12  6  1  0  0  0  0
 13  7  1  0  0  0  0
 14  8  1  0  0  0  0
 16 17  1  0  0  0  0
 16 22  1  0  0  0  0
 17 23  1  0  0  0  0
 18 26  1  0  0  0  0
 18 17  2  0  0  0  0
 19 18  1  0  0  0  0
 20 19  2  0  0  0  0
 20 21  1  0  0  0  0
 21 16  2  0  0  0  0
 23 25  1  0  0  0  0
 24 23  1  0  0  0  0
 26 27  1  0  0  0  0
 28 26  2  0  0  0  0
M  END
>  <minimizedAffinity>
-5.74004173

>  <minimizedRMSD>
0.394389629

$$$$
