
 OpenBabel03242522453D

 29 31  0  0  0  0  0  0  0  0999 V2000
   47.0980   34.5620   42.0880 C   0  0  0  0  0  0  0  0  0  0  0  0
   48.1880   35.3160   41.7410 C   0  0  0  0  0  0  0  0  0  0  0  0
   48.6410   35.3250   40.4410 C   0  0  0  0  0  0  0  0  0  0  0  0
   48.0300   34.5890   39.4450 C   0  0  0  0  0  0  0  0  0  0  0  0
   48.5280   34.6460   38.1940 N   0  0  0  0  0  0  0  0  0  0  0  0
   47.9410   33.9300   37.2010 C   0  0  0  0  0  0  0  0  0  0  0  0
   46.8470   33.1700   37.5410 C   0  0  0  0  0  0  0  0  0  0  0  0
   46.3080   33.0870   38.8070 C   0  0  0  0  0  0  0  0  0  0  0  0
   46.9180   33.8200   39.7970 C   0  0  0  0  0  0  0  0  0  0  0  0
   46.4620   33.8110   41.1060 C   0  0  0  0  0  0  0  0  0  0  0  0
   48.6200   35.8640   42.5480 H   0  0  0  0  0  0  0  0  0  0  0  0
   49.5130   35.9380   40.2020 H   0  0  0  0  0  0  0  0  0  0  0  0
   48.3620   33.9960   36.2160 H   0  0  0  0  0  0  0  0  0  0  0  0
   46.4060   32.6120   36.7180 H   0  0  0  0  0  0  0  0  0  0  0  0
   45.4470   32.4790   39.0340 H   0  0  0  0  0  0  0  0  0  0  0  0
   45.5860   33.1780   41.2800 H   0  0  0  0  0  0  0  0  0  0  0  0
   45.4140   35.2230   43.8380 C   0  0  0  0  0  0  0  0  0  0  0  0
   46.4670   34.4200   43.4020 C   0  0  0  0  0  0  0  0  0  0  0  0
   46.9740   33.4010   44.2680 C   0  0  0  0  0  0  0  0  0  0  0  0
   46.3640   33.2950   45.4850 N   0  0  0  0  0  0  0  0  0  0  0  0
   45.3590   34.0770   45.8740 C   0  0  0  0  0  0  0  0  0  0  0  0
   44.8930   35.0270   45.0560 N   0  0  0  0  0  0  0  0  0  0  0  0
   44.9260   36.2220   42.9770 N   0  0  0  0  0  0  0  0  0  0  0  0
   47.7790   32.7730   43.9590 H   0  0  0  0  0  0  0  0  0  0  0  0
   44.2770   36.9630   43.3220 H   0  0  0  0  0  0  0  0  0  0  0  0
   45.1960   36.2510   41.9710 H   0  0  0  0  0  0  0  0  0  0  0  0
   44.7520   33.9090   47.1920 C   0  0  0  0  0  0  0  0  0  0  0  0
   44.0690   34.6310   47.5930 H   0  0  0  0  0  0  0  0  0  0  0  0
   45.0560   32.8690   47.8670 O   0  0  0  0  0  0  0  0  0  0  0  0
  1 18  1  0  0  0  0
  2  1  1  0  0  0  0
  2 11  1  0  0  0  0
  3  2  2  0  0  0  0
  4  9  1  0  0  0  0
  4  3  1  0  0  0  0
  5  4  2  0  0  0  0
  6  7  2  0  0  0  0
  6  5  1  0  0  0  0
  7  8  1  0  0  0  0
  8 15  1  0  0  0  0
  8  9  2  0  0  0  0
  9 10  1  0  0  0  0
 10 16  1  0  0  0  0
 10  1  2  0  0  0  0
 12  3  1  0  0  0  0
 13  6  1  0  0  0  0
 14  7  1  0  0  0  0
 17 22  1  0  0  0  0
 18 17  2  0  0  0  0
 18 19  1  0  0  0  0
 19 20  2  0  0  0  0
 20 21  1  0  0  0  0
 21 27  1  0  0  0  0
 22 21  2  0  0  0  0
 23 25  1  0  0  0  0
 23 17  1  0  0  0  0
 24 19  1  0  0  0  0
 26 23  1  0  0  0  0
 27 28  1  0  0  0  0
 27 29  2  0  0  0  0
M  END
>  <minimizedAffinity>
-5.7345643

>  <minimizedRMSD>
0.693394542

$$$$
