
 OpenBabel03242513493D

 25 26  0  0  1  0  0  0  0  0999 V2000
   46.4840   34.7930   41.5610 C   0  0  2  0  0  0  0  0  0  0  0  0
   45.9330   33.6820   40.7220 C   0  0  0  0  0  0  0  0  0  0  0  0
   46.9100   33.7260   39.5440 C   0  0  0  0  0  0  0  0  0  0  0  0
   48.2250   34.1530   40.1320 C   0  0  0  0  0  0  0  0  0  0  0  0
   47.9610   34.3940   41.6110 C   0  0  1  0  0  0  0  0  0  0  0  0
   46.4010   35.7570   41.0160 H   0  0  0  0  0  0  0  0  0  0  0  0
   44.8900   33.8770   40.3950 H   0  0  0  0  0  0  0  0  0  0  0  0
   46.0300   32.7150   41.2790 H   0  0  0  0  0  0  0  0  0  0  0  0
   46.5210   34.4060   38.7690 H   0  0  0  0  0  0  0  0  0  0  0  0
   46.9590   32.6770   39.1810 H   0  0  0  0  0  0  0  0  0  0  0  0
   48.9530   33.3180   40.0930 H   0  0  0  0  0  0  0  0  0  0  0  0
   48.5460   35.0550   39.6150 H   0  0  0  0  0  0  0  0  0  0  0  0
   48.0830   33.4850   42.2110 H   0  0  0  0  0  0  0  0  0  0  0  0
   44.6100   36.0100   44.5880 C   0  0  0  0  0  0  0  0  0  0  0  0
   45.1180   36.0190   43.2830 C   0  0  0  0  0  0  0  0  0  0  0  0
   45.8940   34.9370   42.8920 C   0  0  0  0  0  0  0  0  0  0  0  0
   46.1130   33.9400   43.7950 N   0  0  0  0  0  0  0  0  0  0  0  0
   45.6160   33.9470   45.0450 C   0  0  0  0  0  0  0  0  0  0  0  0
   44.8600   34.9900   45.4420 N   0  0  0  0  0  0  0  0  0  0  0  0
   43.9970   36.8570   44.9070 H   0  0  0  0  0  0  0  0  0  0  0  0
   44.9380   36.8140   42.5790 H   0  0  0  0  0  0  0  0  0  0  0  0
   45.8110   33.1370   45.7360 H   0  0  0  0  0  0  0  0  0  0  0  0
   48.8220   35.4980   42.0790 C   0  0  0  0  0  0  0  0  0  0  0  0
   49.0660   35.5260   43.1320 H   0  0  0  0  0  0  0  0  0  0  0  0
   49.2760   36.3770   41.3580 O   0  0  0  0  0  0  0  0  0  0  0  0
  1  6  1  6  0  0  0
  1  5  1  0  0  0  0
  1 16  1  0  0  0  0
  2  8  1  0  0  0  0
  2  1  1  0  0  0  0
  3  4  1  0  0  0  0
  3  2  1  0  0  0  0
  4  5  1  0  0  0  0
  5 23  1  0  0  0  0
  5 13  1  1  0  0  0
  7  2  1  0  0  0  0
  9  3  1  0  0  0  0
 10  3  1  0  0  0  0
 11  4  1  0  0  0  0
 12  4  1  0  0  0  0
 14 20  1  0  0  0  0
 14 19  1  0  0  0  0
 15 14  2  0  0  0  0
 16 15  1  0  0  0  0
 16 17  2  0  0  0  0
 17 18  1  0  0  0  0
 18 19  2  0  0  0  0
 18 22  1  0  0  0  0
 21 15  1  0  0  0  0
 23 24  1  0  0  0  0
 25 23  2  0  0  0  0
M  END
>  <minimizedAffinity>
-4.50633144

>  <minimizedRMSD>
0.857779026

$$$$
