
 OpenBabel03252508193D

 41 44  0  0  1  0  0  0  0  0999 V2000
   34.3520   29.0830   39.7060 C   0  0  0  0  0  3  0  0  0  0  0  0
   34.4970   28.8990   38.4610 C   0  0  0  0  0  3  0  0  0  0  0  0
   37.1680   30.4530   41.6510 C   0  0  0  0  0  0  0  0  0  0  0  0
   37.8280   29.3140   42.0920 C   0  0  0  0  0  0  0  0  0  0  0  0
   37.2950   28.1250   41.7110 C   0  0  0  0  0  0  0  0  0  0  0  0
   36.1700   28.0820   40.9400 N   0  0  0  0  0  0  0  0  0  0  0  0
   35.5540   29.2120   40.5310 C   0  0  0  0  0  0  0  0  0  0  0  0
   36.0740   30.3720   40.9010 N   0  0  0  0  0  0  0  0  0  0  0  0
   37.5550   31.4250   41.9300 H   0  0  0  0  0  0  0  0  0  0  0  0
   38.7140   29.3550   42.6990 H   0  0  0  0  0  0  0  0  0  0  0  0
   37.8770   26.8430   42.0940 C   0  0  0  0  0  0  0  0  0  0  0  0
   37.3570   25.6230   41.7570 C   0  0  0  0  0  0  0  0  0  0  0  0
   37.9160   24.4160   42.1240 C   0  0  0  0  0  0  0  0  0  0  0  0
   39.0750   24.4000   42.8820 C   0  0  0  0  0  0  0  0  0  0  0  0
   39.6410   25.5920   43.2490 C   0  0  0  0  0  0  0  0  0  0  0  0
   39.0360   26.7680   42.8510 C   0  0  0  0  0  0  0  0  0  0  0  0
   36.4420   25.6030   41.1580 H   0  0  0  0  0  0  0  0  0  0  0  0
   37.4180   23.5060   41.8000 H   0  0  0  0  0  0  0  0  0  0  0  0
   39.4400   23.4040   43.1230 H   0  0  0  0  0  0  0  0  0  0  0  0
   40.5370   25.5590   43.8350 H   0  0  0  0  0  0  0  0  0  0  0  0
   39.5320   27.6830   43.1740 H   0  0  0  0  0  0  0  0  0  0  0  0
   33.2210   28.8270   37.6520 C   0  0  0  0  0  0  0  0  0  0  0  0
   32.5280   29.4570   38.1890 H   0  0  0  0  0  0  0  0  0  0  0  0
   32.8080   27.7930   37.6810 H   0  0  0  0  0  0  0  0  0  0  0  0
   33.4930   29.1530   36.2210 C   0  0  1  0  0  0  0  0  0  0  0  0
   32.7980   28.2820   35.2290 C   0  0  0  0  0  0  0  0  0  0  0  0
   32.4150   29.6850   35.3670 C   0  0  1  0  0  0  0  0  0  0  0  0
   34.5880   29.2100   35.9490 H   0  0  0  0  0  0  0  0  0  0  0  0
   33.2630   27.9610   34.2840 H   0  0  0  0  0  0  0  0  0  0  0  0
   32.0380   27.5410   35.5920 H   0  0  0  0  0  0  0  0  0  0  0  0
   32.7400   30.3750   34.5600 H   0  0  0  0  0  0  0  0  0  0  0  0
   31.1310   30.0870   36.0230 C   0  0  2  0  0  0  0  0  0  0  0  0
   30.2000   30.8950   35.0830 C   0  0  0  0  0  0  0  0  0  0  0  0
   30.8650   31.5800   36.2060 C   0  0  1  0  0  0  0  0  0  0  0  0
   30.5340   29.3560   36.5980 H   0  0  0  0  0  0  0  0  0  0  0  0
   30.5830   31.1700   34.0810 H   0  0  0  0  0  0  0  0  0  0  0  0
   29.1280   30.7270   35.0970 H   0  0  0  0  0  0  0  0  0  0  0  0
   31.7320   32.2460   36.0660 H   0  0  0  0  0  0  0  0  0  0  0  0
   29.9550   31.8880   37.3660 C   0  0  0  0  0  0  0  0  0  0  0  0
   29.3480   32.7220   37.7000 H   0  0  0  0  0  0  0  0  0  0  0  0
   29.6290   31.1980   38.3390 O   0  0  0  0  0  0  0  0  0  0  0  0
  1  7  1  0  0  0  0
  2  1  2  0  0  0  0
  3  9  1  0  0  0  0
  3  4  1  0  0  0  0
  4 10  1  0  0  0  0
  5  4  2  0  0  0  0
  5 11  1  0  0  0  0
  6  5  1  0  0  0  0
  7  8  1  0  0  0  0
  7  6  2  0  0  0  0
  8  3  2  0  0  0  0
 11 16  1  0  0  0  0
 12 11  2  0  0  0  0
 12 13  1  0  0  0  0
 13 14  2  0  0  0  0
 14 19  1  0  0  0  0
 14 15  1  0  0  0  0
 15 20  1  0  0  0  0
 16 21  1  0  0  0  0
 16 15  2  0  0  0  0
 17 12  1  0  0  0  0
 18 13  1  0  0  0  0
 22 24  1  0  0  0  0
 22 23  1  0  0  0  0
 22  2  1  0  0  0  0
 25 28  1  6  0  0  0
 25 22  1  0  0  0  0
 26 27  1  0  0  0  0
 26 30  1  0  0  0  0
 26 25  1  0  0  0  0
 27 31  1  6  0  0  0
 27 32  1  0  0  0  0
 27 25  1  0  0  0  0
 29 26  1  0  0  0  0
 32 34  1  0  0  0  0
 32 35  1  1  0  0  0
 33 37  1  0  0  0  0
 33 32  1  0  0  0  0
 33 34  1  0  0  0  0
 34 38  1  6  0  0  0
 34 39  1  0  0  0  0
 36 33  1  0  0  0  0
 39 40  1  0  0  0  0
 39 41  2  0  0  0  0
M  END
>  <minimizedAffinity>
-5.55957174

$$$$

 OpenBabel03252508193D

 41 44  0  0  1  0  0  0  0  0999 V2000
   34.9920   28.4710   38.5880 C   0  0  0  0  0  3  0  0  0  0  0  0
   34.6510   29.1390   39.6080 C   0  0  0  0  0  3  0  0  0  0  0  0
   32.8130   26.8120   36.1210 C   0  0  0  0  0  0  0  0  0  0  0  0
   32.0400   27.8570   35.6320 C   0  0  0  0  0  0  0  0  0  0  0  0
   32.2900   29.0840   36.1550 C   0  0  0  0  0  0  0  0  0  0  0  0
   33.2510   29.2520   37.1110 N   0  0  0  0  0  0  0  0  0  0  0  0
   33.9810   28.2110   37.5620 C   0  0  0  0  0  0  0  0  0  0  0  0
   33.7390   27.0130   37.0520 N   0  0  0  0  0  0  0  0  0  0  0  0
   32.6500   25.8140   35.7340 H   0  0  0  0  0  0  0  0  0  0  0  0
   31.2860   27.7190   34.8800 H   0  0  0  0  0  0  0  0  0  0  0  0
   31.5620   30.2800   35.7410 C   0  0  0  0  0  0  0  0  0  0  0  0
   31.5840   30.8040   34.4780 C   0  0  0  0  0  0  0  0  0  0  0  0
   30.8910   31.9350   34.0970 C   0  0  0  0  0  0  0  0  0  0  0  0
   30.1150   32.6070   35.0260 C   0  0  0  0  0  0  0  0  0  0  0  0
   30.0550   32.1280   36.3070 C   0  0  0  0  0  0  0  0  0  0  0  0
   30.7700   30.9910   36.6290 C   0  0  0  0  0  0  0  0  0  0  0  0
   32.1880   30.2940   33.7220 H   0  0  0  0  0  0  0  0  0  0  0  0
   30.9810   32.2620   33.0650 H   0  0  0  0  0  0  0  0  0  0  0  0
   29.6070   33.4860   34.6340 H   0  0  0  0  0  0  0  0  0  0  0  0
   29.4490   32.6630   37.0110 H   0  0  0  0  0  0  0  0  0  0  0  0
   30.6820   30.6590   37.6630 H   0  0  0  0  0  0  0  0  0  0  0  0
   35.7500   29.4240   40.6090 C   0  0  0  0  0  0  0  0  0  0  0  0
   36.0220   28.4520   40.9900 H   0  0  0  0  0  0  0  0  0  0  0  0
   35.3430   30.0060   41.4670 H   0  0  0  0  0  0  0  0  0  0  0  0
   36.8220   30.2530   39.9830 C   0  0  1  0  0  0  0  0  0  0  0  0
   36.9610   31.6310   40.5350 C   0  0  0  0  0  0  0  0  0  0  0  0
   38.0090   30.6410   40.7680 C   0  0  1  0  0  0  0  0  0  0  0  0
   36.7730   30.3160   38.8560 H   0  0  0  0  0  0  0  0  0  0  0  0
   37.2030   32.5060   39.9100 H   0  0  0  0  0  0  0  0  0  0  0  0
   36.3650   31.9200   41.4400 H   0  0  0  0  0  0  0  0  0  0  0  0
   38.9490   30.7580   40.1880 H   0  0  0  0  0  0  0  0  0  0  0  0
   38.2030   30.0050   42.1090 C   0  0  2  0  0  0  0  0  0  0  0  0
   39.6760   30.0550   42.5930 C   0  0  0  0  0  0  0  0  0  0  0  0
   39.0910   28.7650   42.1850 C   0  0  1  0  0  0  0  0  0  0  0  0
   37.5280   30.2400   42.9520 H   0  0  0  0  0  0  0  0  0  0  0  0
   40.4380   30.4570   41.8970 H   0  0  0  0  0  0  0  0  0  0  0  0
   39.9040   30.2510   43.6340 H   0  0  0  0  0  0  0  0  0  0  0  0
   39.3290   28.2820   41.2230 H   0  0  0  0  0  0  0  0  0  0  0  0
   38.7480   27.8530   43.3330 C   0  0  0  0  0  0  0  0  0  0  0  0
   39.2460   27.4640   44.2140 H   0  0  0  0  0  0  0  0  0  0  0  0
   37.7030   27.2490   43.5970 O   0  0  0  0  0  0  0  0  0  0  0  0
  1  2  2  0  0  0  0
  2 22  1  0  0  0  0
  3  8  1  0  0  0  0
  4  3  2  0  0  0  0
  4  5  1  0  0  0  0
  5  6  2  0  0  0  0
  6  7  1  0  0  0  0
  7  1  1  0  0  0  0
  8  7  2  0  0  0  0
  9  3  1  0  0  0  0
 10  4  1  0  0  0  0
 11  5  1  0  0  0  0
 11 16  1  0  0  0  0
 12 11  2  0  0  0  0
 13 12  1  0  0  0  0
 13 14  2  0  0  0  0
 14 15  1  0  0  0  0
 15 16  2  0  0  0  0
 15 20  1  0  0  0  0
 16 21  1  0  0  0  0
 17 12  1  0  0  0  0
 18 13  1  0  0  0  0
 19 14  1  0  0  0  0
 22 23  1  0  0  0  0
 22 24  1  0  0  0  0
 25 28  1  6  0  0  0
 25 26  1  0  0  0  0
 25 22  1  0  0  0  0
 25 27  1  0  0  0  0
 26 27  1  0  0  0  0
 26 30  1  0  0  0  0
 27 31  1  6  0  0  0
 27 32  1  0  0  0  0
 29 26  1  0  0  0  0
 32 34  1  0  0  0  0
 32 33  1  0  0  0  0
 32 35  1  1  0  0  0
 33 37  1  0  0  0  0
 34 38  1  6  0  0  0
 34 33  1  0  0  0  0
 34 39  1  0  0  0  0
 36 33  1  0  0  0  0
 39 41  2  0  0  0  0
 39 40  1  0  0  0  0
M  END
>  <minimizedAffinity>
-5.33806753

$$$$

 OpenBabel03252508193D

 41 44  0  0  1  0  0  0  0  0999 V2000
   35.4750   27.4120   38.4020 C   0  0  0  0  0  3  0  0  0  0  0  0
   36.3410   26.4980   38.2640 C   0  0  0  0  0  3  0  0  0  0  0  0
   33.4520   26.9680   35.3530 C   0  0  0  0  0  0  0  0  0  0  0  0
   32.4840   27.9560   35.4710 C   0  0  0  0  0  0  0  0  0  0  0  0
   32.5560   28.7370   36.5790 C   0  0  0  0  0  0  0  0  0  0  0  0
   33.5340   28.5370   37.5100 N   0  0  0  0  0  0  0  0  0  0  0  0
   34.4580   27.5640   37.3600 C   0  0  0  0  0  0  0  0  0  0  0  0
   34.3900   26.8020   36.2790 N   0  0  0  0  0  0  0  0  0  0  0  0
   33.4360   26.3190   34.4850 H   0  0  0  0  0  0  0  0  0  0  0  0
   31.7170   28.1080   34.7350 H   0  0  0  0  0  0  0  0  0  0  0  0
   31.6110   29.8180   36.8430 C   0  0  0  0  0  0  0  0  0  0  0  0
   30.9090   29.9670   38.0070 C   0  0  0  0  0  0  0  0  0  0  0  0
   30.0180   30.9940   38.2470 C   0  0  0  0  0  0  0  0  0  0  0  0
   29.7960   31.9500   37.2700 C   0  0  0  0  0  0  0  0  0  0  0  0
   30.4720   31.8500   36.0830 C   0  0  0  0  0  0  0  0  0  0  0  0
   31.3510   30.8010   35.9010 C   0  0  0  0  0  0  0  0  0  0  0  0
   31.0640   29.2280   38.7990 H   0  0  0  0  0  0  0  0  0  0  0  0
   29.5160   31.0150   39.2100 H   0  0  0  0  0  0  0  0  0  0  0  0
   29.0790   32.7190   37.5490 H   0  0  0  0  0  0  0  0  0  0  0  0
   30.2870   32.5990   35.3390 H   0  0  0  0  0  0  0  0  0  0  0  0
   31.8580   30.7750   34.9370 H   0  0  0  0  0  0  0  0  0  0  0  0
   37.3330   26.3520   39.3970 C   0  0  0  0  0  0  0  0  0  0  0  0
   37.4990   27.3630   39.7380 H   0  0  0  0  0  0  0  0  0  0  0  0
   38.3070   25.9780   39.0060 H   0  0  0  0  0  0  0  0  0  0  0  0
   36.8440   25.3520   40.3920 C   0  0  1  0  0  0  0  0  0  0  0  0
   37.9110   24.6630   41.1740 C   0  0  0  0  0  0  0  0  0  0  0  0
   37.0120   25.6040   41.8350 C   0  0  1  0  0  0  0  0  0  0  0  0
   36.1410   24.5750   39.9740 H   0  0  0  0  0  0  0  0  0  0  0  0
   37.8530   23.6000   41.4600 H   0  0  0  0  0  0  0  0  0  0  0  0
   38.9740   25.0080   41.0700 H   0  0  0  0  0  0  0  0  0  0  0  0
   36.2270   25.1730   42.4910 H   0  0  0  0  0  0  0  0  0  0  0  0
   37.4740   26.9620   42.2630 C   0  0  2  0  0  0  0  0  0  0  0  0
   36.7410   27.4790   43.5280 C   0  0  0  0  0  0  0  0  0  0  0  0
   36.4600   28.1030   42.2230 C   0  0  1  0  0  0  0  0  0  0  0  0
   38.5520   27.1980   42.3380 H   0  0  0  0  0  0  0  0  0  0  0  0
   35.9120   26.8670   43.9350 H   0  0  0  0  0  0  0  0  0  0  0  0
   37.2840   28.0220   44.2930 H   0  0  0  0  0  0  0  0  0  0  0  0
   35.5350   27.9060   41.6570 H   0  0  0  0  0  0  0  0  0  0  0  0
   37.0910   29.4580   42.0400 C   0  0  0  0  0  0  0  0  0  0  0  0
   37.7940   30.0860   42.5750 H   0  0  0  0  0  0  0  0  0  0  0  0
   36.9560   30.2940   41.1380 O   0  0  0  0  0  0  0  0  0  0  0  0
  2  1  2  0  0  0  0
  2 22  1  0  0  0  0
  3  4  2  0  0  0  0
  3  8  1  0  0  0  0
  4  5  1  0  0  0  0
  5 11  1  0  0  0  0
  5  6  2  0  0  0  0
  7  6  1  0  0  0  0
  7  1  1  0  0  0  0
  8  7  2  0  0  0  0
  9  3  1  0  0  0  0
 10  4  1  0  0  0  0
 11 12  1  0  0  0  0
 12 13  2  0  0  0  0
 12 17  1  0  0  0  0
 13 18  1  0  0  0  0
 14 19  1  0  0  0  0
 14 13  1  0  0  0  0
 15 14  2  0  0  0  0
 16 15  1  0  0  0  0
 16 11  2  0  0  0  0
 20 15  1  0  0  0  0
 21 16  1  0  0  0  0
 22 23  1  0  0  0  0
 22 25  1  0  0  0  0
 24 22  1  0  0  0  0
 25 28  1  6  0  0  0
 25 26  1  0  0  0  0
 25 27  1  0  0  0  0
 26 29  1  0  0  0  0
 26 27  1  0  0  0  0
 27 32  1  0  0  0  0
 27 31  1  1  0  0  0
 30 26  1  0  0  0  0
 32 35  1  6  0  0  0
 32 33  1  0  0  0  0
 33 36  1  0  0  0  0
 33 37  1  0  0  0  0
 34 38  1  6  0  0  0
 34 32  1  0  0  0  0
 34 33  1  0  0  0  0
 39 34  1  0  0  0  0
 39 40  1  0  0  0  0
 41 39  2  0  0  0  0
M  END
>  <minimizedAffinity>
-5.28987455

$$$$

 OpenBabel03252508193D

 41 44  0  0  1  0  0  0  0  0999 V2000
   35.2470   28.5320   38.5270 C   0  0  0  0  0  3  0  0  0  0  0  0
   35.7980   27.5720   39.1420 C   0  0  0  0  0  3  0  0  0  0  0  0
   32.9210   26.7570   36.2850 C   0  0  0  0  0  0  0  0  0  0  0  0
   32.1080   27.7760   35.8070 C   0  0  0  0  0  0  0  0  0  0  0  0
   32.3800   29.0250   36.2600 C   0  0  0  0  0  0  0  0  0  0  0  0
   33.4020   29.2390   37.1410 N   0  0  0  0  0  0  0  0  0  0  0  0
   34.1710   28.2220   37.5840 C   0  0  0  0  0  0  0  0  0  0  0  0
   33.9060   27.0030   37.1410 N   0  0  0  0  0  0  0  0  0  0  0  0
   32.7430   25.7430   35.9510 H   0  0  0  0  0  0  0  0  0  0  0  0
   31.3050   27.6010   35.1140 H   0  0  0  0  0  0  0  0  0  0  0  0
   31.6140   30.1980   35.8480 C   0  0  0  0  0  0  0  0  0  0  0  0
   31.6360   30.7360   34.5910 C   0  0  0  0  0  0  0  0  0  0  0  0
   30.9080   31.8450   34.2110 C   0  0  0  0  0  0  0  0  0  0  0  0
   30.0930   32.4780   35.1350 C   0  0  0  0  0  0  0  0  0  0  0  0
   30.0310   31.9820   36.4100 C   0  0  0  0  0  0  0  0  0  0  0  0
   30.7830   30.8690   36.7310 C   0  0  0  0  0  0  0  0  0  0  0  0
   32.2710   30.2580   33.8390 H   0  0  0  0  0  0  0  0  0  0  0  0
   31.0010   32.1860   33.1840 H   0  0  0  0  0  0  0  0  0  0  0  0
   29.5590   33.3420   34.7450 H   0  0  0  0  0  0  0  0  0  0  0  0
   29.3950   32.4860   37.1110 H   0  0  0  0  0  0  0  0  0  0  0  0
   30.6920   30.5220   37.7600 H   0  0  0  0  0  0  0  0  0  0  0  0
   36.8650   27.9550   40.1430 C   0  0  0  0  0  0  0  0  0  0  0  0
   37.6520   28.3870   39.5430 H   0  0  0  0  0  0  0  0  0  0  0  0
   37.2870   27.0410   40.6210 H   0  0  0  0  0  0  0  0  0  0  0  0
   36.2810   28.7930   41.2320 C   0  0  1  0  0  0  0  0  0  0  0  0
   37.2320   29.1770   42.3160 C   0  0  0  0  0  0  0  0  0  0  0  0
   36.7150   30.1920   41.4020 C   0  0  1  0  0  0  0  0  0  0  0  0
   35.3460   28.3700   41.7040 H   0  0  0  0  0  0  0  0  0  0  0  0
   36.9400   29.2360   43.3760 H   0  0  0  0  0  0  0  0  0  0  0  0
   38.3210   28.9360   42.1970 H   0  0  0  0  0  0  0  0  0  0  0  0
   35.9470   30.8860   41.8040 H   0  0  0  0  0  0  0  0  0  0  0  0
   37.5720   30.7970   40.3340 C   0  0  2  0  0  0  0  0  0  0  0  0
   37.5680   32.3470   40.3620 C   0  0  0  0  0  0  0  0  0  0  0  0
   36.8840   31.6410   39.2630 C   0  0  1  0  0  0  0  0  0  0  0  0
   38.6010   30.4320   40.1570 H   0  0  0  0  0  0  0  0  0  0  0  0
   36.8910   32.8520   41.0780 H   0  0  0  0  0  0  0  0  0  0  0  0
   38.4810   32.9010   40.1760 H   0  0  0  0  0  0  0  0  0  0  0  0
   35.7860   31.5490   39.2080 H   0  0  0  0  0  0  0  0  0  0  0  0
   37.6280   31.6700   37.9550 C   0  0  0  0  0  0  0  0  0  0  0  0
   38.4800   32.1940   37.5370 H   0  0  0  0  0  0  0  0  0  0  0  0
   37.4400   31.0400   36.9080 O   0  0  0  0  0  0  0  0  0  0  0  0
  1  2  2  0  0  0  0
  2 22  1  0  0  0  0
  3  8  1  0  0  0  0
  4  5  1  0  0  0  0
  4  3  2  0  0  0  0
  5  6  2  0  0  0  0
  6  7  1  0  0  0  0
  7  1  1  0  0  0  0
  8  7  2  0  0  0  0
  9  3  1  0  0  0  0
 10  4  1  0  0  0  0
 11  5  1  0  0  0  0
 11 16  1  0  0  0  0
 12 11  2  0  0  0  0
 13 12  1  0  0  0  0
 13 14  2  0  0  0  0
 14 15  1  0  0  0  0
 15 16  2  0  0  0  0
 15 20  1  0  0  0  0
 16 21  1  0  0  0  0
 17 12  1  0  0  0  0
 18 13  1  0  0  0  0
 19 14  1  0  0  0  0
 22 24  1  0  0  0  0
 22 25  1  0  0  0  0
 23 22  1  0  0  0  0
 25 27  1  0  0  0  0
 25 28  1  1  0  0  0
 25 26  1  0  0  0  0
 26 29  1  0  0  0  0
 27 31  1  1  0  0  0
 27 26  1  0  0  0  0
 30 26  1  0  0  0  0
 32 35  1  6  0  0  0
 32 33  1  0  0  0  0
 32 27  1  0  0  0  0
 33 36  1  0  0  0  0
 34 38  1  6  0  0  0
 34 32  1  0  0  0  0
 34 33  1  0  0  0  0
 37 33  1  0  0  0  0
 39 34  1  0  0  0  0
 40 39  1  0  0  0  0
 41 39  2  0  0  0  0
M  END
>  <minimizedAffinity>
-5.23847198

$$$$

 OpenBabel03252508193D

 41 44  0  0  1  0  0  0  0  0999 V2000
   37.2240   30.9290   38.5800 C   0  0  0  0  0  3  0  0  0  0  0  0
   36.8550   31.4910   39.6530 C   0  0  0  0  0  3  0  0  0  0  0  0
   35.3730   28.2540   36.8450 C   0  0  0  0  0  0  0  0  0  0  0  0
   35.5360   27.1630   37.6870 C   0  0  0  0  0  0  0  0  0  0  0  0
   36.2640   27.3750   38.8120 C   0  0  0  0  0  0  0  0  0  0  0  0
   36.7980   28.6040   39.0740 N   0  0  0  0  0  0  0  0  0  0  0  0
   36.6190   29.6430   38.2290 C   0  0  0  0  0  0  0  0  0  0  0  0
   35.9080   29.4360   37.1320 N   0  0  0  0  0  0  0  0  0  0  0  0
   34.7990   28.1340   35.9340 H   0  0  0  0  0  0  0  0  0  0  0  0
   35.1120   26.1980   37.4750 H   0  0  0  0  0  0  0  0  0  0  0  0
   36.5210   26.3270   39.7940 C   0  0  0  0  0  0  0  0  0  0  0  0
   36.3250   24.9920   39.5730 C   0  0  0  0  0  0  0  0  0  0  0  0
   36.5710   24.0080   40.5090 C   0  0  0  0  0  0  0  0  0  0  0  0
   37.0470   24.3580   41.7610 C   0  0  0  0  0  0  0  0  0  0  0  0
   37.2620   25.6820   42.0400 C   0  0  0  0  0  0  0  0  0  0  0  0
   36.9970   26.6210   41.0620 C   0  0  0  0  0  0  0  0  0  0  0  0
   35.9500   24.6830   38.5920 H   0  0  0  0  0  0  0  0  0  0  0  0
   36.3800   22.9770   40.2240 H   0  0  0  0  0  0  0  0  0  0  0  0
   37.2110   23.5170   42.4310 H   0  0  0  0  0  0  0  0  0  0  0  0
   37.6300   25.9330   43.0140 H   0  0  0  0  0  0  0  0  0  0  0  0
   37.1880   27.6560   41.3420 H   0  0  0  0  0  0  0  0  0  0  0  0
   37.4730   32.8420   39.9360 C   0  0  0  0  0  0  0  0  0  0  0  0
   37.2610   33.0190   40.9800 H   0  0  0  0  0  0  0  0  0  0  0  0
   36.9410   33.6330   39.3600 H   0  0  0  0  0  0  0  0  0  0  0  0
   38.9010   32.8640   39.5010 C   0  0  1  0  0  0  0  0  0  0  0  0
   39.7610   33.8600   40.2020 C   0  0  0  0  0  0  0  0  0  0  0  0
   39.9620   32.4320   40.4290 C   0  0  1  0  0  0  0  0  0  0  0  0
   39.0540   32.9710   38.3880 H   0  0  0  0  0  0  0  0  0  0  0  0
   40.5610   34.4230   39.6950 H   0  0  0  0  0  0  0  0  0  0  0  0
   39.3400   34.4290   41.0720 H   0  0  0  0  0  0  0  0  0  0  0  0
   40.8530   31.9680   39.9560 H   0  0  0  0  0  0  0  0  0  0  0  0
   39.5520   31.7760   41.7110 C   0  0  2  0  0  0  0  0  0  0  0  0
   40.7140   31.0120   42.3970 C   0  0  0  0  0  0  0  0  0  0  0  0
   39.6120   30.2520   41.7800 C   0  0  1  0  0  0  0  0  0  0  0  0
   38.9720   32.3300   42.4720 H   0  0  0  0  0  0  0  0  0  0  0  0
   41.6800   30.9440   41.8610 H   0  0  0  0  0  0  0  0  0  0  0  0
   40.8270   31.0400   43.4750 H   0  0  0  0  0  0  0  0  0  0  0  0
   39.7190   29.7290   40.8150 H   0  0  0  0  0  0  0  0  0  0  0  0
   38.6430   29.6580   42.7680 C   0  0  0  0  0  0  0  0  0  0  0  0
   38.6930   29.1810   43.7400 H   0  0  0  0  0  0  0  0  0  0  0  0
   37.4120   29.5500   42.7230 O   0  0  0  0  0  0  0  0  0  0  0  0
  1  2  2  0  0  0  0
  2 22  1  0  0  0  0
  3  8  2  0  0  0  0
  3  4  1  0  0  0  0
  4  5  2  0  0  0  0
  5  6  1  0  0  0  0
  5 11  1  0  0  0  0
  7  1  1  0  0  0  0
  7  6  2  0  0  0  0
  8  7  1  0  0  0  0
  9  3  1  0  0  0  0
 10  4  1  0  0  0  0
 11 16  1  0  0  0  0
 12 11  2  0  0  0  0
 12 13  1  0  0  0  0
 13 14  2  0  0  0  0
 14 15  1  0  0  0  0
 14 19  1  0  0  0  0
 15 20  1  0  0  0  0
 16 21  1  0  0  0  0
 16 15  2  0  0  0  0
 17 12  1  0  0  0  0
 18 13  1  0  0  0  0
 22 23  1  0  0  0  0
 24 22  1  0  0  0  0
 25 28  1  6  0  0  0
 25 22  1  0  0  0  0
 25 26  1  0  0  0  0
 25 27  1  0  0  0  0
 26 27  1  0  0  0  0
 26 30  1  0  0  0  0
 27 31  1  6  0  0  0
 27 32  1  0  0  0  0
 29 26  1  0  0  0  0
 32 34  1  0  0  0  0
 32 33  1  0  0  0  0
 32 35  1  1  0  0  0
 33 37  1  0  0  0  0
 34 38  1  6  0  0  0
 34 33  1  0  0  0  0
 34 39  1  0  0  0  0
 36 33  1  0  0  0  0
 39 40  1  0  0  0  0
 41 39  2  0  0  0  0
M  END
>  <minimizedAffinity>
-5.2215519

$$$$

 OpenBabel03252508193D

 41 44  0  0  1  0  0  0  0  0999 V2000
   38.9480   29.8110   41.0450 C   0  0  0  0  0  3  0  0  0  0  0  0
   38.0110   29.7140   41.8920 C   0  0  0  0  0  3  0  0  0  0  0  0
   39.0140   31.9120   38.0180 C   0  0  0  0  0  0  0  0  0  0  0  0
   37.9610   31.4100   37.2640 C   0  0  0  0  0  0  0  0  0  0  0  0
   37.2680   30.3800   37.8120 C   0  0  0  0  0  0  0  0  0  0  0  0
   37.6110   29.8840   39.0370 N   0  0  0  0  0  0  0  0  0  0  0  0
   38.6420   30.3980   39.7400 C   0  0  0  0  0  0  0  0  0  0  0  0
   39.3190   31.4030   39.2060 N   0  0  0  0  0  0  0  0  0  0  0  0
   39.5970   32.7350   37.6220 H   0  0  0  0  0  0  0  0  0  0  0  0
   37.6970   31.8060   36.3010 H   0  0  0  0  0  0  0  0  0  0  0  0
   36.1360   29.7480   37.1420 C   0  0  0  0  0  0  0  0  0  0  0  0
   35.0440   29.2320   37.7840 C   0  0  0  0  0  0  0  0  0  0  0  0
   33.9780   28.6370   37.1410 C   0  0  0  0  0  0  0  0  0  0  0  0
   33.9810   28.5380   35.7590 C   0  0  0  0  0  0  0  0  0  0  0  0
   35.0490   29.0370   35.0630 C   0  0  0  0  0  0  0  0  0  0  0  0
   36.0860   29.6230   35.7630 C   0  0  0  0  0  0  0  0  0  0  0  0
   35.0130   29.2960   38.8760 H   0  0  0  0  0  0  0  0  0  0  0  0
   33.1610   28.2620   37.7510 H   0  0  0  0  0  0  0  0  0  0  0  0
   33.1000   28.0540   35.3420 H   0  0  0  0  0  0  0  0  0  0  0  0
   35.0330   28.9510   33.9950 H   0  0  0  0  0  0  0  0  0  0  0  0
   36.9070   30.0010   35.1540 H   0  0  0  0  0  0  0  0  0  0  0  0
   38.3970   29.1510   43.2420 C   0  0  0  0  0  0  0  0  0  0  0  0
   38.5280   30.0210   43.8670 H   0  0  0  0  0  0  0  0  0  0  0  0
   39.3880   28.6460   43.1750 H   0  0  0  0  0  0  0  0  0  0  0  0
   37.4070   28.1220   43.6790 C   0  0  1  0  0  0  0  0  0  0  0  0
   36.6330   27.4790   42.5780 C   0  0  0  0  0  0  0  0  0  0  0  0
   37.6130   26.7040   43.3330 C   0  0  1  0  0  0  0  0  0  0  0  0
   36.6850   28.4700   44.4750 H   0  0  0  0  0  0  0  0  0  0  0  0
   35.5700   27.2050   42.6730 H   0  0  0  0  0  0  0  0  0  0  0  0
   36.9130   27.6980   41.5140 H   0  0  0  0  0  0  0  0  0  0  0  0
   37.2170   25.9690   44.0660 H   0  0  0  0  0  0  0  0  0  0  0  0
   38.9290   26.3090   42.7380 C   0  0  2  0  0  0  0  0  0  0  0  0
   39.2250   24.7940   42.8770 C   0  0  0  0  0  0  0  0  0  0  0  0
   39.9990   25.7590   43.6790 C   0  0  1  0  0  0  0  0  0  0  0  0
   39.2210   26.6530   41.7280 H   0  0  0  0  0  0  0  0  0  0  0  0
   38.5130   24.1760   43.4590 H   0  0  0  0  0  0  0  0  0  0  0  0
   39.6960   24.2500   42.0660 H   0  0  0  0  0  0  0  0  0  0  0  0
   39.8200   25.9150   44.7560 H   0  0  0  0  0  0  0  0  0  0  0  0
   41.4030   25.9840   43.1860 C   0  0  0  0  0  0  0  0  0  0  0  0
   41.9080   26.6620   42.5080 H   0  0  0  0  0  0  0  0  0  0  0  0
   42.4550   25.3920   43.4540 O   0  0  0  0  0  0  0  0  0  0  0  0
  1  2  2  0  0  0  0
  2 22  1  0  0  0  0
  3  8  1  0  0  0  0
  4  5  1  0  0  0  0
  4  3  2  0  0  0  0
  5  6  2  0  0  0  0
  6  7  1  0  0  0  0
  7  1  1  0  0  0  0
  8  7  2  0  0  0  0
  9  3  1  0  0  0  0
 10  4  1  0  0  0  0
 11 12  1  0  0  0  0
 11  5  1  0  0  0  0
 12 17  1  0  0  0  0
 13 18  1  0  0  0  0
 13 12  2  0  0  0  0
 14 13  1  0  0  0  0
 15 14  2  0  0  0  0
 15 16  1  0  0  0  0
 16 11  2  0  0  0  0
 19 14  1  0  0  0  0
 20 15  1  0  0  0  0
 21 16  1  0  0  0  0
 22 25  1  0  0  0  0
 22 23  1  0  0  0  0
 24 22  1  0  0  0  0
 25 28  1  1  0  0  0
 26 29  1  0  0  0  0
 26 27  1  0  0  0  0
 26 25  1  0  0  0  0
 27 25  1  0  0  0  0
 27 31  1  1  0  0  0
 30 26  1  0  0  0  0
 32 35  1  6  0  0  0
 32 33  1  0  0  0  0
 32 27  1  0  0  0  0
 32 34  1  0  0  0  0
 33 36  1  0  0  0  0
 33 34  1  0  0  0  0
 34 38  1  1  0  0  0
 37 33  1  0  0  0  0
 39 41  2  0  0  0  0
 39 34  1  0  0  0  0
 40 39  1  0  0  0  0
M  END
>  <minimizedAffinity>
-5.21067429

$$$$

 OpenBabel03252508193D

 41 44  0  0  1  0  0  0  0  0999 V2000
   35.4660   27.9710   37.9980 C   0  0  0  0  0  3  0  0  0  0  0  0
   35.3450   28.4460   39.1670 C   0  0  0  0  0  3  0  0  0  0  0  0
   33.7690   28.5700   34.7810 C   0  0  0  0  0  0  0  0  0  0  0  0
   32.6190   29.2520   35.1550 C   0  0  0  0  0  0  0  0  0  0  0  0
   32.4640   29.4850   36.4830 C   0  0  0  0  0  0  0  0  0  0  0  0
   33.4020   29.0590   37.3790 N   0  0  0  0  0  0  0  0  0  0  0  0
   34.5080   28.3970   36.9770 C   0  0  0  0  0  0  0  0  0  0  0  0
   34.6600   28.1700   35.6820 N   0  0  0  0  0  0  0  0  0  0  0  0
   33.9380   28.3610   33.7320 H   0  0  0  0  0  0  0  0  0  0  0  0
   31.8850   29.5860   34.4440 H   0  0  0  0  0  0  0  0  0  0  0  0
   31.3090   30.1910   37.0290 C   0  0  0  0  0  0  0  0  0  0  0  0
   30.6560   31.2140   36.3990 C   0  0  0  0  0  0  0  0  0  0  0  0
   29.5630   31.8740   36.9240 C   0  0  0  0  0  0  0  0  0  0  0  0
   29.0720   31.5050   38.1650 C   0  0  0  0  0  0  0  0  0  0  0  0
   29.6870   30.4860   38.8420 C   0  0  0  0  0  0  0  0  0  0  0  0
   30.7760   29.8630   38.2650 C   0  0  0  0  0  0  0  0  0  0  0  0
   31.0200   31.5290   35.4160 H   0  0  0  0  0  0  0  0  0  0  0  0
   29.1210   32.6730   36.3350 H   0  0  0  0  0  0  0  0  0  0  0  0
   28.2100   32.0810   38.4970 H   0  0  0  0  0  0  0  0  0  0  0  0
   29.2920   30.2150   39.8010 H   0  0  0  0  0  0  0  0  0  0  0  0
   31.2220   29.0600   38.8520 H   0  0  0  0  0  0  0  0  0  0  0  0
   36.3950   28.0130   40.1660 C   0  0  0  0  0  0  0  0  0  0  0  0
   37.3310   28.3050   39.7140 H   0  0  0  0  0  0  0  0  0  0  0  0
   36.4080   26.9020   40.2490 H   0  0  0  0  0  0  0  0  0  0  0  0
   36.0780   28.5530   41.5210 C   0  0  1  0  0  0  0  0  0  0  0  0
   36.6150   27.7560   42.6620 C   0  0  0  0  0  0  0  0  0  0  0  0
   37.1560   29.0820   42.3770 C   0  0  1  0  0  0  0  0  0  0  0  0
   34.9820   28.7560   41.7050 H   0  0  0  0  0  0  0  0  0  0  0  0
   36.0640   27.6130   43.6050 H   0  0  0  0  0  0  0  0  0  0  0  0
   37.3090   26.9010   42.4520 H   0  0  0  0  0  0  0  0  0  0  0  0
   36.8630   29.9040   43.0640 H   0  0  0  0  0  0  0  0  0  0  0  0
   38.5120   29.2620   41.7680 C   0  0  2  0  0  0  0  0  0  0  0  0
   39.4270   30.2000   42.5980 C   0  0  0  0  0  0  0  0  0  0  0  0
   38.9010   30.6630   41.3010 C   0  0  1  0  0  0  0  0  0  0  0  0
   39.0960   28.3920   41.4150 H   0  0  0  0  0  0  0  0  0  0  0  0
   38.9890   30.7060   43.4800 H   0  0  0  0  0  0  0  0  0  0  0  0
   40.4810   29.9740   42.7160 H   0  0  0  0  0  0  0  0  0  0  0  0
   38.0770   31.3910   41.2190 H   0  0  0  0  0  0  0  0  0  0  0  0
   39.9160   30.6620   40.1890 C   0  0  0  0  0  0  0  0  0  0  0  0
   40.4650   29.9250   39.6140 H   0  0  0  0  0  0  0  0  0  0  0  0
   40.4430   31.6010   39.5800 O   0  0  0  0  0  0  0  0  0  0  0  0
  1  2  2  0  0  0  0
  2 22  1  0  0  0  0
  3  4  2  0  0  0  0
  3  8  1  0  0  0  0
  4  5  1  0  0  0  0
  5 11  1  0  0  0  0
  5  6  2  0  0  0  0
  7  6  1  0  0  0  0
  7  1  1  0  0  0  0
  8  7  2  0  0  0  0
  9  3  1  0  0  0  0
 10  4  1  0  0  0  0
 11 16  1  0  0  0  0
 12 13  1  0  0  0  0
 12 11  2  0  0  0  0
 13 14  2  0  0  0  0
 14 19  1  0  0  0  0
 14 15  1  0  0  0  0
 15 20  1  0  0  0  0
 16 15  2  0  0  0  0
 16 21  1  0  0  0  0
 17 12  1  0  0  0  0
 18 13  1  0  0  0  0
 22 24  1  0  0  0  0
 22 25  1  0  0  0  0
 23 22  1  0  0  0  0
 25 28  1  1  0  0  0
 25 27  1  0  0  0  0
 25 26  1  0  0  0  0
 26 29  1  0  0  0  0
 27 26  1  0  0  0  0
 27 31  1  1  0  0  0
 30 26  1  0  0  0  0
 32 35  1  6  0  0  0
 32 27  1  0  0  0  0
 32 33  1  0  0  0  0
 33 37  1  0  0  0  0
 33 36  1  0  0  0  0
 34 38  1  1  0  0  0
 34 32  1  0  0  0  0
 34 33  1  0  0  0  0
 39 34  1  0  0  0  0
 40 39  1  0  0  0  0
 41 39  2  0  0  0  0
M  END
>  <minimizedAffinity>
-4.99844027

$$$$

 OpenBabel03252508193D

 41 44  0  0  1  0  0  0  0  0999 V2000
   35.3060   27.9690   38.9660 C   0  0  0  0  0  3  0  0  0  0  0  0
   36.2600   27.1380   38.8960 C   0  0  0  0  0  3  0  0  0  0  0  0
   34.1190   28.0270   35.4760 C   0  0  0  0  0  0  0  0  0  0  0  0
   32.9700   28.8030   35.5490 C   0  0  0  0  0  0  0  0  0  0  0  0
   32.6430   29.2790   36.7770 C   0  0  0  0  0  0  0  0  0  0  0  0
   33.4180   28.9920   37.8640 N   0  0  0  0  0  0  0  0  0  0  0  0
   34.5290   28.2330   37.7540 C   0  0  0  0  0  0  0  0  0  0  0  0
   34.8490   27.7690   36.5560 N   0  0  0  0  0  0  0  0  0  0  0  0
   34.4220   27.6250   34.5170 H   0  0  0  0  0  0  0  0  0  0  0  0
   32.3650   29.0260   34.6890 H   0  0  0  0  0  0  0  0  0  0  0  0
   31.4660   30.1100   37.0120 C   0  0  0  0  0  0  0  0  0  0  0  0
   30.6950   30.0610   38.1400 C   0  0  0  0  0  0  0  0  0  0  0  0
   29.5840   30.8520   38.3520 C   0  0  0  0  0  0  0  0  0  0  0  0
   29.1970   31.7630   37.3840 C   0  0  0  0  0  0  0  0  0  0  0  0
   29.9320   31.8550   36.2320 C   0  0  0  0  0  0  0  0  0  0  0  0
   31.0340   31.0380   36.0770 C   0  0  0  0  0  0  0  0  0  0  0  0
   30.9760   29.3510   38.9240 H   0  0  0  0  0  0  0  0  0  0  0  0
   29.0440   30.7290   39.2880 H   0  0  0  0  0  0  0  0  0  0  0  0
   28.3110   32.3400   37.6390 H   0  0  0  0  0  0  0  0  0  0  0  0
   29.6160   32.5660   35.4950 H   0  0  0  0  0  0  0  0  0  0  0  0
   31.5790   31.1580   35.1410 H   0  0  0  0  0  0  0  0  0  0  0  0
   36.9930   26.8640   40.1900 C   0  0  0  0  0  0  0  0  0  0  0  0
   38.0000   26.6280   39.8820 H   0  0  0  0  0  0  0  0  0  0  0  0
   36.5800   25.9510   40.6770 H   0  0  0  0  0  0  0  0  0  0  0  0
   36.8050   27.9970   41.1450 C   0  0  1  0  0  0  0  0  0  0  0  0
   36.4560   27.5980   42.5390 C   0  0  0  0  0  0  0  0  0  0  0  0
   37.7570   28.1940   42.2530 C   0  0  1  0  0  0  0  0  0  0  0  0
   36.0770   28.7890   40.8010 H   0  0  0  0  0  0  0  0  0  0  0  0
   35.7500   28.1660   43.1660 H   0  0  0  0  0  0  0  0  0  0  0  0
   36.4780   26.5120   42.8180 H   0  0  0  0  0  0  0  0  0  0  0  0
   37.9090   29.2470   42.5720 H   0  0  0  0  0  0  0  0  0  0  0  0
   39.0120   27.3780   42.2560 C   0  0  2  0  0  0  0  0  0  0  0  0
   39.6270   27.2220   43.6710 C   0  0  0  0  0  0  0  0  0  0  0  0
   40.3080   28.0690   42.6750 C   0  0  1  0  0  0  0  0  0  0  0  0
   39.0620   26.4120   41.7210 H   0  0  0  0  0  0  0  0  0  0  0  0
   39.1580   27.7770   44.5060 H   0  0  0  0  0  0  0  0  0  0  0  0
   40.0610   26.2770   43.9780 H   0  0  0  0  0  0  0  0  0  0  0  0
   40.2770   29.1710   42.7120 H   0  0  0  0  0  0  0  0  0  0  0  0
   41.5400   27.4460   42.0750 C   0  0  0  0  0  0  0  0  0  0  0  0
   41.8680   27.1200   41.0950 H   0  0  0  0  0  0  0  0  0  0  0  0
   42.6080   27.1090   42.5980 O   0  0  0  0  0  0  0  0  0  0  0  0
  2  1  2  0  0  0  0
  2 22  1  0  0  0  0
  3  4  2  0  0  0  0
  3  8  1  0  0  0  0
  4  5  1  0  0  0  0
  5 11  1  0  0  0  0
  5  6  2  0  0  0  0
  7  6  1  0  0  0  0
  7  1  1  0  0  0  0
  8  7  2  0  0  0  0
  9  3  1  0  0  0  0
 10  4  1  0  0  0  0
 11 12  1  0  0  0  0
 12 13  2  0  0  0  0
 12 17  1  0  0  0  0
 13 18  1  0  0  0  0
 14 19  1  0  0  0  0
 14 13  1  0  0  0  0
 15 14  2  0  0  0  0
 16 15  1  0  0  0  0
 16 11  2  0  0  0  0
 20 15  1  0  0  0  0
 21 16  1  0  0  0  0
 22 24  1  0  0  0  0
 22 25  1  0  0  0  0
 23 22  1  0  0  0  0
 25 28  1  6  0  0  0
 25 27  1  0  0  0  0
 25 26  1  0  0  0  0
 26 30  1  0  0  0  0
 26 29  1  0  0  0  0
 27 32  1  0  0  0  0
 27 26  1  0  0  0  0
 27 31  1  1  0  0  0
 32 35  1  6  0  0  0
 32 34  1  0  0  0  0
 32 33  1  0  0  0  0
 33 37  1  0  0  0  0
 33 36  1  0  0  0  0
 34 38  1  1  0  0  0
 34 33  1  0  0  0  0
 39 41  2  0  0  0  0
 39 34  1  0  0  0  0
 40 39  1  0  0  0  0
M  END
>  <minimizedAffinity>
-4.92414093

$$$$

 OpenBabel03252508193D

 41 44  0  0  1  0  0  0  0  0999 V2000
   38.2560   28.8560   42.5300 C   0  0  0  0  0  3  0  0  0  0  0  0
   37.4430   29.0970   41.5890 C   0  0  0  0  0  3  0  0  0  0  0  0
   40.0870   25.8710   43.6790 C   0  0  0  0  0  0  0  0  0  0  0  0
   39.5290   24.8500   42.9210 C   0  0  0  0  0  0  0  0  0  0  0  0
   38.5560   25.2130   42.0480 C   0  0  0  0  0  0  0  0  0  0  0  0
   38.1650   26.5170   41.9440 N   0  0  0  0  0  0  0  0  0  0  0  0
   38.7300   27.4820   42.6990 C   0  0  0  0  0  0  0  0  0  0  0  0
   39.6800   27.1290   43.5510 N   0  0  0  0  0  0  0  0  0  0  0  0
   40.8680   25.6300   44.3900 H   0  0  0  0  0  0  0  0  0  0  0  0
   39.8420   23.8250   43.0080 H   0  0  0  0  0  0  0  0  0  0  0  0
   37.8770   24.2540   41.1820 C   0  0  0  0  0  0  0  0  0  0  0  0
   38.4330   23.0910   40.7250 C   0  0  0  0  0  0  0  0  0  0  0  0
   37.7820   22.1900   39.9070 C   0  0  0  0  0  0  0  0  0  0  0  0
   36.4830   22.4480   39.5030 C   0  0  0  0  0  0  0  0  0  0  0  0
   35.8740   23.5980   39.9300 C   0  0  0  0  0  0  0  0  0  0  0  0
   36.5770   24.4610   40.7480 C   0  0  0  0  0  0  0  0  0  0  0  0
   39.4590   22.8590   41.0280 H   0  0  0  0  0  0  0  0  0  0  0  0
   38.3210   21.2970   39.6050 H   0  0  0  0  0  0  0  0  0  0  0  0
   36.0520   21.6830   38.8600 H   0  0  0  0  0  0  0  0  0  0  0  0
   34.8690   23.7800   39.6070 H   0  0  0  0  0  0  0  0  0  0  0  0
   36.0400   25.3580   41.0550 H   0  0  0  0  0  0  0  0  0  0  0  0
   37.0290   30.5430   41.4290 C   0  0  0  0  0  0  0  0  0  0  0  0
   37.6260   31.0740   42.1540 H   0  0  0  0  0  0  0  0  0  0  0  0
   35.9640   30.6710   41.7300 H   0  0  0  0  0  0  0  0  0  0  0  0
   37.1360   30.9600   39.9990 C   0  0  1  0  0  0  0  0  0  0  0  0
   36.9500   32.4190   39.7490 C   0  0  0  0  0  0  0  0  0  0  0  0
   38.2620   31.8050   39.5590 C   0  0  1  0  0  0  0  0  0  0  0  0
   36.4760   30.3830   39.2880 H   0  0  0  0  0  0  0  0  0  0  0  0
   36.4280   32.8130   38.8630 H   0  0  0  0  0  0  0  0  0  0  0  0
   36.8710   33.1170   40.6230 H   0  0  0  0  0  0  0  0  0  0  0  0
   38.5970   31.6500   38.5120 H   0  0  0  0  0  0  0  0  0  0  0  0
   39.3840   32.0390   40.5210 C   0  0  2  0  0  0  0  0  0  0  0  0
   40.7150   32.4100   39.8180 C   0  0  0  0  0  0  0  0  0  0  0  0
   40.5800   31.0910   40.4620 C   0  0  1  0  0  0  0  0  0  0  0  0
   39.2450   32.6790   41.4120 H   0  0  0  0  0  0  0  0  0  0  0  0
   40.7440   32.3830   38.7110 H   0  0  0  0  0  0  0  0  0  0  0  0
   41.3680   33.1650   40.2420 H   0  0  0  0  0  0  0  0  0  0  0  0
   40.4310   30.1610   39.8870 H   0  0  0  0  0  0  0  0  0  0  0  0
   41.3120   30.9670   41.7720 C   0  0  0  0  0  0  0  0  0  0  0  0
   42.3070   30.6950   42.1030 H   0  0  0  0  0  0  0  0  0  0  0  0
   40.9270   31.1630   42.9310 O   0  0  0  0  0  0  0  0  0  0  0  0
  1  7  1  0  0  0  0
  2  1  2  0  0  0  0
  3  9  1  0  0  0  0
  4 10  1  0  0  0  0
  4  3  2  0  0  0  0
  5  4  1  0  0  0  0
  6  5  2  0  0  0  0
  6  7  1  0  0  0  0
  7  8  2  0  0  0  0
  8  3  1  0  0  0  0
 11  5  1  0  0  0  0
 12 17  1  0  0  0  0
 12 11  2  0  0  0  0
 13 12  1  0  0  0  0
 14 13  2  0  0  0  0
 14 15  1  0  0  0  0
 15 16  2  0  0  0  0
 16 21  1  0  0  0  0
 16 11  1  0  0  0  0
 18 13  1  0  0  0  0
 19 14  1  0  0  0  0
 20 15  1  0  0  0  0
 22  2  1  0  0  0  0
 22 24  1  0  0  0  0
 22 23  1  0  0  0  0
 25 28  1  6  0  0  0
 25 22  1  0  0  0  0
 26 25  1  0  0  0  0
 26 30  1  0  0  0  0
 27 31  1  6  0  0  0
 27 26  1  0  0  0  0
 27 25  1  0  0  0  0
 27 32  1  0  0  0  0
 29 26  1  0  0  0  0
 32 35  1  1  0  0  0
 33 37  1  0  0  0  0
 33 34  1  0  0  0  0
 33 32  1  0  0  0  0
 34 38  1  6  0  0  0
 34 32  1  0  0  0  0
 34 39  1  0  0  0  0
 36 33  1  0  0  0  0
 39 40  1  0  0  0  0
 39 41  2  0  0  0  0
M  END
>  <minimizedAffinity>
-4.89409781

$$$$
