
 OpenBabel03242515193D

 31 32  0  0  0  0  0  0  0  0999 V2000
   38.6110   29.8410   42.8100 C   0  0  0  0  0  0  0  0  0  0  0  0
   37.8650   30.2600   42.0880 H   0  0  0  0  0  0  0  0  0  0  0  0
   38.2450   30.1690   43.8060 H   0  0  0  0  0  0  0  0  0  0  0  0
   38.6570   28.3750   42.7470 C   0  0  0  0  0  0  0  0  0  0  0  0
   39.5300   27.5030   43.3250 C   0  0  0  0  0  0  0  0  0  0  0  0
   39.1400   26.2380   42.9580 C   0  0  0  0  0  0  0  0  0  0  0  0
   38.0630   26.3480   42.1830 N   0  0  0  0  0  0  0  0  0  0  0  0
   37.7850   27.6430   42.0660 N   0  0  0  0  0  0  0  0  0  0  0  0
   40.3670   27.7660   43.9490 H   0  0  0  0  0  0  0  0  0  0  0  0
   37.2880   25.2680   41.5490 C   0  0  0  0  0  0  0  0  0  0  0  0
   36.4780   25.7950   40.5310 F   0  0  0  0  0  0  0  0  0  0  0  0
   36.5750   24.5920   42.5060 F   0  0  0  0  0  0  0  0  0  0  0  0
   38.1710   24.3960   40.9500 F   0  0  0  0  0  0  0  0  0  0  0  0
   39.7980   24.9980   43.3550 C   0  0  0  0  0  0  0  0  0  0  0  0
   39.3450   24.3330   44.0810 H   0  0  0  0  0  0  0  0  0  0  0  0
   40.9090   24.6130   42.8970 O   0  0  0  0  0  0  0  0  0  0  0  0
   39.9780   30.4560   42.6200 C   0  0  0  0  0  0  0  0  0  0  0  0
   40.3360   30.9690   43.5560 H   0  0  0  0  0  0  0  0  0  0  0  0
   40.6590   29.6360   42.4440 H   0  0  0  0  0  0  0  0  0  0  0  0
   40.8830   33.1750   40.2420 C   0  0  0  0  0  0  0  0  0  0  0  0
   39.6480   33.3450   39.5550 C   0  0  0  0  0  0  0  0  0  0  0  0
   38.6010   32.5330   39.9420 C   0  0  0  0  0  0  0  0  0  0  0  0
   38.8420   31.6580   40.9290 N   0  0  0  0  0  0  0  0  0  0  0  0
   39.9970   31.5000   41.5700 C   0  0  0  0  0  0  0  0  0  0  0  0
   41.0110   32.2650   41.2170 N   0  0  0  0  0  0  0  0  0  0  0  0
   41.7080   33.8140   39.9380 H   0  0  0  0  0  0  0  0  0  0  0  0
   39.5240   34.0730   38.7660 H   0  0  0  0  0  0  0  0  0  0  0  0
   37.3320   32.7040   39.2380 C   0  0  0  0  0  0  0  0  0  0  0  0
   36.3990   31.7840   39.7200 F   0  0  0  0  0  0  0  0  0  0  0  0
   37.5610   32.3020   37.9200 F   0  0  0  0  0  0  0  0  0  0  0  0
   36.8380   33.9700   39.3330 F   0  0  0  0  0  0  0  0  0  0  0  0
  1  3  1  0  0  0  0
  2  1  1  0  0  0  0
  4  1  1  0  0  0  0
  4  5  1  0  0  0  0
  5  9  1  0  0  0  0
  6  5  2  0  0  0  0
  6 14  1  0  0  0  0
  7  6  1  0  0  0  0
  8  7  1  0  0  0  0
  8  4  2  0  0  0  0
 10  7  1  0  0  0  0
 10 12  1  0  0  0  0
 11 10  1  0  0  0  0
 13 10  1  0  0  0  0
 14 15  1  0  0  0  0
 16 14  2  0  0  0  0
 17  1  1  0  0  0  0
 17 18  1  0  0  0  0
 19 17  1  0  0  0  0
 20 25  1  0  0  0  0
 21 22  1  0  0  0  0
 21 20  2  0  0  0  0
 22 23  2  0  0  0  0
 23 24  1  0  0  0  0
 24 17  1  0  0  0  0
 25 24  2  0  0  0  0
 26 20  1  0  0  0  0
 27 21  1  0  0  0  0
 28 31  1  0  0  0  0
 28 29  1  0  0  0  0
 28 22  1  0  0  0  0
 30 28  1  0  0  0  0
M  END
>  <minimizedAffinity>
-5.51318026

$$$$

 OpenBabel03242515193D

 31 32  0  0  0  0  0  0  0  0999 V2000
   38.1500   29.5310   42.7480 C   0  0  0  0  0  0  0  0  0  0  0  0
   37.4840   30.0130   41.9870 H   0  0  0  0  0  0  0  0  0  0  0  0
   37.7130   29.8290   43.7240 H   0  0  0  0  0  0  0  0  0  0  0  0
   38.1450   28.0680   42.6190 C   0  0  0  0  0  0  0  0  0  0  0  0
   37.1100   27.2160   42.3830 C   0  0  0  0  0  0  0  0  0  0  0  0
   37.6310   25.9460   42.3510 C   0  0  0  0  0  0  0  0  0  0  0  0
   38.9430   26.0330   42.5620 N   0  0  0  0  0  0  0  0  0  0  0  0
   39.2370   27.3200   42.7220 N   0  0  0  0  0  0  0  0  0  0  0  0
   36.0780   27.4950   42.2480 H   0  0  0  0  0  0  0  0  0  0  0  0
   39.9280   24.9400   42.6180 C   0  0  0  0  0  0  0  0  0  0  0  0
   39.5260   23.9830   43.5630 F   0  0  0  0  0  0  0  0  0  0  0  0
   41.1720   25.4560   42.8730 F   0  0  0  0  0  0  0  0  0  0  0  0
   39.9470   24.3120   41.3910 F   0  0  0  0  0  0  0  0  0  0  0  0
   36.8710   24.7210   42.1250 C   0  0  0  0  0  0  0  0  0  0  0  0
   36.4040   24.1940   42.9480 H   0  0  0  0  0  0  0  0  0  0  0  0
   36.7030   24.1960   40.9900 O   0  0  0  0  0  0  0  0  0  0  0  0
   39.5500   30.0960   42.7020 C   0  0  0  0  0  0  0  0  0  0  0  0
   39.8400   30.5670   43.6820 H   0  0  0  0  0  0  0  0  0  0  0  0
   40.2140   29.2550   42.5610 H   0  0  0  0  0  0  0  0  0  0  0  0
   40.7740   32.8330   40.4930 C   0  0  0  0  0  0  0  0  0  0  0  0
   39.6070   33.0900   39.7210 C   0  0  0  0  0  0  0  0  0  0  0  0
   38.4920   32.3230   40.0000 C   0  0  0  0  0  0  0  0  0  0  0  0
   38.6110   31.4080   40.9710 N   0  0  0  0  0  0  0  0  0  0  0  0
   39.7030   31.1690   41.6930 C   0  0  0  0  0  0  0  0  0  0  0  0
   40.7800   31.8890   41.4430 N   0  0  0  0  0  0  0  0  0  0  0  0
   41.6510   33.4360   40.2740 H   0  0  0  0  0  0  0  0  0  0  0  0
   39.5810   33.8470   38.9500 H   0  0  0  0  0  0  0  0  0  0  0  0
   37.2920   32.5840   39.2080 C   0  0  0  0  0  0  0  0  0  0  0  0
   36.2960   31.6660   39.5480 F   0  0  0  0  0  0  0  0  0  0  0  0
   37.6180   32.2620   37.8890 F   0  0  0  0  0  0  0  0  0  0  0  0
   36.8270   33.8560   39.3500 F   0  0  0  0  0  0  0  0  0  0  0  0
  1  3  1  0  0  0  0
  2  1  1  0  0  0  0
  4  8  2  0  0  0  0
  4  1  1  0  0  0  0
  5  4  1  0  0  0  0
  6  5  2  0  0  0  0
  6  7  1  0  0  0  0
  7 10  1  0  0  0  0
  7  8  1  0  0  0  0
  9  5  1  0  0  0  0
 10 12  1  0  0  0  0
 10 11  1  0  0  0  0
 13 10  1  0  0  0  0
 14  6  1  0  0  0  0
 14 15  1  0  0  0  0
 16 14  2  0  0  0  0
 17  1  1  0  0  0  0
 17 18  1  0  0  0  0
 19 17  1  0  0  0  0
 20 25  1  0  0  0  0
 21 22  1  0  0  0  0
 21 20  2  0  0  0  0
 22 23  2  0  0  0  0
 23 24  1  0  0  0  0
 24 17  1  0  0  0  0
 25 24  2  0  0  0  0
 26 20  1  0  0  0  0
 27 21  1  0  0  0  0
 28 31  1  0  0  0  0
 28 29  1  0  0  0  0
 28 22  1  0  0  0  0
 30 28  1  0  0  0  0
M  END
>  <minimizedAffinity>
-5.36532307

$$$$

 OpenBabel03242515193D

 31 32  0  0  0  0  0  0  0  0999 V2000
   36.1100   29.3670   39.3260 C   0  0  0  0  0  0  0  0  0  0  0  0
   35.3010   29.5380   38.5700 H   0  0  0  0  0  0  0  0  0  0  0  0
   36.6070   28.4330   38.9900 H   0  0  0  0  0  0  0  0  0  0  0  0
   37.0740   30.4740   39.3450 C   0  0  0  0  0  0  0  0  0  0  0  0
   36.9250   31.7530   39.7870 C   0  0  0  0  0  0  0  0  0  0  0  0
   38.1250   32.3920   39.5850 C   0  0  0  0  0  0  0  0  0  0  0  0
   38.9680   31.5210   39.0370 N   0  0  0  0  0  0  0  0  0  0  0  0
   38.3190   30.3680   38.8980 N   0  0  0  0  0  0  0  0  0  0  0  0
   36.0310   32.1760   40.2140 H   0  0  0  0  0  0  0  0  0  0  0  0
   40.3690   31.7410   38.6390 C   0  0  0  0  0  0  0  0  0  0  0  0
   40.9030   30.5630   38.0960 F   0  0  0  0  0  0  0  0  0  0  0  0
   41.0830   32.2080   39.7130 F   0  0  0  0  0  0  0  0  0  0  0  0
   40.3900   32.6920   37.6410 F   0  0  0  0  0  0  0  0  0  0  0  0
   38.4120   33.7840   39.9170 C   0  0  0  0  0  0  0  0  0  0  0  0
   38.2300   34.5770   39.2010 H   0  0  0  0  0  0  0  0  0  0  0  0
   38.8780   34.1610   41.0270 O   0  0  0  0  0  0  0  0  0  0  0  0
   35.5400   29.0930   40.6970 C   0  0  0  0  0  0  0  0  0  0  0  0
   35.1620   30.0340   41.1850 H   0  0  0  0  0  0  0  0  0  0  0  0
   34.6770   28.4600   40.5480 H   0  0  0  0  0  0  0  0  0  0  0  0
   38.1320   28.5700   43.3190 C   0  0  0  0  0  0  0  0  0  0  0  0
   38.3260   27.1640   43.2220 C   0  0  0  0  0  0  0  0  0  0  0  0
   37.5690   26.4940   42.2800 C   0  0  0  0  0  0  0  0  0  0  0  0
   36.7230   27.2280   41.5450 N   0  0  0  0  0  0  0  0  0  0  0  0
   36.5430   28.5430   41.6370 C   0  0  0  0  0  0  0  0  0  0  0  0
   37.2550   29.2040   42.5290 N   0  0  0  0  0  0  0  0  0  0  0  0
   38.7270   29.0980   44.0600 H   0  0  0  0  0  0  0  0  0  0  0  0
   39.0280   26.6340   43.8490 H   0  0  0  0  0  0  0  0  0  0  0  0
   37.7640   25.0490   42.1780 C   0  0  0  0  0  0  0  0  0  0  0  0
   37.9550   24.6940   40.8410 F   0  0  0  0  0  0  0  0  0  0  0  0
   36.5410   24.4660   42.5160 F   0  0  0  0  0  0  0  0  0  0  0  0
   38.8000   24.5970   42.9370 F   0  0  0  0  0  0  0  0  0  0  0  0
  1  4  1  0  0  0  0
  1 17  1  0  0  0  0
  2  1  1  0  0  0  0
  3  1  1  0  0  0  0
  4  5  1  0  0  0  0
  5  9  1  0  0  0  0
  6  5  2  0  0  0  0
  6 14  1  0  0  0  0
  7  6  1  0  0  0  0
  8  7  1  0  0  0  0
  8  4  2  0  0  0  0
 10  7  1  0  0  0  0
 10 12  1  0  0  0  0
 11 10  1  0  0  0  0
 13 10  1  0  0  0  0
 14 16  2  0  0  0  0
 15 14  1  0  0  0  0
 17 18  1  0  0  0  0
 17 24  1  0  0  0  0
 19 17  1  0  0  0  0
 20 26  1  0  0  0  0
 21 20  1  0  0  0  0
 21 27  1  0  0  0  0
 22 21  2  0  0  0  0
 23 24  2  0  0  0  0
 23 22  1  0  0  0  0
 24 25  1  0  0  0  0
 25 20  2  0  0  0  0
 28 22  1  0  0  0  0
 28 30  1  0  0  0  0
 28 31  1  0  0  0  0
 29 28  1  0  0  0  0
M  END
>  <minimizedAffinity>
-5.18950081

$$$$

 OpenBabel03242515193D

 31 32  0  0  0  0  0  0  0  0999 V2000
   37.4510   27.5350   43.5610 C   0  0  0  0  0  0  0  0  0  0  0  0
   37.1540   27.9200   44.5700 H   0  0  0  0  0  0  0  0  0  0  0  0
   36.9170   26.5670   43.4670 H   0  0  0  0  0  0  0  0  0  0  0  0
   37.0330   28.4490   42.4910 C   0  0  0  0  0  0  0  0  0  0  0  0
   37.3640   29.7530   42.2770 C   0  0  0  0  0  0  0  0  0  0  0  0
   36.7090   30.1540   41.1380 C   0  0  0  0  0  0  0  0  0  0  0  0
   36.0050   29.1200   40.6820 N   0  0  0  0  0  0  0  0  0  0  0  0
   36.2110   28.1000   41.5090 N   0  0  0  0  0  0  0  0  0  0  0  0
   38.0170   30.3490   42.8910 H   0  0  0  0  0  0  0  0  0  0  0  0
   35.1430   29.0660   39.4900 C   0  0  0  0  0  0  0  0  0  0  0  0
   35.6290   29.9420   38.5080 F   0  0  0  0  0  0  0  0  0  0  0  0
   33.8450   29.3280   39.8480 F   0  0  0  0  0  0  0  0  0  0  0  0
   35.2120   27.7930   38.9640 F   0  0  0  0  0  0  0  0  0  0  0  0
   36.7790   31.4840   40.5420 C   0  0  0  0  0  0  0  0  0  0  0  0
   35.9650   32.1900   40.6560 H   0  0  0  0  0  0  0  0  0  0  0  0
   37.7610   31.9030   39.8700 O   0  0  0  0  0  0  0  0  0  0  0  0
   38.9290   27.2300   43.4950 C   0  0  0  0  0  0  0  0  0  0  0  0
   39.5370   28.1600   43.3130 H   0  0  0  0  0  0  0  0  0  0  0  0
   39.2110   26.8710   44.4750 H   0  0  0  0  0  0  0  0  0  0  0  0
   40.6080   25.3320   40.7670 C   0  0  0  0  0  0  0  0  0  0  0  0
   39.5510   24.4710   40.3570 C   0  0  0  0  0  0  0  0  0  0  0  0
   38.3510   24.5920   41.0290 C   0  0  0  0  0  0  0  0  0  0  0  0
   38.2900   25.5090   42.0050 N   0  0  0  0  0  0  0  0  0  0  0  0
   39.2780   26.3130   42.3870 C   0  0  0  0  0  0  0  0  0  0  0  0
   40.4340   26.2150   41.7590 N   0  0  0  0  0  0  0  0  0  0  0  0
   41.5530   25.2370   40.2380 H   0  0  0  0  0  0  0  0  0  0  0  0
   39.6710   23.7520   39.5580 H   0  0  0  0  0  0  0  0  0  0  0  0
   37.2640   23.7090   40.6110 C   0  0  0  0  0  0  0  0  0  0  0  0
   36.1470   23.9230   41.4210 F   0  0  0  0  0  0  0  0  0  0  0  0
   37.6730   22.4120   40.9280 F   0  0  0  0  0  0  0  0  0  0  0  0
   36.9300   23.8600   39.2990 F   0  0  0  0  0  0  0  0  0  0  0  0
  1  2  1  0  0  0  0
  3  1  1  0  0  0  0
  4  1  1  0  0  0  0
  5  4  1  0  0  0  0
  5  9  1  0  0  0  0
  6  5  2  0  0  0  0
  7  6  1  0  0  0  0
  7  8  1  0  0  0  0
  8  4  2  0  0  0  0
 10 12  1  0  0  0  0
 10  7  1  0  0  0  0
 11 10  1  0  0  0  0
 13 10  1  0  0  0  0
 14 15  1  0  0  0  0
 14  6  1  0  0  0  0
 16 14  2  0  0  0  0
 17  1  1  0  0  0  0
 17 19  1  0  0  0  0
 18 17  1  0  0  0  0
 20 25  1  0  0  0  0
 21 20  2  0  0  0  0
 21 22  1  0  0  0  0
 22 23  2  0  0  0  0
 23 24  1  0  0  0  0
 24 17  1  0  0  0  0
 25 24  2  0  0  0  0
 26 20  1  0  0  0  0
 27 21  1  0  0  0  0
 28 30  1  0  0  0  0
 28 22  1  0  0  0  0
 28 29  1  0  0  0  0
 31 28  1  0  0  0  0
M  END
>  <minimizedAffinity>
-5.16912603

$$$$

 OpenBabel03242515193D

 31 32  0  0  0  0  0  0  0  0999 V2000
   37.7130   28.5860   43.6790 C   0  0  0  0  0  0  0  0  0  0  0  0
   38.6310   28.1940   44.1880 H   0  0  0  0  0  0  0  0  0  0  0  0
   37.1450   29.0910   44.4880 H   0  0  0  0  0  0  0  0  0  0  0  0
   38.0520   29.5480   42.6230 C   0  0  0  0  0  0  0  0  0  0  0  0
   39.2110   30.2270   42.3990 C   0  0  0  0  0  0  0  0  0  0  0  0
   39.0160   31.0020   41.2830 C   0  0  0  0  0  0  0  0  0  0  0  0
   37.7750   30.7950   40.8490 N   0  0  0  0  0  0  0  0  0  0  0  0
   37.2060   29.9150   41.6690 N   0  0  0  0  0  0  0  0  0  0  0  0
   40.1080   30.1610   42.9920 H   0  0  0  0  0  0  0  0  0  0  0  0
   37.1070   31.4010   39.6840 C   0  0  0  0  0  0  0  0  0  0  0  0
   37.8140   31.0900   38.5130 F   0  0  0  0  0  0  0  0  0  0  0  0
   36.9690   32.7500   39.8850 F   0  0  0  0  0  0  0  0  0  0  0  0
   35.8550   30.8370   39.5620 F   0  0  0  0  0  0  0  0  0  0  0  0
   40.0040   31.8940   40.6850 C   0  0  0  0  0  0  0  0  0  0  0  0
   40.7840   31.5100   40.0390 H   0  0  0  0  0  0  0  0  0  0  0  0
   40.0260   33.1430   40.8660 O   0  0  0  0  0  0  0  0  0  0  0  0
   36.8420   27.4660   43.1620 C   0  0  0  0  0  0  0  0  0  0  0  0
   36.1900   27.0390   43.9750 H   0  0  0  0  0  0  0  0  0  0  0  0
   36.1730   27.9100   42.4380 H   0  0  0  0  0  0  0  0  0  0  0  0
   39.4410   24.9040   42.4240 C   0  0  0  0  0  0  0  0  0  0  0  0
   38.7570   24.1020   41.4680 C   0  0  0  0  0  0  0  0  0  0  0  0
   37.4700   24.4830   41.1410 C   0  0  0  0  0  0  0  0  0  0  0  0
   36.9830   25.5720   41.7540 N   0  0  0  0  0  0  0  0  0  0  0  0
   37.6240   26.3200   42.6470 C   0  0  0  0  0  0  0  0  0  0  0  0
   38.8550   25.9750   42.9750 N   0  0  0  0  0  0  0  0  0  0  0  0
   40.4540   24.6050   42.6820 H   0  0  0  0  0  0  0  0  0  0  0  0
   39.2120   23.2350   41.0120 H   0  0  0  0  0  0  0  0  0  0  0  0
   36.7640   23.6620   40.1600 C   0  0  0  0  0  0  0  0  0  0  0  0
   35.4200   23.5490   40.5220 F   0  0  0  0  0  0  0  0  0  0  0  0
   37.2670   22.3670   40.3020 F   0  0  0  0  0  0  0  0  0  0  0  0
   36.8700   24.1420   38.8900 F   0  0  0  0  0  0  0  0  0  0  0  0
  1  2  1  0  0  0  0
  1  3  1  0  0  0  0
  4  1  1  0  0  0  0
  5  4  1  0  0  0  0
  5  9  1  0  0  0  0
  6  5  2  0  0  0  0
  7  6  1  0  0  0  0
  7  8  1  0  0  0  0
  8  4  2  0  0  0  0
 10 12  1  0  0  0  0
 10  7  1  0  0  0  0
 11 10  1  0  0  0  0
 13 10  1  0  0  0  0
 14 16  2  0  0  0  0
 14  6  1  0  0  0  0
 15 14  1  0  0  0  0
 17  1  1  0  0  0  0
 17 18  1  0  0  0  0
 19 17  1  0  0  0  0
 20 26  1  0  0  0  0
 20 25  1  0  0  0  0
 21 20  2  0  0  0  0
 22 21  1  0  0  0  0
 22 23  2  0  0  0  0
 23 24  1  0  0  0  0
 24 25  2  0  0  0  0
 24 17  1  0  0  0  0
 27 21  1  0  0  0  0
 28 30  1  0  0  0  0
 28 29  1  0  0  0  0
 28 22  1  0  0  0  0
 31 28  1  0  0  0  0
M  END
>  <minimizedAffinity>
-5.16107512

$$$$

 OpenBabel03242515193D

 31 32  0  0  0  0  0  0  0  0999 V2000
   38.7410   29.2880   42.9000 C   0  0  0  0  0  0  0  0  0  0  0  0
   38.4380   29.6240   43.9250 H   0  0  0  0  0  0  0  0  0  0  0  0
   37.9490   28.5710   42.6000 H   0  0  0  0  0  0  0  0  0  0  0  0
   38.7870   30.4120   41.9570 C   0  0  0  0  0  0  0  0  0  0  0  0
   39.6700   31.4460   41.8740 C   0  0  0  0  0  0  0  0  0  0  0  0
   39.2760   32.2290   40.8160 C   0  0  0  0  0  0  0  0  0  0  0  0
   38.1890   31.6800   40.2800 N   0  0  0  0  0  0  0  0  0  0  0  0
   37.9070   30.5850   40.9790 N   0  0  0  0  0  0  0  0  0  0  0  0
   40.5150   31.6110   42.5210 H   0  0  0  0  0  0  0  0  0  0  0  0
   37.4070   32.1570   39.1260 C   0  0  0  0  0  0  0  0  0  0  0  0
   38.2070   32.1590   37.9740 F   0  0  0  0  0  0  0  0  0  0  0  0
   36.8720   33.3870   39.4110 F   0  0  0  0  0  0  0  0  0  0  0  0
   36.3800   31.2640   38.9020 F   0  0  0  0  0  0  0  0  0  0  0  0
   39.9410   33.4480   40.3680 C   0  0  0  0  0  0  0  0  0  0  0  0
   39.4290   34.1630   39.7370 H   0  0  0  0  0  0  0  0  0  0  0  0
   41.1270   33.7550   40.6710 O   0  0  0  0  0  0  0  0  0  0  0  0
   40.0410   28.5210   42.9280 C   0  0  0  0  0  0  0  0  0  0  0  0
   40.6950   28.7820   42.0490 H   0  0  0  0  0  0  0  0  0  0  0  0
   40.5720   28.8520   43.8090 H   0  0  0  0  0  0  0  0  0  0  0  0
   40.3220   24.8170   43.1940 C   0  0  0  0  0  0  0  0  0  0  0  0
   39.1490   24.4140   42.4950 C   0  0  0  0  0  0  0  0  0  0  0  0
   38.3500   25.4180   41.9850 C   0  0  0  0  0  0  0  0  0  0  0  0
   38.7500   26.6800   42.1940 N   0  0  0  0  0  0  0  0  0  0  0  0
   39.8470   27.0560   42.8470 C   0  0  0  0  0  0  0  0  0  0  0  0
   40.6250   26.1130   43.3430 N   0  0  0  0  0  0  0  0  0  0  0  0
   40.9510   24.0270   43.5950 H   0  0  0  0  0  0  0  0  0  0  0  0
   38.8860   23.3740   42.3630 H   0  0  0  0  0  0  0  0  0  0  0  0
   37.1450   25.0070   41.2680 C   0  0  0  0  0  0  0  0  0  0  0  0
   36.2570   24.3920   42.1530 F   0  0  0  0  0  0  0  0  0  0  0  0
   37.5360   23.9800   40.4060 F   0  0  0  0  0  0  0  0  0  0  0  0
   36.5300   26.0400   40.6270 F   0  0  0  0  0  0  0  0  0  0  0  0
  1 17  1  0  0  0  0
  1  2  1  0  0  0  0
  3  1  1  0  0  0  0
  4  1  1  0  0  0  0
  5  4  1  0  0  0  0
  5  9  1  0  0  0  0
  6  5  2  0  0  0  0
  7  6  1  0  0  0  0
  7  8  1  0  0  0  0
  8  4  2  0  0  0  0
 10 12  1  0  0  0  0
 10  7  1  0  0  0  0
 11 10  1  0  0  0  0
 13 10  1  0  0  0  0
 14 16  2  0  0  0  0
 14  6  1  0  0  0  0
 15 14  1  0  0  0  0
 17 19  1  0  0  0  0
 18 17  1  0  0  0  0
 20 25  1  0  0  0  0
 20 26  1  0  0  0  0
 21 20  2  0  0  0  0
 22 23  2  0  0  0  0
 22 21  1  0  0  0  0
 23 24  1  0  0  0  0
 24 17  1  0  0  0  0
 24 25  2  0  0  0  0
 27 21  1  0  0  0  0
 28 22  1  0  0  0  0
 28 29  1  0  0  0  0
 30 28  1  0  0  0  0
 31 28  1  0  0  0  0
M  END
>  <minimizedAffinity>
-5.15921593

$$$$

 OpenBabel03242515193D

 31 32  0  0  0  0  0  0  0  0999 V2000
   36.1500   29.7230   37.5820 C   0  0  0  0  0  0  0  0  0  0  0  0
   35.4950   30.1850   36.8010 H   0  0  0  0  0  0  0  0  0  0  0  0
   36.6440   28.8760   37.0620 H   0  0  0  0  0  0  0  0  0  0  0  0
   37.1580   30.6720   38.0710 C   0  0  0  0  0  0  0  0  0  0  0  0
   37.0200   31.7390   38.9070 C   0  0  0  0  0  0  0  0  0  0  0  0
   38.2640   32.3020   39.0520 C   0  0  0  0  0  0  0  0  0  0  0  0
   39.1240   31.5930   38.3250 N   0  0  0  0  0  0  0  0  0  0  0  0
   38.4410   30.6140   37.7390 N   0  0  0  0  0  0  0  0  0  0  0  0
   36.1020   32.0710   39.3630 H   0  0  0  0  0  0  0  0  0  0  0  0
   40.5720   31.8110   38.1640 C   0  0  0  0  0  0  0  0  0  0  0  0
   41.0890   30.9120   37.2190 F   0  0  0  0  0  0  0  0  0  0  0  0
   41.1880   31.7180   39.3860 F   0  0  0  0  0  0  0  0  0  0  0  0
   40.7650   33.0800   37.6620 F   0  0  0  0  0  0  0  0  0  0  0  0
   38.5770   33.4730   39.8640 C   0  0  0  0  0  0  0  0  0  0  0  0
   38.5810   34.4660   39.4330 H   0  0  0  0  0  0  0  0  0  0  0  0
   38.8560   33.4230   41.0940 O   0  0  0  0  0  0  0  0  0  0  0  0
   35.3390   29.1320   38.7110 C   0  0  0  0  0  0  0  0  0  0  0  0
   35.0860   29.9050   39.4900 H   0  0  0  0  0  0  0  0  0  0  0  0
   34.3990   28.8180   38.2790 H   0  0  0  0  0  0  0  0  0  0  0  0
   37.1680   26.0550   39.7370 C   0  0  0  0  0  0  0  0  0  0  0  0
   37.3630   26.3140   41.1220 C   0  0  0  0  0  0  0  0  0  0  0  0
   36.8640   27.5060   41.6110 C   0  0  0  0  0  0  0  0  0  0  0  0
   36.2430   28.3090   40.7360 N   0  0  0  0  0  0  0  0  0  0  0  0
   36.0610   28.0650   39.4410 C   0  0  0  0  0  0  0  0  0  0  0  0
   36.5300   26.9330   38.9520 N   0  0  0  0  0  0  0  0  0  0  0  0
   37.5610   25.1170   39.3520 H   0  0  0  0  0  0  0  0  0  0  0  0
   37.8750   25.6190   41.7720 H   0  0  0  0  0  0  0  0  0  0  0  0
   37.0630   27.7760   43.0330 C   0  0  0  0  0  0  0  0  0  0  0  0
   38.0620   26.9390   43.5360 F   0  0  0  0  0  0  0  0  0  0  0  0
   35.9000   27.3450   43.6770 F   0  0  0  0  0  0  0  0  0  0  0  0
   37.3660   29.0780   43.2900 F   0  0  0  0  0  0  0  0  0  0  0  0
  1  4  1  0  0  0  0
  1 17  1  0  0  0  0
  2  1  1  0  0  0  0
  3  1  1  0  0  0  0
  4  5  1  0  0  0  0
  5  6  2  0  0  0  0
  5  9  1  0  0  0  0
  6 14  1  0  0  0  0
  7  6  1  0  0  0  0
  8  4  2  0  0  0  0
  8  7  1  0  0  0  0
 10  7  1  0  0  0  0
 10 12  1  0  0  0  0
 11 10  1  0  0  0  0
 13 10  1  0  0  0  0
 14 16  2  0  0  0  0
 15 14  1  0  0  0  0
 17 24  1  0  0  0  0
 17 18  1  0  0  0  0
 19 17  1  0  0  0  0
 20 21  1  0  0  0  0
 21 22  2  0  0  0  0
 21 27  1  0  0  0  0
 22 28  1  0  0  0  0
 23 22  1  0  0  0  0
 24 23  2  0  0  0  0
 25 24  1  0  0  0  0
 25 20  2  0  0  0  0
 26 20  1  0  0  0  0
 28 31  1  0  0  0  0
 28 29  1  0  0  0  0
 28 30  1  0  0  0  0
M  END
>  <minimizedAffinity>
-5.14258814

$$$$

 OpenBabel03242515193D

 31 32  0  0  0  0  0  0  0  0999 V2000
   36.0990   29.8120   38.7630 C   0  0  0  0  0  0  0  0  0  0  0  0
   35.4140   29.4260   37.9650 H   0  0  0  0  0  0  0  0  0  0  0  0
   35.5110   30.6040   39.2710 H   0  0  0  0  0  0  0  0  0  0  0  0
   36.4590   28.7590   39.7200 C   0  0  0  0  0  0  0  0  0  0  0  0
   36.7270   27.4400   39.5070 C   0  0  0  0  0  0  0  0  0  0  0  0
   37.0120   26.8840   40.7300 C   0  0  0  0  0  0  0  0  0  0  0  0
   36.9170   27.8410   41.6510 N   0  0  0  0  0  0  0  0  0  0  0  0
   36.5830   28.9660   41.0250 N   0  0  0  0  0  0  0  0  0  0  0  0
   36.7160   26.9370   38.5550 H   0  0  0  0  0  0  0  0  0  0  0  0
   37.1310   27.7270   43.1030 C   0  0  0  0  0  0  0  0  0  0  0  0
   36.1070   26.9600   43.6790 F   0  0  0  0  0  0  0  0  0  0  0  0
   37.2370   28.9790   43.6510 F   0  0  0  0  0  0  0  0  0  0  0  0
   38.3120   27.0460   43.3140 F   0  0  0  0  0  0  0  0  0  0  0  0
   37.3560   25.4860   40.9680 C   0  0  0  0  0  0  0  0  0  0  0  0
   38.3140   25.0860   40.6570 H   0  0  0  0  0  0  0  0  0  0  0  0
   36.5910   24.6590   41.5360 O   0  0  0  0  0  0  0  0  0  0  0  0
   37.3190   30.4790   38.1740 C   0  0  0  0  0  0  0  0  0  0  0  0
   38.2010   29.7790   38.1430 H   0  0  0  0  0  0  0  0  0  0  0  0
   37.0760   30.7070   37.1460 H   0  0  0  0  0  0  0  0  0  0  0  0
   37.6700   33.7510   39.9170 C   0  0  0  0  0  0  0  0  0  0  0  0
   38.9550   33.5990   40.5080 C   0  0  0  0  0  0  0  0  0  0  0  0
   39.6100   32.4050   40.2770 C   0  0  0  0  0  0  0  0  0  0  0  0
   38.9770   31.5000   39.5170 N   0  0  0  0  0  0  0  0  0  0  0  0
   37.7750   31.6450   38.9650 C   0  0  0  0  0  0  0  0  0  0  0  0
   37.1310   32.7760   39.1730 N   0  0  0  0  0  0  0  0  0  0  0  0
   37.1530   34.6900   40.0990 H   0  0  0  0  0  0  0  0  0  0  0  0
   39.4080   34.3730   41.1110 H   0  0  0  0  0  0  0  0  0  0  0  0
   40.9310   32.2440   40.8820 C   0  0  0  0  0  0  0  0  0  0  0  0
   40.7970   31.7100   42.1660 F   0  0  0  0  0  0  0  0  0  0  0  0
   41.4200   33.5350   41.0980 F   0  0  0  0  0  0  0  0  0  0  0  0
   41.7680   31.4720   40.1360 F   0  0  0  0  0  0  0  0  0  0  0  0
  1  3  1  0  0  0  0
  1  4  1  0  0  0  0
  2  1  1  0  0  0  0
  4  8  2  0  0  0  0
  5  4  1  0  0  0  0
  5  6  2  0  0  0  0
  6 14  1  0  0  0  0
  6  7  1  0  0  0  0
  7 10  1  0  0  0  0
  8  7  1  0  0  0  0
  9  5  1  0  0  0  0
 10 13  1  0  0  0  0
 10 12  1  0  0  0  0
 10 11  1  0  0  0  0
 14 16  2  0  0  0  0
 15 14  1  0  0  0  0
 17  1  1  0  0  0  0
 17 24  1  0  0  0  0
 18 17  1  0  0  0  0
 19 17  1  0  0  0  0
 20 26  1  0  0  0  0
 20 21  1  0  0  0  0
 21 27  1  0  0  0  0
 22 21  2  0  0  0  0
 22 28  1  0  0  0  0
 23 22  1  0  0  0  0
 24 25  1  0  0  0  0
 24 23  2  0  0  0  0
 25 20  2  0  0  0  0
 28 30  1  0  0  0  0
 28 29  1  0  0  0  0
 31 28  1  0  0  0  0
M  END
>  <minimizedAffinity>
-5.09621286

$$$$

 OpenBabel03242515193D

 31 32  0  0  0  0  0  0  0  0999 V2000
   35.4890   29.1380   40.6800 C   0  0  0  0  0  0  0  0  0  0  0  0
   35.3960   28.5180   41.6070 H   0  0  0  0  0  0  0  0  0  0  0  0
   34.5210   29.6760   40.6110 H   0  0  0  0  0  0  0  0  0  0  0  0
   36.5950   30.0990   40.7820 C   0  0  0  0  0  0  0  0  0  0  0  0
   37.7650   30.0130   41.4740 C   0  0  0  0  0  0  0  0  0  0  0  0
   38.4580   31.1750   41.2410 C   0  0  0  0  0  0  0  0  0  0  0  0
   37.7250   31.9370   40.4320 N   0  0  0  0  0  0  0  0  0  0  0  0
   36.6040   31.2730   40.1650 N   0  0  0  0  0  0  0  0  0  0  0  0
   38.0790   29.1850   42.0870 H   0  0  0  0  0  0  0  0  0  0  0  0
   38.0490   33.2720   39.9030 C   0  0  0  0  0  0  0  0  0  0  0  0
   36.9200   33.8270   39.2810 F   0  0  0  0  0  0  0  0  0  0  0  0
   39.1340   33.1850   39.0680 F   0  0  0  0  0  0  0  0  0  0  0  0
   38.3680   34.0920   40.9650 F   0  0  0  0  0  0  0  0  0  0  0  0
   39.7690   31.5070   41.7900 C   0  0  0  0  0  0  0  0  0  0  0  0
   40.4480   32.1610   41.2560 H   0  0  0  0  0  0  0  0  0  0  0  0
   40.2000   31.0740   42.8940 O   0  0  0  0  0  0  0  0  0  0  0  0
   35.6040   28.2780   39.4440 C   0  0  0  0  0  0  0  0  0  0  0  0
   34.6900   27.6360   39.2980 H   0  0  0  0  0  0  0  0  0  0  0  0
   35.6360   28.9550   38.6030 H   0  0  0  0  0  0  0  0  0  0  0  0
   38.7540   26.3700   38.8950 C   0  0  0  0  0  0  0  0  0  0  0  0
   38.6610   25.4040   39.9360 C   0  0  0  0  0  0  0  0  0  0  0  0
   37.5450   25.4640   40.7460 C   0  0  0  0  0  0  0  0  0  0  0  0
   36.6510   26.4270   40.4790 N   0  0  0  0  0  0  0  0  0  0  0  0
   36.7390   27.3300   39.5060 C   0  0  0  0  0  0  0  0  0  0  0  0
   37.7970   27.2910   38.7200 N   0  0  0  0  0  0  0  0  0  0  0  0
   39.6330   26.3230   38.2570 H   0  0  0  0  0  0  0  0  0  0  0  0
   39.4220   24.6520   40.0940 H   0  0  0  0  0  0  0  0  0  0  0  0
   37.4460   24.4740   41.8160 C   0  0  0  0  0  0  0  0  0  0  0  0
   38.6320   24.4570   42.5530 F   0  0  0  0  0  0  0  0  0  0  0  0
   37.4150   23.2260   41.1890 F   0  0  0  0  0  0  0  0  0  0  0  0
   36.3830   24.6860   42.6410 F   0  0  0  0  0  0  0  0  0  0  0  0
  1  4  1  0  0  0  0
  1  2  1  0  0  0  0
  3  1  1  0  0  0  0
  4  5  1  0  0  0  0
  5  9  1  0  0  0  0
  6  5  2  0  0  0  0
  6 14  1  0  0  0  0
  7  6  1  0  0  0  0
  8  7  1  0  0  0  0
  8  4  2  0  0  0  0
 10  7  1  0  0  0  0
 10 13  1  0  0  0  0
 11 10  1  0  0  0  0
 12 10  1  0  0  0  0
 14 16  2  0  0  0  0
 15 14  1  0  0  0  0
 17 24  1  0  0  0  0
 17  1  1  0  0  0  0
 18 17  1  0  0  0  0
 19 17  1  0  0  0  0
 20 21  1  0  0  0  0
 21 27  1  0  0  0  0
 21 22  2  0  0  0  0
 22 28  1  0  0  0  0
 23 22  1  0  0  0  0
 24 23  2  0  0  0  0
 25 20  2  0  0  0  0
 25 24  1  0  0  0  0
 26 20  1  0  0  0  0
 28 29  1  0  0  0  0
 28 31  1  0  0  0  0
 30 28  1  0  0  0  0
M  END
>  <minimizedAffinity>
-5.07184172

$$$$
