
 OpenBabel03252509233D

 21 22  0  0  1  0  0  0  0  0999 V2000
   44.6890   35.3080   45.1100 C   0  0  0  0  0  0  0  0  0  0  0  0
   45.1620   35.6450   43.8150 C   0  0  0  0  0  0  0  0  0  0  0  0
   46.1580   34.8300   43.3390 C   0  0  0  0  0  0  0  0  0  0  0  0
   46.6420   33.7720   44.0920 N   0  0  0  0  0  0  0  0  0  0  0  0
   46.1590   33.4970   45.3090 C   0  0  0  0  0  0  0  0  0  0  0  0
   45.1700   34.2760   45.8250 N   0  0  0  0  0  0  0  0  0  0  0  0
   43.9060   35.9190   45.5290 H   0  0  0  0  0  0  0  0  0  0  0  0
   46.6570   32.6420   45.7330 H   0  0  0  0  0  0  0  0  0  0  0  0
   46.6770   35.0760   41.9410 C   0  0  1  0  0  0  0  0  0  0  0  0
   48.1940   35.4100   41.9810 C   0  0  0  0  0  0  0  0  0  0  0  0
   47.5620   34.1260   41.3680 C   0  0  2  0  0  0  0  0  0  0  0  0
   46.0990   35.8270   41.3760 H   0  0  0  0  0  0  0  0  0  0  0  0
   48.5730   36.1050   41.2270 H   0  0  0  0  0  0  0  0  0  0  0  0
   48.7450   35.2970   42.9080 H   0  0  0  0  0  0  0  0  0  0  0  0
   47.9230   33.2000   41.8460 H   0  0  0  0  0  0  0  0  0  0  0  0
   47.5780   34.0350   39.8610 C   0  0  0  0  0  0  0  0  0  0  0  0
   47.0080   34.7190   39.2110 H   0  0  0  0  0  0  0  0  0  0  0  0
   48.2420   33.1760   39.2710 O   0  0  0  0  0  0  0  0  0  0  0  0
   44.6650   36.7530   43.0670 N   0  0  0  0  0  0  0  0  0  0  0  0
   43.6700   36.6950   42.7260 H   0  0  0  0  0  0  0  0  0  0  0  0
   45.1180   37.6490   42.7800 H   0  0  0  0  0  0  0  0  0  0  0  0
  1  7  1  0  0  0  0
  1  6  1  0  0  0  0
  2  1  2  0  0  0  0
  3  2  1  0  0  0  0
  3  4  2  0  0  0  0
  4  5  1  0  0  0  0
  5  8  1  0  0  0  0
  5  6  2  0  0  0  0
  9 12  1  6  0  0  0
  9 10  1  0  0  0  0
  9  3  1  0  0  0  0
 10 14  1  0  0  0  0
 11 15  1  1  0  0  0
 11  9  1  0  0  0  0
 11 10  1  0  0  0  0
 13 10  1  0  0  0  0
 16 11  1  0  0  0  0
 17 16  1  0  0  0  0
 18 16  2  0  0  0  0
 19  2  1  0  0  0  0
 20 19  1  0  0  0  0
 21 19  1  0  0  0  0
M  END
>  <minimizedAffinity>
-4.15012312

>  <minimizedRMSD>
0.258629411

$$$$
