
 OpenBabel03252505383D

 15 15  0  0  0  0  0  0  0  0999 V2000
   45.3630   34.5330   44.8470 C   0  0  0  0  0  0  0  0  0  0  0  0
   46.1920   34.0510   43.8200 C   0  0  0  0  0  0  0  0  0  0  0  0
   47.0590   33.0040   44.1430 C   0  0  0  0  0  0  0  0  0  0  0  0
   47.0560   32.5160   45.4040 N   0  0  0  0  0  0  0  0  0  0  0  0
   46.2430   33.0090   46.3630 C   0  0  0  0  0  0  0  0  0  0  0  0
   45.4050   34.0130   46.0710 N   0  0  0  0  0  0  0  0  0  0  0  0
   46.1730   34.4570   42.8240 H   0  0  0  0  0  0  0  0  0  0  0  0
   47.7220   32.5850   43.4060 H   0  0  0  0  0  0  0  0  0  0  0  0
   46.3980   32.3350   47.6780 C   0  0  0  0  0  0  0  0  0  0  0  0
   45.4630   32.7560   48.5880 F   0  0  0  0  0  0  0  0  0  0  0  0
   47.6670   32.6170   48.2050 F   0  0  0  0  0  0  0  0  0  0  0  0
   46.3800   30.9640   47.5150 F   0  0  0  0  0  0  0  0  0  0  0  0
   44.4530   35.6250   44.5200 C   0  0  0  0  0  0  0  0  0  0  0  0
   43.3860   35.4290   44.4850 H   0  0  0  0  0  0  0  0  0  0  0  0
   44.8620   36.7930   44.2740 O   0  0  0  0  0  0  0  0  0  0  0  0
  1  6  1  0  0  0  0
  2  3  1  0  0  0  0
  2  1  2  0  0  0  0
  3  4  2  0  0  0  0
  4  5  1  0  0  0  0
  5  9  1  0  0  0  0
  6  5  2  0  0  0  0
  7  2  1  0  0  0  0
  8  3  1  0  0  0  0
  9 11  1  0  0  0  0
  9 10  1  0  0  0  0
 12  9  1  0  0  0  0
 13  1  1  0  0  0  0
 14 13  1  0  0  0  0
 15 13  2  0  0  0  0
M  END
>  <minimizedAffinity>
-3.91653562

>  <minimizedRMSD>
1.72836781

$$$$
