
 OpenBabel03252508533D

 37 39  0  0  1  0  0  0  0  0999 V2000
   43.2970   34.4110   40.7650 C   0  0  0  0  0  0  0  0  0  0  0  0
   43.2280   35.6140   40.3870 O   0  0  0  0  0  0  0  0  0  0  0  0
   41.9540   33.9850   40.4680 N   0  0  0  0  0  0  0  0  0  0  0  0
   41.5670   34.0950   39.0820 C   0  0  0  0  0  0  0  0  0  0  0  0
   40.7310   35.3780   39.0000 C   0  0  0  0  0  0  0  0  0  0  0  0
   39.9480   35.4660   40.3040 C   0  0  0  0  0  0  0  0  0  0  0  0
   39.6280   34.0800   40.8590 C   0  0  0  0  0  0  0  0  0  0  0  0
   40.9280   33.4560   41.3800 C   0  0  1  0  0  0  0  0  0  0  0  0
   42.4070   34.1050   38.3890 H   0  0  0  0  0  0  0  0  0  0  0  0
   40.8740   33.2510   38.8220 H   0  0  0  0  0  0  0  0  0  0  0  0
   41.3460   36.2640   38.8330 H   0  0  0  0  0  0  0  0  0  0  0  0
   39.9680   35.2220   38.2000 H   0  0  0  0  0  0  0  0  0  0  0  0
   40.5530   36.0010   41.0470 H   0  0  0  0  0  0  0  0  0  0  0  0
   38.9590   35.9440   40.0960 H   0  0  0  0  0  0  0  0  0  0  0  0
   38.9590   34.2750   41.7290 H   0  0  0  0  0  0  0  0  0  0  0  0
   39.1220   33.4350   40.1370 H   0  0  0  0  0  0  0  0  0  0  0  0
   41.1270   33.8960   42.3770 H   0  0  0  0  0  0  0  0  0  0  0  0
   40.8840   31.9860   41.3740 C   0  0  0  0  0  0  0  0  0  0  0  0
   41.0060   31.4870   40.4000 H   0  0  0  0  0  0  0  0  0  0  0  0
   40.7130   31.3890   42.4450 O   0  0  0  0  0  0  0  0  0  0  0  0
   44.3820   33.7680   41.2950 O   0  0  0  0  0  0  0  0  0  0  0  0
   45.7090   34.1040   41.1310 C   0  0  0  0  0  0  0  0  0  0  0  0
   46.3440   34.7390   42.1950 C   0  0  0  0  0  0  0  0  0  0  0  0
   47.7040   35.0710   42.0000 C   0  0  0  0  0  0  0  0  0  0  0  0
   48.2880   34.7570   40.8120 N   0  0  0  0  0  0  0  0  0  0  0  0
   47.6210   34.1460   39.8310 C   0  0  0  0  0  0  0  0  0  0  0  0
   46.3300   33.8170   39.9840 N   0  0  0  0  0  0  0  0  0  0  0  0
   48.2240   35.5650   42.8080 H   0  0  0  0  0  0  0  0  0  0  0  0
   48.1370   33.9200   38.9050 H   0  0  0  0  0  0  0  0  0  0  0  0
   45.6310   35.0260   43.4110 C   0  0  0  0  0  0  0  0  0  0  0  0
   44.9910   36.2370   43.6500 C   0  0  0  0  0  0  0  0  0  0  0  0
   44.4480   36.0860   44.9070 C   0  0  0  0  0  0  0  0  0  0  0  0
   44.7380   34.8630   45.4010 N   0  0  0  0  0  0  0  0  0  0  0  0
   45.4430   34.2610   44.4820 N   0  0  0  0  0  0  0  0  0  0  0  0
   44.9170   37.0990   43.0330 H   0  0  0  0  0  0  0  0  0  0  0  0
   43.8630   36.8120   45.4650 H   0  0  0  0  0  0  0  0  0  0  0  0
   44.4590   34.4650   46.3310 H   0  0  0  0  0  0  0  0  0  0  0  0
  1 21  1  0  0  0  0
  2  1  2  0  0  0  0
  3  1  1  0  0  0  0
  3  8  1  0  0  0  0
  4  3  1  0  0  0  0
  5  4  1  0  0  0  0
  5  6  1  0  0  0  0
  6  7  1  0  0  0  0
  6 13  1  0  0  0  0
  7  8  1  0  0  0  0
  7 15  1  0  0  0  0
  8 17  1  1  0  0  0
  9  4  1  0  0  0  0
 10  4  1  0  0  0  0
 11  5  1  0  0  0  0
 12  5  1  0  0  0  0
 14  6  1  0  0  0  0
 16  7  1  0  0  0  0
 18  8  1  0  0  0  0
 18 20  2  0  0  0  0
 19 18  1  0  0  0  0
 22 21  1  0  0  0  0
 22 23  1  0  0  0  0
 23 30  1  0  0  0  0
 24 23  2  0  0  0  0
 24 28  1  0  0  0  0
 25 24  1  0  0  0  0
 26 27  1  0  0  0  0
 26 25  2  0  0  0  0
 27 22  2  0  0  0  0
 29 26  1  0  0  0  0
 30 31  1  0  0  0  0
 30 34  2  0  0  0  0
 31 32  2  0  0  0  0
 32 33  1  0  0  0  0
 32 36  1  0  0  0  0
 33 37  1  0  0  0  0
 34 33  1  0  0  0  0
 35 31  1  0  0  0  0
M  END
>  <minimizedAffinity>
-6.2015295

>  <minimizedRMSD>
0.26646027

$$$$
