
 OpenBabel03252503503D

 15 15  0  0  0  0  0  0  0  0999 V2000
   47.5960   34.9710   42.3360 C   0  0  0  0  0  0  0  0  0  0  0  0
   47.8100   33.9630   43.2920 C   0  0  0  0  0  0  0  0  0  0  0  0
   46.7540   33.6470   44.1500 C   0  0  0  0  0  0  0  0  0  0  0  0
   45.5960   34.3260   44.0090 N   0  0  0  0  0  0  0  0  0  0  0  0
   45.4150   35.2890   43.0840 C   0  0  0  0  0  0  0  0  0  0  0  0
   46.4230   35.6040   42.2520 N   0  0  0  0  0  0  0  0  0  0  0  0
   48.7500   33.4430   43.3740 H   0  0  0  0  0  0  0  0  0  0  0  0
   44.4390   35.7930   43.0370 H   0  0  0  0  0  0  0  0  0  0  0  0
   48.7560   35.2870   41.4270 C   0  0  0  0  0  0  0  0  0  0  0  0
   48.4100   35.2150   40.1070 F   0  0  0  0  0  0  0  0  0  0  0  0
   49.2100   36.5660   41.7560 F   0  0  0  0  0  0  0  0  0  0  0  0
   49.8150   34.4320   41.7300 F   0  0  0  0  0  0  0  0  0  0  0  0
   46.9720   32.6020   45.1430 C   0  0  0  0  0  0  0  0  0  0  0  0
   47.2460   31.6010   44.8280 H   0  0  0  0  0  0  0  0  0  0  0  0
   46.8550   32.8100   46.3710 O   0  0  0  0  0  0  0  0  0  0  0  0
  1  2  1  0  0  0  0
  2  7  1  0  0  0  0
  2  3  2  0  0  0  0
  3 13  1  0  0  0  0
  4  3  1  0  0  0  0
  5  4  2  0  0  0  0
  6  1  2  0  0  0  0
  6  5  1  0  0  0  0
  8  5  1  0  0  0  0
  9 12  1  0  0  0  0
  9 11  1  0  0  0  0
  9  1  1  0  0  0  0
 10  9  1  0  0  0  0
 13 15  2  0  0  0  0
 14 13  1  0  0  0  0
M  END
>  <minimizedAffinity>
-4.15107632

>  <minimizedRMSD>
0.167612731

$$$$
