
 OpenBabel03252508123D

 24 25  0  0  1  0  0  0  0  0999 V2000
   37.9150   28.0020   43.3910 C   0  0  0  0  0  0  0  0  0  0  0  0
   38.9640   27.7180   43.1770 H   0  0  0  0  0  0  0  0  0  0  0  0
   37.7290   28.2450   44.4650 H   0  0  0  0  0  0  0  0  0  0  0  0
   36.9830   26.9420   42.8560 C   0  0  1  0  0  0  0  0  0  0  0  0
   37.0640   26.5840   41.4190 C   0  0  0  0  0  0  0  0  0  0  0  0
   37.5710   25.6430   42.4260 C   0  0  1  0  0  0  0  0  0  0  0  0
   35.9040   27.0130   43.1870 H   0  0  0  0  0  0  0  0  0  0  0  0
   36.1680   26.3410   40.8070 H   0  0  0  0  0  0  0  0  0  0  0  0
   37.8860   27.1150   40.8540 H   0  0  0  0  0  0  0  0  0  0  0  0
   36.9450   24.7200   42.5660 H   0  0  0  0  0  0  0  0  0  0  0  0
   39.0080   25.4340   42.6560 C   0  0  0  0  0  0  0  0  0  0  0  0
   39.8480   25.8360   42.1280 H   0  0  0  0  0  0  0  0  0  0  0  0
   39.7720   24.8350   43.3930 O   0  0  0  0  0  0  0  0  0  0  0  0
   38.7150   29.8540   42.1090 C   0  0  0  0  0  3  0  0  0  0  0  0
   37.6880   29.3090   42.6760 C   0  0  0  0  0  3  0  0  0  0  0  0
   39.3570   33.1910   40.7330 C   0  0  0  0  0  0  0  0  0  0  0  0
   38.1650   33.4390   39.9980 C   0  0  0  0  0  0  0  0  0  0  0  0
   37.1800   32.4830   40.0000 C   0  0  0  0  0  0  0  0  0  0  0  0
   37.4180   31.3680   40.7050 N   0  0  0  0  0  0  0  0  0  0  0  0
   38.5300   31.1140   41.4000 C   0  0  0  0  0  0  0  0  0  0  0  0
   39.4960   32.0380   41.4080 N   0  0  0  0  0  0  0  0  0  0  0  0
   40.1570   33.9260   40.7550 H   0  0  0  0  0  0  0  0  0  0  0  0
   38.0540   34.3720   39.4530 H   0  0  0  0  0  0  0  0  0  0  0  0
   36.2640   32.5970   39.4760 H   0  0  0  0  0  0  0  0  0  0  0  0
  1  3  1  0  0  0  0
  2  1  1  0  0  0  0
  4  7  1  1  0  0  0
  4  1  1  0  0  0  0
  5  6  1  0  0  0  0
  5  4  1  0  0  0  0
  6 10  1  1  0  0  0
  6 11  1  0  0  0  0
  6  4  1  0  0  0  0
  8  5  1  0  0  0  0
  9  5  1  0  0  0  0
 11 13  2  0  0  0  0
 12 11  1  0  0  0  0
 14 15  2  0  0  0  0
 15  1  1  0  0  0  0
 16 22  1  0  0  0  0
 16 21  1  0  0  0  0
 17 18  1  0  0  0  0
 17 16  2  0  0  0  0
 18 19  2  0  0  0  0
 19 20  1  0  0  0  0
 20 21  2  0  0  0  0
 20 14  1  0  0  0  0
 23 17  1  0  0  0  0
 24 18  1  0  0  0  0
M  END
>  <minimizedAffinity>
-4.03485346

$$$$

 OpenBabel03252508123D

 24 25  0  0  1  0  0  0  0  0999 V2000
   38.9940   28.5180   43.0130 C   0  0  0  0  0  0  0  0  0  0  0  0
   39.4400   27.9820   42.1520 H   0  0  0  0  0  0  0  0  0  0  0  0
   39.7270   28.7540   43.8210 H   0  0  0  0  0  0  0  0  0  0  0  0
   37.7890   27.7590   43.5130 C   0  0  1  0  0  0  0  0  0  0  0  0
   36.5540   27.7650   42.6930 C   0  0  0  0  0  0  0  0  0  0  0  0
   37.3650   26.5430   42.7650 C   0  0  1  0  0  0  0  0  0  0  0  0
   37.5380   27.8860   44.6080 H   0  0  0  0  0  0  0  0  0  0  0  0
   35.5340   27.8030   43.1370 H   0  0  0  0  0  0  0  0  0  0  0  0
   36.6530   28.3070   41.7060 H   0  0  0  0  0  0  0  0  0  0  0  0
   36.9050   25.7060   43.3560 H   0  0  0  0  0  0  0  0  0  0  0  0
   38.2140   26.0950   41.6510 C   0  0  0  0  0  0  0  0  0  0  0  0
   38.7060   26.6710   40.8950 H   0  0  0  0  0  0  0  0  0  0  0  0
   38.6700   25.0780   41.1570 O   0  0  0  0  0  0  0  0  0  0  0  0
   38.9350   30.1630   41.2790 C   0  0  0  0  0  3  0  0  0  0  0  0
   38.5810   29.8690   42.4880 C   0  0  0  0  0  3  0  0  0  0  0  0
   37.1800   32.7260   39.3310 C   0  0  0  0  0  0  0  0  0  0  0  0
   37.8000   33.9200   39.7930 C   0  0  0  0  0  0  0  0  0  0  0  0
   38.7960   33.8230   40.7330 C   0  0  0  0  0  0  0  0  0  0  0  0
   39.1150   32.5910   41.1550 N   0  0  0  0  0  0  0  0  0  0  0  0
   38.5450   31.4580   40.7360 C   0  0  0  0  0  0  0  0  0  0  0  0
   37.5760   31.5380   39.8190 N   0  0  0  0  0  0  0  0  0  0  0  0
   36.3900   32.7630   38.5870 H   0  0  0  0  0  0  0  0  0  0  0  0
   37.4790   34.8790   39.3970 H   0  0  0  0  0  0  0  0  0  0  0  0
   39.3040   34.6690   41.1240 H   0  0  0  0  0  0  0  0  0  0  0  0
  1  4  1  0  0  0  0
  1  3  1  0  0  0  0
  2  1  1  0  0  0  0
  4  7  1  1  0  0  0
  5  6  1  0  0  0  0
  5  8  1  0  0  0  0
  5  4  1  0  0  0  0
  6 10  1  1  0  0  0
  6  4  1  0  0  0  0
  9  5  1  0  0  0  0
 11  6  1  0  0  0  0
 12 11  1  0  0  0  0
 13 11  2  0  0  0  0
 14 15  2  0  0  0  0
 15  1  1  0  0  0  0
 16 17  2  0  0  0  0
 16 21  1  0  0  0  0
 17 18  1  0  0  0  0
 18 24  1  0  0  0  0
 18 19  2  0  0  0  0
 20 19  1  0  0  0  0
 20 14  1  0  0  0  0
 21 20  2  0  0  0  0
 22 16  1  0  0  0  0
 23 17  1  0  0  0  0
M  END
>  <minimizedAffinity>
-3.98621082

$$$$

 OpenBabel03252508123D

 24 25  0  0  1  0  0  0  0  0999 V2000
   37.0890   26.3160   42.9470 C   0  0  0  0  0  0  0  0  0  0  0  0
   38.0650   26.3370   43.4710 H   0  0  0  0  0  0  0  0  0  0  0  0
   36.2120   26.3850   43.6340 H   0  0  0  0  0  0  0  0  0  0  0  0
   37.0300   25.1150   42.0330 C   0  0  1  0  0  0  0  0  0  0  0  0
   37.9190   25.0800   40.8470 C   0  0  0  0  0  0  0  0  0  0  0  0
   38.2090   24.2070   41.9910 C   0  0  1  0  0  0  0  0  0  0  0  0
   35.9970   24.7430   41.7650 H   0  0  0  0  0  0  0  0  0  0  0  0
   37.6020   24.6570   39.8680 H   0  0  0  0  0  0  0  0  0  0  0  0
   38.6250   25.9590   40.7690 H   0  0  0  0  0  0  0  0  0  0  0  0
   38.0140   23.1150   41.8120 H   0  0  0  0  0  0  0  0  0  0  0  0
   39.3120   24.4730   42.9260 C   0  0  0  0  0  0  0  0  0  0  0  0
   39.2810   24.6540   43.9810 H   0  0  0  0  0  0  0  0  0  0  0  0
   40.5240   24.5930   42.9510 O   0  0  0  0  0  0  0  0  0  0  0  0
   37.7040   28.5970   42.5860 C   0  0  0  0  0  3  0  0  0  0  0  0
   37.0260   27.5890   42.1430 C   0  0  0  0  0  3  0  0  0  0  0  0
   36.4810   31.4180   40.5880 C   0  0  0  0  0  0  0  0  0  0  0  0
   37.6470   32.2230   40.4730 C   0  0  0  0  0  0  0  0  0  0  0  0
   38.8090   31.7860   41.0600 C   0  0  0  0  0  0  0  0  0  0  0  0
   38.7580   30.6140   41.7080 N   0  0  0  0  0  0  0  0  0  0  0  0
   37.6730   29.8430   41.8290 C   0  0  0  0  0  0  0  0  0  0  0  0
   36.5370   30.2560   41.2610 N   0  0  0  0  0  0  0  0  0  0  0  0
   35.5440   31.7310   40.1360 H   0  0  0  0  0  0  0  0  0  0  0  0
   37.6010   33.1620   39.9290 H   0  0  0  0  0  0  0  0  0  0  0  0
   39.7180   32.3320   41.0160 H   0  0  0  0  0  0  0  0  0  0  0  0
  1  2  1  0  0  0  0
  1  3  1  0  0  0  0
  4  7  1  6  0  0  0
  4  1  1  0  0  0  0
  5  6  1  0  0  0  0
  5  4  1  0  0  0  0
  6 10  1  6  0  0  0
  6  4  1  0  0  0  0
  6 11  1  0  0  0  0
  8  5  1  0  0  0  0
  9  5  1  0  0  0  0
 11 13  2  0  0  0  0
 11 12  1  0  0  0  0
 15 14  2  0  0  0  0
 15  1  1  0  0  0  0
 16 21  1  0  0  0  0
 17 16  2  0  0  0  0
 17 18  1  0  0  0  0
 18 19  2  0  0  0  0
 19 20  1  0  0  0  0
 20 14  1  0  0  0  0
 21 20  2  0  0  0  0
 22 16  1  0  0  0  0
 23 17  1  0  0  0  0
 24 18  1  0  0  0  0
M  END
>  <minimizedAffinity>
-3.95572495

$$$$

 OpenBabel03252508123D

 24 25  0  0  1  0  0  0  0  0999 V2000
   37.9550   27.6750   43.3390 C   0  0  0  0  0  0  0  0  0  0  0  0
   38.1040   28.0280   44.3790 H   0  0  0  0  0  0  0  0  0  0  0  0
   37.0390   27.0520   43.2060 H   0  0  0  0  0  0  0  0  0  0  0  0
   39.2100   26.9910   42.8520 C   0  0  1  0  0  0  0  0  0  0  0  0
   39.7940   25.9070   43.6770 C   0  0  0  0  0  0  0  0  0  0  0  0
   39.1110   25.5690   42.4210 C   0  0  1  0  0  0  0  0  0  0  0  0
   40.0230   27.6670   42.4510 H   0  0  0  0  0  0  0  0  0  0  0  0
   40.8910   25.7600   43.7900 H   0  0  0  0  0  0  0  0  0  0  0  0
   39.1900   25.6440   44.5950 H   0  0  0  0  0  0  0  0  0  0  0  0
   39.7900   25.2320   41.5910 H   0  0  0  0  0  0  0  0  0  0  0  0
   37.7760   24.9540   42.3910 C   0  0  0  0  0  0  0  0  0  0  0  0
   36.9650   25.0540   43.0820 H   0  0  0  0  0  0  0  0  0  0  0  0
   37.0950   24.2020   41.7170 O   0  0  0  0  0  0  0  0  0  0  0  0
   38.6830   29.6920   42.2830 C   0  0  0  0  0  3  0  0  0  0  0  0
   37.6810   28.9110   42.5210 C   0  0  0  0  0  3  0  0  0  0  0  0
   37.1130   32.1160   40.0240 C   0  0  0  0  0  0  0  0  0  0  0  0
   38.0390   33.1950   40.0620 C   0  0  0  0  0  0  0  0  0  0  0  0
   39.1660   33.0660   40.8350 C   0  0  0  0  0  0  0  0  0  0  0  0
   39.3140   31.9170   41.5080 N   0  0  0  0  0  0  0  0  0  0  0  0
   38.4560   30.8920   41.4880 C   0  0  0  0  0  0  0  0  0  0  0  0
   37.3550   31.0040   40.7380 N   0  0  0  0  0  0  0  0  0  0  0  0
   36.2100   32.1810   39.4230 H   0  0  0  0  0  0  0  0  0  0  0  0
   37.8410   34.0930   39.4850 H   0  0  0  0  0  0  0  0  0  0  0  0
   39.9020   33.8280   40.9130 H   0  0  0  0  0  0  0  0  0  0  0  0
  1  2  1  0  0  0  0
  3  1  1  0  0  0  0
  4  7  1  6  0  0  0
  4  1  1  0  0  0  0
  4  5  1  0  0  0  0
  5  8  1  0  0  0  0
  5  9  1  0  0  0  0
  6 10  1  6  0  0  0
  6  4  1  0  0  0  0
  6  5  1  0  0  0  0
 11  6  1  0  0  0  0
 11 12  1  0  0  0  0
 13 11  2  0  0  0  0
 14 15  2  0  0  0  0
 15  1  1  0  0  0  0
 16 17  2  0  0  0  0
 16 21  1  0  0  0  0
 17 18  1  0  0  0  0
 18 24  1  0  0  0  0
 18 19  2  0  0  0  0
 20 19  1  0  0  0  0
 20 14  1  0  0  0  0
 21 20  2  0  0  0  0
 22 16  1  0  0  0  0
 23 17  1  0  0  0  0
M  END
>  <minimizedAffinity>
-3.80069947

$$$$

 OpenBabel03252508123D

 24 25  0  0  1  0  0  0  0  0999 V2000
   35.5640   29.4200   40.6780 C   0  0  0  0  0  0  0  0  0  0  0  0
   35.6290   29.1780   39.5990 H   0  0  0  0  0  0  0  0  0  0  0  0
   34.5370   29.3060   41.1000 H   0  0  0  0  0  0  0  0  0  0  0  0
   36.1560   30.7870   40.9280 C   0  0  1  0  0  0  0  0  0  0  0  0
   37.6310   30.9340   40.9250 C   0  0  0  0  0  0  0  0  0  0  0  0
   36.8520   31.4660   39.8000 C   0  0  1  0  0  0  0  0  0  0  0  0
   35.7000   31.3810   41.7740 H   0  0  0  0  0  0  0  0  0  0  0  0
   38.1720   31.6130   41.6210 H   0  0  0  0  0  0  0  0  0  0  0  0
   38.1930   29.9870   40.6680 H   0  0  0  0  0  0  0  0  0  0  0  0
   36.7940   32.5880   39.7560 H   0  0  0  0  0  0  0  0  0  0  0  0
   36.8210   30.8120   38.4840 C   0  0  0  0  0  0  0  0  0  0  0  0
   36.3460   29.9000   38.1880 H   0  0  0  0  0  0  0  0  0  0  0  0
   37.2300   30.9570   37.3440 O   0  0  0  0  0  0  0  0  0  0  0  0
   36.7230   27.3300   40.6930 C   0  0  0  0  0  3  0  0  0  0  0  0
   36.3710   28.3630   41.3860 C   0  0  0  0  0  3  0  0  0  0  0  0
   39.2520   25.6790   42.7720 C   0  0  0  0  0  0  0  0  0  0  0  0
   38.9230   24.3060   42.5980 C   0  0  0  0  0  0  0  0  0  0  0  0
   37.8710   23.9810   41.7780 C   0  0  0  0  0  0  0  0  0  0  0  0
   37.2200   24.9960   41.1930 N   0  0  0  0  0  0  0  0  0  0  0  0
   37.5120   26.2910   41.3430 C   0  0  0  0  0  0  0  0  0  0  0  0
   38.5340   26.6210   42.1370 N   0  0  0  0  0  0  0  0  0  0  0  0
   40.0780   25.9740   43.4110 H   0  0  0  0  0  0  0  0  0  0  0  0
   39.5030   23.5460   43.1110 H   0  0  0  0  0  0  0  0  0  0  0  0
   37.5670   22.9790   41.6000 H   0  0  0  0  0  0  0  0  0  0  0  0
  1  4  1  0  0  0  0
  1  3  1  0  0  0  0
  1 15  1  0  0  0  0
  2  1  1  0  0  0  0
  4  7  1  1  0  0  0
  5  4  1  0  0  0  0
  5  8  1  0  0  0  0
  6 10  1  6  0  0  0
  6  5  1  0  0  0  0
  6  4  1  0  0  0  0
  9  5  1  0  0  0  0
 11  6  1  0  0  0  0
 12 11  1  0  0  0  0
 13 11  2  0  0  0  0
 14 20  1  0  0  0  0
 14 15  2  0  0  0  0
 16 22  1  0  0  0  0
 17 16  1  0  0  0  0
 17 23  1  0  0  0  0
 18 17  2  0  0  0  0
 19 20  2  0  0  0  0
 19 18  1  0  0  0  0
 20 21  1  0  0  0  0
 21 16  2  0  0  0  0
 24 18  1  0  0  0  0
M  END
>  <minimizedAffinity>
-3.78877854

$$$$

 OpenBabel03252508123D

 24 25  0  0  1  0  0  0  0  0999 V2000
   35.4740   29.6420   38.2410 C   0  0  0  0  0  0  0  0  0  0  0  0
   34.9760   30.5920   38.5160 H   0  0  0  0  0  0  0  0  0  0  0  0
   36.1870   29.7430   37.3870 H   0  0  0  0  0  0  0  0  0  0  0  0
   34.4350   28.5690   38.0180 C   0  0  1  0  0  0  0  0  0  0  0  0
   33.1430   28.9500   37.3990 C   0  0  0  0  0  0  0  0  0  0  0  0
   34.1180   28.1800   36.6160 C   0  0  1  0  0  0  0  0  0  0  0  0
   34.2680   27.8510   38.8750 H   0  0  0  0  0  0  0  0  0  0  0  0
   32.1720   28.5020   37.7060 H   0  0  0  0  0  0  0  0  0  0  0  0
   33.0780   30.0340   37.0860 H   0  0  0  0  0  0  0  0  0  0  0  0
   33.8320   27.1100   36.4280 H   0  0  0  0  0  0  0  0  0  0  0  0
   34.9180   28.7840   35.5410 C   0  0  0  0  0  0  0  0  0  0  0  0
   35.9310   28.5910   35.2550 H   0  0  0  0  0  0  0  0  0  0  0  0
   34.8360   29.6130   34.6510 O   0  0  0  0  0  0  0  0  0  0  0  0
   35.8200   28.5760   40.3520 C   0  0  0  0  0  3  0  0  0  0  0  0
   36.3540   29.2840   39.4110 C   0  0  0  0  0  3  0  0  0  0  0  0
   37.7160   26.5620   42.7590 C   0  0  0  0  0  0  0  0  0  0  0  0
   38.2520   27.5600   43.6180 C   0  0  0  0  0  0  0  0  0  0  0  0
   37.9480   28.8750   43.3680 C   0  0  0  0  0  0  0  0  0  0  0  0
   37.1560   29.1260   42.3160 N   0  0  0  0  0  0  0  0  0  0  0  0
   36.6440   28.2040   41.4960 C   0  0  0  0  0  0  0  0  0  0  0  0
   36.9300   26.9200   41.7290 N   0  0  0  0  0  0  0  0  0  0  0  0
   37.9330   25.5110   42.9260 H   0  0  0  0  0  0  0  0  0  0  0  0
   38.8860   27.2680   44.4490 H   0  0  0  0  0  0  0  0  0  0  0  0
   38.3110   29.6750   43.9650 H   0  0  0  0  0  0  0  0  0  0  0  0
  1  2  1  0  0  0  0
  1 15  1  0  0  0  0
  3  1  1  0  0  0  0
  4  1  1  0  0  0  0
  4  7  1  1  0  0  0
  5  8  1  0  0  0  0
  5  4  1  0  0  0  0
  6 10  1  6  0  0  0
  6  5  1  0  0  0  0
  6  4  1  0  0  0  0
  9  5  1  0  0  0  0
 11  6  1  0  0  0  0
 12 11  1  0  0  0  0
 13 11  2  0  0  0  0
 14 20  1  0  0  0  0
 15 14  2  0  0  0  0
 16 22  1  0  0  0  0
 16 17  1  0  0  0  0
 17 23  1  0  0  0  0
 18 17  2  0  0  0  0
 18 24  1  0  0  0  0
 19 18  1  0  0  0  0
 20 21  1  0  0  0  0
 20 19  2  0  0  0  0
 21 16  2  0  0  0  0
M  END
>  <minimizedAffinity>
-3.59906006

$$$$

 OpenBabel03252508123D

 24 25  0  0  1  0  0  0  0  0999 V2000
   37.4450   25.8760   42.4470 C   0  0  0  0  0  0  0  0  0  0  0  0
   37.1930   25.8270   43.5250 H   0  0  0  0  0  0  0  0  0  0  0  0
   36.7560   25.2800   41.8010 H   0  0  0  0  0  0  0  0  0  0  0  0
   38.8980   25.5160   42.2490 C   0  0  1  0  0  0  0  0  0  0  0  0
   39.4540   24.3660   43.0010 C   0  0  0  0  0  0  0  0  0  0  0  0
   39.2170   24.2370   41.5570 C   0  0  1  0  0  0  0  0  0  0  0  0
   39.6290   26.3790   42.2470 H   0  0  0  0  0  0  0  0  0  0  0  0
   40.4860   24.3570   43.4150 H   0  0  0  0  0  0  0  0  0  0  0  0
   38.6950   23.8080   43.6270 H   0  0  0  0  0  0  0  0  0  0  0  0
   40.1470   24.2070   40.9270 H   0  0  0  0  0  0  0  0  0  0  0  0
   38.0960   23.4580   41.0090 C   0  0  0  0  0  0  0  0  0  0  0  0
   37.0790   23.7490   40.8480 H   0  0  0  0  0  0  0  0  0  0  0  0
   37.8380   22.3510   40.5700 O   0  0  0  0  0  0  0  0  0  0  0  0
   37.5730   27.6400   40.8400 C   0  0  0  0  0  3  0  0  0  0  0  0
   37.1970   27.3020   42.0300 C   0  0  0  0  0  3  0  0  0  0  0  0
   37.4340   30.6340   38.7270 C   0  0  0  0  0  0  0  0  0  0  0  0
   36.8230   31.5780   39.5970 C   0  0  0  0  0  0  0  0  0  0  0  0
   36.4900   31.1810   40.8680 C   0  0  0  0  0  0  0  0  0  0  0  0
   36.7680   29.9130   41.2020 N   0  0  0  0  0  0  0  0  0  0  0  0
   37.3410   29.0100   40.4000 C   0  0  0  0  0  0  0  0  0  0  0  0
   37.6710   29.3840   39.1600 N   0  0  0  0  0  0  0  0  0  0  0  0
   37.7130   30.9120   37.7150 H   0  0  0  0  0  0  0  0  0  0  0  0
   36.6320   32.5870   39.2450 H   0  0  0  0  0  0  0  0  0  0  0  0
   36.0320   31.8300   41.5730 H   0  0  0  0  0  0  0  0  0  0  0  0
  1  2  1  0  0  0  0
  3  1  1  0  0  0  0
  4  7  1  6  0  0  0
  4  1  1  0  0  0  0
  4  5  1  0  0  0  0
  5  8  1  0  0  0  0
  5  9  1  0  0  0  0
  6 10  1  6  0  0  0
  6  4  1  0  0  0  0
  6  5  1  0  0  0  0
 11  6  1  0  0  0  0
 12 11  1  0  0  0  0
 13 11  2  0  0  0  0
 14 15  2  0  0  0  0
 15  1  1  0  0  0  0
 16 21  2  0  0  0  0
 16 17  1  0  0  0  0
 17 18  2  0  0  0  0
 18 19  1  0  0  0  0
 18 24  1  0  0  0  0
 20 14  1  0  0  0  0
 20 19  2  0  0  0  0
 21 20  1  0  0  0  0
 22 16  1  0  0  0  0
 23 17  1  0  0  0  0
M  END
>  <minimizedAffinity>
-3.56635237

$$$$

 OpenBabel03252508123D

 24 25  0  0  1  0  0  0  0  0999 V2000
   37.1530   26.4170   42.5990 C   0  0  0  0  0  0  0  0  0  0  0  0
   38.2240   26.5210   42.8640 H   0  0  0  0  0  0  0  0  0  0  0  0
   36.4600   26.6680   43.4370 H   0  0  0  0  0  0  0  0  0  0  0  0
   36.9060   25.0440   42.0200 C   0  0  1  0  0  0  0  0  0  0  0  0
   37.6290   24.6530   40.7860 C   0  0  0  0  0  0  0  0  0  0  0  0
   38.0150   24.0520   42.0700 C   0  0  1  0  0  0  0  0  0  0  0  0
   35.8270   24.7110   41.9700 H   0  0  0  0  0  0  0  0  0  0  0  0
   37.1640   24.0400   39.9830 H   0  0  0  0  0  0  0  0  0  0  0  0
   38.3690   25.4230   40.4160 H   0  0  0  0  0  0  0  0  0  0  0  0
   37.7360   22.9690   42.1860 H   0  0  0  0  0  0  0  0  0  0  0  0
   39.2440   24.4340   42.7810 C   0  0  0  0  0  0  0  0  0  0  0  0
   39.4100   24.5710   43.8290 H   0  0  0  0  0  0  0  0  0  0  0  0
   40.4110   24.7180   42.5700 O   0  0  0  0  0  0  0  0  0  0  0  0
   37.7920   28.3790   41.3930 C   0  0  0  0  0  3  0  0  0  0  0  0
   36.8800   27.4780   41.5660 C   0  0  0  0  0  3  0  0  0  0  0  0
   38.1430   31.4730   39.4580 C   0  0  0  0  0  0  0  0  0  0  0  0
   37.1440   31.3090   38.4590 C   0  0  0  0  0  0  0  0  0  0  0  0
   36.3780   30.1700   38.4770 C   0  0  0  0  0  0  0  0  0  0  0  0
   36.6310   29.2830   39.4490 N   0  0  0  0  0  0  0  0  0  0  0  0
   37.5640   29.4170   40.3960 C   0  0  0  0  0  0  0  0  0  0  0  0
   38.3160   30.5210   40.3900 N   0  0  0  0  0  0  0  0  0  0  0  0
   38.7680   32.3620   39.4760 H   0  0  0  0  0  0  0  0  0  0  0  0
   37.0060   32.0790   37.7060 H   0  0  0  0  0  0  0  0  0  0  0  0
   35.6140   29.9780   37.7650 H   0  0  0  0  0  0  0  0  0  0  0  0
  1  2  1  0  0  0  0
  1  3  1  0  0  0  0
  4  7  1  1  0  0  0
  4  6  1  0  0  0  0
  4  1  1  0  0  0  0
  5  4  1  0  0  0  0
  5  6  1  0  0  0  0
  6 10  1  1  0  0  0
  6 11  1  0  0  0  0
  8  5  1  0  0  0  0
  9  5  1  0  0  0  0
 11 12  1  0  0  0  0
 13 11  2  0  0  0  0
 14 15  2  0  0  0  0
 15  1  1  0  0  0  0
 16 22  1  0  0  0  0
 16 21  1  0  0  0  0
 17 18  1  0  0  0  0
 17 16  2  0  0  0  0
 18 19  2  0  0  0  0
 19 20  1  0  0  0  0
 20 14  1  0  0  0  0
 21 20  2  0  0  0  0
 23 17  1  0  0  0  0
 24 18  1  0  0  0  0
M  END
>  <minimizedAffinity>
-3.56539226

$$$$

 OpenBabel03252508123D

 24 25  0  0  1  0  0  0  0  0999 V2000
   37.0280   27.5010   41.1970 C   0  0  0  0  0  0  0  0  0  0  0  0
   36.7350   26.4330   41.2160 H   0  0  0  0  0  0  0  0  0  0  0  0
   38.0930   27.6670   40.9060 H   0  0  0  0  0  0  0  0  0  0  0  0
   36.6680   28.1490   42.5120 C   0  0  1  0  0  0  0  0  0  0  0  0
   36.3860   27.2800   43.6790 C   0  0  0  0  0  0  0  0  0  0  0  0
   37.6400   28.0430   43.6360 C   0  0  1  0  0  0  0  0  0  0  0  0
   35.9250   29.0000   42.4630 H   0  0  0  0  0  0  0  0  0  0  0  0
   35.5980   27.5130   44.4290 H   0  0  0  0  0  0  0  0  0  0  0  0
   36.5310   26.1760   43.4830 H   0  0  0  0  0  0  0  0  0  0  0  0
   37.6930   28.9030   44.3570 H   0  0  0  0  0  0  0  0  0  0  0  0
   38.9380   27.4100   43.3600 C   0  0  0  0  0  0  0  0  0  0  0  0
   39.1580   26.4000   43.0820 H   0  0  0  0  0  0  0  0  0  0  0  0
   40.1290   27.6690   43.3220 O   0  0  0  0  0  0  0  0  0  0  0  0
   36.0370   27.3960   39.0240 C   0  0  0  0  0  3  0  0  0  0  0  0
   36.2410   28.1240   40.0740 C   0  0  0  0  0  3  0  0  0  0  0  0
   35.0590   28.4300   35.6450 C   0  0  0  0  0  0  0  0  0  0  0  0
   33.7670   28.9820   35.8710 C   0  0  0  0  0  0  0  0  0  0  0  0
   33.2740   28.9990   37.1520 C   0  0  0  0  0  0  0  0  0  0  0  0
   34.0570   28.4870   38.1110 N   0  0  0  0  0  0  0  0  0  0  0  0
   35.2720   27.9640   37.9220 C   0  0  0  0  0  0  0  0  0  0  0  0
   35.7640   27.9420   36.6790 N   0  0  0  0  0  0  0  0  0  0  0  0
   35.4820   28.4000   34.6460 H   0  0  0  0  0  0  0  0  0  0  0  0
   33.1980   29.3760   35.0340 H   0  0  0  0  0  0  0  0  0  0  0  0
   32.3200   29.3950   37.3970 H   0  0  0  0  0  0  0  0  0  0  0  0
  1  2  1  0  0  0  0
  1  4  1  0  0  0  0
  3  1  1  0  0  0  0
  4  7  1  6  0  0  0
  4  6  1  0  0  0  0
  4  5  1  0  0  0  0
  5  8  1  0  0  0  0
  6  5  1  0  0  0  0
  6 10  1  1  0  0  0
  9  5  1  0  0  0  0
 11  6  1  0  0  0  0
 12 11  1  0  0  0  0
 13 11  2  0  0  0  0
 14 15  2  0  0  0  0
 15  1  1  0  0  0  0
 16 17  2  0  0  0  0
 16 21  1  0  0  0  0
 17 18  1  0  0  0  0
 18 24  1  0  0  0  0
 18 19  2  0  0  0  0
 20 19  1  0  0  0  0
 20 14  1  0  0  0  0
 21 20  2  0  0  0  0
 22 16  1  0  0  0  0
 23 17  1  0  0  0  0
M  END
>  <minimizedAffinity>
-3.5549283

$$$$
