
 OpenBabel03242511193D

 33 35  0  0  1  0  0  0  0  0999 V2000
   48.3070   32.6850   40.5340 C   0  0  0  0  0  0  0  0  0  0  0  0
   49.5040   32.3020   40.2060 C   0  0  0  0  0  0  0  0  0  0  0  0
   49.7880   31.8430   38.9050 N   0  0  0  0  0  0  0  0  0  0  0  0
   50.4070   30.8200   38.0890 C   0  0  0  0  0  0  0  0  0  0  0  0
   51.3790   30.0160   38.2340 O   0  0  0  0  0  0  0  0  0  0  0  0
   49.3690   31.1900   37.0650 C   0  0  0  0  0  0  0  0  0  0  0  0
   49.3640   32.5640   37.7000 C   0  0  1  0  0  0  0  0  0  0  0  0
   47.7570   33.3030   37.9950 S   0  0  0  0  0  0  0  0  0  0  0  0
   47.1600   32.6950   39.6060 C   0  0  0  0  0  0  0  0  0  0  0  0
   48.3880   30.6860   37.2100 H   0  0  0  0  0  0  0  0  0  0  0  0
   49.7830   31.1310   36.0590 H   0  0  0  0  0  0  0  0  0  0  0  0
   50.1780   33.2280   37.3680 H   0  0  0  0  0  0  0  0  0  0  0  0
   46.3680   33.4040   39.9020 H   0  0  0  0  0  0  0  0  0  0  0  0
   46.6800   31.7140   39.4850 H   0  0  0  0  0  0  0  0  0  0  0  0
   48.0340   33.1420   41.8940 C   0  0  0  0  0  0  0  0  0  0  0  0
   47.3920   32.3940   42.4330 H   0  0  0  0  0  0  0  0  0  0  0  0
   48.8830   33.3310   42.5350 H   0  0  0  0  0  0  0  0  0  0  0  0
   47.0730   34.7040   41.8380 S   0  0  0  0  0  0  0  0  0  0  0  0
   44.4960   35.9010   44.7260 C   0  0  0  0  0  0  0  0  0  0  0  0
   45.2110   35.8620   43.4930 C   0  0  0  0  0  0  0  0  0  0  0  0
   46.1520   34.8050   43.3510 C   0  0  0  0  0  0  0  0  0  0  0  0
   46.3100   33.9200   44.3700 N   0  0  0  0  0  0  0  0  0  0  0  0
   45.6070   34.0150   45.4990 C   0  0  0  0  0  0  0  0  0  0  0  0
   44.7080   34.9880   45.6860 N   0  0  0  0  0  0  0  0  0  0  0  0
   43.7760   36.6980   44.8490 H   0  0  0  0  0  0  0  0  0  0  0  0
   45.0420   36.5980   42.7150 H   0  0  0  0  0  0  0  0  0  0  0  0
   45.8130   33.0390   46.5650 C   0  0  0  0  0  0  0  0  0  0  0  0
   46.5870   32.2850   46.5280 H   0  0  0  0  0  0  0  0  0  0  0  0
   45.0910   33.0270   47.5960 O   0  0  0  0  0  0  0  0  0  0  0  0
   50.5850   32.3450   41.2060 C   0  0  0  0  0  0  0  0  0  0  0  0
   51.7800   31.9910   40.9850 O   0  0  0  0  0  0  0  0  0  0  0  0
   51.3460   32.4950   42.3070 O   0  0  0  0  0  0  0  0  0  0  0  0
   51.1520   33.0090   43.1480 H   0  0  0  0  0  0  0  0  0  0  0  0
  1 15  1  0  0  0  0
  2  1  2  0  0  0  0
  2 30  1  0  0  0  0
  3  2  1  0  0  0  0
  4  5  2  0  0  0  0
  4  3  1  0  0  0  0
  6 10  1  0  0  0  0
  6  7  1  0  0  0  0
  6  4  1  0  0  0  0
  7 12  1  6  0  0  0
  7  8  1  0  0  0  0
  7  3  1  0  0  0  0
  8  9  1  0  0  0  0
  9 13  1  0  0  0  0
  9  1  1  0  0  0  0
 11  6  1  0  0  0  0
 14  9  1  0  0  0  0
 15 16  1  0  0  0  0
 15 17  1  0  0  0  0
 18 15  1  0  0  0  0
 18 21  1  0  0  0  0
 19 25  1  0  0  0  0
 19 24  1  0  0  0  0
 20 19  2  0  0  0  0
 21 20  1  0  0  0  0
 21 22  2  0  0  0  0
 22 23  1  0  0  0  0
 23 24  2  0  0  0  0
 23 27  1  0  0  0  0
 26 20  1  0  0  0  0
 27 29  2  0  0  0  0
 28 27  1  0  0  0  0
 30 32  1  0  0  0  0
 31 30  2  0  0  0  0
 32 33  1  0  0  0  0
M  END
>  <minimizedAffinity>
-4.90694904

>  <minimizedRMSD>
0.220977426

$$$$
