
 OpenBabel03252508283D

 33 35  0  0  1  0  0  0  0  0999 V2000
   40.5630   32.8130   39.3560 N   0  0  0  0  0  0  0  0  0  0  0  0
   40.8850   32.6890   40.7790 C   0  0  2  0  0  0  0  0  0  0  0  0
   39.7620   33.0910   41.6560 C   0  0  0  0  0  0  0  0  0  0  0  0
   38.5230   33.3300   40.9320 N   0  0  0  0  0  0  0  0  0  0  0  0
   38.6390   34.1310   39.7690 C   0  0  0  0  0  0  0  0  0  0  0  0
   40.0440   34.1950   39.2240 C   0  0  2  0  0  0  0  0  0  0  0  0
   41.4280   32.6760   38.8160 H   0  0  0  0  0  0  0  0  0  0  0  0
   41.2130   31.6290   40.9110 H   0  0  0  0  0  0  0  0  0  0  0  0
   39.8480   34.0040   42.2410 H   0  0  0  0  0  0  0  0  0  0  0  0
   39.5280   32.1920   42.3050 H   0  0  0  0  0  0  0  0  0  0  0  0
   37.9480   32.4760   40.8310 H   0  0  0  0  0  0  0  0  0  0  0  0
   38.0130   33.6950   38.9450 H   0  0  0  0  0  0  0  0  0  0  0  0
   38.2330   35.1660   39.8890 H   0  0  0  0  0  0  0  0  0  0  0  0
   40.6940   34.8250   39.8340 H   0  0  0  0  0  0  0  0  0  0  0  0
   44.0900   34.2720   41.2360 C   0  0  0  0  0  0  0  0  0  0  0  0
   43.1700   35.2270   41.6880 C   0  0  0  0  0  0  0  0  0  0  0  0
   41.8820   34.7330   41.5710 C   0  0  0  0  0  0  0  0  0  0  0  0
   42.0430   33.5160   41.0590 N   0  0  0  0  0  0  0  0  0  0  0  0
   43.3270   33.2450   40.8630 N   0  0  0  0  0  0  0  0  0  0  0  0
   43.5560   36.1820   42.0540 H   0  0  0  0  0  0  0  0  0  0  0  0
   41.1640   35.4650   41.9250 H   0  0  0  0  0  0  0  0  0  0  0  0
   47.6510   35.1190   42.0980 C   0  0  0  0  0  0  0  0  0  0  0  0
   46.2270   35.0360   42.2630 C   0  0  0  0  0  0  0  0  0  0  0  0
   45.5420   34.4490   41.2290 C   0  0  0  0  0  0  0  0  0  0  0  0
   46.2170   33.9880   40.1350 N   0  0  0  0  0  0  0  0  0  0  0  0
   47.5600   34.0870   40.0210 C   0  0  0  0  0  0  0  0  0  0  0  0
   48.2480   34.6480   41.0010 N   0  0  0  0  0  0  0  0  0  0  0  0
   48.1340   35.5920   42.9470 H   0  0  0  0  0  0  0  0  0  0  0  0
   45.6940   35.3920   43.1120 H   0  0  0  0  0  0  0  0  0  0  0  0
   48.0990   33.7240   39.1570 H   0  0  0  0  0  0  0  0  0  0  0  0
   39.9940   34.5770   37.7830 C   0  0  0  0  0  0  0  0  0  0  0  0
   39.3530   33.9780   37.1590 H   0  0  0  0  0  0  0  0  0  0  0  0
   40.6930   35.5440   37.4610 O   0  0  0  0  0  0  0  0  0  0  0  0
  1  2  1  0  0  0  0
  2  8  1  1  0  0  0
  2 18  1  0  0  0  0
  2  3  1  0  0  0  0
  3  9  1  0  0  0  0
  3 10  1  0  0  0  0
  4  3  1  0  0  0  0
  5 13  1  0  0  0  0
  5  4  1  0  0  0  0
  6  1  1  0  0  0  0
  6  5  1  0  0  0  0
  6 14  1  1  0  0  0
  7  1  1  0  0  0  0
 11  4  1  0  0  0  0
 12  5  1  0  0  0  0
 15 16  1  0  0  0  0
 16 20  1  0  0  0  0
 17 16  2  0  0  0  0
 17 21  1  0  0  0  0
 18 17  1  0  0  0  0
 19 18  1  0  0  0  0
 19 15  2  0  0  0  0
 22 23  1  0  0  0  0
 22 28  1  0  0  0  0
 23 29  1  0  0  0  0
 24 15  1  0  0  0  0
 24 23  2  0  0  0  0
 25 24  1  0  0  0  0
 26 25  2  0  0  0  0
 26 27  1  0  0  0  0
 27 22  2  0  0  0  0
 30 26  1  0  0  0  0
 31  6  1  0  0  0  0
 32 31  1  0  0  0  0
 33 31  2  0  0  0  0
M  END
>  <minimizedAffinity>
-5.35946655

>  <minimizedRMSD>
2.35266256

$$$$
