
 OpenBabel03252501503D

 39 41  0  0  1  0  0  0  0  0999 V2000
   45.6520   34.9420   42.1100 C   0  0  0  0  0  0  0  0  0  0  0  0
   46.8220   34.6810   41.5120 C   0  0  0  0  0  0  0  0  0  0  0  0
   44.0810   33.5850   40.6550 C   0  0  0  0  0  0  0  0  0  0  0  0
   44.3570   34.7380   41.4570 C   0  0  0  0  0  0  0  0  0  0  0  0
   43.3540   35.6960   41.6150 C   0  0  0  0  0  0  0  0  0  0  0  0
   42.1590   35.4920   41.0040 N   0  0  0  0  0  0  0  0  0  0  0  0
   41.9340   34.3960   40.2570 C   0  0  0  0  0  0  0  0  0  0  0  0
   42.8890   33.4680   40.0970 N   0  0  0  0  0  0  0  0  0  0  0  0
   44.8920   32.8720   40.5640 H   0  0  0  0  0  0  0  0  0  0  0  0
   43.5420   36.5770   42.2190 H   0  0  0  0  0  0  0  0  0  0  0  0
   39.7100   33.5960   41.7110 F   0  0  0  0  0  0  0  0  0  0  0  0
   39.5350   33.8200   40.3750 C   0  0  0  0  0  0  0  0  0  0  0  0
   40.6330   34.2230   39.6210 C   0  0  0  0  0  0  0  0  0  0  0  0
   40.5420   34.4700   38.2650 C   0  0  0  0  0  0  0  0  0  0  0  0
   39.2860   34.2960   37.6790 C   0  0  0  0  0  0  0  0  0  0  0  0
   38.1710   33.8930   38.4170 C   0  0  0  0  0  0  0  0  0  0  0  0
   38.3040   33.6520   39.7900 C   0  0  0  0  0  0  0  0  0  0  0  0
   41.3580   34.7780   37.6590 H   0  0  0  0  0  0  0  0  0  0  0  0
   39.0980   34.4600   36.6310 H   0  0  0  0  0  0  0  0  0  0  0  0
   37.2030   33.7620   37.9480 H   0  0  0  0  0  0  0  0  0  0  0  0
   37.4670   33.3390   40.3970 H   0  0  0  0  0  0  0  0  0  0  0  0
   48.1200   34.9090   42.2290 C   0  0  0  0  0  0  0  0  0  0  0  0
   48.2750   35.9870   42.3940 H   0  0  0  0  0  0  0  0  0  0  0  0
   48.0010   34.4380   43.2270 H   0  0  0  0  0  0  0  0  0  0  0  0
   49.2300   34.2540   41.5880 N   0  0  0  0  0  0  0  0  0  0  0  0
   50.3480   34.1910   42.4700 C   0  0  0  0  0  0  0  0  0  0  0  0
   51.0710   32.9010   42.2090 C   0  0  0  0  0  0  0  0  0  0  0  0
   50.0020   32.0220   41.6100 C   0  0  0  0  0  0  0  0  0  0  0  0
   48.8970   32.9460   41.1390 C   0  0  2  0  0  0  0  0  0  0  0  0
   49.9420   34.2030   43.5120 H   0  0  0  0  0  0  0  0  0  0  0  0
   51.0040   35.0720   42.3740 H   0  0  0  0  0  0  0  0  0  0  0  0
   51.9340   33.0340   41.5390 H   0  0  0  0  0  0  0  0  0  0  0  0
   51.4020   32.5080   43.2070 H   0  0  0  0  0  0  0  0  0  0  0  0
   49.6590   31.2820   42.3540 H   0  0  0  0  0  0  0  0  0  0  0  0
   50.4510   31.4810   40.7590 H   0  0  0  0  0  0  0  0  0  0  0  0
   47.9710   32.6100   41.6610 H   0  0  0  0  0  0  0  0  0  0  0  0
   48.6890   32.8350   39.6680 C   0  0  0  0  0  0  0  0  0  0  0  0
   47.8650   33.3370   39.1510 H   0  0  0  0  0  0  0  0  0  0  0  0
   49.5020   32.1460   39.0830 O   0  0  0  0  0  0  0  0  0  0  0  0
  2  1  2  0  0  0  0
  2 22  1  0  0  0  0
  3  4  1  0  0  0  0
  4  5  2  0  0  0  0
  4  1  1  0  0  0  0
  5 10  1  0  0  0  0
  6  5  1  0  0  0  0
  7  6  2  0  0  0  0
  8  7  1  0  0  0  0
  8  3  2  0  0  0  0
  9  3  1  0  0  0  0
 12 11  1  0  0  0  0
 13  7  1  0  0  0  0
 13 12  2  0  0  0  0
 14 13  1  0  0  0  0
 15 14  2  0  0  0  0
 15 16  1  0  0  0  0
 16 17  2  0  0  0  0
 17 12  1  0  0  0  0
 17 21  1  0  0  0  0
 18 14  1  0  0  0  0
 19 15  1  0  0  0  0
 20 16  1  0  0  0  0
 22 23  1  0  0  0  0
 22 24  1  0  0  0  0
 25 22  1  0  0  0  0
 25 26  1  0  0  0  0
 26 30  1  0  0  0  0
 27 26  1  0  0  0  0
 27 33  1  0  0  0  0
 28 27  1  0  0  0  0
 28 34  1  0  0  0  0
 29 25  1  0  0  0  0
 29 28  1  0  0  0  0
 29 36  1  1  0  0  0
 31 26  1  0  0  0  0
 32 27  1  0  0  0  0
 35 28  1  0  0  0  0
 37 29  1  0  0  0  0
 38 37  1  0  0  0  0
 39 37  2  0  0  0  0
M  END
>  <minimizedAffinity>
-5.98502827

>  <minimizedRMSD>
0.268058687

$$$$
