
 OpenBabel03252509203D

 19 20  0  0  0  0  0  0  0  0999 V2000
   45.2890   34.4420   44.7250 C   0  0  0  0  0  0  0  0  0  0  0  0
   45.7620   35.0340   43.5160 C   0  0  0  0  0  0  0  0  0  0  0  0
   46.9240   34.4770   43.0150 C   0  0  0  0  0  0  0  0  0  0  0  0
   47.5540   33.4250   43.6630 N   0  0  0  0  0  0  0  0  0  0  0  0
   47.0650   32.9110   44.7900 C   0  0  0  0  0  0  0  0  0  0  0  0
   45.9290   33.4150   45.3310 N   0  0  0  0  0  0  0  0  0  0  0  0
   44.3900   34.8020   45.2030 H   0  0  0  0  0  0  0  0  0  0  0  0
   47.6900   32.1090   45.1350 H   0  0  0  0  0  0  0  0  0  0  0  0
   47.4140   34.9930   41.6800 C   0  0  0  0  0  0  0  0  0  0  0  0
   48.8210   35.6000   41.8300 C   0  0  0  0  0  0  0  0  0  0  0  0
   48.5050   34.2890   41.0640 C   0  0  0  0  0  0  0  0  0  0  0  0
   46.7520   35.7270   41.1760 H   0  0  0  0  0  0  0  0  0  0  0  0
   49.0010   36.4940   41.2320 H   0  0  0  0  0  0  0  0  0  0  0  0
   49.2980   35.5570   42.7970 H   0  0  0  0  0  0  0  0  0  0  0  0
   48.7660   34.3410   39.9880 H   0  0  0  0  0  0  0  0  0  0  0  0
   48.9280   33.4020   41.6170 H   0  0  0  0  0  0  0  0  0  0  0  0
   45.0190   36.1350   42.9270 C   0  0  0  0  0  0  0  0  0  0  0  0
   45.2330   37.1550   43.1480 H   0  0  0  0  0  0  0  0  0  0  0  0
   44.0820   35.9090   42.1190 O   0  0  0  0  0  0  0  0  0  0  0  0
  1  7  1  0  0  0  0
  1  6  1  0  0  0  0
  2  1  2  0  0  0  0
  3  2  1  0  0  0  0
  3  4  2  0  0  0  0
  4  5  1  0  0  0  0
  5  8  1  0  0  0  0
  5  6  2  0  0  0  0
  9 10  1  0  0  0  0
  9  3  1  0  0  0  0
 10 14  1  0  0  0  0
 11 16  1  0  0  0  0
 11  9  1  0  0  0  0
 11 10  1  0  0  0  0
 12  9  1  0  0  0  0
 13 10  1  0  0  0  0
 15 11  1  0  0  0  0
 17 18  1  0  0  0  0
 17  2  1  0  0  0  0
 19 17  2  0  0  0  0
M  END
>  <minimizedAffinity>
-3.76985168

>  <minimizedRMSD>
1.24420595

$$$$
