
 OpenBabel03252509203D

 19 20  0  0  0  0  0  0  0  0999 V2000
   44.7700   35.1430   45.0230 C   0  0  0  0  0  0  0  0  0  0  0  0
   45.4060   35.2050   43.7470 C   0  0  0  0  0  0  0  0  0  0  0  0
   46.4470   34.3100   43.5760 C   0  0  0  0  0  0  0  0  0  0  0  0
   46.8170   33.4370   44.5870 N   0  0  0  0  0  0  0  0  0  0  0  0
   46.1840   33.4230   45.7590 C   0  0  0  0  0  0  0  0  0  0  0  0
   45.1560   34.2760   45.9870 N   0  0  0  0  0  0  0  0  0  0  0  0
   43.9460   35.7990   45.2620 H   0  0  0  0  0  0  0  0  0  0  0  0
   46.6140   32.6810   46.4040 H   0  0  0  0  0  0  0  0  0  0  0  0
   47.0890   34.2570   42.2070 C   0  0  0  0  0  0  0  0  0  0  0  0
   48.4580   34.9620   42.2360 C   0  0  0  0  0  0  0  0  0  0  0  0
   48.2580   33.4340   42.0630 C   0  0  0  0  0  0  0  0  0  0  0  0
   46.4830   34.6710   41.3750 H   0  0  0  0  0  0  0  0  0  0  0  0
   48.6970   35.5370   41.3400 H   0  0  0  0  0  0  0  0  0  0  0  0
   48.8130   35.3560   43.1760 H   0  0  0  0  0  0  0  0  0  0  0  0
   48.6490   33.0510   41.0980 H   0  0  0  0  0  0  0  0  0  0  0  0
   48.6240   32.8860   42.9780 H   0  0  0  0  0  0  0  0  0  0  0  0
   44.9340   36.1650   42.7640 C   0  0  0  0  0  0  0  0  0  0  0  0
   45.3520   37.1390   42.6670 H   0  0  0  0  0  0  0  0  0  0  0  0
   43.9970   35.8650   41.9810 O   0  0  0  0  0  0  0  0  0  0  0  0
  1  7  1  0  0  0  0
  1  6  1  0  0  0  0
  2  1  2  0  0  0  0
  3  2  1  0  0  0  0
  3  4  2  0  0  0  0
  4  5  1  0  0  0  0
  5  6  2  0  0  0  0
  5  8  1  0  0  0  0
  9 10  1  0  0  0  0
  9  3  1  0  0  0  0
 10 14  1  0  0  0  0
 11  9  1  0  0  0  0
 11 10  1  0  0  0  0
 11 16  1  0  0  0  0
 12  9  1  0  0  0  0
 13 10  1  0  0  0  0
 15 11  1  0  0  0  0
 17  2  1  0  0  0  0
 18 17  1  0  0  0  0
 19 17  2  0  0  0  0
M  END
>  <minimizedAffinity>
-3.51732731

>  <minimizedRMSD>
1.08383667

$$$$
