
 OpenBabel03242515453D

 35 37  0  0  1  0  0  0  0  0999 V2000
   43.6530   34.6270   40.5780 C   0  0  0  0  0  0  0  0  0  0  0  0
   43.6720   33.8170   39.5050 C   0  0  0  0  0  0  0  0  0  0  0  0
   44.9110   33.2210   39.2340 C   0  0  0  0  0  0  0  0  0  0  0  0
   45.9910   33.4570   40.0070 N   0  0  0  0  0  0  0  0  0  0  0  0
   45.9180   34.2790   41.0710 C   0  0  0  0  0  0  0  0  0  0  0  0
   44.7420   34.8330   41.3140 N   0  0  0  0  0  0  0  0  0  0  0  0
   45.0500   32.3180   38.1170 N   0  0  0  0  0  0  0  0  0  0  0  0
   45.4330   32.5250   37.1550 H   0  0  0  0  0  0  0  0  0  0  0  0
   44.7340   31.3370   38.2850 H   0  0  0  0  0  0  0  0  0  0  0  0
   42.6720   33.3940   38.4780 C   0  0  0  0  0  0  0  0  0  0  0  0
   41.8960   34.2120   38.4910 H   0  0  0  0  0  0  0  0  0  0  0  0
   43.0830   33.4150   37.4640 H   0  0  0  0  0  0  0  0  0  0  0  0
   42.1380   32.4670   38.7580 H   0  0  0  0  0  0  0  0  0  0  0  0
   42.0450   35.3940   40.9610 S   0  0  0  0  0  0  0  0  0  0  0  0
   39.6290   34.5530   40.2410 C   0  0  0  0  0  0  0  0  0  0  0  0
   40.7600   34.1450   40.9460 C   0  0  0  0  0  0  0  0  0  0  0  0
   40.8310   32.8970   41.5340 C   0  0  0  0  0  0  0  0  0  0  0  0
   39.7850   32.0190   41.4410 C   0  0  0  0  0  0  0  0  0  0  0  0
   38.6570   32.4030   40.7490 C   0  0  0  0  0  0  0  0  0  0  0  0
   38.5500   33.6350   40.1510 C   0  0  0  0  0  0  0  0  0  0  0  0
   37.7490   31.3280   40.8060 O   0  0  0  0  0  0  0  0  0  0  0  0
   38.2210   30.4220   41.7250 C   0  0  2  0  0  0  0  0  0  0  0  0
   39.5830   30.7280   41.9210 O   0  0  0  0  0  0  0  0  0  0  0  0
   39.4760   35.4860   39.7560 H   0  0  0  0  0  0  0  0  0  0  0  0
   41.7510   32.6770   42.0580 H   0  0  0  0  0  0  0  0  0  0  0  0
   37.6530   33.9210   39.6090 H   0  0  0  0  0  0  0  0  0  0  0  0
   37.6820   30.4310   42.6950 H   0  0  0  0  0  0  0  0  0  0  0  0
   38.1200   29.0280   41.1580 C   0  0  0  0  0  0  0  0  0  0  0  0
   38.6530   28.7530   40.2330 H   0  0  0  0  0  0  0  0  0  0  0  0
   37.4170   28.2150   41.7750 O   0  0  0  0  0  0  0  0  0  0  0  0
   46.9600   34.5830   41.9140 O   0  0  0  0  0  0  0  0  0  0  0  0
   48.1980   34.9390   41.3180 C   0  0  0  0  0  0  0  0  0  0  0  0
   49.1670   34.0130   41.5840 F   0  0  0  0  0  0  0  0  0  0  0  0
   47.9620   35.0680   39.9430 F   0  0  0  0  0  0  0  0  0  0  0  0
   48.6100   36.1370   41.8650 F   0  0  0  0  0  0  0  0  0  0  0  0
  1 14  1  0  0  0  0
  1  6  1  0  0  0  0
  2  1  2  0  0  0  0
  3  2  1  0  0  0  0
  3  4  2  0  0  0  0
  4  5  1  0  0  0  0
  5  6  2  0  0  0  0
  5 31  1  0  0  0  0
  7  9  1  0  0  0  0
  7  3  1  0  0  0  0
  8  7  1  0  0  0  0
 10 11  1  0  0  0  0
 10 13  1  0  0  0  0
 10  2  1  0  0  0  0
 12 10  1  0  0  0  0
 15 16  1  0  0  0  0
 16 14  1  0  0  0  0
 16 17  2  0  0  0  0
 17 25  1  0  0  0  0
 18 17  1  0  0  0  0
 18 23  1  0  0  0  0
 19 21  1  0  0  0  0
 19 18  2  0  0  0  0
 20 15  2  0  0  0  0
 20 19  1  0  0  0  0
 21 22  1  0  0  0  0
 22 23  1  0  0  0  0
 22 27  1  1  0  0  0
 24 15  1  0  0  0  0
 26 20  1  0  0  0  0
 28 22  1  0  0  0  0
 28 30  2  0  0  0  0
 29 28  1  0  0  0  0
 32 33  1  0  0  0  0
 32 35  1  0  0  0  0
 32 31  1  0  0  0  0
 34 32  1  0  0  0  0
M  END
>  <minimizedAffinity>
-5.79231882

>  <minimizedRMSD>
0.204280376

$$$$
