
 OpenBabel03252502103D

 42 45  0  0  0  0  0  0  0  0999 V2000
   37.4680   32.2270   40.1940 C   0  0  0  0  0  0  0  0  0  0  0  0
   37.1630   31.0910   40.9500 C   0  0  0  0  0  0  0  0  0  0  0  0
   38.2200   30.4010   41.4770 C   0  0  0  0  0  0  0  0  0  0  0  0
   39.4670   30.8250   41.2610 N   0  0  0  0  0  0  0  0  0  0  0  0
   39.7750   31.8930   40.5570 C   0  0  0  0  0  0  0  0  0  0  0  0
   38.7480   32.5930   40.0200 N   0  0  0  0  0  0  0  0  0  0  0  0
   37.9910   29.2630   42.2120 N   0  0  0  0  0  0  0  0  0  0  0  0
   39.0630   28.3380   42.6760 C   0  0  0  0  0  0  0  0  0  0  0  0
   38.4120   27.4250   43.6800 C   0  0  0  0  0  0  0  0  0  0  0  0
   36.9880   27.4140   43.2510 C   0  0  0  0  0  0  0  0  0  0  0  0
   36.7330   28.7520   42.6580 C   0  0  0  0  0  0  0  0  0  0  0  0
   36.6570   32.8110   39.7490 H   0  0  0  0  0  0  0  0  0  0  0  0
   39.7930   28.9970   43.1870 H   0  0  0  0  0  0  0  0  0  0  0  0
   39.4810   27.8110   41.8110 H   0  0  0  0  0  0  0  0  0  0  0  0
   38.8750   26.4160   43.5640 H   0  0  0  0  0  0  0  0  0  0  0  0
   38.5570   27.7390   44.7280 H   0  0  0  0  0  0  0  0  0  0  0  0
   36.8630   26.5730   42.5390 H   0  0  0  0  0  0  0  0  0  0  0  0
   36.2750   27.1850   44.0830 H   0  0  0  0  0  0  0  0  0  0  0  0
   36.3020   29.4490   43.4010 H   0  0  0  0  0  0  0  0  0  0  0  0
   36.0240   28.5310   41.8050 H   0  0  0  0  0  0  0  0  0  0  0  0
   41.0730   32.5380   40.2390 C   0  0  0  0  0  0  0  0  0  0  0  0
   41.5830   33.5640   40.9310 N   0  0  0  0  0  0  0  0  0  0  0  0
   42.7420   34.1600   40.6760 C   0  0  0  0  0  0  0  0  0  0  0  0
   43.5070   33.7320   39.6430 N   0  0  0  0  0  0  0  0  0  0  0  0
   43.1070   32.7130   38.8730 C   0  0  0  0  0  0  0  0  0  0  0  0
   43.8800   32.2730   37.8220 C   0  0  0  0  0  0  0  0  0  0  0  0
   43.4880   31.2400   37.0330 C   0  0  0  0  0  0  0  0  0  0  0  0
   42.2760   30.6320   37.3130 C   0  0  0  0  0  0  0  0  0  0  0  0
   41.5310   31.1080   38.3820 C   0  0  0  0  0  0  0  0  0  0  0  0
   41.8920   32.1360   39.1910 C   0  0  0  0  0  0  0  0  0  0  0  0
   43.0880   34.9860   41.2820 H   0  0  0  0  0  0  0  0  0  0  0  0
   44.8260   32.7560   37.6130 H   0  0  0  0  0  0  0  0  0  0  0  0
   44.1220   30.9210   36.2160 H   0  0  0  0  0  0  0  0  0  0  0  0
   40.3130   30.3750   38.5300 N   0  0  0  0  0  0  0  0  0  0  0  0
   39.6620   30.8980   37.8750 H   0  0  0  0  0  0  0  0  0  0  0  0
   40.0190   29.5470   39.0810 H   0  0  0  0  0  0  0  0  0  0  0  0
   41.8500   29.5220   36.4670 C   0  0  0  0  0  0  0  0  0  0  0  0
   41.7080   29.6530   35.4260 H   0  0  0  0  0  0  0  0  0  0  0  0
   41.6370   28.3800   36.9470 O   0  0  0  0  0  0  0  0  0  0  0  0
   35.8440   30.7940   41.1470 N   0  0  0  0  0  0  0  0  0  0  0  0
   35.1870   30.9740   41.9360 H   0  0  0  0  0  0  0  0  0  0  0  0
   35.5980   30.2920   40.2410 H   0  0  0  0  0  0  0  0  0  0  0  0
  1  2  1  0  0  0  0
  2 40  1  0  0  0  0
  2  3  2  0  0  0  0
  3  7  1  0  0  0  0
  4  3  1  0  0  0  0
  5  4  2  0  0  0  0
  6  1  2  0  0  0  0
  6  5  1  0  0  0  0
  7 11  1  0  0  0  0
  7  8  1  0  0  0  0
  8 13  1  0  0  0  0
  8  9  1  0  0  0  0
  9 16  1  0  0  0  0
 10  9  1  0  0  0  0
 10 18  1  0  0  0  0
 11 10  1  0  0  0  0
 11 19  1  0  0  0  0
 12  1  1  0  0  0  0
 14  8  1  0  0  0  0
 15  9  1  0  0  0  0
 17 10  1  0  0  0  0
 20 11  1  0  0  0  0
 21  5  1  0  0  0  0
 21 22  1  0  0  0  0
 23 22  2  0  0  0  0
 23 31  1  0  0  0  0
 24 23  1  0  0  0  0
 25 30  1  0  0  0  0
 25 24  2  0  0  0  0
 26 25  1  0  0  0  0
 27 28  1  0  0  0  0
 27 26  2  0  0  0  0
 28 29  2  0  0  0  0
 29 34  1  0  0  0  0
 29 30  1  0  0  0  0
 30 21  2  0  0  0  0
 32 26  1  0  0  0  0
 33 27  1  0  0  0  0
 34 36  1  0  0  0  0
 35 34  1  0  0  0  0
 37 39  2  0  0  0  0
 37 28  1  0  0  0  0
 38 37  1  0  0  0  0
 40 41  1  0  0  0  0
 42 40  1  0  0  0  0
M  END
>  <minimizedAffinity>
-5.99241209

$$$$

 OpenBabel03252502103D

 42 45  0  0  0  0  0  0  0  0999 V2000
   36.2950   30.7860   40.9150 C   0  0  0  0  0  0  0  0  0  0  0  0
   37.3400   31.5620   40.4040 C   0  0  0  0  0  0  0  0  0  0  0  0
   38.2890   30.9070   39.6680 C   0  0  0  0  0  0  0  0  0  0  0  0
   38.1860   29.5920   39.4670 N   0  0  0  0  0  0  0  0  0  0  0  0
   37.2100   28.8440   39.9360 C   0  0  0  0  0  0  0  0  0  0  0  0
   36.2580   29.4660   40.6700 N   0  0  0  0  0  0  0  0  0  0  0  0
   39.3540   31.6080   39.1540 N   0  0  0  0  0  0  0  0  0  0  0  0
   40.5320   30.9740   38.5000 C   0  0  0  0  0  0  0  0  0  0  0  0
   41.2810   32.0950   37.8300 C   0  0  0  0  0  0  0  0  0  0  0  0
   40.9200   33.2800   38.6520 C   0  0  0  0  0  0  0  0  0  0  0  0
   39.5440   33.0240   39.1500 C   0  0  0  0  0  0  0  0  0  0  0  0
   35.5120   31.2620   41.5130 H   0  0  0  0  0  0  0  0  0  0  0  0
   40.0940   30.3050   37.7320 H   0  0  0  0  0  0  0  0  0  0  0  0
   41.1220   30.4440   39.2560 H   0  0  0  0  0  0  0  0  0  0  0  0
   42.3700   31.8650   37.9110 H   0  0  0  0  0  0  0  0  0  0  0  0
   41.0450   32.2100   36.7580 H   0  0  0  0  0  0  0  0  0  0  0  0
   41.6810   33.3710   39.4540 H   0  0  0  0  0  0  0  0  0  0  0  0
   40.9870   34.2460   38.0910 H   0  0  0  0  0  0  0  0  0  0  0  0
   38.7840   33.4890   38.4950 H   0  0  0  0  0  0  0  0  0  0  0  0
   39.5540   33.4680   40.1900 H   0  0  0  0  0  0  0  0  0  0  0  0
   36.9040   27.4000   39.7940 C   0  0  0  0  0  0  0  0  0  0  0  0
   36.1190   26.8960   38.8330 N   0  0  0  0  0  0  0  0  0  0  0  0
   35.8290   25.6100   38.6750 C   0  0  0  0  0  0  0  0  0  0  0  0
   36.3440   24.6930   39.5290 N   0  0  0  0  0  0  0  0  0  0  0  0
   37.1450   25.0700   40.5350 C   0  0  0  0  0  0  0  0  0  0  0  0
   37.6720   24.1430   41.4060 C   0  0  0  0  0  0  0  0  0  0  0  0
   38.4860   24.5100   42.4290 C   0  0  0  0  0  0  0  0  0  0  0  0
   38.7750   25.8550   42.5780 C   0  0  0  0  0  0  0  0  0  0  0  0
   38.2220   26.7540   41.6770 C   0  0  0  0  0  0  0  0  0  0  0  0
   37.4070   26.4230   40.6430 C   0  0  0  0  0  0  0  0  0  0  0  0
   35.1850   25.2790   37.8720 H   0  0  0  0  0  0  0  0  0  0  0  0
   37.4380   23.0940   41.2780 H   0  0  0  0  0  0  0  0  0  0  0  0
   38.8820   23.7540   43.0930 H   0  0  0  0  0  0  0  0  0  0  0  0
   38.6180   28.0940   41.9750 N   0  0  0  0  0  0  0  0  0  0  0  0
   37.8830   28.3880   42.6810 H   0  0  0  0  0  0  0  0  0  0  0  0
   39.3880   28.7170   41.6640 H   0  0  0  0  0  0  0  0  0  0  0  0
   39.6480   26.2550   43.6770 C   0  0  0  0  0  0  0  0  0  0  0  0
   39.3240   26.1900   44.6830 H   0  0  0  0  0  0  0  0  0  0  0  0
   40.8090   26.6880   43.4650 O   0  0  0  0  0  0  0  0  0  0  0  0
   37.3000   32.9080   40.6310 N   0  0  0  0  0  0  0  0  0  0  0  0
   36.9840   33.7160   40.0520 H   0  0  0  0  0  0  0  0  0  0  0  0
   37.6970   32.9730   41.6160 H   0  0  0  0  0  0  0  0  0  0  0  0
  1 12  1  0  0  0  0
  2 40  1  0  0  0  0
  2  1  2  0  0  0  0
  3  2  1  0  0  0  0
  4  3  2  0  0  0  0
  4  5  1  0  0  0  0
  5  6  2  0  0  0  0
  6  1  1  0  0  0  0
  7  3  1  0  0  0  0
  8  7  1  0  0  0  0
  8 14  1  0  0  0  0
  9 15  1  0  0  0  0
  9  8  1  0  0  0  0
  9 10  1  0  0  0  0
 10 11  1  0  0  0  0
 10 17  1  0  0  0  0
 11  7  1  0  0  0  0
 11 20  1  0  0  0  0
 13  8  1  0  0  0  0
 16  9  1  0  0  0  0
 18 10  1  0  0  0  0
 19 11  1  0  0  0  0
 21  5  1  0  0  0  0
 21 30  1  0  0  0  0
 22 21  2  0  0  0  0
 23 22  1  0  0  0  0
 23 24  2  0  0  0  0
 24 25  1  0  0  0  0
 25 30  2  0  0  0  0
 25 26  1  0  0  0  0
 26 27  2  0  0  0  0
 27 28  1  0  0  0  0
 27 33  1  0  0  0  0
 28 37  1  0  0  0  0
 29 34  1  0  0  0  0
 29 28  2  0  0  0  0
 30 29  1  0  0  0  0
 31 23  1  0  0  0  0
 32 26  1  0  0  0  0
 34 35  1  0  0  0  0
 36 34  1  0  0  0  0
 37 38  1  0  0  0  0
 39 37  2  0  0  0  0
 40 42  1  0  0  0  0
 41 40  1  0  0  0  0
M  END
>  <minimizedAffinity>
-5.98323727

$$$$

 OpenBabel03252502103D

 42 45  0  0  0  0  0  0  0  0999 V2000
   36.1940   30.7820   41.0680 C   0  0  0  0  0  0  0  0  0  0  0  0
   37.2370   31.5420   40.5310 C   0  0  0  0  0  0  0  0  0  0  0  0
   38.3620   30.8620   40.1540 C   0  0  0  0  0  0  0  0  0  0  0  0
   38.4220   29.5380   40.3030 N   0  0  0  0  0  0  0  0  0  0  0  0
   37.4510   28.8030   40.8020 C   0  0  0  0  0  0  0  0  0  0  0  0
   36.3270   29.4500   41.1870 N   0  0  0  0  0  0  0  0  0  0  0  0
   39.4330   31.5520   39.6370 N   0  0  0  0  0  0  0  0  0  0  0  0
   40.7650   30.9450   39.3650 C   0  0  0  0  0  0  0  0  0  0  0  0
   41.5160   31.9540   38.5390 C   0  0  0  0  0  0  0  0  0  0  0  0
   40.9010   33.2460   38.9450 C   0  0  0  0  0  0  0  0  0  0  0  0
   39.4870   32.9340   39.2780 C   0  0  0  0  0  0  0  0  0  0  0  0
   35.2740   31.2790   41.3880 H   0  0  0  0  0  0  0  0  0  0  0  0
   40.5400   30.0500   38.7510 H   0  0  0  0  0  0  0  0  0  0  0  0
   41.2540   30.7090   40.3180 H   0  0  0  0  0  0  0  0  0  0  0  0
   42.5880   31.9050   38.8440 H   0  0  0  0  0  0  0  0  0  0  0  0
   41.4710   31.7630   37.4530 H   0  0  0  0  0  0  0  0  0  0  0  0
   41.4900   33.6400   39.7980 H   0  0  0  0  0  0  0  0  0  0  0  0
   40.9780   34.0400   38.1600 H   0  0  0  0  0  0  0  0  0  0  0  0
   38.8190   33.1100   38.4140 H   0  0  0  0  0  0  0  0  0  0  0  0
   39.2640   33.6220   40.1480 H   0  0  0  0  0  0  0  0  0  0  0  0
   37.3130   27.3410   41.0120 C   0  0  0  0  0  0  0  0  0  0  0  0
   37.7070   26.7080   42.1240 N   0  0  0  0  0  0  0  0  0  0  0  0
   37.5930   25.4040   42.3450 C   0  0  0  0  0  0  0  0  0  0  0  0
   37.0410   24.6050   41.4000 N   0  0  0  0  0  0  0  0  0  0  0  0
   36.6070   25.1180   40.2410 C   0  0  0  0  0  0  0  0  0  0  0  0
   36.0440   24.3120   39.2770 C   0  0  0  0  0  0  0  0  0  0  0  0
   35.5990   24.8170   38.0980 C   0  0  0  0  0  0  0  0  0  0  0  0
   35.7260   26.1790   37.8850 C   0  0  0  0  0  0  0  0  0  0  0  0
   36.2990   26.9520   38.8850 C   0  0  0  0  0  0  0  0  0  0  0  0
   36.7540   26.4820   40.0740 C   0  0  0  0  0  0  0  0  0  0  0  0
   37.9360   24.9650   43.2720 H   0  0  0  0  0  0  0  0  0  0  0  0
   35.9490   23.2490   39.4560 H   0  0  0  0  0  0  0  0  0  0  0  0
   35.1610   24.1530   37.3640 H   0  0  0  0  0  0  0  0  0  0  0  0
   36.3580   28.3280   38.5030 N   0  0  0  0  0  0  0  0  0  0  0  0
   37.2780   28.3710   37.9770 H   0  0  0  0  0  0  0  0  0  0  0  0
   35.7400   29.1510   38.6340 H   0  0  0  0  0  0  0  0  0  0  0  0
   35.2510   26.7260   36.6190 C   0  0  0  0  0  0  0  0  0  0  0  0
   35.7680   26.5370   35.7150 H   0  0  0  0  0  0  0  0  0  0  0  0
   34.2170   27.4370   36.5630 O   0  0  0  0  0  0  0  0  0  0  0  0
   37.0310   32.8840   40.3760 N   0  0  0  0  0  0  0  0  0  0  0  0
   36.7510   33.4680   39.5590 H   0  0  0  0  0  0  0  0  0  0  0  0
   37.2320   33.2480   41.3550 H   0  0  0  0  0  0  0  0  0  0  0  0
  1  6  1  0  0  0  0
  1 12  1  0  0  0  0
  2  1  2  0  0  0  0
  3  4  2  0  0  0  0
  3  2  1  0  0  0  0
  4  5  1  0  0  0  0
  5 21  1  0  0  0  0
  5  6  2  0  0  0  0
  7  3  1  0  0  0  0
  8  7  1  0  0  0  0
  8 14  1  0  0  0  0
  9 15  1  0  0  0  0
  9 10  1  0  0  0  0
  9  8  1  0  0  0  0
 10 11  1  0  0  0  0
 10 17  1  0  0  0  0
 11  7  1  0  0  0  0
 11 20  1  0  0  0  0
 13  8  1  0  0  0  0
 16  9  1  0  0  0  0
 18 10  1  0  0  0  0
 19 11  1  0  0  0  0
 21 22  1  0  0  0  0
 22 23  2  0  0  0  0
 23 31  1  0  0  0  0
 24 23  1  0  0  0  0
 25 24  2  0  0  0  0
 26 32  1  0  0  0  0
 26 25  1  0  0  0  0
 27 26  2  0  0  0  0
 28 27  1  0  0  0  0
 28 29  2  0  0  0  0
 29 30  1  0  0  0  0
 30 25  1  0  0  0  0
 30 21  2  0  0  0  0
 33 27  1  0  0  0  0
 34 36  1  0  0  0  0
 34 29  1  0  0  0  0
 35 34  1  0  0  0  0
 37 28  1  0  0  0  0
 38 37  1  0  0  0  0
 39 37  2  0  0  0  0
 40  2  1  0  0  0  0
 40 42  1  0  0  0  0
 41 40  1  0  0  0  0
M  END
>  <minimizedAffinity>
-5.82271862

$$$$

 OpenBabel03252502103D

 42 45  0  0  0  0  0  0  0  0999 V2000
   37.8810   31.4020   38.5820 C   0  0  0  0  0  0  0  0  0  0  0  0
   39.1560   31.5290   38.0200 C   0  0  0  0  0  0  0  0  0  0  0  0
   40.1660   30.8340   38.6250 C   0  0  0  0  0  0  0  0  0  0  0  0
   39.9090   30.0790   39.6950 N   0  0  0  0  0  0  0  0  0  0  0  0
   38.7170   29.9430   40.2370 C   0  0  0  0  0  0  0  0  0  0  0  0
   37.6990   30.6220   39.6600 N   0  0  0  0  0  0  0  0  0  0  0  0
   41.4470   30.9330   38.1360 N   0  0  0  0  0  0  0  0  0  0  0  0
   42.6460   30.3710   38.8170 C   0  0  0  0  0  0  0  0  0  0  0  0
   43.7600   30.4350   37.8070 C   0  0  0  0  0  0  0  0  0  0  0  0
   43.3570   31.5690   36.9330 C   0  0  0  0  0  0  0  0  0  0  0  0
   41.8720   31.5710   36.9300 C   0  0  0  0  0  0  0  0  0  0  0  0
   37.0400   31.9400   38.1360 H   0  0  0  0  0  0  0  0  0  0  0  0
   42.3810   29.3140   39.0160 H   0  0  0  0  0  0  0  0  0  0  0  0
   42.8470   30.9500   39.7260 H   0  0  0  0  0  0  0  0  0  0  0  0
   44.7010   30.6670   38.3600 H   0  0  0  0  0  0  0  0  0  0  0  0
   43.9210   29.4900   37.2600 H   0  0  0  0  0  0  0  0  0  0  0  0
   43.8090   32.4900   37.3550 H   0  0  0  0  0  0  0  0  0  0  0  0
   43.7760   31.5010   35.8970 H   0  0  0  0  0  0  0  0  0  0  0  0
   41.4690   31.0130   36.0640 H   0  0  0  0  0  0  0  0  0  0  0  0
   41.6100   32.6700   36.9010 H   0  0  0  0  0  0  0  0  0  0  0  0
   38.2290   29.1370   41.3830 C   0  0  0  0  0  0  0  0  0  0  0  0
   38.1360   29.6030   42.6340 N   0  0  0  0  0  0  0  0  0  0  0  0
   37.6990   28.9110   43.6800 C   0  0  0  0  0  0  0  0  0  0  0  0
   37.3040   27.6250   43.5190 N   0  0  0  0  0  0  0  0  0  0  0  0
   37.3500   27.0410   42.3150 C   0  0  0  0  0  0  0  0  0  0  0  0
   36.9490   25.7350   42.1450 C   0  0  0  0  0  0  0  0  0  0  0  0
   36.9890   25.1300   40.9300 C   0  0  0  0  0  0  0  0  0  0  0  0
   37.4480   25.8670   39.8520 C   0  0  0  0  0  0  0  0  0  0  0  0
   37.8410   27.1800   40.0700 C   0  0  0  0  0  0  0  0  0  0  0  0
   37.8140   27.8160   41.2690 C   0  0  0  0  0  0  0  0  0  0  0  0
   37.6530   29.3580   44.6630 H   0  0  0  0  0  0  0  0  0  0  0  0
   36.5920   25.1690   42.9950 H   0  0  0  0  0  0  0  0  0  0  0  0
   36.6660   24.1020   40.8340 H   0  0  0  0  0  0  0  0  0  0  0  0
   38.2890   27.7930   38.8590 N   0  0  0  0  0  0  0  0  0  0  0  0
   39.3130   27.5160   38.8390 H   0  0  0  0  0  0  0  0  0  0  0  0
   37.8410   28.3650   38.1180 H   0  0  0  0  0  0  0  0  0  0  0  0
   37.4950   25.2210   38.5440 C   0  0  0  0  0  0  0  0  0  0  0  0
   36.6140   25.0790   37.9750 H   0  0  0  0  0  0  0  0  0  0  0  0
   38.5790   24.8150   38.0560 O   0  0  0  0  0  0  0  0  0  0  0  0
   39.2780   32.2860   36.8900 N   0  0  0  0  0  0  0  0  0  0  0  0
   39.3200   32.0450   35.8750 H   0  0  0  0  0  0  0  0  0  0  0  0
   39.3260   33.2700   37.2920 H   0  0  0  0  0  0  0  0  0  0  0  0
  1  6  1  0  0  0  0
  2  1  2  0  0  0  0
  2  3  1  0  0  0  0
  3  4  2  0  0  0  0
  4  5  1  0  0  0  0
  5 21  1  0  0  0  0
  6  5  2  0  0  0  0
  7  3  1  0  0  0  0
  7  8  1  0  0  0  0
  8 13  1  0  0  0  0
  8 14  1  0  0  0  0
  9 15  1  0  0  0  0
  9  8  1  0  0  0  0
 10 17  1  0  0  0  0
 10  9  1  0  0  0  0
 11 10  1  0  0  0  0
 11  7  1  0  0  0  0
 12  1  1  0  0  0  0
 16  9  1  0  0  0  0
 18 10  1  0  0  0  0
 19 11  1  0  0  0  0
 20 11  1  0  0  0  0
 21 22  1  0  0  0  0
 22 23  2  0  0  0  0
 23 31  1  0  0  0  0
 24 23  1  0  0  0  0
 25 24  2  0  0  0  0
 26 25  1  0  0  0  0
 26 32  1  0  0  0  0
 27 26  2  0  0  0  0
 28 29  2  0  0  0  0
 28 27  1  0  0  0  0
 29 30  1  0  0  0  0
 30 21  2  0  0  0  0
 30 25  1  0  0  0  0
 33 27  1  0  0  0  0
 34 29  1  0  0  0  0
 35 34  1  0  0  0  0
 36 34  1  0  0  0  0
 37 28  1  0  0  0  0
 38 37  1  0  0  0  0
 39 37  2  0  0  0  0
 40 42  1  0  0  0  0
 40  2  1  0  0  0  0
 41 40  1  0  0  0  0
M  END
>  <minimizedAffinity>
-5.7688694

$$$$

 OpenBabel03252502103D

 42 45  0  0  0  0  0  0  0  0999 V2000
   36.7400   32.1050   40.3050 C   0  0  0  0  0  0  0  0  0  0  0  0
   37.9640   32.7430   40.0800 C   0  0  0  0  0  0  0  0  0  0  0  0
   39.0880   32.0720   40.4750 C   0  0  0  0  0  0  0  0  0  0  0  0
   38.9820   30.8680   41.0400 N   0  0  0  0  0  0  0  0  0  0  0  0
   37.8410   30.2490   41.2580 C   0  0  0  0  0  0  0  0  0  0  0  0
   36.7120   30.8920   40.8790 N   0  0  0  0  0  0  0  0  0  0  0  0
   40.3230   32.6520   40.3030 N   0  0  0  0  0  0  0  0  0  0  0  0
   41.5900   32.0980   40.8560 C   0  0  0  0  0  0  0  0  0  0  0  0
   42.7000   32.8590   40.1810 C   0  0  0  0  0  0  0  0  0  0  0  0
   42.0600   34.1590   39.8450 C   0  0  0  0  0  0  0  0  0  0  0  0
   40.6290   33.8540   39.5940 C   0  0  0  0  0  0  0  0  0  0  0  0
   35.8120   32.6020   40.0090 H   0  0  0  0  0  0  0  0  0  0  0  0
   41.6000   31.0430   40.5190 H   0  0  0  0  0  0  0  0  0  0  0  0
   41.5840   32.2090   41.9460 H   0  0  0  0  0  0  0  0  0  0  0  0
   43.5170   32.9930   40.9290 H   0  0  0  0  0  0  0  0  0  0  0  0
   43.1300   32.3380   39.3080 H   0  0  0  0  0  0  0  0  0  0  0  0
   42.2330   34.8440   40.7000 H   0  0  0  0  0  0  0  0  0  0  0  0
   42.5360   34.6750   38.9720 H   0  0  0  0  0  0  0  0  0  0  0  0
   40.4310   33.6990   38.5160 H   0  0  0  0  0  0  0  0  0  0  0  0
   40.0910   34.7570   40.0100 H   0  0  0  0  0  0  0  0  0  0  0  0
   37.5210   28.9180   41.8290 C   0  0  0  0  0  0  0  0  0  0  0  0
   37.3320   28.6940   43.1350 N   0  0  0  0  0  0  0  0  0  0  0  0
   37.0410   27.5180   43.6780 C   0  0  0  0  0  0  0  0  0  0  0  0
   36.9120   26.4250   42.8880 N   0  0  0  0  0  0  0  0  0  0  0  0
   37.0780   26.5160   41.5620 C   0  0  0  0  0  0  0  0  0  0  0  0
   36.9480   25.4090   40.7540 C   0  0  0  0  0  0  0  0  0  0  0  0
   37.1120   25.4860   39.4080 C   0  0  0  0  0  0  0  0  0  0  0  0
   37.4170   26.7210   38.8610 C   0  0  0  0  0  0  0  0  0  0  0  0
   37.5370   27.8090   39.7130 C   0  0  0  0  0  0  0  0  0  0  0  0
   37.3800   27.7690   41.0610 C   0  0  0  0  0  0  0  0  0  0  0  0
   36.9030   27.4170   44.7450 H   0  0  0  0  0  0  0  0  0  0  0  0
   36.7090   24.4500   41.1940 H   0  0  0  0  0  0  0  0  0  0  0  0
   37.0020   24.5960   38.8050 H   0  0  0  0  0  0  0  0  0  0  0  0
   37.8570   28.9990   38.9900 N   0  0  0  0  0  0  0  0  0  0  0  0
   38.9160   28.9500   38.9430 H   0  0  0  0  0  0  0  0  0  0  0  0
   37.3050   29.7710   38.5690 H   0  0  0  0  0  0  0  0  0  0  0  0
   37.5960   26.8090   37.4160 C   0  0  0  0  0  0  0  0  0  0  0  0
   36.7700   26.7270   36.7580 H   0  0  0  0  0  0  0  0  0  0  0  0
   38.7320   26.9850   36.9080 O   0  0  0  0  0  0  0  0  0  0  0  0
   37.9440   33.9490   39.4390 N   0  0  0  0  0  0  0  0  0  0  0  0
   38.1000   34.2280   38.4460 H   0  0  0  0  0  0  0  0  0  0  0  0
   37.7120   34.6140   40.2370 H   0  0  0  0  0  0  0  0  0  0  0  0
  1  6  1  0  0  0  0
  2  1  2  0  0  0  0
  2  3  1  0  0  0  0
  3  4  2  0  0  0  0
  4  5  1  0  0  0  0
  5 21  1  0  0  0  0
  6  5  2  0  0  0  0
  7  3  1  0  0  0  0
  7  8  1  0  0  0  0
  8 14  1  0  0  0  0
  9  8  1  0  0  0  0
  9 15  1  0  0  0  0
 10  9  1  0  0  0  0
 10 17  1  0  0  0  0
 11 10  1  0  0  0  0
 11 20  1  0  0  0  0
 11  7  1  0  0  0  0
 12  1  1  0  0  0  0
 13  8  1  0  0  0  0
 16  9  1  0  0  0  0
 18 10  1  0  0  0  0
 19 11  1  0  0  0  0
 21 22  1  0  0  0  0
 22 23  2  0  0  0  0
 23 31  1  0  0  0  0
 24 23  1  0  0  0  0
 25 24  2  0  0  0  0
 26 32  1  0  0  0  0
 26 25  1  0  0  0  0
 27 26  2  0  0  0  0
 28 27  1  0  0  0  0
 28 29  2  0  0  0  0
 29 30  1  0  0  0  0
 30 25  1  0  0  0  0
 30 21  2  0  0  0  0
 33 27  1  0  0  0  0
 34 29  1  0  0  0  0
 35 34  1  0  0  0  0
 36 34  1  0  0  0  0
 37 28  1  0  0  0  0
 38 37  1  0  0  0  0
 39 37  2  0  0  0  0
 40  2  1  0  0  0  0
 40 42  1  0  0  0  0
 41 40  1  0  0  0  0
M  END
>  <minimizedAffinity>
-5.69047785

$$$$

 OpenBabel03252502103D

 42 45  0  0  0  0  0  0  0  0999 V2000
   36.4520   30.4770   38.2610 C   0  0  0  0  0  0  0  0  0  0  0  0
   37.6960   31.0540   37.9890 C   0  0  0  0  0  0  0  0  0  0  0  0
   38.7580   30.2000   37.8750 C   0  0  0  0  0  0  0  0  0  0  0  0
   38.5750   28.8860   38.0200 N   0  0  0  0  0  0  0  0  0  0  0  0
   37.4130   28.3230   38.2730 C   0  0  0  0  0  0  0  0  0  0  0  0
   36.3450   29.1450   38.3930 N   0  0  0  0  0  0  0  0  0  0  0  0
   40.0130   30.7040   37.6300 N   0  0  0  0  0  0  0  0  0  0  0  0
   41.2610   29.8920   37.6680 C   0  0  0  0  0  0  0  0  0  0  0  0
   42.3300   30.7530   37.0490 C   0  0  0  0  0  0  0  0  0  0  0  0
   41.8460   32.1340   37.3150 C   0  0  0  0  0  0  0  0  0  0  0  0
   40.3620   32.0520   37.3080 C   0  0  0  0  0  0  0  0  0  0  0  0
   35.5710   31.1180   38.3640 H   0  0  0  0  0  0  0  0  0  0  0  0
   41.0480   29.0280   37.0080 H   0  0  0  0  0  0  0  0  0  0  0  0
   41.4730   29.6090   38.7050 H   0  0  0  0  0  0  0  0  0  0  0  0
   43.2820   30.5480   37.5950 H   0  0  0  0  0  0  0  0  0  0  0  0
   42.5080   30.5440   35.9800 H   0  0  0  0  0  0  0  0  0  0  0  0
   42.2750   32.4550   38.2860 H   0  0  0  0  0  0  0  0  0  0  0  0
   42.2250   32.8870   36.5780 H   0  0  0  0  0  0  0  0  0  0  0  0
   39.9480   32.3060   36.3140 H   0  0  0  0  0  0  0  0  0  0  0  0
   40.0550   32.7870   38.1090 H   0  0  0  0  0  0  0  0  0  0  0  0
   37.0050   26.9050   38.4290 C   0  0  0  0  0  0  0  0  0  0  0  0
   36.6150   26.1270   37.4120 N   0  0  0  0  0  0  0  0  0  0  0  0
   36.2480   24.8540   37.5160 C   0  0  0  0  0  0  0  0  0  0  0  0
   36.2520   24.2500   38.7290 N   0  0  0  0  0  0  0  0  0  0  0  0
   36.6220   24.9220   39.8270 C   0  0  0  0  0  0  0  0  0  0  0  0
   36.6290   24.3120   41.0610 C   0  0  0  0  0  0  0  0  0  0  0  0
   37.0010   24.9800   42.1830 C   0  0  0  0  0  0  0  0  0  0  0  0
   37.3790   26.3060   42.0540 C   0  0  0  0  0  0  0  0  0  0  0  0
   37.3580   26.8790   40.7900 C   0  0  0  0  0  0  0  0  0  0  0  0
   36.9920   26.2420   39.6490 C   0  0  0  0  0  0  0  0  0  0  0  0
   35.9450   24.2900   36.6460 H   0  0  0  0  0  0  0  0  0  0  0  0
   36.3320   23.2750   41.1490 H   0  0  0  0  0  0  0  0  0  0  0  0
   36.9950   24.4690   43.1360 H   0  0  0  0  0  0  0  0  0  0  0  0
   37.7700   28.2460   40.8360 N   0  0  0  0  0  0  0  0  0  0  0  0
   36.8580   28.7440   41.0500 H   0  0  0  0  0  0  0  0  0  0  0  0
   38.6740   28.7420   40.7180 H   0  0  0  0  0  0  0  0  0  0  0  0
   37.7790   27.0290   43.2570 C   0  0  0  0  0  0  0  0  0  0  0  0
   38.6390   26.7430   43.8040 H   0  0  0  0  0  0  0  0  0  0  0  0
   37.1170   28.0100   43.6790 O   0  0  0  0  0  0  0  0  0  0  0  0
   37.7420   32.4070   37.8050 N   0  0  0  0  0  0  0  0  0  0  0  0
   37.7530   33.0070   36.9510 H   0  0  0  0  0  0  0  0  0  0  0  0
   37.7650   32.7610   38.8080 H   0  0  0  0  0  0  0  0  0  0  0  0
  1 12  1  0  0  0  0
  1  6  1  0  0  0  0
  2  1  2  0  0  0  0
  3  2  1  0  0  0  0
  3  4  2  0  0  0  0
  4  5  1  0  0  0  0
  5  6  2  0  0  0  0
  5 21  1  0  0  0  0
  7  8  1  0  0  0  0
  7  3  1  0  0  0  0
  8 14  1  0  0  0  0
  9 10  1  0  0  0  0
  9 15  1  0  0  0  0
  9  8  1  0  0  0  0
 10 17  1  0  0  0  0
 11 10  1  0  0  0  0
 11  7  1  0  0  0  0
 11 20  1  0  0  0  0
 13  8  1  0  0  0  0
 16  9  1  0  0  0  0
 18 10  1  0  0  0  0
 19 11  1  0  0  0  0
 21 30  1  0  0  0  0
 22 23  1  0  0  0  0
 22 21  2  0  0  0  0
 23 24  2  0  0  0  0
 24 25  1  0  0  0  0
 25 26  1  0  0  0  0
 26 32  1  0  0  0  0
 26 27  2  0  0  0  0
 27 33  1  0  0  0  0
 28 27  1  0  0  0  0
 28 37  1  0  0  0  0
 29 34  1  0  0  0  0
 29 28  2  0  0  0  0
 30 25  2  0  0  0  0
 30 29  1  0  0  0  0
 31 23  1  0  0  0  0
 34 35  1  0  0  0  0
 36 34  1  0  0  0  0
 37 39  2  0  0  0  0
 37 38  1  0  0  0  0
 40  2  1  0  0  0  0
 40 42  1  0  0  0  0
 41 40  1  0  0  0  0
M  END
>  <minimizedAffinity>
-5.61234474

$$$$

 OpenBabel03252502103D

 42 45  0  0  0  0  0  0  0  0999 V2000
   38.7330   28.6900   36.7750 C   0  0  0  0  0  0  0  0  0  0  0  0
   37.4440   28.7010   36.2340 C   0  0  0  0  0  0  0  0  0  0  0  0
   36.4130   28.9150   37.1070 C   0  0  0  0  0  0  0  0  0  0  0  0
   36.6660   29.1040   38.4030 N   0  0  0  0  0  0  0  0  0  0  0  0
   37.8710   29.1010   38.9320 C   0  0  0  0  0  0  0  0  0  0  0  0
   38.9100   28.8880   38.0910 N   0  0  0  0  0  0  0  0  0  0  0  0
   35.1190   28.9170   36.6440 N   0  0  0  0  0  0  0  0  0  0  0  0
   33.9170   28.9570   37.5230 C   0  0  0  0  0  0  0  0  0  0  0  0
   32.7540   29.2520   36.6150 C   0  0  0  0  0  0  0  0  0  0  0  0
   33.2040   28.7120   35.3040 C   0  0  0  0  0  0  0  0  0  0  0  0
   34.6800   28.8760   35.2840 C   0  0  0  0  0  0  0  0  0  0  0  0
   39.5910   28.5200   36.1180 H   0  0  0  0  0  0  0  0  0  0  0  0
   34.0960   29.8200   38.1950 H   0  0  0  0  0  0  0  0  0  0  0  0
   33.8280   28.0020   38.0530 H   0  0  0  0  0  0  0  0  0  0  0  0
   31.8740   28.6850   37.0030 H   0  0  0  0  0  0  0  0  0  0  0  0
   32.4730   30.3190   36.5820 H   0  0  0  0  0  0  0  0  0  0  0  0
   32.8660   27.6570   35.2470 H   0  0  0  0  0  0  0  0  0  0  0  0
   32.7180   29.2100   34.4280 H   0  0  0  0  0  0  0  0  0  0  0  0
   34.9760   29.8150   34.7800 H   0  0  0  0  0  0  0  0  0  0  0  0
   35.0390   27.9540   34.7360 H   0  0  0  0  0  0  0  0  0  0  0  0
   38.3530   29.3250   40.3170 C   0  0  0  0  0  0  0  0  0  0  0  0
   38.7350   30.5180   40.7880 N   0  0  0  0  0  0  0  0  0  0  0  0
   39.1670   30.7530   42.0220 C   0  0  0  0  0  0  0  0  0  0  0  0
   39.2450   29.7360   42.9140 N   0  0  0  0  0  0  0  0  0  0  0  0
   38.8910   28.4920   42.5640 C   0  0  0  0  0  0  0  0  0  0  0  0
   38.9680   27.4550   43.4660 C   0  0  0  0  0  0  0  0  0  0  0  0
   38.6130   26.1890   43.1270 C   0  0  0  0  0  0  0  0  0  0  0  0
   38.1670   25.9630   41.8360 C   0  0  0  0  0  0  0  0  0  0  0  0
   38.1050   27.0390   40.9610 C   0  0  0  0  0  0  0  0  0  0  0  0
   38.4510   28.3160   41.2660 C   0  0  0  0  0  0  0  0  0  0  0  0
   39.4580   31.7480   42.3290 H   0  0  0  0  0  0  0  0  0  0  0  0
   39.3180   27.6440   44.4720 H   0  0  0  0  0  0  0  0  0  0  0  0
   38.6860   25.3990   43.8620 H   0  0  0  0  0  0  0  0  0  0  0  0
   37.6300   26.6340   39.6760 N   0  0  0  0  0  0  0  0  0  0  0  0
   38.5250   26.3270   39.1970 H   0  0  0  0  0  0  0  0  0  0  0  0
   36.6990   26.5940   39.2190 H   0  0  0  0  0  0  0  0  0  0  0  0
   37.7850   24.6040   41.4660 C   0  0  0  0  0  0  0  0  0  0  0  0
   38.5180   23.8610   41.2900 H   0  0  0  0  0  0  0  0  0  0  0  0
   36.5780   24.2760   41.3440 O   0  0  0  0  0  0  0  0  0  0  0  0
   37.3210   28.5530   34.8810 N   0  0  0  0  0  0  0  0  0  0  0  0
   37.1950   29.2350   34.1020 H   0  0  0  0  0  0  0  0  0  0  0  0
   37.3890   27.4970   34.7720 H   0  0  0  0  0  0  0  0  0  0  0  0
  1  6  1  0  0  0  0
  2  1  2  0  0  0  0
  2  3  1  0  0  0  0
  3  4  2  0  0  0  0
  4  5  1  0  0  0  0
  5 21  1  0  0  0  0
  6  5  2  0  0  0  0
  7  3  1  0  0  0  0
  7  8  1  0  0  0  0
  8 14  1  0  0  0  0
  8 13  1  0  0  0  0
  9 15  1  0  0  0  0
  9  8  1  0  0  0  0
 10  9  1  0  0  0  0
 11 10  1  0  0  0  0
 11  7  1  0  0  0  0
 12  1  1  0  0  0  0
 16  9  1  0  0  0  0
 17 10  1  0  0  0  0
 18 10  1  0  0  0  0
 19 11  1  0  0  0  0
 20 11  1  0  0  0  0
 21 22  2  0  0  0  0
 21 30  1  0  0  0  0
 22 23  1  0  0  0  0
 23 31  1  0  0  0  0
 23 24  2  0  0  0  0
 25 24  1  0  0  0  0
 25 26  1  0  0  0  0
 26 32  1  0  0  0  0
 27 26  2  0  0  0  0
 27 33  1  0  0  0  0
 28 27  1  0  0  0  0
 29 30  1  0  0  0  0
 29 28  2  0  0  0  0
 30 25  2  0  0  0  0
 34 29  1  0  0  0  0
 35 34  1  0  0  0  0
 36 34  1  0  0  0  0
 37 28  1  0  0  0  0
 38 37  1  0  0  0  0
 39 37  2  0  0  0  0
 40  2  1  0  0  0  0
 41 40  1  0  0  0  0
 42 40  1  0  0  0  0
M  END
>  <minimizedAffinity>
-5.55549335

$$$$

 OpenBabel03252502103D

 42 45  0  0  0  0  0  0  0  0999 V2000
   38.2610   30.7990   38.2710 C   0  0  0  0  0  0  0  0  0  0  0  0
   39.3520   31.6460   38.0520 C   0  0  0  0  0  0  0  0  0  0  0  0
   40.2850   31.7160   39.0490 C   0  0  0  0  0  0  0  0  0  0  0  0
   40.1280   30.9950   40.1610 N   0  0  0  0  0  0  0  0  0  0  0  0
   39.1120   30.1900   40.3850 C   0  0  0  0  0  0  0  0  0  0  0  0
   38.1710   30.1030   39.4160 N   0  0  0  0  0  0  0  0  0  0  0  0
   41.3720   32.5460   38.9070 N   0  0  0  0  0  0  0  0  0  0  0  0
   42.3460   32.8400   39.9940 C   0  0  0  0  0  0  0  0  0  0  0  0
   43.5100   33.5240   39.3280 C   0  0  0  0  0  0  0  0  0  0  0  0
   42.8890   34.1590   38.1360 C   0  0  0  0  0  0  0  0  0  0  0  0
   41.7670   33.2700   37.7400 C   0  0  0  0  0  0  0  0  0  0  0  0
   37.4860   30.7100   37.5040 H   0  0  0  0  0  0  0  0  0  0  0  0
   42.6580   31.8420   40.3610 H   0  0  0  0  0  0  0  0  0  0  0  0
   41.8570   33.4540   40.7590 H   0  0  0  0  0  0  0  0  0  0  0  0
   43.8970   34.2920   40.0390 H   0  0  0  0  0  0  0  0  0  0  0  0
   44.3460   32.8450   39.0850 H   0  0  0  0  0  0  0  0  0  0  0  0
   42.5740   35.1800   38.4300 H   0  0  0  0  0  0  0  0  0  0  0  0
   43.6100   34.3200   37.2930 H   0  0  0  0  0  0  0  0  0  0  0  0
   42.0760   32.5520   36.9560 H   0  0  0  0  0  0  0  0  0  0  0  0
   40.9740   33.9910   37.3820 H   0  0  0  0  0  0  0  0  0  0  0  0
   38.7820   29.2920   41.5190 C   0  0  0  0  0  0  0  0  0  0  0  0
   38.0040   29.6490   42.5490 N   0  0  0  0  0  0  0  0  0  0  0  0
   37.6860   28.8690   43.5760 C   0  0  0  0  0  0  0  0  0  0  0  0
   38.1610   27.6010   43.6320 N   0  0  0  0  0  0  0  0  0  0  0  0
   38.9510   27.1240   42.6620 C   0  0  0  0  0  0  0  0  0  0  0  0
   39.4360   25.8370   42.7130 C   0  0  0  0  0  0  0  0  0  0  0  0
   40.2380   25.3380   41.7370 C   0  0  0  0  0  0  0  0  0  0  0  0
   40.5600   26.1670   40.6750 C   0  0  0  0  0  0  0  0  0  0  0  0
   40.0480   27.4560   40.6650 C   0  0  0  0  0  0  0  0  0  0  0  0
   39.2440   27.9860   41.6220 C   0  0  0  0  0  0  0  0  0  0  0  0
   37.0500   29.2300   44.3720 H   0  0  0  0  0  0  0  0  0  0  0  0
   39.1770   25.1990   43.5480 H   0  0  0  0  0  0  0  0  0  0  0  0
   40.6000   24.3220   41.8100 H   0  0  0  0  0  0  0  0  0  0  0  0
   40.4780   28.1740   39.5070 N   0  0  0  0  0  0  0  0  0  0  0  0
   41.4070   28.5720   39.8280 H   0  0  0  0  0  0  0  0  0  0  0  0
   40.0900   28.3330   38.5570 H   0  0  0  0  0  0  0  0  0  0  0  0
   41.4220   25.6370   39.6240 C   0  0  0  0  0  0  0  0  0  0  0  0
   42.4570   25.4890   39.7900 H   0  0  0  0  0  0  0  0  0  0  0  0
   40.9640   25.3400   38.4920 O   0  0  0  0  0  0  0  0  0  0  0  0
   39.4270   32.2860   36.8470 N   0  0  0  0  0  0  0  0  0  0  0  0
   39.9510   32.0830   35.9680 H   0  0  0  0  0  0  0  0  0  0  0  0
   38.7790   33.1150   37.0030 H   0  0  0  0  0  0  0  0  0  0  0  0
  1  6  1  0  0  0  0
  2  1  2  0  0  0  0
  2  3  1  0  0  0  0
  3  4  2  0  0  0  0
  4  5  1  0  0  0  0
  5 21  1  0  0  0  0
  6  5  2  0  0  0  0
  7  3  1  0  0  0  0
  7  8  1  0  0  0  0
  8 13  1  0  0  0  0
  8 14  1  0  0  0  0
  9  8  1  0  0  0  0
  9 15  1  0  0  0  0
 10 17  1  0  0  0  0
 10  9  1  0  0  0  0
 11 10  1  0  0  0  0
 11  7  1  0  0  0  0
 12  1  1  0  0  0  0
 16  9  1  0  0  0  0
 18 10  1  0  0  0  0
 19 11  1  0  0  0  0
 20 11  1  0  0  0  0
 21 30  2  0  0  0  0
 21 22  1  0  0  0  0
 22 23  2  0  0  0  0
 23 24  1  0  0  0  0
 23 31  1  0  0  0  0
 25 26  1  0  0  0  0
 25 24  2  0  0  0  0
 26 32  1  0  0  0  0
 27 33  1  0  0  0  0
 27 26  2  0  0  0  0
 28 27  1  0  0  0  0
 29 28  2  0  0  0  0
 29 30  1  0  0  0  0
 30 25  1  0  0  0  0
 34 35  1  0  0  0  0
 34 29  1  0  0  0  0
 36 34  1  0  0  0  0
 37 38  1  0  0  0  0
 37 28  1  0  0  0  0
 39 37  2  0  0  0  0
 40 42  1  0  0  0  0
 40  2  1  0  0  0  0
 41 40  1  0  0  0  0
M  END
>  <minimizedAffinity>
-5.53583241

$$$$

 OpenBabel03252502103D

 42 45  0  0  0  0  0  0  0  0999 V2000
   36.7850   30.1360   38.1800 C   0  0  0  0  0  0  0  0  0  0  0  0
   36.6100   29.4500   39.3860 C   0  0  0  0  0  0  0  0  0  0  0  0
   37.7030   29.3510   40.2010 C   0  0  0  0  0  0  0  0  0  0  0  0
   38.8620   29.9000   39.8320 N   0  0  0  0  0  0  0  0  0  0  0  0
   39.0470   30.5530   38.7040 C   0  0  0  0  0  0  0  0  0  0  0  0
   37.9820   30.6620   37.8760 N   0  0  0  0  0  0  0  0  0  0  0  0
   37.6050   28.6710   41.3920 N   0  0  0  0  0  0  0  0  0  0  0  0
   38.7660   28.3470   42.2670 C   0  0  0  0  0  0  0  0  0  0  0  0
   38.1790   27.8870   43.5740 C   0  0  0  0  0  0  0  0  0  0  0  0
   36.8510   27.3490   43.1770 C   0  0  0  0  0  0  0  0  0  0  0  0
   36.4220   28.1540   42.0040 C   0  0  0  0  0  0  0  0  0  0  0  0
   35.9410   30.2390   37.4920 H   0  0  0  0  0  0  0  0  0  0  0  0
   39.2840   29.3160   42.4090 H   0  0  0  0  0  0  0  0  0  0  0  0
   39.3850   27.5880   41.7740 H   0  0  0  0  0  0  0  0  0  0  0  0
   38.8390   27.0790   43.9710 H   0  0  0  0  0  0  0  0  0  0  0  0
   38.1250   28.6790   44.3420 H   0  0  0  0  0  0  0  0  0  0  0  0
   36.9830   26.2690   42.9600 H   0  0  0  0  0  0  0  0  0  0  0  0
   36.0950   27.3790   44.0020 H   0  0  0  0  0  0  0  0  0  0  0  0
   35.7730   28.9970   42.3080 H   0  0  0  0  0  0  0  0  0  0  0  0
   35.8840   27.4030   41.3530 H   0  0  0  0  0  0  0  0  0  0  0  0
   40.2260   31.2530   38.1390 C   0  0  0  0  0  0  0  0  0  0  0  0
   40.4370   32.5700   38.2580 N   0  0  0  0  0  0  0  0  0  0  0  0
   41.4830   33.2260   37.7690 C   0  0  0  0  0  0  0  0  0  0  0  0
   42.4410   32.5550   37.0870 N   0  0  0  0  0  0  0  0  0  0  0  0
   42.3460   31.2320   36.8980 C   0  0  0  0  0  0  0  0  0  0  0  0
   43.3170   30.5440   36.2060 C   0  0  0  0  0  0  0  0  0  0  0  0
   43.2350   29.2030   36.0070 C   0  0  0  0  0  0  0  0  0  0  0  0
   42.1370   28.5360   36.5240 C   0  0  0  0  0  0  0  0  0  0  0  0
   41.1830   29.2700   37.2150 C   0  0  0  0  0  0  0  0  0  0  0  0
   41.2340   30.6090   37.4320 C   0  0  0  0  0  0  0  0  0  0  0  0
   41.5830   34.2940   37.9070 H   0  0  0  0  0  0  0  0  0  0  0  0
   44.1710   31.0760   35.8080 H   0  0  0  0  0  0  0  0  0  0  0  0
   44.0170   28.6950   35.4590 H   0  0  0  0  0  0  0  0  0  0  0  0
   40.1210   28.4340   37.6750 N   0  0  0  0  0  0  0  0  0  0  0  0
   39.4700   28.4240   36.8360 H   0  0  0  0  0  0  0  0  0  0  0  0
   39.9240   27.9160   38.5520 H   0  0  0  0  0  0  0  0  0  0  0  0
   42.0430   27.0950   36.3120 C   0  0  0  0  0  0  0  0  0  0  0  0
   41.8200   26.6980   35.3570 H   0  0  0  0  0  0  0  0  0  0  0  0
   42.2230   26.2840   37.2540 O   0  0  0  0  0  0  0  0  0  0  0  0
   35.3590   28.9840   39.6760 N   0  0  0  0  0  0  0  0  0  0  0  0
   34.5830   29.3560   40.2660 H   0  0  0  0  0  0  0  0  0  0  0  0
   35.3320   28.0760   39.1230 H   0  0  0  0  0  0  0  0  0  0  0  0
  1  2  1  0  0  0  0
  2 40  1  0  0  0  0
  2  3  2  0  0  0  0
  3  7  1  0  0  0  0
  4  3  1  0  0  0  0
  5  4  2  0  0  0  0
  6  1  2  0  0  0  0
  6  5  1  0  0  0  0
  7 11  1  0  0  0  0
  7  8  1  0  0  0  0
  8 13  1  0  0  0  0
  8  9  1  0  0  0  0
  9 15  1  0  0  0  0
  9 16  1  0  0  0  0
 10  9  1  0  0  0  0
 10 18  1  0  0  0  0
 11 19  1  0  0  0  0
 11 10  1  0  0  0  0
 12  1  1  0  0  0  0
 14  8  1  0  0  0  0
 17 10  1  0  0  0  0
 20 11  1  0  0  0  0
 21 22  1  0  0  0  0
 21  5  1  0  0  0  0
 23 31  1  0  0  0  0
 23 22  2  0  0  0  0
 24 23  1  0  0  0  0
 25 24  2  0  0  0  0
 25 30  1  0  0  0  0
 26 25  1  0  0  0  0
 27 26  2  0  0  0  0
 27 28  1  0  0  0  0
 28 29  2  0  0  0  0
 29 30  1  0  0  0  0
 29 34  1  0  0  0  0
 30 21  2  0  0  0  0
 32 26  1  0  0  0  0
 33 27  1  0  0  0  0
 34 36  1  0  0  0  0
 35 34  1  0  0  0  0
 37 28  1  0  0  0  0
 37 39  2  0  0  0  0
 38 37  1  0  0  0  0
 40 41  1  0  0  0  0
 42 40  1  0  0  0  0
M  END
>  <minimizedAffinity>
-5.53401566

$$$$
