
 OpenBabel03252501523D

 39 41  0  0  1  0  0  0  0  0999 V2000
   33.6400   29.0470   37.0370 C   0  0  0  0  0  3  0  0  0  0  0  0
   32.3180   29.2080   37.1730 C   0  0  0  0  0  3  0  0  0  0  0  0
   35.7920   28.1160   38.0000 C   0  0  0  0  0  0  0  0  0  0  0  0
   34.5340   28.7780   38.1660 C   0  0  0  0  0  0  0  0  0  0  0  0
   34.1540   29.1760   39.4480 C   0  0  0  0  0  0  0  0  0  0  0  0
   34.9940   28.9200   40.4840 N   0  0  0  0  0  0  0  0  0  0  0  0
   36.1690   28.2950   40.2920 C   0  0  0  0  0  0  0  0  0  0  0  0
   36.5470   27.9070   39.0650 N   0  0  0  0  0  0  0  0  0  0  0  0
   36.0410   27.8270   36.9860 H   0  0  0  0  0  0  0  0  0  0  0  0
   33.2050   29.6790   39.5960 H   0  0  0  0  0  0  0  0  0  0  0  0
   37.3020   30.3780   41.7330 F   0  0  0  0  0  0  0  0  0  0  0  0
   37.5910   29.1070   42.1400 C   0  0  0  0  0  0  0  0  0  0  0  0
   37.0370   28.0420   41.4370 C   0  0  0  0  0  0  0  0  0  0  0  0
   37.2800   26.7270   41.7830 C   0  0  0  0  0  0  0  0  0  0  0  0
   38.1140   26.5120   42.8820 C   0  0  0  0  0  0  0  0  0  0  0  0
   38.6800   27.5650   43.6030 C   0  0  0  0  0  0  0  0  0  0  0  0
   38.4110   28.8850   43.2210 C   0  0  0  0  0  0  0  0  0  0  0  0
   36.8740   25.8910   41.2690 H   0  0  0  0  0  0  0  0  0  0  0  0
   38.3720   25.5300   43.2420 H   0  0  0  0  0  0  0  0  0  0  0  0
   39.3260   27.3820   44.4530 H   0  0  0  0  0  0  0  0  0  0  0  0
   38.8290   29.7290   43.7510 H   0  0  0  0  0  0  0  0  0  0  0  0
   31.4500   29.4820   35.9810 C   0  0  0  0  0  0  0  0  0  0  0  0
   32.0450   29.9530   35.1820 H   0  0  0  0  0  0  0  0  0  0  0  0
   31.1270   28.4880   35.6070 H   0  0  0  0  0  0  0  0  0  0  0  0
   30.2550   30.2090   36.3200 N   0  0  0  0  0  0  0  0  0  0  0  0
   29.6370   29.6430   37.4730 C   0  0  0  0  0  0  0  0  0  0  0  0
   29.0240   30.7610   38.2660 C   0  0  0  0  0  0  0  0  0  0  0  0
   29.8270   31.9650   37.8400 C   0  0  0  0  0  0  0  0  0  0  0  0
   30.5110   31.5910   36.5410 C   0  0  2  0  0  0  0  0  0  0  0  0
   30.4460   29.1460   38.0650 H   0  0  0  0  0  0  0  0  0  0  0  0
   28.9080   28.8590   37.2120 H   0  0  0  0  0  0  0  0  0  0  0  0
   27.9480   30.8760   38.0640 H   0  0  0  0  0  0  0  0  0  0  0  0
   29.1990   30.5240   39.3490 H   0  0  0  0  0  0  0  0  0  0  0  0
   30.5370   32.2470   38.6370 H   0  0  0  0  0  0  0  0  0  0  0  0
   29.1210   32.8000   37.6870 H   0  0  0  0  0  0  0  0  0  0  0  0
   31.6030   31.7330   36.7150 H   0  0  0  0  0  0  0  0  0  0  0  0
   30.0800   32.4820   35.4270 C   0  0  0  0  0  0  0  0  0  0  0  0
   30.7840   32.8910   34.6960 H   0  0  0  0  0  0  0  0  0  0  0  0
   28.8890   32.7210   35.3890 O   0  0  0  0  0  0  0  0  0  0  0  0
  1  2  2  0  0  0  0
  1  4  1  0  0  0  0
  3  4  2  0  0  0  0
  3  8  1  0  0  0  0
  4  5  1  0  0  0  0
  5 10  1  0  0  0  0
  5  6  2  0  0  0  0
  7  6  1  0  0  0  0
  7 13  1  0  0  0  0
  8  7  2  0  0  0  0
  9  3  1  0  0  0  0
 11 12  1  0  0  0  0
 12 17  1  0  0  0  0
 13 14  1  0  0  0  0
 13 12  2  0  0  0  0
 14 15  2  0  0  0  0
 15 19  1  0  0  0  0
 15 16  1  0  0  0  0
 16 20  1  0  0  0  0
 17 16  2  0  0  0  0
 17 21  1  0  0  0  0
 18 14  1  0  0  0  0
 22 25  1  0  0  0  0
 22  2  1  0  0  0  0
 23 22  1  0  0  0  0
 24 22  1  0  0  0  0
 25 29  1  0  0  0  0
 25 26  1  0  0  0  0
 26 30  1  0  0  0  0
 26 27  1  0  0  0  0
 27 33  1  0  0  0  0
 28 27  1  0  0  0  0
 28 34  1  0  0  0  0
 29 36  1  1  0  0  0
 29 28  1  0  0  0  0
 31 26  1  0  0  0  0
 32 27  1  0  0  0  0
 35 28  1  0  0  0  0
 37 29  1  0  0  0  0
 38 37  1  0  0  0  0
 39 37  2  0  0  0  0
M  END
>  <minimizedAffinity>
-5.63500595

$$$$

 OpenBabel03252501523D

 39 41  0  0  1  0  0  0  0  0999 V2000
   33.6630   29.0080   36.8520 C   0  0  0  0  0  3  0  0  0  0  0  0
   32.3870   29.4060   36.9390 C   0  0  0  0  0  3  0  0  0  0  0  0
   35.7850   28.1330   37.9260 C   0  0  0  0  0  0  0  0  0  0  0  0
   34.5090   28.7720   38.0240 C   0  0  0  0  0  0  0  0  0  0  0  0
   34.0620   29.1790   39.2830 C   0  0  0  0  0  0  0  0  0  0  0  0
   34.8590   28.9520   40.3590 N   0  0  0  0  0  0  0  0  0  0  0  0
   36.0530   28.3490   40.2300 C   0  0  0  0  0  0  0  0  0  0  0  0
   36.4940   27.9530   39.0270 N   0  0  0  0  0  0  0  0  0  0  0  0
   36.0860   27.8360   36.9280 H   0  0  0  0  0  0  0  0  0  0  0  0
   33.0970   29.6650   39.3800 H   0  0  0  0  0  0  0  0  0  0  0  0
   36.6930   25.7890   41.0870 F   0  0  0  0  0  0  0  0  0  0  0  0
   37.1760   26.8330   41.8220 C   0  0  0  0  0  0  0  0  0  0  0  0
   36.8720   28.1280   41.4170 C   0  0  0  0  0  0  0  0  0  0  0  0
   37.3200   29.2390   42.1050 C   0  0  0  0  0  0  0  0  0  0  0  0
   38.1020   29.0010   43.2370 C   0  0  0  0  0  0  0  0  0  0  0  0
   38.4210   27.7090   43.6630 C   0  0  0  0  0  0  0  0  0  0  0  0
   37.9460   26.6090   42.9390 C   0  0  0  0  0  0  0  0  0  0  0  0
   37.1070   30.2400   41.8230 H   0  0  0  0  0  0  0  0  0  0  0  0
   38.5060   29.7890   43.8500 H   0  0  0  0  0  0  0  0  0  0  0  0
   39.0280   27.5410   44.5440 H   0  0  0  0  0  0  0  0  0  0  0  0
   38.1690   25.5930   43.2330 H   0  0  0  0  0  0  0  0  0  0  0  0
   31.5670   29.6330   35.7040 C   0  0  0  0  0  0  0  0  0  0  0  0
   32.0970   29.2390   34.8210 H   0  0  0  0  0  0  0  0  0  0  0  0
   30.6480   29.0240   35.8340 H   0  0  0  0  0  0  0  0  0  0  0  0
   31.1430   31.0020   35.5630 N   0  0  0  0  0  0  0  0  0  0  0  0
   31.5580   31.5250   34.3040 C   0  0  0  0  0  0  0  0  0  0  0  0
   30.4980   32.4730   33.8240 C   0  0  0  0  0  0  0  0  0  0  0  0
   29.2600   31.9980   34.5440 C   0  0  0  0  0  0  0  0  0  0  0  0
   29.7350   31.1460   35.7040 C   0  0  2  0  0  0  0  0  0  0  0  0
   31.6470   30.6570   33.6040 H   0  0  0  0  0  0  0  0  0  0  0  0
   32.5540   31.9940   34.3560 H   0  0  0  0  0  0  0  0  0  0  0  0
   30.7420   33.5220   34.0500 H   0  0  0  0  0  0  0  0  0  0  0  0
   30.4020   32.3190   32.7170 H   0  0  0  0  0  0  0  0  0  0  0  0
   28.6030   31.4500   33.8460 H   0  0  0  0  0  0  0  0  0  0  0  0
   28.7210   32.8910   34.9070 H   0  0  0  0  0  0  0  0  0  0  0  0
   29.2550   30.1490   35.5710 H   0  0  0  0  0  0  0  0  0  0  0  0
   29.3030   31.7210   37.0090 C   0  0  0  0  0  0  0  0  0  0  0  0
   28.2590   31.7190   37.3350 H   0  0  0  0  0  0  0  0  0  0  0  0
   30.1960   32.1930   37.6860 O   0  0  0  0  0  0  0  0  0  0  0  0
  1  2  2  0  0  0  0
  1  4  1  0  0  0  0
  3  4  2  0  0  0  0
  3  8  1  0  0  0  0
  4  5  1  0  0  0  0
  5 10  1  0  0  0  0
  5  6  2  0  0  0  0
  7  6  1  0  0  0  0
  7 13  1  0  0  0  0
  8  7  2  0  0  0  0
  9  3  1  0  0  0  0
 11 12  1  0  0  0  0
 12 17  1  0  0  0  0
 13 12  2  0  0  0  0
 13 14  1  0  0  0  0
 14 15  2  0  0  0  0
 15 16  1  0  0  0  0
 15 19  1  0  0  0  0
 16 20  1  0  0  0  0
 17 21  1  0  0  0  0
 17 16  2  0  0  0  0
 18 14  1  0  0  0  0
 22 24  1  0  0  0  0
 22  2  1  0  0  0  0
 23 22  1  0  0  0  0
 25 22  1  0  0  0  0
 25 29  1  0  0  0  0
 26 31  1  0  0  0  0
 26 25  1  0  0  0  0
 27 32  1  0  0  0  0
 27 26  1  0  0  0  0
 27 28  1  0  0  0  0
 28 35  1  0  0  0  0
 28 29  1  0  0  0  0
 29 36  1  6  0  0  0
 29 37  1  0  0  0  0
 30 26  1  0  0  0  0
 33 27  1  0  0  0  0
 34 28  1  0  0  0  0
 37 38  1  0  0  0  0
 37 39  2  0  0  0  0
M  END
>  <minimizedAffinity>
-5.39022493

$$$$

 OpenBabel03252501523D

 39 41  0  0  1  0  0  0  0  0999 V2000
   33.6070   28.3140   36.6500 C   0  0  0  0  0  3  0  0  0  0  0  0
   32.5730   29.1340   36.4190 C   0  0  0  0  0  3  0  0  0  0  0  0
   35.6060   27.6010   38.0350 C   0  0  0  0  0  0  0  0  0  0  0  0
   34.3940   28.3470   37.8840 C   0  0  0  0  0  0  0  0  0  0  0  0
   33.9550   29.1280   38.9540 C   0  0  0  0  0  0  0  0  0  0  0  0
   34.6970   29.1470   40.0920 N   0  0  0  0  0  0  0  0  0  0  0  0
   35.8310   28.4330   40.1990 C   0  0  0  0  0  0  0  0  0  0  0  0
   36.2640   27.6780   39.1780 N   0  0  0  0  0  0  0  0  0  0  0  0
   35.9030   27.0110   37.1760 H   0  0  0  0  0  0  0  0  0  0  0  0
   33.0390   29.7010   38.8620 H   0  0  0  0  0  0  0  0  0  0  0  0
   37.8000   30.3450   40.6030 F   0  0  0  0  0  0  0  0  0  0  0  0
   37.5750   29.4570   41.6150 C   0  0  0  0  0  0  0  0  0  0  0  0
   36.5930   28.4870   41.4410 C   0  0  0  0  0  0  0  0  0  0  0  0
   36.3030   27.5510   42.4150 C   0  0  0  0  0  0  0  0  0  0  0  0
   37.0460   27.6240   43.5950 C   0  0  0  0  0  0  0  0  0  0  0  0
   38.0360   28.5900   43.7920 C   0  0  0  0  0  0  0  0  0  0  0  0
   38.3010   29.5200   42.7810 C   0  0  0  0  0  0  0  0  0  0  0  0
   35.5610   26.7980   42.3150 H   0  0  0  0  0  0  0  0  0  0  0  0
   36.9060   26.9470   44.4220 H   0  0  0  0  0  0  0  0  0  0  0  0
   38.6050   28.6330   44.7130 H   0  0  0  0  0  0  0  0  0  0  0  0
   39.0580   30.2840   42.8920 H   0  0  0  0  0  0  0  0  0  0  0  0
   31.8010   29.0560   35.1360 C   0  0  0  0  0  0  0  0  0  0  0  0
   32.4950   29.0010   34.2810 H   0  0  0  0  0  0  0  0  0  0  0  0
   31.2480   28.0950   35.1730 H   0  0  0  0  0  0  0  0  0  0  0  0
   30.8160   30.1000   35.0170 N   0  0  0  0  0  0  0  0  0  0  0  0
   30.8530   30.9530   36.1580 C   0  0  0  0  0  0  0  0  0  0  0  0
   30.5460   32.3490   35.7020 C   0  0  0  0  0  0  0  0  0  0  0  0
   30.9310   32.3280   34.2440 C   0  0  0  0  0  0  0  0  0  0  0  0
   30.9890   30.8700   33.8340 C   0  0  2  0  0  0  0  0  0  0  0  0
   31.8910   30.9000   36.5710 H   0  0  0  0  0  0  0  0  0  0  0  0
   30.1760   30.6080   36.9570 H   0  0  0  0  0  0  0  0  0  0  0  0
   29.4890   32.6170   35.8570 H   0  0  0  0  0  0  0  0  0  0  0  0
   31.2160   33.0350   36.2840 H   0  0  0  0  0  0  0  0  0  0  0  0
   31.8880   32.8580   34.0970 H   0  0  0  0  0  0  0  0  0  0  0  0
   30.1440   32.8630   33.6820 H   0  0  0  0  0  0  0  0  0  0  0  0
   32.0190   30.7020   33.4410 H   0  0  0  0  0  0  0  0  0  0  0  0
   30.0060   30.5720   32.7550 C   0  0  0  0  0  0  0  0  0  0  0  0
   29.1840   31.2500   32.5050 H   0  0  0  0  0  0  0  0  0  0  0  0
   30.1830   29.5200   32.1720 O   0  0  0  0  0  0  0  0  0  0  0  0
  1  4  1  0  0  0  0
  2  1  2  0  0  0  0
  3  8  1  0  0  0  0
  4  3  2  0  0  0  0
  4  5  1  0  0  0  0
  5  6  2  0  0  0  0
  6  7  1  0  0  0  0
  7 13  1  0  0  0  0
  8  7  2  0  0  0  0
  9  3  1  0  0  0  0
 10  5  1  0  0  0  0
 11 12  1  0  0  0  0
 12 17  1  0  0  0  0
 13 12  2  0  0  0  0
 13 14  1  0  0  0  0
 14 15  2  0  0  0  0
 15 16  1  0  0  0  0
 15 19  1  0  0  0  0
 16 20  1  0  0  0  0
 17 21  1  0  0  0  0
 17 16  2  0  0  0  0
 18 14  1  0  0  0  0
 22 24  1  0  0  0  0
 22  2  1  0  0  0  0
 23 22  1  0  0  0  0
 25 22  1  0  0  0  0
 25 26  1  0  0  0  0
 26 30  1  0  0  0  0
 26 31  1  0  0  0  0
 27 32  1  0  0  0  0
 27 26  1  0  0  0  0
 27 33  1  0  0  0  0
 28 27  1  0  0  0  0
 29 36  1  6  0  0  0
 29 28  1  0  0  0  0
 29 25  1  0  0  0  0
 34 28  1  0  0  0  0
 35 28  1  0  0  0  0
 37 29  1  0  0  0  0
 38 37  1  0  0  0  0
 39 37  2  0  0  0  0
M  END
>  <minimizedAffinity>
-5.38209295

$$$$

 OpenBabel03252501523D

 39 41  0  0  1  0  0  0  0  0999 V2000
   37.2280   27.2840   40.9860 C   0  0  0  0  0  3  0  0  0  0  0  0
   37.2590   26.6150   42.1460 C   0  0  0  0  0  3  0  0  0  0  0  0
   38.1060   29.1810   39.5530 C   0  0  0  0  0  0  0  0  0  0  0  0
   37.7550   28.6420   40.8310 C   0  0  0  0  0  0  0  0  0  0  0  0
   37.9240   29.4430   41.9610 C   0  0  0  0  0  0  0  0  0  0  0  0
   38.4120   30.6990   41.8000 N   0  0  0  0  0  0  0  0  0  0  0  0
   38.7320   31.1740   40.5830 C   0  0  0  0  0  0  0  0  0  0  0  0
   38.5750   30.4150   39.4890 N   0  0  0  0  0  0  0  0  0  0  0  0
   37.9560   28.5200   38.7070 H   0  0  0  0  0  0  0  0  0  0  0  0
   37.6640   29.0540   42.9400 H   0  0  0  0  0  0  0  0  0  0  0  0
   37.0520   33.3290   40.1030 F   0  0  0  0  0  0  0  0  0  0  0  0
   38.3860   33.5920   40.2210 C   0  0  0  0  0  0  0  0  0  0  0  0
   39.2540   32.5310   40.4620 C   0  0  0  0  0  0  0  0  0  0  0  0
   40.6170   32.7100   40.5930 C   0  0  0  0  0  0  0  0  0  0  0  0
   41.0910   34.0180   40.4730 C   0  0  0  0  0  0  0  0  0  0  0  0
   40.2390   35.0990   40.2320 C   0  0  0  0  0  0  0  0  0  0  0  0
   38.8630   34.8760   40.1030 C   0  0  0  0  0  0  0  0  0  0  0  0
   41.3070   31.9240   40.7780 H   0  0  0  0  0  0  0  0  0  0  0  0
   42.1330   34.2770   40.5580 H   0  0  0  0  0  0  0  0  0  0  0  0
   40.6220   36.1080   40.1400 H   0  0  0  0  0  0  0  0  0  0  0  0
   38.1690   35.6830   39.9160 H   0  0  0  0  0  0  0  0  0  0  0  0
   36.7060   25.2250   42.2480 C   0  0  0  0  0  0  0  0  0  0  0  0
   36.2420   25.0750   43.2370 H   0  0  0  0  0  0  0  0  0  0  0  0
   35.8950   25.1660   41.4930 H   0  0  0  0  0  0  0  0  0  0  0  0
   37.6720   24.2160   41.9020 N   0  0  0  0  0  0  0  0  0  0  0  0
   37.3440   23.6200   40.6500 C   0  0  0  0  0  0  0  0  0  0  0  0
   38.6270   23.2940   39.9420 C   0  0  0  0  0  0  0  0  0  0  0  0
   39.6140   24.2540   40.5580 C   0  0  0  0  0  0  0  0  0  0  0  0
   38.9970   24.7340   41.8560 C   0  0  2  0  0  0  0  0  0  0  0  0
   36.7630   24.3800   40.0690 H   0  0  0  0  0  0  0  0  0  0  0  0
   36.6890   22.7410   40.7670 H   0  0  0  0  0  0  0  0  0  0  0  0
   38.9220   22.2410   40.0730 H   0  0  0  0  0  0  0  0  0  0  0  0
   38.4650   23.5260   38.8560 H   0  0  0  0  0  0  0  0  0  0  0  0
   39.8330   25.0750   39.8540 H   0  0  0  0  0  0  0  0  0  0  0  0
   40.5480   23.6970   40.7490 H   0  0  0  0  0  0  0  0  0  0  0  0
   38.9480   25.8450   41.7820 H   0  0  0  0  0  0  0  0  0  0  0  0
   39.8420   24.3640   43.0260 C   0  0  0  0  0  0  0  0  0  0  0  0
   40.2390   23.3540   43.1690 H   0  0  0  0  0  0  0  0  0  0  0  0
   40.0600   25.2670   43.8110 O   0  0  0  0  0  0  0  0  0  0  0  0
  1  2  2  0  0  0  0
  2 22  1  0  0  0  0
  3  4  1  0  0  0  0
  4  1  1  0  0  0  0
  4  5  2  0  0  0  0
  5 10  1  0  0  0  0
  6  5  1  0  0  0  0
  7  6  2  0  0  0  0
  8  3  2  0  0  0  0
  8  7  1  0  0  0  0
  9  3  1  0  0  0  0
 11 12  1  0  0  0  0
 12 13  1  0  0  0  0
 13  7  1  0  0  0  0
 13 14  2  0  0  0  0
 14 18  1  0  0  0  0
 15 19  1  0  0  0  0
 15 14  1  0  0  0  0
 16 15  2  0  0  0  0
 17 12  2  0  0  0  0
 17 16  1  0  0  0  0
 20 16  1  0  0  0  0
 21 17  1  0  0  0  0
 22 23  1  0  0  0  0
 24 22  1  0  0  0  0
 25 22  1  0  0  0  0
 26 31  1  0  0  0  0
 26 25  1  0  0  0  0
 27 32  1  0  0  0  0
 27 28  1  0  0  0  0
 27 26  1  0  0  0  0
 28 35  1  0  0  0  0
 28 29  1  0  0  0  0
 29 36  1  6  0  0  0
 29 25  1  0  0  0  0
 29 37  1  0  0  0  0
 30 26  1  0  0  0  0
 33 27  1  0  0  0  0
 34 28  1  0  0  0  0
 37 38  1  0  0  0  0
 37 39  2  0  0  0  0
M  END
>  <minimizedAffinity>
-5.21421146

$$$$

 OpenBabel03252501523D

 39 41  0  0  1  0  0  0  0  0999 V2000
   36.4390   26.0860   39.0010 C   0  0  0  0  0  3  0  0  0  0  0  0
   37.0950   26.4220   40.1200 C   0  0  0  0  0  3  0  0  0  0  0  0
   35.4090   28.3700   38.6180 C   0  0  0  0  0  0  0  0  0  0  0  0
   35.4660   26.9660   38.3500 C   0  0  0  0  0  0  0  0  0  0  0  0
   34.5600   26.4240   37.4370 C   0  0  0  0  0  0  0  0  0  0  0  0
   33.6640   27.2530   36.8410 N   0  0  0  0  0  0  0  0  0  0  0  0
   33.6390   28.5680   37.1170 C   0  0  0  0  0  0  0  0  0  0  0  0
   34.5040   29.1020   37.9920 N   0  0  0  0  0  0  0  0  0  0  0  0
   36.1330   28.7410   39.3330 H   0  0  0  0  0  0  0  0  0  0  0  0
   34.5850   25.3610   37.2190 H   0  0  0  0  0  0  0  0  0  0  0  0
   31.5250   29.7010   38.5130 F   0  0  0  0  0  0  0  0  0  0  0  0
   31.6070   29.9710   37.1770 C   0  0  0  0  0  0  0  0  0  0  0  0
   32.6570   29.4170   36.4500 C   0  0  0  0  0  0  0  0  0  0  0  0
   32.8130   29.6410   35.0970 C   0  0  0  0  0  0  0  0  0  0  0  0
   31.8600   30.4560   34.4820 C   0  0  0  0  0  0  0  0  0  0  0  0
   30.7990   31.0230   35.1910 C   0  0  0  0  0  0  0  0  0  0  0  0
   30.6750   30.7720   36.5630 C   0  0  0  0  0  0  0  0  0  0  0  0
   33.6010   29.2340   34.5120 H   0  0  0  0  0  0  0  0  0  0  0  0
   31.8820   30.6990   33.4330 H   0  0  0  0  0  0  0  0  0  0  0  0
   30.0670   31.6540   34.7000 H   0  0  0  0  0  0  0  0  0  0  0  0
   29.8690   31.1910   37.1490 H   0  0  0  0  0  0  0  0  0  0  0  0
   38.0820   25.4800   40.7450 C   0  0  0  0  0  0  0  0  0  0  0  0
   37.8650   24.4460   40.4320 H   0  0  0  0  0  0  0  0  0  0  0  0
   39.0700   25.7520   40.3190 H   0  0  0  0  0  0  0  0  0  0  0  0
   38.1810   25.6470   42.1710 N   0  0  0  0  0  0  0  0  0  0  0  0
   39.4220   25.1340   42.6480 C   0  0  0  0  0  0  0  0  0  0  0  0
   39.8740   26.0010   43.7870 C   0  0  0  0  0  0  0  0  0  0  0  0
   39.1730   27.3100   43.5230 C   0  0  0  0  0  0  0  0  0  0  0  0
   38.0390   27.0070   42.5650 C   0  0  2  0  0  0  0  0  0  0  0  0
   40.1490   25.1990   41.8000 H   0  0  0  0  0  0  0  0  0  0  0  0
   39.3530   24.0700   42.9260 H   0  0  0  0  0  0  0  0  0  0  0  0
   39.6150   25.5720   44.7670 H   0  0  0  0  0  0  0  0  0  0  0  0
   40.9860   26.1140   43.6870 H   0  0  0  0  0  0  0  0  0  0  0  0
   39.8890   28.0500   43.1260 H   0  0  0  0  0  0  0  0  0  0  0  0
   38.7830   27.6810   44.4880 H   0  0  0  0  0  0  0  0  0  0  0  0
   38.2040   27.6590   41.6760 H   0  0  0  0  0  0  0  0  0  0  0  0
   36.7170   27.3380   43.1680 C   0  0  0  0  0  0  0  0  0  0  0  0
   35.7730   27.1730   42.6410 H   0  0  0  0  0  0  0  0  0  0  0  0
   36.7640   27.8040   44.2890 O   0  0  0  0  0  0  0  0  0  0  0  0
  1  2  2  0  0  0  0
  2 22  1  0  0  0  0
  3  9  1  0  0  0  0
  4  3  1  0  0  0  0
  4  1  1  0  0  0  0
  5  4  2  0  0  0  0
  6  7  2  0  0  0  0
  6  5  1  0  0  0  0
  7  8  1  0  0  0  0
  8  3  2  0  0  0  0
 10  5  1  0  0  0  0
 12 11  1  0  0  0  0
 13  7  1  0  0  0  0
 13 12  2  0  0  0  0
 14 13  1  0  0  0  0
 15 14  2  0  0  0  0
 15 16  1  0  0  0  0
 16 17  2  0  0  0  0
 17 21  1  0  0  0  0
 17 12  1  0  0  0  0
 18 14  1  0  0  0  0
 19 15  1  0  0  0  0
 20 16  1  0  0  0  0
 22 25  1  0  0  0  0
 23 22  1  0  0  0  0
 24 22  1  0  0  0  0
 25 29  1  0  0  0  0
 25 26  1  0  0  0  0
 26 31  1  0  0  0  0
 26 27  1  0  0  0  0
 27 32  1  0  0  0  0
 28 27  1  0  0  0  0
 28 35  1  0  0  0  0
 29 36  1  6  0  0  0
 29 37  1  0  0  0  0
 29 28  1  0  0  0  0
 30 26  1  0  0  0  0
 33 27  1  0  0  0  0
 34 28  1  0  0  0  0
 37 39  2  0  0  0  0
 38 37  1  0  0  0  0
M  END
>  <minimizedAffinity>
-5.17344332

$$$$

 OpenBabel03252501523D

 39 41  0  0  1  0  0  0  0  0999 V2000
   35.1080   28.2210   37.8980 C   0  0  0  0  0  3  0  0  0  0  0  0
   35.2080   28.5640   39.1880 C   0  0  0  0  0  3  0  0  0  0  0  0
   32.8140   29.1760   37.4000 C   0  0  0  0  0  0  0  0  0  0  0  0
   34.1350   28.8220   36.9820 C   0  0  0  0  0  0  0  0  0  0  0  0
   34.5010   29.0600   35.6560 C   0  0  0  0  0  0  0  0  0  0  0  0
   33.5880   29.6180   34.8210 N   0  0  0  0  0  0  0  0  0  0  0  0
   32.3540   29.9380   35.2480 C   0  0  0  0  0  0  0  0  0  0  0  0
   31.9900   29.7150   36.5190 N   0  0  0  0  0  0  0  0  0  0  0  0
   32.5790   28.9720   38.4380 H   0  0  0  0  0  0  0  0  0  0  0  0
   35.4980   28.7990   35.3180 H   0  0  0  0  0  0  0  0  0  0  0  0
   30.8970   28.3790   33.4740 F   0  0  0  0  0  0  0  0  0  0  0  0
   30.6920   29.7280   33.4330 C   0  0  0  0  0  0  0  0  0  0  0  0
   31.4090   30.5360   34.3110 C   0  0  0  0  0  0  0  0  0  0  0  0
   31.2610   31.9090   34.3340 C   0  0  0  0  0  0  0  0  0  0  0  0
   30.3500   32.4560   33.4280 C   0  0  0  0  0  0  0  0  0  0  0  0
   29.6200   31.6650   32.5380 C   0  0  0  0  0  0  0  0  0  0  0  0
   29.7990   30.2770   32.5450 C   0  0  0  0  0  0  0  0  0  0  0  0
   31.7910   32.5540   34.9900 H   0  0  0  0  0  0  0  0  0  0  0  0
   30.1540   33.5130   33.3570 H   0  0  0  0  0  0  0  0  0  0  0  0
   28.9180   32.1050   31.8400 H   0  0  0  0  0  0  0  0  0  0  0  0
   29.2540   29.6280   31.8730 H   0  0  0  0  0  0  0  0  0  0  0  0
   36.2240   27.9140   40.0800 C   0  0  0  0  0  0  0  0  0  0  0  0
   35.9550   26.8590   40.2520 H   0  0  0  0  0  0  0  0  0  0  0  0
   37.1760   27.9220   39.5110 H   0  0  0  0  0  0  0  0  0  0  0  0
   36.4550   28.6580   41.2910 N   0  0  0  0  0  0  0  0  0  0  0  0
   36.5040   27.7810   42.4130 C   0  0  0  0  0  0  0  0  0  0  0  0
   37.5110   28.3280   43.3840 C   0  0  0  0  0  0  0  0  0  0  0  0
   38.4130   29.1630   42.5100 C   0  0  0  0  0  0  0  0  0  0  0  0
   37.6490   29.4290   41.2290 C   0  0  2  0  0  0  0  0  0  0  0  0
   36.8360   26.7830   42.0320 H   0  0  0  0  0  0  0  0  0  0  0  0
   35.5120   27.6320   42.8690 H   0  0  0  0  0  0  0  0  0  0  0  0
   37.0400   28.9130   44.1890 H   0  0  0  0  0  0  0  0  0  0  0  0
   38.0640   27.4480   43.8070 H   0  0  0  0  0  0  0  0  0  0  0  0
   39.3690   28.6380   42.3420 H   0  0  0  0  0  0  0  0  0  0  0  0
   38.6200   30.1060   43.0470 H   0  0  0  0  0  0  0  0  0  0  0  0
   38.2880   29.0390   40.4030 H   0  0  0  0  0  0  0  0  0  0  0  0
   37.4290   30.8880   41.0230 C   0  0  0  0  0  0  0  0  0  0  0  0
   38.2450   31.5770   40.7840 H   0  0  0  0  0  0  0  0  0  0  0  0
   36.2770   31.2580   41.1400 O   0  0  0  0  0  0  0  0  0  0  0  0
  1  2  2  0  0  0  0
  2 22  1  0  0  0  0
  3  9  1  0  0  0  0
  4  3  1  0  0  0  0
  4  1  1  0  0  0  0
  5  4  2  0  0  0  0
  6  7  2  0  0  0  0
  6  5  1  0  0  0  0
  7  8  1  0  0  0  0
  8  3  2  0  0  0  0
 10  5  1  0  0  0  0
 12 11  1  0  0  0  0
 12 13  1  0  0  0  0
 13 14  2  0  0  0  0
 13  7  1  0  0  0  0
 14 18  1  0  0  0  0
 15 14  1  0  0  0  0
 16 17  1  0  0  0  0
 16 15  2  0  0  0  0
 17 12  2  0  0  0  0
 19 15  1  0  0  0  0
 20 16  1  0  0  0  0
 21 17  1  0  0  0  0
 22 23  1  0  0  0  0
 22 25  1  0  0  0  0
 24 22  1  0  0  0  0
 25 26  1  0  0  0  0
 26 31  1  0  0  0  0
 26 27  1  0  0  0  0
 27 33  1  0  0  0  0
 27 32  1  0  0  0  0
 28 35  1  0  0  0  0
 28 27  1  0  0  0  0
 29 36  1  6  0  0  0
 29 25  1  0  0  0  0
 29 28  1  0  0  0  0
 30 26  1  0  0  0  0
 34 28  1  0  0  0  0
 37 39  2  0  0  0  0
 37 29  1  0  0  0  0
 38 37  1  0  0  0  0
M  END
>  <minimizedAffinity>
-5.15393066

$$$$

 OpenBabel03252501523D

 39 41  0  0  1  0  0  0  0  0999 V2000
   34.2630   28.3780   37.9280 C   0  0  0  0  0  3  0  0  0  0  0  0
   34.9120   29.0980   38.8520 C   0  0  0  0  0  3  0  0  0  0  0  0
   32.0780   29.4570   37.2270 C   0  0  0  0  0  0  0  0  0  0  0  0
   33.3890   28.9770   36.9150 C   0  0  0  0  0  0  0  0  0  0  0  0
   33.8430   29.0840   35.5990 C   0  0  0  0  0  0  0  0  0  0  0  0
   33.0220   29.6420   34.6730 N   0  0  0  0  0  0  0  0  0  0  0  0
   31.7950   30.0820   35.0010 C   0  0  0  0  0  0  0  0  0  0  0  0
   31.3470   29.9850   36.2620 N   0  0  0  0  0  0  0  0  0  0  0  0
   31.7730   29.3500   38.2620 H   0  0  0  0  0  0  0  0  0  0  0  0
   34.8340   28.7270   35.3410 H   0  0  0  0  0  0  0  0  0  0  0  0
   31.3230   32.8150   34.9120 F   0  0  0  0  0  0  0  0  0  0  0  0
   30.7310   32.0470   33.9500 C   0  0  0  0  0  0  0  0  0  0  0  0
   30.9500   30.6730   33.9700 C   0  0  0  0  0  0  0  0  0  0  0  0
   30.3880   29.8260   33.0350 C   0  0  0  0  0  0  0  0  0  0  0  0
   29.5830   30.4160   32.0580 C   0  0  0  0  0  0  0  0  0  0  0  0
   29.3500   31.7930   32.0180 C   0  0  0  0  0  0  0  0  0  0  0  0
   29.9370   32.6190   32.9850 C   0  0  0  0  0  0  0  0  0  0  0  0
   30.5330   28.7740   33.0200 H   0  0  0  0  0  0  0  0  0  0  0  0
   29.0940   29.8540   31.2790 H   0  0  0  0  0  0  0  0  0  0  0  0
   28.7230   32.2360   31.2540 H   0  0  0  0  0  0  0  0  0  0  0  0
   29.7830   33.6880   32.9910 H   0  0  0  0  0  0  0  0  0  0  0  0
   35.7940   28.4320   39.8650 C   0  0  0  0  0  0  0  0  0  0  0  0
   35.2290   28.2470   40.7930 H   0  0  0  0  0  0  0  0  0  0  0  0
   36.0550   27.4420   39.4360 H   0  0  0  0  0  0  0  0  0  0  0  0
   37.0320   29.1370   40.0720 N   0  0  0  0  0  0  0  0  0  0  0  0
   37.3290   29.9630   38.9490 C   0  0  0  0  0  0  0  0  0  0  0  0
   38.0030   31.2060   39.4540 C   0  0  0  0  0  0  0  0  0  0  0  0
   37.5270   31.2990   40.8820 C   0  0  0  0  0  0  0  0  0  0  0  0
   37.0120   29.9240   41.2570 C   0  0  2  0  0  0  0  0  0  0  0  0
   36.3530   30.2200   38.4670 H   0  0  0  0  0  0  0  0  0  0  0  0
   37.9280   29.4340   38.1900 H   0  0  0  0  0  0  0  0  0  0  0  0
   39.0990   31.1490   39.3750 H   0  0  0  0  0  0  0  0  0  0  0  0
   37.6070   32.0600   38.8430 H   0  0  0  0  0  0  0  0  0  0  0  0
   36.7620   32.0880   40.9760 H   0  0  0  0  0  0  0  0  0  0  0  0
   38.3950   31.5760   41.5060 H   0  0  0  0  0  0  0  0  0  0  0  0
   35.9540   30.0680   41.5760 H   0  0  0  0  0  0  0  0  0  0  0  0
   37.7850   29.3470   42.3920 C   0  0  0  0  0  0  0  0  0  0  0  0
   38.8630   29.5010   42.5070 H   0  0  0  0  0  0  0  0  0  0  0  0
   37.1330   28.6920   43.1810 O   0  0  0  0  0  0  0  0  0  0  0  0
  1  2  2  0  0  0  0
  2 22  1  0  0  0  0
  3  9  1  0  0  0  0
  4  3  1  0  0  0  0
  4  1  1  0  0  0  0
  5  4  2  0  0  0  0
  6  7  2  0  0  0  0
  6  5  1  0  0  0  0
  7  8  1  0  0  0  0
  8  3  2  0  0  0  0
 10  5  1  0  0  0  0
 12 13  1  0  0  0  0
 12 11  1  0  0  0  0
 13  7  1  0  0  0  0
 14 13  2  0  0  0  0
 15 14  1  0  0  0  0
 16 15  2  0  0  0  0
 16 17  1  0  0  0  0
 17 21  1  0  0  0  0
 17 12  2  0  0  0  0
 18 14  1  0  0  0  0
 19 15  1  0  0  0  0
 20 16  1  0  0  0  0
 22 25  1  0  0  0  0
 22 23  1  0  0  0  0
 24 22  1  0  0  0  0
 25 29  1  0  0  0  0
 26 27  1  0  0  0  0
 26 25  1  0  0  0  0
 27 28  1  0  0  0  0
 28 34  1  0  0  0  0
 28 29  1  0  0  0  0
 28 35  1  0  0  0  0
 29 36  1  1  0  0  0
 29 37  1  0  0  0  0
 30 26  1  0  0  0  0
 31 26  1  0  0  0  0
 32 27  1  0  0  0  0
 33 27  1  0  0  0  0
 37 38  1  0  0  0  0
 37 39  2  0  0  0  0
M  END
>  <minimizedAffinity>
-5.09952641

$$$$

 OpenBabel03252501523D

 39 41  0  0  1  0  0  0  0  0999 V2000
   33.5200   28.5120   37.3320 C   0  0  0  0  0  3  0  0  0  0  0  0
   32.6050   29.3680   36.8580 C   0  0  0  0  0  3  0  0  0  0  0  0
   34.3180   29.1290   39.6570 C   0  0  0  0  0  0  0  0  0  0  0  0
   34.5760   28.9060   38.2670 C   0  0  0  0  0  0  0  0  0  0  0  0
   35.8790   29.0720   37.7950 C   0  0  0  0  0  0  0  0  0  0  0  0
   36.8460   29.4380   38.6750 N   0  0  0  0  0  0  0  0  0  0  0  0
   36.5690   29.6390   39.9750 C   0  0  0  0  0  0  0  0  0  0  0  0
   35.3210   29.4830   40.4410 N   0  0  0  0  0  0  0  0  0  0  0  0
   33.2910   28.9870   39.9720 H   0  0  0  0  0  0  0  0  0  0  0  0
   36.0960   28.9080   36.7450 H   0  0  0  0  0  0  0  0  0  0  0  0
   37.2840   28.0540   42.1370 F   0  0  0  0  0  0  0  0  0  0  0  0
   37.9790   29.2150   41.9570 C   0  0  0  0  0  0  0  0  0  0  0  0
   37.6430   30.0310   40.8810 C   0  0  0  0  0  0  0  0  0  0  0  0
   38.2960   31.2220   40.6280 C   0  0  0  0  0  0  0  0  0  0  0  0
   39.3200   31.5740   41.5100 C   0  0  0  0  0  0  0  0  0  0  0  0
   39.6750   30.7710   42.5960 C   0  0  0  0  0  0  0  0  0  0  0  0
   38.9890   29.5710   42.8190 C   0  0  0  0  0  0  0  0  0  0  0  0
   38.0650   31.8680   39.8180 H   0  0  0  0  0  0  0  0  0  0  0  0
   39.8970   32.4790   41.4110 H   0  0  0  0  0  0  0  0  0  0  0  0
   40.4720   31.0580   43.2720 H   0  0  0  0  0  0  0  0  0  0  0  0
   39.2310   28.9200   43.6470 H   0  0  0  0  0  0  0  0  0  0  0  0
   31.5450   28.9080   35.9010 C   0  0  0  0  0  0  0  0  0  0  0  0
   32.0000   28.3230   35.0860 H   0  0  0  0  0  0  0  0  0  0  0  0
   30.8950   28.2180   36.4780 H   0  0  0  0  0  0  0  0  0  0  0  0
   30.7060   29.9860   35.4430 N   0  0  0  0  0  0  0  0  0  0  0  0
   30.6920   31.0450   36.3960 C   0  0  0  0  0  0  0  0  0  0  0  0
   30.6040   32.3420   35.6450 C   0  0  0  0  0  0  0  0  0  0  0  0
   31.1680   31.9940   34.2900 C   0  0  0  0  0  0  0  0  0  0  0  0
   31.1160   30.4830   34.1750 C   0  0  2  0  0  0  0  0  0  0  0  0
   31.6560   30.9890   36.9610 H   0  0  0  0  0  0  0  0  0  0  0  0
   29.8830   30.9280   37.1360 H   0  0  0  0  0  0  0  0  0  0  0  0
   29.5730   32.7240   35.5880 H   0  0  0  0  0  0  0  0  0  0  0  0
   31.2670   33.0720   36.1800 H   0  0  0  0  0  0  0  0  0  0  0  0
   32.1900   32.4000   34.1890 H   0  0  0  0  0  0  0  0  0  0  0  0
   30.5250   32.4680   33.5280 H   0  0  0  0  0  0  0  0  0  0  0  0
   32.1620   30.1530   33.9780 H   0  0  0  0  0  0  0  0  0  0  0  0
   30.2520   30.0570   33.0390 C   0  0  0  0  0  0  0  0  0  0  0  0
   29.4760   30.7030   32.6160 H   0  0  0  0  0  0  0  0  0  0  0  0
   30.4700   28.9390   32.6160 O   0  0  0  0  0  0  0  0  0  0  0  0
  1  4  1  0  0  0  0
  2  1  2  0  0  0  0
  3  9  1  0  0  0  0
  3  8  1  0  0  0  0
  4  3  2  0  0  0  0
  5  4  1  0  0  0  0
  5  6  2  0  0  0  0
  6  7  1  0  0  0  0
  7  8  2  0  0  0  0
  7 13  1  0  0  0  0
 10  5  1  0  0  0  0
 12 11  1  0  0  0  0
 12 17  1  0  0  0  0
 13 12  2  0  0  0  0
 14 13  1  0  0  0  0
 14 15  2  0  0  0  0
 15 16  1  0  0  0  0
 16 17  2  0  0  0  0
 16 20  1  0  0  0  0
 17 21  1  0  0  0  0
 18 14  1  0  0  0  0
 19 15  1  0  0  0  0
 22 24  1  0  0  0  0
 22  2  1  0  0  0  0
 23 22  1  0  0  0  0
 25 22  1  0  0  0  0
 25 26  1  0  0  0  0
 26 30  1  0  0  0  0
 26 31  1  0  0  0  0
 27 33  1  0  0  0  0
 27 26  1  0  0  0  0
 28 27  1  0  0  0  0
 29 36  1  6  0  0  0
 29 28  1  0  0  0  0
 29 25  1  0  0  0  0
 32 27  1  0  0  0  0
 34 28  1  0  0  0  0
 35 28  1  0  0  0  0
 37 29  1  0  0  0  0
 38 37  1  0  0  0  0
 39 37  2  0  0  0  0
M  END
>  <minimizedAffinity>
-5.05231953

$$$$

 OpenBabel03252501523D

 39 41  0  0  1  0  0  0  0  0999 V2000
   34.8200   25.8820   37.3380 C   0  0  0  0  0  3  0  0  0  0  0  0
   35.8160   25.8870   38.2330 C   0  0  0  0  0  3  0  0  0  0  0  0
   34.1710   28.3000   37.7380 C   0  0  0  0  0  0  0  0  0  0  0  0
   33.9530   27.0390   37.0980 C   0  0  0  0  0  0  0  0  0  0  0  0
   32.8760   26.9150   36.2190 C   0  0  0  0  0  0  0  0  0  0  0  0
   32.0830   27.9960   36.0070 N   0  0  0  0  0  0  0  0  0  0  0  0
   32.3170   29.1670   36.6260 C   0  0  0  0  0  0  0  0  0  0  0  0
   33.3480   29.2990   37.4740 N   0  0  0  0  0  0  0  0  0  0  0  0
   35.0190   28.3440   38.4110 H   0  0  0  0  0  0  0  0  0  0  0  0
   32.6930   25.9680   35.7230 H   0  0  0  0  0  0  0  0  0  0  0  0
   30.6210   30.1560   38.5860 F   0  0  0  0  0  0  0  0  0  0  0  0
   30.5950   30.7740   37.3680 C   0  0  0  0  0  0  0  0  0  0  0  0
   31.4350   30.3000   36.3660 C   0  0  0  0  0  0  0  0  0  0  0  0
   31.4710   30.8660   35.1070 C   0  0  0  0  0  0  0  0  0  0  0  0
   30.6180   31.9490   34.8830 C   0  0  0  0  0  0  0  0  0  0  0  0
   29.7670   32.4420   35.8740 C   0  0  0  0  0  0  0  0  0  0  0  0
   29.7590   31.8400   37.1380 C   0  0  0  0  0  0  0  0  0  0  0  0
   32.0990   30.5300   34.3190 H   0  0  0  0  0  0  0  0  0  0  0  0
   30.5610   32.4690   33.9410 H   0  0  0  0  0  0  0  0  0  0  0  0
   29.1100   33.2830   35.6850 H   0  0  0  0  0  0  0  0  0  0  0  0
   29.1160   32.1900   37.9330 H   0  0  0  0  0  0  0  0  0  0  0  0
   36.6720   24.6730   38.4370 C   0  0  0  0  0  0  0  0  0  0  0  0
   36.0590   23.7610   38.3570 H   0  0  0  0  0  0  0  0  0  0  0  0
   37.3890   24.6620   37.5900 H   0  0  0  0  0  0  0  0  0  0  0  0
   37.4540   24.7420   39.6440 N   0  0  0  0  0  0  0  0  0  0  0  0
   37.3160   26.0220   40.2550 C   0  0  0  0  0  0  0  0  0  0  0  0
   37.3550   25.8310   41.7440 C   0  0  0  0  0  0  0  0  0  0  0  0
   36.9200   24.3970   41.9190 C   0  0  0  0  0  0  0  0  0  0  0  0
   37.1000   23.7240   40.5730 C   0  0  2  0  0  0  0  0  0  0  0  0
   36.3200   26.4260   39.9430 H   0  0  0  0  0  0  0  0  0  0  0  0
   38.0750   26.7370   39.8990 H   0  0  0  0  0  0  0  0  0  0  0  0
   38.3540   26.0240   42.1640 H   0  0  0  0  0  0  0  0  0  0  0  0
   36.6000   26.5360   42.1810 H   0  0  0  0  0  0  0  0  0  0  0  0
   35.8800   24.3600   42.2860 H   0  0  0  0  0  0  0  0  0  0  0  0
   37.5770   23.9380   42.6780 H   0  0  0  0  0  0  0  0  0  0  0  0
   36.1000   23.3150   40.2970 H   0  0  0  0  0  0  0  0  0  0  0  0
   38.0750   22.6010   40.6560 C   0  0  0  0  0  0  0  0  0  0  0  0
   39.0290   22.6890   41.1850 H   0  0  0  0  0  0  0  0  0  0  0  0
   37.7340   21.5790   40.0940 O   0  0  0  0  0  0  0  0  0  0  0  0
  1  2  2  0  0  0  0
  2 22  1  0  0  0  0
  3  9  1  0  0  0  0
  4  1  1  0  0  0  0
  4  3  2  0  0  0  0
  5  4  1  0  0  0  0
  6  5  2  0  0  0  0
  6  7  1  0  0  0  0
  7  8  2  0  0  0  0
  8  3  1  0  0  0  0
 10  5  1  0  0  0  0
 12 11  1  0  0  0  0
 13  7  1  0  0  0  0
 13 12  2  0  0  0  0
 14 13  1  0  0  0  0
 15 14  2  0  0  0  0
 15 16  1  0  0  0  0
 16 17  2  0  0  0  0
 17 12  1  0  0  0  0
 17 21  1  0  0  0  0
 18 14  1  0  0  0  0
 19 15  1  0  0  0  0
 20 16  1  0  0  0  0
 22 25  1  0  0  0  0
 23 22  1  0  0  0  0
 24 22  1  0  0  0  0
 25 26  1  0  0  0  0
 25 29  1  0  0  0  0
 26 27  1  0  0  0  0
 27 28  1  0  0  0  0
 27 32  1  0  0  0  0
 27 33  1  0  0  0  0
 28 34  1  0  0  0  0
 28 35  1  0  0  0  0
 29 36  1  6  0  0  0
 29 37  1  0  0  0  0
 29 28  1  0  0  0  0
 30 26  1  0  0  0  0
 31 26  1  0  0  0  0
 37 38  1  0  0  0  0
 39 37  2  0  0  0  0
M  END
>  <minimizedAffinity>
-4.94573021

$$$$
