
 OpenBabel03242513173D

 31 33  0  0  0  0  0  0  0  0999 V2000
   44.8680   30.7020   47.9410 Cl  0  0  0  0  0  0  0  0  0  0  0  0
   45.9670   30.1540   46.6690 C   0  0  0  0  0  0  0  0  0  0  0  0
   46.8420   31.0360   46.0830 C   0  0  0  0  0  0  0  0  0  0  0  0
   47.6720   30.5620   45.1150 C   0  0  0  0  0  0  0  0  0  0  0  0
   47.6360   29.2410   44.7350 C   0  0  0  0  0  0  0  0  0  0  0  0
   46.7550   28.3460   45.3210 C   0  0  0  0  0  0  0  0  0  0  0  0
   45.9060   28.8330   46.3130 C   0  0  0  0  0  0  0  0  0  0  0  0
   48.3650   31.2470   44.6470 H   0  0  0  0  0  0  0  0  0  0  0  0
   48.3200   28.9190   43.9600 H   0  0  0  0  0  0  0  0  0  0  0  0
   46.7670   27.3380   44.9930 H   0  0  0  0  0  0  0  0  0  0  0  0
   45.0150   27.8170   46.8660 C   0  0  0  0  0  0  0  0  0  0  0  0
   43.8710   27.2570   46.3220 C   0  0  0  0  0  0  0  0  0  0  0  0
   43.3010   26.3180   47.1620 C   0  0  0  0  0  0  0  0  0  0  0  0
   44.1750   26.3530   48.2360 C   0  0  0  0  0  0  0  0  0  0  0  0
   45.1210   27.2140   48.0160 O   0  0  0  0  0  0  0  0  0  0  0  0
   43.4870   27.5530   45.3310 H   0  0  0  0  0  0  0  0  0  0  0  0
   42.4220   25.7230   47.0230 H   0  0  0  0  0  0  0  0  0  0  0  0
   44.0980   25.7480   49.1530 H   0  0  0  0  0  0  0  0  0  0  0  0
   46.8260   32.4270   46.5260 C   0  0  0  0  0  0  0  0  0  0  0  0
   47.3660   32.6960   47.6220 O   0  0  0  0  0  0  0  0  0  0  0  0
   44.6090   35.1190   45.5230 C   0  0  0  0  0  0  0  0  0  0  0  0
   44.9450   35.4190   44.1940 C   0  0  0  0  0  0  0  0  0  0  0  0
   45.9630   34.6540   43.6680 C   0  0  0  0  0  0  0  0  0  0  0  0
   46.5520   33.6900   44.4540 N   0  0  0  0  0  0  0  0  0  0  0  0
   46.2010   33.4440   45.7050 C   0  0  0  0  0  0  0  0  0  0  0  0
   45.2110   34.1820   46.2270 N   0  0  0  0  0  0  0  0  0  0  0  0
   43.7940   35.7430   45.9180 H   0  0  0  0  0  0  0  0  0  0  0  0
   44.5080   36.1580   43.5570 H   0  0  0  0  0  0  0  0  0  0  0  0
   46.4260   34.8460   42.2990 C   0  0  0  0  0  0  0  0  0  0  0  0
   45.7700   34.5980   41.4780 H   0  0  0  0  0  0  0  0  0  0  0  0
   47.5830   35.2980   42.1130 O   0  0  0  0  0  0  0  0  0  0  0  0
  2  1  1  0  0  0  0
  3 19  1  0  0  0  0
  3  2  2  0  0  0  0
  4  3  1  0  0  0  0
  5  4  2  0  0  0  0
  5  6  1  0  0  0  0
  6  7  2  0  0  0  0
  7  2  1  0  0  0  0
  7 11  1  0  0  0  0
  8  4  1  0  0  0  0
  9  5  1  0  0  0  0
 10  6  1  0  0  0  0
 11 15  1  0  0  0  0
 12 11  2  0  0  0  0
 12 13  1  0  0  0  0
 13 14  2  0  0  0  0
 14 18  1  0  0  0  0
 15 14  1  0  0  0  0
 16 12  1  0  0  0  0
 17 13  1  0  0  0  0
 19 20  2  0  0  0  0
 21 27  1  0  0  0  0
 21 26  1  0  0  0  0
 22 21  2  0  0  0  0
 23 22  1  0  0  0  0
 23 24  2  0  0  0  0
 24 25  1  0  0  0  0
 25 26  2  0  0  0  0
 25 19  1  0  0  0  0
 28 22  1  0  0  0  0
 29 23  1  0  0  0  0
 30 29  1  0  0  0  0
 31 29  2  0  0  0  0
M  END
>  <minimizedAffinity>
-5.02407932

>  <minimizedRMSD>
0.543660045

$$$$
