
 OpenBabel03252509203D

 19 20  0  0  0  0  0  0  0  0999 V2000
   45.3470   34.3640   44.7040 C   0  0  0  0  0  0  0  0  0  0  0  0
   45.7710   35.0050   43.5020 C   0  0  0  0  0  0  0  0  0  0  0  0
   46.9180   34.4760   42.9390 C   0  0  0  0  0  0  0  0  0  0  0  0
   47.5780   33.4070   43.5240 N   0  0  0  0  0  0  0  0  0  0  0  0
   47.1340   32.8470   44.6480 C   0  0  0  0  0  0  0  0  0  0  0  0
   46.0150   33.3210   45.2480 N   0  0  0  0  0  0  0  0  0  0  0  0
   44.4630   34.6990   45.2270 H   0  0  0  0  0  0  0  0  0  0  0  0
   47.7770   32.0380   44.9390 H   0  0  0  0  0  0  0  0  0  0  0  0
   47.3550   35.0450   41.6060 C   0  0  0  0  0  0  0  0  0  0  0  0
   48.7780   35.6230   41.7180 C   0  0  0  0  0  0  0  0  0  0  0  0
   48.4040   34.3530   40.9100 C   0  0  0  0  0  0  0  0  0  0  0  0
   46.6830   35.8110   41.1680 H   0  0  0  0  0  0  0  0  0  0  0  0
   48.9460   36.5410   41.1530 H   0  0  0  0  0  0  0  0  0  0  0  0
   49.2980   35.5290   42.6600 H   0  0  0  0  0  0  0  0  0  0  0  0
   48.6170   34.4500   39.8260 H   0  0  0  0  0  0  0  0  0  0  0  0
   48.8370   33.4360   41.4020 H   0  0  0  0  0  0  0  0  0  0  0  0
   45.0000   36.1210   42.9810 C   0  0  0  0  0  0  0  0  0  0  0  0
   44.2290   35.9970   42.2570 H   0  0  0  0  0  0  0  0  0  0  0  0
   45.2260   37.2920   43.3800 O   0  0  0  0  0  0  0  0  0  0  0  0
  1  7  1  0  0  0  0
  1  6  1  0  0  0  0
  2  1  2  0  0  0  0
  3  2  1  0  0  0  0
  3  4  2  0  0  0  0
  4  5  1  0  0  0  0
  5  8  1  0  0  0  0
  5  6  2  0  0  0  0
  9 10  1  0  0  0  0
  9  3  1  0  0  0  0
 10 14  1  0  0  0  0
 11 16  1  0  0  0  0
 11  9  1  0  0  0  0
 11 10  1  0  0  0  0
 12  9  1  0  0  0  0
 13 10  1  0  0  0  0
 15 11  1  0  0  0  0
 17 19  2  0  0  0  0
 17  2  1  0  0  0  0
 18 17  1  0  0  0  0
M  END
>  <minimizedAffinity>
-3.79808664

>  <minimizedRMSD>
1.32771349

$$$$
