
 OpenBabel03252509213D

 19 20  0  0  0  0  0  0  0  0999 V2000
   39.8990   24.4470   42.8460 C   0  0  0  0  0  0  0  0  0  0  0  0
   38.6250   25.0000   42.5190 C   0  0  0  0  0  0  0  0  0  0  0  0
   38.4840   26.3420   42.8200 C   0  0  0  0  0  0  0  0  0  0  0  0
   39.5200   27.0630   43.3930 N   0  0  0  0  0  0  0  0  0  0  0  0
   40.6900   26.4930   43.6750 C   0  0  0  0  0  0  0  0  0  0  0  0
   40.8900   25.1810   43.4050 N   0  0  0  0  0  0  0  0  0  0  0  0
   40.1160   23.4060   42.6550 H   0  0  0  0  0  0  0  0  0  0  0  0
   41.3580   27.2120   44.1100 H   0  0  0  0  0  0  0  0  0  0  0  0
   37.1920   27.0080   42.3980 C   0  0  0  0  0  0  0  0  0  0  0  0
   36.3840   27.4310   43.6390 C   0  0  0  0  0  0  0  0  0  0  0  0
   37.0660   28.4170   42.6550 C   0  0  0  0  0  0  0  0  0  0  0  0
   36.5420   26.4130   41.7250 H   0  0  0  0  0  0  0  0  0  0  0  0
   35.3040   27.3050   43.5480 H   0  0  0  0  0  0  0  0  0  0  0  0
   36.8140   27.2600   44.6150 H   0  0  0  0  0  0  0  0  0  0  0  0
   36.3460   29.0920   42.1480 H   0  0  0  0  0  0  0  0  0  0  0  0
   37.9330   28.9320   43.1580 H   0  0  0  0  0  0  0  0  0  0  0  0
   37.6120   24.1460   41.9230 C   0  0  0  0  0  0  0  0  0  0  0  0
   36.5820   24.2140   42.1810 H   0  0  0  0  0  0  0  0  0  0  0  0
   37.9310   23.2840   41.0650 O   0  0  0  0  0  0  0  0  0  0  0  0
  1  6  1  0  0  0  0
  2  3  1  0  0  0  0
  2  1  2  0  0  0  0
  3  4  2  0  0  0  0
  4  5  1  0  0  0  0
  5  8  1  0  0  0  0
  6  5  2  0  0  0  0
  7  1  1  0  0  0  0
  9 11  1  0  0  0  0
  9  3  1  0  0  0  0
  9 10  1  0  0  0  0
 10 14  1  0  0  0  0
 11 16  1  0  0  0  0
 11 10  1  0  0  0  0
 12  9  1  0  0  0  0
 13 10  1  0  0  0  0
 15 11  1  0  0  0  0
 17 18  1  0  0  0  0
 17  2  1  0  0  0  0
 19 17  2  0  0  0  0
M  END
>  <minimizedAffinity>
-3.53479743

$$$$

 OpenBabel03252509213D

 19 20  0  0  0  0  0  0  0  0999 V2000
   35.6950   28.7810   40.9890 C   0  0  0  0  0  0  0  0  0  0  0  0
   36.8030   28.6690   41.8820 C   0  0  0  0  0  0  0  0  0  0  0  0
   37.6630   29.7520   41.8750 C   0  0  0  0  0  0  0  0  0  0  0  0
   37.4350   30.8450   41.0520 N   0  0  0  0  0  0  0  0  0  0  0  0
   36.3810   30.8940   40.2390 C   0  0  0  0  0  0  0  0  0  0  0  0
   35.5030   29.8640   40.2000 N   0  0  0  0  0  0  0  0  0  0  0  0
   34.9630   27.9900   40.9140 H   0  0  0  0  0  0  0  0  0  0  0  0
   36.3800   31.8160   39.6890 H   0  0  0  0  0  0  0  0  0  0  0  0
   38.7960   29.7360   42.8770 C   0  0  0  0  0  0  0  0  0  0  0  0
   40.1130   29.3470   42.1810 C   0  0  0  0  0  0  0  0  0  0  0  0
   39.8000   30.7560   42.7480 C   0  0  0  0  0  0  0  0  0  0  0  0
   38.6450   29.0850   43.7630 H   0  0  0  0  0  0  0  0  0  0  0  0
   40.7730   28.7090   42.7710 H   0  0  0  0  0  0  0  0  0  0  0  0
   40.1010   29.1800   41.1150 H   0  0  0  0  0  0  0  0  0  0  0  0
   40.4970   31.0650   43.5540 H   0  0  0  0  0  0  0  0  0  0  0  0
   39.6820   31.4980   41.9080 H   0  0  0  0  0  0  0  0  0  0  0  0
   36.9410   27.4730   42.6950 C   0  0  0  0  0  0  0  0  0  0  0  0
   37.6740   26.7270   42.4970 H   0  0  0  0  0  0  0  0  0  0  0  0
   36.1820   27.2820   43.6800 O   0  0  0  0  0  0  0  0  0  0  0  0
  1  2  1  0  0  0  0
  2 17  1  0  0  0  0
  3  2  2  0  0  0  0
  3  9  1  0  0  0  0
  4  3  1  0  0  0  0
  5  4  2  0  0  0  0
  6  5  1  0  0  0  0
  6  1  2  0  0  0  0
  7  1  1  0  0  0  0
  8  5  1  0  0  0  0
  9 12  1  0  0  0  0
 10 11  1  0  0  0  0
 10 13  1  0  0  0  0
 10  9  1  0  0  0  0
 11  9  1  0  0  0  0
 11 15  1  0  0  0  0
 14 10  1  0  0  0  0
 16 11  1  0  0  0  0
 17 19  2  0  0  0  0
 18 17  1  0  0  0  0
M  END
>  <minimizedAffinity>
-3.50174975

$$$$

 OpenBabel03252509213D

 19 20  0  0  0  0  0  0  0  0999 V2000
   38.6550   31.3390   41.0120 C   0  0  0  0  0  0  0  0  0  0  0  0
   38.9450   30.3250   41.9730 C   0  0  0  0  0  0  0  0  0  0  0  0
   37.8570   29.5620   42.3560 C   0  0  0  0  0  0  0  0  0  0  0  0
   36.5970   29.7930   41.8270 N   0  0  0  0  0  0  0  0  0  0  0  0
   36.3850   30.7540   40.9300 C   0  0  0  0  0  0  0  0  0  0  0  0
   37.4110   31.5360   40.5150 N   0  0  0  0  0  0  0  0  0  0  0  0
   39.4320   31.9930   40.6460 H   0  0  0  0  0  0  0  0  0  0  0  0
   35.3510   30.7730   40.6420 H   0  0  0  0  0  0  0  0  0  0  0  0
   38.1250   28.4040   43.2920 C   0  0  0  0  0  0  0  0  0  0  0  0
   36.8020   27.7180   43.6780 C   0  0  0  0  0  0  0  0  0  0  0  0
   37.8940   27.0810   42.7810 C   0  0  0  0  0  0  0  0  0  0  0  0
   38.6910   28.6520   44.2140 H   0  0  0  0  0  0  0  0  0  0  0  0
   36.7470   27.3770   44.7130 H   0  0  0  0  0  0  0  0  0  0  0  0
   35.8860   28.0820   43.2370 H   0  0  0  0  0  0  0  0  0  0  0  0
   38.3220   26.1520   43.2100 H   0  0  0  0  0  0  0  0  0  0  0  0
   37.5240   26.9910   41.7200 H   0  0  0  0  0  0  0  0  0  0  0  0
   40.3060   30.1770   42.4600 C   0  0  0  0  0  0  0  0  0  0  0  0
   40.8150   29.2420   42.4640 H   0  0  0  0  0  0  0  0  0  0  0  0
   40.9350   31.1720   42.9030 O   0  0  0  0  0  0  0  0  0  0  0  0
  1  2  1  0  0  0  0
  2  3  2  0  0  0  0
  2 17  1  0  0  0  0
  3  9  1  0  0  0  0
  4  3  1  0  0  0  0
  5  4  2  0  0  0  0
  6  5  1  0  0  0  0
  6  1  2  0  0  0  0
  7  1  1  0  0  0  0
  8  5  1  0  0  0  0
  9 10  1  0  0  0  0
  9 12  1  0  0  0  0
 10 13  1  0  0  0  0
 11 15  1  0  0  0  0
 11  9  1  0  0  0  0
 11 10  1  0  0  0  0
 14 10  1  0  0  0  0
 16 11  1  0  0  0  0
 17 18  1  0  0  0  0
 17 19  2  0  0  0  0
M  END
>  <minimizedAffinity>
-3.48610711

$$$$

 OpenBabel03252509213D

 19 20  0  0  0  0  0  0  0  0999 V2000
   36.8200   31.0200   40.4830 C   0  0  0  0  0  0  0  0  0  0  0  0
   36.3140   29.7400   40.8580 C   0  0  0  0  0  0  0  0  0  0  0  0
   37.1140   29.0380   41.7410 C   0  0  0  0  0  0  0  0  0  0  0  0
   38.3090   29.5670   42.2040 N   0  0  0  0  0  0  0  0  0  0  0  0
   38.7310   30.7700   41.8200 C   0  0  0  0  0  0  0  0  0  0  0  0
   37.9910   31.5070   40.9560 N   0  0  0  0  0  0  0  0  0  0  0  0
   36.2750   31.6510   39.7960 H   0  0  0  0  0  0  0  0  0  0  0  0
   39.6700   31.0010   42.2860 H   0  0  0  0  0  0  0  0  0  0  0  0
   36.5770   27.7200   42.2560 C   0  0  0  0  0  0  0  0  0  0  0  0
   37.7200   26.8800   42.8560 C   0  0  0  0  0  0  0  0  0  0  0  0
   36.5750   27.5250   43.6800 C   0  0  0  0  0  0  0  0  0  0  0  0
   36.0210   27.1060   41.5180 H   0  0  0  0  0  0  0  0  0  0  0  0
   37.6510   25.8080   42.6630 H   0  0  0  0  0  0  0  0  0  0  0  0
   38.7110   27.3070   42.8840 H   0  0  0  0  0  0  0  0  0  0  0  0
   35.9540   26.7800   44.2170 H   0  0  0  0  0  0  0  0  0  0  0  0
   36.9780   28.3610   44.3190 H   0  0  0  0  0  0  0  0  0  0  0  0
   35.0490   29.2860   40.3050 C   0  0  0  0  0  0  0  0  0  0  0  0
   34.1250   29.3980   40.8220 H   0  0  0  0  0  0  0  0  0  0  0  0
   35.0090   28.7350   39.1750 O   0  0  0  0  0  0  0  0  0  0  0  0
  1  2  2  0  0  0  0
  1  6  1  0  0  0  0
  2  3  1  0  0  0  0
  3  4  2  0  0  0  0
  3  9  1  0  0  0  0
  5  4  1  0  0  0  0
  5  8  1  0  0  0  0
  6  5  2  0  0  0  0
  7  1  1  0  0  0  0
  9 10  1  0  0  0  0
  9 11  1  0  0  0  0
 10 14  1  0  0  0  0
 10 11  1  0  0  0  0
 11 15  1  0  0  0  0
 11 16  1  0  0  0  0
 12  9  1  0  0  0  0
 13 10  1  0  0  0  0
 17 18  1  0  0  0  0
 17  2  1  0  0  0  0
 19 17  2  0  0  0  0
M  END
>  <minimizedAffinity>
-3.47296739

$$$$

 OpenBabel03252509213D

 19 20  0  0  0  0  0  0  0  0999 V2000
   36.2310   29.2310   39.3010 C   0  0  0  0  0  0  0  0  0  0  0  0
   36.5320   28.1290   40.1560 C   0  0  0  0  0  0  0  0  0  0  0  0
   36.8260   28.4730   41.4620 C   0  0  0  0  0  0  0  0  0  0  0  0
   36.8190   29.7970   41.8750 N   0  0  0  0  0  0  0  0  0  0  0  0
   36.5290   30.7860   41.0310 C   0  0  0  0  0  0  0  0  0  0  0  0
   36.2330   30.5120   39.7380 N   0  0  0  0  0  0  0  0  0  0  0  0
   35.9890   29.0740   38.2600 H   0  0  0  0  0  0  0  0  0  0  0  0
   36.5750   31.7310   41.5380 H   0  0  0  0  0  0  0  0  0  0  0  0
   37.0490   27.3390   42.4390 C   0  0  0  0  0  0  0  0  0  0  0  0
   37.8070   27.8480   43.6790 C   0  0  0  0  0  0  0  0  0  0  0  0
   36.3250   27.3900   43.6790 C   0  0  0  0  0  0  0  0  0  0  0  0
   37.5720   26.4500   42.0310 H   0  0  0  0  0  0  0  0  0  0  0  0
   38.5430   27.1530   44.0840 H   0  0  0  0  0  0  0  0  0  0  0  0
   38.0460   28.8990   43.7390 H   0  0  0  0  0  0  0  0  0  0  0  0
   36.1400   26.5200   44.3420 H   0  0  0  0  0  0  0  0  0  0  0  0
   35.6440   28.2720   43.8470 H   0  0  0  0  0  0  0  0  0  0  0  0
   36.5120   26.7820   39.6120 C   0  0  0  0  0  0  0  0  0  0  0  0
   37.0470   25.9760   40.0560 H   0  0  0  0  0  0  0  0  0  0  0  0
   35.8460   26.5230   38.5760 O   0  0  0  0  0  0  0  0  0  0  0  0
  1  6  2  0  0  0  0
  1  2  1  0  0  0  0
  2  3  2  0  0  0  0
  3  4  1  0  0  0  0
  3  9  1  0  0  0  0
  5  8  1  0  0  0  0
  5  4  2  0  0  0  0
  6  5  1  0  0  0  0
  7  1  1  0  0  0  0
  9 10  1  0  0  0  0
  9 11  1  0  0  0  0
 10 11  1  0  0  0  0
 10 14  1  0  0  0  0
 10 13  1  0  0  0  0
 11 16  1  0  0  0  0
 11 15  1  0  0  0  0
 12  9  1  0  0  0  0
 17 18  1  0  0  0  0
 17  2  1  0  0  0  0
 19 17  2  0  0  0  0
M  END
>  <minimizedAffinity>
-3.45388174

$$$$

 OpenBabel03252509213D

 19 20  0  0  0  0  0  0  0  0999 V2000
   41.1020   28.4750   42.8000 C   0  0  0  0  0  0  0  0  0  0  0  0
   39.7440   28.9110   42.7770 C   0  0  0  0  0  0  0  0  0  0  0  0
   38.8300   27.9810   43.2380 C   0  0  0  0  0  0  0  0  0  0  0  0
   39.2380   26.7310   43.6790 N   0  0  0  0  0  0  0  0  0  0  0  0
   40.5220   26.3800   43.6790 C   0  0  0  0  0  0  0  0  0  0  0  0
   41.4650   27.2480   43.2390 N   0  0  0  0  0  0  0  0  0  0  0  0
   41.8970   29.1230   42.4600 H   0  0  0  0  0  0  0  0  0  0  0  0
   40.6340   25.3810   44.0560 H   0  0  0  0  0  0  0  0  0  0  0  0
   37.3870   28.4260   43.3370 C   0  0  0  0  0  0  0  0  0  0  0  0
   36.5670   27.8220   42.1820 C   0  0  0  0  0  0  0  0  0  0  0  0
   36.4140   27.4230   43.6720 C   0  0  0  0  0  0  0  0  0  0  0  0
   37.2230   29.5220   43.3670 H   0  0  0  0  0  0  0  0  0  0  0  0
   35.8070   28.4850   41.7640 H   0  0  0  0  0  0  0  0  0  0  0  0
   37.0620   27.1550   41.4930 H   0  0  0  0  0  0  0  0  0  0  0  0
   35.4020   27.6310   44.0760 H   0  0  0  0  0  0  0  0  0  0  0  0
   36.7860   26.3710   43.8350 H   0  0  0  0  0  0  0  0  0  0  0  0
   39.4340   30.2440   42.2900 C   0  0  0  0  0  0  0  0  0  0  0  0
   38.4740   30.5070   41.9120 H   0  0  0  0  0  0  0  0  0  0  0  0
   40.3100   31.1460   42.3000 O   0  0  0  0  0  0  0  0  0  0  0  0
  1  6  1  0  0  0  0
  2  1  2  0  0  0  0
  2  3  1  0  0  0  0
  3  9  1  0  0  0  0
  3  4  2  0  0  0  0
  5  4  1  0  0  0  0
  5  8  1  0  0  0  0
  6  5  2  0  0  0  0
  7  1  1  0  0  0  0
  9 12  1  0  0  0  0
  9 11  1  0  0  0  0
 10  9  1  0  0  0  0
 10 11  1  0  0  0  0
 11 16  1  0  0  0  0
 11 15  1  0  0  0  0
 13 10  1  0  0  0  0
 14 10  1  0  0  0  0
 17 19  2  0  0  0  0
 17  2  1  0  0  0  0
 18 17  1  0  0  0  0
M  END
>  <minimizedAffinity>
-3.43555737

$$$$

 OpenBabel03252509213D

 19 20  0  0  0  0  0  0  0  0999 V2000
   40.2020   27.2880   43.6740 C   0  0  0  0  0  0  0  0  0  0  0  0
   38.8590   27.1570   43.2120 C   0  0  0  0  0  0  0  0  0  0  0  0
   38.5650   25.9370   42.6300 C   0  0  0  0  0  0  0  0  0  0  0  0
   39.5250   24.9430   42.5200 N   0  0  0  0  0  0  0  0  0  0  0  0
   40.7650   25.1230   42.9720 C   0  0  0  0  0  0  0  0  0  0  0  0
   41.1150   26.2960   43.5520 N   0  0  0  0  0  0  0  0  0  0  0  0
   40.5390   28.2010   44.1430 H   0  0  0  0  0  0  0  0  0  0  0  0
   41.3550   24.2430   42.7970 H   0  0  0  0  0  0  0  0  0  0  0  0
   37.1280   25.7010   42.2180 C   0  0  0  0  0  0  0  0  0  0  0  0
   37.0120   25.6900   40.6820 C   0  0  0  0  0  0  0  0  0  0  0  0
   36.8240   24.4450   41.5880 C   0  0  0  0  0  0  0  0  0  0  0  0
   36.3850   26.4120   42.6350 H   0  0  0  0  0  0  0  0  0  0  0  0
   36.1090   26.1580   40.2870 H   0  0  0  0  0  0  0  0  0  0  0  0
   37.9130   25.8000   40.0980 H   0  0  0  0  0  0  0  0  0  0  0  0
   35.8090   24.0030   41.5130 H   0  0  0  0  0  0  0  0  0  0  0  0
   37.6740   23.7210   41.4380 H   0  0  0  0  0  0  0  0  0  0  0  0
   37.9380   28.2680   43.3780 C   0  0  0  0  0  0  0  0  0  0  0  0
   36.9110   28.1300   43.6220 H   0  0  0  0  0  0  0  0  0  0  0  0
   38.3370   29.4520   43.2330 O   0  0  0  0  0  0  0  0  0  0  0  0
  1  7  1  0  0  0  0
  2 17  1  0  0  0  0
  2  1  2  0  0  0  0
  3  2  1  0  0  0  0
  4  3  2  0  0  0  0
  4  5  1  0  0  0  0
  5  6  2  0  0  0  0
  6  1  1  0  0  0  0
  8  5  1  0  0  0  0
  9  3  1  0  0  0  0
  9 12  1  0  0  0  0
 10 11  1  0  0  0  0
 10  9  1  0  0  0  0
 11  9  1  0  0  0  0
 13 10  1  0  0  0  0
 14 10  1  0  0  0  0
 15 11  1  0  0  0  0
 16 11  1  0  0  0  0
 17 18  1  0  0  0  0
 19 17  2  0  0  0  0
M  END
>  <minimizedAffinity>
-3.40456462

$$$$

 OpenBabel03252509213D

 19 20  0  0  0  0  0  0  0  0999 V2000
   36.1480   28.9910   39.1870 C   0  0  0  0  0  0  0  0  0  0  0  0
   36.3980   29.2860   40.5610 C   0  0  0  0  0  0  0  0  0  0  0  0
   36.7950   28.2020   41.3220 C   0  0  0  0  0  0  0  0  0  0  0  0
   36.9290   26.9410   40.7610 N   0  0  0  0  0  0  0  0  0  0  0  0
   36.6830   26.7260   39.4700 C   0  0  0  0  0  0  0  0  0  0  0  0
   36.2910   27.7480   38.6720 N   0  0  0  0  0  0  0  0  0  0  0  0
   35.8310   29.7660   38.5040 H   0  0  0  0  0  0  0  0  0  0  0  0
   36.8450   25.6920   39.2290 H   0  0  0  0  0  0  0  0  0  0  0  0
   37.1750   28.4760   42.7610 C   0  0  0  0  0  0  0  0  0  0  0  0
   36.5910   27.3870   43.6800 C   0  0  0  0  0  0  0  0  0  0  0  0
   38.1010   27.5660   43.3780 C   0  0  0  0  0  0  0  0  0  0  0  0
   36.8920   29.4740   43.1510 H   0  0  0  0  0  0  0  0  0  0  0  0
   36.2300   27.7470   44.6450 H   0  0  0  0  0  0  0  0  0  0  0  0
   36.0430   26.5730   43.2280 H   0  0  0  0  0  0  0  0  0  0  0  0
   38.7020   27.7890   44.2830 H   0  0  0  0  0  0  0  0  0  0  0  0
   38.4790   26.7060   42.7540 H   0  0  0  0  0  0  0  0  0  0  0  0
   36.2210   30.6470   41.0390 C   0  0  0  0  0  0  0  0  0  0  0  0
   35.4450   30.9200   41.7150 H   0  0  0  0  0  0  0  0  0  0  0  0
   36.9960   31.5610   40.6580 O   0  0  0  0  0  0  0  0  0  0  0  0
  1  2  1  0  0  0  0
  2 17  1  0  0  0  0
  2  3  2  0  0  0  0
  3  9  1  0  0  0  0
  4  3  1  0  0  0  0
  5  4  2  0  0  0  0
  6  1  2  0  0  0  0
  6  5  1  0  0  0  0
  7  1  1  0  0  0  0
  8  5  1  0  0  0  0
  9 12  1  0  0  0  0
  9 11  1  0  0  0  0
  9 10  1  0  0  0  0
 10 13  1  0  0  0  0
 11 10  1  0  0  0  0
 11 15  1  0  0  0  0
 14 10  1  0  0  0  0
 16 11  1  0  0  0  0
 17 18  1  0  0  0  0
 19 17  2  0  0  0  0
M  END
>  <minimizedAffinity>
-3.3823669

$$$$

 OpenBabel03252509213D

 19 20  0  0  0  0  0  0  0  0999 V2000
   37.8080   29.2840   42.3210 C   0  0  0  0  0  0  0  0  0  0  0  0
   37.0390   29.9040   41.2920 C   0  0  0  0  0  0  0  0  0  0  0  0
   37.5900   31.0620   40.7760 C   0  0  0  0  0  0  0  0  0  0  0  0
   38.7980   31.5550   41.2460 N   0  0  0  0  0  0  0  0  0  0  0  0
   39.4740   30.9310   42.2100 C   0  0  0  0  0  0  0  0  0  0  0  0
   38.9850   29.7920   42.7560 N   0  0  0  0  0  0  0  0  0  0  0  0
   37.4680   28.3750   42.7950 H   0  0  0  0  0  0  0  0  0  0  0  0
   40.3790   31.4640   42.4330 H   0  0  0  0  0  0  0  0  0  0  0  0
   36.8720   31.7040   39.6090 C   0  0  0  0  0  0  0  0  0  0  0  0
   37.3220   33.1690   39.4500 C   0  0  0  0  0  0  0  0  0  0  0  0
   37.6610   32.0310   38.4530 C   0  0  0  0  0  0  0  0  0  0  0  0
   35.7640   31.6650   39.6460 H   0  0  0  0  0  0  0  0  0  0  0  0
   36.5310   33.8630   39.1630 H   0  0  0  0  0  0  0  0  0  0  0  0
   38.0840   33.5470   40.1150 H   0  0  0  0  0  0  0  0  0  0  0  0
   37.2540   32.2080   37.4360 H   0  0  0  0  0  0  0  0  0  0  0  0
   38.7620   31.7930   38.4910 H   0  0  0  0  0  0  0  0  0  0  0  0
   35.7830   29.2980   40.8810 C   0  0  0  0  0  0  0  0  0  0  0  0
   34.8370   29.6730   41.1920 H   0  0  0  0  0  0  0  0  0  0  0  0
   35.7790   28.2910   40.1280 O   0  0  0  0  0  0  0  0  0  0  0  0
  1  6  1  0  0  0  0
  1  7  1  0  0  0  0
  2  1  2  0  0  0  0
  3  4  2  0  0  0  0
  3  2  1  0  0  0  0
  4  5  1  0  0  0  0
  5  8  1  0  0  0  0
  5  6  2  0  0  0  0
  9 12  1  0  0  0  0
  9  3  1  0  0  0  0
 10  9  1  0  0  0  0
 10 14  1  0  0  0  0
 11 16  1  0  0  0  0
 11 10  1  0  0  0  0
 11  9  1  0  0  0  0
 13 10  1  0  0  0  0
 15 11  1  0  0  0  0
 17 18  1  0  0  0  0
 17  2  1  0  0  0  0
 19 17  2  0  0  0  0
M  END
>  <minimizedAffinity>
-3.31803226

$$$$
