
 OpenBabel03252509203D

 19 20  0  0  0  0  0  0  0  0999 V2000
   44.7740   35.1150   45.1010 C   0  0  0  0  0  0  0  0  0  0  0  0
   45.4570   35.1890   43.8510 C   0  0  0  0  0  0  0  0  0  0  0  0
   46.4960   34.2880   43.7040 C   0  0  0  0  0  0  0  0  0  0  0  0
   46.8200   33.3960   44.7150 N   0  0  0  0  0  0  0  0  0  0  0  0
   46.1450   33.3710   45.8630 C   0  0  0  0  0  0  0  0  0  0  0  0
   45.1170   34.2300   46.0660 N   0  0  0  0  0  0  0  0  0  0  0  0
   43.9480   35.7750   45.3210 H   0  0  0  0  0  0  0  0  0  0  0  0
   46.5450   32.6150   46.5120 H   0  0  0  0  0  0  0  0  0  0  0  0
   47.1870   34.2490   42.3580 C   0  0  0  0  0  0  0  0  0  0  0  0
   48.6720   34.6220   42.5150 C   0  0  0  0  0  0  0  0  0  0  0  0
   48.1550   33.2070   42.1490 C   0  0  0  0  0  0  0  0  0  0  0  0
   46.7330   34.8790   41.5670 H   0  0  0  0  0  0  0  0  0  0  0  0
   49.0810   35.2280   41.7040 H   0  0  0  0  0  0  0  0  0  0  0  0
   49.0510   34.8180   43.5070 H   0  0  0  0  0  0  0  0  0  0  0  0
   48.5070   32.8590   41.1560 H   0  0  0  0  0  0  0  0  0  0  0  0
   48.3400   32.4920   43.0000 H   0  0  0  0  0  0  0  0  0  0  0  0
   45.0300   36.1680   42.8650 C   0  0  0  0  0  0  0  0  0  0  0  0
   45.4800   37.1290   42.7790 H   0  0  0  0  0  0  0  0  0  0  0  0
   44.0950   35.9010   42.0680 O   0  0  0  0  0  0  0  0  0  0  0  0
  1  7  1  0  0  0  0
  1  6  1  0  0  0  0
  2  1  2  0  0  0  0
  3  2  1  0  0  0  0
  3  4  2  0  0  0  0
  4  5  1  0  0  0  0
  5  6  2  0  0  0  0
  5  8  1  0  0  0  0
  9 10  1  0  0  0  0
  9  3  1  0  0  0  0
 10 14  1  0  0  0  0
 11  9  1  0  0  0  0
 11 10  1  0  0  0  0
 11 16  1  0  0  0  0
 12  9  1  0  0  0  0
 13 10  1  0  0  0  0
 15 11  1  0  0  0  0
 17  2  1  0  0  0  0
 18 17  1  0  0  0  0
 19 17  2  0  0  0  0
M  END
>  <minimizedAffinity>
-3.48640394

>  <minimizedRMSD>
1.06810892

$$$$
