
 OpenBabel03242516163D

 42 46  0  0  1  0  0  0  0  0999 V2000
   47.8980   34.4220   41.5020 C   0  0  0  0  0  0  0  0  0  0  0  0
   48.7910   35.6260   41.1840 C   0  0  0  0  0  0  0  0  0  0  0  0
   49.3130   34.4650   41.8560 C   0  0  0  0  0  0  0  0  0  0  0  0
   48.5090   36.5770   41.7150 H   0  0  0  0  0  0  0  0  0  0  0  0
   49.0400   35.8400   40.1260 H   0  0  0  0  0  0  0  0  0  0  0  0
   49.9890   33.7910   41.2640 H   0  0  0  0  0  0  0  0  0  0  0  0
   49.7420   34.6470   42.8410 H   0  0  0  0  0  0  0  0  0  0  0  0
   47.4830   33.6510   40.2980 C   0  0  0  0  0  0  0  0  0  0  0  0
   48.0310   34.1790   38.9820 C   0  0  0  0  0  0  0  0  0  0  0  0
   47.5750   33.1500   37.9380 C   0  0  0  0  0  0  0  0  0  0  0  0
   46.2120   33.4010   37.7230 O   0  0  0  0  0  0  0  0  0  0  0  0
   45.6010   32.8840   38.8930 C   0  0  0  0  0  0  0  0  0  0  0  0
   45.9570   33.7370   40.0890 C   0  0  0  0  0  0  0  0  0  0  0  0
   47.7560   32.5820   40.3230 H   0  0  0  0  0  0  0  0  0  0  0  0
   49.1270   34.0870   39.0100 H   0  0  0  0  0  0  0  0  0  0  0  0
   47.6600   35.1760   38.7410 H   0  0  0  0  0  0  0  0  0  0  0  0
   47.7000   32.1460   38.3610 H   0  0  0  0  0  0  0  0  0  0  0  0
   48.0760   33.2930   36.9660 H   0  0  0  0  0  0  0  0  0  0  0  0
   44.5060   33.0350   38.7350 H   0  0  0  0  0  0  0  0  0  0  0  0
   45.8810   31.8370   39.0780 H   0  0  0  0  0  0  0  0  0  0  0  0
   45.6270   34.7710   39.9550 H   0  0  0  0  0  0  0  0  0  0  0  0
   45.5240   33.2150   40.9700 H   0  0  0  0  0  0  0  0  0  0  0  0
   46.2310   35.8670   42.6900 C   0  0  0  0  0  0  0  0  0  0  0  0
   46.8630   34.6430   42.5580 C   0  0  0  0  0  0  0  0  0  0  0  0
   46.5010   33.6410   43.4520 C   0  0  0  0  0  0  0  0  0  0  0  0
   45.5580   33.8780   44.4130 N   0  0  0  0  0  0  0  0  0  0  0  0
   44.9880   35.0860   44.4820 C   0  0  0  0  0  0  0  0  0  0  0  0
   45.3070   36.0610   43.6500 N   0  0  0  0  0  0  0  0  0  0  0  0
   43.9990   35.4050   45.4530 N   0  0  0  0  0  0  0  0  0  0  0  0
   46.5250   36.6310   41.9870 H   0  0  0  0  0  0  0  0  0  0  0  0
   43.0340   35.1070   45.2400 H   0  0  0  0  0  0  0  0  0  0  0  0
   44.5020   35.9040   46.2180 H   0  0  0  0  0  0  0  0  0  0  0  0
   47.1350   32.3420   43.4780 C   0  0  2  0  0  3  0  0  0  0  0  0
   48.1830   31.9640   44.0650 O   0  0  0  0  0  0  0  0  0  0  0  0
   47.2660   30.9190   43.1270 C   0  0  2  0  0  0  0  0  0  0  0  0
   46.3410   30.5140   41.9960 C   0  0  0  0  0  3  0  0  0  0  0  0
   46.7250   29.5010   41.6910 H   0  0  0  0  0  0  0  0  0  0  0  0
   45.0440   30.2880   42.6960 C   0  0  0  0  0  3  0  0  0  0  0  0
   44.6660   29.2370   42.5320 H   0  0  0  0  0  0  0  0  0  0  0  0
   45.2620   30.3740   44.0640 O   0  0  0  0  0  0  0  0  0  0  0  0
   46.6050   30.0490   44.2390 C   0  0  0  0  0  3  0  0  0  0  0  0
   46.9780   30.3510   45.2200 H   0  0  0  0  0  0  0  0  0  0  0  0
  1  3  1  0  0  0  0
  1 24  1  0  0  0  0
  2  1  1  0  0  0  0
  2  4  1  0  0  0  0
  2  3  1  0  0  0  0
  3  7  1  0  0  0  0
  5  2  1  0  0  0  0
  6  3  1  0  0  0  0
  8 14  1  0  0  0  0
  8  1  1  0  0  0  0
  9 15  1  0  0  0  0
  9  8  1  0  0  0  0
 10 17  1  0  0  0  0
 10  9  1  0  0  0  0
 11 10  1  0  0  0  0
 11 12  1  0  0  0  0
 12 20  1  0  0  0  0
 12 13  1  0  0  0  0
 13  8  1  0  0  0  0
 13 22  1  0  0  0  0
 16  9  1  0  0  0  0
 18 10  1  0  0  0  0
 19 12  1  0  0  0  0
 21 13  1  0  0  0  0
 23 28  1  0  0  0  0
 24 23  2  0  0  0  0
 24 25  1  0  0  0  0
 25 26  2  0  0  0  0
 26 27  1  0  0  0  0
 27 29  1  0  0  0  0
 28 27  2  0  0  0  0
 29 32  1  0  0  0  0
 30 23  1  0  0  0  0
 31 29  1  0  0  0  0
 33 25  1  6  0  0  0
 33 34  1  0  0  0  0
 35 36  1  6  0  0  0
 35 33  1  0  0  0  0
 35 34  1  0  0  0  0
 35 41  1  0  0  0  0
 36 38  1  0  0  0  0
 37 36  1  0  0  0  0
 38 40  1  0  0  0  0
 39 38  1  0  0  0  0
 40 41  1  0  0  0  0
 41 42  1  0  0  0  0
M  END
>  <minimizedAffinity>
-4.96646929

>  <minimizedRMSD>
1.41047263

$$$$
