
 OpenBabel03242512273D

 21 22  0  0  1  0  0  0  0  0999 V2000
   45.0730   35.2230   44.1190 C   0  0  0  0  0  0  0  0  0  0  0  0
   46.0500   34.9640   43.1530 C   0  0  0  0  0  0  0  0  0  0  0  0
   47.0060   33.9770   43.4230 C   0  0  0  0  0  0  0  0  0  0  0  0
   46.9190   33.3370   44.6080 N   0  0  0  0  0  0  0  0  0  0  0  0
   45.9870   33.5900   45.5190 C   0  0  0  0  0  0  0  0  0  0  0  0
   45.0610   34.5450   45.2600 N   0  0  0  0  0  0  0  0  0  0  0  0
   44.1040   36.2210   43.8490 N   0  0  0  0  0  0  0  0  0  0  0  0
   46.0200   35.5370   42.2460 H   0  0  0  0  0  0  0  0  0  0  0  0
   47.7650   33.7720   42.6770 H   0  0  0  0  0  0  0  0  0  0  0  0
   43.9830   36.6090   42.8830 H   0  0  0  0  0  0  0  0  0  0  0  0
   43.4980   36.5740   44.6340 H   0  0  0  0  0  0  0  0  0  0  0  0
   45.9030   32.8960   46.7890 C   0  0  0  0  0  0  0  0  0  0  0  0
   44.9680   33.1190   47.6180 O   0  0  0  0  0  0  0  0  0  0  0  0
   46.9210   31.8990   47.1530 C   0  0  1  0  0  3  0  0  0  0  0  0
   47.7470   32.2380   48.3490 C   0  0  0  0  0  3  0  0  0  0  0  0
   48.7030   32.7230   48.0260 H   0  0  0  0  0  0  0  0  0  0  0  0
   48.0280   30.8720   48.9550 C   0  0  0  0  0  3  0  0  0  0  0  0
   47.6420   30.8270   49.9930 H   0  0  0  0  0  0  0  0  0  0  0  0
   47.4470   29.9250   48.1080 O   0  0  0  0  0  0  0  0  0  0  0  0
   46.3310   30.5640   47.5380 C   0  0  0  0  0  3  0  0  0  0  0  0
   46.0490   30.0350   46.6100 H   0  0  0  0  0  0  0  0  0  0  0  0
  1  6  1  0  0  0  0
  2  3  1  0  0  0  0
  2  1  2  0  0  0  0
  3  4  2  0  0  0  0
  4  5  1  0  0  0  0
  5 12  1  0  0  0  0
  6  5  2  0  0  0  0
  7  1  1  0  0  0  0
  7 11  1  0  0  0  0
  8  2  1  0  0  0  0
  9  3  1  0  0  0  0
 10  7  1  0  0  0  0
 12 13  2  0  0  0  0
 14 12  1  1  0  0  0
 14 20  1  0  0  0  0
 14 15  1  0  0  0  0
 15 17  1  0  0  0  0
 16 15  1  0  0  0  0
 17 18  1  0  0  0  0
 19 17  1  0  0  0  0
 20 19  1  0  0  0  0
 21 20  1  0  0  0  0
M  END
>  <minimizedAffinity>
-4.70453596

>  <minimizedRMSD>
1.40087068

$$$$
