
 OpenBabel03252500233D

 24 25  0  0  1  0  0  0  0  0999 V2000
   46.5220   31.5570   49.0590 O   0  0  0  0  0  0  0  0  0  0  0  0
   46.0000   31.4960   47.6360 P   0  0  2  0  0  0  0  0  0  0  0  0
   47.2400   30.9310   46.6540 O   0  0  0  0  0  0  0  0  0  0  0  0
   48.0290   31.5020   46.8050 H   0  0  0  0  0  0  0  0  0  0  0  0
   45.5300   33.0950   47.2370 O   0  0  0  0  0  0  0  0  0  0  0  0
   45.0100   35.1750   44.3780 C   0  0  0  0  0  0  0  0  0  0  0  0
   45.9990   34.7720   43.4650 C   0  0  0  0  0  0  0  0  0  0  0  0
   46.8480   33.7470   43.8940 C   0  0  0  0  0  0  0  0  0  0  0  0
   46.6870   33.2100   45.1180 N   0  0  0  0  0  0  0  0  0  0  0  0
   45.7080   33.6390   45.9690 C   0  0  0  0  0  0  0  0  0  0  0  0
   44.8810   34.6210   45.5830 N   0  0  0  0  0  0  0  0  0  0  0  0
   46.0670   35.2500   42.4970 H   0  0  0  0  0  0  0  0  0  0  0  0
   47.6210   33.4080   43.2220 H   0  0  0  0  0  0  0  0  0  0  0  0
   44.1530   36.1880   43.9810 O   0  0  0  0  0  0  0  0  0  0  0  0
   44.0590   36.9950   44.5760 H   0  0  0  0  0  0  0  0  0  0  0  0
   44.6980   30.4460   47.6290 O   0  0  0  0  0  0  0  0  0  0  0  0
   45.0810   29.2700   47.0430 C   0  0  1  0  0  0  0  0  0  0  0  0
   45.0520   28.0720   47.9700 C   0  0  0  0  0  0  0  0  0  0  0  0
   45.9510   28.0020   48.6090 H   0  0  0  0  0  0  0  0  0  0  0  0
   44.9040   26.9600   46.9790 C   0  0  0  0  0  0  0  0  0  0  0  0
   45.9160   26.5230   46.8350 H   0  0  0  0  0  0  0  0  0  0  0  0
   44.5170   27.4940   45.7590 O   0  0  0  0  0  0  0  0  0  0  0  0
   44.0740   28.7890   45.9960 C   0  0  0  0  0  0  0  0  0  0  0  0
   43.0880   28.7580   46.4730 H   0  0  0  0  0  0  0  0  0  0  0  0
  2  1  2  1  0  0  0
  3  4  1  0  0  0  0
  3  2  1  0  0  0  0
  5  2  1  0  0  0  0
  6 11  1  0  0  0  0
  7  8  1  0  0  0  0
  7  6  2  0  0  0  0
  8  9  2  0  0  0  0
  9 10  1  0  0  0  0
 10  5  1  0  0  0  0
 11 10  2  0  0  0  0
 12  7  1  0  0  0  0
 13  8  1  0  0  0  0
 14  6  1  0  0  0  0
 14 15  1  0  0  0  0
 16  2  1  0  0  0  0
 17 16  1  1  0  0  0
 17 18  1  0  0  0  0
 18 19  1  0  0  0  0
 20 18  1  0  0  0  0
 21 20  1  0  0  0  0
 22 23  1  0  0  0  0
 22 20  1  0  0  0  0
 23 24  1  0  0  0  0
 23 17  1  0  0  0  0
M  END
>  <minimizedAffinity>
-4.4114933

>  <minimizedRMSD>
2.1751368

$$$$
