
 OpenBabel03242523543D

 44 47  0  0  1  0  0  0  0  0999 V2000
   42.8370   34.3530   38.9720 C   0  0  1  0  0  0  0  0  0  0  0  0
   43.0520   35.1870   40.2280 C   0  0  1  0  0  0  0  0  0  0  0  0
   41.7990   35.6300   40.6860 O   0  0  0  0  0  0  0  0  0  0  0  0
   40.9210   35.9310   39.6420 C   0  0  0  0  0  0  0  0  0  0  0  0
   40.4800   34.6860   38.8970 C   0  0  2  0  0  0  0  0  0  0  0  0
   41.5670   33.5950   39.1860 C   0  0  1  0  0  0  0  0  0  0  0  0
   43.7140   33.6980   38.7890 H   0  0  0  0  0  0  0  0  0  0  0  0
   43.7480   36.0190   40.0800 H   0  0  0  0  0  0  0  0  0  0  0  0
   41.3170   36.7230   38.9850 H   0  0  0  0  0  0  0  0  0  0  0  0
   40.0240   36.3420   40.1220 H   0  0  0  0  0  0  0  0  0  0  0  0
   39.5040   34.3110   39.2450 H   0  0  0  0  0  0  0  0  0  0  0  0
   41.3260   33.4930   40.2930 H   0  0  0  0  0  0  0  0  0  0  0  0
   42.7370   35.1750   37.8400 O   0  0  0  0  0  0  0  0  0  0  0  0
   43.6700   35.4560   37.6460 H   0  0  0  0  0  0  0  0  0  0  0  0
   40.5470   34.9110   37.5290 O   0  0  0  0  0  0  0  0  0  0  0  0
   40.7790   34.1360   36.9920 H   0  0  0  0  0  0  0  0  0  0  0  0
   43.4650   34.2760   41.2100 O   0  0  0  0  0  0  0  0  0  0  0  0
   44.6170   34.3490   41.8900 C   0  0  0  0  0  0  0  0  0  0  0  0
   45.8440   34.4940   41.2260 C   0  0  0  0  0  0  0  0  0  0  0  0
   46.9980   34.5650   41.9920 C   0  0  0  0  0  0  0  0  0  0  0  0
   46.9090   34.4920   43.3690 N   0  0  0  0  0  0  0  0  0  0  0  0
   45.7060   34.3520   43.9720 C   0  0  0  0  0  0  0  0  0  0  0  0
   44.5660   34.2810   43.2410 N   0  0  0  0  0  0  0  0  0  0  0  0
   45.9110   34.5500   40.1490 H   0  0  0  0  0  0  0  0  0  0  0  0
   45.7180   34.3020   45.0490 H   0  0  0  0  0  0  0  0  0  0  0  0
   48.3470   34.7040   41.3480 C   0  0  0  0  0  0  0  0  0  0  0  0
   49.0650   36.0370   41.5530 C   0  0  0  0  0  0  0  0  0  0  0  0
   49.5370   34.6930   42.1370 C   0  0  0  0  0  0  0  0  0  0  0  0
   48.3180   34.3640   40.2940 H   0  0  0  0  0  0  0  0  0  0  0  0
   49.6010   36.4370   40.6950 H   0  0  0  0  0  0  0  0  0  0  0  0
   48.5850   36.6980   42.2870 H   0  0  0  0  0  0  0  0  0  0  0  0
   49.4710   34.5750   43.2500 H   0  0  0  0  0  0  0  0  0  0  0  0
   50.5160   34.3700   41.7390 H   0  0  0  0  0  0  0  0  0  0  0  0
   41.3300   32.5570   38.3630 O   0  0  0  0  0  0  0  0  0  0  0  0
   40.3640   31.6120   38.4360 C   0  0  0  0  0  0  0  0  0  0  0  0
   39.8750   31.0560   37.3540 O   0  0  0  0  0  0  0  0  0  0  0  0
   39.5070   30.8270   39.3750 C   0  0  2  0  0  3  0  0  0  0  0  0
   38.3360   31.7350   39.7690 C   0  0  0  0  0  3  0  0  0  0  0  0
   37.5210   31.7310   39.0420 H   0  0  0  0  0  0  0  0  0  0  0  0
   37.9210   31.0930   41.0830 C   0  0  0  0  0  3  0  0  0  0  0  0
   37.4820   31.8220   41.7950 H   0  0  0  0  0  0  0  0  0  0  0  0
   39.0750   30.5820   41.6500 O   0  0  0  0  0  0  0  0  0  0  0  0
   40.0720   30.5120   40.6970 C   0  0  0  0  0  3  0  0  0  0  0  0
   40.5880   29.5310   40.7540 H   0  0  0  0  0  0  0  0  0  0  0  0
  1  7  1  6  0  0  0
  1  6  1  0  0  0  0
  1  2  1  0  0  0  0
  2  8  1  6  0  0  0
  2  3  1  0  0  0  0
  2 17  1  0  0  0  0
  4 10  1  0  0  0  0
  4  3  1  0  0  0  0
  5  6  1  0  0  0  0
  5 11  1  1  0  0  0
  5  4  1  0  0  0  0
  6 12  1  1  0  0  0
  9  4  1  0  0  0  0
 13  1  1  0  0  0  0
 14 13  1  0  0  0  0
 15  5  1  0  0  0  0
 16 15  1  0  0  0  0
 17 18  1  0  0  0  0
 18 23  1  0  0  0  0
 19 18  2  0  0  0  0
 19 20  1  0  0  0  0
 20 21  2  0  0  0  0
 21 22  1  0  0  0  0
 22 25  1  0  0  0  0
 23 22  2  0  0  0  0
 24 19  1  0  0  0  0
 26 27  1  0  0  0  0
 26 20  1  0  0  0  0
 26 28  1  0  0  0  0
 27 28  1  0  0  0  0
 27 31  1  0  0  0  0
 28 32  1  0  0  0  0
 29 26  1  0  0  0  0
 30 27  1  0  0  0  0
 33 28  1  0  0  0  0
 34 35  1  0  0  0  0
 34  6  1  0  0  0  0
 36 35  2  0  0  0  0
 37 35  1  6  0  0  0
 37 38  1  0  0  0  0
 37 43  1  0  0  0  0
 38 40  1  0  0  0  0
 39 38  1  0  0  0  0
 40 42  1  0  0  0  0
 40 41  1  0  0  0  0
 43 44  1  0  0  0  0
 43 42  1  0  0  0  0
M  END
>  <minimizedAffinity>
-6.22896719

>  <minimizedRMSD>
1.84102213

$$$$
