
 OpenBabel03242516163D

 42 46  0  0  1  0  0  0  0  0999 V2000
   48.0280   34.5600   41.5810 C   0  0  0  0  0  0  0  0  0  0  0  0
   48.9170   35.7810   41.3220 C   0  0  0  0  0  0  0  0  0  0  0  0
   49.4170   34.6240   42.0190 C   0  0  0  0  0  0  0  0  0  0  0  0
   48.5880   36.7230   41.8390 H   0  0  0  0  0  0  0  0  0  0  0  0
   49.2250   36.0040   40.2820 H   0  0  0  0  0  0  0  0  0  0  0  0
   50.1390   33.9650   41.4660 H   0  0  0  0  0  0  0  0  0  0  0  0
   49.7840   34.8080   43.0290 H   0  0  0  0  0  0  0  0  0  0  0  0
   47.6980   33.7890   40.3510 C   0  0  0  0  0  0  0  0  0  0  0  0
   48.2230   34.3940   39.0580 C   0  0  0  0  0  0  0  0  0  0  0  0
   47.8730   33.3570   37.9820 C   0  0  0  0  0  0  0  0  0  0  0  0
   46.4970   33.5000   37.7460 O   0  0  0  0  0  0  0  0  0  0  0  0
   45.9110   32.9040   38.8920 C   0  0  0  0  0  0  0  0  0  0  0  0
   46.1740   33.7530   40.1150 C   0  0  0  0  0  0  0  0  0  0  0  0
   48.0590   32.7460   40.3540 H   0  0  0  0  0  0  0  0  0  0  0  0
   49.3230   34.3920   39.1050 H   0  0  0  0  0  0  0  0  0  0  0  0
   47.7740   35.3630   38.8350 H   0  0  0  0  0  0  0  0  0  0  0  0
   48.0730   32.3570   38.3820 H   0  0  0  0  0  0  0  0  0  0  0  0
   48.3760   33.5670   37.0230 H   0  0  0  0  0  0  0  0  0  0  0  0
   44.8100   32.9680   38.7160 H   0  0  0  0  0  0  0  0  0  0  0  0
   46.2750   31.8790   39.0560 H   0  0  0  0  0  0  0  0  0  0  0  0
   45.7610   34.7590   40.0000 H   0  0  0  0  0  0  0  0  0  0  0  0
   45.7720   33.1750   40.9740 H   0  0  0  0  0  0  0  0  0  0  0  0
   46.2460   35.9590   42.6510 C   0  0  0  0  0  0  0  0  0  0  0  0
   46.9270   34.7570   42.5730 C   0  0  0  0  0  0  0  0  0  0  0  0
   46.5510   33.7560   43.4610 C   0  0  0  0  0  0  0  0  0  0  0  0
   45.5470   33.9710   44.3640 N   0  0  0  0  0  0  0  0  0  0  0  0
   44.9320   35.1590   44.3820 C   0  0  0  0  0  0  0  0  0  0  0  0
   45.2630   36.1330   43.5540 N   0  0  0  0  0  0  0  0  0  0  0  0
   43.8790   35.4550   45.2920 N   0  0  0  0  0  0  0  0  0  0  0  0
   46.5520   36.7240   41.9540 H   0  0  0  0  0  0  0  0  0  0  0  0
   42.9380   35.1200   45.0290 H   0  0  0  0  0  0  0  0  0  0  0  0
   44.3210   35.9820   46.0760 H   0  0  0  0  0  0  0  0  0  0  0  0
   47.2280   32.4800   43.5430 C   0  0  2  0  0  3  0  0  0  0  0  0
   48.2360   32.1410   44.2170 O   0  0  0  0  0  0  0  0  0  0  0  0
   47.4400   31.0630   43.2070 C   0  0  2  0  0  0  0  0  0  0  0  0
   46.5870   30.6110   42.0380 C   0  0  0  0  0  3  0  0  0  0  0  0
   47.0300   29.6170   41.7560 H   0  0  0  0  0  0  0  0  0  0  0  0
   45.2730   30.3270   42.6800 C   0  0  0  0  0  3  0  0  0  0  0  0
   44.9510   29.2610   42.5050 H   0  0  0  0  0  0  0  0  0  0  0  0
   45.4240   30.4290   44.0560 O   0  0  0  0  0  0  0  0  0  0  0  0
   46.7710   30.1680   44.2940 C   0  0  0  0  0  3  0  0  0  0  0  0
   47.0850   30.4900   45.2880 H   0  0  0  0  0  0  0  0  0  0  0  0
  1  3  1  0  0  0  0
  1 24  1  0  0  0  0
  2  1  1  0  0  0  0
  2  4  1  0  0  0  0
  2  3  1  0  0  0  0
  3  7  1  0  0  0  0
  5  2  1  0  0  0  0
  6  3  1  0  0  0  0
  8 14  1  0  0  0  0
  8  1  1  0  0  0  0
  9 15  1  0  0  0  0
  9  8  1  0  0  0  0
 10 17  1  0  0  0  0
 10  9  1  0  0  0  0
 11 10  1  0  0  0  0
 11 12  1  0  0  0  0
 12 20  1  0  0  0  0
 12 13  1  0  0  0  0
 13  8  1  0  0  0  0
 13 22  1  0  0  0  0
 16  9  1  0  0  0  0
 18 10  1  0  0  0  0
 19 12  1  0  0  0  0
 21 13  1  0  0  0  0
 23 28  1  0  0  0  0
 24 23  2  0  0  0  0
 24 25  1  0  0  0  0
 25 26  2  0  0  0  0
 26 27  1  0  0  0  0
 27 29  1  0  0  0  0
 28 27  2  0  0  0  0
 29 32  1  0  0  0  0
 30 23  1  0  0  0  0
 31 29  1  0  0  0  0
 33 25  1  6  0  0  0
 33 34  1  0  0  0  0
 35 36  1  6  0  0  0
 35 33  1  0  0  0  0
 35 34  1  0  0  0  0
 35 41  1  0  0  0  0
 36 38  1  0  0  0  0
 37 36  1  0  0  0  0
 38 40  1  0  0  0  0
 39 38  1  0  0  0  0
 40 41  1  0  0  0  0
 41 42  1  0  0  0  0
M  END
>  <minimizedAffinity>
-4.95298004

>  <minimizedRMSD>
1.70015669

$$$$
