
 OpenBabel03252505493D

 21 22  0  0  1  0  0  0  0  0999 V2000
   44.5630   35.6260   45.0160 C   0  0  0  0  0  0  0  0  0  0  0  0
   45.2210   35.2130   43.8660 C   0  0  0  0  0  0  0  0  0  0  0  0
   45.9270   34.0240   43.9480 C   0  0  0  0  0  0  0  0  0  0  0  0
   45.9490   33.3320   45.1100 N   0  0  0  0  0  0  0  0  0  0  0  0
   45.2980   33.7670   46.2030 C   0  0  0  0  0  0  0  0  0  0  0  0
   44.6050   34.9050   46.1720 N   0  0  0  0  0  0  0  0  0  0  0  0
   43.9760   36.5520   45.0580 H   0  0  0  0  0  0  0  0  0  0  0  0
   46.4360   33.7050   43.0580 H   0  0  0  0  0  0  0  0  0  0  0  0
   45.1090   36.0740   42.6580 C   0  0  0  0  0  0  0  0  0  0  0  0
   45.2830   37.3730   43.1020 F   0  0  0  0  0  0  0  0  0  0  0  0
   43.8520   35.9170   42.1350 F   0  0  0  0  0  0  0  0  0  0  0  0
   46.0820   35.6610   41.7620 F   0  0  0  0  0  0  0  0  0  0  0  0
   45.3040   33.0770   47.4060 O   0  0  0  0  0  0  0  0  0  0  0  0
   46.1140   31.9690   47.6870 C   0  0  2  0  0  3  0  0  0  0  0  0
   45.8060   31.3660   49.0450 C   0  0  0  0  0  3  0  0  0  0  0  0
   45.6530   32.1740   49.7700 H   0  0  0  0  0  0  0  0  0  0  0  0
   47.1390   30.7060   49.3360 C   0  0  0  0  0  3  0  0  0  0  0  0
   47.2440   30.4280   50.3980 H   0  0  0  0  0  0  0  0  0  0  0  0
   48.0300   31.7240   49.0090 O   0  0  0  0  0  0  0  0  0  0  0  0
   47.5670   32.3100   47.8440 C   0  0  0  0  0  3  0  0  0  0  0  0
   48.1820   31.9270   47.0030 H   0  0  0  0  0  0  0  0  0  0  0  0
  1  7  1  0  0  0  0
  1  6  1  0  0  0  0
  2  3  1  0  0  0  0
  2  1  2  0  0  0  0
  3  4  2  0  0  0  0
  4  5  1  0  0  0  0
  5 13  1  0  0  0  0
  6  5  2  0  0  0  0
  8  3  1  0  0  0  0
  9 10  1  0  0  0  0
  9  2  1  0  0  0  0
 11  9  1  0  0  0  0
 12  9  1  0  0  0  0
 14 13  1  1  0  0  0
 14 20  1  0  0  0  0
 14 15  1  0  0  0  0
 15 17  1  0  0  0  0
 15 16  1  0  0  0  0
 17 18  1  0  0  0  0
 19 17  1  0  0  0  0
 20 19  1  0  0  0  0
 21 20  1  0  0  0  0
M  END
>  <minimizedAffinity>
-4.69922209

>  <minimizedRMSD>
0.802594602

$$$$
