
 OpenBabel03242520453D

 21 22  0  0  1  0  0  0  0  0999 V2000
   44.9290   35.0830   44.3670 C   0  0  0  0  0  0  0  0  0  0  0  0
   45.7360   35.2290   43.2130 C   0  0  0  0  0  0  0  0  0  0  0  0
   46.8820   34.4440   43.1030 C   0  0  0  0  0  0  0  0  0  0  0  0
   47.1730   33.5840   44.0910 N   0  0  0  0  0  0  0  0  0  0  0  0
   46.3790   33.4590   45.1940 C   0  0  0  0  0  0  0  0  0  0  0  0
   45.2690   34.2100   45.3170 N   0  0  0  0  0  0  0  0  0  0  0  0
   43.7660   35.8650   44.5000 N   0  0  0  0  0  0  0  0  0  0  0  0
   45.4340   35.9460   42.4580 H   0  0  0  0  0  0  0  0  0  0  0  0
   46.7330   32.7300   45.9070 H   0  0  0  0  0  0  0  0  0  0  0  0
   43.5150   36.4640   45.3200 H   0  0  0  0  0  0  0  0  0  0  0  0
   43.1660   35.7590   43.6330 H   0  0  0  0  0  0  0  0  0  0  0  0
   47.6470   34.6460   41.9130 C   0  0  0  0  0  0  0  0  0  0  0  0
   48.3630   35.6410   41.6690 O   0  0  0  0  0  0  0  0  0  0  0  0
   47.4930   33.4950   40.9520 C   0  0  2  0  0  3  0  0  0  0  0  0
   48.5970   33.4530   39.9430 C   0  0  0  0  0  3  0  0  0  0  0  0
   49.4310   34.1190   40.2390 H   0  0  0  0  0  0  0  0  0  0  0  0
   47.8990   33.8980   38.6750 C   0  0  0  0  0  3  0  0  0  0  0  0
   48.4500   33.5630   37.7760 H   0  0  0  0  0  0  0  0  0  0  0  0
   46.6480   33.3270   38.7940 O   0  0  0  0  0  0  0  0  0  0  0  0
   46.2620   33.7240   40.0730 C   0  0  0  0  0  3  0  0  0  0  0  0
   45.3740   33.1860   40.4590 H   0  0  0  0  0  0  0  0  0  0  0  0
  1  7  1  0  0  0  0
  1  6  1  0  0  0  0
  2  1  2  0  0  0  0
  3  2  1  0  0  0  0
  3  4  2  0  0  0  0
  4  5  1  0  0  0  0
  5  6  2  0  0  0  0
  5  9  1  0  0  0  0
  7 10  1  0  0  0  0
  8  2  1  0  0  0  0
 11  7  1  0  0  0  0
 12  3  1  0  0  0  0
 13 12  2  0  0  0  0
 14 12  1  1  0  0  0
 15 16  1  0  0  0  0
 15 14  1  0  0  0  0
 17 19  1  0  0  0  0
 17 15  1  0  0  0  0
 18 17  1  0  0  0  0
 19 20  1  0  0  0  0
 20 21  1  0  0  0  0
 20 14  1  0  0  0  0
M  END
>  <minimizedAffinity>
-4.40883207

>  <minimizedRMSD>
1.33258045

$$$$
