
 OpenBabel03252508513D

 27 29  0  0  1  0  0  0  0  0999 V2000
   45.7010   34.1770   41.1160 C   0  0  0  0  0  0  0  0  0  0  0  0
   46.3490   34.7850   42.1850 C   0  0  0  0  0  0  0  0  0  0  0  0
   47.7020   35.0870   42.0020 C   0  0  0  0  0  0  0  0  0  0  0  0
   48.3000   34.7800   40.8210 N   0  0  0  0  0  0  0  0  0  0  0  0
   47.6280   34.1910   39.8130 C   0  0  0  0  0  0  0  0  0  0  0  0
   46.3230   33.8880   39.9630 N   0  0  0  0  0  0  0  0  0  0  0  0
   48.2030   35.5590   42.8360 H   0  0  0  0  0  0  0  0  0  0  0  0
   48.1750   33.9790   38.9050 H   0  0  0  0  0  0  0  0  0  0  0  0
   45.6240   35.0740   43.4090 C   0  0  0  0  0  0  0  0  0  0  0  0
   45.0350   36.3120   43.6510 C   0  0  0  0  0  0  0  0  0  0  0  0
   44.4700   36.1380   44.9060 C   0  0  0  0  0  0  0  0  0  0  0  0
   44.7040   34.8850   45.3830 N   0  0  0  0  0  0  0  0  0  0  0  0
   45.4030   34.2750   44.4510 N   0  0  0  0  0  0  0  0  0  0  0  0
   44.9860   37.2190   43.0660 H   0  0  0  0  0  0  0  0  0  0  0  0
   43.9070   36.9250   45.4340 H   0  0  0  0  0  0  0  0  0  0  0  0
   44.3570   34.5620   46.3150 H   0  0  0  0  0  0  0  0  0  0  0  0
   44.3630   33.8630   41.2580 O   0  0  0  0  0  0  0  0  0  0  0  0
   43.2930   34.6010   40.8370 C   0  0  0  0  0  0  0  0  0  0  0  0
   42.4460   35.2210   41.5590 O   0  0  0  0  0  0  0  0  0  0  0  0
   42.7150   34.9630   39.4940 C   0  0  2  0  0  3  0  0  0  0  0  0
   41.2950   35.3910   39.5960 C   0  0  0  0  0  3  0  0  0  0  0  0
   40.7100   34.9830   40.4150 H   0  0  0  0  0  0  0  0  0  0  0  0
   40.7710   34.9220   38.2310 C   0  0  0  0  0  3  0  0  0  0  0  0
   39.6850   34.8660   38.1960 H   0  0  0  0  0  0  0  0  0  0  0  0
   41.3370   33.6270   38.2020 O   0  0  0  0  0  0  0  0  0  0  0  0
   42.6600   33.7890   38.5510 C   0  0  0  0  0  3  0  0  0  0  0  0
   43.0780   32.8840   39.0340 H   0  0  0  0  0  0  0  0  0  0  0  0
  1 17  1  0  0  0  0
  1  2  1  0  0  0  0
  2  9  1  0  0  0  0
  3  2  2  0  0  0  0
  3  7  1  0  0  0  0
  4  3  1  0  0  0  0
  5  6  1  0  0  0  0
  5  4  2  0  0  0  0
  6  1  2  0  0  0  0
  8  5  1  0  0  0  0
  9 10  1  0  0  0  0
  9 13  2  0  0  0  0
 10 11  2  0  0  0  0
 11 12  1  0  0  0  0
 11 15  1  0  0  0  0
 12 16  1  0  0  0  0
 13 12  1  0  0  0  0
 14 10  1  0  0  0  0
 18 17  1  0  0  0  0
 18 19  2  0  0  0  0
 20 21  1  0  0  0  0
 20 18  1  1  0  0  0
 21 22  1  0  0  0  0
 23 21  1  0  0  0  0
 24 23  1  0  0  0  0
 25 23  1  0  0  0  0
 25 26  1  0  0  0  0
 26 27  1  0  0  0  0
 26 20  1  0  0  0  0
M  END
>  <minimizedAffinity>
-5.29080439

>  <minimizedRMSD>
1.34927356

$$$$
