
 OpenBabel03242512043D

 19 20  0  0  1  0  0  0  0  0999 V2000
   47.0040   34.0190   42.5370 C   0  0  0  0  0  0  0  0  0  0  0  0
   47.8480   33.1270   42.7910 O   0  0  0  0  0  0  0  0  0  0  0  0
   45.3760   35.6120   43.4880 C   0  0  0  0  0  0  0  0  0  0  0  0
   46.1640   34.4590   43.6000 C   0  0  0  0  0  0  0  0  0  0  0  0
   46.0940   33.7460   44.8040 C   0  0  0  0  0  0  0  0  0  0  0  0
   45.2750   34.1990   45.8030 N   0  0  0  0  0  0  0  0  0  0  0  0
   44.5360   35.3210   45.6390 C   0  0  0  0  0  0  0  0  0  0  0  0
   44.5870   36.0150   44.4970 N   0  0  0  0  0  0  0  0  0  0  0  0
   45.3770   36.2080   42.5960 H   0  0  0  0  0  0  0  0  0  0  0  0
   46.7020   32.8510   44.8980 H   0  0  0  0  0  0  0  0  0  0  0  0
   43.9600   35.5050   46.5430 H   0  0  0  0  0  0  0  0  0  0  0  0
   46.9040   34.5820   41.1640 C   0  0  1  0  0  3  0  0  0  0  0  0
   48.2210   34.8100   40.4990 C   0  0  0  0  0  3  0  0  0  0  0  0
   48.1800   35.8450   40.0480 H   0  0  0  0  0  0  0  0  0  0  0  0
   48.1960   33.8230   39.3610 C   0  0  0  0  0  3  0  0  0  0  0  0
   48.7400   32.8770   39.5740 H   0  0  0  0  0  0  0  0  0  0  0  0
   46.8800   33.5730   39.0630 O   0  0  0  0  0  0  0  0  0  0  0  0
   46.1460   33.6930   40.2320 C   0  0  0  0  0  3  0  0  0  0  0  0
   45.1290   34.0650   39.9660 H   0  0  0  0  0  0  0  0  0  0  0  0
  1  2  2  0  0  0  0
  1  4  1  0  0  0  0
  3  4  2  0  0  0  0
  3  8  1  0  0  0  0
  4  5  1  0  0  0  0
  5 10  1  0  0  0  0
  5  6  2  0  0  0  0
  7  6  1  0  0  0  0
  7 11  1  0  0  0  0
  8  7  2  0  0  0  0
  9  3  1  0  0  0  0
 12  1  1  1  0  0  0
 13 12  1  0  0  0  0
 14 13  1  0  0  0  0
 15 16  1  0  0  0  0
 15 13  1  0  0  0  0
 17 15  1  0  0  0  0
 17 18  1  0  0  0  0
 18 12  1  0  0  0  0
 19 18  1  0  0  0  0
M  END
>  <minimizedAffinity>
-4.11320877

>  <minimizedRMSD>
1.67868042

$$$$
