
 OpenBabel03242512043D

 19 20  0  0  1  0  0  0  0  0999 V2000
   46.0380   32.6770   46.0040 C   0  0  0  0  0  0  0  0  0  0  0  0
   46.2770   31.5980   45.4100 O   0  0  0  0  0  0  0  0  0  0  0  0
   46.2410   33.9930   43.9260 C   0  0  0  0  0  0  0  0  0  0  0  0
   45.7070   33.8120   45.2090 C   0  0  0  0  0  0  0  0  0  0  0  0
   44.8290   34.7940   45.6850 C   0  0  0  0  0  0  0  0  0  0  0  0
   44.5340   35.8700   44.8920 N   0  0  0  0  0  0  0  0  0  0  0  0
   45.0810   35.9930   43.6600 C   0  0  0  0  0  0  0  0  0  0  0  0
   45.9210   35.0670   43.1860 N   0  0  0  0  0  0  0  0  0  0  0  0
   46.9200   33.2840   43.4950 H   0  0  0  0  0  0  0  0  0  0  0  0
   44.4110   34.6600   46.6790 H   0  0  0  0  0  0  0  0  0  0  0  0
   44.7200   36.9110   43.1990 H   0  0  0  0  0  0  0  0  0  0  0  0
   46.1050   32.7430   47.4880 C   0  0  1  0  0  3  0  0  0  0  0  0
   45.0700   31.9210   48.1840 C   0  0  0  0  0  3  0  0  0  0  0  0
   44.6240   32.5780   48.9870 H   0  0  0  0  0  0  0  0  0  0  0  0
   45.8930   30.8640   48.8740 C   0  0  0  0  0  3  0  0  0  0  0  0
   45.9390   29.9000   48.3230 H   0  0  0  0  0  0  0  0  0  0  0  0
   47.1490   31.3810   49.0650 O   0  0  0  0  0  0  0  0  0  0  0  0
   47.4130   32.2610   48.0260 C   0  0  0  0  0  3  0  0  0  0  0  0
   48.0740   33.0670   48.4170 H   0  0  0  0  0  0  0  0  0  0  0  0
  2  1  2  0  0  0  0
  3  4  1  0  0  0  0
  4  5  2  0  0  0  0
  4  1  1  0  0  0  0
  5 10  1  0  0  0  0
  6  5  1  0  0  0  0
  7  6  2  0  0  0  0
  8  7  1  0  0  0  0
  8  3  2  0  0  0  0
  9  3  1  0  0  0  0
 11  7  1  0  0  0  0
 12  1  1  6  0  0  0
 12 18  1  0  0  0  0
 12 13  1  0  0  0  0
 13 15  1  0  0  0  0
 13 14  1  0  0  0  0
 15 17  1  0  0  0  0
 16 15  1  0  0  0  0
 18 19  1  0  0  0  0
 18 17  1  0  0  0  0
M  END
>  <minimizedAffinity>
-4.27796268

>  <minimizedRMSD>
6.17190886

$$$$
