
 OpenBabel03242520453D

 21 22  0  0  1  0  0  0  0  0999 V2000
   45.0230   35.7820   43.7830 C   0  0  0  0  0  0  0  0  0  0  0  0
   45.9470   34.7470   43.4970 C   0  0  0  0  0  0  0  0  0  0  0  0
   46.2150   33.8080   44.4900 C   0  0  0  0  0  0  0  0  0  0  0  0
   45.5900   33.9200   45.6730 N   0  0  0  0  0  0  0  0  0  0  0  0
   44.7020   34.9250   45.9240 C   0  0  0  0  0  0  0  0  0  0  0  0
   44.4310   35.8420   44.9770 N   0  0  0  0  0  0  0  0  0  0  0  0
   44.7350   36.7430   42.7950 N   0  0  0  0  0  0  0  0  0  0  0  0
   46.4120   34.7250   42.5190 H   0  0  0  0  0  0  0  0  0  0  0  0
   44.2740   34.8920   46.9150 H   0  0  0  0  0  0  0  0  0  0  0  0
   44.7840   37.7820   42.9100 H   0  0  0  0  0  0  0  0  0  0  0  0
   44.4540   36.2550   41.8970 H   0  0  0  0  0  0  0  0  0  0  0  0
   47.1580   32.7950   44.1310 C   0  0  0  0  0  0  0  0  0  0  0  0
   48.1510   32.9560   43.3900 O   0  0  0  0  0  0  0  0  0  0  0  0
   46.8140   31.4700   44.7620 C   0  0  2  0  0  3  0  0  0  0  0  0
   47.9370   30.4860   44.6500 C   0  0  0  0  0  3  0  0  0  0  0  0
   48.8770   30.9880   44.3470 H   0  0  0  0  0  0  0  0  0  0  0  0
   47.4170   29.5130   43.6110 C   0  0  0  0  0  3  0  0  0  0  0  0
   47.9320   28.5370   43.6850 H   0  0  0  0  0  0  0  0  0  0  0  0
   46.0690   29.4450   43.8990 O   0  0  0  0  0  0  0  0  0  0  0  0
   45.7090   30.7910   43.9520 C   0  0  0  0  0  3  0  0  0  0  0  0
   44.7080   30.9680   44.3900 H   0  0  0  0  0  0  0  0  0  0  0  0
  1  6  1  0  0  0  0
  2  1  2  0  0  0  0
  2  3  1  0  0  0  0
  3  4  2  0  0  0  0
  4  5  1  0  0  0  0
  5  9  1  0  0  0  0
  6  5  2  0  0  0  0
  7 10  1  0  0  0  0
  7  1  1  0  0  0  0
  8  2  1  0  0  0  0
 11  7  1  0  0  0  0
 12  3  1  0  0  0  0
 13 12  2  0  0  0  0
 14 12  1  6  0  0  0
 15 14  1  0  0  0  0
 16 15  1  0  0  0  0
 17 18  1  0  0  0  0
 17 19  1  0  0  0  0
 17 15  1  0  0  0  0
 19 20  1  0  0  0  0
 20 21  1  0  0  0  0
 20 14  1  0  0  0  0
M  END
>  <minimizedAffinity>
-3.6119945

>  <minimizedRMSD>
4.3563633

$$$$
