
 OpenBabel03242516163D

 42 46  0  0  1  0  0  0  0  0999 V2000
   48.3600   33.9370   42.0280 C   0  0  0  0  0  0  0  0  0  0  0  0
   49.6070   34.7660   42.3560 C   0  0  0  0  0  0  0  0  0  0  0  0
   49.4570   33.4170   42.8370 C   0  0  0  0  0  0  0  0  0  0  0  0
   49.4160   35.6760   42.9880 H   0  0  0  0  0  0  0  0  0  0  0  0
   50.3140   35.0100   41.5390 H   0  0  0  0  0  0  0  0  0  0  0  0
   50.0930   32.6270   42.3560 H   0  0  0  0  0  0  0  0  0  0  0  0
   49.4800   33.3010   43.9220 H   0  0  0  0  0  0  0  0  0  0  0  0
   48.2700   33.5330   40.5980 C   0  0  0  0  0  0  0  0  0  0  0  0
   48.1870   34.6870   39.6120 C   0  0  0  0  0  0  0  0  0  0  0  0
   48.2410   34.0170   38.2330 C   0  0  0  0  0  0  0  0  0  0  0  0
   46.9690   33.4630   38.0270 O   0  0  0  0  0  0  0  0  0  0  0  0
   46.9710   32.3280   38.8760 C   0  0  0  0  0  0  0  0  0  0  0  0
   46.9640   32.7590   40.3250 C   0  0  0  0  0  0  0  0  0  0  0  0
   49.1080   32.9060   40.2460 H   0  0  0  0  0  0  0  0  0  0  0  0
   49.1240   35.2620   39.6840 H   0  0  0  0  0  0  0  0  0  0  0  0
   47.2770   35.2760   39.7300 H   0  0  0  0  0  0  0  0  0  0  0  0
   48.9890   33.2160   38.2630 H   0  0  0  0  0  0  0  0  0  0  0  0
   48.3980   34.7470   37.4210 H   0  0  0  0  0  0  0  0  0  0  0  0
   45.9800   31.8410   38.7060 H   0  0  0  0  0  0  0  0  0  0  0  0
   47.8280   31.6670   38.6820 H   0  0  0  0  0  0  0  0  0  0  0  0
   46.0830   33.3630   40.5590 H   0  0  0  0  0  0  0  0  0  0  0  0
   47.0640   31.8240   40.9180 H   0  0  0  0  0  0  0  0  0  0  0  0
   46.5660   35.6350   42.4480 C   0  0  0  0  0  0  0  0  0  0  0  0
   47.0940   34.3790   42.6890 C   0  0  0  0  0  0  0  0  0  0  0  0
   46.4050   33.5600   43.5770 C   0  0  0  0  0  0  0  0  0  0  0  0
   45.2550   33.9970   44.1730 N   0  0  0  0  0  0  0  0  0  0  0  0
   44.8020   35.2240   43.8920 C   0  0  0  0  0  0  0  0  0  0  0  0
   45.4310   36.0290   43.0550 N   0  0  0  0  0  0  0  0  0  0  0  0
   43.6140   35.7470   44.4730 N   0  0  0  0  0  0  0  0  0  0  0  0
   47.1150   36.2550   41.7560 H   0  0  0  0  0  0  0  0  0  0  0  0
   42.7250   35.4610   44.0330 H   0  0  0  0  0  0  0  0  0  0  0  0
   43.9250   36.3440   45.2690 H   0  0  0  0  0  0  0  0  0  0  0  0
   46.8840   32.2560   43.9800 C   0  0  2  0  0  3  0  0  0  0  0  0
   46.9360   31.1770   43.3340 O   0  0  0  0  0  0  0  0  0  0  0  0
   47.4650   31.2860   44.9220 C   0  0  2  0  0  0  0  0  0  0  0  0
   46.6270   30.0290   45.0500 C   0  0  0  0  0  3  0  0  0  0  0  0
   47.3060   29.3140   45.5910 H   0  0  0  0  0  0  0  0  0  0  0  0
   45.5700   30.4340   46.0180 C   0  0  0  0  0  3  0  0  0  0  0  0
   45.5660   29.7640   46.9260 H   0  0  0  0  0  0  0  0  0  0  0  0
   45.8840   31.6930   46.5110 O   0  0  0  0  0  0  0  0  0  0  0  0
   47.2670   31.8000   46.3810 C   0  0  0  0  0  3  0  0  0  0  0  0
   47.6100   32.8330   46.4630 H   0  0  0  0  0  0  0  0  0  0  0  0
  1  2  1  0  0  0  0
  1 24  1  0  0  0  0
  1  3  1  0  0  0  0
  2  3  1  0  0  0  0
  2  4  1  0  0  0  0
  3  7  1  0  0  0  0
  5  2  1  0  0  0  0
  6  3  1  0  0  0  0
  8  1  1  0  0  0  0
  9 15  1  0  0  0  0
  9 16  1  0  0  0  0
  9  8  1  0  0  0  0
 10 17  1  0  0  0  0
 10  9  1  0  0  0  0
 11 10  1  0  0  0  0
 11 12  1  0  0  0  0
 12 13  1  0  0  0  0
 13 21  1  0  0  0  0
 13  8  1  0  0  0  0
 13 22  1  0  0  0  0
 14  8  1  0  0  0  0
 18 10  1  0  0  0  0
 19 12  1  0  0  0  0
 20 12  1  0  0  0  0
 23 24  2  0  0  0  0
 23 28  1  0  0  0  0
 24 25  1  0  0  0  0
 25 26  2  0  0  0  0
 27 26  1  0  0  0  0
 27 29  1  0  0  0  0
 28 27  2  0  0  0  0
 29 32  1  0  0  0  0
 30 23  1  0  0  0  0
 31 29  1  0  0  0  0
 33 25  1  1  0  0  0
 33 35  1  0  0  0  0
 34 33  1  0  0  0  0
 35 34  1  6  0  0  0
 35 36  1  0  0  0  0
 35 41  1  0  0  0  0
 36 37  1  0  0  0  0
 36 38  1  0  0  0  0
 38 40  1  0  0  0  0
 38 39  1  0  0  0  0
 41 42  1  0  0  0  0
 41 40  1  0  0  0  0
M  END
>  <minimizedAffinity>
-5.22896194

>  <minimizedRMSD>
1.57269478

$$$$
