
 OpenBabel03252505503D

 21 22  0  0  1  0  0  0  0  0999 V2000
   37.7910   29.3260   42.3190 C   0  0  0  0  0  0  0  0  0  0  0  0
   36.8570   28.3350   42.0500 C   0  0  0  0  0  0  0  0  0  0  0  0
   35.8640   28.6510   41.1360 C   0  0  0  0  0  0  0  0  0  0  0  0
   35.8420   29.8740   40.5600 N   0  0  0  0  0  0  0  0  0  0  0  0
   36.7660   30.8070   40.8500 C   0  0  0  0  0  0  0  0  0  0  0  0
   37.7410   30.5490   41.7220 N   0  0  0  0  0  0  0  0  0  0  0  0
   38.6180   29.1780   43.0260 H   0  0  0  0  0  0  0  0  0  0  0  0
   35.1420   27.8840   40.9290 H   0  0  0  0  0  0  0  0  0  0  0  0
   37.0050   27.0350   42.7570 C   0  0  0  0  0  0  0  0  0  0  0  0
   35.9720   26.9840   43.6760 F   0  0  0  0  0  0  0  0  0  0  0  0
   38.2130   27.0330   43.4020 F   0  0  0  0  0  0  0  0  0  0  0  0
   36.9440   26.0330   41.8010 F   0  0  0  0  0  0  0  0  0  0  0  0
   36.7670   32.0680   40.2740 O   0  0  0  0  0  0  0  0  0  0  0  0
   37.5500   32.4440   39.1740 C   0  0  2  0  0  3  0  0  0  0  0  0
   37.9490   31.2550   38.3240 C   0  0  0  0  0  3  0  0  0  0  0  0
   38.2290   30.4210   38.9790 H   0  0  0  0  0  0  0  0  0  0  0  0
   39.2090   31.8070   37.6880 C   0  0  0  0  0  3  0  0  0  0  0  0
   39.8280   31.0200   37.2290 H   0  0  0  0  0  0  0  0  0  0  0  0
   39.8570   32.3570   38.7920 O   0  0  0  0  0  0  0  0  0  0  0  0
   38.8940   32.9940   39.5530 C   0  0  0  0  0  3  0  0  0  0  0  0
   38.9720   34.0840   39.3570 H   0  0  0  0  0  0  0  0  0  0  0  0
  1  7  1  0  0  0  0
  2  1  1  0  0  0  0
  2  9  1  0  0  0  0
  3  2  2  0  0  0  0
  4  5  2  0  0  0  0
  4  3  1  0  0  0  0
  5  6  1  0  0  0  0
  6  1  2  0  0  0  0
  8  3  1  0  0  0  0
  9 11  1  0  0  0  0
  9 10  1  0  0  0  0
 12  9  1  0  0  0  0
 13  5  1  0  0  0  0
 14 20  1  0  0  0  0
 14 13  1  1  0  0  0
 15 16  1  0  0  0  0
 15 14  1  0  0  0  0
 17 15  1  0  0  0  0
 17 19  1  0  0  0  0
 18 17  1  0  0  0  0
 19 20  1  0  0  0  0
 21 20  1  0  0  0  0
M  END
>  <minimizedAffinity>
-4.62072992

$$$$

 OpenBabel03252505503D

 21 22  0  0  1  0  0  0  0  0999 V2000
   38.5880   31.2770   41.0040 C   0  0  0  0  0  0  0  0  0  0  0  0
   37.4850   31.6040   40.2270 C   0  0  0  0  0  0  0  0  0  0  0  0
   36.3140   30.9140   40.4940 C   0  0  0  0  0  0  0  0  0  0  0  0
   36.2890   29.9770   41.4680 N   0  0  0  0  0  0  0  0  0  0  0  0
   37.3810   29.6900   42.1980 C   0  0  0  0  0  0  0  0  0  0  0  0
   38.5310   30.3280   41.9790 N   0  0  0  0  0  0  0  0  0  0  0  0
   39.5640   31.7640   40.8750 H   0  0  0  0  0  0  0  0  0  0  0  0
   35.4600   31.1680   39.8920 H   0  0  0  0  0  0  0  0  0  0  0  0
   37.6570   32.6560   39.1910 C   0  0  0  0  0  0  0  0  0  0  0  0
   39.0080   32.9550   39.1740 F   0  0  0  0  0  0  0  0  0  0  0  0
   36.9340   33.7560   39.5730 F   0  0  0  0  0  0  0  0  0  0  0  0
   37.1900   32.1390   37.9930 F   0  0  0  0  0  0  0  0  0  0  0  0
   37.3830   28.7340   43.2030 O   0  0  0  0  0  0  0  0  0  0  0  0
   37.7330   27.3890   43.0260 C   0  0  2  0  0  3  0  0  0  0  0  0
   39.0980   27.0740   43.6050 C   0  0  0  0  0  3  0  0  0  0  0  0
   39.7890   27.8920   43.3650 H   0  0  0  0  0  0  0  0  0  0  0  0
   39.4640   25.8740   42.7560 C   0  0  0  0  0  3  0  0  0  0  0  0
   40.5370   25.6310   42.8120 H   0  0  0  0  0  0  0  0  0  0  0  0
   39.1320   26.3260   41.4810 O   0  0  0  0  0  0  0  0  0  0  0  0
   37.9310   27.0020   41.5900 C   0  0  0  0  0  3  0  0  0  0  0  0
   37.1270   26.3310   41.2210 H   0  0  0  0  0  0  0  0  0  0  0  0
  1  6  1  0  0  0  0
  2  3  1  0  0  0  0
  2  1  2  0  0  0  0
  3  4  2  0  0  0  0
  4  5  1  0  0  0  0
  5 13  1  0  0  0  0
  6  5  2  0  0  0  0
  7  1  1  0  0  0  0
  8  3  1  0  0  0  0
  9 11  1  0  0  0  0
  9  2  1  0  0  0  0
 10  9  1  0  0  0  0
 12  9  1  0  0  0  0
 14 13  1  6  0  0  0
 14 15  1  0  0  0  0
 16 15  1  0  0  0  0
 17 18  1  0  0  0  0
 17 15  1  0  0  0  0
 19 20  1  0  0  0  0
 19 17  1  0  0  0  0
 20 14  1  0  0  0  0
 21 20  1  0  0  0  0
M  END
>  <minimizedAffinity>
-4.43961048

$$$$

 OpenBabel03252505503D

 21 22  0  0  1  0  0  0  0  0999 V2000
   36.8840   27.5320   40.7010 C   0  0  0  0  0  0  0  0  0  0  0  0
   37.2480   27.0660   41.9570 C   0  0  0  0  0  0  0  0  0  0  0  0
   37.4900   28.0250   42.9270 C   0  0  0  0  0  0  0  0  0  0  0  0
   37.3680   29.3370   42.6250 N   0  0  0  0  0  0  0  0  0  0  0  0
   37.0140   29.7470   41.3940 C   0  0  0  0  0  0  0  0  0  0  0  0
   36.7700   28.8620   40.4280 N   0  0  0  0  0  0  0  0  0  0  0  0
   36.6700   26.8570   39.8630 H   0  0  0  0  0  0  0  0  0  0  0  0
   37.7720   27.6640   43.8990 H   0  0  0  0  0  0  0  0  0  0  0  0
   37.3430   25.5940   42.1480 C   0  0  0  0  0  0  0  0  0  0  0  0
   37.2770   25.0420   40.8810 F   0  0  0  0  0  0  0  0  0  0  0  0
   36.2680   25.1900   42.8960 F   0  0  0  0  0  0  0  0  0  0  0  0
   38.5370   25.3360   42.8020 F   0  0  0  0  0  0  0  0  0  0  0  0
   36.8810   31.0860   41.0570 O   0  0  0  0  0  0  0  0  0  0  0  0
   37.7870   31.8040   40.2650 C   0  0  2  0  0  3  0  0  0  0  0  0
   38.9460   32.3490   41.0760 C   0  0  0  0  0  3  0  0  0  0  0  0
   38.5680   32.7410   42.0280 H   0  0  0  0  0  0  0  0  0  0  0  0
   39.3410   33.5200   40.1990 C   0  0  0  0  0  3  0  0  0  0  0  0
   39.9980   34.2330   40.7220 H   0  0  0  0  0  0  0  0  0  0  0  0
   38.1020   34.0990   39.9370 O   0  0  0  0  0  0  0  0  0  0  0  0
   37.2150   33.0670   39.6920 C   0  0  0  0  0  3  0  0  0  0  0  0
   37.0660   33.0000   38.5930 H   0  0  0  0  0  0  0  0  0  0  0  0
  1  2  1  0  0  0  0
  2  9  1  0  0  0  0
  2  3  2  0  0  0  0
  3  8  1  0  0  0  0
  4  3  1  0  0  0  0
  5  4  2  0  0  0  0
  6  1  2  0  0  0  0
  6  5  1  0  0  0  0
  7  1  1  0  0  0  0
  9 12  1  0  0  0  0
  9 11  1  0  0  0  0
 10  9  1  0  0  0  0
 13  5  1  0  0  0  0
 14 13  1  1  0  0  0
 14 15  1  0  0  0  0
 15 16  1  0  0  0  0
 17 18  1  0  0  0  0
 17 15  1  0  0  0  0
 19 17  1  0  0  0  0
 20 19  1  0  0  0  0
 20 14  1  0  0  0  0
 21 20  1  0  0  0  0
M  END
>  <minimizedAffinity>
-4.37441349

$$$$

 OpenBabel03252505503D

 21 22  0  0  1  0  0  0  0  0999 V2000
   36.6950   27.1760   40.6300 C   0  0  0  0  0  0  0  0  0  0  0  0
   37.1730   26.7080   41.8460 C   0  0  0  0  0  0  0  0  0  0  0  0
   37.3360   27.6490   42.8510 C   0  0  0  0  0  0  0  0  0  0  0  0
   37.0340   28.9460   42.6160 N   0  0  0  0  0  0  0  0  0  0  0  0
   36.5730   29.3570   41.4210 C   0  0  0  0  0  0  0  0  0  0  0  0
   36.3990   28.4900   40.4250 N   0  0  0  0  0  0  0  0  0  0  0  0
   36.5300   26.5140   39.7700 H   0  0  0  0  0  0  0  0  0  0  0  0
   37.7060   27.2870   43.7920 H   0  0  0  0  0  0  0  0  0  0  0  0
   37.4630   25.2540   41.9630 C   0  0  0  0  0  0  0  0  0  0  0  0
   37.5870   24.7870   40.6670 F   0  0  0  0  0  0  0  0  0  0  0  0
   36.3980   24.6540   42.5820 F   0  0  0  0  0  0  0  0  0  0  0  0
   38.6210   25.1210   42.7120 F   0  0  0  0  0  0  0  0  0  0  0  0
   36.2560   30.6810   41.1550 O   0  0  0  0  0  0  0  0  0  0  0  0
   37.1420   31.6220   40.6130 C   0  0  2  0  0  3  0  0  0  0  0  0
   37.0300   31.7090   39.1040 C   0  0  0  0  0  3  0  0  0  0  0  0
   36.9320   30.6970   38.6910 H   0  0  0  0  0  0  0  0  0  0  0  0
   38.4160   32.2270   38.7760 C   0  0  0  0  0  3  0  0  0  0  0  0
   38.6640   32.1160   37.7080 H   0  0  0  0  0  0  0  0  0  0  0  0
   39.2140   31.3910   39.5520 O   0  0  0  0  0  0  0  0  0  0  0  0
   38.5870   31.2510   40.7760 C   0  0  0  0  0  3  0  0  0  0  0  0
   39.1090   31.9080   41.5040 H   0  0  0  0  0  0  0  0  0  0  0  0
  1  2  1  0  0  0  0
  2  9  1  0  0  0  0
  2  3  2  0  0  0  0
  3  8  1  0  0  0  0
  4  3  1  0  0  0  0
  5  4  2  0  0  0  0
  6  1  2  0  0  0  0
  6  5  1  0  0  0  0
  7  1  1  0  0  0  0
  9 11  1  0  0  0  0
  9 12  1  0  0  0  0
 10  9  1  0  0  0  0
 13  5  1  0  0  0  0
 14 20  1  0  0  0  0
 14 13  1  6  0  0  0
 15 14  1  0  0  0  0
 16 15  1  0  0  0  0
 17 15  1  0  0  0  0
 17 19  1  0  0  0  0
 18 17  1  0  0  0  0
 19 20  1  0  0  0  0
 20 21  1  0  0  0  0
M  END
>  <minimizedAffinity>
-4.33435869

$$$$

 OpenBabel03252505503D

 21 22  0  0  1  0  0  0  0  0999 V2000
   38.5410   27.0310   41.1960 C   0  0  0  0  0  0  0  0  0  0  0  0
   37.5790   26.4680   42.0240 C   0  0  0  0  0  0  0  0  0  0  0  0
   36.8920   27.3370   42.8560 C   0  0  0  0  0  0  0  0  0  0  0  0
   37.1760   28.6590   42.8330 N   0  0  0  0  0  0  0  0  0  0  0  0
   38.1170   29.1640   42.0160 C   0  0  0  0  0  0  0  0  0  0  0  0
   38.8030   28.3670   41.1970 N   0  0  0  0  0  0  0  0  0  0  0  0
   39.1400   26.4310   40.4990 H   0  0  0  0  0  0  0  0  0  0  0  0
   36.1480   26.9010   43.4960 H   0  0  0  0  0  0  0  0  0  0  0  0
   37.3710   24.9980   41.9430 C   0  0  0  0  0  0  0  0  0  0  0  0
   38.5240   24.4230   42.4480 F   0  0  0  0  0  0  0  0  0  0  0  0
   37.2130   24.6600   40.6240 F   0  0  0  0  0  0  0  0  0  0  0  0
   36.2350   24.6970   42.6780 F   0  0  0  0  0  0  0  0  0  0  0  0
   38.4280   30.5150   41.9730 O   0  0  0  0  0  0  0  0  0  0  0  0
   38.4920   31.2830   40.8030 C   0  0  2  0  0  3  0  0  0  0  0  0
   39.0690   32.6610   41.0560 C   0  0  0  0  0  3  0  0  0  0  0  0
   38.6560   33.0590   41.9910 H   0  0  0  0  0  0  0  0  0  0  0  0
   38.4460   33.4150   39.8980 C   0  0  0  0  0  3  0  0  0  0  0  0
   38.5080   34.5070   40.0270 H   0  0  0  0  0  0  0  0  0  0  0  0
   37.1230   32.9880   39.9720 O   0  0  0  0  0  0  0  0  0  0  0  0
   37.1460   31.6310   40.2370 C   0  0  0  0  0  3  0  0  0  0  0  0
   36.9390   31.0950   39.2870 H   0  0  0  0  0  0  0  0  0  0  0  0
  1  6  2  0  0  0  0
  1  2  1  0  0  0  0
  2  3  2  0  0  0  0
  3  8  1  0  0  0  0
  4  3  1  0  0  0  0
  5  4  2  0  0  0  0
  6  5  1  0  0  0  0
  7  1  1  0  0  0  0
  9  2  1  0  0  0  0
  9 10  1  0  0  0  0
  9 12  1  0  0  0  0
 11  9  1  0  0  0  0
 13  5  1  0  0  0  0
 14 15  1  0  0  0  0
 14 13  1  1  0  0  0
 15 16  1  0  0  0  0
 17 19  1  0  0  0  0
 17 18  1  0  0  0  0
 17 15  1  0  0  0  0
 19 20  1  0  0  0  0
 20 14  1  0  0  0  0
 21 20  1  0  0  0  0
M  END
>  <minimizedAffinity>
-4.25991678

$$$$

 OpenBabel03252505503D

 21 22  0  0  1  0  0  0  0  0999 V2000
   38.6010   30.7670   41.2090 C   0  0  0  0  0  0  0  0  0  0  0  0
   37.6610   31.6240   40.6520 C   0  0  0  0  0  0  0  0  0  0  0  0
   36.3650   31.1430   40.5540 C   0  0  0  0  0  0  0  0  0  0  0  0
   36.0730   29.8970   40.9900 N   0  0  0  0  0  0  0  0  0  0  0  0
   37.0140   29.0980   41.5230 C   0  0  0  0  0  0  0  0  0  0  0  0
   38.2750   29.5160   41.6390 N   0  0  0  0  0  0  0  0  0  0  0  0
   39.6540   31.0490   41.3320 H   0  0  0  0  0  0  0  0  0  0  0  0
   35.6390   31.8060   40.1230 H   0  0  0  0  0  0  0  0  0  0  0  0
   38.1240   32.9680   40.2160 C   0  0  0  0  0  0  0  0  0  0  0  0
   36.9980   33.6240   39.7500 F   0  0  0  0  0  0  0  0  0  0  0  0
   39.0280   32.8010   39.1990 F   0  0  0  0  0  0  0  0  0  0  0  0
   38.7080   33.5820   41.3120 F   0  0  0  0  0  0  0  0  0  0  0  0
   36.7420   27.8160   41.9780 O   0  0  0  0  0  0  0  0  0  0  0  0
   37.3260   26.6480   41.4720 C   0  0  2  0  0  3  0  0  0  0  0  0
   36.7350   26.2470   40.1350 C   0  0  0  0  0  3  0  0  0  0  0  0
   35.6480   26.3880   40.1650 H   0  0  0  0  0  0  0  0  0  0  0  0
   37.0260   24.7600   40.1630 C   0  0  0  0  0  3  0  0  0  0  0  0
   36.4470   24.2050   39.4080 H   0  0  0  0  0  0  0  0  0  0  0  0
   36.6060   24.4210   41.4470 O   0  0  0  0  0  0  0  0  0  0  0  0
   37.0370   25.4260   42.2940 C   0  0  0  0  0  3  0  0  0  0  0  0
   37.9380   25.0570   42.8290 H   0  0  0  0  0  0  0  0  0  0  0  0
  1  7  1  0  0  0  0
  1  6  1  0  0  0  0
  2  1  2  0  0  0  0
  3  2  1  0  0  0  0
  3  4  2  0  0  0  0
  4  5  1  0  0  0  0
  5  6  2  0  0  0  0
  5 13  1  0  0  0  0
  8  3  1  0  0  0  0
  9  2  1  0  0  0  0
  9 12  1  0  0  0  0
 10  9  1  0  0  0  0
 11  9  1  0  0  0  0
 14 13  1  1  0  0  0
 14 20  1  0  0  0  0
 15 17  1  0  0  0  0
 15 16  1  0  0  0  0
 15 14  1  0  0  0  0
 17 19  1  0  0  0  0
 18 17  1  0  0  0  0
 19 20  1  0  0  0  0
 20 21  1  0  0  0  0
M  END
>  <minimizedAffinity>
-4.21631527

$$$$

 OpenBabel03252505503D

 21 22  0  0  1  0  0  0  0  0999 V2000
   36.6990   30.1300   38.7840 C   0  0  0  0  0  0  0  0  0  0  0  0
   37.0600   31.3370   39.3660 C   0  0  0  0  0  0  0  0  0  0  0  0
   37.0460   31.3870   40.7500 C   0  0  0  0  0  0  0  0  0  0  0  0
   36.6900   30.2930   41.4610 N   0  0  0  0  0  0  0  0  0  0  0  0
   36.3450   29.1410   40.8580 C   0  0  0  0  0  0  0  0  0  0  0  0
   36.3450   29.0450   39.5280 N   0  0  0  0  0  0  0  0  0  0  0  0
   36.6770   29.9840   37.6960 H   0  0  0  0  0  0  0  0  0  0  0  0
   37.3250   32.3210   41.2000 H   0  0  0  0  0  0  0  0  0  0  0  0
   37.4290   32.4580   38.4610 C   0  0  0  0  0  0  0  0  0  0  0  0
   36.7830   33.5760   38.9580 F   0  0  0  0  0  0  0  0  0  0  0  0
   36.9670   32.1640   37.2050 F   0  0  0  0  0  0  0  0  0  0  0  0
   38.8110   32.5660   38.4760 F   0  0  0  0  0  0  0  0  0  0  0  0
   35.9770   28.0050   41.5620 O   0  0  0  0  0  0  0  0  0  0  0  0
   36.8710   27.1380   42.2050 C   0  0  2  0  0  3  0  0  0  0  0  0
   37.3220   27.6770   43.5480 C   0  0  0  0  0  3  0  0  0  0  0  0
   37.5180   28.7520   43.4570 H   0  0  0  0  0  0  0  0  0  0  0  0
   38.6500   26.9580   43.6770 C   0  0  0  0  0  3  0  0  0  0  0  0
   39.2920   27.3980   44.4570 H   0  0  0  0  0  0  0  0  0  0  0  0
   39.2010   27.1660   42.4150 O   0  0  0  0  0  0  0  0  0  0  0  0
   38.1850   26.9930   41.4940 C   0  0  0  0  0  3  0  0  0  0  0  0
   38.3060   25.9880   41.0380 H   0  0  0  0  0  0  0  0  0  0  0  0
  1  2  2  0  0  0  0
  1  6  1  0  0  0  0
  2  3  1  0  0  0  0
  3  8  1  0  0  0  0
  3  4  2  0  0  0  0
  5  4  1  0  0  0  0
  5 13  1  0  0  0  0
  6  5  2  0  0  0  0
  7  1  1  0  0  0  0
  9 12  1  0  0  0  0
  9 10  1  0  0  0  0
  9  2  1  0  0  0  0
 11  9  1  0  0  0  0
 14 13  1  6  0  0  0
 14 15  1  0  0  0  0
 15 17  1  0  0  0  0
 16 15  1  0  0  0  0
 17 18  1  0  0  0  0
 19 17  1  0  0  0  0
 20 14  1  0  0  0  0
 20 19  1  0  0  0  0
 21 20  1  0  0  0  0
M  END
>  <minimizedAffinity>
-4.10162306

$$$$

 OpenBabel03252505503D

 21 22  0  0  1  0  0  0  0  0999 V2000
   36.9400   30.4790   40.4580 C   0  0  0  0  0  0  0  0  0  0  0  0
   37.1470   29.4570   41.3740 C   0  0  0  0  0  0  0  0  0  0  0  0
   38.2560   29.5780   42.1960 C   0  0  0  0  0  0  0  0  0  0  0  0
   39.0700   30.6510   42.0790 N   0  0  0  0  0  0  0  0  0  0  0  0
   38.8340   31.6200   41.1760 C   0  0  0  0  0  0  0  0  0  0  0  0
   37.7790   31.5480   40.3640 N   0  0  0  0  0  0  0  0  0  0  0  0
   36.0920   30.4810   39.7610 H   0  0  0  0  0  0  0  0  0  0  0  0
   38.4160   28.7870   42.9050 H   0  0  0  0  0  0  0  0  0  0  0  0
   36.1700   28.3370   41.3940 C   0  0  0  0  0  0  0  0  0  0  0  0
   36.1610   27.8640   42.6940 F   0  0  0  0  0  0  0  0  0  0  0  0
   36.6180   27.3630   40.5400 F   0  0  0  0  0  0  0  0  0  0  0  0
   34.9480   28.8440   40.9820 F   0  0  0  0  0  0  0  0  0  0  0  0
   39.6520   32.7300   41.0350 O   0  0  0  0  0  0  0  0  0  0  0  0
   40.8370   32.7600   40.2880 C   0  0  2  0  0  3  0  0  0  0  0  0
   41.7810   33.8490   40.7580 C   0  0  0  0  0  3  0  0  0  0  0  0
   41.2040   34.7580   40.9720 H   0  0  0  0  0  0  0  0  0  0  0  0
   42.5690   34.0710   39.4830 C   0  0  0  0  0  3  0  0  0  0  0  0
   43.1420   35.0110   39.5020 H   0  0  0  0  0  0  0  0  0  0  0  0
   41.5500   34.1380   38.5370 O   0  0  0  0  0  0  0  0  0  0  0  0
   40.6350   33.1510   38.8530 C   0  0  0  0  0  3  0  0  0  0  0  0
   40.7990   32.3000   38.1590 H   0  0  0  0  0  0  0  0  0  0  0  0
  1  2  1  0  0  0  0
  2  9  1  0  0  0  0
  2  3  2  0  0  0  0
  3  8  1  0  0  0  0
  4  3  1  0  0  0  0
  5  4  2  0  0  0  0
  6  1  2  0  0  0  0
  6  5  1  0  0  0  0
  7  1  1  0  0  0  0
  9 10  1  0  0  0  0
 11  9  1  0  0  0  0
 12  9  1  0  0  0  0
 13  5  1  0  0  0  0
 14 15  1  0  0  0  0
 14 13  1  1  0  0  0
 15 16  1  0  0  0  0
 17 18  1  0  0  0  0
 17 15  1  0  0  0  0
 19 20  1  0  0  0  0
 19 17  1  0  0  0  0
 20 14  1  0  0  0  0
 21 20  1  0  0  0  0
M  END
>  <minimizedAffinity>
-4.00983286

$$$$

 OpenBabel03252505503D

 21 22  0  0  1  0  0  0  0  0999 V2000
   37.1360   29.3660   38.8040 C   0  0  0  0  0  0  0  0  0  0  0  0
   35.7950   29.1760   38.5020 C   0  0  0  0  0  0  0  0  0  0  0  0
   34.9160   29.1520   39.5730 C   0  0  0  0  0  0  0  0  0  0  0  0
   35.3820   29.3080   40.8330 N   0  0  0  0  0  0  0  0  0  0  0  0
   36.6910   29.4880   41.0820 C   0  0  0  0  0  0  0  0  0  0  0  0
   37.5750   29.5200   40.0850 N   0  0  0  0  0  0  0  0  0  0  0  0
   37.9140   29.4020   38.0310 H   0  0  0  0  0  0  0  0  0  0  0  0
   33.8780   29.0050   39.3390 H   0  0  0  0  0  0  0  0  0  0  0  0
   35.4230   29.0200   37.0710 C   0  0  0  0  0  0  0  0  0  0  0  0
   36.2140   29.9160   36.3740 F   0  0  0  0  0  0  0  0  0  0  0  0
   34.1000   29.3500   36.9330 F   0  0  0  0  0  0  0  0  0  0  0  0
   35.6510   27.6980   36.7250 F   0  0  0  0  0  0  0  0  0  0  0  0
   37.1960   29.6510   42.3640 O   0  0  0  0  0  0  0  0  0  0  0  0
   37.6010   28.6030   43.2020 C   0  0  2  0  0  3  0  0  0  0  0  0
   39.0920   28.3460   43.1130 C   0  0  0  0  0  3  0  0  0  0  0  0
   39.4060   28.4070   42.0640 H   0  0  0  0  0  0  0  0  0  0  0  0
   39.1260   26.8920   43.5390 C   0  0  0  0  0  3  0  0  0  0  0  0
   40.0820   26.4040   43.2940 H   0  0  0  0  0  0  0  0  0  0  0  0
   38.0930   26.3560   42.7730 O   0  0  0  0  0  0  0  0  0  0  0  0
   37.0520   27.2650   42.8020 C   0  0  0  0  0  3  0  0  0  0  0  0
   36.2930   26.8910   43.5210 H   0  0  0  0  0  0  0  0  0  0  0  0
  1  6  1  0  0  0  0
  2  1  2  0  0  0  0
  2  3  1  0  0  0  0
  3  4  2  0  0  0  0
  4  5  1  0  0  0  0
  5 13  1  0  0  0  0
  6  5  2  0  0  0  0
  7  1  1  0  0  0  0
  8  3  1  0  0  0  0
  9  2  1  0  0  0  0
 10  9  1  0  0  0  0
 11  9  1  0  0  0  0
 12  9  1  0  0  0  0
 14 13  1  6  0  0  0
 15 14  1  0  0  0  0
 15 17  1  0  0  0  0
 16 15  1  0  0  0  0
 18 17  1  0  0  0  0
 19 20  1  0  0  0  0
 19 17  1  0  0  0  0
 20 14  1  0  0  0  0
 20 21  1  0  0  0  0
M  END
>  <minimizedAffinity>
-3.97986293

$$$$
