
 OpenBabel03252504313D

 32 33  0  0  1  0  0  0  0  0999 V2000
   45.1710   35.6780   43.4970 C   0  0  0  0  0  0  0  0  0  0  0  0
   45.2590   36.7620   43.6690 H   0  0  0  0  0  0  0  0  0  0  0  0
   46.0330   35.2940   42.8820 H   0  0  0  0  0  0  0  0  0  0  0  0
   43.7490   35.6440   41.3810 C   0  0  0  0  0  0  0  0  0  0  0  0
   43.9300   35.3560   42.6760 C   0  0  0  0  0  0  0  0  0  0  0  0
   42.5420   35.2550   40.8230 O   0  0  0  0  0  0  0  0  0  0  0  0
   41.2850   35.6840   41.1820 C   0  0  0  0  0  0  0  0  0  0  0  0
   41.2550   35.8590   42.3020 H   0  0  0  0  0  0  0  0  0  0  0  0
   41.0460   36.6400   40.7120 H   0  0  0  0  0  0  0  0  0  0  0  0
   40.2740   33.5520   41.6310 C   0  0  0  0  0  0  0  0  0  0  0  0
   40.2080   34.7190   40.8470 C   0  0  0  0  0  0  0  0  0  0  0  0
   39.2080   34.8170   39.9260 C   0  0  0  0  0  0  0  0  0  0  0  0
   38.3540   33.8000   39.8260 N   0  0  0  0  0  0  0  0  0  0  0  0
   38.4140   32.6870   40.5720 C   0  0  0  0  0  0  0  0  0  0  0  0
   39.4050   32.5050   41.5370 N   0  0  0  0  0  0  0  0  0  0  0  0
   41.0220   33.3640   42.3910 H   0  0  0  0  0  0  0  0  0  0  0  0
   39.2230   35.7290   39.3690 H   0  0  0  0  0  0  0  0  0  0  0  0
   37.6940   31.8920   40.4480 H   0  0  0  0  0  0  0  0  0  0  0  0
   45.0600   35.0270   44.6890 O   0  0  0  0  0  0  0  0  0  0  0  0
   45.4210   32.4450   44.1880 O   0  0  0  0  0  0  0  0  0  0  0  0
   46.0640   33.6680   44.7800 P   0  0  1  0  0  0  0  0  0  0  0  0
   47.5020   33.9610   43.9190 O   0  0  0  0  0  0  0  0  0  0  0  0
   47.9980   33.1410   43.7500 H   0  0  0  0  0  0  0  0  0  0  0  0
   46.4720   33.3520   46.3730 O   0  0  0  0  0  0  0  0  0  0  0  0
   46.0930   32.1480   46.8770 C   0  0  1  0  0  0  0  0  0  0  0  0
   47.1680   31.2300   47.3460 C   0  0  0  0  0  0  0  0  0  0  0  0
   48.1540   31.3720   46.8980 H   0  0  0  0  0  0  0  0  0  0  0  0
   47.1230   31.3660   48.8470 C   0  0  0  0  0  0  0  0  0  0  0  0
   47.2500   30.4000   49.3830 H   0  0  0  0  0  0  0  0  0  0  0  0
   45.9200   31.9270   49.1940 O   0  0  0  0  0  0  0  0  0  0  0  0
   45.1880   32.2220   48.0750 C   0  0  0  0  0  0  0  0  0  0  0  0
   44.6890   33.2120   48.0860 H   0  0  0  0  0  0  0  0  0  0  0  0
  1  2  1  0  0  0  0
  1 19  1  0  0  0  0
  3  1  1  0  0  0  0
  4  5  2  0  0  0  0
  5  1  1  0  0  0  0
  6  7  1  0  0  0  0
  6  4  1  0  0  0  0
  7  8  1  0  0  0  0
  9  7  1  0  0  0  0
 10 16  1  0  0  0  0
 11  7  1  0  0  0  0
 11 10  2  0  0  0  0
 12 11  1  0  0  0  0
 13 12  2  0  0  0  0
 13 14  1  0  0  0  0
 14 15  2  0  0  0  0
 15 10  1  0  0  0  0
 17 12  1  0  0  0  0
 18 14  1  0  0  0  0
 19 21  1  0  0  0  0
 21 20  2  6  0  0  0
 21 24  1  0  0  0  0
 22 21  1  0  0  0  0
 23 22  1  0  0  0  0
 25 24  1  1  0  0  0
 25 26  1  0  0  0  0
 25 31  1  0  0  0  0
 26 28  1  0  0  0  0
 27 26  1  0  0  0  0
 28 30  1  0  0  0  0
 28 29  1  0  0  0  0
 31 32  1  0  0  0  0
 31 30  1  0  0  0  0
M  END
>  <minimizedAffinity>
-5.16178226

>  <minimizedRMSD>
1.39555156

$$$$
