
 OpenBabel03242520453D

 21 22  0  0  1  0  0  0  0  0999 V2000
   46.0300   34.8880   43.2790 C   0  0  0  0  0  0  0  0  0  0  0  0
   46.3160   33.7440   44.0640 C   0  0  0  0  0  0  0  0  0  0  0  0
   45.7130   33.6330   45.3150 C   0  0  0  0  0  0  0  0  0  0  0  0
   44.8890   34.6100   45.7240 N   0  0  0  0  0  0  0  0  0  0  0  0
   44.6270   35.7030   44.9500 C   0  0  0  0  0  0  0  0  0  0  0  0
   45.2010   35.8270   43.7390 N   0  0  0  0  0  0  0  0  0  0  0  0
   46.6270   35.0220   42.0110 N   0  0  0  0  0  0  0  0  0  0  0  0
   46.9940   32.9990   43.6640 H   0  0  0  0  0  0  0  0  0  0  0  0
   43.9470   36.4070   45.4040 H   0  0  0  0  0  0  0  0  0  0  0  0
   47.1670   35.8490   41.6660 H   0  0  0  0  0  0  0  0  0  0  0  0
   46.4470   34.1470   41.4400 H   0  0  0  0  0  0  0  0  0  0  0  0
   46.0490   32.4540   46.0500 C   0  0  0  0  0  0  0  0  0  0  0  0
   46.2820   31.3300   45.5550 O   0  0  0  0  0  0  0  0  0  0  0  0
   46.0950   32.7200   47.5330 C   0  0  2  0  0  3  0  0  0  0  0  0
   47.3950   32.2960   48.1400 C   0  0  0  0  0  3  0  0  0  0  0  0
   48.1540   32.0960   47.3570 H   0  0  0  0  0  0  0  0  0  0  0  0
   47.0040   31.0570   48.9210 C   0  0  0  0  0  3  0  0  0  0  0  0
   47.7350   30.8420   49.7230 H   0  0  0  0  0  0  0  0  0  0  0  0
   45.7490   31.3780   49.3990 O   0  0  0  0  0  0  0  0  0  0  0  0
   45.0950   31.8070   48.2450 C   0  0  0  0  0  3  0  0  0  0  0  0
   44.1340   32.3230   48.4420 H   0  0  0  0  0  0  0  0  0  0  0  0
  1  6  2  0  0  0  0
  1  2  1  0  0  0  0
  2  3  2  0  0  0  0
  3  4  1  0  0  0  0
  3 12  1  0  0  0  0
  5  9  1  0  0  0  0
  5  4  2  0  0  0  0
  6  5  1  0  0  0  0
  7  1  1  0  0  0  0
  8  2  1  0  0  0  0
 10  7  1  0  0  0  0
 11  7  1  0  0  0  0
 13 12  2  0  0  0  0
 14 12  1  6  0  0  0
 14 15  1  0  0  0  0
 14 20  1  0  0  0  0
 15 17  1  0  0  0  0
 16 15  1  0  0  0  0
 17 19  1  0  0  0  0
 17 18  1  0  0  0  0
 20 21  1  0  0  0  0
 20 19  1  0  0  0  0
M  END
>  <minimizedAffinity>
-4.58328629

>  <minimizedRMSD>
6.53458738

$$$$
