
 OpenBabel03242523543D

 44 47  0  0  1  0  0  0  0  0999 V2000
   42.6950   34.4460   38.8840 C   0  0  1  0  0  0  0  0  0  0  0  0
   43.0050   35.1900   40.1760 C   0  0  1  0  0  0  0  0  0  0  0  0
   41.7890   35.5750   40.7680 O   0  0  0  0  0  0  0  0  0  0  0  0
   40.8230   35.9340   39.8260 C   0  0  0  0  0  0  0  0  0  0  0  0
   40.3360   34.7400   39.0300 C   0  0  2  0  0  0  0  0  0  0  0  0
   41.4580   33.6510   39.1450 C   0  0  1  0  0  0  0  0  0  0  0  0
   43.5630   33.8230   38.5810 H   0  0  0  0  0  0  0  0  0  0  0  0
   43.6760   36.0430   40.0340 H   0  0  0  0  0  0  0  0  0  0  0  0
   41.1530   36.7810   39.2000 H   0  0  0  0  0  0  0  0  0  0  0  0
   39.9640   36.2920   40.4080 H   0  0  0  0  0  0  0  0  0  0  0  0
   39.3980   34.3220   39.4280 H   0  0  0  0  0  0  0  0  0  0  0  0
   41.3120   33.4640   40.2580 H   0  0  0  0  0  0  0  0  0  0  0  0
   42.4900   35.3470   37.8280 O   0  0  0  0  0  0  0  0  0  0  0  0
   43.4000   35.6590   37.5790 H   0  0  0  0  0  0  0  0  0  0  0  0
   40.2850   35.0660   37.6820 O   0  0  0  0  0  0  0  0  0  0  0  0
   40.4820   34.3370   37.0710 H   0  0  0  0  0  0  0  0  0  0  0  0
   43.5110   34.2170   41.0500 O   0  0  0  0  0  0  0  0  0  0  0  0
   44.6360   34.3380   41.7660 C   0  0  0  0  0  0  0  0  0  0  0  0
   45.8850   34.4640   41.1400 C   0  0  0  0  0  0  0  0  0  0  0  0
   47.0100   34.5860   41.9410 C   0  0  0  0  0  0  0  0  0  0  0  0
   46.8720   34.5820   43.3170 N   0  0  0  0  0  0  0  0  0  0  0  0
   45.6490   34.4600   43.8830 C   0  0  0  0  0  0  0  0  0  0  0  0
   44.5370   34.3380   43.1160 N   0  0  0  0  0  0  0  0  0  0  0  0
   45.9910   34.4660   40.0640 H   0  0  0  0  0  0  0  0  0  0  0  0
   45.6230   34.4640   44.9610 H   0  0  0  0  0  0  0  0  0  0  0  0
   48.3800   34.7080   41.3400 C   0  0  0  0  0  0  0  0  0  0  0  0
   49.0850   36.0520   41.5180 C   0  0  0  0  0  0  0  0  0  0  0  0
   49.5420   34.7340   42.1700 C   0  0  0  0  0  0  0  0  0  0  0  0
   48.3900   34.3280   40.3000 H   0  0  0  0  0  0  0  0  0  0  0  0
   49.6480   36.4220   40.6650 H   0  0  0  0  0  0  0  0  0  0  0  0
   48.5770   36.7380   42.2090 H   0  0  0  0  0  0  0  0  0  0  0  0
   49.4380   34.6580   43.2840 H   0  0  0  0  0  0  0  0  0  0  0  0
   50.5350   34.4010   41.8180 H   0  0  0  0  0  0  0  0  0  0  0  0
   41.1650   32.6720   38.2690 O   0  0  0  0  0  0  0  0  0  0  0  0
   40.2700   31.6640   38.3820 C   0  0  0  0  0  0  0  0  0  0  0  0
   39.8240   31.0290   37.3250 O   0  0  0  0  0  0  0  0  0  0  0  0
   39.4690   30.8590   39.3550 C   0  0  2  0  0  3  0  0  0  0  0  0
   38.2830   31.7320   39.7810 C   0  0  0  0  0  3  0  0  0  0  0  0
   37.4460   31.6950   39.0800 H   0  0  0  0  0  0  0  0  0  0  0  0
   37.9320   31.0870   41.1110 C   0  0  0  0  0  3  0  0  0  0  0  0
   37.4920   31.8070   41.8320 H   0  0  0  0  0  0  0  0  0  0  0  0
   39.1200   30.6170   41.6440 O   0  0  0  0  0  0  0  0  0  0  0  0
   40.0870   30.5720   40.6600 C   0  0  0  0  0  3  0  0  0  0  0  0
   40.6360   29.6090   40.7070 H   0  0  0  0  0  0  0  0  0  0  0  0
  1  7  1  6  0  0  0
  1  6  1  0  0  0  0
  1  2  1  0  0  0  0
  2  8  1  6  0  0  0
  2  3  1  0  0  0  0
  2 17  1  0  0  0  0
  4 10  1  0  0  0  0
  4  3  1  0  0  0  0
  5  6  1  0  0  0  0
  5 11  1  1  0  0  0
  5  4  1  0  0  0  0
  6 12  1  1  0  0  0
  9  4  1  0  0  0  0
 13  1  1  0  0  0  0
 14 13  1  0  0  0  0
 15  5  1  0  0  0  0
 16 15  1  0  0  0  0
 17 18  1  0  0  0  0
 18 23  1  0  0  0  0
 19 18  2  0  0  0  0
 19 20  1  0  0  0  0
 20 21  2  0  0  0  0
 21 22  1  0  0  0  0
 22 25  1  0  0  0  0
 23 22  2  0  0  0  0
 24 19  1  0  0  0  0
 26 27  1  0  0  0  0
 26 20  1  0  0  0  0
 26 28  1  0  0  0  0
 27 28  1  0  0  0  0
 27 31  1  0  0  0  0
 28 32  1  0  0  0  0
 29 26  1  0  0  0  0
 30 27  1  0  0  0  0
 33 28  1  0  0  0  0
 34 35  1  0  0  0  0
 34  6  1  0  0  0  0
 36 35  2  0  0  0  0
 37 35  1  6  0  0  0
 37 38  1  0  0  0  0
 37 43  1  0  0  0  0
 38 40  1  0  0  0  0
 39 38  1  0  0  0  0
 40 42  1  0  0  0  0
 40 41  1  0  0  0  0
 43 44  1  0  0  0  0
 43 42  1  0  0  0  0
M  END
>  <minimizedAffinity>
-6.18609428

>  <minimizedRMSD>
1.45139909

$$$$
