
 OpenBabel03242517583D

 42 44  0  0  1  0  0  0  0  0999 V2000
   36.0250   29.8090   40.8710 O   0  0  0  0  0  0  0  0  0  0  0  0
   36.3760   29.8250   38.4380 C   0  0  0  0  0  0  0  0  0  0  0  0
   35.6500   29.5880   39.5550 C   0  0  0  0  0  0  0  0  0  0  0  0
   34.3820   29.0580   39.4180 C   0  0  0  0  0  0  0  0  0  0  0  0
   33.8300   28.7600   38.1940 C   0  0  0  0  0  0  0  0  0  0  0  0
   34.5750   29.0040   37.0590 C   0  0  0  0  0  0  0  0  0  0  0  0
   35.8490   29.5360   37.1960 C   0  0  0  0  0  0  0  0  0  0  0  0
   33.7350   28.8380   40.2530 H   0  0  0  0  0  0  0  0  0  0  0  0
   32.8390   28.3460   38.0660 H   0  0  0  0  0  0  0  0  0  0  0  0
   34.2070   28.7950   36.0670 H   0  0  0  0  0  0  0  0  0  0  0  0
   36.4530   29.7340   36.3130 H   0  0  0  0  0  0  0  0  0  0  0  0
   37.9090   30.6070   38.6550 S   0  0  0  0  0  0  0  0  0  0  0  0
   38.5960   30.9920   37.4100 O   0  0  0  0  0  0  0  0  0  0  0  0
   38.8230   29.5380   39.3040 O   0  0  0  0  0  0  0  0  0  0  0  0
   37.9490   31.8670   39.8750 C   0  0  1  0  0  3  0  0  0  0  0  0
   39.3440   32.4100   40.1110 C   0  0  0  0  0  3  0  0  0  0  0  0
   39.9440   32.2150   39.2090 H   0  0  0  0  0  0  0  0  0  0  0  0
   39.1010   33.8920   40.1910 C   0  0  0  0  0  3  0  0  0  0  0  0
   39.4140   34.3240   41.1660 H   0  0  0  0  0  0  0  0  0  0  0  0
   37.7610   34.1360   40.0430 O   0  0  0  0  0  0  0  0  0  0  0  0
   37.3190   33.0900   39.2290 C   0  0  0  0  0  3  0  0  0  0  0  0
   36.2080   33.0450   39.2530 H   0  0  0  0  0  0  0  0  0  0  0  0
   38.1110   28.6790   43.4780 C   0  0  0  0  0  0  0  0  0  0  0  0
   37.9980   27.2770   43.3720 C   0  0  0  0  0  0  0  0  0  0  0  0
   37.2000   26.7390   42.3980 C   0  0  0  0  0  0  0  0  0  0  0  0
   36.5680   27.6110   41.5960 N   0  0  0  0  0  0  0  0  0  0  0  0
   36.6750   28.9260   41.6970 C   0  0  0  0  0  0  0  0  0  0  0  0
   37.4460   29.4620   42.6380 N   0  0  0  0  0  0  0  0  0  0  0  0
   38.7410   29.1040   44.2470 H   0  0  0  0  0  0  0  0  0  0  0  0
   38.5710   26.7160   44.0890 H   0  0  0  0  0  0  0  0  0  0  0  0
   37.0250   25.2970   42.1910 C   0  0  0  0  0  0  0  0  0  0  0  0
   35.9480   25.0840   42.1830 H   0  0  0  0  0  0  0  0  0  0  0  0
   37.4700   24.7790   43.0400 H   0  0  0  0  0  0  0  0  0  0  0  0
   37.6360   24.8140   40.9090 C   0  0  0  0  0  0  0  0  0  0  0  0
   38.6040   25.2410   40.6480 H   0  0  0  0  0  0  0  0  0  0  0  0
   37.8690   23.7160   41.1030 H   0  0  0  0  0  0  0  0  0  0  0  0
   36.7050   24.8140   39.7810 C   0  0  0  0  0  3  0  0  0  0  0  0
   36.3170   25.5580   38.7520 C   0  0  0  0  0  3  0  0  0  0  0  0
   35.1770   25.2560   37.7960 C   0  0  0  0  0  0  0  0  0  0  0  0
   35.6310   25.1910   36.8060 H   0  0  0  0  0  0  0  0  0  0  0  0
   34.5160   26.1510   37.8580 H   0  0  0  0  0  0  0  0  0  0  0  0
   34.6590   24.3610   38.1370 H   0  0  0  0  0  0  0  0  0  0  0  0
  1 27  1  0  0  0  0
  2 12  1  0  0  0  0
  2  3  1  0  0  0  0
  3  1  1  0  0  0  0
  4  3  2  0  0  0  0
  4  8  1  0  0  0  0
  5  4  1  0  0  0  0
  6  7  1  0  0  0  0
  6  5  2  0  0  0  0
  7  2  2  0  0  0  0
  9  5  1  0  0  0  0
 10  6  1  0  0  0  0
 11  7  1  0  0  0  0
 12 14  2  0  0  0  0
 13 12  2  0  0  0  0
 15 12  1  6  0  0  0
 15 16  1  0  0  0  0
 16 18  1  0  0  0  0
 17 16  1  0  0  0  0
 18 19  1  0  0  0  0
 20 18  1  0  0  0  0
 21 22  1  0  0  0  0
 21 15  1  0  0  0  0
 21 20  1  0  0  0  0
 23 29  1  0  0  0  0
 24 23  1  0  0  0  0
 24 30  1  0  0  0  0
 25 24  2  0  0  0  0
 26 27  2  0  0  0  0
 26 25  1  0  0  0  0
 27 28  1  0  0  0  0
 28 23  2  0  0  0  0
 31 25  1  0  0  0  0
 31 33  1  0  0  0  0
 32 31  1  0  0  0  0
 34 36  1  0  0  0  0
 34 31  1  0  0  0  0
 35 34  1  0  0  0  0
 37 34  1  0  0  0  0
 38 37  2  0  0  0  0
 39 41  1  0  0  0  0
 39 42  1  0  0  0  0
 39 38  1  0  0  0  0
 40 39  1  0  0  0  0
M  END
>  <minimizedAffinity>
-5.63601637

$$$$

 OpenBabel03242517583D

 42 44  0  0  1  0  0  0  0  0999 V2000
   40.0110   30.2650   40.1860 O   0  0  0  0  0  0  0  0  0  0  0  0
   38.1230   31.4700   39.1740 C   0  0  0  0  0  0  0  0  0  0  0  0
   39.1890   31.3650   40.0000 C   0  0  0  0  0  0  0  0  0  0  0  0
   39.5330   32.4550   40.7750 C   0  0  0  0  0  0  0  0  0  0  0  0
   38.8360   33.6400   40.7400 C   0  0  0  0  0  0  0  0  0  0  0  0
   37.7500   33.7410   39.8960 C   0  0  0  0  0  0  0  0  0  0  0  0
   37.4040   32.6460   39.1180 C   0  0  0  0  0  0  0  0  0  0  0  0
   40.3670   32.4590   41.4600 H   0  0  0  0  0  0  0  0  0  0  0  0
   39.0910   34.5050   41.3390 H   0  0  0  0  0  0  0  0  0  0  0  0
   37.1570   34.6390   39.8170 H   0  0  0  0  0  0  0  0  0  0  0  0
   36.5500   32.7050   38.4460 H   0  0  0  0  0  0  0  0  0  0  0  0
   37.8090   30.1200   38.1310 S   0  0  0  0  0  0  0  0  0  0  0  0
   39.0080   29.4540   37.5920 O   0  0  0  0  0  0  0  0  0  0  0  0
   37.0920   30.7180   36.8950 O   0  0  0  0  0  0  0  0  0  0  0  0
   36.5990   28.9870   38.7040 C   0  0  1  0  0  3  0  0  0  0  0  0
   35.8530   29.4930   39.9230 C   0  0  0  0  0  3  0  0  0  0  0  0
   35.9220   30.5910   39.9340 H   0  0  0  0  0  0  0  0  0  0  0  0
   34.4300   29.1250   39.6020 C   0  0  0  0  0  3  0  0  0  0  0  0
   33.9870   28.4390   40.3560 H   0  0  0  0  0  0  0  0  0  0  0  0
   34.3940   28.4860   38.3910 O   0  0  0  0  0  0  0  0  0  0  0  0
   35.4690   29.0370   37.6890 C   0  0  0  0  0  3  0  0  0  0  0  0
   35.6870   28.4150   36.7950 H   0  0  0  0  0  0  0  0  0  0  0  0
   41.2080   27.9630   42.5730 C   0  0  0  0  0  0  0  0  0  0  0  0
   40.0480   27.6640   43.3160 C   0  0  0  0  0  0  0  0  0  0  0  0
   38.8630   28.2650   42.9830 C   0  0  0  0  0  0  0  0  0  0  0  0
   38.8970   29.1150   41.9440 N   0  0  0  0  0  0  0  0  0  0  0  0
   39.9870   29.3940   41.2470 C   0  0  0  0  0  0  0  0  0  0  0  0
   41.1440   28.8190   41.5600 N   0  0  0  0  0  0  0  0  0  0  0  0
   42.1440   27.4890   42.8360 H   0  0  0  0  0  0  0  0  0  0  0  0
   40.1850   26.9600   44.1170 H   0  0  0  0  0  0  0  0  0  0  0  0
   37.5970   28.0130   43.6790 C   0  0  0  0  0  0  0  0  0  0  0  0
   37.2480   28.9640   44.1040 H   0  0  0  0  0  0  0  0  0  0  0  0
   37.7950   27.3240   44.4990 H   0  0  0  0  0  0  0  0  0  0  0  0
   36.5350   27.4560   42.7770 C   0  0  0  0  0  0  0  0  0  0  0  0
   35.5290   27.4080   43.1920 H   0  0  0  0  0  0  0  0  0  0  0  0
   36.4440   28.2230   41.9400 H   0  0  0  0  0  0  0  0  0  0  0  0
   36.9240   26.2100   42.1150 C   0  0  0  0  0  3  0  0  0  0  0  0
   37.0740   24.9110   42.3470 C   0  0  0  0  0  3  0  0  0  0  0  0
   37.6310   23.8790   41.3850 C   0  0  0  0  0  0  0  0  0  0  0  0
   36.8330   23.1490   41.2390 H   0  0  0  0  0  0  0  0  0  0  0  0
   38.4820   23.4140   41.9340 H   0  0  0  0  0  0  0  0  0  0  0  0
   37.9760   24.3860   40.4840 H   0  0  0  0  0  0  0  0  0  0  0  0
  1 27  1  0  0  0  0
  2  3  1  0  0  0  0
  3  1  1  0  0  0  0
  3  4  2  0  0  0  0
  4  8  1  0  0  0  0
  5  4  1  0  0  0  0
  5  9  1  0  0  0  0
  6  5  2  0  0  0  0
  7  2  2  0  0  0  0
  7  6  1  0  0  0  0
 10  6  1  0  0  0  0
 11  7  1  0  0  0  0
 12  2  1  0  0  0  0
 13 12  2  0  0  0  0
 14 12  2  0  0  0  0
 15 12  1  6  0  0  0
 15 16  1  0  0  0  0
 16 17  1  0  0  0  0
 18 16  1  0  0  0  0
 18 19  1  0  0  0  0
 20 18  1  0  0  0  0
 21 20  1  0  0  0  0
 21 15  1  0  0  0  0
 22 21  1  0  0  0  0
 23 29  1  0  0  0  0
 23 24  1  0  0  0  0
 24 30  1  0  0  0  0
 25 24  2  0  0  0  0
 25 31  1  0  0  0  0
 26 25  1  0  0  0  0
 27 28  1  0  0  0  0
 27 26  2  0  0  0  0
 28 23  2  0  0  0  0
 31 32  1  0  0  0  0
 31 33  1  0  0  0  0
 34 35  1  0  0  0  0
 34 31  1  0  0  0  0
 36 34  1  0  0  0  0
 37 38  2  0  0  0  0
 37 34  1  0  0  0  0
 39 41  1  0  0  0  0
 39 38  1  0  0  0  0
 40 39  1  0  0  0  0
 42 39  1  0  0  0  0
M  END
>  <minimizedAffinity>
-5.59033155

$$$$

 OpenBabel03242517583D

 42 44  0  0  1  0  0  0  0  0999 V2000
   39.3910   29.9410   40.7890 O   0  0  0  0  0  0  0  0  0  0  0  0
   38.0100   31.3190   39.2930 C   0  0  0  0  0  0  0  0  0  0  0  0
   38.8280   31.1310   40.3540 C   0  0  0  0  0  0  0  0  0  0  0  0
   39.1660   32.2230   41.1280 C   0  0  0  0  0  0  0  0  0  0  0  0
   38.7030   33.4910   40.8650 C   0  0  0  0  0  0  0  0  0  0  0  0
   37.8690   33.6760   39.7820 C   0  0  0  0  0  0  0  0  0  0  0  0
   37.5290   32.5790   39.0040 C   0  0  0  0  0  0  0  0  0  0  0  0
   39.8120   32.1650   41.9910 H   0  0  0  0  0  0  0  0  0  0  0  0
   38.9570   34.3590   41.4590 H   0  0  0  0  0  0  0  0  0  0  0  0
   37.4680   34.6420   39.5160 H   0  0  0  0  0  0  0  0  0  0  0  0
   36.8710   32.7030   38.1460 H   0  0  0  0  0  0  0  0  0  0  0  0
   37.7180   29.9410   38.2800 S   0  0  0  0  0  0  0  0  0  0  0  0
   38.9260   29.2210   37.8400 O   0  0  0  0  0  0  0  0  0  0  0  0
   37.0970   30.5140   36.9820 O   0  0  0  0  0  0  0  0  0  0  0  0
   36.4400   28.8650   38.8160 C   0  0  1  0  0  3  0  0  0  0  0  0
   35.5760   29.4760   39.9010 C   0  0  0  0  0  3  0  0  0  0  0  0
   35.6570   30.5710   39.8260 H   0  0  0  0  0  0  0  0  0  0  0  0
   34.1910   29.0860   39.4640 C   0  0  0  0  0  3  0  0  0  0  0  0
   33.6620   28.4690   40.2210 H   0  0  0  0  0  0  0  0  0  0  0  0
   34.2750   28.3460   38.3140 O   0  0  0  0  0  0  0  0  0  0  0  0
   35.4240   28.8320   37.6860 C   0  0  0  0  0  3  0  0  0  0  0  0
   35.7280   28.1350   36.8760 H   0  0  0  0  0  0  0  0  0  0  0  0
   37.5580   28.6920   43.5290 C   0  0  0  0  0  0  0  0  0  0  0  0
   37.6450   27.2970   43.3430 C   0  0  0  0  0  0  0  0  0  0  0  0
   38.3370   26.8040   42.2680 C   0  0  0  0  0  0  0  0  0  0  0  0
   38.8960   27.7120   41.4530 N   0  0  0  0  0  0  0  0  0  0  0  0
   38.8140   29.0210   41.6290 C   0  0  0  0  0  0  0  0  0  0  0  0
   38.1450   29.5140   42.6660 N   0  0  0  0  0  0  0  0  0  0  0  0
   37.0110   29.0820   44.3770 H   0  0  0  0  0  0  0  0  0  0  0  0
   37.1430   26.7040   44.0870 H   0  0  0  0  0  0  0  0  0  0  0  0
   38.5010   25.3730   41.9910 C   0  0  0  0  0  0  0  0  0  0  0  0
   39.1430   24.9480   42.7740 H   0  0  0  0  0  0  0  0  0  0  0  0
   39.0140   25.2720   41.0350 H   0  0  0  0  0  0  0  0  0  0  0  0
   37.1970   24.6310   41.9620 C   0  0  0  0  0  0  0  0  0  0  0  0
   37.1860   23.6620   42.4600 H   0  0  0  0  0  0  0  0  0  0  0  0
   36.4970   25.2670   42.5960 H   0  0  0  0  0  0  0  0  0  0  0  0
   36.5790   24.5840   40.6380 C   0  0  0  0  0  3  0  0  0  0  0  0
   36.5110   25.2590   39.4960 C   0  0  0  0  0  3  0  0  0  0  0  0
   35.6270   24.9360   38.3060 C   0  0  0  0  0  0  0  0  0  0  0  0
   36.3080   24.7660   37.4690 H   0  0  0  0  0  0  0  0  0  0  0  0
   35.0340   25.8640   38.1370 H   0  0  0  0  0  0  0  0  0  0  0  0
   34.9800   24.0980   38.5630 H   0  0  0  0  0  0  0  0  0  0  0  0
  1 27  1  0  0  0  0
  2  3  1  0  0  0  0
  3  1  1  0  0  0  0
  3  4  2  0  0  0  0
  4  8  1  0  0  0  0
  5  4  1  0  0  0  0
  5  9  1  0  0  0  0
  6  5  2  0  0  0  0
  7  2  2  0  0  0  0
  7  6  1  0  0  0  0
 10  6  1  0  0  0  0
 11  7  1  0  0  0  0
 12  2  1  0  0  0  0
 13 12  2  0  0  0  0
 14 12  2  0  0  0  0
 15 12  1  6  0  0  0
 15 16  1  0  0  0  0
 17 16  1  0  0  0  0
 18 16  1  0  0  0  0
 18 19  1  0  0  0  0
 20 18  1  0  0  0  0
 21 20  1  0  0  0  0
 21 15  1  0  0  0  0
 22 21  1  0  0  0  0
 23 29  1  0  0  0  0
 24 23  1  0  0  0  0
 24 30  1  0  0  0  0
 25 24  2  0  0  0  0
 26 27  2  0  0  0  0
 26 25  1  0  0  0  0
 27 28  1  0  0  0  0
 28 23  2  0  0  0  0
 31 25  1  0  0  0  0
 31 32  1  0  0  0  0
 33 31  1  0  0  0  0
 34 31  1  0  0  0  0
 34 35  1  0  0  0  0
 34 36  1  0  0  0  0
 37 34  1  0  0  0  0
 38 37  2  0  0  0  0
 39 42  1  0  0  0  0
 39 38  1  0  0  0  0
 40 39  1  0  0  0  0
 41 39  1  0  0  0  0
M  END
>  <minimizedAffinity>
-5.37082291

$$$$

 OpenBabel03242517583D

 42 44  0  0  1  0  0  0  0  0999 V2000
   37.2570   27.7530   39.3380 O   0  0  0  0  0  0  0  0  0  0  0  0
   37.6490   29.2100   41.2780 C   0  0  0  0  0  0  0  0  0  0  0  0
   37.3010   28.0410   40.6930 C   0  0  0  0  0  0  0  0  0  0  0  0
   36.9340   26.9830   41.5000 C   0  0  0  0  0  0  0  0  0  0  0  0
   36.9060   27.0700   42.8720 C   0  0  0  0  0  0  0  0  0  0  0  0
   37.2610   28.2650   43.4630 C   0  0  0  0  0  0  0  0  0  0  0  0
   37.6300   29.3280   42.6520 C   0  0  0  0  0  0  0  0  0  0  0  0
   36.6420   26.0160   41.1180 H   0  0  0  0  0  0  0  0  0  0  0  0
   36.6220   26.2530   43.5210 H   0  0  0  0  0  0  0  0  0  0  0  0
   37.2620   28.4060   44.5320 H   0  0  0  0  0  0  0  0  0  0  0  0
   37.9120   30.2800   43.0980 H   0  0  0  0  0  0  0  0  0  0  0  0
   38.2230   30.4670   40.2290 S   0  0  0  0  0  0  0  0  0  0  0  0
   37.3360   30.7890   39.0970 O   0  0  0  0  0  0  0  0  0  0  0  0
   39.5110   29.9000   39.5820 O   0  0  0  0  0  0  0  0  0  0  0  0
   38.8510   31.8940   41.0320 C   0  0  1  0  0  3  0  0  0  0  0  0
   40.2870   32.1970   40.6510 C   0  0  0  0  0  3  0  0  0  0  0  0
   40.4850   31.7340   39.6720 H   0  0  0  0  0  0  0  0  0  0  0  0
   40.2580   33.6890   40.4570 C   0  0  0  0  0  3  0  0  0  0  0  0
   40.9550   34.2200   41.1390 H   0  0  0  0  0  0  0  0  0  0  0  0
   38.9950   34.1500   40.7160 O   0  0  0  0  0  0  0  0  0  0  0  0
   38.1690   33.0790   40.3680 C   0  0  0  0  0  3  0  0  0  0  0  0
   37.1480   33.2490   40.7730 H   0  0  0  0  0  0  0  0  0  0  0  0
   35.0180   25.8930   37.3480 C   0  0  0  0  0  0  0  0  0  0  0  0
   33.9750   26.8150   37.1210 C   0  0  0  0  0  0  0  0  0  0  0  0
   34.0580   28.0700   37.6620 C   0  0  0  0  0  0  0  0  0  0  0  0
   35.1580   28.3360   38.3850 N   0  0  0  0  0  0  0  0  0  0  0  0
   36.1360   27.4710   38.5970 C   0  0  0  0  0  0  0  0  0  0  0  0
   36.0680   26.2480   38.0790 N   0  0  0  0  0  0  0  0  0  0  0  0
   34.9530   24.9010   36.9220 H   0  0  0  0  0  0  0  0  0  0  0  0
   33.1630   26.4480   36.5170 H   0  0  0  0  0  0  0  0  0  0  0  0
   33.0380   29.1080   37.4740 C   0  0  0  0  0  0  0  0  0  0  0  0
   33.5060   30.0820   37.6700 H   0  0  0  0  0  0  0  0  0  0  0  0
   32.2560   28.9480   38.2160 H   0  0  0  0  0  0  0  0  0  0  0  0
   32.4520   29.1080   36.0930 C   0  0  0  0  0  0  0  0  0  0  0  0
   33.1560   28.9600   35.2730 H   0  0  0  0  0  0  0  0  0  0  0  0
   31.8030   28.1730   36.0610 H   0  0  0  0  0  0  0  0  0  0  0  0
   31.5360   30.2200   35.8450 C   0  0  0  0  0  3  0  0  0  0  0  0
   30.8770   31.1870   36.4750 C   0  0  0  0  0  3  0  0  0  0  0  0
   29.8740   32.1450   35.8610 C   0  0  0  0  0  0  0  0  0  0  0  0
   30.2850   33.1440   36.0180 H   0  0  0  0  0  0  0  0  0  0  0  0
   28.9500   32.0100   36.4690 H   0  0  0  0  0  0  0  0  0  0  0  0
   29.7050   31.8630   34.8230 H   0  0  0  0  0  0  0  0  0  0  0  0
  1  3  1  0  0  0  0
  2  7  1  0  0  0  0
  3  2  2  0  0  0  0
  3  4  1  0  0  0  0
  4  5  2  0  0  0  0
  5  6  1  0  0  0  0
  5  9  1  0  0  0  0
  6 10  1  0  0  0  0
  7 11  1  0  0  0  0
  7  6  2  0  0  0  0
  8  4  1  0  0  0  0
 12  2  1  0  0  0  0
 13 12  2  0  0  0  0
 14 12  2  0  0  0  0
 15 12  1  6  0  0  0
 16 15  1  0  0  0  0
 17 16  1  0  0  0  0
 18 16  1  0  0  0  0
 18 20  1  0  0  0  0
 18 19  1  0  0  0  0
 21 20  1  0  0  0  0
 21 22  1  0  0  0  0
 21 15  1  0  0  0  0
 23 28  1  0  0  0  0
 24 23  2  0  0  0  0
 24 25  1  0  0  0  0
 25 26  2  0  0  0  0
 26 27  1  0  0  0  0
 27  1  1  0  0  0  0
 28 27  2  0  0  0  0
 29 23  1  0  0  0  0
 30 24  1  0  0  0  0
 31 25  1  0  0  0  0
 31 32  1  0  0  0  0
 31 33  1  0  0  0  0
 34 31  1  0  0  0  0
 35 34  1  0  0  0  0
 36 34  1  0  0  0  0
 37 34  1  0  0  0  0
 37 38  2  0  0  0  0
 39 40  1  0  0  0  0
 39 41  1  0  0  0  0
 39 38  1  0  0  0  0
 42 39  1  0  0  0  0
M  END
>  <minimizedAffinity>
-5.3528161

$$$$

 OpenBabel03242517583D

 42 44  0  0  1  0  0  0  0  0999 V2000
   37.9290   27.7160   39.6080 O   0  0  0  0  0  0  0  0  0  0  0  0
   38.4000   29.0050   41.6470 C   0  0  0  0  0  0  0  0  0  0  0  0
   37.8070   28.0040   40.9590 C   0  0  0  0  0  0  0  0  0  0  0  0
   36.9670   27.1430   41.6370 C   0  0  0  0  0  0  0  0  0  0  0  0
   36.7090   27.2650   42.9830 C   0  0  0  0  0  0  0  0  0  0  0  0
   37.3160   28.2890   43.6790 C   0  0  0  0  0  0  0  0  0  0  0  0
   38.1600   29.1530   42.9980 C   0  0  0  0  0  0  0  0  0  0  0  0
   36.4530   26.3180   41.1670 H   0  0  0  0  0  0  0  0  0  0  0  0
   36.0550   26.6010   43.5320 H   0  0  0  0  0  0  0  0  0  0  0  0
   37.1600   28.4450   44.7350 H   0  0  0  0  0  0  0  0  0  0  0  0
   38.6490   29.9680   43.5290 H   0  0  0  0  0  0  0  0  0  0  0  0
   39.5430   29.9790   40.7780 S   0  0  0  0  0  0  0  0  0  0  0  0
   40.6570   29.2370   40.1630 O   0  0  0  0  0  0  0  0  0  0  0  0
   40.2050   30.8830   41.8480 O   0  0  0  0  0  0  0  0  0  0  0  0
   38.8500   31.1820   39.7060 C   0  0  1  0  0  3  0  0  0  0  0  0
   37.4250   31.5440   40.0730 C   0  0  0  0  0  3  0  0  0  0  0  0
   37.2760   31.3090   41.1380 H   0  0  0  0  0  0  0  0  0  0  0  0
   37.4270   33.0410   39.9280 C   0  0  0  0  0  3  0  0  0  0  0  0
   36.6910   33.3970   39.1760 H   0  0  0  0  0  0  0  0  0  0  0  0
   38.6680   33.4500   39.5170 O   0  0  0  0  0  0  0  0  0  0  0  0
   39.5320   32.4940   40.0580 C   0  0  0  0  0  3  0  0  0  0  0  0
   40.5310   32.5830   39.5800 H   0  0  0  0  0  0  0  0  0  0  0  0
   37.0420   29.0100   36.4500 C   0  0  0  0  0  0  0  0  0  0  0  0
   35.6390   29.1100   36.5460 C   0  0  0  0  0  0  0  0  0  0  0  0
   35.0150   28.7270   37.7040 C   0  0  0  0  0  0  0  0  0  0  0  0
   35.8090   28.2740   38.6870 N   0  0  0  0  0  0  0  0  0  0  0  0
   37.1260   28.1810   38.5960 C   0  0  0  0  0  0  0  0  0  0  0  0
   37.7450   28.5480   37.4780 N   0  0  0  0  0  0  0  0  0  0  0  0
   37.5350   29.3110   35.5360 H   0  0  0  0  0  0  0  0  0  0  0  0
   35.1460   29.4950   35.6710 H   0  0  0  0  0  0  0  0  0  0  0  0
   33.5650   28.8050   37.9130 C   0  0  0  0  0  0  0  0  0  0  0  0
   33.3450   29.7610   38.4080 H   0  0  0  0  0  0  0  0  0  0  0  0
   33.2780   27.9980   38.5850 H   0  0  0  0  0  0  0  0  0  0  0  0
   32.7860   28.7180   36.6340 C   0  0  0  0  0  0  0  0  0  0  0  0
   33.3430   28.4000   35.7530 H   0  0  0  0  0  0  0  0  0  0  0  0
   32.0500   27.8670   36.8090 H   0  0  0  0  0  0  0  0  0  0  0  0
   31.9570   29.8950   36.3720 C   0  0  0  0  0  3  0  0  0  0  0  0
   30.9460   30.5900   36.8800 C   0  0  0  0  0  3  0  0  0  0  0  0
   30.2410   31.7670   36.2320 C   0  0  0  0  0  0  0  0  0  0  0  0
   30.3770   32.6070   36.9160 H   0  0  0  0  0  0  0  0  0  0  0  0
   29.1680   31.4680   36.2000 H   0  0  0  0  0  0  0  0  0  0  0  0
   30.6400   31.9080   35.2280 H   0  0  0  0  0  0  0  0  0  0  0  0
  1  3  1  0  0  0  0
  2  7  1  0  0  0  0
  3  4  1  0  0  0  0
  3  2  2  0  0  0  0
  4  5  2  0  0  0  0
  5  9  1  0  0  0  0
  5  6  1  0  0  0  0
  6 10  1  0  0  0  0
  7 11  1  0  0  0  0
  7  6  2  0  0  0  0
  8  4  1  0  0  0  0
 12  2  1  0  0  0  0
 12 14  2  0  0  0  0
 13 12  2  0  0  0  0
 15 21  1  0  0  0  0
 15 16  1  0  0  0  0
 15 12  1  1  0  0  0
 16 17  1  0  0  0  0
 18 16  1  0  0  0  0
 19 18  1  0  0  0  0
 20 18  1  0  0  0  0
 20 21  1  0  0  0  0
 22 21  1  0  0  0  0
 23 24  2  0  0  0  0
 23 28  1  0  0  0  0
 24 25  1  0  0  0  0
 25 31  1  0  0  0  0
 25 26  2  0  0  0  0
 27 26  1  0  0  0  0
 27  1  1  0  0  0  0
 28 27  2  0  0  0  0
 29 23  1  0  0  0  0
 30 24  1  0  0  0  0
 31 32  1  0  0  0  0
 31 33  1  0  0  0  0
 34 36  1  0  0  0  0
 34 31  1  0  0  0  0
 35 34  1  0  0  0  0
 37 34  1  0  0  0  0
 37 38  2  0  0  0  0
 39 38  1  0  0  0  0
 39 40  1  0  0  0  0
 41 39  1  0  0  0  0
 42 39  1  0  0  0  0
M  END
>  <minimizedAffinity>
-5.33383799

$$$$

 OpenBabel03242517583D

 42 44  0  0  1  0  0  0  0  0999 V2000
   36.9740   27.1400   39.0280 O   0  0  0  0  0  0  0  0  0  0  0  0
   36.9300   28.7600   40.8760 C   0  0  0  0  0  0  0  0  0  0  0  0
   36.9780   27.5090   40.3640 C   0  0  0  0  0  0  0  0  0  0  0  0
   37.0320   26.4400   41.2370 C   0  0  0  0  0  0  0  0  0  0  0  0
   37.0380   26.5970   42.6030 C   0  0  0  0  0  0  0  0  0  0  0  0
   36.9890   27.8750   43.1190 C   0  0  0  0  0  0  0  0  0  0  0  0
   36.9340   28.9490   42.2430 C   0  0  0  0  0  0  0  0  0  0  0  0
   37.0730   25.4110   40.9160 H   0  0  0  0  0  0  0  0  0  0  0  0
   37.0810   25.7730   43.3030 H   0  0  0  0  0  0  0  0  0  0  0  0
   36.9900   28.0740   44.1790 H   0  0  0  0  0  0  0  0  0  0  0  0
   36.8940   29.9660   42.6290 H   0  0  0  0  0  0  0  0  0  0  0  0
   36.9910   30.0700   39.7400 S   0  0  0  0  0  0  0  0  0  0  0  0
   35.9750   30.0210   38.6750 O   0  0  0  0  0  0  0  0  0  0  0  0
   38.3480   29.9120   39.0090 O   0  0  0  0  0  0  0  0  0  0  0  0
   37.1720   31.6690   40.4390 C   0  0  1  0  0  3  0  0  0  0  0  0
   38.5750   31.9310   40.9510 C   0  0  0  0  0  3  0  0  0  0  0  0
   39.2640   31.2600   40.4160 H   0  0  0  0  0  0  0  0  0  0  0  0
   38.8330   33.3330   40.4730 C   0  0  0  0  0  3  0  0  0  0  0  0
   39.0400   34.0360   41.3070 H   0  0  0  0  0  0  0  0  0  0  0  0
   37.7250   33.7930   39.8110 O   0  0  0  0  0  0  0  0  0  0  0  0
   37.1560   32.6380   39.2690 C   0  0  0  0  0  3  0  0  0  0  0  0
   36.1220   32.8580   38.9270 H   0  0  0  0  0  0  0  0  0  0  0  0
   35.0210   24.5120   37.7200 C   0  0  0  0  0  0  0  0  0  0  0  0
   33.9900   25.2030   37.0520 C   0  0  0  0  0  0  0  0  0  0  0  0
   33.9820   26.5730   37.0620 C   0  0  0  0  0  0  0  0  0  0  0  0
   34.9850   27.1690   37.7250 N   0  0  0  0  0  0  0  0  0  0  0  0
   35.9520   26.5200   38.3530 C   0  0  0  0  0  0  0  0  0  0  0  0
   35.9720   25.1910   38.3520 N   0  0  0  0  0  0  0  0  0  0  0  0
   35.0280   23.4310   37.7130 H   0  0  0  0  0  0  0  0  0  0  0  0
   33.2610   24.5790   36.5650 H   0  0  0  0  0  0  0  0  0  0  0  0
   32.9660   27.3870   36.3860 C   0  0  0  0  0  0  0  0  0  0  0  0
   31.9840   27.1100   36.7920 H   0  0  0  0  0  0  0  0  0  0  0  0
   32.9820   27.1350   35.3260 H   0  0  0  0  0  0  0  0  0  0  0  0
   33.1810   28.8600   36.5720 C   0  0  0  0  0  0  0  0  0  0  0  0
   34.1370   29.1550   37.0050 H   0  0  0  0  0  0  0  0  0  0  0  0
   33.2270   29.2760   35.5130 H   0  0  0  0  0  0  0  0  0  0  0  0
   32.0520   29.5420   37.2040 C   0  0  0  0  0  3  0  0  0  0  0  0
   31.0290   30.3410   36.9230 C   0  0  0  0  0  3  0  0  0  0  0  0
   30.0690   30.9660   37.9180 C   0  0  0  0  0  0  0  0  0  0  0  0
   29.0790   30.5960   37.6470 H   0  0  0  0  0  0  0  0  0  0  0  0
   30.1380   32.0610   37.7220 H   0  0  0  0  0  0  0  0  0  0  0  0
   30.4020   30.7270   38.9270 H   0  0  0  0  0  0  0  0  0  0  0  0
  1  3  1  0  0  0  0
  2  7  1  0  0  0  0
  3  2  2  0  0  0  0
  3  4  1  0  0  0  0
  4  5  2  0  0  0  0
  5  6  1  0  0  0  0
  5  9  1  0  0  0  0
  6 10  1  0  0  0  0
  7 11  1  0  0  0  0
  7  6  2  0  0  0  0
  8  4  1  0  0  0  0
 12  2  1  0  0  0  0
 13 12  2  0  0  0  0
 14 12  2  0  0  0  0
 15 12  1  6  0  0  0
 15 16  1  0  0  0  0
 17 16  1  0  0  0  0
 18 16  1  0  0  0  0
 18 19  1  0  0  0  0
 20 18  1  0  0  0  0
 21 20  1  0  0  0  0
 21 15  1  0  0  0  0
 22 21  1  0  0  0  0
 23 28  1  0  0  0  0
 24 25  1  0  0  0  0
 24 23  2  0  0  0  0
 25 26  2  0  0  0  0
 26 27  1  0  0  0  0
 27  1  1  0  0  0  0
 28 27  2  0  0  0  0
 29 23  1  0  0  0  0
 30 24  1  0  0  0  0
 31 34  1  0  0  0  0
 31 32  1  0  0  0  0
 31 25  1  0  0  0  0
 33 31  1  0  0  0  0
 34 35  1  0  0  0  0
 34 37  1  0  0  0  0
 36 34  1  0  0  0  0
 38 37  2  0  0  0  0
 38 39  1  0  0  0  0
 39 42  1  0  0  0  0
 40 39  1  0  0  0  0
 41 39  1  0  0  0  0
M  END
>  <minimizedAffinity>
-5.17262602

$$$$

 OpenBabel03242517583D

 42 44  0  0  1  0  0  0  0  0999 V2000
   37.1060   28.9120   38.3670 O   0  0  0  0  0  0  0  0  0  0  0  0
   37.2970   30.3540   40.3480 C   0  0  0  0  0  0  0  0  0  0  0  0
   37.2190   30.1310   39.0160 C   0  0  0  0  0  0  0  0  0  0  0  0
   37.2610   31.2160   38.1620 C   0  0  0  0  0  0  0  0  0  0  0  0
   37.3780   32.5100   38.6110 C   0  0  0  0  0  0  0  0  0  0  0  0
   37.4570   32.7310   39.9710 C   0  0  0  0  0  0  0  0  0  0  0  0
   37.4160   31.6420   40.8290 C   0  0  0  0  0  0  0  0  0  0  0  0
   37.2050   31.1300   37.0880 H   0  0  0  0  0  0  0  0  0  0  0  0
   37.4120   33.3730   37.9580 H   0  0  0  0  0  0  0  0  0  0  0  0
   37.5510   33.7190   40.3940 H   0  0  0  0  0  0  0  0  0  0  0  0
   37.4770   31.7950   41.9050 H   0  0  0  0  0  0  0  0  0  0  0  0
   37.1130   28.9730   41.3820 S   0  0  0  0  0  0  0  0  0  0  0  0
   35.7640   28.3810   41.3990 O   0  0  0  0  0  0  0  0  0  0  0  0
   37.3360   29.5080   42.8190 O   0  0  0  0  0  0  0  0  0  0  0  0
   38.3860   27.7710   41.2710 C   0  0  1  0  0  3  0  0  0  0  0  0
   38.9720   27.4110   42.6220 C   0  0  0  0  0  3  0  0  0  0  0  0
   38.2230   27.6460   43.3930 H   0  0  0  0  0  0  0  0  0  0  0  0
   39.0860   25.9140   42.5320 C   0  0  0  0  0  3  0  0  0  0  0  0
   40.1320   25.5580   42.6510 H   0  0  0  0  0  0  0  0  0  0  0  0
   38.6480   25.5040   41.3010 O   0  0  0  0  0  0  0  0  0  0  0  0
   37.6900   26.4580   40.9510 C   0  0  0  0  0  3  0  0  0  0  0  0
   37.4530   26.3680   39.8690 H   0  0  0  0  0  0  0  0  0  0  0  0
   34.9630   26.4370   37.0590 C   0  0  0  0  0  0  0  0  0  0  0  0
   33.7380   27.1240   36.9450 C   0  0  0  0  0  0  0  0  0  0  0  0
   33.6670   28.4390   37.3230 C   0  0  0  0  0  0  0  0  0  0  0  0
   34.8020   28.9870   37.7860 N   0  0  0  0  0  0  0  0  0  0  0  0
   35.9510   28.3410   37.8930 C   0  0  0  0  0  0  0  0  0  0  0  0
   36.0340   27.0650   37.5300 N   0  0  0  0  0  0  0  0  0  0  0  0
   35.0200   25.3990   36.7600 H   0  0  0  0  0  0  0  0  0  0  0  0
   32.9220   26.5440   36.5530 H   0  0  0  0  0  0  0  0  0  0  0  0
   32.4480   29.2490   37.2310 C   0  0  0  0  0  0  0  0  0  0  0  0
   32.6260   30.1910   37.7670 H   0  0  0  0  0  0  0  0  0  0  0  0
   31.6480   28.7120   37.7390 H   0  0  0  0  0  0  0  0  0  0  0  0
   32.0530   29.5500   35.8150 C   0  0  0  0  0  0  0  0  0  0  0  0
   32.8710   29.7400   35.1190 H   0  0  0  0  0  0  0  0  0  0  0  0
   31.5980   28.5780   35.4360 H   0  0  0  0  0  0  0  0  0  0  0  0
   30.9850   30.5430   35.7030 C   0  0  0  0  0  3  0  0  0  0  0  0
   30.7890   31.8500   35.5720 C   0  0  0  0  0  3  0  0  0  0  0  0
   29.4540   32.5710   35.5990 C   0  0  0  0  0  0  0  0  0  0  0  0
   29.3660   33.0680   34.6310 H   0  0  0  0  0  0  0  0  0  0  0  0
   29.5590   33.3260   36.4110 H   0  0  0  0  0  0  0  0  0  0  0  0
   28.6690   31.8520   35.8320 H   0  0  0  0  0  0  0  0  0  0  0  0
  1  3  1  0  0  0  0
  2  7  1  0  0  0  0
  2 12  1  0  0  0  0
  3  2  2  0  0  0  0
  4  5  2  0  0  0  0
  4  3  1  0  0  0  0
  5  6  1  0  0  0  0
  6 10  1  0  0  0  0
  6  7  2  0  0  0  0
  7 11  1  0  0  0  0
  8  4  1  0  0  0  0
  9  5  1  0  0  0  0
 12 13  2  0  0  0  0
 12 14  2  0  0  0  0
 15 12  1  1  0  0  0
 15 16  1  0  0  0  0
 16 17  1  0  0  0  0
 18 16  1  0  0  0  0
 18 19  1  0  0  0  0
 20 18  1  0  0  0  0
 21 15  1  0  0  0  0
 21 20  1  0  0  0  0
 22 21  1  0  0  0  0
 23 28  1  0  0  0  0
 24 23  2  0  0  0  0
 24 25  1  0  0  0  0
 25 26  2  0  0  0  0
 26 27  1  0  0  0  0
 27  1  1  0  0  0  0
 28 27  2  0  0  0  0
 29 23  1  0  0  0  0
 30 24  1  0  0  0  0
 31 25  1  0  0  0  0
 31 33  1  0  0  0  0
 31 32  1  0  0  0  0
 34 31  1  0  0  0  0
 35 34  1  0  0  0  0
 36 34  1  0  0  0  0
 37 34  1  0  0  0  0
 38 39  1  0  0  0  0
 38 37  2  0  0  0  0
 39 42  1  0  0  0  0
 39 41  1  0  0  0  0
 40 39  1  0  0  0  0
M  END
>  <minimizedAffinity>
-5.16097736

$$$$

 OpenBabel03242517583D

 42 44  0  0  1  0  0  0  0  0999 V2000
   38.2750   31.6360   41.3980 O   0  0  0  0  0  0  0  0  0  0  0  0
   40.6100   32.1390   40.8190 C   0  0  0  0  0  0  0  0  0  0  0  0
   39.6460   31.5950   41.5960 C   0  0  0  0  0  0  0  0  0  0  0  0
   40.0240   30.9140   42.7370 C   0  0  0  0  0  0  0  0  0  0  0  0
   41.3380   30.7680   43.1130 C   0  0  0  0  0  0  0  0  0  0  0  0
   42.3170   31.3250   42.3170 C   0  0  0  0  0  0  0  0  0  0  0  0
   41.9380   32.0090   41.1720 C   0  0  0  0  0  0  0  0  0  0  0  0
   39.3220   30.4500   43.4130 H   0  0  0  0  0  0  0  0  0  0  0  0
   41.6540   30.2380   44.0020 H   0  0  0  0  0  0  0  0  0  0  0  0
   43.3670   31.2500   42.5500 H   0  0  0  0  0  0  0  0  0  0  0  0
   42.6950   32.4570   40.5300 H   0  0  0  0  0  0  0  0  0  0  0  0
   40.0940   32.8730   39.3350 S   0  0  0  0  0  0  0  0  0  0  0  0
   40.8630   34.0600   38.9240 O   0  0  0  0  0  0  0  0  0  0  0  0
   38.6640   33.3980   39.6170 O   0  0  0  0  0  0  0  0  0  0  0  0
   39.7880   31.7650   38.0090 C   0  0  1  0  0  3  0  0  0  0  0  0
   40.0370   30.3180   38.3850 C   0  0  0  0  0  3  0  0  0  0  0  0
   39.9460   30.2290   39.4780 H   0  0  0  0  0  0  0  0  0  0  0  0
   38.8580   29.6190   37.7660 C   0  0  0  0  0  3  0  0  0  0  0  0
   39.1600   28.8550   37.0190 H   0  0  0  0  0  0  0  0  0  0  0  0
   38.0790   30.5420   37.1190 O   0  0  0  0  0  0  0  0  0  0  0  0
   38.2780   31.7180   37.8480 C   0  0  0  0  0  3  0  0  0  0  0  0
   37.8960   32.5840   37.2660 H   0  0  0  0  0  0  0  0  0  0  0  0
   35.6490   29.6020   40.2160 C   0  0  0  0  0  0  0  0  0  0  0  0
   35.7050   28.4960   41.0890 C   0  0  0  0  0  0  0  0  0  0  0  0
   36.6530   28.4660   42.0780 C   0  0  0  0  0  0  0  0  0  0  0  0
   37.4790   29.5230   42.1420 N   0  0  0  0  0  0  0  0  0  0  0  0
   37.4260   30.5610   41.3220 C   0  0  0  0  0  0  0  0  0  0  0  0
   36.5110   30.6020   40.3580 N   0  0  0  0  0  0  0  0  0  0  0  0
   34.9010   29.6250   39.4360 H   0  0  0  0  0  0  0  0  0  0  0  0
   34.9700   27.7310   40.9070 H   0  0  0  0  0  0  0  0  0  0  0  0
   36.7870   27.3730   43.0460 C   0  0  0  0  0  0  0  0  0  0  0  0
   35.7990   26.9100   43.1740 H   0  0  0  0  0  0  0  0  0  0  0  0
   37.0890   27.8040   44.0000 H   0  0  0  0  0  0  0  0  0  0  0  0
   37.7730   26.3280   42.6140 C   0  0  0  0  0  0  0  0  0  0  0  0
   37.4500   25.2920   42.7170 H   0  0  0  0  0  0  0  0  0  0  0  0
   37.8600   26.4710   41.4870 H   0  0  0  0  0  0  0  0  0  0  0  0
   39.1220   26.5450   43.1330 C   0  0  0  0  0  3  0  0  0  0  0  0
   40.2190   27.2620   42.9170 C   0  0  0  0  0  3  0  0  0  0  0  0
   41.5440   27.1310   43.6440 C   0  0  0  0  0  0  0  0  0  0  0  0
   41.7240   28.1020   44.1080 H   0  0  0  0  0  0  0  0  0  0  0  0
   42.2890   26.9470   42.8360 H   0  0  0  0  0  0  0  0  0  0  0  0
   41.4890   26.2840   44.3270 H   0  0  0  0  0  0  0  0  0  0  0  0
  1  3  1  0  0  0  0
  2  7  2  0  0  0  0
  2  3  1  0  0  0  0
  3  4  2  0  0  0  0
  4  5  1  0  0  0  0
  4  8  1  0  0  0  0
  5  9  1  0  0  0  0
  6 10  1  0  0  0  0
  6  5  2  0  0  0  0
  7  6  1  0  0  0  0
 11  7  1  0  0  0  0
 12 14  2  0  0  0  0
 12  2  1  0  0  0  0
 13 12  2  0  0  0  0
 15 16  1  0  0  0  0
 15 12  1  1  0  0  0
 16 17  1  0  0  0  0
 18 16  1  0  0  0  0
 19 18  1  0  0  0  0
 20 18  1  0  0  0  0
 20 21  1  0  0  0  0
 21 15  1  0  0  0  0
 22 21  1  0  0  0  0
 23 28  2  0  0  0  0
 23 24  1  0  0  0  0
 24 25  2  0  0  0  0
 25 26  1  0  0  0  0
 25 31  1  0  0  0  0
 27  1  1  0  0  0  0
 27 26  2  0  0  0  0
 28 27  1  0  0  0  0
 29 23  1  0  0  0  0
 30 24  1  0  0  0  0
 31 32  1  0  0  0  0
 31 33  1  0  0  0  0
 34 35  1  0  0  0  0
 34 31  1  0  0  0  0
 34 37  1  0  0  0  0
 36 34  1  0  0  0  0
 38 37  2  0  0  0  0
 38 39  1  0  0  0  0
 39 40  1  0  0  0  0
 39 42  1  0  0  0  0
 41 39  1  0  0  0  0
M  END
>  <minimizedAffinity>
-5.15911388

$$$$

 OpenBabel03242517583D

 42 44  0  0  1  0  0  0  0  0999 V2000
   39.2460   29.7660   40.5050 O   0  0  0  0  0  0  0  0  0  0  0  0
   39.6620   32.1880   40.4380 C   0  0  0  0  0  0  0  0  0  0  0  0
   38.8900   31.0880   40.2870 C   0  0  0  0  0  0  0  0  0  0  0  0
   37.5860   31.2500   39.8600 C   0  0  0  0  0  0  0  0  0  0  0  0
   37.0440   32.4830   39.5830 C   0  0  0  0  0  0  0  0  0  0  0  0
   37.8370   33.6010   39.7390 C   0  0  0  0  0  0  0  0  0  0  0  0
   39.1470   33.4380   40.1660 C   0  0  0  0  0  0  0  0  0  0  0  0
   36.9010   30.4290   39.7130 H   0  0  0  0  0  0  0  0  0  0  0  0
   36.0260   32.6310   39.2490 H   0  0  0  0  0  0  0  0  0  0  0  0
   37.4790   34.5990   39.5390 H   0  0  0  0  0  0  0  0  0  0  0  0
   39.7890   34.3070   40.2950 H   0  0  0  0  0  0  0  0  0  0  0  0
   41.2490   31.9420   41.0950 S   0  0  0  0  0  0  0  0  0  0  0  0
   41.2810   31.4210   42.4730 O   0  0  0  0  0  0  0  0  0  0  0  0
   41.8750   33.3560   41.1860 O   0  0  0  0  0  0  0  0  0  0  0  0
   42.3910   31.1370   40.0350 C   0  0  1  0  0  3  0  0  0  0  0  0
   42.0590   31.3220   38.5670 C   0  0  0  0  0  3  0  0  0  0  0  0
   41.4500   32.2330   38.4670 H   0  0  0  0  0  0  0  0  0  0  0  0
   43.4090   31.6010   37.9660 C   0  0  0  0  0  3  0  0  0  0  0  0
   43.6940   30.8550   37.1930 H   0  0  0  0  0  0  0  0  0  0  0  0
   44.3570   31.5550   38.9530 O   0  0  0  0  0  0  0  0  0  0  0  0
   43.6680   31.9590   40.0990 C   0  0  0  0  0  3  0  0  0  0  0  0
   44.2710   31.7180   41.0010 H   0  0  0  0  0  0  0  0  0  0  0  0
   37.8170   28.8060   43.5820 C   0  0  0  0  0  0  0  0  0  0  0  0
   37.7860   27.4000   43.4770 C   0  0  0  0  0  0  0  0  0  0  0  0
   38.2590   26.8000   42.3410 C   0  0  0  0  0  0  0  0  0  0  0  0
   38.7320   27.6190   41.3870 N   0  0  0  0  0  0  0  0  0  0  0  0
   38.7610   28.9380   41.4860 C   0  0  0  0  0  0  0  0  0  0  0  0
   38.3040   29.5340   42.5830 N   0  0  0  0  0  0  0  0  0  0  0  0
   37.4430   29.2810   44.4790 H   0  0  0  0  0  0  0  0  0  0  0  0
   37.3790   26.8860   44.3300 H   0  0  0  0  0  0  0  0  0  0  0  0
   38.2870   25.3480   42.1370 C   0  0  0  0  0  0  0  0  0  0  0  0
   38.8460   24.8990   42.9690 H   0  0  0  0  0  0  0  0  0  0  0  0
   38.8290   25.1480   41.2130 H   0  0  0  0  0  0  0  0  0  0  0  0
   36.9160   24.7410   42.0760 C   0  0  0  0  0  0  0  0  0  0  0  0
   36.5880   24.2070   42.9680 H   0  0  0  0  0  0  0  0  0  0  0  0
   36.2130   25.6360   42.0260 H   0  0  0  0  0  0  0  0  0  0  0  0
   36.6630   23.9850   40.8500 C   0  0  0  0  0  3  0  0  0  0  0  0
   35.6820   23.6310   40.0290 C   0  0  0  0  0  3  0  0  0  0  0  0
   35.7900   22.6920   38.8420 C   0  0  0  0  0  0  0  0  0  0  0  0
   35.4980   23.2820   37.9710 H   0  0  0  0  0  0  0  0  0  0  0  0
   35.0320   21.9000   39.0410 H   0  0  0  0  0  0  0  0  0  0  0  0
   36.7950   22.2750   38.8120 H   0  0  0  0  0  0  0  0  0  0  0  0
  1 27  1  0  0  0  0
  2 12  1  0  0  0  0
  3  2  1  0  0  0  0
  3  1  1  0  0  0  0
  4  3  2  0  0  0  0
  5  6  2  0  0  0  0
  5  4  1  0  0  0  0
  6  7  1  0  0  0  0
  7 11  1  0  0  0  0
  7  2  2  0  0  0  0
  8  4  1  0  0  0  0
  9  5  1  0  0  0  0
 10  6  1  0  0  0  0
 12 14  2  0  0  0  0
 12 13  2  0  0  0  0
 15 21  1  0  0  0  0
 15 12  1  1  0  0  0
 16 15  1  0  0  0  0
 17 16  1  0  0  0  0
 18 16  1  0  0  0  0
 18 20  1  0  0  0  0
 19 18  1  0  0  0  0
 20 21  1  0  0  0  0
 21 22  1  0  0  0  0
 23 29  1  0  0  0  0
 24 23  1  0  0  0  0
 24 30  1  0  0  0  0
 25 24  2  0  0  0  0
 26 27  2  0  0  0  0
 26 25  1  0  0  0  0
 27 28  1  0  0  0  0
 28 23  2  0  0  0  0
 31 25  1  0  0  0  0
 31 32  1  0  0  0  0
 33 31  1  0  0  0  0
 34 31  1  0  0  0  0
 34 35  1  0  0  0  0
 36 34  1  0  0  0  0
 37 34  1  0  0  0  0
 38 37  2  0  0  0  0
 39 41  1  0  0  0  0
 39 38  1  0  0  0  0
 40 39  1  0  0  0  0
 42 39  1  0  0  0  0
M  END
>  <minimizedAffinity>
-5.13515902

$$$$
