
 OpenBabel03242513203D

 22 23  0  0  1  0  0  0  0  0999 V2000
   47.4060   32.0070   44.0760 C   0  0  0  0  0  0  0  0  0  0  0  0
   46.4960   32.0230   45.0150 C   0  0  0  0  0  0  0  0  0  0  0  0
   47.0780   35.1630   42.2470 C   0  0  0  0  0  0  0  0  0  0  0  0
   48.4260   35.4110   41.8390 C   0  0  0  0  0  0  0  0  0  0  0  0
   49.3930   34.4680   42.2190 C   0  0  0  0  0  0  0  0  0  0  0  0
   49.0100   33.3790   42.9450 N   0  0  0  0  0  0  0  0  0  0  0  0
   47.7030   33.1970   43.3060 C   0  0  0  0  0  0  0  0  0  0  0  0
   46.7570   34.0630   42.9670 N   0  0  0  0  0  0  0  0  0  0  0  0
   46.3930   35.9190   41.9240 H   0  0  0  0  0  0  0  0  0  0  0  0
   48.6880   36.2730   41.2710 H   0  0  0  0  0  0  0  0  0  0  0  0
   50.4250   34.5970   41.9440 H   0  0  0  0  0  0  0  0  0  0  0  0
   46.1820   30.8010   45.8160 C   0  0  0  0  0  0  0  0  0  0  0  0
   45.1710   30.4160   45.6130 H   0  0  0  0  0  0  0  0  0  0  0  0
   46.9150   30.0380   45.5560 H   0  0  0  0  0  0  0  0  0  0  0  0
   46.2830   31.0330   47.2900 C   0  0  2  0  0  0  0  0  0  0  0  0
   45.0230   30.6180   48.0460 C   0  0  0  0  0  0  0  0  0  0  0  0
   44.1550   31.1290   47.6440 H   0  0  0  0  0  0  0  0  0  0  0  0
   45.3790   31.3150   49.3670 C   0  0  0  0  0  0  0  0  0  0  0  0
   46.2760   30.7470   49.7250 H   0  0  0  0  0  0  0  0  0  0  0  0
   45.8270   32.5640   48.9770 O   0  0  0  0  0  0  0  0  0  0  0  0
   46.3800   32.4560   47.7170 C   0  0  0  0  0  0  0  0  0  0  0  0
   45.9290   33.1840   47.0200 H   0  0  0  0  0  0  0  0  0  0  0  0
  1  2  2  0  0  0  0
  2 12  1  0  0  0  0
  3  8  1  0  0  0  0
  4  5  1  0  0  0  0
  4  3  2  0  0  0  0
  5  6  2  0  0  0  0
  6  7  1  0  0  0  0
  7  1  1  0  0  0  0
  8  7  2  0  0  0  0
  9  3  1  0  0  0  0
 10  4  1  0  0  0  0
 11  5  1  0  0  0  0
 13 12  1  0  0  0  0
 14 12  1  0  0  0  0
 15 12  1  6  0  0  0
 15 21  1  0  0  0  0
 15 16  1  0  0  0  0
 16 18  1  0  0  0  0
 17 16  1  0  0  0  0
 18 19  1  0  0  0  0
 20 18  1  0  0  0  0
 21 20  1  0  0  0  0
 22 21  1  0  0  0  0
M  END
>  <minimizedAffinity>
-3.93317461

>  <minimizedRMSD>
3.29785347

$$$$
