
 OpenBabel03242517143D

 22 23  0  0  1  0  0  0  0  0999 V2000
   37.2320   30.1700   40.4250 C   0  0  0  0  0  3  0  0  0  0  0  0
   36.6860   29.6030   41.4770 C   0  0  0  0  0  3  0  0  0  0  0  0
   38.8250   32.0100   41.0060 C   0  0  0  0  0  0  0  0  0  0  0  0
   37.6690   31.5550   40.3340 C   0  0  0  0  0  0  0  0  0  0  0  0
   36.9440   32.4690   39.5720 C   0  0  0  0  0  0  0  0  0  0  0  0
   37.3950   33.7690   39.5160 N   0  0  0  0  0  0  0  0  0  0  0  0
   38.4980   34.1610   40.1680 C   0  0  0  0  0  0  0  0  0  0  0  0
   39.1940   33.2790   40.9010 N   0  0  0  0  0  0  0  0  0  0  0  0
   39.4080   31.3130   41.6080 H   0  0  0  0  0  0  0  0  0  0  0  0
   36.0530   32.1850   39.0350 H   0  0  0  0  0  0  0  0  0  0  0  0
   38.7940   35.2060   40.0760 H   0  0  0  0  0  0  0  0  0  0  0  0
   36.2600   28.1750   41.5020 C   0  0  0  0  0  0  0  0  0  0  0  0
   36.8270   27.6680   40.6790 H   0  0  0  0  0  0  0  0  0  0  0  0
   35.2070   28.0240   41.2700 H   0  0  0  0  0  0  0  0  0  0  0  0
   36.6910   27.4930   42.7830 C   0  0  1  0  0  3  0  0  0  0  0  0
   37.0640   26.0440   42.5510 C   0  0  0  0  0  3  0  0  0  0  0  0
   36.6150   25.3720   43.2990 H   0  0  0  0  0  0  0  0  0  0  0  0
   38.5770   26.0770   42.6340 C   0  0  0  0  0  3  0  0  0  0  0  0
   39.0650   25.4390   41.8980 H   0  0  0  0  0  0  0  0  0  0  0  0
   38.9200   27.4330   42.4210 O   0  0  0  0  0  0  0  0  0  0  0  0
   37.9940   28.0890   43.2440 C   0  0  0  0  0  3  0  0  0  0  0  0
   38.2030   27.8600   44.3040 H   0  0  0  0  0  0  0  0  0  0  0  0
  1  2  2  0  0  0  0
  2 12  1  0  0  0  0
  3  9  1  0  0  0  0
  4  1  1  0  0  0  0
  4  3  2  0  0  0  0
  5  4  1  0  0  0  0
  6  5  2  0  0  0  0
  6  7  1  0  0  0  0
  7  8  2  0  0  0  0
  8  3  1  0  0  0  0
 10  5  1  0  0  0  0
 11  7  1  0  0  0  0
 13 12  1  0  0  0  0
 14 12  1  0  0  0  0
 15 12  1  6  0  0  0
 15 21  1  0  0  0  0
 16 18  1  0  0  0  0
 16 15  1  0  0  0  0
 16 17  1  0  0  0  0
 19 18  1  0  0  0  0
 20 18  1  0  0  0  0
 20 21  1  0  0  0  0
 21 22  1  0  0  0  0
M  END
>  <minimizedAffinity>
-4.1213131

$$$$

 OpenBabel03242517143D

 22 23  0  0  1  0  0  0  0  0999 V2000
   38.6580   29.5520   42.0540 C   0  0  0  0  0  3  0  0  0  0  0  0
   37.8360   28.8990   42.8430 C   0  0  0  0  0  3  0  0  0  0  0  0
   37.1680   31.0060   40.6650 C   0  0  0  0  0  0  0  0  0  0  0  0
   38.3720   30.8080   41.3770 C   0  0  0  0  0  0  0  0  0  0  0  0
   39.2950   31.8510   41.4180 C   0  0  0  0  0  0  0  0  0  0  0  0
   38.9830   33.0210   40.7620 N   0  0  0  0  0  0  0  0  0  0  0  0
   37.8280   33.1690   40.0980 C   0  0  0  0  0  0  0  0  0  0  0  0
   36.9410   32.1630   40.0590 N   0  0  0  0  0  0  0  0  0  0  0  0
   36.4310   30.2050   40.6190 H   0  0  0  0  0  0  0  0  0  0  0  0
   40.2330   31.7630   41.9440 H   0  0  0  0  0  0  0  0  0  0  0  0
   37.6500   34.1230   39.6030 H   0  0  0  0  0  0  0  0  0  0  0  0
   38.1940   27.6140   43.5060 C   0  0  0  0  0  0  0  0  0  0  0  0
   37.2970   26.9510   43.4030 H   0  0  0  0  0  0  0  0  0  0  0  0
   38.3720   27.7030   44.5770 H   0  0  0  0  0  0  0  0  0  0  0  0
   39.3160   26.9100   42.7740 C   0  0  1  0  0  3  0  0  0  0  0  0
   40.0670   25.9560   43.6790 C   0  0  0  0  0  3  0  0  0  0  0  0
   41.1590   26.0600   43.5830 H   0  0  0  0  0  0  0  0  0  0  0  0
   39.5700   24.6020   43.2140 C   0  0  0  0  0  3  0  0  0  0  0  0
   39.3970   23.9000   44.0290 H   0  0  0  0  0  0  0  0  0  0  0  0
   38.3620   24.8770   42.5310 O   0  0  0  0  0  0  0  0  0  0  0  0
   38.7280   25.9800   41.7470 C   0  0  0  0  0  3  0  0  0  0  0  0
   39.4710   25.6740   40.9900 H   0  0  0  0  0  0  0  0  0  0  0  0
  1  2  2  0  0  0  0
  2 12  1  0  0  0  0
  3  4  1  0  0  0  0
  4  5  2  0  0  0  0
  4  1  1  0  0  0  0
  5 10  1  0  0  0  0
  6  5  1  0  0  0  0
  7  6  2  0  0  0  0
  8  7  1  0  0  0  0
  8  3  2  0  0  0  0
  9  3  1  0  0  0  0
 11  7  1  0  0  0  0
 12 14  1  0  0  0  0
 13 12  1  0  0  0  0
 15 12  1  1  0  0  0
 15 16  1  0  0  0  0
 17 16  1  0  0  0  0
 18 16  1  0  0  0  0
 18 19  1  0  0  0  0
 20 18  1  0  0  0  0
 21 20  1  0  0  0  0
 21 15  1  0  0  0  0
 22 21  1  0  0  0  0
M  END
>  <minimizedAffinity>
-3.98171806

$$$$

 OpenBabel03242517143D

 22 23  0  0  1  0  0  0  0  0999 V2000
   36.9510   29.1510   41.7010 C   0  0  0  0  0  3  0  0  0  0  0  0
   37.5760   28.1670   42.3080 C   0  0  0  0  0  3  0  0  0  0  0  0
   38.8560   30.7730   41.6970 C   0  0  0  0  0  0  0  0  0  0  0  0
   37.5330   30.4330   41.3360 C   0  0  0  0  0  0  0  0  0  0  0  0
   36.7850   31.3610   40.6150 C   0  0  0  0  0  0  0  0  0  0  0  0
   37.3760   32.5620   40.2920 N   0  0  0  0  0  0  0  0  0  0  0  0
   38.6350   32.8470   40.6540 C   0  0  0  0  0  0  0  0  0  0  0  0
   39.3530   31.9520   41.3480 N   0  0  0  0  0  0  0  0  0  0  0  0
   39.4600   30.0640   42.2610 H   0  0  0  0  0  0  0  0  0  0  0  0
   35.7690   31.1620   40.3090 H   0  0  0  0  0  0  0  0  0  0  0  0
   39.0360   33.8170   40.3620 H   0  0  0  0  0  0  0  0  0  0  0  0
   36.9170   26.8760   42.6530 C   0  0  0  0  0  0  0  0  0  0  0  0
   35.9430   26.8670   42.1010 H   0  0  0  0  0  0  0  0  0  0  0  0
   36.6590   26.7790   43.7070 H   0  0  0  0  0  0  0  0  0  0  0  0
   37.7040   25.6960   42.1240 C   0  0  1  0  0  3  0  0  0  0  0  0
   36.8820   24.4240   42.1290 C   0  0  0  0  0  3  0  0  0  0  0  0
   37.4370   23.5690   42.5470 H   0  0  0  0  0  0  0  0  0  0  0  0
   36.5520   24.2400   40.6610 C   0  0  0  0  0  3  0  0  0  0  0  0
   35.5350   23.8920   40.4860 H   0  0  0  0  0  0  0  0  0  0  0  0
   36.7470   25.5170   40.0850 O   0  0  0  0  0  0  0  0  0  0  0  0
   37.9690   25.8990   40.6560 C   0  0  0  0  0  3  0  0  0  0  0  0
   38.7780   25.2470   40.2860 H   0  0  0  0  0  0  0  0  0  0  0  0
  1  2  2  0  0  0  0
  2 12  1  0  0  0  0
  3  9  1  0  0  0  0
  4  3  2  0  0  0  0
  4  1  1  0  0  0  0
  5  4  1  0  0  0  0
  6  5  2  0  0  0  0
  6  7  1  0  0  0  0
  7  8  2  0  0  0  0
  8  3  1  0  0  0  0
 10  5  1  0  0  0  0
 11  7  1  0  0  0  0
 12 14  1  0  0  0  0
 13 12  1  0  0  0  0
 15 16  1  0  0  0  0
 15 12  1  6  0  0  0
 16 17  1  0  0  0  0
 18 16  1  0  0  0  0
 19 18  1  0  0  0  0
 20 21  1  0  0  0  0
 20 18  1  0  0  0  0
 21 15  1  0  0  0  0
 22 21  1  0  0  0  0
M  END
>  <minimizedAffinity>
-3.9737134

$$$$

 OpenBabel03242517143D

 22 23  0  0  1  0  0  0  0  0999 V2000
   39.3350   30.1930   41.1610 C   0  0  0  0  0  3  0  0  0  0  0  0
   39.3320   29.7080   42.3820 C   0  0  0  0  0  3  0  0  0  0  0  0
   39.7250   32.6550   40.9510 C   0  0  0  0  0  0  0  0  0  0  0  0
   38.8970   31.5250   40.7720 C   0  0  0  0  0  0  0  0  0  0  0  0
   37.6370   31.7110   40.2100 C   0  0  0  0  0  0  0  0  0  0  0  0
   37.2650   32.9900   39.8580 N   0  0  0  0  0  0  0  0  0  0  0  0
   38.0810   34.0370   40.0440 C   0  0  0  0  0  0  0  0  0  0  0  0
   39.2940   33.8550   40.5860 N   0  0  0  0  0  0  0  0  0  0  0  0
   40.7150   32.5350   41.3890 H   0  0  0  0  0  0  0  0  0  0  0  0
   36.9570   30.8890   40.0460 H   0  0  0  0  0  0  0  0  0  0  0  0
   37.7180   35.0190   39.7400 H   0  0  0  0  0  0  0  0  0  0  0  0
   39.7950   28.3300   42.7110 C   0  0  0  0  0  0  0  0  0  0  0  0
   40.6990   28.4540   43.3600 H   0  0  0  0  0  0  0  0  0  0  0  0
   40.1290   27.7580   41.8460 H   0  0  0  0  0  0  0  0  0  0  0  0
   38.7770   27.5930   43.5540 C   0  0  1  0  0  3  0  0  0  0  0  0
   37.4820   28.3680   43.6790 C   0  0  0  0  0  3  0  0  0  0  0  0
   37.1140   28.4030   44.7160 H   0  0  0  0  0  0  0  0  0  0  0  0
   36.5520   27.6030   42.7590 C   0  0  0  0  0  3  0  0  0  0  0  0
   35.8940   28.2460   42.1750 H   0  0  0  0  0  0  0  0  0  0  0  0
   37.4100   26.8670   41.9080 O   0  0  0  0  0  0  0  0  0  0  0  0
   38.3380   26.3520   42.8240 C   0  0  0  0  0  3  0  0  0  0  0  0
   37.8430   25.6280   43.4950 H   0  0  0  0  0  0  0  0  0  0  0  0
  1  2  2  0  0  0  0
  2 12  1  0  0  0  0
  3  9  1  0  0  0  0
  4  3  1  0  0  0  0
  4  1  1  0  0  0  0
  5  4  2  0  0  0  0
  6  7  2  0  0  0  0
  6  5  1  0  0  0  0
  7  8  1  0  0  0  0
  8  3  2  0  0  0  0
 10  5  1  0  0  0  0
 11  7  1  0  0  0  0
 12 13  1  0  0  0  0
 14 12  1  0  0  0  0
 15 12  1  6  0  0  0
 15 16  1  0  0  0  0
 16 17  1  0  0  0  0
 18 16  1  0  0  0  0
 19 18  1  0  0  0  0
 20 18  1  0  0  0  0
 20 21  1  0  0  0  0
 21 22  1  0  0  0  0
 21 15  1  0  0  0  0
M  END
>  <minimizedAffinity>
-3.96493721

$$$$

 OpenBabel03242517143D

 22 23  0  0  1  0  0  0  0  0999 V2000
   39.4800   30.2020   42.4170 C   0  0  0  0  0  3  0  0  0  0  0  0
   38.2700   29.7300   42.6190 C   0  0  0  0  0  3  0  0  0  0  0  0
   38.8120   32.1970   41.0630 C   0  0  0  0  0  0  0  0  0  0  0  0
   39.8130   31.4040   41.6680 C   0  0  0  0  0  0  0  0  0  0  0  0
   41.1420   31.7980   41.5310 C   0  0  0  0  0  0  0  0  0  0  0  0
   41.4090   32.9410   40.8120 N   0  0  0  0  0  0  0  0  0  0  0  0
   40.4310   33.6670   40.2540 C   0  0  0  0  0  0  0  0  0  0  0  0
   39.1520   33.2850   40.3860 N   0  0  0  0  0  0  0  0  0  0  0  0
   37.7660   31.9080   41.1560 H   0  0  0  0  0  0  0  0  0  0  0  0
   41.9520   31.2360   41.9690 H   0  0  0  0  0  0  0  0  0  0  0  0
   40.7190   34.5610   39.7000 H   0  0  0  0  0  0  0  0  0  0  0  0
   38.0000   28.4900   43.3990 C   0  0  0  0  0  0  0  0  0  0  0  0
   37.7420   28.8250   44.4360 H   0  0  0  0  0  0  0  0  0  0  0  0
   38.8660   27.8390   43.5070 H   0  0  0  0  0  0  0  0  0  0  0  0
   36.7750   27.7680   42.8800 C   0  0  1  0  0  3  0  0  0  0  0  0
   36.3280   28.3110   41.5390 C   0  0  0  0  0  3  0  0  0  0  0  0
   35.2420   28.4880   41.5000 H   0  0  0  0  0  0  0  0  0  0  0  0
   36.7740   27.2240   40.5800 C   0  0  0  0  0  3  0  0  0  0  0  0
   37.1840   27.6100   39.6480 H   0  0  0  0  0  0  0  0  0  0  0  0
   37.7560   26.4970   41.2910 O   0  0  0  0  0  0  0  0  0  0  0  0
   37.1440   26.3490   42.5440 C   0  0  0  0  0  3  0  0  0  0  0  0
   36.2570   25.6980   42.4550 H   0  0  0  0  0  0  0  0  0  0  0  0
  1  2  2  0  0  0  0
  2 12  1  0  0  0  0
  3  9  1  0  0  0  0
  3  4  1  0  0  0  0
  4  1  1  0  0  0  0
  5  4  2  0  0  0  0
  5 10  1  0  0  0  0
  6  5  1  0  0  0  0
  7  8  1  0  0  0  0
  7  6  2  0  0  0  0
  8  3  2  0  0  0  0
 11  7  1  0  0  0  0
 12 14  1  0  0  0  0
 12 13  1  0  0  0  0
 15 12  1  6  0  0  0
 16 15  1  0  0  0  0
 17 16  1  0  0  0  0
 18 20  1  0  0  0  0
 18 16  1  0  0  0  0
 19 18  1  0  0  0  0
 20 21  1  0  0  0  0
 21 15  1  0  0  0  0
 22 21  1  0  0  0  0
M  END
>  <minimizedAffinity>
-3.92238832

$$$$

 OpenBabel03242517143D

 22 23  0  0  1  0  0  0  0  0999 V2000
   36.6450   29.0960   41.4320 C   0  0  0  0  0  3  0  0  0  0  0  0
   36.9510   29.9470   40.4790 C   0  0  0  0  0  3  0  0  0  0  0  0
   36.8270   26.9650   40.1340 C   0  0  0  0  0  0  0  0  0  0  0  0
   36.8060   27.6510   41.3680 C   0  0  0  0  0  0  0  0  0  0  0  0
   36.9420   26.9100   42.5400 C   0  0  0  0  0  0  0  0  0  0  0  0
   37.0900   25.5450   42.4310 N   0  0  0  0  0  0  0  0  0  0  0  0
   37.1060   24.9310   41.2400 C   0  0  0  0  0  0  0  0  0  0  0  0
   36.9740   25.6470   40.1140 N   0  0  0  0  0  0  0  0  0  0  0  0
   36.7220   27.5230   39.2040 H   0  0  0  0  0  0  0  0  0  0  0  0
   36.9330   27.3750   43.5140 H   0  0  0  0  0  0  0  0  0  0  0  0
   37.2280   23.8480   41.2330 H   0  0  0  0  0  0  0  0  0  0  0  0
   36.7600   31.4190   40.6110 C   0  0  0  0  0  0  0  0  0  0  0  0
   37.1870   31.6990   41.6080 H   0  0  0  0  0  0  0  0  0  0  0  0
   35.7160   31.7280   40.6410 H   0  0  0  0  0  0  0  0  0  0  0  0
   37.5750   32.1760   39.5840 C   0  0  1  0  0  3  0  0  0  0  0  0
   37.3480   33.6700   39.6750 C   0  0  0  0  0  3  0  0  0  0  0  0
   37.1790   34.1280   38.6880 H   0  0  0  0  0  0  0  0  0  0  0  0
   38.6240   34.1570   40.3310 C   0  0  0  0  0  3  0  0  0  0  0  0
   38.4610   34.9420   41.0680 H   0  0  0  0  0  0  0  0  0  0  0  0
   39.1770   33.0070   40.9430 O   0  0  0  0  0  0  0  0  0  0  0  0
   39.0350   32.0520   39.9260 C   0  0  0  0  0  3  0  0  0  0  0  0
   39.6850   32.3130   39.0720 H   0  0  0  0  0  0  0  0  0  0  0  0
  2 12  1  0  0  0  0
  2  1  2  0  0  0  0
  3  4  1  0  0  0  0
  4  1  1  0  0  0  0
  4  5  2  0  0  0  0
  5 10  1  0  0  0  0
  6  5  1  0  0  0  0
  7  6  2  0  0  0  0
  8  3  2  0  0  0  0
  8  7  1  0  0  0  0
  9  3  1  0  0  0  0
 11  7  1  0  0  0  0
 12 14  1  0  0  0  0
 12 13  1  0  0  0  0
 15 16  1  0  0  0  0
 15 21  1  0  0  0  0
 15 12  1  1  0  0  0
 16 18  1  0  0  0  0
 17 16  1  0  0  0  0
 18 20  1  0  0  0  0
 18 19  1  0  0  0  0
 21 20  1  0  0  0  0
 22 21  1  0  0  0  0
M  END
>  <minimizedAffinity>
-3.90585256

$$$$

 OpenBabel03242517143D

 22 23  0  0  1  0  0  0  0  0999 V2000
   37.4670   27.7700   41.8880 C   0  0  0  0  0  3  0  0  0  0  0  0
   37.8020   29.0270   42.0760 C   0  0  0  0  0  3  0  0  0  0  0  0
   39.2560   26.7280   43.2920 C   0  0  0  0  0  0  0  0  0  0  0  0
   38.2200   26.6100   42.3390 C   0  0  0  0  0  0  0  0  0  0  0  0
   37.9290   25.3460   41.8310 C   0  0  0  0  0  0  0  0  0  0  0  0
   38.6690   24.2770   42.2860 N   0  0  0  0  0  0  0  0  0  0  0  0
   39.6440   24.4300   43.1920 C   0  0  0  0  0  0  0  0  0  0  0  0
   39.9220   25.6490   43.6800 N   0  0  0  0  0  0  0  0  0  0  0  0
   39.5010   27.7060   43.7040 H   0  0  0  0  0  0  0  0  0  0  0  0
   37.1510   25.1890   41.1000 H   0  0  0  0  0  0  0  0  0  0  0  0
   40.1860   23.5390   43.5060 H   0  0  0  0  0  0  0  0  0  0  0  0
   36.9820   30.1700   41.5850 C   0  0  0  0  0  0  0  0  0  0  0  0
   37.0830   30.9770   42.3550 H   0  0  0  0  0  0  0  0  0  0  0  0
   35.9170   29.9540   41.5220 H   0  0  0  0  0  0  0  0  0  0  0  0
   37.5490   30.7450   40.3050 C   0  0  1  0  0  3  0  0  0  0  0  0
   37.0120   32.1340   40.0270 C   0  0  0  0  0  3  0  0  0  0  0  0
   36.6860   32.2540   38.9810 H   0  0  0  0  0  0  0  0  0  0  0  0
   38.1920   33.0180   40.3730 C   0  0  0  0  0  3  0  0  0  0  0  0
   37.9110   33.9330   40.8920 H   0  0  0  0  0  0  0  0  0  0  0  0
   39.0160   32.2140   41.1950 O   0  0  0  0  0  0  0  0  0  0  0  0
   39.0200   31.0030   40.4890 C   0  0  0  0  0  3  0  0  0  0  0  0
   39.5430   31.1300   39.5250 H   0  0  0  0  0  0  0  0  0  0  0  0
  1  2  2  0  0  0  0
  1  4  1  0  0  0  0
  3  8  1  0  0  0  0
  3  9  1  0  0  0  0
  4  3  2  0  0  0  0
  5  6  2  0  0  0  0
  5  4  1  0  0  0  0
  6  7  1  0  0  0  0
  7 11  1  0  0  0  0
  7  8  2  0  0  0  0
 10  5  1  0  0  0  0
 12  2  1  0  0  0  0
 12 13  1  0  0  0  0
 14 12  1  0  0  0  0
 15 21  1  0  0  0  0
 15 12  1  1  0  0  0
 16 15  1  0  0  0  0
 16 18  1  0  0  0  0
 17 16  1  0  0  0  0
 18 19  1  0  0  0  0
 18 20  1  0  0  0  0
 21 20  1  0  0  0  0
 22 21  1  0  0  0  0
M  END
>  <minimizedAffinity>
-3.71692085

$$$$

 OpenBabel03242517143D

 22 23  0  0  1  0  0  0  0  0999 V2000
   35.1090   29.0200   38.8660 C   0  0  0  0  0  3  0  0  0  0  0  0
   36.0980   28.8080   39.7050 C   0  0  0  0  0  3  0  0  0  0  0  0
   36.4340   29.6510   36.8400 C   0  0  0  0  0  0  0  0  0  0  0  0
   35.2350   29.1910   37.4260 C   0  0  0  0  0  0  0  0  0  0  0  0
   34.1580   28.9020   36.5910 C   0  0  0  0  0  0  0  0  0  0  0  0
   34.3220   29.0810   35.2350 N   0  0  0  0  0  0  0  0  0  0  0  0
   35.4780   29.5180   34.7170 C   0  0  0  0  0  0  0  0  0  0  0  0
   36.5130   29.7960   35.5240 N   0  0  0  0  0  0  0  0  0  0  0  0
   37.2900   29.8830   37.4730 H   0  0  0  0  0  0  0  0  0  0  0  0
   33.2150   28.5480   36.9770 H   0  0  0  0  0  0  0  0  0  0  0  0
   35.5330   29.6350   33.6350 H   0  0  0  0  0  0  0  0  0  0  0  0
   35.8980   28.6410   41.1720 C   0  0  0  0  0  0  0  0  0  0  0  0
   34.8790   28.1940   41.2970 H   0  0  0  0  0  0  0  0  0  0  0  0
   35.8780   29.5790   41.7250 H   0  0  0  0  0  0  0  0  0  0  0  0
   36.8670   27.6320   41.7490 C   0  0  1  0  0  3  0  0  0  0  0  0
   38.3020   28.1000   41.6330 C   0  0  0  0  0  3  0  0  0  0  0  0
   38.9700   27.3120   41.2520 H   0  0  0  0  0  0  0  0  0  0  0  0
   38.6330   28.5030   43.0560 C   0  0  0  0  0  3  0  0  0  0  0  0
   39.2320   29.4110   43.1220 H   0  0  0  0  0  0  0  0  0  0  0  0
   37.3760   28.6910   43.6790 O   0  0  0  0  0  0  0  0  0  0  0  0
   36.6740   27.5600   43.2400 C   0  0  0  0  0  3  0  0  0  0  0  0
   37.1200   26.6480   43.6730 H   0  0  0  0  0  0  0  0  0  0  0  0
  1  2  2  0  0  0  0
  2 12  1  0  0  0  0
  3  4  1  0  0  0  0
  3  9  1  0  0  0  0
  4  1  1  0  0  0  0
  5 10  1  0  0  0  0
  5  4  2  0  0  0  0
  6  5  1  0  0  0  0
  7  6  2  0  0  0  0
  7  8  1  0  0  0  0
  8  3  2  0  0  0  0
 11  7  1  0  0  0  0
 12 13  1  0  0  0  0
 12 14  1  0  0  0  0
 15 12  1  1  0  0  0
 15 21  1  0  0  0  0
 16 15  1  0  0  0  0
 16 18  1  0  0  0  0
 17 16  1  0  0  0  0
 18 19  1  0  0  0  0
 18 20  1  0  0  0  0
 21 22  1  0  0  0  0
 21 20  1  0  0  0  0
M  END
>  <minimizedAffinity>
-3.68657184

$$$$

 OpenBabel03242517143D

 22 23  0  0  1  0  0  0  0  0999 V2000
   34.4470   29.1450   37.9480 C   0  0  0  0  0  3  0  0  0  0  0  0
   33.1900   28.8660   37.6830 C   0  0  0  0  0  3  0  0  0  0  0  0
   35.2240   29.1150   40.3250 C   0  0  0  0  0  0  0  0  0  0  0  0
   35.2400   28.5690   39.0230 C   0  0  0  0  0  0  0  0  0  0  0  0
   36.0400   27.4540   38.7830 C   0  0  0  0  0  0  0  0  0  0  0  0
   36.7740   26.9440   39.8300 N   0  0  0  0  0  0  0  0  0  0  0  0
   36.7310   27.4910   41.0530 C   0  0  0  0  0  0  0  0  0  0  0  0
   35.9600   28.5650   41.2820 N   0  0  0  0  0  0  0  0  0  0  0  0
   34.6060   29.9870   40.5370 H   0  0  0  0  0  0  0  0  0  0  0  0
   36.0960   26.9900   37.8100 H   0  0  0  0  0  0  0  0  0  0  0  0
   37.3390   27.0330   41.8330 H   0  0  0  0  0  0  0  0  0  0  0  0
   32.4360   29.4950   36.5620 C   0  0  0  0  0  0  0  0  0  0  0  0
   32.5750   28.8210   35.6790 H   0  0  0  0  0  0  0  0  0  0  0  0
   32.8260   30.4650   36.2570 H   0  0  0  0  0  0  0  0  0  0  0  0
   30.9480   29.5130   36.8400 C   0  0  1  0  0  3  0  0  0  0  0  0
   30.6340   30.1450   38.1800 C   0  0  0  0  0  3  0  0  0  0  0  0
   29.9140   29.5510   38.7640 H   0  0  0  0  0  0  0  0  0  0  0  0
   30.0820   31.5000   37.7820 C   0  0  0  0  0  3  0  0  0  0  0  0
   30.4130   32.3100   38.4310 H   0  0  0  0  0  0  0  0  0  0  0  0
   30.5420   31.7030   36.4600 O   0  0  0  0  0  0  0  0  0  0  0  0
   30.2790   30.4550   35.8770 C   0  0  0  0  0  3  0  0  0  0  0  0
   29.1890   30.2880   35.8220 H   0  0  0  0  0  0  0  0  0  0  0  0
  1  4  1  0  0  0  0
  2  1  2  0  0  0  0
  3  9  1  0  0  0  0
  3  8  1  0  0  0  0
  4  3  2  0  0  0  0
  5  4  1  0  0  0  0
  5  6  2  0  0  0  0
  6  7  1  0  0  0  0
  7  8  2  0  0  0  0
  7 11  1  0  0  0  0
 10  5  1  0  0  0  0
 12  2  1  0  0  0  0
 13 12  1  0  0  0  0
 14 12  1  0  0  0  0
 15 12  1  6  0  0  0
 15 16  1  0  0  0  0
 16 17  1  0  0  0  0
 18 16  1  0  0  0  0
 18 19  1  0  0  0  0
 20 18  1  0  0  0  0
 21 20  1  0  0  0  0
 21 15  1  0  0  0  0
 22 21  1  0  0  0  0
M  END
>  <minimizedAffinity>
-3.64858818

$$$$
