
 OpenBabel03252505493D

 21 22  0  0  1  0  0  0  0  0999 V2000
   44.5440   35.6100   44.9800 C   0  0  0  0  0  0  0  0  0  0  0  0
   45.0540   35.0960   43.7960 C   0  0  0  0  0  0  0  0  0  0  0  0
   45.6630   33.8530   43.8720 C   0  0  0  0  0  0  0  0  0  0  0  0
   45.7360   33.2090   45.0590 N   0  0  0  0  0  0  0  0  0  0  0  0
   45.2300   33.7440   46.1840 C   0  0  0  0  0  0  0  0  0  0  0  0
   44.6340   34.9360   46.1610 N   0  0  0  0  0  0  0  0  0  0  0  0
   44.0430   36.5850   45.0300 H   0  0  0  0  0  0  0  0  0  0  0  0
   46.0580   33.4550   42.9560 H   0  0  0  0  0  0  0  0  0  0  0  0
   44.9020   35.9140   42.5640 C   0  0  0  0  0  0  0  0  0  0  0  0
   45.1940   37.2150   42.9340 F   0  0  0  0  0  0  0  0  0  0  0  0
   43.6000   35.8220   42.1470 F   0  0  0  0  0  0  0  0  0  0  0  0
   45.7710   35.4010   41.6150 F   0  0  0  0  0  0  0  0  0  0  0  0
   45.2910   33.1040   47.4130 O   0  0  0  0  0  0  0  0  0  0  0  0
   46.0920   31.9890   47.6950 C   0  0  2  0  0  3  0  0  0  0  0  0
   45.8090   31.4170   49.0700 C   0  0  0  0  0  3  0  0  0  0  0  0
   45.6870   32.2400   49.7840 H   0  0  0  0  0  0  0  0  0  0  0  0
   47.1390   30.7420   49.3420 C   0  0  0  0  0  3  0  0  0  0  0  0
   47.2680   30.4820   50.4040 H   0  0  0  0  0  0  0  0  0  0  0  0
   48.0360   31.7410   48.9720 O   0  0  0  0  0  0  0  0  0  0  0  0
   47.5530   32.3110   47.8090 C   0  0  0  0  0  3  0  0  0  0  0  0
   48.1410   31.9030   46.9590 H   0  0  0  0  0  0  0  0  0  0  0  0
  1  7  1  0  0  0  0
  1  6  1  0  0  0  0
  2  3  1  0  0  0  0
  2  1  2  0  0  0  0
  3  4  2  0  0  0  0
  4  5  1  0  0  0  0
  5 13  1  0  0  0  0
  6  5  2  0  0  0  0
  8  3  1  0  0  0  0
  9 10  1  0  0  0  0
  9  2  1  0  0  0  0
 11  9  1  0  0  0  0
 12  9  1  0  0  0  0
 14 13  1  1  0  0  0
 14 20  1  0  0  0  0
 14 15  1  0  0  0  0
 15 17  1  0  0  0  0
 15 16  1  0  0  0  0
 17 18  1  0  0  0  0
 19 17  1  0  0  0  0
 20 19  1  0  0  0  0
 21 20  1  0  0  0  0
M  END
>  <minimizedAffinity>
-4.65529299

>  <minimizedRMSD>
0.852155864

$$$$
