
 OpenBabel03242514333D

 25 26  0  0  1  0  0  0  0  0999 V2000
   49.5670   35.4120   42.8160 O   0  0  0  0  0  0  0  0  0  0  0  0
   48.9770   34.3020   42.0090 P   0  0  1  0  0  0  0  0  0  0  0  0
   50.2300   33.2750   41.5690 O   0  0  0  0  0  0  0  0  0  0  0  0
   50.7990   32.9940   42.3030 H   0  0  0  0  0  0  0  0  0  0  0  0
   47.7800   33.4660   42.9050 O   0  0  0  0  0  0  0  0  0  0  0  0
   46.1920   35.2640   42.8340 C   0  0  0  0  0  0  0  0  0  0  0  0
   46.7280   34.1700   43.5080 C   0  0  0  0  0  0  0  0  0  0  0  0
   46.1980   33.8180   44.7540 C   0  0  0  0  0  0  0  0  0  0  0  0
   45.1720   34.5750   45.2450 N   0  0  0  0  0  0  0  0  0  0  0  0
   44.6840   35.6180   44.5710 C   0  0  0  0  0  0  0  0  0  0  0  0
   45.1850   35.9640   43.3730 N   0  0  0  0  0  0  0  0  0  0  0  0
   46.5820   35.5530   41.8770 H   0  0  0  0  0  0  0  0  0  0  0  0
   46.6380   32.9710   45.2380 H   0  0  0  0  0  0  0  0  0  0  0  0
   43.8680   36.1400   45.0680 H   0  0  0  0  0  0  0  0  0  0  0  0
   48.3080   34.9560   40.6230 O   0  0  0  0  0  0  0  0  0  0  0  0
   47.8550   34.2620   39.5530 C   0  0  0  0  0  0  0  0  0  0  0  0
   46.6820   33.7790   39.7770 O   0  0  0  0  0  0  0  0  0  0  0  0
   47.7200   33.6160   38.2250 C   0  0  2  0  0  0  0  0  0  0  0  0
   48.4720   32.3030   38.1550 C   0  0  0  0  0  0  0  0  0  0  0  0
   49.5290   32.3930   38.4660 H   0  0  0  0  0  0  0  0  0  0  0  0
   48.4880   32.1550   36.6240 C   0  0  0  0  0  0  0  0  0  0  0  0
   49.2360   31.4120   36.3080 H   0  0  0  0  0  0  0  0  0  0  0  0
   48.7250   33.4310   36.1370 O   0  0  0  0  0  0  0  0  0  0  0  0
   48.3700   34.3560   37.1050 C   0  0  0  0  0  0  0  0  0  0  0  0
   47.6580   35.1400   36.7260 H   0  0  0  0  0  0  0  0  0  0  0  0
  2  1  2  1  0  0  0
  2  5  1  0  0  0  0
  3  2  1  0  0  0  0
  3  4  1  0  0  0  0
  5  7  1  0  0  0  0
  6 11  2  0  0  0  0
  6  7  1  0  0  0  0
  7  8  2  0  0  0  0
  8 13  1  0  0  0  0
  8  9  1  0  0  0  0
 10 14  1  0  0  0  0
 10  9  2  0  0  0  0
 11 10  1  0  0  0  0
 12  6  1  0  0  0  0
 15  2  1  0  0  0  0
 16 17  2  0  0  0  0
 16 15  1  0  0  0  0
 18 16  1  1  0  0  0
 19 18  1  0  0  0  0
 19 20  1  0  0  0  0
 21 19  1  0  0  0  0
 22 21  1  0  0  0  0
 23 21  1  0  0  0  0
 23 24  1  0  0  0  0
 24 18  1  0  0  0  0
 25 24  1  0  0  0  0
M  END
>  <minimizedAffinity>
-4.5802021

>  <minimizedRMSD>
0.351810783

$$$$
