
 OpenBabel03242512273D

 21 22  0  0  1  0  0  0  0  0999 V2000
   44.9770   35.0950   44.1720 C   0  0  0  0  0  0  0  0  0  0  0  0
   45.9820   34.9200   43.2160 C   0  0  0  0  0  0  0  0  0  0  0  0
   47.0130   34.0130   43.4940 C   0  0  0  0  0  0  0  0  0  0  0  0
   46.9650   33.3630   44.6760 N   0  0  0  0  0  0  0  0  0  0  0  0
   46.0050   33.5360   45.5770 C   0  0  0  0  0  0  0  0  0  0  0  0
   45.0080   34.4140   45.3110 N   0  0  0  0  0  0  0  0  0  0  0  0
   43.9330   36.0120   43.8950 N   0  0  0  0  0  0  0  0  0  0  0  0
   45.9160   35.4940   42.3110 H   0  0  0  0  0  0  0  0  0  0  0  0
   47.7950   33.8740   42.7560 H   0  0  0  0  0  0  0  0  0  0  0  0
   43.7920   36.3940   42.9290 H   0  0  0  0  0  0  0  0  0  0  0  0
   43.2920   36.3110   44.6740 H   0  0  0  0  0  0  0  0  0  0  0  0
   45.9640   32.8320   46.8440 C   0  0  0  0  0  0  0  0  0  0  0  0
   45.0310   33.0130   47.6850 O   0  0  0  0  0  0  0  0  0  0  0  0
   47.0250   31.8740   47.1900 C   0  0  1  0  0  3  0  0  0  0  0  0
   47.8200   32.2140   48.4080 C   0  0  0  0  0  3  0  0  0  0  0  0
   48.7550   32.7550   48.1130 H   0  0  0  0  0  0  0  0  0  0  0  0
   48.1580   30.8450   48.9740 C   0  0  0  0  0  3  0  0  0  0  0  0
   47.7620   30.7490   50.0060 H   0  0  0  0  0  0  0  0  0  0  0  0
   47.6350   29.8990   48.0920 O   0  0  0  0  0  0  0  0  0  0  0  0
   46.4960   30.5010   47.5260 C   0  0  0  0  0  3  0  0  0  0  0  0
   46.2500   29.9890   46.5800 H   0  0  0  0  0  0  0  0  0  0  0  0
  1  6  1  0  0  0  0
  2  3  1  0  0  0  0
  2  1  2  0  0  0  0
  3  4  2  0  0  0  0
  4  5  1  0  0  0  0
  5 12  1  0  0  0  0
  6  5  2  0  0  0  0
  7  1  1  0  0  0  0
  7 11  1  0  0  0  0
  8  2  1  0  0  0  0
  9  3  1  0  0  0  0
 10  7  1  0  0  0  0
 12 13  2  0  0  0  0
 14 12  1  1  0  0  0
 14 20  1  0  0  0  0
 14 15  1  0  0  0  0
 15 17  1  0  0  0  0
 16 15  1  0  0  0  0
 17 18  1  0  0  0  0
 19 17  1  0  0  0  0
 20 19  1  0  0  0  0
 21 20  1  0  0  0  0
M  END
>  <minimizedAffinity>
-4.76546288

>  <minimizedRMSD>
1.3714844

$$$$
