
 OpenBabel03242520453D

 21 22  0  0  1  0  0  0  0  0999 V2000
   44.8910   35.1280   44.0230 C   0  0  0  0  0  0  0  0  0  0  0  0
   45.7530   35.3740   42.9260 C   0  0  0  0  0  0  0  0  0  0  0  0
   46.9640   34.6880   42.8700 C   0  0  0  0  0  0  0  0  0  0  0  0
   47.2650   33.8260   43.8540 N   0  0  0  0  0  0  0  0  0  0  0  0
   46.4180   33.6050   44.9020 C   0  0  0  0  0  0  0  0  0  0  0  0
   45.2440   34.2590   44.9720 N   0  0  0  0  0  0  0  0  0  0  0  0
   43.6610   35.8090   44.1010 N   0  0  0  0  0  0  0  0  0  0  0  0
   45.4380   36.0850   42.1720 H   0  0  0  0  0  0  0  0  0  0  0  0
   46.7880   32.8880   45.6180 H   0  0  0  0  0  0  0  0  0  0  0  0
   43.3110   36.3610   44.9180 H   0  0  0  0  0  0  0  0  0  0  0  0
   43.1260   35.6790   43.1960 H   0  0  0  0  0  0  0  0  0  0  0  0
   47.7810   34.9870   41.7360 C   0  0  0  0  0  0  0  0  0  0  0  0
   48.7690   35.7520   41.7330 O   0  0  0  0  0  0  0  0  0  0  0  0
   47.3070   34.2570   40.5050 C   0  0  2  0  0  3  0  0  0  0  0  0
   47.4900   32.7770   40.6230 C   0  0  0  0  0  3  0  0  0  0  0  0
   47.7080   32.4860   41.6700 H   0  0  0  0  0  0  0  0  0  0  0  0
   48.6420   32.5130   39.6760 C   0  0  0  0  0  3  0  0  0  0  0  0
   48.6580   31.4550   39.3500 H   0  0  0  0  0  0  0  0  0  0  0  0
   48.4040   33.3980   38.6450 O   0  0  0  0  0  0  0  0  0  0  0  0
   48.2190   34.6010   39.3260 C   0  0  0  0  0  3  0  0  0  0  0  0
   47.7940   35.4090   38.6970 H   0  0  0  0  0  0  0  0  0  0  0  0
  1  7  1  0  0  0  0
  1  6  1  0  0  0  0
  2  1  2  0  0  0  0
  3  2  1  0  0  0  0
  3  4  2  0  0  0  0
  4  5  1  0  0  0  0
  5  6  2  0  0  0  0
  5  9  1  0  0  0  0
  7 10  1  0  0  0  0
  8  2  1  0  0  0  0
 11  7  1  0  0  0  0
 12  3  1  0  0  0  0
 13 12  2  0  0  0  0
 14 15  1  0  0  0  0
 14 12  1  1  0  0  0
 15 16  1  0  0  0  0
 17 15  1  0  0  0  0
 18 17  1  0  0  0  0
 19 20  1  0  0  0  0
 19 17  1  0  0  0  0
 20 14  1  0  0  0  0
 21 20  1  0  0  0  0
M  END
>  <minimizedAffinity>
-4.6233592

>  <minimizedRMSD>
0.77770102

$$$$
