
 OpenBabel03252505493D

 21 22  0  0  1  0  0  0  0  0999 V2000
   44.7650   35.4130   44.8950 C   0  0  0  0  0  0  0  0  0  0  0  0
   45.6590   34.9950   43.9190 C   0  0  0  0  0  0  0  0  0  0  0  0
   46.4160   33.8730   44.2120 C   0  0  0  0  0  0  0  0  0  0  0  0
   46.2620   33.2460   45.4000 N   0  0  0  0  0  0  0  0  0  0  0  0
   45.3840   33.6850   46.3190 C   0  0  0  0  0  0  0  0  0  0  0  0
   44.6330   34.7600   46.0830 N   0  0  0  0  0  0  0  0  0  0  0  0
   44.1180   36.2900   44.7630 H   0  0  0  0  0  0  0  0  0  0  0  0
   47.1080   33.5500   43.4560 H   0  0  0  0  0  0  0  0  0  0  0  0
   45.7230   35.7800   42.6570 C   0  0  0  0  0  0  0  0  0  0  0  0
   45.3320   37.0650   42.9900 F   0  0  0  0  0  0  0  0  0  0  0  0
   44.8380   35.2320   41.7660 F   0  0  0  0  0  0  0  0  0  0  0  0
   47.0240   35.7040   42.1860 F   0  0  0  0  0  0  0  0  0  0  0  0
   45.2060   33.0610   47.5450 O   0  0  0  0  0  0  0  0  0  0  0  0
   45.7450   31.8150   47.8940 C   0  0  2  0  0  3  0  0  0  0  0  0
   45.0570   30.6730   47.1720 C   0  0  0  0  0  3  0  0  0  0  0  0
   43.9760   30.8550   47.1570 H   0  0  0  0  0  0  0  0  0  0  0  0
   45.3400   29.5490   48.1470 C   0  0  0  0  0  3  0  0  0  0  0  0
   44.7050   28.6670   47.9670 H   0  0  0  0  0  0  0  0  0  0  0  0
   45.0100   30.1460   49.3610 O   0  0  0  0  0  0  0  0  0  0  0  0
   45.5070   31.4370   49.3270 C   0  0  0  0  0  3  0  0  0  0  0  0
   46.4410   31.4590   49.9280 H   0  0  0  0  0  0  0  0  0  0  0  0
  1  6  1  0  0  0  0
  2  3  1  0  0  0  0
  2  1  2  0  0  0  0
  3  4  2  0  0  0  0
  4  5  1  0  0  0  0
  5 13  1  0  0  0  0
  6  5  2  0  0  0  0
  7  1  1  0  0  0  0
  8  3  1  0  0  0  0
  9 10  1  0  0  0  0
  9  2  1  0  0  0  0
 11  9  1  0  0  0  0
 12  9  1  0  0  0  0
 14 13  1  6  0  0  0
 14 20  1  0  0  0  0
 15 14  1  0  0  0  0
 15 17  1  0  0  0  0
 16 15  1  0  0  0  0
 17 19  1  0  0  0  0
 18 17  1  0  0  0  0
 20 19  1  0  0  0  0
 20 21  1  0  0  0  0
M  END
>  <minimizedAffinity>
-4.85605526

>  <minimizedRMSD>
0.603304505

$$$$
