
 OpenBabel03242523543D

 44 47  0  0  1  0  0  0  0  0999 V2000
   42.8200   34.5130   38.7560 C   0  0  1  0  0  0  0  0  0  0  0  0
   42.9590   35.1890   40.1140 C   0  0  1  0  0  0  0  0  0  0  0  0
   41.6720   35.4160   40.6300 O   0  0  0  0  0  0  0  0  0  0  0  0
   40.7470   35.7500   39.6380 C   0  0  0  0  0  0  0  0  0  0  0  0
   40.4400   34.5750   38.7320 C   0  0  2  0  0  0  0  0  0  0  0  0
   41.6510   33.5890   38.8670 C   0  0  1  0  0  0  0  0  0  0  0  0
   43.7640   33.9960   38.4840 H   0  0  0  0  0  0  0  0  0  0  0  0
   43.5520   36.1090   40.0790 H   0  0  0  0  0  0  0  0  0  0  0  0
   41.0370   36.6660   39.0950 H   0  0  0  0  0  0  0  0  0  0  0  0
   39.8170   35.9850   40.1710 H   0  0  0  0  0  0  0  0  0  0  0  0
   39.5210   34.0440   39.0270 H   0  0  0  0  0  0  0  0  0  0  0  0
   41.4430   33.3120   39.9510 H   0  0  0  0  0  0  0  0  0  0  0  0
   42.6060   35.4640   37.7470 O   0  0  0  0  0  0  0  0  0  0  0  0
   43.4970   35.8750   37.5910 H   0  0  0  0  0  0  0  0  0  0  0  0
   40.4560   34.9890   37.4070 O   0  0  0  0  0  0  0  0  0  0  0  0
   40.7670   34.3260   36.7690 H   0  0  0  0  0  0  0  0  0  0  0  0
   43.4930   34.2090   40.9620 O   0  0  0  0  0  0  0  0  0  0  0  0
   44.6050   34.3500   41.6960 C   0  0  0  0  0  0  0  0  0  0  0  0
   45.8660   34.4470   41.0910 C   0  0  0  0  0  0  0  0  0  0  0  0
   46.9760   34.5920   41.9100 C   0  0  0  0  0  0  0  0  0  0  0  0
   46.8100   34.6370   43.2820 N   0  0  0  0  0  0  0  0  0  0  0  0
   45.5760   34.5410   43.8270 C   0  0  0  0  0  0  0  0  0  0  0  0
   44.4780   34.3970   43.0430 N   0  0  0  0  0  0  0  0  0  0  0  0
   45.9940   34.4100   40.0180 H   0  0  0  0  0  0  0  0  0  0  0  0
   45.5270   34.5840   44.9040 H   0  0  0  0  0  0  0  0  0  0  0  0
   48.3580   34.6870   41.3330 C   0  0  0  0  0  0  0  0  0  0  0  0
   49.0790   36.0220   41.5070 C   0  0  0  0  0  0  0  0  0  0  0  0
   49.5050   34.7070   42.1840 C   0  0  0  0  0  0  0  0  0  0  0  0
   48.3810   34.2930   40.2980 H   0  0  0  0  0  0  0  0  0  0  0  0
   49.6640   36.3730   40.6590 H   0  0  0  0  0  0  0  0  0  0  0  0
   48.5680   36.7250   42.1790 H   0  0  0  0  0  0  0  0  0  0  0  0
   49.3790   34.6470   43.2970 H   0  0  0  0  0  0  0  0  0  0  0  0
   50.5000   34.3550   41.8560 H   0  0  0  0  0  0  0  0  0  0  0  0
   41.5210   32.6520   37.9100 O   0  0  0  0  0  0  0  0  0  0  0  0
   40.8270   31.4910   37.9410 C   0  0  0  0  0  0  0  0  0  0  0  0
   39.6120   31.4130   37.4540 O   0  0  0  0  0  0  0  0  0  0  0  0
   40.8850   30.0560   38.3570 C   0  0  2  0  0  3  0  0  0  0  0  0
   40.2710   29.2390   37.2160 C   0  0  0  0  0  3  0  0  0  0  0  0
   40.9770   29.0220   36.4100 H   0  0  0  0  0  0  0  0  0  0  0  0
   39.8660   27.9810   37.9650 C   0  0  0  0  0  3  0  0  0  0  0  0
   38.9770   27.4860   37.5220 H   0  0  0  0  0  0  0  0  0  0  0  0
   39.5400   28.3780   39.2500 O   0  0  0  0  0  0  0  0  0  0  0  0
   40.0300   29.6490   39.4840 C   0  0  0  0  0  3  0  0  0  0  0  0
   40.5250   29.6900   40.4760 H   0  0  0  0  0  0  0  0  0  0  0  0
  1  7  1  6  0  0  0
  1  6  1  0  0  0  0
  1  2  1  0  0  0  0
  2  8  1  6  0  0  0
  2  3  1  0  0  0  0
  2 17  1  0  0  0  0
  4 10  1  0  0  0  0
  4  3  1  0  0  0  0
  5  6  1  0  0  0  0
  5 11  1  1  0  0  0
  5  4  1  0  0  0  0
  6 12  1  1  0  0  0
  9  4  1  0  0  0  0
 13  1  1  0  0  0  0
 14 13  1  0  0  0  0
 15  5  1  0  0  0  0
 16 15  1  0  0  0  0
 17 18  1  0  0  0  0
 18 23  1  0  0  0  0
 19 18  2  0  0  0  0
 19 20  1  0  0  0  0
 20 21  2  0  0  0  0
 21 22  1  0  0  0  0
 22 25  1  0  0  0  0
 23 22  2  0  0  0  0
 24 19  1  0  0  0  0
 26 27  1  0  0  0  0
 26 20  1  0  0  0  0
 26 28  1  0  0  0  0
 27 31  1  0  0  0  0
 27 28  1  0  0  0  0
 28 32  1  0  0  0  0
 29 26  1  0  0  0  0
 30 27  1  0  0  0  0
 33 28  1  0  0  0  0
 34 35  1  0  0  0  0
 34  6  1  0  0  0  0
 36 35  2  0  0  0  0
 37 35  1  6  0  0  0
 37 43  1  0  0  0  0
 38 40  1  0  0  0  0
 38 37  1  0  0  0  0
 39 38  1  0  0  0  0
 40 42  1  0  0  0  0
 41 40  1  0  0  0  0
 42 43  1  0  0  0  0
 43 44  1  0  0  0  0
M  END
>  <minimizedAffinity>
-5.73851156

>  <minimizedRMSD>
0.151057318

$$$$
