
 OpenBabel03242523313D

 21 22  0  0  1  0  0  0  0  0999 V2000
   45.3300   33.4440   46.7880 C   0  0  0  0  0  0  0  0  0  0  0  0
   45.3690   34.1470   47.6540 H   0  0  0  0  0  0  0  0  0  0  0  0
   44.4630   32.7530   46.8340 H   0  0  0  0  0  0  0  0  0  0  0  0
   44.6350   36.0870   44.2570 C   0  0  0  0  0  0  0  0  0  0  0  0
   45.4600   35.6760   43.2000 C   0  0  0  0  0  0  0  0  0  0  0  0
   46.2220   34.5290   43.3680 C   0  0  0  0  0  0  0  0  0  0  0  0
   46.1530   33.8420   44.5300 N   0  0  0  0  0  0  0  0  0  0  0  0
   45.3390   34.2600   45.5540 C   0  0  0  0  0  0  0  0  0  0  0  0
   44.6170   35.3600   45.3780 N   0  0  0  0  0  0  0  0  0  0  0  0
   44.0570   36.9860   44.0900 H   0  0  0  0  0  0  0  0  0  0  0  0
   45.5690   36.1690   42.2490 H   0  0  0  0  0  0  0  0  0  0  0  0
   46.8730   34.1700   42.5840 H   0  0  0  0  0  0  0  0  0  0  0  0
   46.9140   32.5380   46.8280 S   0  0  0  0  0  0  0  0  0  0  0  0
   46.8700   31.2690   48.1510 C   0  0  2  0  0  3  0  0  0  0  0  0
   46.4010   29.9620   47.6030 C   0  0  0  0  0  3  0  0  0  0  0  0
   46.2750   30.0540   46.4950 H   0  0  0  0  0  0  0  0  0  0  0  0
   45.1100   29.6810   48.3220 C   0  0  0  0  0  3  0  0  0  0  0  0
   45.0270   28.6230   48.6500 H   0  0  0  0  0  0  0  0  0  0  0  0
   45.0910   30.4810   49.4550 O   0  0  0  0  0  0  0  0  0  0  0  0
   45.8110   31.6300   49.1430 C   0  0  0  0  0  3  0  0  0  0  0  0
   46.1680   32.1080   50.0630 H   0  0  0  0  0  0  0  0  0  0  0  0
  1 13  1  0  0  0  0
  1  3  1  0  0  0  0
  1  2  1  0  0  0  0
  4  9  1  0  0  0  0
  5  6  1  0  0  0  0
  5  4  2  0  0  0  0
  6  7  2  0  0  0  0
  7  8  1  0  0  0  0
  8  1  1  0  0  0  0
  9  8  2  0  0  0  0
 10  4  1  0  0  0  0
 11  5  1  0  0  0  0
 12  6  1  0  0  0  0
 14 13  1  6  0  0  0
 14 20  1  0  0  0  0
 15 14  1  0  0  0  0
 15 17  1  0  0  0  0
 16 15  1  0  0  0  0
 17 18  1  0  0  0  0
 17 19  1  0  0  0  0
 20 19  1  0  0  0  0
 20 21  1  0  0  0  0
M  END
>  <minimizedAffinity>
-4.00325251

>  <minimizedRMSD>
1.97462928

$$$$
