
 OpenBabel03252509003D

 44 46  0  0  1  0  0  0  0  0999 V2000
   46.7240   34.5100   43.5060 N   0  0  0  0  0  0  0  0  0  0  0  0
   46.2430   35.5810   42.7120 C   0  0  0  0  0  0  0  0  0  0  0  0
   44.7450   35.7770   42.7240 C   0  0  0  0  0  0  0  0  0  0  0  0
   44.0900   35.4270   44.0330 C   0  0  0  0  0  0  0  0  0  0  0  0
   45.0970   35.0330   45.0820 C   0  0  0  0  0  0  0  0  0  0  0  0
   45.8900   33.8580   44.4010 C   0  0  2  0  0  0  0  0  0  0  0  0
   46.5610   35.5850   41.6650 H   0  0  0  0  0  0  0  0  0  0  0  0
   46.6740   36.5240   43.1440 H   0  0  0  0  0  0  0  0  0  0  0  0
   44.5200   36.8560   42.5210 H   0  0  0  0  0  0  0  0  0  0  0  0
   44.3330   35.2230   41.8600 H   0  0  0  0  0  0  0  0  0  0  0  0
   43.4510   34.5320   43.8690 H   0  0  0  0  0  0  0  0  0  0  0  0
   43.4800   36.2490   44.4580 H   0  0  0  0  0  0  0  0  0  0  0  0
   45.7960   35.8280   45.3580 H   0  0  0  0  0  0  0  0  0  0  0  0
   44.5730   34.5680   45.9340 H   0  0  0  0  0  0  0  0  0  0  0  0
   45.1220   33.1610   44.0010 H   0  0  0  0  0  0  0  0  0  0  0  0
   47.8090   33.7830   42.9160 C   0  0  0  0  0  0  0  0  0  0  0  0
   48.4190   33.2710   43.6930 H   0  0  0  0  0  0  0  0  0  0  0  0
   48.4700   34.4790   42.3960 H   0  0  0  0  0  0  0  0  0  0  0  0
   47.2460   32.7300   42.0100 C   0  0  0  0  0  0  0  0  0  0  0  0
   46.1350   32.8070   41.9490 H   0  0  0  0  0  0  0  0  0  0  0  0
   47.4600   31.7180   42.3720 H   0  0  0  0  0  0  0  0  0  0  0  0
   49.1220   32.0760   38.8200 C   0  0  0  0  0  0  0  0  0  0  0  0
   48.5880   31.9230   40.1120 C   0  0  0  0  0  0  0  0  0  0  0  0
   47.8010   32.9120   40.6420 C   0  0  0  0  0  0  0  0  0  0  0  0
   47.5770   33.9950   39.8900 N   0  0  0  0  0  0  0  0  0  0  0  0
   48.0890   34.1400   38.6520 C   0  0  0  0  0  0  0  0  0  0  0  0
   48.8580   33.1960   38.1090 N   0  0  0  0  0  0  0  0  0  0  0  0
   49.7400   31.2740   38.4300 H   0  0  0  0  0  0  0  0  0  0  0  0
   48.7840   31.0350   40.7030 H   0  0  0  0  0  0  0  0  0  0  0  0
   47.8070   35.0660   38.2000 H   0  0  0  0  0  0  0  0  0  0  0  0
   46.5940   33.3380   45.4780 O   0  0  0  0  0  0  0  0  0  0  0  0
   45.5190   31.0960   44.5870 O   0  0  0  0  0  0  0  0  0  0  0  0
   46.2750   31.7100   45.7430 P   0  0  2  0  0  0  0  0  0  0  0  0
   45.2000   31.6470   47.0740 O   0  0  0  0  0  0  0  0  0  0  0  0
   44.2750   31.8660   46.7600 H   0  0  0  0  0  0  0  0  0  0  0  0
   47.6660   30.8900   46.1540 O   0  0  0  0  0  0  0  0  0  0  0  0
   47.5290   29.9200   47.0940 C   0  0  2  0  0  3  0  0  0  0  0  0
   48.9220   29.5920   47.6140 C   0  0  0  0  0  3  0  0  0  0  0  0
   49.1840   30.2190   48.4880 H   0  0  0  0  0  0  0  0  0  0  0  0
   48.8000   28.1250   47.9430 C   0  0  0  0  0  3  0  0  0  0  0  0
   49.6140   27.5460   47.4790 H   0  0  0  0  0  0  0  0  0  0  0  0
   47.5470   27.6930   47.5470 O   0  0  0  0  0  0  0  0  0  0  0  0
   47.1070   28.5770   46.5590 C   0  0  0  0  0  3  0  0  0  0  0  0
   47.5850   28.3880   45.5870 H   0  0  0  0  0  0  0  0  0  0  0  0
  1  6  1  0  0  0  0
  2  3  1  0  0  0  0
  2  8  1  0  0  0  0
  2  1  1  0  0  0  0
  3  4  1  0  0  0  0
  4 12  1  0  0  0  0
  4  5  1  0  0  0  0
  5 13  1  0  0  0  0
  5 14  1  0  0  0  0
  6 15  1  6  0  0  0
  6  5  1  0  0  0  0
  6 31  1  0  0  0  0
  7  2  1  0  0  0  0
  9  3  1  0  0  0  0
 10  3  1  0  0  0  0
 11  4  1  0  0  0  0
 16  1  1  0  0  0  0
 16 17  1  0  0  0  0
 18 16  1  0  0  0  0
 19 21  1  0  0  0  0
 19 16  1  0  0  0  0
 20 19  1  0  0  0  0
 22 23  1  0  0  0  0
 23 24  2  0  0  0  0
 23 29  1  0  0  0  0
 24 19  1  0  0  0  0
 25 24  1  0  0  0  0
 26 25  2  0  0  0  0
 27 26  1  0  0  0  0
 27 22  2  0  0  0  0
 28 22  1  0  0  0  0
 30 26  1  0  0  0  0
 31 33  1  0  0  0  0
 33 32  2  6  0  0  0
 33 36  1  0  0  0  0
 33 34  1  0  0  0  0
 35 34  1  0  0  0  0
 37 36  1  6  0  0  0
 37 38  1  0  0  0  0
 38 40  1  0  0  0  0
 38 39  1  0  0  0  0
 41 40  1  0  0  0  0
 42 40  1  0  0  0  0
 43 37  1  0  0  0  0
 43 42  1  0  0  0  0
 44 43  1  0  0  0  0
M  END
>  <minimizedAffinity>
-4.22537327

>  <minimizedRMSD>
1.19150889

$$$$
