
 OpenBabel03242514343D

 25 26  0  0  1  0  0  0  0  0999 V2000
   37.9830   30.2190   41.6980 O   0  0  0  0  0  0  0  0  0  0  0  0
   36.7220   29.9150   40.9560 P   0  0  1  0  0  0  0  0  0  0  0  0
   35.5620   31.0210   41.4530 O   0  0  0  0  0  0  0  0  0  0  0  0
   35.8470   31.9480   41.4210 H   0  0  0  0  0  0  0  0  0  0  0  0
   36.9740   30.0050   39.2640 O   0  0  0  0  0  0  0  0  0  0  0  0
   38.4960   31.7050   38.5220 C   0  0  0  0  0  0  0  0  0  0  0  0
   38.2310   30.3580   38.7530 C   0  0  0  0  0  0  0  0  0  0  0  0
   39.2250   29.4150   38.4680 C   0  0  0  0  0  0  0  0  0  0  0  0
   40.4130   29.8740   37.9730 N   0  0  0  0  0  0  0  0  0  0  0  0
   40.6320   31.1730   37.7640 C   0  0  0  0  0  0  0  0  0  0  0  0
   39.6850   32.0870   38.0350 N   0  0  0  0  0  0  0  0  0  0  0  0
   37.7500   32.4460   38.7330 H   0  0  0  0  0  0  0  0  0  0  0  0
   38.9810   28.3910   38.6600 H   0  0  0  0  0  0  0  0  0  0  0  0
   41.6170   31.4120   37.3680 H   0  0  0  0  0  0  0  0  0  0  0  0
   36.2160   28.3800   41.3830 O   0  0  0  0  0  0  0  0  0  0  0  0
   36.8770   27.5200   42.1920 C   0  0  0  0  0  0  0  0  0  0  0  0
   36.3730   27.5180   43.3770 O   0  0  0  0  0  0  0  0  0  0  0  0
   37.8180   26.5120   42.7370 C   0  0  2  0  0  3  0  0  0  0  0  0
   38.8390   27.1350   43.6660 C   0  0  0  0  0  3  0  0  0  0  0  0
   39.3680   27.9950   43.2140 H   0  0  0  0  0  0  0  0  0  0  0  0
   39.8460   25.9730   43.6800 C   0  0  0  0  0  3  0  0  0  0  0  0
   40.8230   26.3020   44.0640 H   0  0  0  0  0  0  0  0  0  0  0  0
   39.8840   25.5100   42.3740 O   0  0  0  0  0  0  0  0  0  0  0  0
   38.7220   25.8940   41.7250 C   0  0  0  0  0  3  0  0  0  0  0  0
   38.1860   25.0350   41.2360 H   0  0  0  0  0  0  0  0  0  0  0  0
  2 15  1  0  0  0  0
  2  3  1  0  0  0  0
  2  1  2  1  0  0  0
  4  3  1  0  0  0  0
  5  2  1  0  0  0  0
  6 12  1  0  0  0  0
  6  7  1  0  0  0  0
  7  5  1  0  0  0  0
  8 13  1  0  0  0  0
  8  7  2  0  0  0  0
  9  8  1  0  0  0  0
 10  9  2  0  0  0  0
 10 11  1  0  0  0  0
 11  6  2  0  0  0  0
 14 10  1  0  0  0  0
 15 16  1  0  0  0  0
 16 17  2  0  0  0  0
 18 16  1  6  0  0  0
 18 19  1  0  0  0  0
 19 21  1  0  0  0  0
 20 19  1  0  0  0  0
 21 22  1  0  0  0  0
 23 21  1  0  0  0  0
 24 23  1  0  0  0  0
 24 18  1  0  0  0  0
 25 24  1  0  0  0  0
M  END
>  <minimizedAffinity>
-4.5241518

$$$$

 OpenBabel03242514343D

 25 26  0  0  1  0  0  0  0  0999 V2000
   36.4820   31.0200   38.8190 O   0  0  0  0  0  0  0  0  0  0  0  0
   37.1370   31.5300   40.0610 P   0  0  1  0  0  0  0  0  0  0  0  0
   36.8820   33.1880   40.1230 O   0  0  0  0  0  0  0  0  0  0  0  0
   35.9590   33.4600   40.0030 H   0  0  0  0  0  0  0  0  0  0  0  0
   36.4990   30.7550   41.4490 O   0  0  0  0  0  0  0  0  0  0  0  0
   36.4690   28.3640   41.2540 C   0  0  0  0  0  0  0  0  0  0  0  0
   36.9940   29.5070   41.8520 C   0  0  0  0  0  0  0  0  0  0  0  0
   37.9870   29.3640   42.8260 C   0  0  0  0  0  0  0  0  0  0  0  0
   38.3930   28.0970   43.1400 N   0  0  0  0  0  0  0  0  0  0  0  0
   37.8670   27.0250   42.5460 C   0  0  0  0  0  0  0  0  0  0  0  0
   36.9120   27.1500   41.6090 N   0  0  0  0  0  0  0  0  0  0  0  0
   35.7060   28.4480   40.5050 H   0  0  0  0  0  0  0  0  0  0  0  0
   38.3630   30.2670   43.2600 H   0  0  0  0  0  0  0  0  0  0  0  0
   38.2730   26.0730   42.8830 H   0  0  0  0  0  0  0  0  0  0  0  0
   38.7800   31.2440   39.9450 O   0  0  0  0  0  0  0  0  0  0  0  0
   39.5950   31.6700   38.9520 C   0  0  0  0  0  0  0  0  0  0  0  0
   39.7720   32.9440   39.0100 O   0  0  0  0  0  0  0  0  0  0  0  0
   40.4900   31.7350   37.7710 C   0  0  2  0  0  3  0  0  0  0  0  0
   41.5590   30.6630   37.8110 C   0  0  0  0  0  3  0  0  0  0  0  0
   42.1260   30.6530   38.7600 H   0  0  0  0  0  0  0  0  0  0  0  0
   42.5020   31.2700   36.7580 C   0  0  0  0  0  3  0  0  0  0  0  0
   43.5020   30.8150   36.8150 H   0  0  0  0  0  0  0  0  0  0  0  0
   42.4920   32.6340   37.0030 O   0  0  0  0  0  0  0  0  0  0  0  0
   41.3410   32.9580   37.7030 C   0  0  0  0  0  3  0  0  0  0  0  0
   40.7500   33.7850   37.2220 H   0  0  0  0  0  0  0  0  0  0  0  0
  2  1  2  6  0  0  0
  2  3  1  0  0  0  0
  2  5  1  0  0  0  0
  4  3  1  0  0  0  0
  5  7  1  0  0  0  0
  6 11  2  0  0  0  0
  6  7  1  0  0  0  0
  7  8  2  0  0  0  0
  8  9  1  0  0  0  0
  8 13  1  0  0  0  0
 10 14  1  0  0  0  0
 10  9  2  0  0  0  0
 11 10  1  0  0  0  0
 12  6  1  0  0  0  0
 15  2  1  0  0  0  0
 16 17  2  0  0  0  0
 16 15  1  0  0  0  0
 18 19  1  0  0  0  0
 18 16  1  1  0  0  0
 19 20  1  0  0  0  0
 21 22  1  0  0  0  0
 21 23  1  0  0  0  0
 21 19  1  0  0  0  0
 23 24  1  0  0  0  0
 24 18  1  0  0  0  0
 25 24  1  0  0  0  0
M  END
>  <minimizedAffinity>
-4.47109938

$$$$

 OpenBabel03242514343D

 25 26  0  0  1  0  0  0  0  0999 V2000
   36.0670   28.5110   40.9750 O   0  0  0  0  0  0  0  0  0  0  0  0
   36.7760   29.7880   41.2880 P   0  0  1  0  0  0  0  0  0  0  0  0
   35.6280   31.0130   41.3080 O   0  0  0  0  0  0  0  0  0  0  0  0
   34.8500   30.8280   41.8570 H   0  0  0  0  0  0  0  0  0  0  0  0
   37.5900   29.6810   42.7910 O   0  0  0  0  0  0  0  0  0  0  0  0
   39.8860   28.9960   42.6700 C   0  0  0  0  0  0  0  0  0  0  0  0
   38.5670   28.6970   42.9980 C   0  0  0  0  0  0  0  0  0  0  0  0
   38.2710   27.4330   43.5200 C   0  0  0  0  0  0  0  0  0  0  0  0
   39.3040   26.5530   43.6790 N   0  0  0  0  0  0  0  0  0  0  0  0
   40.5570   26.8740   43.3530 C   0  0  0  0  0  0  0  0  0  0  0  0
   40.8530   28.0860   42.8520 N   0  0  0  0  0  0  0  0  0  0  0  0
   40.1380   29.9590   42.2680 H   0  0  0  0  0  0  0  0  0  0  0  0
   37.2450   27.2440   43.7590 H   0  0  0  0  0  0  0  0  0  0  0  0
   41.2890   26.0880   43.5270 H   0  0  0  0  0  0  0  0  0  0  0  0
   37.8690   30.0980   40.0610 O   0  0  0  0  0  0  0  0  0  0  0  0
   37.6060   30.0720   38.7340 C   0  0  0  0  0  0  0  0  0  0  0  0
   36.5360   30.7340   38.4600 O   0  0  0  0  0  0  0  0  0  0  0  0
   37.6620   29.8200   37.2740 C   0  0  2  0  0  3  0  0  0  0  0  0
   36.3050   29.4510   36.7100 C   0  0  0  0  0  3  0  0  0  0  0  0
   35.8220   28.6200   37.2560 H   0  0  0  0  0  0  0  0  0  0  0  0
   36.7880   28.8620   35.3740 C   0  0  0  0  0  3  0  0  0  0  0  0
   35.9990   28.2580   34.9020 H   0  0  0  0  0  0  0  0  0  0  0  0
   37.9330   28.1450   35.6850 O   0  0  0  0  0  0  0  0  0  0  0  0
   38.4500   28.6170   36.8800 C   0  0  0  0  0  3  0  0  0  0  0  0
   39.5360   28.9020   36.8090 H   0  0  0  0  0  0  0  0  0  0  0  0
  2  1  2  6  0  0  0
  2  3  1  0  0  0  0
  2  5  1  0  0  0  0
  3  4  1  0  0  0  0
  5  7  1  0  0  0  0
  6 11  2  0  0  0  0
  6  7  1  0  0  0  0
  7  8  2  0  0  0  0
  8  9  1  0  0  0  0
  8 13  1  0  0  0  0
 10 14  1  0  0  0  0
 10  9  2  0  0  0  0
 11 10  1  0  0  0  0
 12  6  1  0  0  0  0
 15  2  1  0  0  0  0
 16 15  1  0  0  0  0
 17 16  2  0  0  0  0
 18 16  1  1  0  0  0
 19 20  1  0  0  0  0
 19 18  1  0  0  0  0
 21 23  1  0  0  0  0
 21 19  1  0  0  0  0
 22 21  1  0  0  0  0
 23 24  1  0  0  0  0
 24 18  1  0  0  0  0
 25 24  1  0  0  0  0
M  END
>  <minimizedAffinity>
-4.42912149

$$$$

 OpenBabel03242514343D

 25 26  0  0  1  0  0  0  0  0999 V2000
   37.3620   32.4640   40.5220 O   0  0  0  0  0  0  0  0  0  0  0  0
   37.1540   30.9950   40.6960 P   0  0  1  0  0  0  0  0  0  0  0  0
   35.5490   30.7580   41.1260 O   0  0  0  0  0  0  0  0  0  0  0  0
   34.9060   31.1990   40.5480 H   0  0  0  0  0  0  0  0  0  0  0  0
   37.5390   30.1500   39.2570 O   0  0  0  0  0  0  0  0  0  0  0  0
   36.7290   27.8950   39.1350 C   0  0  0  0  0  0  0  0  0  0  0  0
   36.6370   29.2200   38.7190 C   0  0  0  0  0  0  0  0  0  0  0  0
   35.6550   29.5690   37.7870 C   0  0  0  0  0  0  0  0  0  0  0  0
   34.8300   28.5800   37.3310 N   0  0  0  0  0  0  0  0  0  0  0  0
   34.9480   27.3190   37.7520 C   0  0  0  0  0  0  0  0  0  0  0  0
   35.8870   26.9720   38.6480 N   0  0  0  0  0  0  0  0  0  0  0  0
   37.4740   27.6020   39.8490 H   0  0  0  0  0  0  0  0  0  0  0  0
   35.6190   30.5980   37.4940 H   0  0  0  0  0  0  0  0  0  0  0  0
   34.2320   26.6250   37.3150 H   0  0  0  0  0  0  0  0  0  0  0  0
   38.1280   30.4710   41.9500 O   0  0  0  0  0  0  0  0  0  0  0  0
   38.0720   29.2590   42.5500 C   0  0  0  0  0  0  0  0  0  0  0  0
   36.8800   28.7730   42.5040 O   0  0  0  0  0  0  0  0  0  0  0  0
   38.4100   28.0050   43.2640 C   0  0  2  0  0  3  0  0  0  0  0  0
   39.9030   27.7490   43.2840 C   0  0  0  0  0  3  0  0  0  0  0  0
   40.3620   27.7900   42.2790 H   0  0  0  0  0  0  0  0  0  0  0  0
   39.8550   26.2620   43.6720 C   0  0  0  0  0  3  0  0  0  0  0  0
   40.8180   25.7710   43.4690 H   0  0  0  0  0  0  0  0  0  0  0  0
   38.7940   25.7330   42.9540 O   0  0  0  0  0  0  0  0  0  0  0  0
   37.9360   26.7600   42.5950 C   0  0  0  0  0  3  0  0  0  0  0  0
   36.8690   26.5690   42.8960 H   0  0  0  0  0  0  0  0  0  0  0  0
  2  1  2  6  0  0  0
  2  3  1  0  0  0  0
  2 15  1  0  0  0  0
  4  3  1  0  0  0  0
  5  2  1  0  0  0  0
  6 12  1  0  0  0  0
  7  6  1  0  0  0  0
  7  5  1  0  0  0  0
  8  7  2  0  0  0  0
  9 10  2  0  0  0  0
  9  8  1  0  0  0  0
 10 11  1  0  0  0  0
 11  6  2  0  0  0  0
 13  8  1  0  0  0  0
 14 10  1  0  0  0  0
 15 16  1  0  0  0  0
 17 16  2  0  0  0  0
 18 16  1  6  0  0  0
 18 19  1  0  0  0  0
 19 21  1  0  0  0  0
 20 19  1  0  0  0  0
 22 21  1  0  0  0  0
 23 21  1  0  0  0  0
 24 25  1  0  0  0  0
 24 23  1  0  0  0  0
 24 18  1  0  0  0  0
M  END
>  <minimizedAffinity>
-4.37571383

$$$$

 OpenBabel03242514343D

 25 26  0  0  1  0  0  0  0  0999 V2000
   40.1120   30.9780   40.0600 O   0  0  0  0  0  0  0  0  0  0  0  0
   39.4800   31.8740   41.0740 P   0  0  1  0  0  0  0  0  0  0  0  0
   40.4350   33.2490   41.2000 O   0  0  0  0  0  0  0  0  0  0  0  0
   40.6490   33.6710   40.3530 H   0  0  0  0  0  0  0  0  0  0  0  0
   37.8780   32.2750   40.6200 O   0  0  0  0  0  0  0  0  0  0  0  0
   36.9720   30.9860   38.8110 C   0  0  0  0  0  0  0  0  0  0  0  0
   36.9990   31.2790   40.1720 C   0  0  0  0  0  0  0  0  0  0  0  0
   36.1530   30.5720   41.0330 C   0  0  0  0  0  0  0  0  0  0  0  0
   35.3380   29.6230   40.4850 N   0  0  0  0  0  0  0  0  0  0  0  0
   35.3380   29.3680   39.1750 C   0  0  0  0  0  0  0  0  0  0  0  0
   36.1470   30.0410   38.3390 N   0  0  0  0  0  0  0  0  0  0  0  0
   37.6110   31.5140   38.1310 H   0  0  0  0  0  0  0  0  0  0  0  0
   36.2060   30.8290   42.0700 H   0  0  0  0  0  0  0  0  0  0  0  0
   34.6440   28.5900   38.8620 H   0  0  0  0  0  0  0  0  0  0  0  0
   39.4810   31.0840   42.5480 O   0  0  0  0  0  0  0  0  0  0  0  0
   39.3090   29.7560   42.7400 C   0  0  0  0  0  0  0  0  0  0  0  0
   40.4400   29.1430   42.7870 O   0  0  0  0  0  0  0  0  0  0  0  0
   38.7230   28.4110   42.9520 C   0  0  2  0  0  3  0  0  0  0  0  0
   38.3060   27.7630   41.6480 C   0  0  0  0  0  3  0  0  0  0  0  0
   37.6500   28.4080   41.0340 H   0  0  0  0  0  0  0  0  0  0  0  0
   37.3990   26.6700   42.2380 C   0  0  0  0  0  3  0  0  0  0  0  0
   36.7450   26.2400   41.4650 H   0  0  0  0  0  0  0  0  0  0  0  0
   36.7140   27.2860   43.2740 O   0  0  0  0  0  0  0  0  0  0  0  0
   37.4220   28.4060   43.6800 C   0  0  0  0  0  3  0  0  0  0  0  0
   37.6250   28.4220   44.7860 H   0  0  0  0  0  0  0  0  0  0  0  0
  2  1  2  6  0  0  0
  2  3  1  0  0  0  0
  2 15  1  0  0  0  0
  4  3  1  0  0  0  0
  5  2  1  0  0  0  0
  6  7  1  0  0  0  0
  7  5  1  0  0  0  0
  7  8  2  0  0  0  0
  8 13  1  0  0  0  0
  9  8  1  0  0  0  0
 10  9  2  0  0  0  0
 11  6  2  0  0  0  0
 11 10  1  0  0  0  0
 12  6  1  0  0  0  0
 14 10  1  0  0  0  0
 15 16  1  0  0  0  0
 16 17  2  0  0  0  0
 18 16  1  6  0  0  0
 18 24  1  0  0  0  0
 19 21  1  0  0  0  0
 19 18  1  0  0  0  0
 20 19  1  0  0  0  0
 21 23  1  0  0  0  0
 22 21  1  0  0  0  0
 23 24  1  0  0  0  0
 24 25  1  0  0  0  0
M  END
>  <minimizedAffinity>
-4.35319901

$$$$

 OpenBabel03242514343D

 25 26  0  0  1  0  0  0  0  0999 V2000
   34.7140   29.2140   39.8880 O   0  0  0  0  0  0  0  0  0  0  0  0
   35.9430   29.6450   40.6190 P   0  0  1  0  0  0  0  0  0  0  0  0
   35.5620   31.0390   41.4720 O   0  0  0  0  0  0  0  0  0  0  0  0
   34.7610   30.9750   42.0150 H   0  0  0  0  0  0  0  0  0  0  0  0
   36.4920   28.4090   41.6700 O   0  0  0  0  0  0  0  0  0  0  0  0
   38.5880   29.0910   42.6190 C   0  0  0  0  0  0  0  0  0  0  0  0
   37.8650   28.1860   41.8450 C   0  0  0  0  0  0  0  0  0  0  0  0
   38.5340   27.0970   41.2770 C   0  0  0  0  0  0  0  0  0  0  0  0
   39.8750   26.9800   41.5150 N   0  0  0  0  0  0  0  0  0  0  0  0
   40.5350   27.8670   42.2610 C   0  0  0  0  0  0  0  0  0  0  0  0
   39.9020   28.9160   42.8130 N   0  0  0  0  0  0  0  0  0  0  0  0
   38.0970   29.9330   43.0650 H   0  0  0  0  0  0  0  0  0  0  0  0
   37.9420   26.4270   40.6900 H   0  0  0  0  0  0  0  0  0  0  0  0
   41.5980   27.6630   42.3770 H   0  0  0  0  0  0  0  0  0  0  0  0
   37.1240   30.0110   39.4940 O   0  0  0  0  0  0  0  0  0  0  0  0
   37.7620   31.1980   39.3650 C   0  0  0  0  0  0  0  0  0  0  0  0
   36.9600   32.1110   38.9410 O   0  0  0  0  0  0  0  0  0  0  0  0
   38.7780   32.2770   39.3600 C   0  0  2  0  0  3  0  0  0  0  0  0
   39.9930   31.9140   40.1880 C   0  0  0  0  0  3  0  0  0  0  0  0
   39.7370   31.5910   41.2140 H   0  0  0  0  0  0  0  0  0  0  0  0
   40.5850   33.3270   40.3210 C   0  0  0  0  0  3  0  0  0  0  0  0
   41.3290   33.3690   41.1300 H   0  0  0  0  0  0  0  0  0  0  0  0
   39.4950   34.1610   40.5180 O   0  0  0  0  0  0  0  0  0  0  0  0
   38.3550   33.5330   40.0440 C   0  0  0  0  0  3  0  0  0  0  0  0
   37.7740   34.1640   39.3170 H   0  0  0  0  0  0  0  0  0  0  0  0
  2  1  2  6  0  0  0
  2  3  1  0  0  0  0
  2  5  1  0  0  0  0
  3  4  1  0  0  0  0
  5  7  1  0  0  0  0
  6 11  1  0  0  0  0
  6 12  1  0  0  0  0
  7  6  2  0  0  0  0
  8  9  2  0  0  0  0
  8  7  1  0  0  0  0
  9 10  1  0  0  0  0
 10 14  1  0  0  0  0
 10 11  2  0  0  0  0
 13  8  1  0  0  0  0
 15  2  1  0  0  0  0
 16 15  1  0  0  0  0
 17 16  2  0  0  0  0
 18 16  1  1  0  0  0
 18 24  1  0  0  0  0
 18 19  1  0  0  0  0
 19 21  1  0  0  0  0
 19 20  1  0  0  0  0
 21 23  1  0  0  0  0
 21 22  1  0  0  0  0
 24 23  1  0  0  0  0
 25 24  1  0  0  0  0
M  END
>  <minimizedAffinity>
-4.30346298

$$$$

 OpenBabel03242514343D

 25 26  0  0  1  0  0  0  0  0999 V2000
   39.2700   30.1640   43.2050 O   0  0  0  0  0  0  0  0  0  0  0  0
   38.3360   29.1030   42.7220 P   0  0  1  0  0  0  0  0  0  0  0  0
   36.9590   29.1650   43.6800 O   0  0  0  0  0  0  0  0  0  0  0  0
   36.5690   30.0480   43.7700 H   0  0  0  0  0  0  0  0  0  0  0  0
   37.9490   29.3390   41.0700 O   0  0  0  0  0  0  0  0  0  0  0  0
   39.2180   30.8880   39.7480 C   0  0  0  0  0  0  0  0  0  0  0  0
   38.0720   30.6090   40.4880 C   0  0  0  0  0  0  0  0  0  0  0  0
   37.0950   31.6000   40.6200 C   0  0  0  0  0  0  0  0  0  0  0  0
   37.3210   32.8020   40.0100 N   0  0  0  0  0  0  0  0  0  0  0  0
   38.4320   33.0340   39.3080 C   0  0  0  0  0  0  0  0  0  0  0  0
   39.3770   32.0880   39.1730 N   0  0  0  0  0  0  0  0  0  0  0  0
   39.9810   30.1430   39.6310 H   0  0  0  0  0  0  0  0  0  0  0  0
   36.2300   31.3450   41.1970 H   0  0  0  0  0  0  0  0  0  0  0  0
   38.4940   34.0290   38.8700 H   0  0  0  0  0  0  0  0  0  0  0  0
   39.0720   27.6170   42.9350 O   0  0  0  0  0  0  0  0  0  0  0  0
   38.5170   26.4090   42.6790 C   0  0  0  0  0  0  0  0  0  0  0  0
   37.2380   26.4470   42.8210 O   0  0  0  0  0  0  0  0  0  0  0  0
   38.3010   24.9850   42.3290 C   0  0  2  0  0  3  0  0  0  0  0  0
   39.1650   24.5510   41.1630 C   0  0  0  0  0  3  0  0  0  0  0  0
   39.0680   25.2130   40.2820 H   0  0  0  0  0  0  0  0  0  0  0  0
   38.4080   23.2590   40.8120 C   0  0  0  0  0  3  0  0  0  0  0  0
   38.6770   22.9060   39.8050 H   0  0  0  0  0  0  0  0  0  0  0  0
   37.0650   23.5740   40.9550 O   0  0  0  0  0  0  0  0  0  0  0  0
   36.9470   24.6750   41.7870 C   0  0  0  0  0  3  0  0  0  0  0  0
   36.2420   24.5060   42.6460 H   0  0  0  0  0  0  0  0  0  0  0  0
  2 15  1  0  0  0  0
  2  1  2  1  0  0  0
  2  3  1  0  0  0  0
  3  4  1  0  0  0  0
  5  2  1  0  0  0  0
  6  7  1  0  0  0  0
  7  8  2  0  0  0  0
  7  5  1  0  0  0  0
  8 13  1  0  0  0  0
  9  8  1  0  0  0  0
 10  9  2  0  0  0  0
 11 10  1  0  0  0  0
 11  6  2  0  0  0  0
 12  6  1  0  0  0  0
 14 10  1  0  0  0  0
 16 17  2  0  0  0  0
 16 15  1  0  0  0  0
 18 16  1  6  0  0  0
 19 18  1  0  0  0  0
 20 19  1  0  0  0  0
 21 23  1  0  0  0  0
 21 19  1  0  0  0  0
 22 21  1  0  0  0  0
 23 24  1  0  0  0  0
 24 18  1  0  0  0  0
 24 25  1  0  0  0  0
M  END
>  <minimizedAffinity>
-4.28599405

$$$$

 OpenBabel03242514343D

 25 26  0  0  1  0  0  0  0  0999 V2000
   41.5120   29.8510   41.6960 O   0  0  0  0  0  0  0  0  0  0  0  0
   40.9850   31.1470   42.2190 P   0  0  1  0  0  0  0  0  0  0  0  0
   42.0680   31.7070   43.3720 O   0  0  0  0  0  0  0  0  0  0  0  0
   42.9940   31.7250   43.0810 H   0  0  0  0  0  0  0  0  0  0  0  0
   40.7910   32.2820   40.9510 O   0  0  0  0  0  0  0  0  0  0  0  0
   38.7190   33.4110   40.5190 C   0  0  0  0  0  0  0  0  0  0  0  0
   39.5830   32.3540   40.2440 C   0  0  0  0  0  0  0  0  0  0  0  0
   39.2130   31.4130   39.2780 C   0  0  0  0  0  0  0  0  0  0  0  0
   38.0110   31.5840   38.6510 N   0  0  0  0  0  0  0  0  0  0  0  0
   37.2080   32.6090   38.9400 C   0  0  0  0  0  0  0  0  0  0  0  0
   37.5530   33.5200   39.8660 N   0  0  0  0  0  0  0  0  0  0  0  0
   38.9810   34.1460   41.2550 H   0  0  0  0  0  0  0  0  0  0  0  0
   39.9050   30.6170   39.0970 H   0  0  0  0  0  0  0  0  0  0  0  0
   36.2790   32.6350   38.3730 H   0  0  0  0  0  0  0  0  0  0  0  0
   39.5150   30.8560   42.9610 O   0  0  0  0  0  0  0  0  0  0  0  0
   38.8310   29.6890   42.9440 C   0  0  0  0  0  0  0  0  0  0  0  0
   37.8390   29.7440   42.1240 O   0  0  0  0  0  0  0  0  0  0  0  0
   38.3680   28.3040   43.2000 C   0  0  2  0  0  3  0  0  0  0  0  0
   39.1460   27.2880   42.3900 C   0  0  0  0  0  3  0  0  0  0  0  0
   39.1710   27.5230   41.3100 H   0  0  0  0  0  0  0  0  0  0  0  0
   38.1740   26.1070   42.5470 C   0  0  0  0  0  3  0  0  0  0  0  0
   38.3810   25.3240   41.8020 H   0  0  0  0  0  0  0  0  0  0  0  0
   36.9080   26.6610   42.4420 O   0  0  0  0  0  0  0  0  0  0  0  0
   36.9830   28.0140   42.7300 C   0  0  0  0  0  3  0  0  0  0  0  0
   36.2550   28.3360   43.5240 H   0  0  0  0  0  0  0  0  0  0  0  0
  2  1  2  6  0  0  0
  2 15  1  0  0  0  0
  2  3  1  0  0  0  0
  4  3  1  0  0  0  0
  5  2  1  0  0  0  0
  6 12  1  0  0  0  0
  7  6  1  0  0  0  0
  7  5  1  0  0  0  0
  8  7  2  0  0  0  0
  9 10  2  0  0  0  0
  9  8  1  0  0  0  0
 10 11  1  0  0  0  0
 11  6  2  0  0  0  0
 13  8  1  0  0  0  0
 14 10  1  0  0  0  0
 16 15  1  0  0  0  0
 17 16  2  0  0  0  0
 18 16  1  6  0  0  0
 19 21  1  0  0  0  0
 19 18  1  0  0  0  0
 20 19  1  0  0  0  0
 22 21  1  0  0  0  0
 23 21  1  0  0  0  0
 23 24  1  0  0  0  0
 24 18  1  0  0  0  0
 24 25  1  0  0  0  0
M  END
>  <minimizedAffinity>
-4.25082636

$$$$

 OpenBabel03242514343D

 25 26  0  0  1  0  0  0  0  0999 V2000
   34.6930   28.6050   38.8600 O   0  0  0  0  0  0  0  0  0  0  0  0
   35.8270   29.2620   39.5760 P   0  0  1  0  0  0  0  0  0  0  0  0
   35.2710   29.7200   41.0920 O   0  0  0  0  0  0  0  0  0  0  0  0
   34.8230   29.0170   41.5880 H   0  0  0  0  0  0  0  0  0  0  0  0
   37.1650   28.2000   39.7050 O   0  0  0  0  0  0  0  0  0  0  0  0
   37.2550   26.8650   41.6960 C   0  0  0  0  0  0  0  0  0  0  0  0
   37.0200   26.9520   40.3260 C   0  0  0  0  0  0  0  0  0  0  0  0
   36.6520   25.7970   39.6290 C   0  0  0  0  0  0  0  0  0  0  0  0
   36.5410   24.6340   40.3380 N   0  0  0  0  0  0  0  0  0  0  0  0
   36.7740   24.5880   41.6510 C   0  0  0  0  0  0  0  0  0  0  0  0
   37.1280   25.6910   42.3310 N   0  0  0  0  0  0  0  0  0  0  0  0
   37.5380   27.7370   42.2530 H   0  0  0  0  0  0  0  0  0  0  0  0
   36.4810   25.9070   38.5790 H   0  0  0  0  0  0  0  0  0  0  0  0
   36.6520   23.6040   42.1010 H   0  0  0  0  0  0  0  0  0  0  0  0
   36.2610   30.6360   38.7270 O   0  0  0  0  0  0  0  0  0  0  0  0
   37.0780   31.6200   39.1680 C   0  0  0  0  0  0  0  0  0  0  0  0
   36.8890   31.8550   40.4190 O   0  0  0  0  0  0  0  0  0  0  0  0
   38.1000   32.6900   39.2600 C   0  0  2  0  0  3  0  0  0  0  0  0
   39.4430   32.2380   38.7250 C   0  0  0  0  0  3  0  0  0  0  0  0
   39.7930   31.2920   39.1770 H   0  0  0  0  0  0  0  0  0  0  0  0
   40.3010   33.3520   39.3480 C   0  0  0  0  0  3  0  0  0  0  0  0
   41.3670   33.0810   39.3390 H   0  0  0  0  0  0  0  0  0  0  0  0
   39.7820   33.5440   40.6190 O   0  0  0  0  0  0  0  0  0  0  0  0
   38.4810   33.0690   40.6500 C   0  0  0  0  0  3  0  0  0  0  0  0
   37.7440   33.8270   41.0350 H   0  0  0  0  0  0  0  0  0  0  0  0
  2  1  2  6  0  0  0
  2  5  1  0  0  0  0
  2  3  1  0  0  0  0
  3  4  1  0  0  0  0
  5  7  1  0  0  0  0
  6 12  1  0  0  0  0
  6 11  1  0  0  0  0
  7  6  2  0  0  0  0
  8  7  1  0  0  0  0
  8  9  2  0  0  0  0
  9 10  1  0  0  0  0
 10 14  1  0  0  0  0
 10 11  2  0  0  0  0
 13  8  1  0  0  0  0
 15 16  1  0  0  0  0
 15  2  1  0  0  0  0
 16 17  2  0  0  0  0
 18 16  1  1  0  0  0
 18 24  1  0  0  0  0
 19 20  1  0  0  0  0
 19 18  1  0  0  0  0
 19 21  1  0  0  0  0
 21 23  1  0  0  0  0
 22 21  1  0  0  0  0
 23 24  1  0  0  0  0
 24 25  1  0  0  0  0
M  END
>  <minimizedAffinity>
-4.10303879

$$$$
