
 OpenBabel03252508503D

 27 29  0  0  1  0  0  0  0  0999 V2000
   45.9580   34.1280   41.0470 C   0  0  0  0  0  0  0  0  0  0  0  0
   46.5290   34.7970   42.1240 C   0  0  0  0  0  0  0  0  0  0  0  0
   47.8550   35.2110   41.9670 C   0  0  0  0  0  0  0  0  0  0  0  0
   48.5030   34.9460   40.8020 N   0  0  0  0  0  0  0  0  0  0  0  0
   47.9060   34.2940   39.7860 C   0  0  0  0  0  0  0  0  0  0  0  0
   46.6270   33.8830   39.9110 N   0  0  0  0  0  0  0  0  0  0  0  0
   48.2960   35.7310   42.8060 H   0  0  0  0  0  0  0  0  0  0  0  0
   48.4880   34.1210   38.8920 H   0  0  0  0  0  0  0  0  0  0  0  0
   45.7550   35.0340   43.3290 C   0  0  0  0  0  0  0  0  0  0  0  0
   45.0500   36.2160   43.5410 C   0  0  0  0  0  0  0  0  0  0  0  0
   44.4770   36.0060   44.7870 C   0  0  0  0  0  0  0  0  0  0  0  0
   44.8150   34.7870   45.2880 N   0  0  0  0  0  0  0  0  0  0  0  0
   45.5870   34.2310   44.3780 N   0  0  0  0  0  0  0  0  0  0  0  0
   44.9300   37.1070   42.9420 H   0  0  0  0  0  0  0  0  0  0  0  0
   43.8330   36.7440   45.2930 H   0  0  0  0  0  0  0  0  0  0  0  0
   44.4810   34.4450   46.2170 H   0  0  0  0  0  0  0  0  0  0  0  0
   44.6480   33.7030   41.1640 O   0  0  0  0  0  0  0  0  0  0  0  0
   43.5340   34.3200   40.6700 C   0  0  0  0  0  0  0  0  0  0  0  0
   43.3380   35.5720   40.5290 O   0  0  0  0  0  0  0  0  0  0  0  0
   42.2060   33.8480   40.1390 C   0  0  2  0  0  3  0  0  0  0  0  0
   42.3630   32.9260   38.9850 C   0  0  0  0  0  3  0  0  0  0  0  0
   43.2510   33.0450   38.3710 H   0  0  0  0  0  0  0  0  0  0  0  0
   41.0800   33.2460   38.2040 C   0  0  0  0  0  3  0  0  0  0  0  0
   41.1210   32.9040   37.1720 H   0  0  0  0  0  0  0  0  0  0  0  0
   41.1250   34.6580   38.2610 O   0  0  0  0  0  0  0  0  0  0  0  0
   41.3720   34.9710   39.5810 C   0  0  0  0  0  3  0  0  0  0  0  0
   41.9020   35.9370   39.6870 H   0  0  0  0  0  0  0  0  0  0  0  0
  1 17  1  0  0  0  0
  1  2  1  0  0  0  0
  2  9  1  0  0  0  0
  3  2  2  0  0  0  0
  3  7  1  0  0  0  0
  4  3  1  0  0  0  0
  5  6  1  0  0  0  0
  5  4  2  0  0  0  0
  6  1  2  0  0  0  0
  8  5  1  0  0  0  0
  9 10  1  0  0  0  0
  9 13  2  0  0  0  0
 10 11  2  0  0  0  0
 11 12  1  0  0  0  0
 11 15  1  0  0  0  0
 12 16  1  0  0  0  0
 13 12  1  0  0  0  0
 14 10  1  0  0  0  0
 18 17  1  0  0  0  0
 19 18  2  0  0  0  0
 20 18  1  6  0  0  0
 21 20  1  0  0  0  0
 22 21  1  0  0  0  0
 23 25  1  0  0  0  0
 23 21  1  0  0  0  0
 24 23  1  0  0  0  0
 25 26  1  0  0  0  0
 26 27  1  0  0  0  0
 26 20  1  0  0  0  0
M  END
>  <minimizedAffinity>
-5.15095806

>  <minimizedRMSD>
0.939732075

$$$$
