
 OpenBabel03242517563D

 42 44  0  0  1  0  0  0  0  0999 V2000
   46.6740   31.3700   45.4700 O   0  0  0  0  0  0  0  0  0  0  0  0
   45.5640   30.1630   47.3020 C   0  0  0  0  0  0  0  0  0  0  0  0
   46.1600   31.2450   46.7520 C   0  0  0  0  0  0  0  0  0  0  0  0
   46.3000   32.3840   47.5210 C   0  0  0  0  0  0  0  0  0  0  0  0
   45.8610   32.4590   48.8220 C   0  0  0  0  0  0  0  0  0  0  0  0
   45.2550   31.3520   49.3770 C   0  0  0  0  0  0  0  0  0  0  0  0
   45.1140   30.2080   48.6050 C   0  0  0  0  0  0  0  0  0  0  0  0
   46.7620   33.2910   47.1630 H   0  0  0  0  0  0  0  0  0  0  0  0
   45.9610   33.3420   49.4400 H   0  0  0  0  0  0  0  0  0  0  0  0
   44.8870   31.3390   50.3910 H   0  0  0  0  0  0  0  0  0  0  0  0
   44.6400   29.3230   49.0250 H   0  0  0  0  0  0  0  0  0  0  0  0
   45.2980   28.8040   46.2570 S   0  0  0  0  0  0  0  0  0  0  0  0
   44.7760   29.1360   44.9200 O   0  0  0  0  0  0  0  0  0  0  0  0
   44.1730   27.9830   46.9350 O   0  0  0  0  0  0  0  0  0  0  0  0
   46.5940   27.6220   46.2090 C   0  0  1  0  0  0  0  0  0  0  0  0
   47.8260   28.0710   46.9690 C   0  0  0  0  0  0  0  0  0  0  0  0
   47.5140   28.8170   47.7150 H   0  0  0  0  0  0  0  0  0  0  0  0
   48.2210   26.8200   47.7050 C   0  0  0  0  0  0  0  0  0  0  0  0
   49.2430   26.4740   47.4390 H   0  0  0  0  0  0  0  0  0  0  0  0
   47.3480   25.8150   47.3830 O   0  0  0  0  0  0  0  0  0  0  0  0
   46.1510   26.4840   47.1150 C   0  0  0  0  0  0  0  0  0  0  0  0
   45.4470   25.7950   46.6010 H   0  0  0  0  0  0  0  0  0  0  0  0
   45.3810   34.2200   43.8470 C   0  0  0  0  0  0  0  0  0  0  0  0
   46.5100   34.7200   43.1660 C   0  0  0  0  0  0  0  0  0  0  0  0
   47.7070   34.0640   43.2770 C   0  0  0  0  0  0  0  0  0  0  0  0
   47.7150   32.9640   44.0470 N   0  0  0  0  0  0  0  0  0  0  0  0
   46.6550   32.4960   44.6860 C   0  0  0  0  0  0  0  0  0  0  0  0
   45.4870   33.1230   44.5870 N   0  0  0  0  0  0  0  0  0  0  0  0
   44.4360   34.7370   43.7600 H   0  0  0  0  0  0  0  0  0  0  0  0
   46.3390   35.6110   42.5870 H   0  0  0  0  0  0  0  0  0  0  0  0
   48.9360   34.4900   42.5990 C   0  0  0  0  0  0  0  0  0  0  0  0
   49.3160   33.6390   42.0180 H   0  0  0  0  0  0  0  0  0  0  0  0
   49.6730   34.7400   43.3620 H   0  0  0  0  0  0  0  0  0  0  0  0
   48.7220   35.6580   41.6820 C   0  0  0  0  0  0  0  0  0  0  0  0
   47.9620   36.3770   41.9900 H   0  0  0  0  0  0  0  0  0  0  0  0
   49.6930   36.2500   41.7460 H   0  0  0  0  0  0  0  0  0  0  0  0
   48.5930   35.2830   40.2750 C   0  0  0  0  0  0  0  0  0  0  0  0
   48.0670   34.3490   39.4900 C   0  0  0  0  0  0  0  0  0  0  0  0
   48.2410   34.2270   37.9880 C   0  0  0  0  0  0  0  0  0  0  0  0
   47.2360   34.2970   37.5670 H   0  0  0  0  0  0  0  0  0  0  0  0
   48.6500   33.2020   37.8360 H   0  0  0  0  0  0  0  0  0  0  0  0
   48.9460   34.9850   37.6510 H   0  0  0  0  0  0  0  0  0  0  0  0
  1  3  1  0  0  0  0
  2  7  1  0  0  0  0
  3  2  2  0  0  0  0
  3  4  1  0  0  0  0
  4  5  2  0  0  0  0
  5  6  1  0  0  0  0
  5  9  1  0  0  0  0
  6 10  1  0  0  0  0
  7 11  1  0  0  0  0
  7  6  2  0  0  0  0
  8  4  1  0  0  0  0
 12 14  2  0  0  0  0
 12  2  1  0  0  0  0
 13 12  2  0  0  0  0
 15 12  1  1  0  0  0
 15 16  1  0  0  0  0
 15 21  1  0  0  0  0
 16 18  1  0  0  0  0
 16 17  1  0  0  0  0
 19 18  1  0  0  0  0
 20 18  1  0  0  0  0
 21 20  1  0  0  0  0
 22 21  1  0  0  0  0
 23 28  1  0  0  0  0
 24 25  1  0  0  0  0
 24 23  2  0  0  0  0
 25 26  2  0  0  0  0
 26 27  1  0  0  0  0
 27  1  1  0  0  0  0
 28 27  2  0  0  0  0
 29 23  1  0  0  0  0
 30 24  1  0  0  0  0
 31 25  1  0  0  0  0
 31 33  1  0  0  0  0
 32 31  1  0  0  0  0
 34 36  1  0  0  0  0
 34 35  1  0  0  0  0
 34 31  1  0  0  0  0
 37 34  1  0  0  0  0
 38 37  2  0  0  0  0
 39 38  1  0  0  0  0
 40 39  1  0  0  0  0
 41 39  1  0  0  0  0
 42 39  1  0  0  0  0
M  END
>  <minimizedAffinity>
-5.70587587

>  <minimizedRMSD>
1.93401301

$$$$
