
 OpenBabel03242523543D

 44 47  0  0  1  0  0  0  0  0999 V2000
   42.8190   34.5260   38.7340 C   0  0  1  0  0  0  0  0  0  0  0  0
   42.9710   35.1830   40.0990 C   0  0  1  0  0  0  0  0  0  0  0  0
   41.6880   35.4170   40.6240 O   0  0  0  0  0  0  0  0  0  0  0  0
   40.7620   35.7710   39.6410 C   0  0  0  0  0  0  0  0  0  0  0  0
   40.4390   34.6100   38.7220 C   0  0  2  0  0  0  0  0  0  0  0  0
   41.6420   33.6120   38.8390 C   0  0  1  0  0  0  0  0  0  0  0  0
   43.7570   34.0030   38.4510 H   0  0  0  0  0  0  0  0  0  0  0  0
   43.5720   36.0980   40.0730 H   0  0  0  0  0  0  0  0  0  0  0  0
   41.0570   36.6900   39.1080 H   0  0  0  0  0  0  0  0  0  0  0  0
   39.8360   36.0080   40.1820 H   0  0  0  0  0  0  0  0  0  0  0  0
   39.5160   34.0840   39.0160 H   0  0  0  0  0  0  0  0  0  0  0  0
   41.4360   33.3230   39.9210 H   0  0  0  0  0  0  0  0  0  0  0  0
   42.6080   35.4910   37.7370 O   0  0  0  0  0  0  0  0  0  0  0  0
   43.5020   35.8960   37.5830 H   0  0  0  0  0  0  0  0  0  0  0  0
   40.4520   35.0400   37.4030 O   0  0  0  0  0  0  0  0  0  0  0  0
   40.7540   34.3820   36.7550 H   0  0  0  0  0  0  0  0  0  0  0  0
   43.5000   34.1880   40.9320 O   0  0  0  0  0  0  0  0  0  0  0  0
   44.6060   34.3160   41.6760 C   0  0  0  0  0  0  0  0  0  0  0  0
   45.8710   34.4300   41.0810 C   0  0  0  0  0  0  0  0  0  0  0  0
   46.9760   34.5610   41.9100 C   0  0  0  0  0  0  0  0  0  0  0  0
   46.8020   34.5750   43.2810 N   0  0  0  0  0  0  0  0  0  0  0  0
   45.5650   34.4620   43.8170 C   0  0  0  0  0  0  0  0  0  0  0  0
   44.4720   34.3330   43.0230 N   0  0  0  0  0  0  0  0  0  0  0  0
   46.0050   34.4180   40.0080 H   0  0  0  0  0  0  0  0  0  0  0  0
   45.5100   34.4810   44.8930 H   0  0  0  0  0  0  0  0  0  0  0  0
   48.3600   34.6720   41.3430 C   0  0  0  0  0  0  0  0  0  0  0  0
   49.0640   36.0170   41.5200 C   0  0  0  0  0  0  0  0  0  0  0  0
   49.5010   34.7080   42.2020 C   0  0  0  0  0  0  0  0  0  0  0  0
   48.3970   34.2780   40.3080 H   0  0  0  0  0  0  0  0  0  0  0  0
   49.6500   36.3740   40.6770 H   0  0  0  0  0  0  0  0  0  0  0  0
   48.5390   36.7140   42.1880 H   0  0  0  0  0  0  0  0  0  0  0  0
   49.3670   34.6480   43.3140 H   0  0  0  0  0  0  0  0  0  0  0  0
   50.5020   34.3680   41.8810 H   0  0  0  0  0  0  0  0  0  0  0  0
   41.4980   32.6870   37.8720 O   0  0  0  0  0  0  0  0  0  0  0  0
   40.7660   31.5490   37.8800 C   0  0  0  0  0  0  0  0  0  0  0  0
   39.4950   31.5570   37.5550 O   0  0  0  0  0  0  0  0  0  0  0  0
   40.8170   30.0780   38.1400 C   0  0  2  0  0  3  0  0  0  0  0  0
   40.7200   29.3850   36.7760 C   0  0  0  0  0  3  0  0  0  0  0  0
   41.6780   29.3140   36.2570 H   0  0  0  0  0  0  0  0  0  0  0  0
   40.2070   28.0180   37.1990 C   0  0  0  0  0  3  0  0  0  0  0  0
   39.5790   27.5380   36.4200 H   0  0  0  0  0  0  0  0  0  0  0  0
   39.4180   28.2260   38.3180 O   0  0  0  0  0  0  0  0  0  0  0  0
   39.6700   29.4790   38.8400 C   0  0  0  0  0  3  0  0  0  0  0  0
   39.7840   29.4180   39.9420 H   0  0  0  0  0  0  0  0  0  0  0  0
  1  7  1  6  0  0  0
  1  6  1  0  0  0  0
  1  2  1  0  0  0  0
  2  8  1  6  0  0  0
  2  3  1  0  0  0  0
  2 17  1  0  0  0  0
  4 10  1  0  0  0  0
  4  3  1  0  0  0  0
  5  6  1  0  0  0  0
  5 11  1  1  0  0  0
  5  4  1  0  0  0  0
  6 12  1  1  0  0  0
  9  4  1  0  0  0  0
 13  1  1  0  0  0  0
 14 13  1  0  0  0  0
 15  5  1  0  0  0  0
 16 15  1  0  0  0  0
 17 18  1  0  0  0  0
 18 23  1  0  0  0  0
 19 18  2  0  0  0  0
 19 20  1  0  0  0  0
 20 21  2  0  0  0  0
 21 22  1  0  0  0  0
 22 25  1  0  0  0  0
 23 22  2  0  0  0  0
 24 19  1  0  0  0  0
 26 27  1  0  0  0  0
 26 20  1  0  0  0  0
 26 28  1  0  0  0  0
 27 31  1  0  0  0  0
 27 28  1  0  0  0  0
 28 32  1  0  0  0  0
 29 26  1  0  0  0  0
 30 27  1  0  0  0  0
 33 28  1  0  0  0  0
 34 35  1  0  0  0  0
 34  6  1  0  0  0  0
 36 35  2  0  0  0  0
 37 35  1  6  0  0  0
 37 43  1  0  0  0  0
 38 40  1  0  0  0  0
 38 37  1  0  0  0  0
 39 38  1  0  0  0  0
 40 42  1  0  0  0  0
 41 40  1  0  0  0  0
 42 43  1  0  0  0  0
 43 44  1  0  0  0  0
M  END
>  <minimizedAffinity>
-5.73943186

>  <minimizedRMSD>
0.570910811

$$$$
