
 OpenBabel03242512273D

 21 22  0  0  1  0  0  0  0  0999 V2000
   44.8980   35.0840   44.3650 C   0  0  0  0  0  0  0  0  0  0  0  0
   45.8640   35.0680   43.3550 C   0  0  0  0  0  0  0  0  0  0  0  0
   46.9380   34.1770   43.4770 C   0  0  0  0  0  0  0  0  0  0  0  0
   46.9660   33.3870   44.5700 N   0  0  0  0  0  0  0  0  0  0  0  0
   46.0430   33.4080   45.5240 C   0  0  0  0  0  0  0  0  0  0  0  0
   45.0040   34.2710   45.4090 N   0  0  0  0  0  0  0  0  0  0  0  0
   43.8100   35.9850   44.2460 N   0  0  0  0  0  0  0  0  0  0  0  0
   45.7360   35.7450   42.5320 H   0  0  0  0  0  0  0  0  0  0  0  0
   47.6890   34.1620   42.6960 H   0  0  0  0  0  0  0  0  0  0  0  0
   43.6120   36.4750   43.3420 H   0  0  0  0  0  0  0  0  0  0  0  0
   43.1940   36.1600   45.0820 H   0  0  0  0  0  0  0  0  0  0  0  0
   46.0840   32.5550   46.6950 C   0  0  0  0  0  0  0  0  0  0  0  0
   45.5800   32.9080   47.8040 O   0  0  0  0  0  0  0  0  0  0  0  0
   46.7240   31.2320   46.6210 C   0  0  1  0  0  3  0  0  0  0  0  0
   46.9460   30.5570   47.9350 C   0  0  0  0  0  3  0  0  0  0  0  0
   47.9860   30.7590   48.2950 H   0  0  0  0  0  0  0  0  0  0  0  0
   46.7870   29.0880   47.5820 C   0  0  0  0  0  3  0  0  0  0  0  0
   45.9700   28.6360   48.1800 H   0  0  0  0  0  0  0  0  0  0  0  0
   46.5650   29.0220   46.2040 O   0  0  0  0  0  0  0  0  0  0  0  0
   45.8970   30.2150   45.8730 C   0  0  0  0  0  3  0  0  0  0  0  0
   46.0160   30.4060   44.7920 H   0  0  0  0  0  0  0  0  0  0  0  0
  1  6  1  0  0  0  0
  2  3  1  0  0  0  0
  2  1  2  0  0  0  0
  3  4  2  0  0  0  0
  4  5  1  0  0  0  0
  5 12  1  0  0  0  0
  6  5  2  0  0  0  0
  7  1  1  0  0  0  0
  7 11  1  0  0  0  0
  8  2  1  0  0  0  0
  9  3  1  0  0  0  0
 10  7  1  0  0  0  0
 12 13  2  0  0  0  0
 14 12  1  1  0  0  0
 14 15  1  0  0  0  0
 15 16  1  0  0  0  0
 17 15  1  0  0  0  0
 17 18  1  0  0  0  0
 19 17  1  0  0  0  0
 20 19  1  0  0  0  0
 20 14  1  0  0  0  0
 21 20  1  0  0  0  0
M  END
>  <minimizedAffinity>
-4.22275972

>  <minimizedRMSD>
1.62131882

$$$$
