
 OpenBabel03252509003D

 44 46  0  0  1  0  0  0  0  0999 V2000
   46.9140   34.4520   43.4270 N   0  0  0  0  0  0  0  0  0  0  0  0
   46.4000   35.4710   42.5850 C   0  0  0  0  0  0  0  0  0  0  0  0
   44.8970   35.6290   42.6020 C   0  0  0  0  0  0  0  0  0  0  0  0
   44.2620   35.3300   43.9340 C   0  0  0  0  0  0  0  0  0  0  0  0
   45.2880   35.0140   44.9910 C   0  0  0  0  0  0  0  0  0  0  0  0
   46.1040   33.8270   44.3620 C   0  0  2  0  0  0  0  0  0  0  0  0
   46.7080   35.4290   41.5370 H   0  0  0  0  0  0  0  0  0  0  0  0
   46.8100   36.4440   42.9660 H   0  0  0  0  0  0  0  0  0  0  0  0
   44.6430   36.6910   42.3470 H   0  0  0  0  0  0  0  0  0  0  0  0
   44.4910   35.0230   41.7710 H   0  0  0  0  0  0  0  0  0  0  0  0
   43.6440   34.4120   43.8210 H   0  0  0  0  0  0  0  0  0  0  0  0
   43.6350   36.1570   44.3230 H   0  0  0  0  0  0  0  0  0  0  0  0
   45.9690   35.8390   45.2190 H   0  0  0  0  0  0  0  0  0  0  0  0
   44.7830   34.5790   45.8710 H   0  0  0  0  0  0  0  0  0  0  0  0
   45.3510   33.0910   44.0050 H   0  0  0  0  0  0  0  0  0  0  0  0
   48.0120   33.7240   42.8630 C   0  0  0  0  0  0  0  0  0  0  0  0
   48.6370   33.2600   43.6590 H   0  0  0  0  0  0  0  0  0  0  0  0
   48.6550   34.4110   42.3100 H   0  0  0  0  0  0  0  0  0  0  0  0
   47.4680   32.6200   42.0070 C   0  0  0  0  0  0  0  0  0  0  0  0
   46.3530   32.6320   42.0000 H   0  0  0  0  0  0  0  0  0  0  0  0
   47.7580   31.6310   42.3790 H   0  0  0  0  0  0  0  0  0  0  0  0
   49.3690   32.1090   38.8070 C   0  0  0  0  0  0  0  0  0  0  0  0
   48.9050   31.9530   40.1250 C   0  0  0  0  0  0  0  0  0  0  0  0
   47.9450   32.8030   40.6100 C   0  0  0  0  0  0  0  0  0  0  0  0
   47.4890   33.7550   39.7910 N   0  0  0  0  0  0  0  0  0  0  0  0
   47.9340   33.9030   38.5280 C   0  0  0  0  0  0  0  0  0  0  0  0
   48.8670   33.0940   38.0260 N   0  0  0  0  0  0  0  0  0  0  0  0
   50.1290   31.4200   38.4530 H   0  0  0  0  0  0  0  0  0  0  0  0
   49.2900   31.1730   40.7710 H   0  0  0  0  0  0  0  0  0  0  0  0
   47.4600   34.7150   38.0200 H   0  0  0  0  0  0  0  0  0  0  0  0
   46.8310   33.3780   45.4570 O   0  0  0  0  0  0  0  0  0  0  0  0
   45.5270   31.1070   45.1210 O   0  0  0  0  0  0  0  0  0  0  0  0
   46.1780   31.9970   46.1550 P   0  0  2  0  0  0  0  0  0  0  0  0
   44.9010   32.5320   47.1620 O   0  0  0  0  0  0  0  0  0  0  0  0
   44.0990   32.7320   46.5990 H   0  0  0  0  0  0  0  0  0  0  0  0
   47.3050   31.2200   47.1040 O   0  0  0  0  0  0  0  0  0  0  0  0
   46.8260   30.2410   47.9140 C   0  0  2  0  0  3  0  0  0  0  0  0
   46.4420   29.0660   47.0230 C   0  0  0  0  0  3  0  0  0  0  0  0
   47.2900   28.3630   46.8930 H   0  0  0  0  0  0  0  0  0  0  0  0
   45.2790   28.4670   47.7720 C   0  0  0  0  0  3  0  0  0  0  0  0
   44.4090   28.3310   47.1100 H   0  0  0  0  0  0  0  0  0  0  0  0
   44.9990   29.2760   48.8600 O   0  0  0  0  0  0  0  0  0  0  0  0
   45.5010   30.5440   48.5610 C   0  0  0  0  0  3  0  0  0  0  0  0
   44.8550   31.0950   47.8610 H   0  0  0  0  0  0  0  0  0  0  0  0
  1  6  1  0  0  0  0
  2  3  1  0  0  0  0
  2  8  1  0  0  0  0
  2  1  1  0  0  0  0
  3  4  1  0  0  0  0
  4 12  1  0  0  0  0
  4  5  1  0  0  0  0
  5 13  1  0  0  0  0
  5 14  1  0  0  0  0
  6 15  1  6  0  0  0
  6  5  1  0  0  0  0
  6 31  1  0  0  0  0
  7  2  1  0  0  0  0
  9  3  1  0  0  0  0
 10  3  1  0  0  0  0
 11  4  1  0  0  0  0
 16  1  1  0  0  0  0
 16 17  1  0  0  0  0
 18 16  1  0  0  0  0
 19 21  1  0  0  0  0
 19 16  1  0  0  0  0
 20 19  1  0  0  0  0
 22 23  1  0  0  0  0
 23 24  2  0  0  0  0
 23 29  1  0  0  0  0
 24 19  1  0  0  0  0
 25 24  1  0  0  0  0
 26 25  2  0  0  0  0
 27 26  1  0  0  0  0
 27 22  2  0  0  0  0
 28 22  1  0  0  0  0
 30 26  1  0  0  0  0
 31 33  1  0  0  0  0
 33 32  2  6  0  0  0
 33 36  1  0  0  0  0
 33 34  1  0  0  0  0
 35 34  1  0  0  0  0
 37 36  1  6  0  0  0
 37 43  1  0  0  0  0
 38 40  1  0  0  0  0
 38 37  1  0  0  0  0
 39 38  1  0  0  0  0
 40 42  1  0  0  0  0
 41 40  1  0  0  0  0
 43 42  1  0  0  0  0
 44 43  1  0  0  0  0
M  END
>  <minimizedAffinity>
-4.39058495

>  <minimizedRMSD>
1.26869941

$$$$
