
 OpenBabel03242523303D

 21 22  0  0  1  0  0  0  0  0999 V2000
   45.3260   33.6010   46.5140 C   0  0  0  0  0  0  0  0  0  0  0  0
   45.5100   34.3100   47.3570 H   0  0  0  0  0  0  0  0  0  0  0  0
   44.3770   33.0390   46.6250 H   0  0  0  0  0  0  0  0  0  0  0  0
   44.6930   36.1530   43.8750 C   0  0  0  0  0  0  0  0  0  0  0  0
   45.5840   35.7380   42.8750 C   0  0  0  0  0  0  0  0  0  0  0  0
   46.3680   34.6190   43.1160 C   0  0  0  0  0  0  0  0  0  0  0  0
   46.2570   33.9620   44.2920 N   0  0  0  0  0  0  0  0  0  0  0  0
   45.3780   34.3830   45.2590 C   0  0  0  0  0  0  0  0  0  0  0  0
   44.6350   35.4560   45.0130 N   0  0  0  0  0  0  0  0  0  0  0  0
   44.0980   37.0280   43.6520 H   0  0  0  0  0  0  0  0  0  0  0  0
   45.7290   36.2070   41.9170 H   0  0  0  0  0  0  0  0  0  0  0  0
   47.0710   34.2580   42.3780 H   0  0  0  0  0  0  0  0  0  0  0  0
   46.7700   32.4860   46.4950 S   0  0  0  0  0  0  0  0  0  0  0  0
   46.8530   31.5510   48.0710 C   0  0  2  0  0  3  0  0  0  0  0  0
   46.2930   30.1790   47.8920 C   0  0  0  0  0  3  0  0  0  0  0  0
   46.0390   30.0260   46.8130 H   0  0  0  0  0  0  0  0  0  0  0  0
   45.0900   30.1320   48.7940 C   0  0  0  0  0  3  0  0  0  0  0  0
   45.0200   29.1800   49.3630 H   0  0  0  0  0  0  0  0  0  0  0  0
   45.2230   31.1660   49.7090 O   0  0  0  0  0  0  0  0  0  0  0  0
   45.9280   32.1780   49.0630 C   0  0  0  0  0  3  0  0  0  0  0  0
   46.4010   32.8320   49.8050 H   0  0  0  0  0  0  0  0  0  0  0  0
  1  3  1  0  0  0  0
  1  2  1  0  0  0  0
  4  9  1  0  0  0  0
  5  6  1  0  0  0  0
  5  4  2  0  0  0  0
  6  7  2  0  0  0  0
  7  8  1  0  0  0  0
  8  1  1  0  0  0  0
  9  8  2  0  0  0  0
 10  4  1  0  0  0  0
 11  5  1  0  0  0  0
 12  6  1  0  0  0  0
 13  1  1  0  0  0  0
 14 13  1  6  0  0  0
 14 20  1  0  0  0  0
 15 14  1  0  0  0  0
 15 17  1  0  0  0  0
 16 15  1  0  0  0  0
 17 18  1  0  0  0  0
 17 19  1  0  0  0  0
 20 19  1  0  0  0  0
 20 21  1  0  0  0  0
M  END
>  <minimizedAffinity>
-4.05318642

>  <minimizedRMSD>
1.94675231

$$$$
