
 OpenBabel03242516163D

 42 46  0  0  1  0  0  0  0  0999 V2000
   47.9230   34.4570   41.5670 C   0  0  0  0  0  0  0  0  0  0  0  0
   48.7970   35.6730   41.2380 C   0  0  0  0  0  0  0  0  0  0  0  0
   49.3350   34.5280   41.9260 C   0  0  0  0  0  0  0  0  0  0  0  0
   48.4970   36.6250   41.7560 H   0  0  0  0  0  0  0  0  0  0  0  0
   49.0470   35.8780   40.1780 H   0  0  0  0  0  0  0  0  0  0  0  0
   50.0250   33.8580   41.3460 H   0  0  0  0  0  0  0  0  0  0  0  0
   49.7570   34.7290   42.9110 H   0  0  0  0  0  0  0  0  0  0  0  0
   47.5260   33.6650   40.3700 C   0  0  0  0  0  0  0  0  0  0  0  0
   48.0420   34.2060   39.0470 C   0  0  0  0  0  0  0  0  0  0  0  0
   47.6170   33.1550   38.0120 C   0  0  0  0  0  0  0  0  0  0  0  0
   46.2430   33.3530   37.8080 O   0  0  0  0  0  0  0  0  0  0  0  0
   45.6630   32.8190   38.9870 C   0  0  0  0  0  0  0  0  0  0  0  0
   45.9960   33.6920   40.1750 C   0  0  0  0  0  0  0  0  0  0  0  0
   47.8400   32.6070   40.3980 H   0  0  0  0  0  0  0  0  0  0  0  0
   49.1420   34.1560   39.0650 H   0  0  0  0  0  0  0  0  0  0  0  0
   47.6310   35.1870   38.8040 H   0  0  0  0  0  0  0  0  0  0  0  0
   47.7830   32.1590   38.4390 H   0  0  0  0  0  0  0  0  0  0  0  0
   48.1030   33.3120   37.0350 H   0  0  0  0  0  0  0  0  0  0  0  0
   44.5610   32.9280   38.8380 H   0  0  0  0  0  0  0  0  0  0  0  0
   45.9840   31.7840   39.1740 H   0  0  0  0  0  0  0  0  0  0  0  0
   45.6260   34.7120   40.0400 H   0  0  0  0  0  0  0  0  0  0  0  0
   45.5920   33.1590   41.0630 H   0  0  0  0  0  0  0  0  0  0  0  0
   46.2250   35.8880   42.7290 C   0  0  0  0  0  0  0  0  0  0  0  0
   46.8790   34.6730   42.6150 C   0  0  0  0  0  0  0  0  0  0  0  0
   46.5310   33.6770   43.5200 C   0  0  0  0  0  0  0  0  0  0  0  0
   45.5790   33.9090   44.4740 N   0  0  0  0  0  0  0  0  0  0  0  0
   44.9880   35.1080   44.5250 C   0  0  0  0  0  0  0  0  0  0  0  0
   45.2930   36.0770   43.6820 N   0  0  0  0  0  0  0  0  0  0  0  0
   43.9890   35.4220   45.4880 N   0  0  0  0  0  0  0  0  0  0  0  0
   46.5090   36.6470   42.0170 H   0  0  0  0  0  0  0  0  0  0  0  0
   43.0300   35.1040   45.2740 H   0  0  0  0  0  0  0  0  0  0  0  0
   44.4800   35.9390   46.2490 H   0  0  0  0  0  0  0  0  0  0  0  0
   47.1880   32.3890   43.5660 C   0  0  2  0  0  3  0  0  0  0  0  0
   48.2920   32.0620   44.0740 O   0  0  0  0  0  0  0  0  0  0  0  0
   47.3100   30.9490   43.2920 C   0  0  2  0  0  0  0  0  0  0  0  0
   46.1750   30.4240   42.4350 C   0  0  0  0  0  3  0  0  0  0  0  0
   46.5330   29.4060   42.1190 H   0  0  0  0  0  0  0  0  0  0  0  0
   45.0870   30.2060   43.4300 C   0  0  0  0  0  3  0  0  0  0  0  0
   44.7370   29.1320   43.4280 H   0  0  0  0  0  0  0  0  0  0  0  0
   45.6040   30.4070   44.7000 O   0  0  0  0  0  0  0  0  0  0  0  0
   46.9680   30.1450   44.5840 C   0  0  0  0  0  3  0  0  0  0  0  0
   47.5380   30.5360   45.4280 H   0  0  0  0  0  0  0  0  0  0  0  0
  1  3  1  0  0  0  0
  1 24  1  0  0  0  0
  2  1  1  0  0  0  0
  2  4  1  0  0  0  0
  2  3  1  0  0  0  0
  3  7  1  0  0  0  0
  5  2  1  0  0  0  0
  6  3  1  0  0  0  0
  8 14  1  0  0  0  0
  8  1  1  0  0  0  0
  9 15  1  0  0  0  0
  9  8  1  0  0  0  0
 10 17  1  0  0  0  0
 10  9  1  0  0  0  0
 11 10  1  0  0  0  0
 11 12  1  0  0  0  0
 12 20  1  0  0  0  0
 12 13  1  0  0  0  0
 13  8  1  0  0  0  0
 13 22  1  0  0  0  0
 16  9  1  0  0  0  0
 18 10  1  0  0  0  0
 19 12  1  0  0  0  0
 21 13  1  0  0  0  0
 23 28  1  0  0  0  0
 24 23  2  0  0  0  0
 24 25  1  0  0  0  0
 25 26  2  0  0  0  0
 26 27  1  0  0  0  0
 27 29  1  0  0  0  0
 28 27  2  0  0  0  0
 29 32  1  0  0  0  0
 30 23  1  0  0  0  0
 31 29  1  0  0  0  0
 33 25  1  6  0  0  0
 33 34  1  0  0  0  0
 35 36  1  6  0  0  0
 35 33  1  0  0  0  0
 35 34  1  0  0  0  0
 35 41  1  0  0  0  0
 36 38  1  0  0  0  0
 37 36  1  0  0  0  0
 38 40  1  0  0  0  0
 39 38  1  0  0  0  0
 41 40  1  0  0  0  0
 41 42  1  0  0  0  0
M  END
>  <minimizedAffinity>
-5.0103488

>  <minimizedRMSD>
1.55489671

$$$$
