
 OpenBabel03242521173D

 37 39  0  0  1  0  0  0  0  0999 V2000
   44.5080   35.6870   44.8160 C   0  0  0  0  0  0  0  0  0  0  0  0
   45.1220   35.6460   43.5380 C   0  0  0  0  0  0  0  0  0  0  0  0
   46.1140   34.6940   43.3470 C   0  0  0  0  0  0  0  0  0  0  0  0
   46.4370   33.8650   44.3840 N   0  0  0  0  0  0  0  0  0  0  0  0
   45.8370   33.9330   45.5750 C   0  0  0  0  0  0  0  0  0  0  0  0
   44.8560   34.8510   45.8160 N   0  0  0  0  0  0  0  0  0  0  0  0
   43.7290   36.3990   45.0390 H   0  0  0  0  0  0  0  0  0  0  0  0
   44.8090   36.3310   42.7810 H   0  0  0  0  0  0  0  0  0  0  0  0
   46.7420   34.6390   42.0670 N   0  0  0  0  0  0  0  0  0  0  0  0
   47.9470   35.2170   41.9270 C   0  0  0  0  0  0  0  0  0  0  0  0
   48.5540   35.1590   40.6740 C   0  0  0  0  0  0  0  0  0  0  0  0
   47.9090   34.5260   39.6590 C   0  0  0  0  0  0  0  0  0  0  0  0
   48.4920   34.4890   38.5190 O   0  0  0  0  0  0  0  0  0  0  0  0
   46.7050   33.9450   39.7900 N   0  0  0  0  0  0  0  0  0  0  0  0
   46.1560   34.0260   41.0200 C   0  0  0  0  0  0  0  0  0  0  0  0
   45.0340   33.5180   41.2560 O   0  0  0  0  0  0  0  0  0  0  0  0
   48.4030   35.7050   42.7780 H   0  0  0  0  0  0  0  0  0  0  0  0
   49.5280   35.6420   40.6140 H   0  0  0  0  0  0  0  0  0  0  0  0
   46.2220   33.4610   39.0000 H   0  0  0  0  0  0  0  0  0  0  0  0
   46.3980   32.9070   46.5030 C   0  0  0  0  0  0  0  0  0  0  0  0
   46.5510   31.9880   45.8720 H   0  0  0  0  0  0  0  0  0  0  0  0
   47.3980   33.1580   46.8760 H   0  0  0  0  0  0  0  0  0  0  0  0
   45.3910   32.6050   47.6020 C   0  0  0  0  0  0  0  0  0  0  0  0
   44.5390   33.3380   47.5620 H   0  0  0  0  0  0  0  0  0  0  0  0
   45.9140   32.7080   48.5650 H   0  0  0  0  0  0  0  0  0  0  0  0
   45.4800   30.1720   47.9590 C   0  0  0  0  0  0  0  0  0  0  0  0
   46.4820   30.4170   48.6570 O   0  0  0  0  0  0  0  0  0  0  0  0
   44.8380   31.2960   47.3830 N   0  0  0  0  0  0  0  0  0  0  0  0
   43.9840   31.1850   46.8110 H   0  0  0  0  0  0  0  0  0  0  0  0
   44.9540   28.7980   47.7170 C   0  0  1  0  0  0  0  0  0  0  0  0
   44.2960   28.7970   46.3430 C   0  0  0  0  0  0  0  0  0  0  0  0
   43.8590   29.8030   46.1520 H   0  0  0  0  0  0  0  0  0  0  0  0
   45.5080   28.5800   45.4660 C   0  0  0  0  0  0  0  0  0  0  0  0
   45.2260   27.8310   44.6820 H   0  0  0  0  0  0  0  0  0  0  0  0
   46.5620   28.1960   46.2540 O   0  0  0  0  0  0  0  0  0  0  0  0
   46.0570   27.7850   47.4760 C   0  0  0  0  0  0  0  0  0  0  0  0
   45.5420   26.8130   47.3500 H   0  0  0  0  0  0  0  0  0  0  0  0
  1  7  1  0  0  0  0
  1  6  1  0  0  0  0
  2  1  2  0  0  0  0
  3  2  1  0  0  0  0
  3  4  2  0  0  0  0
  4  5  1  0  0  0  0
  5  6  2  0  0  0  0
  5 20  1  0  0  0  0
  8  2  1  0  0  0  0
  9  3  1  0  0  0  0
 10  9  1  0  0  0  0
 10 17  1  0  0  0  0
 11 10  2  0  0  0  0
 12 14  1  0  0  0  0
 12 11  1  0  0  0  0
 13 12  2  0  0  0  0
 14 15  1  0  0  0  0
 15 16  2  0  0  0  0
 15  9  1  0  0  0  0
 18 11  1  0  0  0  0
 19 14  1  0  0  0  0
 20 22  1  0  0  0  0
 20 23  1  0  0  0  0
 21 20  1  0  0  0  0
 23 25  1  0  0  0  0
 24 23  1  0  0  0  0
 26 27  2  0  0  0  0
 28 23  1  0  0  0  0
 28 26  1  0  0  0  0
 29 28  1  0  0  0  0
 30 26  1  6  0  0  0
 31 30  1  0  0  0  0
 32 31  1  0  0  0  0
 33 35  1  0  0  0  0
 33 31  1  0  0  0  0
 34 33  1  0  0  0  0
 35 36  1  0  0  0  0
 36 30  1  0  0  0  0
 37 36  1  0  0  0  0
M  END
>  <minimizedAffinity>
-6.27490759

>  <minimizedRMSD>
0.834255219

$$$$
