
 OpenBabel03242523313D

 21 22  0  0  1  0  0  0  0  0999 V2000
   45.3300   33.4440   46.7880 C   0  0  0  0  0  0  0  0  0  0  0  0
   45.3700   34.1480   47.6540 H   0  0  0  0  0  0  0  0  0  0  0  0
   44.4630   32.7540   46.8350 H   0  0  0  0  0  0  0  0  0  0  0  0
   44.6350   36.0870   44.2570 C   0  0  0  0  0  0  0  0  0  0  0  0
   45.4600   35.6760   43.2000 C   0  0  0  0  0  0  0  0  0  0  0  0
   46.2220   34.5300   43.3680 C   0  0  0  0  0  0  0  0  0  0  0  0
   46.1530   33.8420   44.5300 N   0  0  0  0  0  0  0  0  0  0  0  0
   45.3390   34.2600   45.5540 C   0  0  0  0  0  0  0  0  0  0  0  0
   44.6170   35.3600   45.3780 N   0  0  0  0  0  0  0  0  0  0  0  0
   44.0570   36.9860   44.0910 H   0  0  0  0  0  0  0  0  0  0  0  0
   45.5680   36.1690   42.2490 H   0  0  0  0  0  0  0  0  0  0  0  0
   46.8730   34.1700   42.5840 H   0  0  0  0  0  0  0  0  0  0  0  0
   46.9130   32.5380   46.8270 S   0  0  0  0  0  0  0  0  0  0  0  0
   46.8690   31.2680   48.1500 C   0  0  2  0  0  3  0  0  0  0  0  0
   46.4000   29.9610   47.6020 C   0  0  0  0  0  3  0  0  0  0  0  0
   46.2730   30.0540   46.4940 H   0  0  0  0  0  0  0  0  0  0  0  0
   45.1100   29.6810   48.3220 C   0  0  0  0  0  3  0  0  0  0  0  0
   45.0250   28.6220   48.6490 H   0  0  0  0  0  0  0  0  0  0  0  0
   45.0910   30.4800   49.4550 O   0  0  0  0  0  0  0  0  0  0  0  0
   45.8110   31.6300   49.1420 C   0  0  0  0  0  3  0  0  0  0  0  0
   46.1680   32.1060   50.0620 H   0  0  0  0  0  0  0  0  0  0  0  0
  1 13  1  0  0  0  0
  1  3  1  0  0  0  0
  1  2  1  0  0  0  0
  4  9  1  0  0  0  0
  5  6  1  0  0  0  0
  5  4  2  0  0  0  0
  6  7  2  0  0  0  0
  7  8  1  0  0  0  0
  8  1  1  0  0  0  0
  9  8  2  0  0  0  0
 10  4  1  0  0  0  0
 11  5  1  0  0  0  0
 12  6  1  0  0  0  0
 14 13  1  6  0  0  0
 14 20  1  0  0  0  0
 15 14  1  0  0  0  0
 15 17  1  0  0  0  0
 16 15  1  0  0  0  0
 17 18  1  0  0  0  0
 17 19  1  0  0  0  0
 20 19  1  0  0  0  0
 20 21  1  0  0  0  0
M  END
>  <minimizedAffinity>
-4.00329208

>  <minimizedRMSD>
1.18251359

$$$$
