
 OpenBabel03252500233D

 24 25  0  0  1  0  0  0  0  0999 V2000
   34.7490   29.2760   39.7210 O   0  0  0  0  0  0  0  0  0  0  0  0
   35.9140   29.4760   40.6720 P   0  0  2  0  0  0  0  0  0  0  0  0
   35.7160   30.9610   41.4300 O   0  0  0  0  0  0  0  0  0  0  0  0
   35.6020   31.6440   40.7280 H   0  0  0  0  0  0  0  0  0  0  0  0
   37.3270   29.4210   39.7030 O   0  0  0  0  0  0  0  0  0  0  0  0
   39.3320   31.9120   38.1080 C   0  0  0  0  0  0  0  0  0  0  0  0
   39.8670   32.6640   39.1660 C   0  0  0  0  0  0  0  0  0  0  0  0
   39.4960   32.2630   40.4530 C   0  0  0  0  0  0  0  0  0  0  0  0
   38.6720   31.2100   40.6160 N   0  0  0  0  0  0  0  0  0  0  0  0
   38.1790   30.5100   39.5510 C   0  0  0  0  0  0  0  0  0  0  0  0
   38.5190   30.8750   38.3070 N   0  0  0  0  0  0  0  0  0  0  0  0
   40.5240   33.4980   38.9580 H   0  0  0  0  0  0  0  0  0  0  0  0
   39.8850   32.8140   41.2950 H   0  0  0  0  0  0  0  0  0  0  0  0
   39.6830   32.2860   36.8210 O   0  0  0  0  0  0  0  0  0  0  0  0
   38.9460   32.4640   36.1580 H   0  0  0  0  0  0  0  0  0  0  0  0
   35.8720   28.2230   41.7790 O   0  0  0  0  0  0  0  0  0  0  0  0
   37.1550   27.8320   42.0540 C   0  0  1  0  0  3  0  0  0  0  0  0
   37.7290   28.4270   43.3240 C   0  0  0  0  0  3  0  0  0  0  0  0
   38.1130   29.4530   43.1820 H   0  0  0  0  0  0  0  0  0  0  0  0
   38.7770   27.4110   43.6550 C   0  0  0  0  0  3  0  0  0  0  0  0
   39.7480   27.8260   43.3050 H   0  0  0  0  0  0  0  0  0  0  0  0
   38.5390   26.2620   42.9140 O   0  0  0  0  0  0  0  0  0  0  0  0
   37.2440   26.3490   42.4220 C   0  0  0  0  0  3  0  0  0  0  0  0
   36.5290   26.1640   43.2320 H   0  0  0  0  0  0  0  0  0  0  0  0
  2  1  2  6  0  0  0
  2  3  1  0  0  0  0
  2 16  1  0  0  0  0
  4  3  1  0  0  0  0
  5  2  1  0  0  0  0
  6 11  2  0  0  0  0
  6  7  1  0  0  0  0
  7  8  2  0  0  0  0
  8  9  1  0  0  0  0
  8 13  1  0  0  0  0
 10  5  1  0  0  0  0
 10  9  2  0  0  0  0
 11 10  1  0  0  0  0
 12  7  1  0  0  0  0
 14  6  1  0  0  0  0
 15 14  1  0  0  0  0
 17 16  1  1  0  0  0
 17 23  1  0  0  0  0
 17 18  1  0  0  0  0
 18 20  1  0  0  0  0
 19 18  1  0  0  0  0
 21 20  1  0  0  0  0
 22 20  1  0  0  0  0
 23 22  1  0  0  0  0
 23 24  1  0  0  0  0
M  END
>  <minimizedAffinity>
-5.14344549

$$$$

 OpenBabel03252500233D

 24 25  0  0  1  0  0  0  0  0999 V2000
   37.1100   29.3520   40.1380 O   0  0  0  0  0  0  0  0  0  0  0  0
   37.0860   30.3290   41.3000 P   0  0  2  0  0  0  0  0  0  0  0  0
   35.5580   31.0240   41.3590 O   0  0  0  0  0  0  0  0  0  0  0  0
   35.3630   31.3990   40.4690 H   0  0  0  0  0  0  0  0  0  0  0  0
   38.3140   31.4790   40.9730 O   0  0  0  0  0  0  0  0  0  0  0  0
   39.9200   31.7760   37.7950 C   0  0  0  0  0  0  0  0  0  0  0  0
   41.0920   31.0120   37.9190 C   0  0  0  0  0  0  0  0  0  0  0  0
   41.2920   30.3930   39.1570 C   0  0  0  0  0  0  0  0  0  0  0  0
   40.3850   30.5500   40.1400 N   0  0  0  0  0  0  0  0  0  0  0  0
   39.2590   31.3060   39.9670 C   0  0  0  0  0  0  0  0  0  0  0  0
   39.0440   31.9110   38.7900 N   0  0  0  0  0  0  0  0  0  0  0  0
   41.7750   30.9310   37.0850 H   0  0  0  0  0  0  0  0  0  0  0  0
   42.1790   29.7960   39.2950 H   0  0  0  0  0  0  0  0  0  0  0  0
   39.6950   32.4020   36.5800 O   0  0  0  0  0  0  0  0  0  0  0  0
   39.5220   33.3940   36.5770 H   0  0  0  0  0  0  0  0  0  0  0  0
   37.4060   29.4550   42.6890 O   0  0  0  0  0  0  0  0  0  0  0  0
   37.9080   28.2320   42.3370 C   0  0  1  0  0  3  0  0  0  0  0  0
   39.1840   27.8490   43.0590 C   0  0  0  0  0  3  0  0  0  0  0  0
   40.0840   28.3050   42.6090 H   0  0  0  0  0  0  0  0  0  0  0  0
   39.1230   26.3570   42.9550 C   0  0  0  0  0  3  0  0  0  0  0  0
   39.7930   26.0670   42.1160 H   0  0  0  0  0  0  0  0  0  0  0  0
   37.8370   25.9840   42.5920 O   0  0  0  0  0  0  0  0  0  0  0  0
   37.0120   27.0810   42.8050 C   0  0  0  0  0  3  0  0  0  0  0  0
   36.8410   27.2100   43.8790 H   0  0  0  0  0  0  0  0  0  0  0  0
  2  1  2  6  0  0  0
  2  3  1  0  0  0  0
  2 16  1  0  0  0  0
  4  3  1  0  0  0  0
  5  2  1  0  0  0  0
  6  7  2  0  0  0  0
  6 11  1  0  0  0  0
  7  8  1  0  0  0  0
  8 13  1  0  0  0  0
  8  9  2  0  0  0  0
 10  9  1  0  0  0  0
 10  5  1  0  0  0  0
 11 10  2  0  0  0  0
 12  7  1  0  0  0  0
 14  6  1  0  0  0  0
 15 14  1  0  0  0  0
 17 16  1  1  0  0  0
 17 23  1  0  0  0  0
 17 18  1  0  0  0  0
 19 18  1  0  0  0  0
 20 18  1  0  0  0  0
 21 20  1  0  0  0  0
 22 23  1  0  0  0  0
 22 20  1  0  0  0  0
 23 24  1  0  0  0  0
M  END
>  <minimizedAffinity>
-4.92606688

$$$$

 OpenBabel03252500233D

 24 25  0  0  1  0  0  0  0  0999 V2000
   36.8940   28.5160   39.8080 O   0  0  0  0  0  0  0  0  0  0  0  0
   36.8220   29.2210   41.1500 P   0  0  2  0  0  0  0  0  0  0  0  0
   35.4400   30.1750   41.1610 O   0  0  0  0  0  0  0  0  0  0  0  0
   35.4670   30.7540   40.3640 H   0  0  0  0  0  0  0  0  0  0  0  0
   38.2570   30.1510   41.2700 O   0  0  0  0  0  0  0  0  0  0  0  0
   39.5600   33.4420   40.7790 C   0  0  0  0  0  0  0  0  0  0  0  0
   38.5680   34.1060   40.0390 C   0  0  0  0  0  0  0  0  0  0  0  0
   37.4320   33.3550   39.7230 C   0  0  0  0  0  0  0  0  0  0  0  0
   37.3410   32.0740   40.1270 N   0  0  0  0  0  0  0  0  0  0  0  0
   38.3360   31.4730   40.8460 C   0  0  0  0  0  0  0  0  0  0  0  0
   39.4360   32.1710   41.1610 N   0  0  0  0  0  0  0  0  0  0  0  0
   38.7100   35.1390   39.7490 H   0  0  0  0  0  0  0  0  0  0  0  0
   36.6450   33.8280   39.1560 H   0  0  0  0  0  0  0  0  0  0  0  0
   40.6970   34.1610   41.1060 O   0  0  0  0  0  0  0  0  0  0  0  0
   41.5940   33.7770   40.8580 H   0  0  0  0  0  0  0  0  0  0  0  0
   36.7490   28.0380   42.3290 O   0  0  0  0  0  0  0  0  0  0  0  0
   37.9330   27.3520   42.3430 C   0  0  1  0  0  3  0  0  0  0  0  0
   38.7120   27.4780   43.6370 C   0  0  0  0  0  3  0  0  0  0  0  0
   39.2960   28.4140   43.6970 H   0  0  0  0  0  0  0  0  0  0  0  0
   39.5370   26.2300   43.5840 C   0  0  0  0  0  3  0  0  0  0  0  0
   40.5470   26.5300   43.2260 H   0  0  0  0  0  0  0  0  0  0  0  0
   39.0050   25.3800   42.6260 O   0  0  0  0  0  0  0  0  0  0  0  0
   37.7270   25.8350   42.3320 C   0  0  0  0  0  3  0  0  0  0  0  0
   37.0490   25.5870   43.1570 H   0  0  0  0  0  0  0  0  0  0  0  0
  2  1  2  6  0  0  0
  2  3  1  0  0  0  0
  2  5  1  0  0  0  0
  2 16  1  0  0  0  0
  4  3  1  0  0  0  0
  6 14  1  0  0  0  0
  6 11  1  0  0  0  0
  7  6  2  0  0  0  0
  8  7  1  0  0  0  0
  8  9  2  0  0  0  0
  9 10  1  0  0  0  0
 10 11  2  0  0  0  0
 10  5  1  0  0  0  0
 12  7  1  0  0  0  0
 13  8  1  0  0  0  0
 15 14  1  0  0  0  0
 17 16  1  1  0  0  0
 17 18  1  0  0  0  0
 18 19  1  0  0  0  0
 20 18  1  0  0  0  0
 21 20  1  0  0  0  0
 22 20  1  0  0  0  0
 23 17  1  0  0  0  0
 23 22  1  0  0  0  0
 23 24  1  0  0  0  0
M  END
>  <minimizedAffinity>
-4.75054693

$$$$

 OpenBabel03252500233D

 24 25  0  0  1  0  0  0  0  0999 V2000
   37.2050   28.5690   39.9070 O   0  0  0  0  0  0  0  0  0  0  0  0
   36.9710   29.1390   41.2930 P   0  0  2  0  0  0  0  0  0  0  0  0
   35.6000   30.1060   41.2310 O   0  0  0  0  0  0  0  0  0  0  0  0
   35.7260   30.7610   40.5050 H   0  0  0  0  0  0  0  0  0  0  0  0
   38.3830   30.0320   41.6800 O   0  0  0  0  0  0  0  0  0  0  0  0
   37.8330   33.1940   40.1070 C   0  0  0  0  0  0  0  0  0  0  0  0
   39.1070   33.7840   40.0490 C   0  0  0  0  0  0  0  0  0  0  0  0
   40.1570   33.0300   40.5820 C   0  0  0  0  0  0  0  0  0  0  0  0
   39.9120   31.8150   41.1080 N   0  0  0  0  0  0  0  0  0  0  0  0
   38.6520   31.2850   41.1390 C   0  0  0  0  0  0  0  0  0  0  0  0
   37.6270   31.9880   40.6360 N   0  0  0  0  0  0  0  0  0  0  0  0
   39.2280   34.7650   39.6110 H   0  0  0  0  0  0  0  0  0  0  0  0
   41.1510   33.4470   40.5570 H   0  0  0  0  0  0  0  0  0  0  0  0
   36.7730   33.9170   39.5880 O   0  0  0  0  0  0  0  0  0  0  0  0
   35.9700   34.0770   40.1740 H   0  0  0  0  0  0  0  0  0  0  0  0
   36.7520   27.8460   42.3310 O   0  0  0  0  0  0  0  0  0  0  0  0
   37.7350   26.9220   42.1010 C   0  0  1  0  0  3  0  0  0  0  0  0
   38.7900   26.8510   43.1870 C   0  0  0  0  0  3  0  0  0  0  0  0
   39.5590   27.6380   43.0900 H   0  0  0  0  0  0  0  0  0  0  0  0
   39.2970   25.4570   42.9880 C   0  0  0  0  0  3  0  0  0  0  0  0
   40.2420   25.5400   42.4080 H   0  0  0  0  0  0  0  0  0  0  0  0
   38.3960   24.7600   42.1960 O   0  0  0  0  0  0  0  0  0  0  0  0
   37.2120   25.4860   42.1790 C   0  0  0  0  0  3  0  0  0  0  0  0
   36.6970   25.3720   43.1400 H   0  0  0  0  0  0  0  0  0  0  0  0
  2  1  2  6  0  0  0
  2  5  1  0  0  0  0
  2 16  1  0  0  0  0
  3  2  1  0  0  0  0
  4  3  1  0  0  0  0
  6 11  1  0  0  0  0
  7  6  2  0  0  0  0
  7  8  1  0  0  0  0
  8  9  2  0  0  0  0
  9 10  1  0  0  0  0
 10  5  1  0  0  0  0
 11 10  2  0  0  0  0
 12  7  1  0  0  0  0
 13  8  1  0  0  0  0
 14  6  1  0  0  0  0
 14 15  1  0  0  0  0
 17 23  1  0  0  0  0
 17 16  1  1  0  0  0
 17 18  1  0  0  0  0
 19 18  1  0  0  0  0
 20 18  1  0  0  0  0
 21 20  1  0  0  0  0
 22 20  1  0  0  0  0
 23 22  1  0  0  0  0
 23 24  1  0  0  0  0
M  END
>  <minimizedAffinity>
-4.74809551

$$$$

 OpenBabel03252500233D

 24 25  0  0  1  0  0  0  0  0999 V2000
   35.8890   28.0660   41.7020 O   0  0  0  0  0  0  0  0  0  0  0  0
   37.2740   28.2280   42.3000 P   0  0  2  0  0  0  0  0  0  0  0  0
   37.1940   29.4260   43.4730 O   0  0  0  0  0  0  0  0  0  0  0  0
   36.8010   30.2290   43.0570 H   0  0  0  0  0  0  0  0  0  0  0  0
   38.3020   28.6570   40.9970 O   0  0  0  0  0  0  0  0  0  0  0  0
   37.3330   31.9010   39.8540 C   0  0  0  0  0  0  0  0  0  0  0  0
   37.4270   31.8230   38.4540 C   0  0  0  0  0  0  0  0  0  0  0  0
   37.8410   30.5930   37.9340 C   0  0  0  0  0  0  0  0  0  0  0  0
   38.1220   29.5730   38.7670 N   0  0  0  0  0  0  0  0  0  0  0  0
   38.0150   29.7010   40.1240 C   0  0  0  0  0  0  0  0  0  0  0  0
   37.6200   30.8700   40.6480 N   0  0  0  0  0  0  0  0  0  0  0  0
   37.1840   32.6850   37.8480 H   0  0  0  0  0  0  0  0  0  0  0  0
   37.9260   30.4910   36.8640 H   0  0  0  0  0  0  0  0  0  0  0  0
   36.9250   33.1070   40.3970 O   0  0  0  0  0  0  0  0  0  0  0  0
   37.5060   33.5360   41.1000 H   0  0  0  0  0  0  0  0  0  0  0  0
   37.7010   26.7550   42.9690 O   0  0  0  0  0  0  0  0  0  0  0  0
   37.8670   25.8430   41.9620 C   0  0  1  0  0  3  0  0  0  0  0  0
   39.1910   25.1080   41.9990 C   0  0  0  0  0  3  0  0  0  0  0  0
   40.0190   25.6910   41.5560 H   0  0  0  0  0  0  0  0  0  0  0  0
   38.8360   23.8620   41.2490 C   0  0  0  0  0  3  0  0  0  0  0  0
   39.2110   23.9950   40.2110 H   0  0  0  0  0  0  0  0  0  0  0  0
   37.4540   23.7640   41.1700 O   0  0  0  0  0  0  0  0  0  0  0  0
   36.9230   24.6460   42.1010 C   0  0  0  0  0  3  0  0  0  0  0  0
   37.0520   24.2380   43.1100 H   0  0  0  0  0  0  0  0  0  0  0  0
  2  1  2  6  0  0  0
  2 16  1  0  0  0  0
  2  3  1  0  0  0  0
  4  3  1  0  0  0  0
  5  2  1  0  0  0  0
  6 14  1  0  0  0  0
  6 11  1  0  0  0  0
  7  6  2  0  0  0  0
  8  7  1  0  0  0  0
  8  9  2  0  0  0  0
  9 10  1  0  0  0  0
 10 11  2  0  0  0  0
 10  5  1  0  0  0  0
 12  7  1  0  0  0  0
 13  8  1  0  0  0  0
 14 15  1  0  0  0  0
 17 18  1  0  0  0  0
 17 23  1  0  0  0  0
 17 16  1  1  0  0  0
 19 18  1  0  0  0  0
 20 18  1  0  0  0  0
 21 20  1  0  0  0  0
 22 20  1  0  0  0  0
 22 23  1  0  0  0  0
 23 24  1  0  0  0  0
M  END
>  <minimizedAffinity>
-4.70278883

$$$$

 OpenBabel03252500233D

 24 25  0  0  1  0  0  0  0  0999 V2000
   37.6700   29.9950   42.1860 O   0  0  0  0  0  0  0  0  0  0  0  0
   36.7810   29.0340   41.4190 P   0  0  2  0  0  0  0  0  0  0  0  0
   35.3340   29.8190   41.0910 O   0  0  0  0  0  0  0  0  0  0  0  0
   34.9750   30.1600   41.9440 H   0  0  0  0  0  0  0  0  0  0  0  0
   36.5680   27.6730   42.4380 O   0  0  0  0  0  0  0  0  0  0  0  0
   38.3310   24.5670   42.2990 C   0  0  0  0  0  0  0  0  0  0  0  0
   39.5080   24.7970   43.0310 C   0  0  0  0  0  0  0  0  0  0  0  0
   39.6540   26.0790   43.5700 C   0  0  0  0  0  0  0  0  0  0  0  0
   38.6950   27.0040   43.3720 N   0  0  0  0  0  0  0  0  0  0  0  0
   37.5680   26.7280   42.6520 C   0  0  0  0  0  0  0  0  0  0  0  0
   37.4030   25.5070   42.1230 N   0  0  0  0  0  0  0  0  0  0  0  0
   40.2340   24.0040   43.1480 H   0  0  0  0  0  0  0  0  0  0  0  0
   40.5440   26.2970   44.1390 H   0  0  0  0  0  0  0  0  0  0  0  0
   38.1580   23.3060   41.7530 O   0  0  0  0  0  0  0  0  0  0  0  0
   37.9680   23.2350   40.7670 H   0  0  0  0  0  0  0  0  0  0  0  0
   37.5840   28.6340   40.0080 O   0  0  0  0  0  0  0  0  0  0  0  0
   36.9870   29.2810   38.9600 C   0  0  1  0  0  3  0  0  0  0  0  0
   37.8590   30.3250   38.2930 C   0  0  0  0  0  3  0  0  0  0  0  0
   37.8660   31.2880   38.8340 H   0  0  0  0  0  0  0  0  0  0  0  0
   37.2340   30.3790   36.9340 C   0  0  0  0  0  3  0  0  0  0  0  0
   36.5700   31.2710   36.9220 H   0  0  0  0  0  0  0  0  0  0  0  0
   36.4200   29.2680   36.7690 O   0  0  0  0  0  0  0  0  0  0  0  0
   36.7580   28.3570   37.7610 C   0  0  0  0  0  3  0  0  0  0  0  0
   37.7170   27.8860   37.5170 H   0  0  0  0  0  0  0  0  0  0  0  0
  2  1  2  1  0  0  0
  2  5  1  0  0  0  0
  3  2  1  0  0  0  0
  3  4  1  0  0  0  0
  5 10  1  0  0  0  0
  6  7  1  0  0  0  0
  7 12  1  0  0  0  0
  7  8  2  0  0  0  0
  8 13  1  0  0  0  0
  9  8  1  0  0  0  0
 10  9  2  0  0  0  0
 11  6  2  0  0  0  0
 11 10  1  0  0  0  0
 14  6  1  0  0  0  0
 15 14  1  0  0  0  0
 16  2  1  0  0  0  0
 17 16  1  1  0  0  0
 18 19  1  0  0  0  0
 18 17  1  0  0  0  0
 20 18  1  0  0  0  0
 21 20  1  0  0  0  0
 22 20  1  0  0  0  0
 22 23  1  0  0  0  0
 23 17  1  0  0  0  0
 24 23  1  0  0  0  0
M  END
>  <minimizedAffinity>
-4.42461824

$$$$

 OpenBabel03252500233D

 24 25  0  0  1  0  0  0  0  0999 V2000
   37.2820   32.1630   38.4920 O   0  0  0  0  0  0  0  0  0  0  0  0
   38.4950   32.3140   39.3920 P   0  0  2  0  0  0  0  0  0  0  0  0
   39.0240   33.9040   39.2840 O   0  0  0  0  0  0  0  0  0  0  0  0
   39.1600   34.1130   38.3310 H   0  0  0  0  0  0  0  0  0  0  0  0
   39.6570   31.1980   38.8080 O   0  0  0  0  0  0  0  0  0  0  0  0
   42.3430   33.0450   37.3430 C   0  0  0  0  0  0  0  0  0  0  0  0
   43.5030   32.3710   37.7610 C   0  0  0  0  0  0  0  0  0  0  0  0
   43.3020   31.2500   38.5720 C   0  0  0  0  0  0  0  0  0  0  0  0
   42.0510   30.8780   38.9050 N   0  0  0  0  0  0  0  0  0  0  0  0
   40.9550   31.5690   38.4720 C   0  0  0  0  0  0  0  0  0  0  0  0
   41.1200   32.6480   37.6940 N   0  0  0  0  0  0  0  0  0  0  0  0
   44.4760   32.7280   37.4520 H   0  0  0  0  0  0  0  0  0  0  0  0
   44.1660   30.7030   38.9140 H   0  0  0  0  0  0  0  0  0  0  0  0
   42.5110   34.1590   36.5390 O   0  0  0  0  0  0  0  0  0  0  0  0
   42.0810   35.0240   36.8250 H   0  0  0  0  0  0  0  0  0  0  0  0
   38.0070   31.9450   40.9490 O   0  0  0  0  0  0  0  0  0  0  0  0
   38.0510   30.5870   41.1150 C   0  0  1  0  0  3  0  0  0  0  0  0
   38.8450   30.1320   42.3230 C   0  0  0  0  0  3  0  0  0  0  0  0
   39.9340   30.1060   42.1350 H   0  0  0  0  0  0  0  0  0  0  0  0
   38.2250   28.7930   42.5730 C   0  0  0  0  0  3  0  0  0  0  0  0
   38.9100   28.0350   42.1350 H   0  0  0  0  0  0  0  0  0  0  0  0
   37.0310   28.7130   41.8700 O   0  0  0  0  0  0  0  0  0  0  0  0
   36.6860   30.0030   41.4910 C   0  0  0  0  0  3  0  0  0  0  0  0
   36.3180   30.5560   42.3630 H   0  0  0  0  0  0  0  0  0  0  0  0
  2  1  2  6  0  0  0
  2 16  1  0  0  0  0
  3  2  1  0  0  0  0
  4  3  1  0  0  0  0
  5  2  1  0  0  0  0
  6 11  2  0  0  0  0
  6  7  1  0  0  0  0
  7  8  2  0  0  0  0
  8  9  1  0  0  0  0
  8 13  1  0  0  0  0
 10  5  1  0  0  0  0
 10  9  2  0  0  0  0
 11 10  1  0  0  0  0
 12  7  1  0  0  0  0
 14 15  1  0  0  0  0
 14  6  1  0  0  0  0
 17 16  1  1  0  0  0
 17 23  1  0  0  0  0
 17 18  1  0  0  0  0
 18 20  1  0  0  0  0
 19 18  1  0  0  0  0
 21 20  1  0  0  0  0
 22 20  1  0  0  0  0
 23 22  1  0  0  0  0
 23 24  1  0  0  0  0
M  END
>  <minimizedAffinity>
-4.33037519

$$$$

 OpenBabel03252500233D

 24 25  0  0  1  0  0  0  0  0999 V2000
   38.8140   31.8820   41.0980 O   0  0  0  0  0  0  0  0  0  0  0  0
   37.5130   31.8150   40.3200 P   0  0  2  0  0  0  0  0  0  0  0  0
   36.9220   33.3780   40.1630 O   0  0  0  0  0  0  0  0  0  0  0  0
   36.8710   33.7740   41.0650 H   0  0  0  0  0  0  0  0  0  0  0  0
   36.4680   30.8110   41.2360 O   0  0  0  0  0  0  0  0  0  0  0  0
   36.8470   27.2630   41.0450 C   0  0  0  0  0  0  0  0  0  0  0  0
   37.4420   26.9060   42.2660 C   0  0  0  0  0  0  0  0  0  0  0  0
   37.7010   27.9560   43.1520 C   0  0  0  0  0  0  0  0  0  0  0  0
   37.3820   29.2180   42.8090 N   0  0  0  0  0  0  0  0  0  0  0  0
   36.8040   29.5130   41.6060 C   0  0  0  0  0  0  0  0  0  0  0  0
   36.5450   28.5240   40.7380 N   0  0  0  0  0  0  0  0  0  0  0  0
   37.6700   25.8690   42.4730 H   0  0  0  0  0  0  0  0  0  0  0  0
   38.1570   27.7240   44.1020 H   0  0  0  0  0  0  0  0  0  0  0  0
   36.5780   26.2440   40.1470 O   0  0  0  0  0  0  0  0  0  0  0  0
   36.9360   26.3260   39.2090 H   0  0  0  0  0  0  0  0  0  0  0  0
   37.8610   31.1480   38.8270 O   0  0  0  0  0  0  0  0  0  0  0  0
   39.2170   30.9990   38.7140 C   0  0  1  0  0  3  0  0  0  0  0  0
   39.6540   29.6510   38.1770 C   0  0  0  0  0  3  0  0  0  0  0  0
   39.6690   28.8640   38.9520 H   0  0  0  0  0  0  0  0  0  0  0  0
   40.9970   29.9990   37.6160 C   0  0  0  0  0  3  0  0  0  0  0  0
   41.7510   29.6760   38.3680 H   0  0  0  0  0  0  0  0  0  0  0  0
   41.0960   31.3790   37.5130 O   0  0  0  0  0  0  0  0  0  0  0  0
   39.8130   31.8960   37.6260 C   0  0  0  0  0  3  0  0  0  0  0  0
   39.2570   31.7080   36.7010 H   0  0  0  0  0  0  0  0  0  0  0  0
  2  1  2  1  0  0  0
  2  5  1  0  0  0  0
  3  2  1  0  0  0  0
  3  4  1  0  0  0  0
  5 10  1  0  0  0  0
  6  7  1  0  0  0  0
  7 12  1  0  0  0  0
  7  8  2  0  0  0  0
  8 13  1  0  0  0  0
  9  8  1  0  0  0  0
 10  9  2  0  0  0  0
 11  6  2  0  0  0  0
 11 10  1  0  0  0  0
 14  6  1  0  0  0  0
 15 14  1  0  0  0  0
 16  2  1  0  0  0  0
 17 16  1  6  0  0  0
 18 17  1  0  0  0  0
 18 19  1  0  0  0  0
 20 18  1  0  0  0  0
 20 21  1  0  0  0  0
 22 20  1  0  0  0  0
 22 23  1  0  0  0  0
 23 17  1  0  0  0  0
 24 23  1  0  0  0  0
M  END
>  <minimizedAffinity>
-4.3101182

$$$$

 OpenBabel03252500233D

 24 25  0  0  1  0  0  0  0  0999 V2000
   36.0400   30.1730   38.9940 O   0  0  0  0  0  0  0  0  0  0  0  0
   36.9120   30.7260   40.1070 P   0  0  2  0  0  0  0  0  0  0  0  0
   36.5770   32.3640   40.2610 O   0  0  0  0  0  0  0  0  0  0  0  0
   36.6850   32.7790   39.3730 H   0  0  0  0  0  0  0  0  0  0  0  0
   38.5310   30.4330   39.6250 O   0  0  0  0  0  0  0  0  0  0  0  0
   40.6020   33.2920   40.1790 C   0  0  0  0  0  0  0  0  0  0  0  0
   41.2310   33.5170   38.9430 C   0  0  0  0  0  0  0  0  0  0  0  0
   40.8980   32.6280   37.9160 C   0  0  0  0  0  0  0  0  0  0  0  0
   40.0220   31.6320   38.1480 N   0  0  0  0  0  0  0  0  0  0  0  0
   39.4370   31.4570   39.3700 C   0  0  0  0  0  0  0  0  0  0  0  0
   39.7400   32.2950   40.3730 N   0  0  0  0  0  0  0  0  0  0  0  0
   41.9250   34.3390   38.8320 H   0  0  0  0  0  0  0  0  0  0  0  0
   41.3590   32.7660   36.9510 H   0  0  0  0  0  0  0  0  0  0  0  0
   40.9120   34.1570   41.2160 O   0  0  0  0  0  0  0  0  0  0  0  0
   41.2330   33.7640   42.0860 H   0  0  0  0  0  0  0  0  0  0  0  0
   36.5200   29.8950   41.5040 O   0  0  0  0  0  0  0  0  0  0  0  0
   37.5150   28.9960   41.7780 C   0  0  1  0  0  3  0  0  0  0  0  0
   37.7850   28.7950   43.2550 C   0  0  0  0  0  3  0  0  0  0  0  0
   38.4310   29.5820   43.6840 H   0  0  0  0  0  0  0  0  0  0  0  0
   38.3950   27.4280   43.2410 C   0  0  0  0  0  3  0  0  0  0  0  0
   39.4960   27.5680   43.3020 H   0  0  0  0  0  0  0  0  0  0  0  0
   38.1320   26.8320   42.0160 O   0  0  0  0  0  0  0  0  0  0  0  0
   37.1200   27.5630   41.4090 C   0  0  0  0  0  3  0  0  0  0  0  0
   36.1640   27.3460   41.8980 H   0  0  0  0  0  0  0  0  0  0  0  0
  2  1  2  6  0  0  0
  2  3  1  0  0  0  0
  2 16  1  0  0  0  0
  4  3  1  0  0  0  0
  5  2  1  0  0  0  0
  6 11  1  0  0  0  0
  6 14  1  0  0  0  0
  7  6  2  0  0  0  0
  8  9  2  0  0  0  0
  8  7  1  0  0  0  0
  9 10  1  0  0  0  0
 10  5  1  0  0  0  0
 10 11  2  0  0  0  0
 12  7  1  0  0  0  0
 13  8  1  0  0  0  0
 14 15  1  0  0  0  0
 17 16  1  1  0  0  0
 17 18  1  0  0  0  0
 18 19  1  0  0  0  0
 20 18  1  0  0  0  0
 20 21  1  0  0  0  0
 22 20  1  0  0  0  0
 23 17  1  0  0  0  0
 23 24  1  0  0  0  0
 23 22  1  0  0  0  0
M  END
>  <minimizedAffinity>
-4.30740023

$$$$
