
 OpenBabel03242523553D

 44 47  0  0  1  0  0  0  0  0999 V2000
   42.8100   34.3010   38.9840 C   0  0  1  0  0  0  0  0  0  0  0  0
   43.0060   35.1610   40.2250 C   0  0  1  0  0  0  0  0  0  0  0  0
   41.7420   35.5810   40.6770 O   0  0  0  0  0  0  0  0  0  0  0  0
   40.8570   35.8420   39.6300 C   0  0  0  0  0  0  0  0  0  0  0  0
   40.4460   34.5750   38.9070 C   0  0  2  0  0  0  0  0  0  0  0  0
   41.5600   33.5150   39.2120 C   0  0  1  0  0  0  0  0  0  0  0  0
   43.7040   33.6650   38.8110 H   0  0  0  0  0  0  0  0  0  0  0  0
   43.6810   36.0080   40.0630 H   0  0  0  0  0  0  0  0  0  0  0  0
   41.2320   36.6330   38.9590 H   0  0  0  0  0  0  0  0  0  0  0  0
   39.9500   36.2380   40.1040 H   0  0  0  0  0  0  0  0  0  0  0  0
   39.4800   34.1810   39.2630 H   0  0  0  0  0  0  0  0  0  0  0  0
   41.3230   33.4270   40.3220 H   0  0  0  0  0  0  0  0  0  0  0  0
   42.6890   35.1020   37.8380 O   0  0  0  0  0  0  0  0  0  0  0  0
   43.6140   35.4030   37.6380 H   0  0  0  0  0  0  0  0  0  0  0  0
   40.5050   34.7780   37.5350 O   0  0  0  0  0  0  0  0  0  0  0  0
   40.7570   34.0000   37.0110 H   0  0  0  0  0  0  0  0  0  0  0  0
   43.4430   34.2780   41.2220 O   0  0  0  0  0  0  0  0  0  0  0  0
   44.5990   34.3840   41.8910 C   0  0  0  0  0  0  0  0  0  0  0  0
   45.8210   34.5060   41.2120 C   0  0  0  0  0  0  0  0  0  0  0  0
   46.9800   34.6130   41.9660 C   0  0  0  0  0  0  0  0  0  0  0  0
   46.9010   34.5980   43.3460 N   0  0  0  0  0  0  0  0  0  0  0  0
   45.7020   34.4790   43.9630 C   0  0  0  0  0  0  0  0  0  0  0  0
   44.5570   34.3730   43.2430 N   0  0  0  0  0  0  0  0  0  0  0  0
   45.8810   34.5170   40.1330 H   0  0  0  0  0  0  0  0  0  0  0  0
   45.7220   34.4740   45.0410 H   0  0  0  0  0  0  0  0  0  0  0  0
   48.3230   34.7300   41.3080 C   0  0  0  0  0  0  0  0  0  0  0  0
   49.0750   36.0430   41.5210 C   0  0  0  0  0  0  0  0  0  0  0  0
   49.5220   34.6820   42.0820 C   0  0  0  0  0  0  0  0  0  0  0  0
   48.2750   34.4060   40.2500 H   0  0  0  0  0  0  0  0  0  0  0  0
   49.6090   36.4440   40.6620 H   0  0  0  0  0  0  0  0  0  0  0  0
   48.6190   36.7060   42.2700 H   0  0  0  0  0  0  0  0  0  0  0  0
   49.4670   34.5500   43.1940 H   0  0  0  0  0  0  0  0  0  0  0  0
   50.4890   34.3420   41.6670 H   0  0  0  0  0  0  0  0  0  0  0  0
   41.3480   32.4590   38.4070 O   0  0  0  0  0  0  0  0  0  0  0  0
   40.3070   31.5940   38.3880 C   0  0  0  0  0  0  0  0  0  0  0  0
   39.3760   31.6730   37.4670 O   0  0  0  0  0  0  0  0  0  0  0  0
   39.6960   30.4190   39.0800 C   0  0  2  0  0  3  0  0  0  0  0  0
   38.1750   30.5930   38.9890 C   0  0  0  0  0  3  0  0  0  0  0  0
   37.7560   30.2390   38.0440 H   0  0  0  0  0  0  0  0  0  0  0  0
   37.7300   29.7330   40.1600 C   0  0  0  0  0  3  0  0  0  0  0  0
   36.7860   30.0910   40.6190 H   0  0  0  0  0  0  0  0  0  0  0  0
   38.7310   29.8210   41.1120 O   0  0  0  0  0  0  0  0  0  0  0  0
   39.8790   30.3270   40.5380 C   0  0  0  0  0  3  0  0  0  0  0  0
   40.7610   29.7310   40.8540 H   0  0  0  0  0  0  0  0  0  0  0  0
  1  7  1  6  0  0  0
  1  6  1  0  0  0  0
  1  2  1  0  0  0  0
  2  8  1  6  0  0  0
  2  3  1  0  0  0  0
  2 17  1  0  0  0  0
  4 10  1  0  0  0  0
  4  3  1  0  0  0  0
  5  6  1  0  0  0  0
  5 11  1  1  0  0  0
  5  4  1  0  0  0  0
  6 12  1  1  0  0  0
  9  4  1  0  0  0  0
 13  1  1  0  0  0  0
 14 13  1  0  0  0  0
 15  5  1  0  0  0  0
 16 15  1  0  0  0  0
 17 18  1  0  0  0  0
 18 23  1  0  0  0  0
 19 18  2  0  0  0  0
 19 20  1  0  0  0  0
 20 21  2  0  0  0  0
 21 22  1  0  0  0  0
 22 25  1  0  0  0  0
 23 22  2  0  0  0  0
 24 19  1  0  0  0  0
 26 27  1  0  0  0  0
 26 20  1  0  0  0  0
 26 28  1  0  0  0  0
 27 28  1  0  0  0  0
 27 31  1  0  0  0  0
 28 32  1  0  0  0  0
 29 26  1  0  0  0  0
 30 27  1  0  0  0  0
 33 28  1  0  0  0  0
 34  6  1  0  0  0  0
 35 34  1  0  0  0  0
 36 35  2  0  0  0  0
 37 35  1  1  0  0  0
 37 43  1  0  0  0  0
 38 37  1  0  0  0  0
 38 40  1  0  0  0  0
 39 38  1  0  0  0  0
 40 41  1  0  0  0  0
 40 42  1  0  0  0  0
 43 44  1  0  0  0  0
 43 42  1  0  0  0  0
M  END
>  <minimizedAffinity>
-6.03275061

>  <minimizedRMSD>
1.80053675

$$$$
