
 OpenBabel03252509013D

 44 46  0  0  1  0  0  0  0  0999 V2000
   46.7240   34.5060   43.5080 N   0  0  0  0  0  0  0  0  0  0  0  0
   46.2440   35.5790   42.7140 C   0  0  0  0  0  0  0  0  0  0  0  0
   44.7460   35.7770   42.7280 C   0  0  0  0  0  0  0  0  0  0  0  0
   44.0920   35.4290   44.0380 C   0  0  0  0  0  0  0  0  0  0  0  0
   45.1000   35.0330   45.0860 C   0  0  0  0  0  0  0  0  0  0  0  0
   45.8890   33.8570   44.4040 C   0  0  2  0  0  0  0  0  0  0  0  0
   46.5610   35.5810   41.6680 H   0  0  0  0  0  0  0  0  0  0  0  0
   46.6770   36.5210   43.1460 H   0  0  0  0  0  0  0  0  0  0  0  0
   44.5230   36.8560   42.5250 H   0  0  0  0  0  0  0  0  0  0  0  0
   44.3320   35.2230   41.8650 H   0  0  0  0  0  0  0  0  0  0  0  0
   43.4510   34.5350   43.8750 H   0  0  0  0  0  0  0  0  0  0  0  0
   43.4840   36.2510   44.4640 H   0  0  0  0  0  0  0  0  0  0  0  0
   45.8000   35.8270   45.3600 H   0  0  0  0  0  0  0  0  0  0  0  0
   44.5760   34.5690   45.9390 H   0  0  0  0  0  0  0  0  0  0  0  0
   45.1200   33.1610   44.0060 H   0  0  0  0  0  0  0  0  0  0  0  0
   47.8070   33.7780   42.9170 C   0  0  0  0  0  0  0  0  0  0  0  0
   48.4150   33.2620   43.6940 H   0  0  0  0  0  0  0  0  0  0  0  0
   48.4700   34.4730   42.3990 H   0  0  0  0  0  0  0  0  0  0  0  0
   47.2410   32.7280   42.0080 C   0  0  0  0  0  0  0  0  0  0  0  0
   46.1310   32.8090   41.9470 H   0  0  0  0  0  0  0  0  0  0  0  0
   47.4520   31.7150   42.3700 H   0  0  0  0  0  0  0  0  0  0  0  0
   49.1210   32.0740   38.8210 C   0  0  0  0  0  0  0  0  0  0  0  0
   48.5850   31.9210   40.1120 C   0  0  0  0  0  0  0  0  0  0  0  0
   47.7980   32.9110   40.6410 C   0  0  0  0  0  0  0  0  0  0  0  0
   47.5760   33.9940   39.8900 N   0  0  0  0  0  0  0  0  0  0  0  0
   48.0900   34.1400   38.6530 C   0  0  0  0  0  0  0  0  0  0  0  0
   48.8580   33.1960   38.1100 N   0  0  0  0  0  0  0  0  0  0  0  0
   49.7390   31.2730   38.4310 H   0  0  0  0  0  0  0  0  0  0  0  0
   48.7790   31.0330   40.7020 H   0  0  0  0  0  0  0  0  0  0  0  0
   47.8090   35.0670   38.2010 H   0  0  0  0  0  0  0  0  0  0  0  0
   46.5940   33.3350   45.4810 O   0  0  0  0  0  0  0  0  0  0  0  0
   45.5210   31.0940   44.5880 O   0  0  0  0  0  0  0  0  0  0  0  0
   46.2760   31.7070   45.7450 P   0  0  2  0  0  0  0  0  0  0  0  0
   45.2000   31.6430   47.0750 O   0  0  0  0  0  0  0  0  0  0  0  0
   44.2750   31.8620   46.7610 H   0  0  0  0  0  0  0  0  0  0  0  0
   47.6670   30.8880   46.1550 O   0  0  0  0  0  0  0  0  0  0  0  0
   47.5300   29.9170   47.0950 C   0  0  2  0  0  3  0  0  0  0  0  0
   48.9230   29.5900   47.6160 C   0  0  0  0  0  3  0  0  0  0  0  0
   49.1840   30.2170   48.4910 H   0  0  0  0  0  0  0  0  0  0  0  0
   48.8010   28.1240   47.9460 C   0  0  0  0  0  3  0  0  0  0  0  0
   49.6160   27.5450   47.4830 H   0  0  0  0  0  0  0  0  0  0  0  0
   47.5480   27.6910   47.5480 O   0  0  0  0  0  0  0  0  0  0  0  0
   47.1080   28.5730   46.5610 C   0  0  0  0  0  3  0  0  0  0  0  0
   47.5880   28.3850   45.5880 H   0  0  0  0  0  0  0  0  0  0  0  0
  1  6  1  0  0  0  0
  2  3  1  0  0  0  0
  2  8  1  0  0  0  0
  2  1  1  0  0  0  0
  3  4  1  0  0  0  0
  4 12  1  0  0  0  0
  4  5  1  0  0  0  0
  5 13  1  0  0  0  0
  5 14  1  0  0  0  0
  6 15  1  6  0  0  0
  6  5  1  0  0  0  0
  6 31  1  0  0  0  0
  7  2  1  0  0  0  0
  9  3  1  0  0  0  0
 10  3  1  0  0  0  0
 11  4  1  0  0  0  0
 16  1  1  0  0  0  0
 16 17  1  0  0  0  0
 18 16  1  0  0  0  0
 19 21  1  0  0  0  0
 19 16  1  0  0  0  0
 20 19  1  0  0  0  0
 22 23  1  0  0  0  0
 23 24  2  0  0  0  0
 23 29  1  0  0  0  0
 24 19  1  0  0  0  0
 25 24  1  0  0  0  0
 26 25  2  0  0  0  0
 27 26  1  0  0  0  0
 27 22  2  0  0  0  0
 28 22  1  0  0  0  0
 30 26  1  0  0  0  0
 31 33  1  0  0  0  0
 33 32  2  6  0  0  0
 33 36  1  0  0  0  0
 33 34  1  0  0  0  0
 35 34  1  0  0  0  0
 37 36  1  6  0  0  0
 37 38  1  0  0  0  0
 38 40  1  0  0  0  0
 38 39  1  0  0  0  0
 41 40  1  0  0  0  0
 42 40  1  0  0  0  0
 43 37  1  0  0  0  0
 43 42  1  0  0  0  0
 44 43  1  0  0  0  0
M  END
>  <minimizedAffinity>
-4.22696972

>  <minimizedRMSD>
1.0297755

$$$$
