
 OpenBabel03242523543D

 44 47  0  0  1  0  0  0  0  0999 V2000
   42.8800   34.2240   39.1740 C   0  0  1  0  0  0  0  0  0  0  0  0
   43.1190   35.1510   40.3590 C   0  0  1  0  0  0  0  0  0  0  0  0
   41.8810   35.6830   40.7620 O   0  0  0  0  0  0  0  0  0  0  0  0
   41.0270   35.9300   39.6860 C   0  0  0  0  0  0  0  0  0  0  0  0
   40.5400   34.6470   39.0430 C   0  0  2  0  0  0  0  0  0  0  0  0
   41.5780   33.5400   39.4350 C   0  0  1  0  0  0  0  0  0  0  0  0
   43.7310   33.5210   39.0580 H   0  0  0  0  0  0  0  0  0  0  0  0
   43.8510   35.9390   40.1510 H   0  0  0  0  0  0  0  0  0  0  0  0
   41.4610   36.6480   38.9710 H   0  0  0  0  0  0  0  0  0  0  0  0
   40.1430   36.4160   40.1190 H   0  0  0  0  0  0  0  0  0  0  0  0
   39.5470   34.3420   39.4090 H   0  0  0  0  0  0  0  0  0  0  0  0
   41.3230   33.5420   40.5450 H   0  0  0  0  0  0  0  0  0  0  0  0
   42.8250   34.9520   37.9760 O   0  0  0  0  0  0  0  0  0  0  0  0
   43.7710   35.1770   37.7710 H   0  0  0  0  0  0  0  0  0  0  0  0
   40.6280   34.7530   37.6620 O   0  0  0  0  0  0  0  0  0  0  0  0
   40.8330   33.9260   37.1950 H   0  0  0  0  0  0  0  0  0  0  0  0
   43.4860   34.3100   41.4190 O   0  0  0  0  0  0  0  0  0  0  0  0
   44.6650   34.3420   42.0530 C   0  0  0  0  0  0  0  0  0  0  0  0
   45.8640   34.5190   41.3460 C   0  0  0  0  0  0  0  0  0  0  0  0
   47.0500   34.5420   42.0640 C   0  0  0  0  0  0  0  0  0  0  0  0
   47.0190   34.3940   43.4380 N   0  0  0  0  0  0  0  0  0  0  0  0
   45.8410   34.2260   44.0830 C   0  0  0  0  0  0  0  0  0  0  0  0
   44.6700   34.2000   43.3990 N   0  0  0  0  0  0  0  0  0  0  0  0
   45.8860   34.6330   40.2710 H   0  0  0  0  0  0  0  0  0  0  0  0
   45.8980   34.1170   45.1550 H   0  0  0  0  0  0  0  0  0  0  0  0
   48.3710   34.7120   41.3730 C   0  0  0  0  0  0  0  0  0  0  0  0
   49.0730   36.0550   41.5630 C   0  0  0  0  0  0  0  0  0  0  0  0
   49.5900   34.7150   42.1170 C   0  0  0  0  0  0  0  0  0  0  0  0
   48.3090   34.3810   40.3170 H   0  0  0  0  0  0  0  0  0  0  0  0
   49.5690   36.4730   40.6900 H   0  0  0  0  0  0  0  0  0  0  0  0
   48.6090   36.7020   42.3210 H   0  0  0  0  0  0  0  0  0  0  0  0
   49.5670   34.5860   43.2310 H   0  0  0  0  0  0  0  0  0  0  0  0
   50.5590   34.4130   41.6800 H   0  0  0  0  0  0  0  0  0  0  0  0
   41.3050   32.4470   38.6990 O   0  0  0  0  0  0  0  0  0  0  0  0
   40.3080   31.5440   38.8470 C   0  0  0  0  0  0  0  0  0  0  0  0
   39.6830   31.0460   37.8080 O   0  0  0  0  0  0  0  0  0  0  0  0
   39.5160   30.7680   39.8500 C   0  0  2  0  0  3  0  0  0  0  0  0
   38.3420   30.1380   39.0930 C   0  0  0  0  0  3  0  0  0  0  0  0
   38.6020   29.2010   38.5930 H   0  0  0  0  0  0  0  0  0  0  0  0
   37.3680   29.9110   40.2390 C   0  0  0  0  0  3  0  0  0  0  0  0
   36.3090   29.9650   39.9150 H   0  0  0  0  0  0  0  0  0  0  0  0
   37.5900   30.9310   41.1490 O   0  0  0  0  0  0  0  0  0  0  0  0
   38.8030   31.5370   40.8840 C   0  0  0  0  0  3  0  0  0  0  0  0
   39.3730   31.6800   41.8250 H   0  0  0  0  0  0  0  0  0  0  0  0
  1  7  1  6  0  0  0
  1  6  1  0  0  0  0
  1  2  1  0  0  0  0
  2  8  1  6  0  0  0
  2  3  1  0  0  0  0
  2 17  1  0  0  0  0
  4 10  1  0  0  0  0
  4  3  1  0  0  0  0
  5 11  1  1  0  0  0
  5  6  1  0  0  0  0
  5  4  1  0  0  0  0
  6 12  1  1  0  0  0
  9  4  1  0  0  0  0
 13  1  1  0  0  0  0
 14 13  1  0  0  0  0
 15  5  1  0  0  0  0
 16 15  1  0  0  0  0
 17 18  1  0  0  0  0
 18 23  1  0  0  0  0
 19 18  2  0  0  0  0
 19 20  1  0  0  0  0
 20 21  2  0  0  0  0
 21 22  1  0  0  0  0
 22 25  1  0  0  0  0
 23 22  2  0  0  0  0
 24 19  1  0  0  0  0
 26 27  1  0  0  0  0
 26 20  1  0  0  0  0
 26 28  1  0  0  0  0
 27 28  1  0  0  0  0
 27 31  1  0  0  0  0
 28 32  1  0  0  0  0
 29 26  1  0  0  0  0
 30 27  1  0  0  0  0
 33 28  1  0  0  0  0
 34 35  1  0  0  0  0
 34  6  1  0  0  0  0
 36 35  2  0  0  0  0
 37 35  1  6  0  0  0
 37 43  1  0  0  0  0
 38 37  1  0  0  0  0
 38 40  1  0  0  0  0
 39 38  1  0  0  0  0
 40 42  1  0  0  0  0
 41 40  1  0  0  0  0
 43 42  1  0  0  0  0
 43 44  1  0  0  0  0
M  END
>  <minimizedAffinity>
-6.13812542

>  <minimizedRMSD>
1.42018712

$$$$
