
 OpenBabel03252509003D

 44 46  0  0  1  0  0  0  0  0999 V2000
   46.6790   34.5150   43.5920 N   0  0  0  0  0  0  0  0  0  0  0  0
   46.1880   35.5360   42.7400 C   0  0  0  0  0  0  0  0  0  0  0  0
   44.6880   35.7230   42.7470 C   0  0  0  0  0  0  0  0  0  0  0  0
   44.0410   35.4450   44.0780 C   0  0  0  0  0  0  0  0  0  0  0  0
   45.0560   35.1180   45.1430 C   0  0  0  0  0  0  0  0  0  0  0  0
   45.8530   33.9110   44.5270 C   0  0  2  0  0  0  0  0  0  0  0  0
   46.5020   35.4820   41.6940 H   0  0  0  0  0  0  0  0  0  0  0  0
   46.6150   36.5050   43.1160 H   0  0  0  0  0  0  0  0  0  0  0  0
   44.4560   36.7880   42.4840 H   0  0  0  0  0  0  0  0  0  0  0  0
   44.2760   35.1190   41.9180 H   0  0  0  0  0  0  0  0  0  0  0  0
   43.4070   34.5390   43.9680 H   0  0  0  0  0  0  0  0  0  0  0  0
   43.4280   36.2860   44.4580 H   0  0  0  0  0  0  0  0  0  0  0  0
   45.7500   35.9320   45.3690 H   0  0  0  0  0  0  0  0  0  0  0  0
   44.5380   34.6990   46.0230 H   0  0  0  0  0  0  0  0  0  0  0  0
   45.0880   33.1870   44.1710 H   0  0  0  0  0  0  0  0  0  0  0  0
   47.7660   33.7620   43.0390 C   0  0  0  0  0  0  0  0  0  0  0  0
   48.3470   33.2490   43.8390 H   0  0  0  0  0  0  0  0  0  0  0  0
   48.4530   34.4400   42.5280 H   0  0  0  0  0  0  0  0  0  0  0  0
   47.2090   32.7070   42.1320 C   0  0  0  0  0  0  0  0  0  0  0  0
   46.1000   32.7940   42.0510 H   0  0  0  0  0  0  0  0  0  0  0  0
   47.4060   31.6970   42.5070 H   0  0  0  0  0  0  0  0  0  0  0  0
   49.2570   32.0840   39.0440 C   0  0  0  0  0  0  0  0  0  0  0  0
   48.6970   31.9460   40.3260 C   0  0  0  0  0  0  0  0  0  0  0  0
   47.7900   32.8720   40.7730 C   0  0  0  0  0  0  0  0  0  0  0  0
   47.4780   33.8800   39.9520 N   0  0  0  0  0  0  0  0  0  0  0  0
   48.0150   34.0110   38.7230 C   0  0  0  0  0  0  0  0  0  0  0  0
   48.9000   33.1280   38.2600 N   0  0  0  0  0  0  0  0  0  0  0  0
   49.9710   31.3340   38.7210 H   0  0  0  0  0  0  0  0  0  0  0  0
   48.9650   31.1200   40.9740 H   0  0  0  0  0  0  0  0  0  0  0  0
   47.6520   34.8740   38.2080 H   0  0  0  0  0  0  0  0  0  0  0  0
   46.5650   33.4570   45.6280 O   0  0  0  0  0  0  0  0  0  0  0  0
   45.6220   31.1150   44.8540 O   0  0  0  0  0  0  0  0  0  0  0  0
   46.2070   31.8650   46.0290 P   0  0  2  0  0  0  0  0  0  0  0  0
   44.9520   31.9390   47.1920 O   0  0  0  0  0  0  0  0  0  0  0  0
   44.0820   32.1090   46.7260 H   0  0  0  0  0  0  0  0  0  0  0  0
   47.5220   31.1160   46.7250 O   0  0  0  0  0  0  0  0  0  0  0  0
   47.7220   29.8200   46.3730 C   0  0  2  0  0  3  0  0  0  0  0  0
   46.9490   28.9590   47.3640 C   0  0  0  0  0  3  0  0  0  0  0  0
   45.9190   28.7600   47.0110 H   0  0  0  0  0  0  0  0  0  0  0  0
   47.8050   27.7190   47.4400 C   0  0  0  0  0  3  0  0  0  0  0  0
   48.0340   27.4600   48.4870 H   0  0  0  0  0  0  0  0  0  0  0  0
   48.9440   27.9300   46.6830 O   0  0  0  0  0  0  0  0  0  0  0  0
   49.1210   29.3110   46.5930 C   0  0  0  0  0  3  0  0  0  0  0  0
   49.5400   29.7390   47.5160 H   0  0  0  0  0  0  0  0  0  0  0  0
  1  6  1  0  0  0  0
  2  3  1  0  0  0  0
  2  8  1  0  0  0  0
  2  1  1  0  0  0  0
  3  4  1  0  0  0  0
  4 12  1  0  0  0  0
  4  5  1  0  0  0  0
  5 13  1  0  0  0  0
  5 14  1  0  0  0  0
  6 15  1  6  0  0  0
  6  5  1  0  0  0  0
  6 31  1  0  0  0  0
  7  2  1  0  0  0  0
  9  3  1  0  0  0  0
 10  3  1  0  0  0  0
 11  4  1  0  0  0  0
 16  1  1  0  0  0  0
 16 17  1  0  0  0  0
 18 16  1  0  0  0  0
 19 21  1  0  0  0  0
 19 16  1  0  0  0  0
 20 19  1  0  0  0  0
 22 23  1  0  0  0  0
 23 24  2  0  0  0  0
 23 29  1  0  0  0  0
 24 19  1  0  0  0  0
 25 24  1  0  0  0  0
 26 25  2  0  0  0  0
 27 26  1  0  0  0  0
 27 22  2  0  0  0  0
 28 22  1  0  0  0  0
 30 26  1  0  0  0  0
 31 33  1  0  0  0  0
 33 32  2  6  0  0  0
 33 36  1  0  0  0  0
 33 34  1  0  0  0  0
 35 34  1  0  0  0  0
 37 43  1  0  0  0  0
 37 36  1  1  0  0  0
 37 38  1  0  0  0  0
 38 40  1  0  0  0  0
 39 38  1  0  0  0  0
 40 41  1  0  0  0  0
 42 40  1  0  0  0  0
 43 42  1  0  0  0  0
 43 44  1  0  0  0  0
M  END
>  <minimizedAffinity>
-4.17757225

>  <minimizedRMSD>
1.15122521

$$$$
