
 OpenBabel03242516163D

 42 46  0  0  1  0  0  0  0  0999 V2000
   47.0520   33.7420   40.9220 C   0  0  0  0  0  0  0  0  0  0  0  0
   48.0870   34.7590   40.4280 C   0  0  0  0  0  0  0  0  0  0  0  0
   48.4870   33.4880   40.9750 C   0  0  0  0  0  0  0  0  0  0  0  0
   48.1170   35.7220   41.0070 H   0  0  0  0  0  0  0  0  0  0  0  0
   48.1530   34.9650   39.3410 H   0  0  0  0  0  0  0  0  0  0  0  0
   48.8780   32.7200   40.2550 H   0  0  0  0  0  0  0  0  0  0  0  0
   49.1350   33.5390   41.8500 H   0  0  0  0  0  0  0  0  0  0  0  0
   46.2530   33.1220   39.8290 C   0  0  0  0  0  0  0  0  0  0  0  0
   46.8230   33.3170   38.4330 C   0  0  0  0  0  0  0  0  0  0  0  0
   45.9060   32.4840   37.5270 C   0  0  0  0  0  0  0  0  0  0  0  0
   44.7260   33.2300   37.3870 O   0  0  0  0  0  0  0  0  0  0  0  0
   44.0880   33.0610   38.6420 C   0  0  0  0  0  0  0  0  0  0  0  0
   44.8620   33.7800   39.7230 C   0  0  0  0  0  0  0  0  0  0  0  0
   46.1000   32.0340   39.9350 H   0  0  0  0  0  0  0  0  0  0  0  0
   47.7990   32.8090   38.3910 H   0  0  0  0  0  0  0  0  0  0  0  0
   46.8360   34.3630   38.1260 H   0  0  0  0  0  0  0  0  0  0  0  0
   45.6820   31.5370   38.0330 H   0  0  0  0  0  0  0  0  0  0  0  0
   46.3210   32.3640   36.5120 H   0  0  0  0  0  0  0  0  0  0  0  0
   43.1220   33.6150   38.5480 H   0  0  0  0  0  0  0  0  0  0  0  0
   43.9660   32.0000   38.9040 H   0  0  0  0  0  0  0  0  0  0  0  0
   44.9380   34.8510   39.5160 H   0  0  0  0  0  0  0  0  0  0  0  0
   44.3560   33.5200   40.6780 H   0  0  0  0  0  0  0  0  0  0  0  0
   46.1650   35.4430   42.5350 C   0  0  0  0  0  0  0  0  0  0  0  0
   46.3180   34.1170   42.1700 C   0  0  0  0  0  0  0  0  0  0  0  0
   45.7730   33.1590   43.0170 C   0  0  0  0  0  0  0  0  0  0  0  0
   45.1180   33.5330   44.1570 N   0  0  0  0  0  0  0  0  0  0  0  0
   45.0070   34.8340   44.4460 C   0  0  0  0  0  0  0  0  0  0  0  0
   45.5120   35.7720   43.6650 N   0  0  0  0  0  0  0  0  0  0  0  0
   44.3380   35.3000   45.6120 N   0  0  0  0  0  0  0  0  0  0  0  0
   46.5940   36.1710   41.8640 H   0  0  0  0  0  0  0  0  0  0  0  0
   43.3090   35.3590   45.5570 H   0  0  0  0  0  0  0  0  0  0  0  0
   45.0870   35.4900   46.3120 H   0  0  0  0  0  0  0  0  0  0  0  0
   45.9270   31.7370   42.8010 C   0  0  2  0  0  3  0  0  0  0  0  0
   45.4150   30.9910   41.9250 O   0  0  0  0  0  0  0  0  0  0  0  0
   46.4590   30.3970   43.0960 C   0  0  2  0  0  0  0  0  0  0  0  0
   47.3800   30.3910   44.3000 C   0  0  0  0  0  3  0  0  0  0  0  0
   47.4990   29.2980   44.5360 H   0  0  0  0  0  0  0  0  0  0  0  0
   48.6760   30.8480   43.7240 C   0  0  0  0  0  3  0  0  0  0  0  0
   49.4930   30.0890   43.8960 H   0  0  0  0  0  0  0  0  0  0  0  0
   48.5450   30.9210   42.3450 O   0  0  0  0  0  0  0  0  0  0  0  0
   47.5320   30.0190   42.0290 C   0  0  0  0  0  3  0  0  0  0  0  0
   47.1320   30.1810   41.0260 H   0  0  0  0  0  0  0  0  0  0  0  0
  1  3  1  0  0  0  0
  1 24  1  0  0  0  0
  2  1  1  0  0  0  0
  2  3  1  0  0  0  0
  2  4  1  0  0  0  0
  3  7  1  0  0  0  0
  5  2  1  0  0  0  0
  6  3  1  0  0  0  0
  8 14  1  0  0  0  0
  8  1  1  0  0  0  0
  9  8  1  0  0  0  0
 10 17  1  0  0  0  0
 10  9  1  0  0  0  0
 11 10  1  0  0  0  0
 11 12  1  0  0  0  0
 12 20  1  0  0  0  0
 12 13  1  0  0  0  0
 13  8  1  0  0  0  0
 13 22  1  0  0  0  0
 15  9  1  0  0  0  0
 16  9  1  0  0  0  0
 18 10  1  0  0  0  0
 19 12  1  0  0  0  0
 21 13  1  0  0  0  0
 23 28  1  0  0  0  0
 24 23  2  0  0  0  0
 24 25  1  0  0  0  0
 25 26  2  0  0  0  0
 26 27  1  0  0  0  0
 27 29  1  0  0  0  0
 28 27  2  0  0  0  0
 29 32  1  0  0  0  0
 30 23  1  0  0  0  0
 31 29  1  0  0  0  0
 33 25  1  1  0  0  0
 33 35  1  0  0  0  0
 34 33  1  0  0  0  0
 35 34  1  1  0  0  0
 35 36  1  0  0  0  0
 36 37  1  0  0  0  0
 38 39  1  0  0  0  0
 38 36  1  0  0  0  0
 40 38  1  0  0  0  0
 41 40  1  0  0  0  0
 41 35  1  0  0  0  0
 42 41  1  0  0  0  0
M  END
>  <minimizedAffinity>
-4.39121342

>  <minimizedRMSD>
1.94916916

$$$$
