
 OpenBabel03242512053D

 19 20  0  0  1  0  0  0  0  0999 V2000
   47.1010   34.7230   42.0310 C   0  0  0  0  0  0  0  0  0  0  0  0
   48.0420   35.5350   41.8640 O   0  0  0  0  0  0  0  0  0  0  0  0
   45.3710   36.0100   43.2340 C   0  0  0  0  0  0  0  0  0  0  0  0
   46.2480   34.9200   43.1550 C   0  0  0  0  0  0  0  0  0  0  0  0
   46.2550   34.0210   44.2300 C   0  0  0  0  0  0  0  0  0  0  0  0
   45.4210   34.2420   45.2920 N   0  0  0  0  0  0  0  0  0  0  0  0
   44.5950   35.3140   45.3140 C   0  0  0  0  0  0  0  0  0  0  0  0
   44.5720   36.1830   44.2990 N   0  0  0  0  0  0  0  0  0  0  0  0
   45.3110   36.7390   42.4500 H   0  0  0  0  0  0  0  0  0  0  0  0
   46.9310   33.1730   44.1760 H   0  0  0  0  0  0  0  0  0  0  0  0
   44.0220   35.3050   46.2390 H   0  0  0  0  0  0  0  0  0  0  0  0
   46.9040   33.6020   41.0740 C   0  0  1  0  0  3  0  0  0  0  0  0
   47.2550   33.9330   39.6620 C   0  0  0  0  0  3  0  0  0  0  0  0
   46.4060   33.5540   39.0220 H   0  0  0  0  0  0  0  0  0  0  0  0
   48.4460   33.0490   39.3980 C   0  0  0  0  0  3  0  0  0  0  0  0
   49.4230   33.5670   39.5080 H   0  0  0  0  0  0  0  0  0  0  0  0
   48.3600   31.9780   40.2520 O   0  0  0  0  0  0  0  0  0  0  0  0
   47.7340   32.4060   41.4130 C   0  0  0  0  0  3  0  0  0  0  0  0
   47.1570   31.5490   41.8300 H   0  0  0  0  0  0  0  0  0  0  0  0
  1  4  1  0  0  0  0
  2  1  2  0  0  0  0
  3  8  1  0  0  0  0
  4  3  2  0  0  0  0
  4  5  1  0  0  0  0
  5  6  2  0  0  0  0
  6  7  1  0  0  0  0
  7 11  1  0  0  0  0
  8  7  2  0  0  0  0
  9  3  1  0  0  0  0
 10  5  1  0  0  0  0
 12 18  1  0  0  0  0
 12  1  1  1  0  0  0
 13 12  1  0  0  0  0
 14 13  1  0  0  0  0
 15 16  1  0  0  0  0
 15 13  1  0  0  0  0
 15 17  1  0  0  0  0
 17 18  1  0  0  0  0
 18 19  1  0  0  0  0
M  END
>  <minimizedAffinity>
-3.85391426

>  <minimizedRMSD>
0.782735169

$$$$
