
 OpenBabel03252509013D

 44 46  0  0  1  0  0  0  0  0999 V2000
   46.7340   34.3830   43.6470 N   0  0  0  0  0  0  0  0  0  0  0  0
   46.3130   35.1710   42.5460 C   0  0  0  0  0  0  0  0  0  0  0  0
   44.8170   35.3040   42.3760 C   0  0  0  0  0  0  0  0  0  0  0  0
   44.0500   35.3080   43.6720 C   0  0  0  0  0  0  0  0  0  0  0  0
   44.9630   35.2620   44.8700 C   0  0  0  0  0  0  0  0  0  0  0  0
   45.8310   33.9760   44.6160 C   0  0  2  0  0  0  0  0  0  0  0  0
   46.7250   34.8950   41.5710 H   0  0  0  0  0  0  0  0  0  0  0  0
   46.6900   36.2130   42.7300 H   0  0  0  0  0  0  0  0  0  0  0  0
   44.5970   36.2740   41.8600 H   0  0  0  0  0  0  0  0  0  0  0  0
   44.4930   34.5160   41.6720 H   0  0  0  0  0  0  0  0  0  0  0  0
   43.4410   34.3790   43.7130 H   0  0  0  0  0  0  0  0  0  0  0  0
   43.3930   36.1910   43.7960 H   0  0  0  0  0  0  0  0  0  0  0  0
   45.6220   36.1290   44.9680 H   0  0  0  0  0  0  0  0  0  0  0  0
   44.3700   35.0330   45.7720 H   0  0  0  0  0  0  0  0  0  0  0  0
   45.1130   33.1650   44.3650 H   0  0  0  0  0  0  0  0  0  0  0  0
   47.8790   33.5630   43.3780 C   0  0  0  0  0  0  0  0  0  0  0  0
   48.3560   33.2190   44.3220 H   0  0  0  0  0  0  0  0  0  0  0  0
   48.6230   34.1490   42.8360 H   0  0  0  0  0  0  0  0  0  0  0  0
   47.4330   32.3480   42.6220 C   0  0  0  0  0  0  0  0  0  0  0  0
   46.3460   32.4060   42.3770 H   0  0  0  0  0  0  0  0  0  0  0  0
   47.5620   31.4300   43.2060 H   0  0  0  0  0  0  0  0  0  0  0  0
   50.2110   31.6720   40.1840 C   0  0  0  0  0  0  0  0  0  0  0  0
   49.4750   31.7670   41.3780 C   0  0  0  0  0  0  0  0  0  0  0  0
   48.1940   32.2560   41.3480 C   0  0  0  0  0  0  0  0  0  0  0  0
   47.7000   32.6260   40.1620 N   0  0  0  0  0  0  0  0  0  0  0  0
   48.4070   32.5340   39.0180 C   0  0  0  0  0  0  0  0  0  0  0  0
   49.6540   32.0630   39.0140 N   0  0  0  0  0  0  0  0  0  0  0  0
   51.2210   31.2810   40.2420 H   0  0  0  0  0  0  0  0  0  0  0  0
   49.8970   31.4610   42.3280 H   0  0  0  0  0  0  0  0  0  0  0  0
   47.8550   32.8740   38.1690 H   0  0  0  0  0  0  0  0  0  0  0  0
   46.4410   33.8040   45.8510 O   0  0  0  0  0  0  0  0  0  0  0  0
   45.7350   31.2900   45.4570 O   0  0  0  0  0  0  0  0  0  0  0  0
   46.1660   32.2840   46.5110 P   0  0  2  0  0  0  0  0  0  0  0  0
   44.8190   32.4550   47.5530 O   0  0  0  0  0  0  0  0  0  0  0  0
   43.9800   32.4640   47.0070 H   0  0  0  0  0  0  0  0  0  0  0  0
   47.4710   31.7850   47.4190 O   0  0  0  0  0  0  0  0  0  0  0  0
   47.4830   30.4730   47.7710 C   0  0  2  0  0  3  0  0  0  0  0  0
   48.2640   29.7240   46.6990 C   0  0  0  0  0  3  0  0  0  0  0  0
   49.3410   29.6660   46.9500 H   0  0  0  0  0  0  0  0  0  0  0  0
   47.5790   28.3810   46.6880 C   0  0  0  0  0  3  0  0  0  0  0  0
   47.2860   28.0940   45.6650 H   0  0  0  0  0  0  0  0  0  0  0  0
   46.5010   28.4360   47.5550 O   0  0  0  0  0  0  0  0  0  0  0  0
   46.1490   29.7800   47.6800 C   0  0  0  0  0  3  0  0  0  0  0  0
   45.5890   30.1490   46.8070 H   0  0  0  0  0  0  0  0  0  0  0  0
  1  6  1  0  0  0  0
  2  8  1  0  0  0  0
  2  1  1  0  0  0  0
  3  2  1  0  0  0  0
  3  4  1  0  0  0  0
  4 11  1  0  0  0  0
  4 12  1  0  0  0  0
  4  5  1  0  0  0  0
  5 13  1  0  0  0  0
  5 14  1  0  0  0  0
  6 15  1  6  0  0  0
  6  5  1  0  0  0  0
  6 31  1  0  0  0  0
  7  2  1  0  0  0  0
  9  3  1  0  0  0  0
 10  3  1  0  0  0  0
 16  1  1  0  0  0  0
 16 17  1  0  0  0  0
 18 16  1  0  0  0  0
 19 21  1  0  0  0  0
 19 16  1  0  0  0  0
 20 19  1  0  0  0  0
 22 28  1  0  0  0  0
 22 23  1  0  0  0  0
 23 29  1  0  0  0  0
 24 23  2  0  0  0  0
 24 19  1  0  0  0  0
 25 24  1  0  0  0  0
 26 25  2  0  0  0  0
 27 26  1  0  0  0  0
 27 22  2  0  0  0  0
 30 26  1  0  0  0  0
 31 33  1  0  0  0  0
 33 32  2  6  0  0  0
 33 36  1  0  0  0  0
 33 34  1  0  0  0  0
 35 34  1  0  0  0  0
 37 36  1  6  0  0  0
 38 39  1  0  0  0  0
 38 37  1  0  0  0  0
 40 38  1  0  0  0  0
 40 42  1  0  0  0  0
 41 40  1  0  0  0  0
 42 43  1  0  0  0  0
 43 37  1  0  0  0  0
 44 43  1  0  0  0  0
M  END
>  <minimizedAffinity>
-4.44951296

>  <minimizedRMSD>
1.73407423

$$$$
