
 OpenBabel03242512043D

 19 20  0  0  1  0  0  0  0  0999 V2000
   47.6000   33.5690   43.0910 C   0  0  0  0  0  0  0  0  0  0  0  0
   48.7350   34.1030   43.0550 O   0  0  0  0  0  0  0  0  0  0  0  0
   45.9640   35.4090   42.9130 C   0  0  0  0  0  0  0  0  0  0  0  0
   46.5240   34.3380   43.6210 C   0  0  0  0  0  0  0  0  0  0  0  0
   45.9820   34.0450   44.8800 C   0  0  0  0  0  0  0  0  0  0  0  0
   44.9480   34.8050   45.3570 N   0  0  0  0  0  0  0  0  0  0  0  0
   44.4470   35.8290   44.6280 C   0  0  0  0  0  0  0  0  0  0  0  0
   44.9490   36.1250   43.4240 N   0  0  0  0  0  0  0  0  0  0  0  0
   46.3260   35.6920   41.9440 H   0  0  0  0  0  0  0  0  0  0  0  0
   46.4110   33.2160   45.4350 H   0  0  0  0  0  0  0  0  0  0  0  0
   43.6380   36.3000   45.1820 H   0  0  0  0  0  0  0  0  0  0  0  0
   47.4110   32.1820   42.5920 C   0  0  1  0  0  3  0  0  0  0  0  0
   47.7030   31.1230   43.6030 C   0  0  0  0  0  3  0  0  0  0  0  0
   48.3470   30.3520   43.0860 H   0  0  0  0  0  0  0  0  0  0  0  0
   46.3510   30.4980   43.8300 C   0  0  0  0  0  3  0  0  0  0  0  0
   45.8260   30.8760   44.7340 H   0  0  0  0  0  0  0  0  0  0  0  0
   45.6010   30.7170   42.7020 O   0  0  0  0  0  0  0  0  0  0  0  0
   46.0090   31.9190   42.1440 C   0  0  0  0  0  3  0  0  0  0  0  0
   45.8850   31.8450   41.0400 H   0  0  0  0  0  0  0  0  0  0  0  0
  1  4  1  0  0  0  0
  2  1  2  0  0  0  0
  3  8  2  0  0  0  0
  3  4  1  0  0  0  0
  4  5  2  0  0  0  0
  5  6  1  0  0  0  0
  5 10  1  0  0  0  0
  7 11  1  0  0  0  0
  7  6  2  0  0  0  0
  8  7  1  0  0  0  0
  9  3  1  0  0  0  0
 12  1  1  1  0  0  0
 12 13  1  0  0  0  0
 13 15  1  0  0  0  0
 14 13  1  0  0  0  0
 15 16  1  0  0  0  0
 17 15  1  0  0  0  0
 18 12  1  0  0  0  0
 18 17  1  0  0  0  0
 19 18  1  0  0  0  0
M  END
>  <minimizedAffinity>
-3.26625347

>  <minimizedRMSD>
3.07649946

$$$$
