
 OpenBabel03242512273D

 21 22  0  0  1  0  0  0  0  0999 V2000
   45.0730   35.2230   44.1190 C   0  0  0  0  0  0  0  0  0  0  0  0
   46.0500   34.9630   43.1530 C   0  0  0  0  0  0  0  0  0  0  0  0
   47.0060   33.9770   43.4230 C   0  0  0  0  0  0  0  0  0  0  0  0
   46.9190   33.3370   44.6070 N   0  0  0  0  0  0  0  0  0  0  0  0
   45.9870   33.5900   45.5190 C   0  0  0  0  0  0  0  0  0  0  0  0
   45.0610   34.5450   45.2600 N   0  0  0  0  0  0  0  0  0  0  0  0
   44.1040   36.2210   43.8490 N   0  0  0  0  0  0  0  0  0  0  0  0
   46.0190   35.5370   42.2460 H   0  0  0  0  0  0  0  0  0  0  0  0
   47.7650   33.7730   42.6760 H   0  0  0  0  0  0  0  0  0  0  0  0
   43.9830   36.6090   42.8840 H   0  0  0  0  0  0  0  0  0  0  0  0
   43.4980   36.5730   44.6350 H   0  0  0  0  0  0  0  0  0  0  0  0
   45.9040   32.8960   46.7890 C   0  0  0  0  0  0  0  0  0  0  0  0
   44.9690   33.1190   47.6180 O   0  0  0  0  0  0  0  0  0  0  0  0
   46.9220   31.8980   47.1530 C   0  0  1  0  0  3  0  0  0  0  0  0
   47.7480   32.2380   48.3500 C   0  0  0  0  0  3  0  0  0  0  0  0
   48.7040   32.7230   48.0270 H   0  0  0  0  0  0  0  0  0  0  0  0
   48.0280   30.8720   48.9550 C   0  0  0  0  0  3  0  0  0  0  0  0
   47.6410   30.8270   49.9940 H   0  0  0  0  0  0  0  0  0  0  0  0
   47.4480   29.9250   48.1090 O   0  0  0  0  0  0  0  0  0  0  0  0
   46.3320   30.5630   47.5380 C   0  0  0  0  0  3  0  0  0  0  0  0
   46.0490   30.0340   46.6100 H   0  0  0  0  0  0  0  0  0  0  0  0
  1  6  1  0  0  0  0
  2  3  1  0  0  0  0
  2  1  2  0  0  0  0
  3  4  2  0  0  0  0
  4  5  1  0  0  0  0
  5 12  1  0  0  0  0
  6  5  2  0  0  0  0
  7  1  1  0  0  0  0
  7 11  1  0  0  0  0
  8  2  1  0  0  0  0
  9  3  1  0  0  0  0
 10  7  1  0  0  0  0
 12 13  2  0  0  0  0
 14 12  1  1  0  0  0
 14 20  1  0  0  0  0
 14 15  1  0  0  0  0
 15 17  1  0  0  0  0
 16 15  1  0  0  0  0
 17 18  1  0  0  0  0
 19 17  1  0  0  0  0
 20 19  1  0  0  0  0
 21 20  1  0  0  0  0
M  END
>  <minimizedAffinity>
-4.70718288

>  <minimizedRMSD>
1.62992847

$$$$
