
 OpenBabel03252509003D

 44 46  0  0  1  0  0  0  0  0999 V2000
   46.5900   34.5760   43.5630 N   0  0  0  0  0  0  0  0  0  0  0  0
   46.0960   35.5880   42.7010 C   0  0  0  0  0  0  0  0  0  0  0  0
   44.5930   35.7540   42.6900 C   0  0  0  0  0  0  0  0  0  0  0  0
   43.9340   35.4720   44.0140 C   0  0  0  0  0  0  0  0  0  0  0  0
   44.9400   35.1630   45.0920 C   0  0  0  0  0  0  0  0  0  0  0  0
   45.7610   33.9650   44.4900 C   0  0  2  0  0  0  0  0  0  0  0  0
   46.4220   35.5330   41.6580 H   0  0  0  0  0  0  0  0  0  0  0  0
   46.5040   36.5630   43.0770 H   0  0  0  0  0  0  0  0  0  0  0  0
   44.3500   36.8140   42.4190 H   0  0  0  0  0  0  0  0  0  0  0  0
   44.1990   35.1400   41.8580 H   0  0  0  0  0  0  0  0  0  0  0  0
   43.3140   34.5570   43.9000 H   0  0  0  0  0  0  0  0  0  0  0  0
   43.3050   36.3060   44.3820 H   0  0  0  0  0  0  0  0  0  0  0  0
   45.6210   35.9880   45.3230 H   0  0  0  0  0  0  0  0  0  0  0  0
   44.4180   34.7410   45.9680 H   0  0  0  0  0  0  0  0  0  0  0  0
   45.0110   33.2300   44.1290 H   0  0  0  0  0  0  0  0  0  0  0  0
   47.6940   33.8360   43.0270 C   0  0  0  0  0  0  0  0  0  0  0  0
   48.2890   33.3590   43.8370 H   0  0  0  0  0  0  0  0  0  0  0  0
   48.3620   34.5180   42.4960 H   0  0  0  0  0  0  0  0  0  0  0  0
   47.1600   32.7450   42.1480 C   0  0  0  0  0  0  0  0  0  0  0  0
   46.0490   32.8020   42.0700 H   0  0  0  0  0  0  0  0  0  0  0  0
   47.3850   31.7500   42.5470 H   0  0  0  0  0  0  0  0  0  0  0  0
   49.0700   32.0060   38.9970 C   0  0  0  0  0  0  0  0  0  0  0  0
   48.5210   31.8870   40.2860 C   0  0  0  0  0  0  0  0  0  0  0  0
   47.7310   32.8920   40.7820 C   0  0  0  0  0  0  0  0  0  0  0  0
   47.5190   33.9560   40.0020 N   0  0  0  0  0  0  0  0  0  0  0  0
   48.0450   34.0690   38.7660 C   0  0  0  0  0  0  0  0  0  0  0  0
   48.8170   33.1090   38.2550 N   0  0  0  0  0  0  0  0  0  0  0  0
   49.6890   31.1930   38.6340 H   0  0  0  0  0  0  0  0  0  0  0  0
   48.7070   31.0130   40.9010 H   0  0  0  0  0  0  0  0  0  0  0  0
   47.7710   34.9840   38.2880 H   0  0  0  0  0  0  0  0  0  0  0  0
   46.4670   33.5260   45.6030 O   0  0  0  0  0  0  0  0  0  0  0  0
   45.5510   31.1920   44.7720 O   0  0  0  0  0  0  0  0  0  0  0  0
   46.2270   31.8950   45.9270 P   0  0  2  0  0  0  0  0  0  0  0  0
   45.1050   31.8280   47.2190 O   0  0  0  0  0  0  0  0  0  0  0  0
   44.1830   31.9810   46.8630 H   0  0  0  0  0  0  0  0  0  0  0  0
   47.6430   31.1730   46.4240 O   0  0  0  0  0  0  0  0  0  0  0  0
   47.5080   30.1120   47.2620 C   0  0  2  0  0  3  0  0  0  0  0  0
   48.8670   29.8650   47.9030 C   0  0  0  0  0  3  0  0  0  0  0  0
   48.9770   30.4320   48.8490 H   0  0  0  0  0  0  0  0  0  0  0  0
   48.8560   28.3700   48.0990 C   0  0  0  0  0  3  0  0  0  0  0  0
   49.7660   27.9100   47.6810 H   0  0  0  0  0  0  0  0  0  0  0  0
   47.6980   27.8650   47.5350 O   0  0  0  0  0  0  0  0  0  0  0  0
   47.2760   28.7920   46.5800 C   0  0  0  0  0  3  0  0  0  0  0  0
   47.8660   28.7340   45.6530 H   0  0  0  0  0  0  0  0  0  0  0  0
  1  6  1  0  0  0  0
  2  8  1  0  0  0  0
  2  1  1  0  0  0  0
  3  2  1  0  0  0  0
  3  4  1  0  0  0  0
  4 12  1  0  0  0  0
  4  5  1  0  0  0  0
  5 13  1  0  0  0  0
  5 14  1  0  0  0  0
  6 15  1  6  0  0  0
  6  5  1  0  0  0  0
  6 31  1  0  0  0  0
  7  2  1  0  0  0  0
  9  3  1  0  0  0  0
 10  3  1  0  0  0  0
 11  4  1  0  0  0  0
 16  1  1  0  0  0  0
 16 17  1  0  0  0  0
 18 16  1  0  0  0  0
 19 21  1  0  0  0  0
 19 16  1  0  0  0  0
 20 19  1  0  0  0  0
 22 23  1  0  0  0  0
 23 24  2  0  0  0  0
 23 29  1  0  0  0  0
 24 19  1  0  0  0  0
 25 24  1  0  0  0  0
 26 25  2  0  0  0  0
 27 26  1  0  0  0  0
 27 22  2  0  0  0  0
 28 22  1  0  0  0  0
 30 26  1  0  0  0  0
 31 33  1  0  0  0  0
 33 32  2  6  0  0  0
 33 36  1  0  0  0  0
 33 34  1  0  0  0  0
 35 34  1  0  0  0  0
 37 36  1  6  0  0  0
 37 38  1  0  0  0  0
 38 40  1  0  0  0  0
 38 39  1  0  0  0  0
 41 40  1  0  0  0  0
 42 40  1  0  0  0  0
 43 37  1  0  0  0  0
 43 42  1  0  0  0  0
 44 43  1  0  0  0  0
M  END
>  <minimizedAffinity>
-4.24762678

>  <minimizedRMSD>
1.12751055

$$$$
