
 OpenBabel03252509003D

 44 46  0  0  1  0  0  0  0  0999 V2000
   46.7710   34.3620   43.6590 N   0  0  0  0  0  0  0  0  0  0  0  0
   46.3510   35.1670   42.5710 C   0  0  0  0  0  0  0  0  0  0  0  0
   44.8550   35.3090   42.4070 C   0  0  0  0  0  0  0  0  0  0  0  0
   44.0920   35.2980   43.7050 C   0  0  0  0  0  0  0  0  0  0  0  0
   45.0070   35.2300   44.9000 C   0  0  0  0  0  0  0  0  0  0  0  0
   45.8680   33.9440   44.6250 C   0  0  2  0  0  0  0  0  0  0  0  0
   46.7600   34.9040   41.5920 H   0  0  0  0  0  0  0  0  0  0  0  0
   46.7330   36.2050   42.7700 H   0  0  0  0  0  0  0  0  0  0  0  0
   44.6390   36.2880   41.9060 H   0  0  0  0  0  0  0  0  0  0  0  0
   44.5260   34.5330   41.6920 H   0  0  0  0  0  0  0  0  0  0  0  0
   43.4790   34.3710   43.7340 H   0  0  0  0  0  0  0  0  0  0  0  0
   43.4390   36.1820   43.8430 H   0  0  0  0  0  0  0  0  0  0  0  0
   45.6710   36.0930   45.0090 H   0  0  0  0  0  0  0  0  0  0  0  0
   44.4150   34.9900   45.7990 H   0  0  0  0  0  0  0  0  0  0  0  0
   45.1460   33.1410   44.3640 H   0  0  0  0  0  0  0  0  0  0  0  0
   47.9110   33.5410   43.3760 C   0  0  0  0  0  0  0  0  0  0  0  0
   48.3970   33.1910   44.3140 H   0  0  0  0  0  0  0  0  0  0  0  0
   48.6530   34.1280   42.8300 H   0  0  0  0  0  0  0  0  0  0  0  0
   47.4560   32.3300   42.6180 C   0  0  0  0  0  0  0  0  0  0  0  0
   46.3670   32.3900   42.3850 H   0  0  0  0  0  0  0  0  0  0  0  0
   47.5910   31.4090   43.1950 H   0  0  0  0  0  0  0  0  0  0  0  0
   50.2070   31.6680   40.1450 C   0  0  0  0  0  0  0  0  0  0  0  0
   49.4840   31.7570   41.3480 C   0  0  0  0  0  0  0  0  0  0  0  0
   48.2030   32.2460   41.3340 C   0  0  0  0  0  0  0  0  0  0  0  0
   47.6950   32.6220   40.1570 N   0  0  0  0  0  0  0  0  0  0  0  0
   48.3890   32.5360   39.0040 C   0  0  0  0  0  0  0  0  0  0  0  0
   49.6360   32.0660   38.9840 N   0  0  0  0  0  0  0  0  0  0  0  0
   51.2170   31.2770   40.1900 H   0  0  0  0  0  0  0  0  0  0  0  0
   49.9170   31.4450   42.2920 H   0  0  0  0  0  0  0  0  0  0  0  0
   47.8270   32.8800   38.1630 H   0  0  0  0  0  0  0  0  0  0  0  0
   46.4810   33.7520   45.8560 O   0  0  0  0  0  0  0  0  0  0  0  0
   45.7230   31.2540   45.4580 O   0  0  0  0  0  0  0  0  0  0  0  0
   46.1630   32.2400   46.5160 P   0  0  2  0  0  0  0  0  0  0  0  0
   44.8070   32.4440   47.5400 O   0  0  0  0  0  0  0  0  0  0  0  0
   43.9750   32.4720   46.9830 H   0  0  0  0  0  0  0  0  0  0  0  0
   47.4450   31.7130   47.4410 O   0  0  0  0  0  0  0  0  0  0  0  0
   47.3830   30.4240   47.8620 C   0  0  2  0  0  3  0  0  0  0  0  0
   48.2830   29.6050   46.9440 C   0  0  0  0  0  3  0  0  0  0  0  0
   49.3160   29.5480   47.3390 H   0  0  0  0  0  0  0  0  0  0  0  0
   47.5770   28.2730   46.9160 C   0  0  0  0  0  3  0  0  0  0  0  0
   47.4160   27.9320   45.8800 H   0  0  0  0  0  0  0  0  0  0  0  0
   46.3970   28.3910   47.6280 O   0  0  0  0  0  0  0  0  0  0  0  0
   46.0600   29.7450   47.6330 C   0  0  0  0  0  3  0  0  0  0  0  0
   45.6270   30.0700   46.6740 H   0  0  0  0  0  0  0  0  0  0  0  0
  1  6  1  0  0  0  0
  2  8  1  0  0  0  0
  2  1  1  0  0  0  0
  3  2  1  0  0  0  0
  3  4  1  0  0  0  0
  4 11  1  0  0  0  0
  4 12  1  0  0  0  0
  4  5  1  0  0  0  0
  5 13  1  0  0  0  0
  5 14  1  0  0  0  0
  6 15  1  6  0  0  0
  6  5  1  0  0  0  0
  6 31  1  0  0  0  0
  7  2  1  0  0  0  0
  9  3  1  0  0  0  0
 10  3  1  0  0  0  0
 16  1  1  0  0  0  0
 16 17  1  0  0  0  0
 18 16  1  0  0  0  0
 19 21  1  0  0  0  0
 19 16  1  0  0  0  0
 20 19  1  0  0  0  0
 22 28  1  0  0  0  0
 22 23  1  0  0  0  0
 23 29  1  0  0  0  0
 24 23  2  0  0  0  0
 24 19  1  0  0  0  0
 25 24  1  0  0  0  0
 26 25  2  0  0  0  0
 27 26  1  0  0  0  0
 27 22  2  0  0  0  0
 30 26  1  0  0  0  0
 31 33  1  0  0  0  0
 33 32  2  6  0  0  0
 33 36  1  0  0  0  0
 33 34  1  0  0  0  0
 35 34  1  0  0  0  0
 37 36  1  6  0  0  0
 38 39  1  0  0  0  0
 38 37  1  0  0  0  0
 40 38  1  0  0  0  0
 40 42  1  0  0  0  0
 41 40  1  0  0  0  0
 42 43  1  0  0  0  0
 43 37  1  0  0  0  0
 44 43  1  0  0  0  0
M  END
>  <minimizedAffinity>
-4.45032692

>  <minimizedRMSD>
1.71859753

$$$$
