
 OpenBabel03242523313D

 21 22  0  0  1  0  0  0  0  0999 V2000
   36.2410   30.7680   40.8890 C   0  0  0  0  0  0  0  0  0  0  0  0
   35.1770   30.4560   40.7600 H   0  0  0  0  0  0  0  0  0  0  0  0
   36.3420   31.7740   41.3460 H   0  0  0  0  0  0  0  0  0  0  0  0
   38.6610   28.9310   43.0430 C   0  0  0  0  0  0  0  0  0  0  0  0
   38.0630   27.6640   43.1060 C   0  0  0  0  0  0  0  0  0  0  0  0
   36.8700   27.4650   42.4270 C   0  0  0  0  0  0  0  0  0  0  0  0
   36.3180   28.4830   41.7290 N   0  0  0  0  0  0  0  0  0  0  0  0
   36.9190   29.7160   41.6780 C   0  0  0  0  0  0  0  0  0  0  0  0
   38.0610   29.8910   42.3340 N   0  0  0  0  0  0  0  0  0  0  0  0
   39.5900   29.0490   43.5850 H   0  0  0  0  0  0  0  0  0  0  0  0
   38.4400   26.8090   43.6400 H   0  0  0  0  0  0  0  0  0  0  0  0
   36.3700   26.5080   42.4440 H   0  0  0  0  0  0  0  0  0  0  0  0
   36.9670   30.7150   39.2160 S   0  0  0  0  0  0  0  0  0  0  0  0
   37.9820   32.2170   38.9310 C   0  0  2  0  0  3  0  0  0  0  0  0
   39.2590   32.1350   39.6970 C   0  0  0  0  0  3  0  0  0  0  0  0
   39.3260   31.1320   40.1910 H   0  0  0  0  0  0  0  0  0  0  0  0
   39.1970   33.2720   40.6790 C   0  0  0  0  0  3  0  0  0  0  0  0
   40.1590   33.8220   40.7570 H   0  0  0  0  0  0  0  0  0  0  0  0
   38.2340   34.1570   40.2190 O   0  0  0  0  0  0  0  0  0  0  0  0
   37.2900   33.3970   39.5350 C   0  0  0  0  0  3  0  0  0  0  0  0
   36.7390   34.0340   38.8330 H   0  0  0  0  0  0  0  0  0  0  0  0
  1  3  1  0  0  0  0
  1  8  1  0  0  0  0
  2  1  1  0  0  0  0
  4  5  1  0  0  0  0
  4 10  1  0  0  0  0
  5 11  1  0  0  0  0
  6 12  1  0  0  0  0
  6  5  2  0  0  0  0
  7  6  1  0  0  0  0
  8  7  2  0  0  0  0
  8  9  1  0  0  0  0
  9  4  2  0  0  0  0
 13  1  1  0  0  0  0
 14 13  1  1  0  0  0
 14 20  1  0  0  0  0
 14 15  1  0  0  0  0
 15 16  1  0  0  0  0
 15 17  1  0  0  0  0
 17 18  1  0  0  0  0
 19 17  1  0  0  0  0
 20 19  1  0  0  0  0
 21 20  1  0  0  0  0
M  END
>  <minimizedAffinity>
-3.799932

$$$$

 OpenBabel03242523313D

 21 22  0  0  1  0  0  0  0  0999 V2000
   35.4500   28.8910   40.5320 C   0  0  0  0  0  0  0  0  0  0  0  0
   35.3380   28.9740   41.6400 H   0  0  0  0  0  0  0  0  0  0  0  0
   34.4810   28.7530   40.0110 H   0  0  0  0  0  0  0  0  0  0  0  0
   37.2270   32.1630   40.4330 C   0  0  0  0  0  0  0  0  0  0  0  0
   37.5170   32.2750   39.0660 C   0  0  0  0  0  0  0  0  0  0  0  0
   37.1100   31.2520   38.2210 C   0  0  0  0  0  0  0  0  0  0  0  0
   36.4510   30.1860   38.7280 N   0  0  0  0  0  0  0  0  0  0  0  0
   36.1750   30.0950   40.0690 C   0  0  0  0  0  0  0  0  0  0  0  0
   36.5720   31.0820   40.8650 N   0  0  0  0  0  0  0  0  0  0  0  0
   37.5600   32.9790   41.0600 H   0  0  0  0  0  0  0  0  0  0  0  0
   38.0360   33.0890   38.5900 H   0  0  0  0  0  0  0  0  0  0  0  0
   37.3090   31.2900   37.1600 H   0  0  0  0  0  0  0  0  0  0  0  0
   36.5660   27.4730   40.2630 S   0  0  0  0  0  0  0  0  0  0  0  0
   37.4680   27.0900   41.8130 C   0  0  2  0  0  3  0  0  0  0  0  0
   36.6700   27.5170   42.9990 C   0  0  0  0  0  3  0  0  0  0  0  0
   35.6720   27.8880   42.6540 H   0  0  0  0  0  0  0  0  0  0  0  0
   37.4990   28.5830   43.6610 C   0  0  0  0  0  3  0  0  0  0  0  0
   37.5270   28.4770   44.7670 H   0  0  0  0  0  0  0  0  0  0  0  0
   38.7940   28.4480   43.1860 O   0  0  0  0  0  0  0  0  0  0  0  0
   38.6930   27.9440   41.8920 C   0  0  0  0  0  3  0  0  0  0  0  0
   39.6320   27.4550   41.6090 H   0  0  0  0  0  0  0  0  0  0  0  0
  1  2  1  0  0  0  0
  3  1  1  0  0  0  0
  4  9  1  0  0  0  0
  4 10  1  0  0  0  0
  5  4  2  0  0  0  0
  6  7  2  0  0  0  0
  6  5  1  0  0  0  0
  7  8  1  0  0  0  0
  8  1  1  0  0  0  0
  8  9  2  0  0  0  0
 11  5  1  0  0  0  0
 12  6  1  0  0  0  0
 13  1  1  0  0  0  0
 14 13  1  6  0  0  0
 14 20  1  0  0  0  0
 14 15  1  0  0  0  0
 15 17  1  0  0  0  0
 16 15  1  0  0  0  0
 17 18  1  0  0  0  0
 19 17  1  0  0  0  0
 20 19  1  0  0  0  0
 21 20  1  0  0  0  0
M  END
>  <minimizedAffinity>
-3.77661538

$$$$

 OpenBabel03242523313D

 21 22  0  0  1  0  0  0  0  0999 V2000
   36.6780   27.6360   42.6320 C   0  0  0  0  0  0  0  0  0  0  0  0
   36.0800   27.3130   41.7460 H   0  0  0  0  0  0  0  0  0  0  0  0
   36.0610   27.7600   43.5450 H   0  0  0  0  0  0  0  0  0  0  0  0
   39.8460   25.9790   43.6770 C   0  0  0  0  0  0  0  0  0  0  0  0
   39.7130   24.7250   43.0620 C   0  0  0  0  0  0  0  0  0  0  0  0
   38.5690   24.4750   42.3190 C   0  0  0  0  0  0  0  0  0  0  0  0
   37.6210   25.4310   42.2040 N   0  0  0  0  0  0  0  0  0  0  0  0
   37.7680   26.6530   42.8130 C   0  0  0  0  0  0  0  0  0  0  0  0
   38.8690   26.8770   43.5220 N   0  0  0  0  0  0  0  0  0  0  0  0
   40.7500   26.1380   44.2480 H   0  0  0  0  0  0  0  0  0  0  0  0
   40.4220   23.9170   43.1070 H   0  0  0  0  0  0  0  0  0  0  0  0
   38.4190   23.5260   41.8250 H   0  0  0  0  0  0  0  0  0  0  0  0
   37.4670   29.2050   42.1370 S   0  0  0  0  0  0  0  0  0  0  0  0
   36.3130   30.1790   41.0960 C   0  0  2  0  0  3  0  0  0  0  0  0
   36.0040   29.4460   39.8340 C   0  0  0  0  0  3  0  0  0  0  0  0
   36.4850   28.4360   39.8710 H   0  0  0  0  0  0  0  0  0  0  0  0
   36.5480   30.3170   38.7360 C   0  0  0  0  0  3  0  0  0  0  0  0
   35.8530   30.4000   37.8720 H   0  0  0  0  0  0  0  0  0  0  0  0
   36.7210   31.5860   39.2670 O   0  0  0  0  0  0  0  0  0  0  0  0
   37.0070   31.4150   40.6190 C   0  0  0  0  0  3  0  0  0  0  0  0
   36.7710   32.3340   41.1680 H   0  0  0  0  0  0  0  0  0  0  0  0
  1  8  1  0  0  0  0
  1  3  1  0  0  0  0
  2  1  1  0  0  0  0
  4 10  1  0  0  0  0
  5 11  1  0  0  0  0
  5  4  2  0  0  0  0
  6  5  1  0  0  0  0
  7  6  2  0  0  0  0
  7  8  1  0  0  0  0
  8  9  2  0  0  0  0
  9  4  1  0  0  0  0
 12  6  1  0  0  0  0
 13  1  1  0  0  0  0
 14 13  1  1  0  0  0
 15 16  1  0  0  0  0
 15 14  1  0  0  0  0
 17 19  1  0  0  0  0
 17 15  1  0  0  0  0
 18 17  1  0  0  0  0
 19 20  1  0  0  0  0
 20 14  1  0  0  0  0
 20 21  1  0  0  0  0
M  END
>  <minimizedAffinity>
-3.71199346

$$$$

 OpenBabel03242523313D

 21 22  0  0  1  0  0  0  0  0999 V2000
   39.1710   30.6560   41.4470 C   0  0  0  0  0  0  0  0  0  0  0  0
   38.6950   31.6340   41.6970 H   0  0  0  0  0  0  0  0  0  0  0  0
   40.2050   30.5690   41.8390 H   0  0  0  0  0  0  0  0  0  0  0  0
   37.3300   28.3110   43.6800 C   0  0  0  0  0  0  0  0  0  0  0  0
   36.5890   27.5720   42.7470 C   0  0  0  0  0  0  0  0  0  0  0  0
   36.7280   27.8810   41.4020 C   0  0  0  0  0  0  0  0  0  0  0  0
   37.5640   28.8750   41.0250 N   0  0  0  0  0  0  0  0  0  0  0  0
   38.2820   29.5870   41.9530 C   0  0  0  0  0  0  0  0  0  0  0  0
   38.1370   29.2790   43.2370 N   0  0  0  0  0  0  0  0  0  0  0  0
   37.1950   28.0420   44.7180 H   0  0  0  0  0  0  0  0  0  0  0  0
   35.9060   26.7700   42.9690 H   0  0  0  0  0  0  0  0  0  0  0  0
   36.1800   27.3410   40.6430 H   0  0  0  0  0  0  0  0  0  0  0  0
   39.1320   30.5500   39.6260 S   0  0  0  0  0  0  0  0  0  0  0  0
   38.7600   32.2000   38.9160 C   0  0  2  0  0  3  0  0  0  0  0  0
   39.5530   33.2560   39.6090 C   0  0  0  0  0  3  0  0  0  0  0  0
   40.2510   32.7700   40.3380 H   0  0  0  0  0  0  0  0  0  0  0  0
   38.5300   34.1370   40.2710 C   0  0  0  0  0  3  0  0  0  0  0  0
   38.7600   35.2190   40.1560 H   0  0  0  0  0  0  0  0  0  0  0  0
   37.3150   33.8900   39.6520 O   0  0  0  0  0  0  0  0  0  0  0  0
   37.3440   32.5630   39.2340 C   0  0  0  0  0  3  0  0  0  0  0  0
   36.6220   32.4130   38.4230 H   0  0  0  0  0  0  0  0  0  0  0  0
  1  2  1  0  0  0  0
  1  3  1  0  0  0  0
  1  8  1  0  0  0  0
  4 10  1  0  0  0  0
  5 11  1  0  0  0  0
  5  4  2  0  0  0  0
  6  5  1  0  0  0  0
  7  6  2  0  0  0  0
  7  8  1  0  0  0  0
  8  9  2  0  0  0  0
  9  4  1  0  0  0  0
 12  6  1  0  0  0  0
 13  1  1  0  0  0  0
 14 20  1  0  0  0  0
 14 15  1  0  0  0  0
 14 13  1  1  0  0  0
 15 17  1  0  0  0  0
 15 16  1  0  0  0  0
 18 17  1  0  0  0  0
 19 17  1  0  0  0  0
 20 19  1  0  0  0  0
 21 20  1  0  0  0  0
M  END
>  <minimizedAffinity>
-3.66432595

$$$$

 OpenBabel03242523313D

 21 22  0  0  1  0  0  0  0  0999 V2000
   38.9360   29.3180   42.9350 C   0  0  0  0  0  0  0  0  0  0  0  0
   39.8540   28.9240   42.4370 H   0  0  0  0  0  0  0  0  0  0  0  0
   39.1530   29.8310   43.8940 H   0  0  0  0  0  0  0  0  0  0  0  0
   38.1960   31.9900   40.4490 C   0  0  0  0  0  0  0  0  0  0  0  0
   36.8400   31.7480   40.1840 C   0  0  0  0  0  0  0  0  0  0  0  0
   36.2170   30.6990   40.8440 C   0  0  0  0  0  0  0  0  0  0  0  0
   36.9210   29.9440   41.7170 N   0  0  0  0  0  0  0  0  0  0  0  0
   38.2480   30.1970   41.9640 C   0  0  0  0  0  0  0  0  0  0  0  0
   38.8300   31.2040   41.3230 N   0  0  0  0  0  0  0  0  0  0  0  0
   38.6470   32.8160   39.9150 H   0  0  0  0  0  0  0  0  0  0  0  0
   36.2150   32.3030   39.5050 H   0  0  0  0  0  0  0  0  0  0  0  0
   35.1750   30.4720   40.6760 H   0  0  0  0  0  0  0  0  0  0  0  0
   37.8580   27.8660   43.1800 S   0  0  0  0  0  0  0  0  0  0  0  0
   38.3360   26.5340   42.0130 C   0  0  2  0  0  3  0  0  0  0  0  0
   37.1270   25.8070   41.5280 C   0  0  0  0  0  3  0  0  0  0  0  0
   36.2110   26.3120   41.9290 H   0  0  0  0  0  0  0  0  0  0  0  0
   37.2920   24.4000   42.0320 C   0  0  0  0  0  3  0  0  0  0  0  0
   37.0270   23.6380   41.2670 H   0  0  0  0  0  0  0  0  0  0  0  0
   38.6300   24.2350   42.3540 O   0  0  0  0  0  0  0  0  0  0  0  0
   39.0990   25.4830   42.7540 C   0  0  0  0  0  3  0  0  0  0  0  0
   40.1900   25.5220   42.6440 H   0  0  0  0  0  0  0  0  0  0  0  0
  1 13  1  0  0  0  0
  1  3  1  0  0  0  0
  2  1  1  0  0  0  0
  4  9  1  0  0  0  0
  5  4  2  0  0  0  0
  5  6  1  0  0  0  0
  6  7  2  0  0  0  0
  7  8  1  0  0  0  0
  8  1  1  0  0  0  0
  9  8  2  0  0  0  0
 10  4  1  0  0  0  0
 11  5  1  0  0  0  0
 12  6  1  0  0  0  0
 14 20  1  0  0  0  0
 14 13  1  1  0  0  0
 15 16  1  0  0  0  0
 15 14  1  0  0  0  0
 15 17  1  0  0  0  0
 17 19  1  0  0  0  0
 18 17  1  0  0  0  0
 19 20  1  0  0  0  0
 21 20  1  0  0  0  0
M  END
>  <minimizedAffinity>
-3.62538719

$$$$

 OpenBabel03242523313D

 21 22  0  0  1  0  0  0  0  0999 V2000
   37.6040   30.0720   41.3930 C   0  0  0  0  0  0  0  0  0  0  0  0
   36.6020   30.1420   41.8810 H   0  0  0  0  0  0  0  0  0  0  0  0
   37.6360   29.3110   40.5880 H   0  0  0  0  0  0  0  0  0  0  0  0
   39.3820   33.2870   40.7810 C   0  0  0  0  0  0  0  0  0  0  0  0
   38.4780   33.9410   39.9310 C   0  0  0  0  0  0  0  0  0  0  0  0
   37.3040   33.2860   39.5910 C   0  0  0  0  0  0  0  0  0  0  0  0
   37.0600   32.0500   40.0780 N   0  0  0  0  0  0  0  0  0  0  0  0
   37.9560   31.4250   40.9090 C   0  0  0  0  0  0  0  0  0  0  0  0
   39.0770   32.0650   41.2260 N   0  0  0  0  0  0  0  0  0  0  0  0
   40.2870   33.8280   41.0240 H   0  0  0  0  0  0  0  0  0  0  0  0
   38.6020   34.9210   39.5040 H   0  0  0  0  0  0  0  0  0  0  0  0
   36.5750   33.7470   38.9400 H   0  0  0  0  0  0  0  0  0  0  0  0
   38.7720   29.6780   42.7390 S   0  0  0  0  0  0  0  0  0  0  0  0
   38.4670   27.9740   43.3460 C   0  0  2  0  0  3  0  0  0  0  0  0
   38.8520   26.9750   42.3070 C   0  0  0  0  0  3  0  0  0  0  0  0
   39.3180   27.5090   41.4410 H   0  0  0  0  0  0  0  0  0  0  0  0
   37.5700   26.2750   41.9480 C   0  0  0  0  0  3  0  0  0  0  0  0
   37.6960   25.1740   41.8560 H   0  0  0  0  0  0  0  0  0  0  0  0
   36.6700   26.5180   42.9740 O   0  0  0  0  0  0  0  0  0  0  0  0
   36.9940   27.7650   43.5010 C   0  0  0  0  0  3  0  0  0  0  0  0
   36.6090   27.8480   44.5240 H   0  0  0  0  0  0  0  0  0  0  0  0
  1  2  1  0  0  0  0
  1 13  1  0  0  0  0
  3  1  1  0  0  0  0
  4 10  1  0  0  0  0
  4  9  1  0  0  0  0
  5  4  2  0  0  0  0
  6  5  1  0  0  0  0
  6  7  2  0  0  0  0
  7  8  1  0  0  0  0
  8  9  2  0  0  0  0
  8  1  1  0  0  0  0
 11  5  1  0  0  0  0
 12  6  1  0  0  0  0
 14 13  1  6  0  0  0
 14 20  1  0  0  0  0
 15 14  1  0  0  0  0
 16 15  1  0  0  0  0
 17 15  1  0  0  0  0
 17 19  1  0  0  0  0
 18 17  1  0  0  0  0
 19 20  1  0  0  0  0
 20 21  1  0  0  0  0
M  END
>  <minimizedAffinity>
-3.62247443

$$$$

 OpenBabel03242523313D

 21 22  0  0  1  0  0  0  0  0999 V2000
   37.6590   29.1980   40.0860 C   0  0  0  0  0  0  0  0  0  0  0  0
   37.4460   28.8240   39.0560 H   0  0  0  0  0  0  0  0  0  0  0  0
   38.5650   28.7380   40.5320 H   0  0  0  0  0  0  0  0  0  0  0  0
   37.1590   32.7550   39.1000 C   0  0  0  0  0  0  0  0  0  0  0  0
   38.0190   33.4090   39.9940 C   0  0  0  0  0  0  0  0  0  0  0  0
   38.7380   32.6400   40.8980 C   0  0  0  0  0  0  0  0  0  0  0  0
   38.5950   31.2960   40.8970 N   0  0  0  0  0  0  0  0  0  0  0  0
   37.7490   30.6730   40.0130 C   0  0  0  0  0  0  0  0  0  0  0  0
   37.0680   31.4230   39.1550 N   0  0  0  0  0  0  0  0  0  0  0  0
   36.6160   33.3870   38.4110 H   0  0  0  0  0  0  0  0  0  0  0  0
   38.1850   34.4710   40.0560 H   0  0  0  0  0  0  0  0  0  0  0  0
   39.4140   33.0950   41.6070 H   0  0  0  0  0  0  0  0  0  0  0  0
   36.1630   28.8140   41.0590 S   0  0  0  0  0  0  0  0  0  0  0  0
   36.6220   27.8480   42.5490 C   0  0  2  0  0  3  0  0  0  0  0  0
   37.6320   28.5880   43.3590 C   0  0  0  0  0  3  0  0  0  0  0  0
   37.7990   29.5970   42.9030 H   0  0  0  0  0  0  0  0  0  0  0  0
   38.8610   27.7210   43.3330 C   0  0  0  0  0  3  0  0  0  0  0  0
   39.3510   27.6450   44.3290 H   0  0  0  0  0  0  0  0  0  0  0  0
   38.4570   26.4490   42.9580 O   0  0  0  0  0  0  0  0  0  0  0  0
   37.3530   26.6130   42.1260 C   0  0  0  0  0  3  0  0  0  0  0  0
   36.7590   25.6920   42.1120 H   0  0  0  0  0  0  0  0  0  0  0  0
  1  3  1  0  0  0  0
  1 13  1  0  0  0  0
  2  1  1  0  0  0  0
  4  9  2  0  0  0  0
  4  5  1  0  0  0  0
  5 11  1  0  0  0  0
  5  6  2  0  0  0  0
  6 12  1  0  0  0  0
  7  6  1  0  0  0  0
  8  1  1  0  0  0  0
  8  7  2  0  0  0  0
  9  8  1  0  0  0  0
 10  4  1  0  0  0  0
 14 13  1  6  0  0  0
 14 15  1  0  0  0  0
 16 15  1  0  0  0  0
 17 15  1  0  0  0  0
 17 18  1  0  0  0  0
 19 17  1  0  0  0  0
 20 14  1  0  0  0  0
 20 19  1  0  0  0  0
 21 20  1  0  0  0  0
M  END
>  <minimizedAffinity>
-3.60632634

$$$$

 OpenBabel03242523313D

 21 22  0  0  1  0  0  0  0  0999 V2000
   36.2700   30.8170   41.0430 C   0  0  0  0  0  0  0  0  0  0  0  0
   35.2290   30.6230   40.6880 H   0  0  0  0  0  0  0  0  0  0  0  0
   36.3230   31.6270   41.7980 H   0  0  0  0  0  0  0  0  0  0  0  0
   37.0030   27.1950   41.5130 C   0  0  0  0  0  0  0  0  0  0  0  0
   37.8990   27.2360   42.5910 C   0  0  0  0  0  0  0  0  0  0  0  0
   38.2300   28.4730   43.1250 C   0  0  0  0  0  0  0  0  0  0  0  0
   37.6880   29.5960   42.6030 N   0  0  0  0  0  0  0  0  0  0  0  0
   36.8120   29.5360   41.5480 C   0  0  0  0  0  0  0  0  0  0  0  0
   36.5060   28.3440   41.0460 N   0  0  0  0  0  0  0  0  0  0  0  0
   36.7700   26.2140   41.1220 H   0  0  0  0  0  0  0  0  0  0  0  0
   38.3700   26.3890   43.0590 H   0  0  0  0  0  0  0  0  0  0  0  0
   38.9150   28.5590   43.9560 H   0  0  0  0  0  0  0  0  0  0  0  0
   37.2230   31.2320   39.5430 S   0  0  0  0  0  0  0  0  0  0  0  0
   38.9130   31.7700   40.0110 C   0  0  2  0  0  3  0  0  0  0  0  0
   38.8500   32.9390   40.9370 C   0  0  0  0  0  3  0  0  0  0  0  0
   37.7800   33.1470   41.1910 H   0  0  0  0  0  0  0  0  0  0  0  0
   39.5070   34.0650   40.1860 C   0  0  0  0  0  3  0  0  0  0  0  0
   40.1940   34.6600   40.8250 H   0  0  0  0  0  0  0  0  0  0  0  0
   40.2560   33.4950   39.1680 O   0  0  0  0  0  0  0  0  0  0  0  0
   39.6050   32.3200   38.8040 C   0  0  0  0  0  3  0  0  0  0  0  0
   40.3110   31.6410   38.3120 H   0  0  0  0  0  0  0  0  0  0  0  0
  1  8  1  0  0  0  0
  1  3  1  0  0  0  0
  2  1  1  0  0  0  0
  4  5  1  0  0  0  0
  5 11  1  0  0  0  0
  5  6  2  0  0  0  0
  6 12  1  0  0  0  0
  7  6  1  0  0  0  0
  8  7  2  0  0  0  0
  9  4  2  0  0  0  0
  9  8  1  0  0  0  0
 10  4  1  0  0  0  0
 13  1  1  0  0  0  0
 14 13  1  6  0  0  0
 14 15  1  0  0  0  0
 15 16  1  0  0  0  0
 17 18  1  0  0  0  0
 17 15  1  0  0  0  0
 19 17  1  0  0  0  0
 20 19  1  0  0  0  0
 20 14  1  0  0  0  0
 21 20  1  0  0  0  0
M  END
>  <minimizedAffinity>
-3.52826428

$$$$

 OpenBabel03242523313D

 21 22  0  0  1  0  0  0  0  0999 V2000
   39.0680   28.1700   43.0480 C   0  0  0  0  0  0  0  0  0  0  0  0
   39.2710   28.2700   44.1410 H   0  0  0  0  0  0  0  0  0  0  0  0
   39.9000   28.5480   42.4200 H   0  0  0  0  0  0  0  0  0  0  0  0
   39.3320   24.4720   42.6920 C   0  0  0  0  0  0  0  0  0  0  0  0
   38.0400   24.1470   42.2520 C   0  0  0  0  0  0  0  0  0  0  0  0
   37.1230   25.1750   42.0890 C   0  0  0  0  0  0  0  0  0  0  0  0
   37.4890   26.4490   42.3530 N   0  0  0  0  0  0  0  0  0  0  0  0
   38.7580   26.7480   42.7830 C   0  0  0  0  0  0  0  0  0  0  0  0
   39.6250   25.7520   42.9350 N   0  0  0  0  0  0  0  0  0  0  0  0
   40.0190   23.6450   42.8080 H   0  0  0  0  0  0  0  0  0  0  0  0
   37.6760   23.1610   42.0220 H   0  0  0  0  0  0  0  0  0  0  0  0
   36.1160   24.9780   41.7510 H   0  0  0  0  0  0  0  0  0  0  0  0
   37.5270   29.1030   42.7550 S   0  0  0  0  0  0  0  0  0  0  0  0
   37.5790   29.8810   41.0940 C   0  0  2  0  0  3  0  0  0  0  0  0
   38.8120   30.7050   40.9440 C   0  0  0  0  0  3  0  0  0  0  0  0
   39.4520   30.5760   41.8530 H   0  0  0  0  0  0  0  0  0  0  0  0
   38.3190   32.1150   40.7670 C   0  0  0  0  0  3  0  0  0  0  0  0
   38.8640   32.6610   39.9670 H   0  0  0  0  0  0  0  0  0  0  0  0
   36.9840   32.0370   40.3980 O   0  0  0  0  0  0  0  0  0  0  0  0
   36.4750   30.8840   40.9890 C   0  0  0  0  0  3  0  0  0  0  0  0
   35.5820   30.5520   40.4460 H   0  0  0  0  0  0  0  0  0  0  0  0
  1  2  1  0  0  0  0
  3  1  1  0  0  0  0
  4 10  1  0  0  0  0
  4  9  1  0  0  0  0
  5  4  2  0  0  0  0
  6  5  1  0  0  0  0
  6  7  2  0  0  0  0
  7  8  1  0  0  0  0
  8  9  2  0  0  0  0
  8  1  1  0  0  0  0
 11  5  1  0  0  0  0
 12  6  1  0  0  0  0
 13  1  1  0  0  0  0
 14 13  1  1  0  0  0
 15 14  1  0  0  0  0
 15 16  1  0  0  0  0
 17 15  1  0  0  0  0
 18 17  1  0  0  0  0
 19 17  1  0  0  0  0
 19 20  1  0  0  0  0
 20 14  1  0  0  0  0
 21 20  1  0  0  0  0
M  END
>  <minimizedAffinity>
-3.51048017

$$$$
