
 OpenBabel03242523303D

 21 22  0  0  1  0  0  0  0  0999 V2000
   45.6730   33.0620   46.8600 C   0  0  0  0  0  0  0  0  0  0  0  0
   46.4230   33.5270   47.5440 H   0  0  0  0  0  0  0  0  0  0  0  0
   44.7130   32.8340   47.3650 H   0  0  0  0  0  0  0  0  0  0  0  0
   44.5590   35.8400   44.6440 C   0  0  0  0  0  0  0  0  0  0  0  0
   45.2940   35.5720   43.4790 C   0  0  0  0  0  0  0  0  0  0  0  0
   46.1380   34.4710   43.4730 C   0  0  0  0  0  0  0  0  0  0  0  0
   46.2330   33.6920   44.5740 N   0  0  0  0  0  0  0  0  0  0  0  0
   45.5050   33.9700   45.7040 C   0  0  0  0  0  0  0  0  0  0  0  0
   44.7010   35.0280   45.6950 N   0  0  0  0  0  0  0  0  0  0  0  0
   43.9120   36.7060   44.6110 H   0  0  0  0  0  0  0  0  0  0  0  0
   45.2720   36.1440   42.5680 H   0  0  0  0  0  0  0  0  0  0  0  0
   46.7250   34.2210   42.6020 H   0  0  0  0  0  0  0  0  0  0  0  0
   46.4720   31.5500   46.2230 S   0  0  0  0  0  0  0  0  0  0  0  0
   46.7950   30.3880   47.6060 C   0  0  2  0  0  3  0  0  0  0  0  0
   47.0020   31.1390   48.8780 C   0  0  0  0  0  3  0  0  0  0  0  0
   46.8220   32.2280   48.6940 H   0  0  0  0  0  0  0  0  0  0  0  0
   48.4200   30.8360   49.2800 C   0  0  0  0  0  3  0  0  0  0  0  0
   48.5190   30.6240   50.3670 H   0  0  0  0  0  0  0  0  0  0  0  0
   48.8080   29.7000   48.5860 O   0  0  0  0  0  0  0  0  0  0  0  0
   48.1090   29.7130   47.3820 C   0  0  0  0  0  3  0  0  0  0  0  0
   48.0570   28.6970   46.9730 H   0  0  0  0  0  0  0  0  0  0  0  0
  1  3  1  0  0  0  0
  1  2  1  0  0  0  0
  4  9  1  0  0  0  0
  5  4  2  0  0  0  0
  6  5  1  0  0  0  0
  6  7  2  0  0  0  0
  7  8  1  0  0  0  0
  8  1  1  0  0  0  0
  9  8  2  0  0  0  0
 10  4  1  0  0  0  0
 11  5  1  0  0  0  0
 12  6  1  0  0  0  0
 13  1  1  0  0  0  0
 14 13  1  6  0  0  0
 14 15  1  0  0  0  0
 15 17  1  0  0  0  0
 16 15  1  0  0  0  0
 17 18  1  0  0  0  0
 19 17  1  0  0  0  0
 20 14  1  0  0  0  0
 20 19  1  0  0  0  0
 21 20  1  0  0  0  0
M  END
>  <minimizedAffinity>
-3.88773608

>  <minimizedRMSD>
0.598302901

$$$$
