
 OpenBabel03242523553D

 44 47  0  0  1  0  0  0  0  0999 V2000
   42.8190   34.3120   39.0090 C   0  0  1  0  0  0  0  0  0  0  0  0
   43.0520   35.1820   40.2370 C   0  0  1  0  0  0  0  0  0  0  0  0
   41.8080   35.6640   40.6810 O   0  0  0  0  0  0  0  0  0  0  0  0
   40.9360   35.9480   39.6280 C   0  0  0  0  0  0  0  0  0  0  0  0
   40.4690   34.6880   38.9250 C   0  0  2  0  0  0  0  0  0  0  0  0
   41.5360   33.5860   39.2480 C   0  0  1  0  0  0  0  0  0  0  0  0
   43.6840   33.6350   38.8480 H   0  0  0  0  0  0  0  0  0  0  0  0
   43.7640   35.9950   40.0620 H   0  0  0  0  0  0  0  0  0  0  0  0
   41.3460   36.7110   38.9460 H   0  0  0  0  0  0  0  0  0  0  0  0
   40.0470   36.3910   40.0950 H   0  0  0  0  0  0  0  0  0  0  0  0
   39.4870   34.3440   39.2850 H   0  0  0  0  0  0  0  0  0  0  0  0
   41.2940   33.5260   40.3590 H   0  0  0  0  0  0  0  0  0  0  0  0
   42.7340   35.0990   37.8510 O   0  0  0  0  0  0  0  0  0  0  0  0
   43.6730   35.3550   37.6480 H   0  0  0  0  0  0  0  0  0  0  0  0
   40.5390   34.8680   37.5500 O   0  0  0  0  0  0  0  0  0  0  0  0
   40.7560   34.0710   37.0390 H   0  0  0  0  0  0  0  0  0  0  0  0
   43.4490   34.2960   41.2480 O   0  0  0  0  0  0  0  0  0  0  0  0
   44.6080   34.3630   41.9170 C   0  0  0  0  0  0  0  0  0  0  0  0
   45.8290   34.5050   41.2410 C   0  0  0  0  0  0  0  0  0  0  0  0
   46.9910   34.5680   41.9960 C   0  0  0  0  0  0  0  0  0  0  0  0
   46.9150   34.4910   43.3740 N   0  0  0  0  0  0  0  0  0  0  0  0
   45.7180   34.3540   43.9880 C   0  0  0  0  0  0  0  0  0  0  0  0
   44.5690   34.2900   43.2690 N   0  0  0  0  0  0  0  0  0  0  0  0
   45.8850   34.5650   40.1640 H   0  0  0  0  0  0  0  0  0  0  0  0
   45.7400   34.3000   45.0650 H   0  0  0  0  0  0  0  0  0  0  0  0
   48.3330   34.7040   41.3390 C   0  0  0  0  0  0  0  0  0  0  0  0
   49.0590   36.0330   41.5410 C   0  0  0  0  0  0  0  0  0  0  0  0
   49.5310   34.6860   42.1160 C   0  0  0  0  0  0  0  0  0  0  0  0
   48.2930   34.3690   40.2840 H   0  0  0  0  0  0  0  0  0  0  0  0
   49.5880   36.4350   40.6790 H   0  0  0  0  0  0  0  0  0  0  0  0
   48.5890   36.6940   42.2820 H   0  0  0  0  0  0  0  0  0  0  0  0
   49.4760   34.5640   43.2290 H   0  0  0  0  0  0  0  0  0  0  0  0
   50.5050   34.3600   41.7070 H   0  0  0  0  0  0  0  0  0  0  0  0
   41.2770   32.5270   38.4600 O   0  0  0  0  0  0  0  0  0  0  0  0
   40.3210   31.5780   38.5890 C   0  0  0  0  0  0  0  0  0  0  0  0
   39.6890   31.1040   37.5430 O   0  0  0  0  0  0  0  0  0  0  0  0
   39.5880   30.7250   39.5730 C   0  0  2  0  0  3  0  0  0  0  0  0
   38.3170   30.2330   38.8710 C   0  0  0  0  0  3  0  0  0  0  0  0
   38.4800   29.3510   38.2470 H   0  0  0  0  0  0  0  0  0  0  0  0
   37.4440   29.9170   40.0740 C   0  0  0  0  0  3  0  0  0  0  0  0
   36.3620   30.0500   39.8630 H   0  0  0  0  0  0  0  0  0  0  0  0
   37.8020   30.8150   41.0650 O   0  0  0  0  0  0  0  0  0  0  0  0
   39.0140   31.3980   40.7500 C   0  0  0  0  0  3  0  0  0  0  0  0
   39.6750   31.4090   41.6410 H   0  0  0  0  0  0  0  0  0  0  0  0
  1  7  1  6  0  0  0
  1  6  1  0  0  0  0
  1  2  1  0  0  0  0
  2  8  1  6  0  0  0
  2  3  1  0  0  0  0
  2 17  1  0  0  0  0
  4 10  1  0  0  0  0
  4  3  1  0  0  0  0
  5  6  1  0  0  0  0
  5 11  1  1  0  0  0
  5  4  1  0  0  0  0
  6 12  1  1  0  0  0
  9  4  1  0  0  0  0
 13  1  1  0  0  0  0
 14 13  1  0  0  0  0
 15  5  1  0  0  0  0
 16 15  1  0  0  0  0
 17 18  1  0  0  0  0
 18 23  1  0  0  0  0
 19 18  2  0  0  0  0
 19 20  1  0  0  0  0
 20 21  2  0  0  0  0
 21 22  1  0  0  0  0
 22 25  1  0  0  0  0
 23 22  2  0  0  0  0
 24 19  1  0  0  0  0
 26 27  1  0  0  0  0
 26 20  1  0  0  0  0
 26 28  1  0  0  0  0
 27 28  1  0  0  0  0
 27 31  1  0  0  0  0
 28 32  1  0  0  0  0
 29 26  1  0  0  0  0
 30 27  1  0  0  0  0
 33 28  1  0  0  0  0
 34 35  1  0  0  0  0
 34  6  1  0  0  0  0
 36 35  2  0  0  0  0
 37 35  1  6  0  0  0
 37 43  1  0  0  0  0
 38 37  1  0  0  0  0
 38 40  1  0  0  0  0
 39 38  1  0  0  0  0
 40 42  1  0  0  0  0
 41 40  1  0  0  0  0
 43 42  1  0  0  0  0
 43 44  1  0  0  0  0
M  END
>  <minimizedAffinity>
-6.13176966

>  <minimizedRMSD>
1.34040821

$$$$
