
 OpenBabel03242523543D

 44 47  0  0  1  0  0  0  0  0999 V2000
   42.8140   34.5330   38.7350 C   0  0  1  0  0  0  0  0  0  0  0  0
   42.9430   35.1810   40.1080 C   0  0  1  0  0  0  0  0  0  0  0  0
   41.6520   35.3790   40.6270 O   0  0  0  0  0  0  0  0  0  0  0  0
   40.7240   35.7220   39.6430 C   0  0  0  0  0  0  0  0  0  0  0  0
   40.4330   34.5620   38.7110 C   0  0  2  0  0  0  0  0  0  0  0  0
   41.6580   33.5910   38.8250 C   0  0  1  0  0  0  0  0  0  0  0  0
   43.7650   34.0350   38.4530 H   0  0  0  0  0  0  0  0  0  0  0  0
   43.5230   36.1100   40.0940 H   0  0  0  0  0  0  0  0  0  0  0  0
   41.0010   36.6530   39.1200 H   0  0  0  0  0  0  0  0  0  0  0  0
   39.7900   35.9320   40.1800 H   0  0  0  0  0  0  0  0  0  0  0  0
   39.5210   34.0130   38.9940 H   0  0  0  0  0  0  0  0  0  0  0  0
   41.4530   33.2870   39.9030 H   0  0  0  0  0  0  0  0  0  0  0  0
   42.5870   35.5020   37.7470 O   0  0  0  0  0  0  0  0  0  0  0  0
   43.4720   35.9300   37.6010 H   0  0  0  0  0  0  0  0  0  0  0  0
   40.4440   35.0050   37.3960 O   0  0  0  0  0  0  0  0  0  0  0  0
   40.7640   34.3610   36.7430 H   0  0  0  0  0  0  0  0  0  0  0  0
   43.4900   34.1900   40.9340 O   0  0  0  0  0  0  0  0  0  0  0  0
   44.5970   34.3320   41.6760 C   0  0  0  0  0  0  0  0  0  0  0  0
   45.8620   34.4310   41.0780 C   0  0  0  0  0  0  0  0  0  0  0  0
   46.9670   34.5770   41.9040 C   0  0  0  0  0  0  0  0  0  0  0  0
   46.7930   34.6210   43.2750 N   0  0  0  0  0  0  0  0  0  0  0  0
   45.5550   34.5220   43.8130 C   0  0  0  0  0  0  0  0  0  0  0  0
   44.4620   34.3780   43.0220 N   0  0  0  0  0  0  0  0  0  0  0  0
   45.9960   34.3960   40.0060 H   0  0  0  0  0  0  0  0  0  0  0  0
   45.5000   34.5640   44.8890 H   0  0  0  0  0  0  0  0  0  0  0  0
   48.3520   34.6740   41.3350 C   0  0  0  0  0  0  0  0  0  0  0  0
   49.0680   36.0120   41.5080 C   0  0  0  0  0  0  0  0  0  0  0  0
   49.4930   34.7010   42.1930 C   0  0  0  0  0  0  0  0  0  0  0  0
   48.3830   34.2770   40.3020 H   0  0  0  0  0  0  0  0  0  0  0  0
   49.6570   36.3620   40.6630 H   0  0  0  0  0  0  0  0  0  0  0  0
   48.5510   36.7160   42.1750 H   0  0  0  0  0  0  0  0  0  0  0  0
   49.3610   34.6450   43.3050 H   0  0  0  0  0  0  0  0  0  0  0  0
   50.4910   34.3510   41.8720 H   0  0  0  0  0  0  0  0  0  0  0  0
   41.5410   32.6730   37.8490 O   0  0  0  0  0  0  0  0  0  0  0  0
   40.8840   31.4900   37.8620 C   0  0  0  0  0  0  0  0  0  0  0  0
   39.6150   31.4160   37.5380 O   0  0  0  0  0  0  0  0  0  0  0  0
   41.0290   30.0270   38.1280 C   0  0  2  0  0  3  0  0  0  0  0  0
   42.0840   29.8800   39.2300 C   0  0  0  0  0  3  0  0  0  0  0  0
   41.6790   30.0100   40.2370 H   0  0  0  0  0  0  0  0  0  0  0  0
   42.5380   28.4510   38.9880 C   0  0  0  0  0  3  0  0  0  0  0  0
   43.5970   28.2850   39.2730 H   0  0  0  0  0  0  0  0  0  0  0  0
   42.4210   28.2300   37.6260 O   0  0  0  0  0  0  0  0  0  0  0  0
   41.6250   29.2060   37.0620 C   0  0  0  0  0  3  0  0  0  0  0  0
   40.8880   28.7470   36.3690 H   0  0  0  0  0  0  0  0  0  0  0  0
  1  7  1  6  0  0  0
  1  6  1  0  0  0  0
  1  2  1  0  0  0  0
  2  8  1  6  0  0  0
  2  3  1  0  0  0  0
  2 17  1  0  0  0  0
  4 10  1  0  0  0  0
  4  3  1  0  0  0  0
  5  6  1  0  0  0  0
  5 11  1  1  0  0  0
  5  4  1  0  0  0  0
  6 12  1  1  0  0  0
  9  4  1  0  0  0  0
 13  1  1  0  0  0  0
 14 13  1  0  0  0  0
 15  5  1  0  0  0  0
 16 15  1  0  0  0  0
 17 18  1  0  0  0  0
 18 23  1  0  0  0  0
 19 18  2  0  0  0  0
 19 20  1  0  0  0  0
 20 21  2  0  0  0  0
 21 22  1  0  0  0  0
 22 25  1  0  0  0  0
 23 22  2  0  0  0  0
 24 19  1  0  0  0  0
 26 27  1  0  0  0  0
 26 20  1  0  0  0  0
 26 28  1  0  0  0  0
 27 31  1  0  0  0  0
 27 28  1  0  0  0  0
 28 32  1  0  0  0  0
 29 26  1  0  0  0  0
 30 27  1  0  0  0  0
 33 28  1  0  0  0  0
 34 35  1  0  0  0  0
 34  6  1  0  0  0  0
 36 35  2  0  0  0  0
 37 35  1  6  0  0  0
 37 38  1  0  0  0  0
 38 39  1  0  0  0  0
 40 38  1  0  0  0  0
 40 41  1  0  0  0  0
 42 40  1  0  0  0  0
 43 42  1  0  0  0  0
 43 37  1  0  0  0  0
 44 43  1  0  0  0  0
M  END
>  <minimizedAffinity>
-5.60417271

>  <minimizedRMSD>
0.136510789

$$$$
