
 OpenBabel03242510293D

 33 35  0  0  1  0  0  0  0  0999 V2000
   45.1120   33.8740   41.2900 C   0  0  1  0  0  0  0  0  0  0  0  0
   45.8990   33.8680   40.0180 C   0  0  0  0  0  0  0  0  0  0  0  0
   47.3110   33.4810   40.4290 C   0  0  0  0  0  0  0  0  0  0  0  0
   47.8790   34.6530   41.1930 C   0  0  0  0  0  0  0  0  0  0  0  0
   47.0320   35.1380   42.3140 C   0  0  0  0  0  0  0  0  0  0  0  0
   45.5690   35.0240   42.1670 C   0  0  2  0  0  0  0  0  0  0  0  0
   45.3040   32.9620   41.8450 H   0  0  0  0  0  0  0  0  0  0  0  0
   45.9990   34.8940   39.5860 H   0  0  0  0  0  0  0  0  0  0  0  0
   45.4680   33.1910   39.2620 H   0  0  0  0  0  0  0  0  0  0  0  0
   47.9100   33.3960   39.5000 H   0  0  0  0  0  0  0  0  0  0  0  0
   47.3140   32.5540   41.0280 H   0  0  0  0  0  0  0  0  0  0  0  0
   48.8750   34.3180   41.5520 H   0  0  0  0  0  0  0  0  0  0  0  0
   48.1060   35.4480   40.4290 H   0  0  0  0  0  0  0  0  0  0  0  0
   47.4210   34.6360   43.2470 H   0  0  0  0  0  0  0  0  0  0  0  0
   47.2900   36.2100   42.4810 H   0  0  0  0  0  0  0  0  0  0  0  0
   45.1460   35.9440   41.7100 H   0  0  0  0  0  0  0  0  0  0  0  0
   41.6830   35.1720   40.3000 C   0  0  0  0  0  0  0  0  0  0  0  0
   43.0650   35.1690   40.4620 C   0  0  0  0  0  0  0  0  0  0  0  0
   43.6530   34.0300   41.0440 C   0  0  0  0  0  0  0  0  0  0  0  0
   42.8120   33.0150   41.4030 N   0  0  0  0  0  0  0  0  0  0  0  0
   41.4890   33.0470   41.2330 C   0  0  0  0  0  0  0  0  0  0  0  0
   40.9110   34.1180   40.6840 N   0  0  0  0  0  0  0  0  0  0  0  0
   41.3150   36.0800   39.8470 H   0  0  0  0  0  0  0  0  0  0  0  0
   43.7250   35.9540   40.1860 H   0  0  0  0  0  0  0  0  0  0  0  0
   40.8450   32.2310   41.5260 H   0  0  0  0  0  0  0  0  0  0  0  0
   44.8320   34.8160   43.4680 C   0  0  1  0  0  0  0  0  0  0  0  0
   45.3600   33.6940   44.3020 C   0  0  0  0  0  0  0  0  0  0  0  0
   46.3950   33.3810   44.0580 H   0  0  0  0  0  0  0  0  0  0  0  0
   45.2870   34.3140   45.6980 C   0  0  0  0  0  0  0  0  0  0  0  0
   46.2690   34.7080   46.0230 H   0  0  0  0  0  0  0  0  0  0  0  0
   44.4470   35.4220   45.5980 O   0  0  0  0  0  0  0  0  0  0  0  0
   44.7520   36.0100   44.3490 C   0  0  0  0  0  0  0  0  0  0  0  0
   43.8200   36.5800   44.0620 H   0  0  0  0  0  0  0  0  0  0  0  0
  1  7  1  1  0  0  0
  1  6  1  0  0  0  0
  2  3  1  0  0  0  0
  2  1  1  0  0  0  0
  3 11  1  0  0  0  0
  3  4  1  0  0  0  0
  4 12  1  0  0  0  0
  4  5  1  0  0  0  0
  5 15  1  0  0  0  0
  5 14  1  0  0  0  0
  6 16  1  6  0  0  0
  6  5  1  0  0  0  0
  6 26  1  0  0  0  0
  8  2  1  0  0  0  0
  9  2  1  0  0  0  0
 10  3  1  0  0  0  0
 13  4  1  0  0  0  0
 17 18  2  0  0  0  0
 17 22  1  0  0  0  0
 18 19  1  0  0  0  0
 19  1  1  0  0  0  0
 19 20  2  0  0  0  0
 21 20  1  0  0  0  0
 21 25  1  0  0  0  0
 22 21  2  0  0  0  0
 23 17  1  0  0  0  0
 24 18  1  0  0  0  0
 26 27  1  1  0  0  0
 26 32  1  0  0  0  0
 27 29  1  0  0  0  0
 28 27  1  0  0  0  0
 29 30  1  0  0  0  0
 31 29  1  0  0  0  0
 32 31  1  0  0  0  0
 33 32  1  0  0  0  0
M  END
>  <minimizedAffinity>
-5.18800831

>  <minimizedRMSD>
4.2545805

$$$$
