
 OpenBabel03252504333D

 39 41  0  0  1  0  0  0  0  0999 V2000
   42.1860   35.4720   40.7440 O   0  0  0  0  0  0  0  0  0  0  0  0
   41.0530   35.3730   41.4810 C   0  0  0  0  0  0  0  0  0  0  0  0
   40.3980   36.2780   41.2090 H   0  0  0  0  0  0  0  0  0  0  0  0
   41.1100   35.3620   42.5680 H   0  0  0  0  0  0  0  0  0  0  0  0
   40.4410   33.0220   41.6740 C   0  0  0  0  0  0  0  0  0  0  0  0
   40.1490   34.2400   41.0770 C   0  0  0  0  0  0  0  0  0  0  0  0
   39.0940   34.3210   40.2210 C   0  0  0  0  0  0  0  0  0  0  0  0
   38.4130   33.2060   40.0220 N   0  0  0  0  0  0  0  0  0  0  0  0
   38.6690   32.0280   40.5800 C   0  0  0  0  0  0  0  0  0  0  0  0
   39.7400   31.9000   41.4620 N   0  0  0  0  0  0  0  0  0  0  0  0
   41.2720   32.9130   42.3620 H   0  0  0  0  0  0  0  0  0  0  0  0
   38.8990   35.2660   39.7810 H   0  0  0  0  0  0  0  0  0  0  0  0
   37.9020   30.7690   40.3560 C   0  0  1  0  0  3  0  0  0  0  0  0
   38.8850   29.6170   40.1260 C   0  0  0  0  0  3  0  0  0  0  0  0
   39.8460   29.8530   40.6350 H   0  0  0  0  0  0  0  0  0  0  0  0
   38.1520   28.5090   40.8610 C   0  0  0  0  0  3  0  0  0  0  0  0
   37.4250   28.0220   40.1720 H   0  0  0  0  0  0  0  0  0  0  0  0
   37.5220   29.1290   41.9370 O   0  0  0  0  0  0  0  0  0  0  0  0
   37.0690   30.3630   41.5260 C   0  0  0  0  0  3  0  0  0  0  0  0
   35.9870   30.2650   41.2330 H   0  0  0  0  0  0  0  0  0  0  0  0
   43.5110   35.4680   41.1640 C   0  0  0  0  0  3  0  0  0  0  0  0
   43.6850   35.4760   42.4830 C   0  0  0  0  0  3  0  0  0  0  0  0
   45.0210   35.4800   43.1890 C   0  0  0  0  0  0  0  0  0  0  0  0
   45.7140   35.0220   42.4230 H   0  0  0  0  0  0  0  0  0  0  0  0
   45.3600   36.5030   43.4120 H   0  0  0  0  0  0  0  0  0  0  0  0
   44.9380   34.6570   44.2830 O   0  0  0  0  0  0  0  0  0  0  0  0
   45.6880   32.5380   42.8520 O   0  0  0  0  0  0  0  0  0  0  0  0
   45.9710   33.3350   44.1030 P   0  0  1  0  0  0  0  0  0  0  0  0
   47.5860   33.8730   44.0000 O   0  0  0  0  0  0  0  0  0  0  0  0
   47.6410   34.7310   44.4580 H   0  0  0  0  0  0  0  0  0  0  0  0
   45.8720   32.3370   45.4580 O   0  0  0  0  0  0  0  0  0  0  0  0
   46.1580   33.0040   46.6320 C   0  0  0  0  0  0  0  0  0  0  0  0
   47.0560   32.3550   47.6390 C   0  0  0  0  0  0  0  0  0  0  0  0
   45.5560   32.4000   47.8770 C   0  0  0  0  0  0  0  0  0  0  0  0
   46.1660   34.1010   46.5560 H   0  0  0  0  0  0  0  0  0  0  0  0
   47.5490   31.4210   47.3480 H   0  0  0  0  0  0  0  0  0  0  0  0
   47.6570   33.0540   48.2460 H   0  0  0  0  0  0  0  0  0  0  0  0
   45.1570   33.0530   48.6670 H   0  0  0  0  0  0  0  0  0  0  0  0
   45.0930   31.3840   47.8040 H   0  0  0  0  0  0  0  0  0  0  0  0
  1 21  1  0  0  0  0
  1  2  1  0  0  0  0
  2  4  1  0  0  0  0
  3  2  1  0  0  0  0
  5 11  1  0  0  0  0
  6  2  1  0  0  0  0
  6  5  2  0  0  0  0
  7  6  1  0  0  0  0
  8  7  2  0  0  0  0
  8  9  1  0  0  0  0
  9 10  2  0  0  0  0
 10  5  1  0  0  0  0
 12  7  1  0  0  0  0
 13  9  1  1  0  0  0
 13 19  1  0  0  0  0
 14 13  1  0  0  0  0
 14 15  1  0  0  0  0
 14 16  1  0  0  0  0
 16 18  1  0  0  0  0
 17 16  1  0  0  0  0
 19 18  1  0  0  0  0
 20 19  1  0  0  0  0
 21 22  2  0  0  0  0
 22 23  1  0  0  0  0
 23 25  1  0  0  0  0
 23 26  1  0  0  0  0
 24 23  1  0  0  0  0
 28 27  2  6  0  0  0
 28 26  1  0  0  0  0
 28 31  1  0  0  0  0
 29 28  1  0  0  0  0
 29 30  1  0  0  0  0
 31 32  1  0  0  0  0
 32 33  1  0  0  0  0
 32 34  1  0  0  0  0
 33 34  1  0  0  0  0
 33 37  1  0  0  0  0
 34 38  1  0  0  0  0
 35 32  1  0  0  0  0
 36 33  1  0  0  0  0
 39 34  1  0  0  0  0
M  END
>  <minimizedAffinity>
-5.05155468

>  <minimizedRMSD>
0.762299716

$$$$
