
 OpenBabel03252507083D

 23 24  0  0  1  0  0  0  0  0999 V2000
   44.9150   34.9570   45.0790 C   0  0  0  0  0  0  0  0  0  0  0  0
   45.4450   35.2900   43.8080 C   0  0  0  0  0  0  0  0  0  0  0  0
   46.5070   34.5400   43.3200 C   0  0  0  0  0  0  0  0  0  0  0  0
   46.9840   33.5210   44.0940 N   0  0  0  0  0  0  0  0  0  0  0  0
   46.4660   33.2250   45.2930 C   0  0  0  0  0  0  0  0  0  0  0  0
   45.4280   33.9440   45.7900 N   0  0  0  0  0  0  0  0  0  0  0  0
   44.0870   35.6090   45.3590 H   0  0  0  0  0  0  0  0  0  0  0  0
   45.0550   36.1020   43.2070 H   0  0  0  0  0  0  0  0  0  0  0  0
   46.9780   32.1280   46.1270 C   0  0  1  0  0  3  0  0  0  0  0  0
   47.1630   32.5600   47.5890 C   0  0  0  0  0  3  0  0  0  0  0  0
   48.1010   33.1500   47.6520 H   0  0  0  0  0  0  0  0  0  0  0  0
   47.3060   31.1710   48.1790 C   0  0  0  0  0  3  0  0  0  0  0  0
   47.1540   31.1350   49.2660 H   0  0  0  0  0  0  0  0  0  0  0  0
   46.4940   30.3290   47.4440 O   0  0  0  0  0  0  0  0  0  0  0  0
   46.0410   30.9850   46.3280 C   0  0  0  0  0  3  0  0  0  0  0  0
   45.0070   31.3620   46.5750 H   0  0  0  0  0  0  0  0  0  0  0  0
   47.0140   34.8750   42.0830 O   0  0  0  0  0  0  0  0  0  0  0  0
   48.9920   33.3520   41.2120 O   0  0  0  0  0  0  0  0  0  0  0  0
   48.7020   34.7400   41.7950 P   0  0  0  0  0  0  0  0  0  0  0  0
   49.1950   35.9630   40.7840 O   0  0  0  0  0  0  0  0  0  0  0  0
   50.0340   36.3760   41.1450 H   0  0  0  0  0  0  0  0  0  0  0  0
   49.4770   34.8180   43.3100 O   0  0  0  0  0  0  0  0  0  0  0  0
   49.4860   33.9120   43.6750 H   0  0  0  0  0  0  0  0  0  0  0  0
  1  7  1  0  0  0  0
  1  6  1  0  0  0  0
  2  1  2  0  0  0  0
  3  2  1  0  0  0  0
  3  4  2  0  0  0  0
  4  5  1  0  0  0  0
  5  6  2  0  0  0  0
  8  2  1  0  0  0  0
  9  5  1  6  0  0  0
  9 15  1  0  0  0  0
  9 10  1  0  0  0  0
 10 11  1  0  0  0  0
 10 12  1  0  0  0  0
 12 13  1  0  0  0  0
 14 12  1  0  0  0  0
 15 16  1  0  0  0  0
 15 14  1  0  0  0  0
 17  3  1  0  0  0  0
 18 19  2  0  0  0  0
 19 17  1  0  0  0  0
 19 22  1  0  0  0  0
 20 21  1  0  0  0  0
 20 19  1  0  0  0  0
 22 23  1  0  0  0  0
M  END
>  <minimizedAffinity>
-5.11873341

>  <minimizedRMSD>
1.16482377

$$$$
