
 OpenBabel03252508083D

 43 46  0  0  1  0  0  0  0  0999 V2000
   45.9610   35.0940   42.3370 C   0  0  0  0  0  0  0  0  0  0  0  0
   46.0580   33.7570   42.6910 C   0  0  0  0  0  0  0  0  0  0  0  0
   45.5610   33.3280   43.8960 C   0  0  0  0  0  0  0  0  0  0  0  0
   44.9750   34.2820   44.7050 N   0  0  0  0  0  0  0  0  0  0  0  0
   44.8840   35.5640   44.3600 C   0  0  0  0  0  0  0  0  0  0  0  0
   45.3830   35.9560   43.1690 N   0  0  0  0  0  0  0  0  0  0  0  0
   46.3530   35.4320   41.3880 H   0  0  0  0  0  0  0  0  0  0  0  0
   44.4150   36.2690   45.0330 H   0  0  0  0  0  0  0  0  0  0  0  0
   45.5810   32.0080   44.4030 C   0  0  0  0  0  0  0  0  0  0  0  0
   45.0170   30.9100   43.7480 C   0  0  0  0  0  0  0  0  0  0  0  0
   44.9750   29.6410   44.2660 C   0  0  0  0  0  0  0  0  0  0  0  0
   45.5150   29.3940   45.5070 C   0  0  0  0  0  0  0  0  0  0  0  0
   46.1010   30.5000   46.1970 C   0  0  0  0  0  0  0  0  0  0  0  0
   46.6390   30.2660   47.4290 C   0  0  0  0  0  0  0  0  0  0  0  0
   47.2210   31.2910   48.1450 C   0  0  0  0  0  0  0  0  0  0  0  0
   47.2580   32.5830   47.5920 C   0  0  0  0  0  0  0  0  0  0  0  0
   46.6890   32.7710   46.3210 C   0  0  0  0  0  0  0  0  0  0  0  0
   46.1140   31.7350   45.6360 C   0  0  0  0  0  0  0  0  0  0  0  0
   44.5840   31.0850   42.7670 H   0  0  0  0  0  0  0  0  0  0  0  0
   44.5120   28.8470   43.6770 H   0  0  0  0  0  0  0  0  0  0  0  0
   45.5010   28.4080   45.9480 H   0  0  0  0  0  0  0  0  0  0  0  0
   46.6180   29.2600   47.8720 H   0  0  0  0  0  0  0  0  0  0  0  0
   47.6300   31.0480   49.1160 H   0  0  0  0  0  0  0  0  0  0  0  0
   47.7290   33.3020   48.2230 H   0  0  0  0  0  0  0  0  0  0  0  0
   46.8340   33.8000   46.0690 H   0  0  0  0  0  0  0  0  0  0  0  0
   46.6570   32.9150   41.7950 O   0  0  0  0  0  0  0  0  0  0  0  0
   48.4570   31.0800   42.2980 O   0  0  0  0  0  0  0  0  0  0  0  0
   48.2930   32.4810   41.8280 P   0  0  1  0  0  0  0  0  0  0  0  0
   48.9690   32.5610   40.2750 O   0  0  0  0  0  0  0  0  0  0  0  0
   47.9710   33.1670   39.4850 C   0  0  2  0  0  3  0  0  0  0  0  0
   47.9440   32.5480   38.0980 C   0  0  0  0  0  3  0  0  0  0  0  0
   48.8730   31.9730   37.8650 H   0  0  0  0  0  0  0  0  0  0  0  0
   47.8650   33.7920   37.2240 C   0  0  0  0  0  3  0  0  0  0  0  0
   46.7900   34.0530   37.1830 H   0  0  0  0  0  0  0  0  0  0  0  0
   48.6400   34.6960   37.9310 O   0  0  0  0  0  0  0  0  0  0  0  0
   48.1940   34.6200   39.2430 C   0  0  0  0  0  3  0  0  0  0  0  0
   47.1800   35.1160   39.2460 H   0  0  0  0  0  0  0  0  0  0  0  0
   49.1040   33.5600   42.8260 O   0  0  0  0  0  0  0  0  0  0  0  0
   50.1830   34.3580   42.4820 C   0  0  0  0  0  0  0  0  0  0  0  0
   49.7260   35.5170   42.4640 O   0  0  0  0  0  0  0  0  0  0  0  0
   51.3680   33.5620   42.2850 N   0  0  0  0  0  0  0  0  0  0  0  0
   51.7710   33.0910   43.1450 H   0  0  0  0  0  0  0  0  0  0  0  0
   51.8990   33.3800   41.3890 H   0  0  0  0  0  0  0  0  0  0  0  0
  1  2  2  0  0  0  0
  1  6  1  0  0  0  0
  2  3  1  0  0  0  0
  3  9  1  0  0  0  0
  3  4  2  0  0  0  0
  5  4  1  0  0  0  0
  5  8  1  0  0  0  0
  6  5  2  0  0  0  0
  7  1  1  0  0  0  0
  9 18  1  0  0  0  0
 10 11  1  0  0  0  0
 10  9  2  0  0  0  0
 11 12  2  0  0  0  0
 12 21  1  0  0  0  0
 12 13  1  0  0  0  0
 13 14  1  0  0  0  0
 14 22  1  0  0  0  0
 14 15  2  0  0  0  0
 15 23  1  0  0  0  0
 16 15  1  0  0  0  0
 16 24  1  0  0  0  0
 17 16  2  0  0  0  0
 18 13  2  0  0  0  0
 18 17  1  0  0  0  0
 19 10  1  0  0  0  0
 20 11  1  0  0  0  0
 25 17  1  0  0  0  0
 26 28  1  0  0  0  0
 26  2  1  0  0  0  0
 28 27  2  1  0  0  0
 28 38  1  0  0  0  0
 29 28  1  0  0  0  0
 30 29  1  1  0  0  0
 31 30  1  0  0  0  0
 32 31  1  0  0  0  0
 33 35  1  0  0  0  0
 33 31  1  0  0  0  0
 34 33  1  0  0  0  0
 35 36  1  0  0  0  0
 36 37  1  0  0  0  0
 36 30  1  0  0  0  0
 39 38  1  0  0  0  0
 40 39  2  0  0  0  0
 41 39  1  0  0  0  0
 41 42  1  0  0  0  0
 43 41  1  0  0  0  0
M  END
>  <minimizedAffinity>
-5.71398211

>  <minimizedRMSD>
1.34831476

$$$$
