
 OpenBabel03252505583D

 35 37  0  0  1  0  0  0  0  0999 V2000
   44.9370   35.0750   45.2500 C   0  0  0  0  0  0  0  0  0  0  0  0
   45.4290   34.6140   44.0110 C   0  0  0  0  0  0  0  0  0  0  0  0
   46.0250   33.3600   43.9970 C   0  0  0  0  0  0  0  0  0  0  0  0
   46.0980   32.6670   45.1540 N   0  0  0  0  0  0  0  0  0  0  0  0
   45.6210   33.1350   46.3080 C   0  0  0  0  0  0  0  0  0  0  0  0
   45.0440   34.3300   46.3610 N   0  0  0  0  0  0  0  0  0  0  0  0
   44.4700   36.0510   45.2710 H   0  0  0  0  0  0  0  0  0  0  0  0
   46.5890   32.6940   42.8390 C   0  0  2  0  0  3  0  0  0  0  0  0
   46.5450   31.1820   43.1300 C   0  0  0  0  0  3  0  0  0  0  0  0
   45.8690   30.6410   42.4400 H   0  0  0  0  0  0  0  0  0  0  0  0
   47.9390   30.6750   42.9540 C   0  0  0  0  0  3  0  0  0  0  0  0
   48.1910   29.8250   43.6080 H   0  0  0  0  0  0  0  0  0  0  0  0
   48.6730   31.7720   43.4080 O   0  0  0  0  0  0  0  0  0  0  0  0
   48.0990   32.8660   42.7600 C   0  0  0  0  0  3  0  0  0  0  0  0
   48.3860   32.8200   41.6910 H   0  0  0  0  0  0  0  0  0  0  0  0
   45.2920   35.4640   42.8080 C   0  0  0  0  0  0  0  0  0  0  0  0
   44.7810   36.6660   43.2980 F   0  0  0  0  0  0  0  0  0  0  0  0
   44.2880   34.8910   42.0250 F   0  0  0  0  0  0  0  0  0  0  0  0
   46.4590   35.6410   42.2020 F   0  0  0  0  0  0  0  0  0  0  0  0
   45.6990   32.4160   47.4980 O   0  0  0  0  0  0  0  0  0  0  0  0
   45.2940   31.0630   47.5440 C   0  0  0  0  0  0  0  0  0  0  0  0
   44.6810   30.9390   48.4700 H   0  0  0  0  0  0  0  0  0  0  0  0
   44.6510   30.7660   46.6970 H   0  0  0  0  0  0  0  0  0  0  0  0
   46.5080   30.2440   47.7000 C   0  0  0  0  0  0  0  0  0  0  0  0
   46.7920   28.9680   47.2310 C   0  0  0  0  0  0  0  0  0  0  0  0
   48.0080   28.4370   47.5240 C   0  0  0  0  0  0  0  0  0  0  0  0
   48.9220   29.0930   48.2350 N   0  0  0  0  0  0  0  0  0  0  0  0
   48.6420   30.3240   48.6850 C   0  0  0  0  0  0  0  0  0  0  0  0
   47.4350   30.9130   48.4240 N   0  0  0  0  0  0  0  0  0  0  0  0
   45.9840   28.5510   46.6770 H   0  0  0  0  0  0  0  0  0  0  0  0
   48.1640   27.4350   47.1250 H   0  0  0  0  0  0  0  0  0  0  0  0
   49.7200   30.9720   49.4660 C   0  0  0  0  0  0  0  0  0  0  0  0
   49.6590   32.3470   49.3670 F   0  0  0  0  0  0  0  0  0  0  0  0
   50.9690   30.5540   49.0000 F   0  0  0  0  0  0  0  0  0  0  0  0
   49.6620   30.6480   50.8060 F   0  0  0  0  0  0  0  0  0  0  0  0
  1  7  1  0  0  0  0
  1  6  1  0  0  0  0
  2  1  2  0  0  0  0
  3  2  1  0  0  0  0
  3  4  2  0  0  0  0
  4  5  1  0  0  0  0
  5  6  2  0  0  0  0
  5 20  1  0  0  0  0
  8  9  1  0  0  0  0
  8  3  1  1  0  0  0
 10  9  1  0  0  0  0
 11  9  1  0  0  0  0
 11 13  1  0  0  0  0
 11 12  1  0  0  0  0
 14  8  1  0  0  0  0
 14 13  1  0  0  0  0
 15 14  1  0  0  0  0
 16 17  1  0  0  0  0
 16  2  1  0  0  0  0
 18 16  1  0  0  0  0
 19 16  1  0  0  0  0
 20 21  1  0  0  0  0
 21 24  1  0  0  0  0
 21 22  1  0  0  0  0
 23 21  1  0  0  0  0
 24 29  1  0  0  0  0
 25 26  1  0  0  0  0
 25 24  2  0  0  0  0
 26 27  2  0  0  0  0
 27 28  1  0  0  0  0
 28 32  1  0  0  0  0
 29 28  2  0  0  0  0
 30 25  1  0  0  0  0
 31 26  1  0  0  0  0
 32 35  1  0  0  0  0
 33 32  1  0  0  0  0
 34 32  1  0  0  0  0
M  END
>  <minimizedAffinity>
-5.29422712

>  <minimizedRMSD>
1.11420679

$$$$
