
 OpenBabel03252502173D

 23 24  0  0  1  0  0  0  0  0999 V2000
   46.3510   34.9370   42.3470 C   0  0  0  0  0  0  0  0  0  0  0  0
   45.6440   34.4920   41.2080 C   0  0  0  0  0  0  0  0  0  0  0  0
   44.2390   34.6470   41.1930 C   0  0  0  0  0  0  0  0  0  0  0  0
   43.6360   35.2130   42.2640 N   0  0  0  0  0  0  0  0  0  0  0  0
   44.3640   35.6240   43.3350 C   0  0  0  0  0  0  0  0  0  0  0  0
   45.7010   35.4950   43.3920 N   0  0  0  0  0  0  0  0  0  0  0  0
   47.4170   34.8230   42.3690 H   0  0  0  0  0  0  0  0  0  0  0  0
   43.8150   36.0590   44.1410 H   0  0  0  0  0  0  0  0  0  0  0  0
   43.5240   34.1700   39.9800 C   0  0  2  0  0  3  0  0  0  0  0  0
   42.4170   35.1220   39.5720 C   0  0  0  0  0  3  0  0  0  0  0  0
   42.7630   35.9520   38.9410 H   0  0  0  0  0  0  0  0  0  0  0  0
   41.4930   34.1650   38.8460 C   0  0  0  0  0  3  0  0  0  0  0  0
   41.9360   33.9930   37.8520 H   0  0  0  0  0  0  0  0  0  0  0  0
   41.4880   33.0700   39.6830 O   0  0  0  0  0  0  0  0  0  0  0  0
   42.7370   32.9200   40.2260 C   0  0  0  0  0  3  0  0  0  0  0  0
   43.2470   32.0820   39.6790 H   0  0  0  0  0  0  0  0  0  0  0  0
   46.3830   33.9350   40.1900 O   0  0  0  0  0  0  0  0  0  0  0  0
   47.2260   31.6940   39.0650 O   0  0  0  0  0  0  0  0  0  0  0  0
   47.1410   32.4030   40.3680 P   0  0  0  0  0  0  0  0  0  0  0  0
   48.7180   32.5950   40.9580 O   0  0  0  0  0  0  0  0  0  0  0  0
   49.2320   33.0460   40.2250 H   0  0  0  0  0  0  0  0  0  0  0  0
   46.2740   31.4480   41.4550 O   0  0  0  0  0  0  0  0  0  0  0  0
   45.8220   31.9680   42.1540 H   0  0  0  0  0  0  0  0  0  0  0  0
  1  7  1  0  0  0  0
  1  6  1  0  0  0  0
  2  1  2  0  0  0  0
  3  2  1  0  0  0  0
  3  4  2  0  0  0  0
  4  5  1  0  0  0  0
  5  6  2  0  0  0  0
  5  8  1  0  0  0  0
  9 15  1  0  0  0  0
  9  3  1  1  0  0  0
 10  9  1  0  0  0  0
 11 10  1  0  0  0  0
 12 10  1  0  0  0  0
 12 14  1  0  0  0  0
 13 12  1  0  0  0  0
 14 15  1  0  0  0  0
 16 15  1  0  0  0  0
 17 19  1  0  0  0  0
 17  2  1  0  0  0  0
 18 19  2  0  0  0  0
 19 20  1  0  0  0  0
 19 22  1  0  0  0  0
 21 20  1  0  0  0  0
 22 23  1  0  0  0  0
M  END
>  <minimizedAffinity>
-3.43294144

>  <minimizedRMSD>
5.58823013

$$$$
