
 OpenBabel03252509043D

 47 49  0  0  1  0  0  0  0  0999 V2000
   47.0960   34.3370   43.2510 N   0  0  0  0  0  0  0  0  0  0  0  0
   46.7370   34.9150   42.0140 C   0  0  0  0  0  0  0  0  0  0  0  0
   45.2970   34.6780   41.5950 C   0  0  0  0  0  0  0  0  0  0  0  0
   44.3160   34.6190   42.7370 C   0  0  0  0  0  0  0  0  0  0  0  0
   44.9930   34.9010   44.0660 C   0  0  0  0  0  0  0  0  0  0  0  0
   46.1520   33.8290   44.1180 C   0  0  2  0  0  0  0  0  0  0  0  0
   46.8370   36.0250   42.1200 H   0  0  0  0  0  0  0  0  0  0  0  0
   47.3560   34.6520   41.1460 H   0  0  0  0  0  0  0  0  0  0  0  0
   45.0450   35.4500   40.8530 H   0  0  0  0  0  0  0  0  0  0  0  0
   45.2730   33.6960   41.0680 H   0  0  0  0  0  0  0  0  0  0  0  0
   43.4900   35.3290   42.5410 H   0  0  0  0  0  0  0  0  0  0  0  0
   43.8350   33.6220   42.8370 H   0  0  0  0  0  0  0  0  0  0  0  0
   44.3050   34.6440   44.8780 H   0  0  0  0  0  0  0  0  0  0  0  0
   45.4410   35.8980   44.1070 H   0  0  0  0  0  0  0  0  0  0  0  0
   45.6590   32.8740   43.8460 H   0  0  0  0  0  0  0  0  0  0  0  0
   48.4160   33.7660   43.2660 C   0  0  0  0  0  0  0  0  0  0  0  0
   48.8190   33.8280   44.3070 H   0  0  0  0  0  0  0  0  0  0  0  0
   49.0690   34.3690   42.5930 H   0  0  0  0  0  0  0  0  0  0  0  0
   48.3360   32.3310   42.8500 C   0  0  0  0  0  0  0  0  0  0  0  0
   48.5320   31.6610   43.6840 H   0  0  0  0  0  0  0  0  0  0  0  0
   47.3290   32.0900   42.4580 H   0  0  0  0  0  0  0  0  0  0  0  0
   51.5850   31.8560   41.0090 C   0  0  0  0  0  0  0  0  0  0  0  0
   50.6410   32.0870   42.0350 C   0  0  0  0  0  0  0  0  0  0  0  0
   49.3080   32.0850   41.7510 C   0  0  0  0  0  0  0  0  0  0  0  0
   48.9460   31.8590   40.4800 N   0  0  0  0  0  0  0  0  0  0  0  0
   49.8240   31.6400   39.5020 C   0  0  0  0  0  0  0  0  0  0  0  0
   51.1440   31.6350   39.7480 N   0  0  0  0  0  0  0  0  0  0  0  0
   52.6400   31.8540   41.2180 H   0  0  0  0  0  0  0  0  0  0  0  0
   50.9780   32.2660   43.0580 H   0  0  0  0  0  0  0  0  0  0  0  0
   49.4290   31.4670   38.5100 H   0  0  0  0  0  0  0  0  0  0  0  0
   46.5360   33.9140   45.4370 O   0  0  0  0  0  0  0  0  0  0  0  0
   45.7210   31.3760   45.4040 O   0  0  0  0  0  0  0  0  0  0  0  0
   46.2510   32.5120   46.3030 P   0  0  2  0  0  0  0  0  0  0  0  0
   44.9310   32.8570   47.3470 O   0  0  0  0  0  0  0  0  0  0  0  0
   45.2500   33.4060   48.1100 H   0  0  0  0  0  0  0  0  0  0  0  0
   47.5130   32.0080   47.2480 O   0  0  0  0  0  0  0  0  0  0  0  0
   47.4020   30.6610   47.5320 C   0  0  0  0  0  0  0  0  0  0  0  0
   47.1320   30.4540   48.5950 H   0  0  0  0  0  0  0  0  0  0  0  0
   46.5980   30.2260   46.9060 H   0  0  0  0  0  0  0  0  0  0  0  0
   48.6760   29.8960   47.2720 C   0  0  1  0  0  3  0  0  0  0  0  0
   48.6590   28.5390   47.9440 C   0  0  0  0  0  3  0  0  0  0  0  0
   49.6810   28.1720   48.1530 H   0  0  0  0  0  0  0  0  0  0  0  0
   48.0480   27.6560   46.8590 C   0  0  0  0  0  3  0  0  0  0  0  0
   47.2160   27.0320   47.2700 H   0  0  0  0  0  0  0  0  0  0  0  0
   47.5920   28.5270   45.8700 O   0  0  0  0  0  0  0  0  0  0  0  0
   48.6350   29.4540   45.8030 C   0  0  0  0  0  3  0  0  0  0  0  0
   49.5520   28.8480   45.5670 H   0  0  0  0  0  0  0  0  0  0  0  0
  1 16  1  0  0  0  0
  1  6  1  0  0  0  0
  2  7  1  0  0  0  0
  2  1  1  0  0  0  0
  3  2  1  0  0  0  0
  3  4  1  0  0  0  0
  4 12  1  0  0  0  0
  4  5  1  0  0  0  0
  5 14  1  0  0  0  0
  5  6  1  0  0  0  0
  5 13  1  0  0  0  0
  6 15  1  6  0  0  0
  6 31  1  0  0  0  0
  8  2  1  0  0  0  0
  9  3  1  0  0  0  0
 10  3  1  0  0  0  0
 11  4  1  0  0  0  0
 16 17  1  0  0  0  0
 18 16  1  0  0  0  0
 19 16  1  0  0  0  0
 19 20  1  0  0  0  0
 21 19  1  0  0  0  0
 22 28  1  0  0  0  0
 22 23  1  0  0  0  0
 23 29  1  0  0  0  0
 24 23  2  0  0  0  0
 24 19  1  0  0  0  0
 25 24  1  0  0  0  0
 26 27  1  0  0  0  0
 26 25  2  0  0  0  0
 27 22  2  0  0  0  0
 30 26  1  0  0  0  0
 31 33  1  0  0  0  0
 33 32  2  6  0  0  0
 33 36  1  0  0  0  0
 33 34  1  0  0  0  0
 34 35  1  0  0  0  0
 36 37  1  0  0  0  0
 37 38  1  0  0  0  0
 39 37  1  0  0  0  0
 40 37  1  1  0  0  0
 40 41  1  0  0  0  0
 41 42  1  0  0  0  0
 43 44  1  0  0  0  0
 43 41  1  0  0  0  0
 45 43  1  0  0  0  0
 46 45  1  0  0  0  0
 46 40  1  0  0  0  0
 47 46  1  0  0  0  0
M  END
>  <minimizedAffinity>
-4.24170732

>  <minimizedRMSD>
2.39605761

$$$$
