
 OpenBabel03252505583D

 35 37  0  0  1  0  0  0  0  0999 V2000
   44.8900   34.7970   45.1080 C   0  0  0  0  0  0  0  0  0  0  0  0
   45.5240   34.8700   43.8500 C   0  0  0  0  0  0  0  0  0  0  0  0
   46.6560   34.0870   43.6680 C   0  0  0  0  0  0  0  0  0  0  0  0
   47.0770   33.3130   44.6920 N   0  0  0  0  0  0  0  0  0  0  0  0
   46.4500   33.2680   45.8690 C   0  0  0  0  0  0  0  0  0  0  0  0
   45.3640   34.0030   46.0810 N   0  0  0  0  0  0  0  0  0  0  0  0
   44.0060   35.4030   45.2590 H   0  0  0  0  0  0  0  0  0  0  0  0
   47.4550   34.0030   42.4610 C   0  0  2  0  0  3  0  0  0  0  0  0
   48.5480   32.9510   42.7220 C   0  0  0  0  0  3  0  0  0  0  0  0
   48.4420   32.0650   42.0670 H   0  0  0  0  0  0  0  0  0  0  0  0
   49.8560   33.6180   42.4400 C   0  0  0  0  0  3  0  0  0  0  0  0
   50.6890   33.2440   43.0590 H   0  0  0  0  0  0  0  0  0  0  0  0
   49.5800   34.9180   42.8690 O   0  0  0  0  0  0  0  0  0  0  0  0
   48.3520   35.2220   42.2850 C   0  0  0  0  0  3  0  0  0  0  0  0
   48.5130   35.3640   41.1980 H   0  0  0  0  0  0  0  0  0  0  0  0
   44.9710   35.7560   42.8020 C   0  0  0  0  0  0  0  0  0  0  0  0
   43.6010   35.7800   43.0670 F   0  0  0  0  0  0  0  0  0  0  0  0
   45.1340   35.0890   41.5870 F   0  0  0  0  0  0  0  0  0  0  0  0
   45.5000   36.9720   42.8640 F   0  0  0  0  0  0  0  0  0  0  0  0
   46.8880   32.4680   46.9210 O   0  0  0  0  0  0  0  0  0  0  0  0
   46.6480   31.0750   46.9090 C   0  0  0  0  0  0  0  0  0  0  0  0
   45.9650   30.8560   47.7650 H   0  0  0  0  0  0  0  0  0  0  0  0
   46.1340   30.7240   45.9980 H   0  0  0  0  0  0  0  0  0  0  0  0
   47.9310   30.4030   47.1790 C   0  0  0  0  0  0  0  0  0  0  0  0
   48.6400   29.4900   46.4100 C   0  0  0  0  0  0  0  0  0  0  0  0
   49.8160   29.0180   46.9040 C   0  0  0  0  0  0  0  0  0  0  0  0
   50.3010   29.4010   48.0830 N   0  0  0  0  0  0  0  0  0  0  0  0
   49.6120   30.2830   48.8190 C   0  0  0  0  0  0  0  0  0  0  0  0
   48.4220   30.7940   48.3780 N   0  0  0  0  0  0  0  0  0  0  0  0
   48.1500   29.2650   45.4920 H   0  0  0  0  0  0  0  0  0  0  0  0
   50.3190   28.3070   46.2500 H   0  0  0  0  0  0  0  0  0  0  0  0
   50.2310   30.6470   50.1140 C   0  0  0  0  0  0  0  0  0  0  0  0
   50.0190   31.9760   50.4200 F   0  0  0  0  0  0  0  0  0  0  0  0
   51.6090   30.4210   50.0670 F   0  0  0  0  0  0  0  0  0  0  0  0
   49.7360   29.8950   51.1600 F   0  0  0  0  0  0  0  0  0  0  0  0
  1  7  1  0  0  0  0
  1  6  1  0  0  0  0
  2  1  2  0  0  0  0
  3  2  1  0  0  0  0
  3  4  2  0  0  0  0
  4  5  1  0  0  0  0
  5  6  2  0  0  0  0
  5 20  1  0  0  0  0
  8  9  1  0  0  0  0
  8  3  1  1  0  0  0
 10  9  1  0  0  0  0
 11  9  1  0  0  0  0
 11 13  1  0  0  0  0
 11 12  1  0  0  0  0
 14  8  1  0  0  0  0
 14 13  1  0  0  0  0
 15 14  1  0  0  0  0
 16 19  1  0  0  0  0
 16 17  1  0  0  0  0
 16  2  1  0  0  0  0
 18 16  1  0  0  0  0
 21 20  1  0  0  0  0
 21 24  1  0  0  0  0
 21 22  1  0  0  0  0
 23 21  1  0  0  0  0
 24 29  1  0  0  0  0
 25 26  1  0  0  0  0
 25 24  2  0  0  0  0
 26 27  2  0  0  0  0
 27 28  1  0  0  0  0
 28 32  1  0  0  0  0
 29 28  2  0  0  0  0
 30 25  1  0  0  0  0
 31 26  1  0  0  0  0
 32 33  1  0  0  0  0
 32 35  1  0  0  0  0
 34 32  1  0  0  0  0
M  END
>  <minimizedAffinity>
-5.9401145

>  <minimizedRMSD>
1.34659636

$$$$
