
 OpenBabel03242520263D

 37 39  0  0  1  0  0  0  0  0999 V2000
   45.0480   35.5950   42.9950 C   0  0  0  0  0  0  0  0  0  0  0  0
   45.9980   34.5360   43.0460 C   0  0  0  0  0  0  0  0  0  0  0  0
   46.2340   33.9260   44.2610 C   0  0  0  0  0  0  0  0  0  0  0  0
   45.5440   34.3680   45.3580 N   0  0  0  0  0  0  0  0  0  0  0  0
   44.6490   35.3700   45.2920 C   0  0  0  0  0  0  0  0  0  0  0  0
   44.4050   35.9750   44.1240 N   0  0  0  0  0  0  0  0  0  0  0  0
   44.8450   36.0880   42.0590 H   0  0  0  0  0  0  0  0  0  0  0  0
   44.2090   35.5750   46.2580 H   0  0  0  0  0  0  0  0  0  0  0  0
   46.6220   34.2070   41.8190 N   0  0  0  0  0  0  0  0  0  0  0  0
   47.7790   34.9330   41.3020 C   0  0  0  0  0  0  0  0  0  0  0  0
   48.2730   34.2450   40.0570 C   0  0  0  0  0  0  0  0  0  0  0  0
   47.2450   34.0430   39.0850 N   0  0  0  0  0  0  0  0  0  0  0  0
   46.0580   33.4270   39.5820 C   0  0  0  0  0  0  0  0  0  0  0  0
   46.0830   33.1010   41.0490 C   0  0  0  0  0  0  0  0  0  0  0  0
   47.4050   35.9520   41.0740 H   0  0  0  0  0  0  0  0  0  0  0  0
   48.5610   34.9460   42.0660 H   0  0  0  0  0  0  0  0  0  0  0  0
   49.0890   34.7900   39.5830 H   0  0  0  0  0  0  0  0  0  0  0  0
   48.6390   33.2370   40.3600 H   0  0  0  0  0  0  0  0  0  0  0  0
   47.0400   34.9680   38.6420 H   0  0  0  0  0  0  0  0  0  0  0  0
   45.1750   34.0580   39.3490 H   0  0  0  0  0  0  0  0  0  0  0  0
   45.9130   32.4680   39.0100 H   0  0  0  0  0  0  0  0  0  0  0  0
   45.0820   32.8150   41.3700 H   0  0  0  0  0  0  0  0  0  0  0  0
   46.7360   32.1900   41.1820 H   0  0  0  0  0  0  0  0  0  0  0  0
   47.1650   32.8970   44.2860 O   0  0  0  0  0  0  0  0  0  0  0  0
   45.5540   31.1040   45.3740 O   0  0  0  0  0  0  0  0  0  0  0  0
   46.9760   31.6420   45.4480 P   0  0  1  0  0  0  0  0  0  0  0  0
   48.0940   30.4480   45.0940 O   0  0  0  0  0  0  0  0  0  0  0  0
   47.6710   29.7910   44.4640 H   0  0  0  0  0  0  0  0  0  0  0  0
   47.2330   32.3230   46.9810 O   0  0  0  0  0  0  0  0  0  0  0  0
   46.7110   31.4990   47.9510 C   0  0  1  0  0  3  0  0  0  0  0  0
   45.8060   32.2690   48.9240 C   0  0  0  0  0  3  0  0  0  0  0  0
   46.3800   32.8590   49.6590 H   0  0  0  0  0  0  0  0  0  0  0  0
   45.1510   31.0470   49.5790 C   0  0  0  0  0  3  0  0  0  0  0  0
   45.9460   30.6180   50.2550 H   0  0  0  0  0  0  0  0  0  0  0  0
   44.9680   30.1260   48.5630 O   0  0  0  0  0  0  0  0  0  0  0  0
   45.7160   30.4900   47.4680 C   0  0  0  0  0  3  0  0  0  0  0  0
   46.1570   29.6490   46.9220 H   0  0  0  0  0  0  0  0  0  0  0  0
  1  2  2  0  0  0  0
  1  6  1  0  0  0  0
  2  3  1  0  0  0  0
  3 24  1  0  0  0  0
  3  4  2  0  0  0  0
  5  4  1  0  0  0  0
  5  8  1  0  0  0  0
  6  5  2  0  0  0  0
  7  1  1  0  0  0  0
  9  2  1  0  0  0  0
 10  9  1  0  0  0  0
 10 16  1  0  0  0  0
 11 18  1  0  0  0  0
 11 10  1  0  0  0  0
 12 13  1  0  0  0  0
 12 11  1  0  0  0  0
 13 14  1  0  0  0  0
 14 23  1  0  0  0  0
 14 22  1  0  0  0  0
 14  9  1  0  0  0  0
 15 10  1  0  0  0  0
 17 11  1  0  0  0  0
 19 12  1  0  0  0  0
 20 13  1  0  0  0  0
 21 13  1  0  0  0  0
 24 26  1  0  0  0  0
 26 25  2  6  0  0  0
 26 29  1  0  0  0  0
 27 26  1  0  0  0  0
 28 27  1  0  0  0  0
 30 29  1  6  0  0  0
 30 31  1  0  0  0  0
 31 33  1  0  0  0  0
 31 32  1  0  0  0  0
 33 34  1  0  0  0  0
 35 33  1  0  0  0  0
 36 30  1  0  0  0  0
 36 35  1  0  0  0  0
 37 36  1  0  0  0  0
M  END
>  <minimizedAffinity>
-5.22773647

>  <minimizedRMSD>
1.14717782

$$$$
