
 OpenBabel03252502573D

 36 38  0  0  1  0  0  0  0  0999 V2000
   39.6960   29.9130   38.7160 Br  0  0  0  0  0  0  0  0  0  0  0  0
   39.1020   31.6660   39.2420 C   0  0  0  0  0  0  0  0  0  0  0  0
   40.0940   32.5790   39.5060 C   0  0  0  0  0  0  0  0  0  0  0  0
   39.6240   33.8380   39.8850 C   0  0  0  0  0  0  0  0  0  0  0  0
   38.2870   34.1610   39.9920 C   0  0  0  0  0  0  0  0  0  0  0  0
   37.3630   33.1950   39.7110 C   0  0  0  0  0  0  0  0  0  0  0  0
   37.7460   31.9230   39.3300 C   0  0  0  0  0  0  0  0  0  0  0  0
   40.3480   34.6120   40.1090 H   0  0  0  0  0  0  0  0  0  0  0  0
   38.0160   35.1530   40.2890 H   0  0  0  0  0  0  0  0  0  0  0  0
   36.3000   33.4010   39.7820 H   0  0  0  0  0  0  0  0  0  0  0  0
   41.5330   32.3630   39.4300 C   0  0  0  0  0  0  0  0  0  0  0  0
   41.9730   33.2370   38.8910 H   0  0  0  0  0  0  0  0  0  0  0  0
   41.7850   31.4430   38.8690 H   0  0  0  0  0  0  0  0  0  0  0  0
   43.8200   32.8990   42.3200 C   0  0  0  0  0  0  0  0  0  0  0  0
   43.3440   31.9590   43.2340 C   0  0  0  0  0  0  0  0  0  0  0  0
   42.2660   31.1600   42.8670 C   0  0  0  0  0  0  0  0  0  0  0  0
   41.7170   31.3240   41.6380 N   0  0  0  0  0  0  0  0  0  0  0  0
   42.2010   32.2560   40.7560 C   0  0  0  0  0  0  0  0  0  0  0  0
   43.2540   33.0230   41.1380 N   0  0  0  0  0  0  0  0  0  0  0  0
   44.6590   33.4870   42.6660 H   0  0  0  0  0  0  0  0  0  0  0  0
   43.7200   31.7610   44.2300 H   0  0  0  0  0  0  0  0  0  0  0  0
   41.8200   30.4040   43.4940 H   0  0  0  0  0  0  0  0  0  0  0  0
   36.7960   30.9510   39.0480 O   0  0  0  0  0  0  0  0  0  0  0  0
   34.8200   29.3520   39.6420 O   0  0  0  0  0  0  0  0  0  0  0  0
   36.0490   30.0170   40.2500 P   0  0  2  0  0  0  0  0  0  0  0  0
   35.5700   31.0550   41.4810 O   0  0  0  0  0  0  0  0  0  0  0  0
   35.9990   30.8550   42.3540 H   0  0  0  0  0  0  0  0  0  0  0  0
   37.0460   28.8040   40.8470 O   0  0  0  0  0  0  0  0  0  0  0  0
   37.3170   28.9950   42.1950 C   0  0  1  0  0  3  0  0  0  0  0  0
   37.0350   27.7510   42.9600 C   0  0  0  0  0  3  0  0  0  0  0  0
   36.6030   26.9490   42.3140 H   0  0  0  0  0  0  0  0  0  0  0  0
   38.3710   27.2990   43.4720 C   0  0  0  0  0  3  0  0  0  0  0  0
   38.2640   27.0040   44.5250 H   0  0  0  0  0  0  0  0  0  0  0  0
   39.2800   28.2980   43.2810 O   0  0  0  0  0  0  0  0  0  0  0  0
   38.7790   29.2400   42.4370 C   0  0  0  0  0  3  0  0  0  0  0  0
   38.9330   30.2410   42.8910 H   0  0  0  0  0  0  0  0  0  0  0  0
  1  2  1  0  0  0  0
  2  7  2  0  0  0  0
  2  3  1  0  0  0  0
  3  4  2  0  0  0  0
  4  5  1  0  0  0  0
  4  8  1  0  0  0  0
  5  9  1  0  0  0  0
  6 10  1  0  0  0  0
  6  5  2  0  0  0  0
  7  6  1  0  0  0  0
 11  3  1  0  0  0  0
 11 18  1  0  0  0  0
 12 11  1  0  0  0  0
 13 11  1  0  0  0  0
 14 20  1  0  0  0  0
 14 15  1  0  0  0  0
 15 21  1  0  0  0  0
 16 15  2  0  0  0  0
 16 22  1  0  0  0  0
 17 16  1  0  0  0  0
 18 19  1  0  0  0  0
 18 17  2  0  0  0  0
 19 14  2  0  0  0  0
 23  7  1  0  0  0  0
 23 25  1  0  0  0  0
 25 24  2  6  0  0  0
 25 28  1  0  0  0  0
 25 26  1  0  0  0  0
 26 27  1  0  0  0  0
 29 28  1  6  0  0  0
 29 35  1  0  0  0  0
 29 30  1  0  0  0  0
 30 32  1  0  0  0  0
 31 30  1  0  0  0  0
 32 33  1  0  0  0  0
 34 32  1  0  0  0  0
 35 36  1  0  0  0  0
 35 34  1  0  0  0  0
M  END
>  <minimizedAffinity>
-5.478127

$$$$

 OpenBabel03252502573D

 36 38  0  0  1  0  0  0  0  0999 V2000
   39.8650   30.2340   42.2740 Br  0  0  0  0  0  0  0  0  0  0  0  0
   38.1950   30.0130   41.3450 C   0  0  0  0  0  0  0  0  0  0  0  0
   37.2840   29.1800   41.9460 C   0  0  0  0  0  0  0  0  0  0  0  0
   36.0850   29.0450   41.2430 C   0  0  0  0  0  0  0  0  0  0  0  0
   35.8160   29.6810   40.0490 C   0  0  0  0  0  0  0  0  0  0  0  0
   36.7770   30.4940   39.5180 C   0  0  0  0  0  0  0  0  0  0  0  0
   37.9910   30.6810   40.1520 C   0  0  0  0  0  0  0  0  0  0  0  0
   35.3150   28.4030   41.6550 H   0  0  0  0  0  0  0  0  0  0  0  0
   34.8680   29.5200   39.5770 H   0  0  0  0  0  0  0  0  0  0  0  0
   36.6120   31.0160   38.5810 H   0  0  0  0  0  0  0  0  0  0  0  0
   37.4450   28.4530   43.1980 C   0  0  0  0  0  0  0  0  0  0  0  0
   36.4250   28.3000   43.6290 H   0  0  0  0  0  0  0  0  0  0  0  0
   38.0530   29.0180   43.9300 H   0  0  0  0  0  0  0  0  0  0  0  0
   38.1290   24.9180   42.2470 C   0  0  0  0  0  0  0  0  0  0  0  0
   39.3720   24.7020   42.8400 C   0  0  0  0  0  0  0  0  0  0  0  0
   39.9610   25.7430   43.5500 C   0  0  0  0  0  0  0  0  0  0  0  0
   39.3070   26.9280   43.6390 N   0  0  0  0  0  0  0  0  0  0  0  0
   38.0860   27.1180   43.0470 C   0  0  0  0  0  0  0  0  0  0  0  0
   37.5320   26.0860   42.3600 N   0  0  0  0  0  0  0  0  0  0  0  0
   37.7260   24.0700   41.7110 H   0  0  0  0  0  0  0  0  0  0  0  0
   39.9620   23.7930   42.8210 H   0  0  0  0  0  0  0  0  0  0  0  0
   40.9170   25.6850   44.0470 H   0  0  0  0  0  0  0  0  0  0  0  0
   38.9580   31.5100   39.6010 O   0  0  0  0  0  0  0  0  0  0  0  0
   38.8370   33.5360   41.2420 O   0  0  0  0  0  0  0  0  0  0  0  0
   38.9230   33.1980   39.7590 P   0  0  2  0  0  0  0  0  0  0  0  0
   37.5430   33.7560   38.9790 O   0  0  0  0  0  0  0  0  0  0  0  0
   37.7380   34.3730   38.2260 H   0  0  0  0  0  0  0  0  0  0  0  0
   40.2970   33.9400   39.1410 O   0  0  0  0  0  0  0  0  0  0  0  0
   41.2520   33.0030   38.7730 C   0  0  1  0  0  3  0  0  0  0  0  0
   41.8620   33.3710   37.4680 C   0  0  0  0  0  3  0  0  0  0  0  0
   41.3860   34.2780   37.0220 H   0  0  0  0  0  0  0  0  0  0  0  0
   43.2970   33.6790   37.7830 C   0  0  0  0  0  3  0  0  0  0  0  0
   43.9350   33.2030   37.0260 H   0  0  0  0  0  0  0  0  0  0  0  0
   43.5690   33.2670   39.0540 O   0  0  0  0  0  0  0  0  0  0  0  0
   42.4150   32.9960   39.7230 C   0  0  0  0  0  3  0  0  0  0  0  0
   42.5120   32.0030   40.2080 H   0  0  0  0  0  0  0  0  0  0  0  0
  2  3  1  0  0  0  0
  2  1  1  0  0  0  0
  3 11  1  0  0  0  0
  4  8  1  0  0  0  0
  4  3  2  0  0  0  0
  5  4  1  0  0  0  0
  6  5  2  0  0  0  0
  6  7  1  0  0  0  0
  7  2  2  0  0  0  0
  9  5  1  0  0  0  0
 10  6  1  0  0  0  0
 11 12  1  0  0  0  0
 11 13  1  0  0  0  0
 14 19  2  0  0  0  0
 14 15  1  0  0  0  0
 15 16  2  0  0  0  0
 16 17  1  0  0  0  0
 16 22  1  0  0  0  0
 18 11  1  0  0  0  0
 18 17  2  0  0  0  0
 19 18  1  0  0  0  0
 20 14  1  0  0  0  0
 21 15  1  0  0  0  0
 23 25  1  0  0  0  0
 23  7  1  0  0  0  0
 25 24  2  1  0  0  0
 26 25  1  0  0  0  0
 27 26  1  0  0  0  0
 28 25  1  0  0  0  0
 29 28  1  1  0  0  0
 29 35  1  0  0  0  0
 30 32  1  0  0  0  0
 30 29  1  0  0  0  0
 31 30  1  0  0  0  0
 32 34  1  0  0  0  0
 33 32  1  0  0  0  0
 34 35  1  0  0  0  0
 35 36  1  0  0  0  0
M  END
>  <minimizedAffinity>
-5.46211386

$$$$

 OpenBabel03252502573D

 36 38  0  0  1  0  0  0  0  0999 V2000
   35.8590   28.8900   40.6800 Br  0  0  0  0  0  0  0  0  0  0  0  0
   37.4440   29.7760   41.3160 C   0  0  0  0  0  0  0  0  0  0  0  0
   37.9470   29.3170   42.5090 C   0  0  0  0  0  0  0  0  0  0  0  0
   39.0960   29.9840   42.9370 C   0  0  0  0  0  0  0  0  0  0  0  0
   39.6930   31.0150   42.2420 C   0  0  0  0  0  0  0  0  0  0  0  0
   39.1290   31.4110   41.0620 C   0  0  0  0  0  0  0  0  0  0  0  0
   37.9910   30.8030   40.5690 C   0  0  0  0  0  0  0  0  0  0  0  0
   39.5520   29.6770   43.8710 H   0  0  0  0  0  0  0  0  0  0  0  0
   40.5740   31.4700   42.6450 H   0  0  0  0  0  0  0  0  0  0  0  0
   39.5620   32.2190   40.4800 H   0  0  0  0  0  0  0  0  0  0  0  0
   37.4130   28.2420   43.3350 C   0  0  0  0  0  0  0  0  0  0  0  0
   36.3380   28.1130   43.0590 H   0  0  0  0  0  0  0  0  0  0  0  0
   37.4710   28.4800   44.4140 H   0  0  0  0  0  0  0  0  0  0  0  0
   39.8850   25.4610   43.4890 C   0  0  0  0  0  0  0  0  0  0  0  0
   39.2550   24.4820   42.7210 C   0  0  0  0  0  0  0  0  0  0  0  0
   38.0130   24.7690   42.1640 C   0  0  0  0  0  0  0  0  0  0  0  0
   37.4610   25.9870   42.3860 N   0  0  0  0  0  0  0  0  0  0  0  0
   38.0980   26.9340   43.1460 C   0  0  0  0  0  0  0  0  0  0  0  0
   39.3090   26.6290   43.6780 N   0  0  0  0  0  0  0  0  0  0  0  0
   40.8470   25.1760   43.8920 H   0  0  0  0  0  0  0  0  0  0  0  0
   39.6220   23.4880   42.4920 H   0  0  0  0  0  0  0  0  0  0  0  0
   37.4400   24.0870   41.5550 H   0  0  0  0  0  0  0  0  0  0  0  0
   37.4300   31.2170   39.3690 O   0  0  0  0  0  0  0  0  0  0  0  0
   39.0810   29.7230   38.0070 O   0  0  0  0  0  0  0  0  0  0  0  0
   38.1540   30.9240   37.8640 P   0  0  2  0  0  0  0  0  0  0  0  0
   39.0590   32.2810   37.4590 O   0  0  0  0  0  0  0  0  0  0  0  0
   38.7580   32.7200   36.6200 H   0  0  0  0  0  0  0  0  0  0  0  0
   37.0370   30.5720   36.6600 O   0  0  0  0  0  0  0  0  0  0  0  0
   36.6920   29.2280   36.6730 C   0  0  1  0  0  3  0  0  0  0  0  0
   35.2240   29.0730   36.8540 C   0  0  0  0  0  3  0  0  0  0  0  0
   34.7140   30.0540   37.0090 H   0  0  0  0  0  0  0  0  0  0  0  0
   34.7360   28.4680   35.5700 C   0  0  0  0  0  3  0  0  0  0  0  0
   34.0320   27.6580   35.8060 H   0  0  0  0  0  0  0  0  0  0  0  0
   35.8110   28.0510   34.8400 O   0  0  0  0  0  0  0  0  0  0  0  0
   36.9610   28.5750   35.3470 C   0  0  0  0  0  3  0  0  0  0  0  0
   37.7010   27.7570   35.4620 H   0  0  0  0  0  0  0  0  0  0  0  0
  1  2  1  0  0  0  0
  2  3  1  0  0  0  0
  3  4  2  0  0  0  0
  3 11  1  0  0  0  0
  4  8  1  0  0  0  0
  5  9  1  0  0  0  0
  5  4  1  0  0  0  0
  6  5  2  0  0  0  0
  7  6  1  0  0  0  0
  7  2  2  0  0  0  0
 10  6  1  0  0  0  0
 11 13  1  0  0  0  0
 12 11  1  0  0  0  0
 14 19  1  0  0  0  0
 14 20  1  0  0  0  0
 15 14  2  0  0  0  0
 16 17  2  0  0  0  0
 16 15  1  0  0  0  0
 17 18  1  0  0  0  0
 18 11  1  0  0  0  0
 18 19  2  0  0  0  0
 21 15  1  0  0  0  0
 22 16  1  0  0  0  0
 23  7  1  0  0  0  0
 25 24  2  1  0  0  0
 25 23  1  0  0  0  0
 26 25  1  0  0  0  0
 27 26  1  0  0  0  0
 28 25  1  0  0  0  0
 29 28  1  6  0  0  0
 29 30  1  0  0  0  0
 30 31  1  0  0  0  0
 32 33  1  0  0  0  0
 32 30  1  0  0  0  0
 34 35  1  0  0  0  0
 34 32  1  0  0  0  0
 35 36  1  0  0  0  0
 35 29  1  0  0  0  0
M  END
>  <minimizedAffinity>
-5.35473537

$$$$

 OpenBabel03252502573D

 36 38  0  0  1  0  0  0  0  0999 V2000
   39.2340   29.8990   42.9350 Br  0  0  0  0  0  0  0  0  0  0  0  0
   37.6660   29.8050   41.8240 C   0  0  0  0  0  0  0  0  0  0  0  0
   36.9700   28.6220   41.8730 C   0  0  0  0  0  0  0  0  0  0  0  0
   35.8390   28.5920   41.0540 C   0  0  0  0  0  0  0  0  0  0  0  0
   35.4370   29.6440   40.2570 C   0  0  0  0  0  0  0  0  0  0  0  0
   36.1860   30.7860   40.2670 C   0  0  0  0  0  0  0  0  0  0  0  0
   37.3190   30.8960   41.0490 C   0  0  0  0  0  0  0  0  0  0  0  0
   35.2370   27.6910   41.0400 H   0  0  0  0  0  0  0  0  0  0  0  0
   34.5550   29.5340   39.6600 H   0  0  0  0  0  0  0  0  0  0  0  0
   35.9100   31.6410   39.6560 H   0  0  0  0  0  0  0  0  0  0  0  0
   37.2890   27.4440   42.6690 C   0  0  0  0  0  0  0  0  0  0  0  0
   36.3690   27.1710   43.2430 H   0  0  0  0  0  0  0  0  0  0  0  0
   38.1050   27.6380   43.3890 H   0  0  0  0  0  0  0  0  0  0  0  0
   39.0510   25.2030   40.2730 C   0  0  0  0  0  0  0  0  0  0  0  0
   38.3510   24.0080   40.4380 C   0  0  0  0  0  0  0  0  0  0  0  0
   37.2990   23.9720   41.3480 C   0  0  0  0  0  0  0  0  0  0  0  0
   36.9940   25.0970   42.0410 N   0  0  0  0  0  0  0  0  0  0  0  0
   37.6970   26.2610   41.8630 C   0  0  0  0  0  0  0  0  0  0  0  0
   38.7190   26.2690   40.9690 N   0  0  0  0  0  0  0  0  0  0  0  0
   39.8560   25.1640   39.5520 H   0  0  0  0  0  0  0  0  0  0  0  0
   38.5250   23.0670   39.9290 H   0  0  0  0  0  0  0  0  0  0  0  0
   36.6930   23.1040   41.5530 H   0  0  0  0  0  0  0  0  0  0  0  0
   38.0710   32.0630   41.0480 O   0  0  0  0  0  0  0  0  0  0  0  0
   39.4620   33.9800   39.9520 O   0  0  0  0  0  0  0  0  0  0  0  0
   38.3660   32.9670   39.6440 P   0  0  2  0  0  0  0  0  0  0  0  0
   36.9490   33.7810   39.2510 O   0  0  0  0  0  0  0  0  0  0  0  0
   36.5860   33.5320   38.3620 H   0  0  0  0  0  0  0  0  0  0  0  0
   38.8870   32.0220   38.3570 O   0  0  0  0  0  0  0  0  0  0  0  0
   40.1620   31.5230   38.5840 C   0  0  1  0  0  3  0  0  0  0  0  0
   40.1260   30.0400   38.6820 C   0  0  0  0  0  3  0  0  0  0  0  0
   39.0850   29.6390   38.6230 H   0  0  0  0  0  0  0  0  0  0  0  0
   40.9030   29.5530   37.4940 C   0  0  0  0  0  3  0  0  0  0  0  0
   41.5770   28.7480   37.8190 H   0  0  0  0  0  0  0  0  0  0  0  0
   41.5570   30.6080   36.9300 O   0  0  0  0  0  0  0  0  0  0  0  0
   41.0720   31.7830   37.4180 C   0  0  0  0  0  3  0  0  0  0  0  0
   41.9280   32.4160   37.7290 H   0  0  0  0  0  0  0  0  0  0  0  0
  2  3  1  0  0  0  0
  2  1  1  0  0  0  0
  3 11  1  0  0  0  0
  4  3  2  0  0  0  0
  5  6  2  0  0  0  0
  5  4  1  0  0  0  0
  6  7  1  0  0  0  0
  7  2  2  0  0  0  0
  8  4  1  0  0  0  0
  9  5  1  0  0  0  0
 10  6  1  0  0  0  0
 11 12  1  0  0  0  0
 11 13  1  0  0  0  0
 14 15  2  0  0  0  0
 14 19  1  0  0  0  0
 15 16  1  0  0  0  0
 16 22  1  0  0  0  0
 16 17  2  0  0  0  0
 18 17  1  0  0  0  0
 18 11  1  0  0  0  0
 19 18  2  0  0  0  0
 20 14  1  0  0  0  0
 21 15  1  0  0  0  0
 23  7  1  0  0  0  0
 25 24  2  1  0  0  0
 25 23  1  0  0  0  0
 26 25  1  0  0  0  0
 27 26  1  0  0  0  0
 28 25  1  0  0  0  0
 29 28  1  6  0  0  0
 29 30  1  0  0  0  0
 31 30  1  0  0  0  0
 32 33  1  0  0  0  0
 32 30  1  0  0  0  0
 34 35  1  0  0  0  0
 34 32  1  0  0  0  0
 35 36  1  0  0  0  0
 35 29  1  0  0  0  0
M  END
>  <minimizedAffinity>
-5.34902763

$$$$

 OpenBabel03252502573D

 36 38  0  0  1  0  0  0  0  0999 V2000
   35.4510   29.0310   40.6390 Br  0  0  0  0  0  0  0  0  0  0  0  0
   37.1200   29.3010   41.5570 C   0  0  0  0  0  0  0  0  0  0  0  0
   37.5510   28.2530   42.3330 C   0  0  0  0  0  0  0  0  0  0  0  0
   38.7640   28.4870   42.9830 C   0  0  0  0  0  0  0  0  0  0  0  0
   39.4860   29.6580   42.8710 C   0  0  0  0  0  0  0  0  0  0  0  0
   38.9860   30.6520   42.0780 C   0  0  0  0  0  0  0  0  0  0  0  0
   37.7920   30.5000   41.4010 C   0  0  0  0  0  0  0  0  0  0  0  0
   39.1700   27.7050   43.6140 H   0  0  0  0  0  0  0  0  0  0  0  0
   40.4080   29.7510   43.4060 H   0  0  0  0  0  0  0  0  0  0  0  0
   39.5170   31.5920   41.9600 H   0  0  0  0  0  0  0  0  0  0  0  0
   36.8860   26.9720   42.5330 C   0  0  0  0  0  0  0  0  0  0  0  0
   35.8090   27.1110   42.2680 H   0  0  0  0  0  0  0  0  0  0  0  0
   36.9460   26.6330   43.5840 H   0  0  0  0  0  0  0  0  0  0  0  0
   37.6560   24.7330   39.6580 C   0  0  0  0  0  0  0  0  0  0  0  0
   38.4930   23.7890   40.2530 C   0  0  0  0  0  0  0  0  0  0  0  0
   38.7860   23.9190   41.6070 C   0  0  0  0  0  0  0  0  0  0  0  0
   38.2480   24.9540   42.2990 N   0  0  0  0  0  0  0  0  0  0  0  0
   37.4280   25.8700   41.6930 C   0  0  0  0  0  0  0  0  0  0  0  0
   37.1570   25.7220   40.3700 N   0  0  0  0  0  0  0  0  0  0  0  0
   37.4670   24.5760   38.6050 H   0  0  0  0  0  0  0  0  0  0  0  0
   38.9630   22.9350   39.7800 H   0  0  0  0  0  0  0  0  0  0  0  0
   39.4200   23.2470   42.1660 H   0  0  0  0  0  0  0  0  0  0  0  0
   37.2970   31.5190   40.5990 O   0  0  0  0  0  0  0  0  0  0  0  0
   38.5380   33.8150   40.5930 O   0  0  0  0  0  0  0  0  0  0  0  0
   38.2990   32.5790   39.7350 P   0  0  2  0  0  0  0  0  0  0  0  0
   37.4860   33.0230   38.3320 O   0  0  0  0  0  0  0  0  0  0  0  0
   37.9610   32.7600   37.5010 H   0  0  0  0  0  0  0  0  0  0  0  0
   39.7960   31.9110   39.3690 O   0  0  0  0  0  0  0  0  0  0  0  0
   39.8740   31.5560   38.0300 C   0  0  1  0  0  3  0  0  0  0  0  0
   40.9620   32.3140   37.3560 C   0  0  0  0  0  3  0  0  0  0  0  0
   41.4430   33.0550   38.0400 H   0  0  0  0  0  0  0  0  0  0  0  0
   41.9760   31.2770   36.9700 C   0  0  0  0  0  3  0  0  0  0  0  0
   42.3060   31.4740   35.9400 H   0  0  0  0  0  0  0  0  0  0  0  0
   41.4270   30.0390   37.1320 O   0  0  0  0  0  0  0  0  0  0  0  0
   40.2810   30.1200   37.8610 C   0  0  0  0  0  3  0  0  0  0  0  0
   39.4860   29.5520   37.3340 H   0  0  0  0  0  0  0  0  0  0  0  0
  1  2  1  0  0  0  0
  2  3  1  0  0  0  0
  3 11  1  0  0  0  0
  3  4  2  0  0  0  0
  4  8  1  0  0  0  0
  5  4  1  0  0  0  0
  5  9  1  0  0  0  0
  6  5  2  0  0  0  0
  7  2  2  0  0  0  0
  7  6  1  0  0  0  0
 10  6  1  0  0  0  0
 11 13  1  0  0  0  0
 12 11  1  0  0  0  0
 14 15  2  0  0  0  0
 14 19  1  0  0  0  0
 15 16  1  0  0  0  0
 16 22  1  0  0  0  0
 16 17  2  0  0  0  0
 18 17  1  0  0  0  0
 18 11  1  0  0  0  0
 19 18  2  0  0  0  0
 20 14  1  0  0  0  0
 21 15  1  0  0  0  0
 23  7  1  0  0  0  0
 25 24  2  1  0  0  0
 25 23  1  0  0  0  0
 26 25  1  0  0  0  0
 27 26  1  0  0  0  0
 28 25  1  0  0  0  0
 29 28  1  1  0  0  0
 30 29  1  0  0  0  0
 30 31  1  0  0  0  0
 32 34  1  0  0  0  0
 32 30  1  0  0  0  0
 33 32  1  0  0  0  0
 34 35  1  0  0  0  0
 35 29  1  0  0  0  0
 36 35  1  0  0  0  0
M  END
>  <minimizedAffinity>
-5.27902985

$$$$

 OpenBabel03252502573D

 36 38  0  0  1  0  0  0  0  0999 V2000
   36.0340   26.9220   38.2960 Br  0  0  0  0  0  0  0  0  0  0  0  0
   36.4740   28.7940   38.3650 C   0  0  0  0  0  0  0  0  0  0  0  0
   36.2050   29.4270   39.5530 C   0  0  0  0  0  0  0  0  0  0  0  0
   36.5370   30.7830   39.5640 C   0  0  0  0  0  0  0  0  0  0  0  0
   37.0880   31.4500   38.4900 C   0  0  0  0  0  0  0  0  0  0  0  0
   37.3250   30.7460   37.3430 C   0  0  0  0  0  0  0  0  0  0  0  0
   37.0240   29.4010   37.2510 C   0  0  0  0  0  0  0  0  0  0  0  0
   36.3540   31.3510   40.4690 H   0  0  0  0  0  0  0  0  0  0  0  0
   37.3120   32.4930   38.5860 H   0  0  0  0  0  0  0  0  0  0  0  0
   37.7560   31.2280   36.4710 H   0  0  0  0  0  0  0  0  0  0  0  0
   35.6280   28.8380   40.7550 C   0  0  0  0  0  0  0  0  0  0  0  0
   35.0330   27.9470   40.4360 H   0  0  0  0  0  0  0  0  0  0  0  0
   34.9520   29.5410   41.2770 H   0  0  0  0  0  0  0  0  0  0  0  0
   38.1860   28.7890   43.4610 C   0  0  0  0  0  0  0  0  0  0  0  0
   38.4740   27.4270   43.5520 C   0  0  0  0  0  0  0  0  0  0  0  0
   37.8060   26.5480   42.7050 C   0  0  0  0  0  0  0  0  0  0  0  0
   36.9030   27.0440   41.8240 N   0  0  0  0  0  0  0  0  0  0  0  0
   36.6350   28.3870   41.7530 C   0  0  0  0  0  0  0  0  0  0  0  0
   37.3000   29.2250   42.5900 N   0  0  0  0  0  0  0  0  0  0  0  0
   38.7380   29.4190   44.1450 H   0  0  0  0  0  0  0  0  0  0  0  0
   39.1770   26.9470   44.2220 H   0  0  0  0  0  0  0  0  0  0  0  0
   37.9520   25.4790   42.6910 H   0  0  0  0  0  0  0  0  0  0  0  0
   37.2700   28.6990   36.0790 O   0  0  0  0  0  0  0  0  0  0  0  0
   35.8200   27.1940   34.5140 O   0  0  0  0  0  0  0  0  0  0  0  0
   36.1740   28.6510   34.7860 P   0  0  2  0  0  0  0  0  0  0  0  0
   36.9430   29.2990   33.4390 O   0  0  0  0  0  0  0  0  0  0  0  0
   36.4950   30.1090   33.0810 H   0  0  0  0  0  0  0  0  0  0  0  0
   34.7460   29.4750   35.1100 O   0  0  0  0  0  0  0  0  0  0  0  0
   33.7760   28.6190   35.6100 C   0  0  1  0  0  3  0  0  0  0  0  0
   33.2540   29.1310   36.9060 C   0  0  0  0  0  3  0  0  0  0  0  0
   33.7910   30.0510   37.2410 H   0  0  0  0  0  0  0  0  0  0  0  0
   31.8180   29.4760   36.6370 C   0  0  0  0  0  3  0  0  0  0  0  0
   31.2040   29.0990   37.4670 H   0  0  0  0  0  0  0  0  0  0  0  0
   31.4590   28.9640   35.4250 O   0  0  0  0  0  0  0  0  0  0  0  0
   32.5620   28.5810   34.7260 C   0  0  0  0  0  3  0  0  0  0  0  0
   32.3980   27.5540   34.3400 H   0  0  0  0  0  0  0  0  0  0  0  0
  1  2  1  0  0  0  0
  2  3  1  0  0  0  0
  3  4  2  0  0  0  0
  3 11  1  0  0  0  0
  4  8  1  0  0  0  0
  5  9  1  0  0  0  0
  5  4  1  0  0  0  0
  6  5  2  0  0  0  0
  7  6  1  0  0  0  0
  7  2  2  0  0  0  0
 10  6  1  0  0  0  0
 11 13  1  0  0  0  0
 11 18  1  0  0  0  0
 12 11  1  0  0  0  0
 14 15  1  0  0  0  0
 14 20  1  0  0  0  0
 15 21  1  0  0  0  0
 16 15  2  0  0  0  0
 17 16  1  0  0  0  0
 18 17  2  0  0  0  0
 18 19  1  0  0  0  0
 19 14  2  0  0  0  0
 22 16  1  0  0  0  0
 23  7  1  0  0  0  0
 25 24  2  6  0  0  0
 25 28  1  0  0  0  0
 25 23  1  0  0  0  0
 26 25  1  0  0  0  0
 27 26  1  0  0  0  0
 29 28  1  6  0  0  0
 29 30  1  0  0  0  0
 30 31  1  0  0  0  0
 32 30  1  0  0  0  0
 32 33  1  0  0  0  0
 34 32  1  0  0  0  0
 35 34  1  0  0  0  0
 35 29  1  0  0  0  0
 36 35  1  0  0  0  0
M  END
>  <minimizedAffinity>
-5.1894474

$$$$

 OpenBabel03252502573D

 36 38  0  0  1  0  0  0  0  0999 V2000
   36.3630   28.9190   35.6680 Br  0  0  0  0  0  0  0  0  0  0  0  0
   35.9210   29.1870   37.5210 C   0  0  0  0  0  0  0  0  0  0  0  0
   34.6540   28.8100   37.8940 C   0  0  0  0  0  0  0  0  0  0  0  0
   34.3710   29.0190   39.2450 C   0  0  0  0  0  0  0  0  0  0  0  0
   35.2680   29.5560   40.1460 C   0  0  0  0  0  0  0  0  0  0  0  0
   36.5090   29.9050   39.6940 C   0  0  0  0  0  0  0  0  0  0  0  0
   36.8670   29.7300   38.3710 C   0  0  0  0  0  0  0  0  0  0  0  0
   33.3900   28.7450   39.6140 H   0  0  0  0  0  0  0  0  0  0  0  0
   34.9650   29.6810   41.1650 H   0  0  0  0  0  0  0  0  0  0  0  0
   37.2480   30.3310   40.3650 H   0  0  0  0  0  0  0  0  0  0  0  0
   33.6200   28.2340   37.0430 C   0  0  0  0  0  0  0  0  0  0  0  0
   33.0440   27.5070   37.6660 H   0  0  0  0  0  0  0  0  0  0  0  0
   34.0480   27.6920   36.1790 H   0  0  0  0  0  0  0  0  0  0  0  0
   30.8320   30.6790   36.6960 C   0  0  0  0  0  0  0  0  0  0  0  0
   30.9590   31.0630   35.3610 C   0  0  0  0  0  0  0  0  0  0  0  0
   31.9760   30.4970   34.6000 C   0  0  0  0  0  0  0  0  0  0  0  0
   32.8060   29.5940   35.1800 N   0  0  0  0  0  0  0  0  0  0  0  0
   32.6620   29.2320   36.4940 C   0  0  0  0  0  0  0  0  0  0  0  0
   31.6610   29.7990   37.2160 N   0  0  0  0  0  0  0  0  0  0  0  0
   30.0230   31.1540   37.2330 H   0  0  0  0  0  0  0  0  0  0  0  0
   30.3450   31.7720   34.8200 H   0  0  0  0  0  0  0  0  0  0  0  0
   32.1640   30.7220   33.5610 H   0  0  0  0  0  0  0  0  0  0  0  0
   38.1320   30.0890   37.9260 O   0  0  0  0  0  0  0  0  0  0  0  0
   37.7580   32.5480   38.7190 O   0  0  0  0  0  0  0  0  0  0  0  0
   38.6460   31.7020   37.8160 P   0  0  2  0  0  0  0  0  0  0  0  0
   38.4480   32.1930   36.2210 O   0  0  0  0  0  0  0  0  0  0  0  0
   39.2980   32.4610   35.7830 H   0  0  0  0  0  0  0  0  0  0  0  0
   40.2370   31.9150   38.3120 O   0  0  0  0  0  0  0  0  0  0  0  0
   41.0400   32.3270   37.2580 C   0  0  1  0  0  3  0  0  0  0  0  0
   41.8280   33.5270   37.6470 C   0  0  0  0  0  3  0  0  0  0  0  0
   41.5660   33.8890   38.6700 H   0  0  0  0  0  0  0  0  0  0  0  0
   43.2580   33.0700   37.6440 C   0  0  0  0  0  3  0  0  0  0  0  0
   43.8710   33.8320   37.1420 H   0  0  0  0  0  0  0  0  0  0  0  0
   43.3300   31.8440   37.0500 O   0  0  0  0  0  0  0  0  0  0  0  0
   42.0880   31.3020   36.9290 C   0  0  0  0  0  3  0  0  0  0  0  0
   41.9600   30.9400   35.8880 H   0  0  0  0  0  0  0  0  0  0  0  0
  1  2  1  0  0  0  0
  2  3  2  0  0  0  0
  2  7  1  0  0  0  0
  3  4  1  0  0  0  0
  4  8  1  0  0  0  0
  4  5  2  0  0  0  0
  5  9  1  0  0  0  0
  6  5  1  0  0  0  0
  6 10  1  0  0  0  0
  7  6  2  0  0  0  0
 11 12  1  0  0  0  0
 11  3  1  0  0  0  0
 13 11  1  0  0  0  0
 14 19  1  0  0  0  0
 14 20  1  0  0  0  0
 15 14  2  0  0  0  0
 16 17  2  0  0  0  0
 16 15  1  0  0  0  0
 17 18  1  0  0  0  0
 18 11  1  0  0  0  0
 18 19  2  0  0  0  0
 21 15  1  0  0  0  0
 22 16  1  0  0  0  0
 23  7  1  0  0  0  0
 25 23  1  0  0  0  0
 25 28  1  0  0  0  0
 25 24  2  1  0  0  0
 26 25  1  0  0  0  0
 27 26  1  0  0  0  0
 29 30  1  0  0  0  0
 29 28  1  1  0  0  0
 30 31  1  0  0  0  0
 32 30  1  0  0  0  0
 33 32  1  0  0  0  0
 34 32  1  0  0  0  0
 35 34  1  0  0  0  0
 35 29  1  0  0  0  0
 36 35  1  0  0  0  0
M  END
>  <minimizedAffinity>
-5.17932177

$$$$

 OpenBabel03252502573D

 36 38  0  0  1  0  0  0  0  0999 V2000
   39.7390   29.1280   38.7360 Br  0  0  0  0  0  0  0  0  0  0  0  0
   38.8640   30.7390   39.3180 C   0  0  0  0  0  0  0  0  0  0  0  0
   39.6740   31.6810   39.9040 C   0  0  0  0  0  0  0  0  0  0  0  0
   39.0040   32.8350   40.3130 C   0  0  0  0  0  0  0  0  0  0  0  0
   37.6480   33.0360   40.1540 C   0  0  0  0  0  0  0  0  0  0  0  0
   36.9130   32.0480   39.5610 C   0  0  0  0  0  0  0  0  0  0  0  0
   37.5010   30.8750   39.1280 C   0  0  0  0  0  0  0  0  0  0  0  0
   39.5770   33.6240   40.7840 H   0  0  0  0  0  0  0  0  0  0  0  0
   37.2160   33.9530   40.4980 H   0  0  0  0  0  0  0  0  0  0  0  0
   35.8430   32.1600   39.4150 H   0  0  0  0  0  0  0  0  0  0  0  0
   41.1110   31.5900   40.1280 C   0  0  0  0  0  0  0  0  0  0  0  0
   41.4150   30.5350   39.9200 H   0  0  0  0  0  0  0  0  0  0  0  0
   41.3830   31.8320   41.1730 H   0  0  0  0  0  0  0  0  0  0  0  0
   42.2950   33.6400   37.2540 C   0  0  0  0  0  0  0  0  0  0  0  0
   43.5020   34.1400   37.7430 C   0  0  0  0  0  0  0  0  0  0  0  0
   43.8990   33.7830   39.0270 C   0  0  0  0  0  0  0  0  0  0  0  0
   43.1020   32.9630   39.7560 N   0  0  0  0  0  0  0  0  0  0  0  0
   41.9190   32.4830   39.2550 C   0  0  0  0  0  0  0  0  0  0  0  0
   41.5540   32.8470   37.9980 N   0  0  0  0  0  0  0  0  0  0  0  0
   42.0450   33.9540   36.2500 H   0  0  0  0  0  0  0  0  0  0  0  0
   44.1970   34.7960   37.2330 H   0  0  0  0  0  0  0  0  0  0  0  0
   44.8110   34.1110   39.5030 H   0  0  0  0  0  0  0  0  0  0  0  0
   36.7410   29.8810   38.5270 O   0  0  0  0  0  0  0  0  0  0  0  0
   35.3610   27.6680   38.4360 O   0  0  0  0  0  0  0  0  0  0  0  0
   35.8880   28.7130   39.4110 P   0  0  2  0  0  0  0  0  0  0  0  0
   34.5940   29.4800   40.1590 O   0  0  0  0  0  0  0  0  0  0  0  0
   34.6220   29.4260   41.1500 H   0  0  0  0  0  0  0  0  0  0  0  0
   36.8460   27.9220   40.5430 O   0  0  0  0  0  0  0  0  0  0  0  0
   36.5050   28.2930   41.8360 C   0  0  1  0  0  3  0  0  0  0  0  0
   36.7310   27.1620   42.7750 C   0  0  0  0  0  3  0  0  0  0  0  0
   37.0590   26.2350   42.2450 H   0  0  0  0  0  0  0  0  0  0  0  0
   37.8360   27.6230   43.6800 C   0  0  0  0  0  3  0  0  0  0  0  0
   37.5740   27.3680   44.7150 H   0  0  0  0  0  0  0  0  0  0  0  0
   38.0370   28.9590   43.4880 O   0  0  0  0  0  0  0  0  0  0  0  0
   37.4070   29.3760   42.3560 C   0  0  0  0  0  3  0  0  0  0  0  0
   36.8200   30.2860   42.5940 H   0  0  0  0  0  0  0  0  0  0  0  0
  1  2  1  0  0  0  0
  2  3  1  0  0  0  0
  3 11  1  0  0  0  0
  3  4  2  0  0  0  0
  4  8  1  0  0  0  0
  5  4  1  0  0  0  0
  5  9  1  0  0  0  0
  6  5  2  0  0  0  0
  7  2  2  0  0  0  0
  7  6  1  0  0  0  0
 10  6  1  0  0  0  0
 11 13  1  0  0  0  0
 12 11  1  0  0  0  0
 14 15  2  0  0  0  0
 14 19  1  0  0  0  0
 15 16  1  0  0  0  0
 16 22  1  0  0  0  0
 16 17  2  0  0  0  0
 18 17  1  0  0  0  0
 18 11  1  0  0  0  0
 19 18  2  0  0  0  0
 20 14  1  0  0  0  0
 21 15  1  0  0  0  0
 23  7  1  0  0  0  0
 23 25  1  0  0  0  0
 25 24  2  6  0  0  0
 25 26  1  0  0  0  0
 25 28  1  0  0  0  0
 26 27  1  0  0  0  0
 29 28  1  6  0  0  0
 29 35  1  0  0  0  0
 29 30  1  0  0  0  0
 30 32  1  0  0  0  0
 31 30  1  0  0  0  0
 32 33  1  0  0  0  0
 34 32  1  0  0  0  0
 35 36  1  0  0  0  0
 35 34  1  0  0  0  0
M  END
>  <minimizedAffinity>
-5.13683939

$$$$

 OpenBabel03252502573D

 36 38  0  0  1  0  0  0  0  0999 V2000
   37.3060   28.2690   43.6790 Br  0  0  0  0  0  0  0  0  0  0  0  0
   37.0260   27.7410   41.8510 C   0  0  0  0  0  0  0  0  0  0  0  0
   36.5430   28.7170   41.0140 C   0  0  0  0  0  0  0  0  0  0  0  0
   36.3530   28.2960   39.6970 C   0  0  0  0  0  0  0  0  0  0  0  0
   36.6180   27.0180   39.2500 C   0  0  0  0  0  0  0  0  0  0  0  0
   37.0960   26.1050   40.1480 C   0  0  0  0  0  0  0  0  0  0  0  0
   37.3120   26.4420   41.4700 C   0  0  0  0  0  0  0  0  0  0  0  0
   35.9740   29.0120   38.9770 H   0  0  0  0  0  0  0  0  0  0  0  0
   36.4420   26.7810   38.2210 H   0  0  0  0  0  0  0  0  0  0  0  0
   37.3190   25.0870   39.8440 H   0  0  0  0  0  0  0  0  0  0  0  0
   36.2250   30.0960   41.3610 C   0  0  0  0  0  0  0  0  0  0  0  0
   36.2070   30.1640   42.4760 H   0  0  0  0  0  0  0  0  0  0  0  0
   35.2340   30.4020   40.9760 H   0  0  0  0  0  0  0  0  0  0  0  0
   37.8460   32.8400   39.4340 C   0  0  0  0  0  0  0  0  0  0  0  0
   39.1150   32.8790   40.0120 C   0  0  0  0  0  0  0  0  0  0  0  0
   39.4070   31.9850   41.0370 C   0  0  0  0  0  0  0  0  0  0  0  0
   38.4500   31.1100   41.4370 N   0  0  0  0  0  0  0  0  0  0  0  0
   37.2090   31.0910   40.8550 C   0  0  0  0  0  0  0  0  0  0  0  0
   36.9490   31.9740   39.8560 N   0  0  0  0  0  0  0  0  0  0  0  0
   37.6830   33.5590   38.6430 H   0  0  0  0  0  0  0  0  0  0  0  0
   39.9350   33.5390   39.7560 H   0  0  0  0  0  0  0  0  0  0  0  0
   40.3530   31.9280   41.5520 H   0  0  0  0  0  0  0  0  0  0  0  0
   37.7980   25.5050   42.3700 O   0  0  0  0  0  0  0  0  0  0  0  0
   40.0370   25.0170   41.1190 O   0  0  0  0  0  0  0  0  0  0  0  0
   39.4480   25.1390   42.5190 P   0  0  2  0  0  0  0  0  0  0  0  0
   39.5750   23.6610   43.3090 O   0  0  0  0  0  0  0  0  0  0  0  0
   40.0650   23.7160   44.1700 H   0  0  0  0  0  0  0  0  0  0  0  0
   40.3080   26.3280   43.3370 O   0  0  0  0  0  0  0  0  0  0  0  0
   41.2020   26.9710   42.4930 C   0  0  1  0  0  3  0  0  0  0  0  0
   40.6710   28.3020   42.0960 C   0  0  0  0  0  3  0  0  0  0  0  0
   39.6440   28.4820   42.4970 H   0  0  0  0  0  0  0  0  0  0  0  0
   41.6140   29.2960   42.7090 C   0  0  0  0  0  3  0  0  0  0  0  0
   41.8460   30.0690   41.9630 H   0  0  0  0  0  0  0  0  0  0  0  0
   42.7180   28.6360   43.1620 O   0  0  0  0  0  0  0  0  0  0  0  0
   42.4900   27.2950   43.1940 C   0  0  0  0  0  3  0  0  0  0  0  0
   43.3390   26.7800   42.6990 H   0  0  0  0  0  0  0  0  0  0  0  0
  2  1  1  0  0  0  0
  3 11  1  0  0  0  0
  3  2  2  0  0  0  0
  4  3  1  0  0  0  0
  5  4  2  0  0  0  0
  5  6  1  0  0  0  0
  6  7  2  0  0  0  0
  7  2  1  0  0  0  0
  7 23  1  0  0  0  0
  8  4  1  0  0  0  0
  9  5  1  0  0  0  0
 10  6  1  0  0  0  0
 11 12  1  0  0  0  0
 13 11  1  0  0  0  0
 14 19  2  0  0  0  0
 14 15  1  0  0  0  0
 15 16  2  0  0  0  0
 16 17  1  0  0  0  0
 16 22  1  0  0  0  0
 18 11  1  0  0  0  0
 18 17  2  0  0  0  0
 19 18  1  0  0  0  0
 20 14  1  0  0  0  0
 21 15  1  0  0  0  0
 23 25  1  0  0  0  0
 25 24  2  6  0  0  0
 25 26  1  0  0  0  0
 25 28  1  0  0  0  0
 26 27  1  0  0  0  0
 29 35  1  0  0  0  0
 29 28  1  1  0  0  0
 30 29  1  0  0  0  0
 30 31  1  0  0  0  0
 30 32  1  0  0  0  0
 32 34  1  0  0  0  0
 33 32  1  0  0  0  0
 34 35  1  0  0  0  0
 36 35  1  0  0  0  0
M  END
>  <minimizedAffinity>
-5.07370567

$$$$
