
 OpenBabel03252509043D

 47 49  0  0  1  0  0  0  0  0999 V2000
   46.7040   34.5050   43.5780 N   0  0  0  0  0  0  0  0  0  0  0  0
   46.2240   35.5120   42.7120 C   0  0  0  0  0  0  0  0  0  0  0  0
   44.7140   35.6710   42.6950 C   0  0  0  0  0  0  0  0  0  0  0  0
   44.0440   35.3990   44.0170 C   0  0  0  0  0  0  0  0  0  0  0  0
   45.0600   35.1080   45.1060 C   0  0  0  0  0  0  0  0  0  0  0  0
   45.8920   33.9020   44.5140 C   0  0  2  0  0  0  0  0  0  0  0  0
   46.6220   36.4910   43.0820 H   0  0  0  0  0  0  0  0  0  0  0  0
   46.5370   35.4540   41.6620 H   0  0  0  0  0  0  0  0  0  0  0  0
   44.4980   36.6750   42.3040 H   0  0  0  0  0  0  0  0  0  0  0  0
   44.3230   34.9370   41.9520 H   0  0  0  0  0  0  0  0  0  0  0  0
   43.4000   36.2610   44.2800 H   0  0  0  0  0  0  0  0  0  0  0  0
   43.3640   34.5200   43.9800 H   0  0  0  0  0  0  0  0  0  0  0  0
   44.5380   34.7140   45.9850 H   0  0  0  0  0  0  0  0  0  0  0  0
   45.7410   35.9450   45.2820 H   0  0  0  0  0  0  0  0  0  0  0  0
   45.1250   33.1880   44.1520 H   0  0  0  0  0  0  0  0  0  0  0  0
   47.8050   33.7510   43.0400 C   0  0  0  0  0  0  0  0  0  0  0  0
   48.3680   33.2900   43.8880 H   0  0  0  0  0  0  0  0  0  0  0  0
   48.4830   34.4530   42.5000 H   0  0  0  0  0  0  0  0  0  0  0  0
   47.2730   32.6710   42.1520 C   0  0  0  0  0  0  0  0  0  0  0  0
   47.5120   31.6830   42.5370 H   0  0  0  0  0  0  0  0  0  0  0  0
   46.1710   32.7380   42.0650 H   0  0  0  0  0  0  0  0  0  0  0  0
   49.2690   32.0600   39.0180 C   0  0  0  0  0  0  0  0  0  0  0  0
   48.7220   31.9200   40.3140 C   0  0  0  0  0  0  0  0  0  0  0  0
   47.8340   32.8420   40.7840 C   0  0  0  0  0  0  0  0  0  0  0  0
   47.5150   33.8620   39.9760 N   0  0  0  0  0  0  0  0  0  0  0  0
   48.0220   34.0070   38.7510 C   0  0  0  0  0  0  0  0  0  0  0  0
   48.8980   33.1180   38.2590 N   0  0  0  0  0  0  0  0  0  0  0  0
   49.9700   31.3410   38.6340 H   0  0  0  0  0  0  0  0  0  0  0  0
   49.0080   31.0740   40.9400 H   0  0  0  0  0  0  0  0  0  0  0  0
   47.6990   34.8660   38.1790 H   0  0  0  0  0  0  0  0  0  0  0  0
   46.5820   33.4800   45.6280 O   0  0  0  0  0  0  0  0  0  0  0  0
   45.6400   31.0980   44.8890 O   0  0  0  0  0  0  0  0  0  0  0  0
   46.2380   31.9020   46.0620 P   0  0  2  0  0  0  0  0  0  0  0  0
   44.9500   31.9890   47.1950 O   0  0  0  0  0  0  0  0  0  0  0  0
   45.3050   32.2810   48.0750 H   0  0  0  0  0  0  0  0  0  0  0  0
   47.4840   31.0910   46.7890 O   0  0  0  0  0  0  0  0  0  0  0  0
   47.4430   29.7490   46.4730 C   0  0  0  0  0  0  0  0  0  0  0  0
   46.9340   29.1280   47.2490 H   0  0  0  0  0  0  0  0  0  0  0  0
   46.8730   29.6170   45.5330 H   0  0  0  0  0  0  0  0  0  0  0  0
   48.8120   29.1420   46.2910 C   0  0  1  0  0  3  0  0  0  0  0  0
   49.7090   29.4210   47.4770 C   0  0  0  0  0  3  0  0  0  0  0  0
   50.7790   29.3990   47.1960 H   0  0  0  0  0  0  0  0  0  0  0  0
   49.4280   28.2200   48.3760 C   0  0  0  0  0  3  0  0  0  0  0  0
   49.2090   28.5460   49.4240 H   0  0  0  0  0  0  0  0  0  0  0  0
   48.3380   27.5640   47.8070 O   0  0  0  0  0  0  0  0  0  0  0  0
   48.6470   27.6240   46.4460 C   0  0  0  0  0  3  0  0  0  0  0  0
   49.6500   27.1250   46.3510 H   0  0  0  0  0  0  0  0  0  0  0  0
  1  6  1  0  0  0  0
  2  7  1  0  0  0  0
  2  1  1  0  0  0  0
  3  2  1  0  0  0  0
  3  4  1  0  0  0  0
  4 11  1  0  0  0  0
  4  5  1  0  0  0  0
  5 14  1  0  0  0  0
  5 13  1  0  0  0  0
  6 15  1  6  0  0  0
  6  5  1  0  0  0  0
  6 31  1  0  0  0  0
  8  2  1  0  0  0  0
  9  3  1  0  0  0  0
 10  3  1  0  0  0  0
 12  4  1  0  0  0  0
 16  1  1  0  0  0  0
 16 17  1  0  0  0  0
 18 16  1  0  0  0  0
 19 20  1  0  0  0  0
 19 16  1  0  0  0  0
 21 19  1  0  0  0  0
 22 23  1  0  0  0  0
 23 24  2  0  0  0  0
 23 29  1  0  0  0  0
 24 19  1  0  0  0  0
 25 24  1  0  0  0  0
 26 25  2  0  0  0  0
 27 26  1  0  0  0  0
 27 22  2  0  0  0  0
 28 22  1  0  0  0  0
 30 26  1  0  0  0  0
 31 33  1  0  0  0  0
 33 32  2  6  0  0  0
 33 36  1  0  0  0  0
 33 34  1  0  0  0  0
 34 35  1  0  0  0  0
 37 36  1  0  0  0  0
 37 38  1  0  0  0  0
 39 37  1  0  0  0  0
 40 46  1  0  0  0  0
 40 37  1  1  0  0  0
 40 41  1  0  0  0  0
 41 43  1  0  0  0  0
 42 41  1  0  0  0  0
 43 44  1  0  0  0  0
 45 43  1  0  0  0  0
 46 45  1  0  0  0  0
 47 46  1  0  0  0  0
M  END
>  <minimizedAffinity>
-4.11915684

>  <minimizedRMSD>
1.012079

$$$$
