
 OpenBabel03252507083D

 23 24  0  0  1  0  0  0  0  0999 V2000
   44.6370   35.6640   44.8530 C   0  0  0  0  0  0  0  0  0  0  0  0
   45.2370   35.8540   43.5840 C   0  0  0  0  0  0  0  0  0  0  0  0
   46.1490   34.9060   43.1370 C   0  0  0  0  0  0  0  0  0  0  0  0
   46.4180   33.8400   43.9480 N   0  0  0  0  0  0  0  0  0  0  0  0
   45.8370   33.6820   45.1450 C   0  0  0  0  0  0  0  0  0  0  0  0
   44.9440   34.5950   45.6020 N   0  0  0  0  0  0  0  0  0  0  0  0
   43.9410   36.4650   45.0990 H   0  0  0  0  0  0  0  0  0  0  0  0
   45.0120   36.7050   42.9530 H   0  0  0  0  0  0  0  0  0  0  0  0
   46.1260   32.5350   46.0190 C   0  0  1  0  0  3  0  0  0  0  0  0
   47.0750   31.5320   45.3470 C   0  0  0  0  0  3  0  0  0  0  0  0
   46.4800   30.9320   44.6260 H   0  0  0  0  0  0  0  0  0  0  0  0
   47.4360   30.7510   46.5950 C   0  0  0  0  0  3  0  0  0  0  0  0
   48.3430   30.1400   46.4890 H   0  0  0  0  0  0  0  0  0  0  0  0
   47.4530   31.6470   47.6470 O   0  0  0  0  0  0  0  0  0  0  0  0
   46.9230   32.8450   47.2400 C   0  0  0  0  0  3  0  0  0  0  0  0
   47.7960   33.5110   46.9820 H   0  0  0  0  0  0  0  0  0  0  0  0
   46.7250   35.1030   41.9010 O   0  0  0  0  0  0  0  0  0  0  0  0
   48.4770   33.3370   41.0060 O   0  0  0  0  0  0  0  0  0  0  0  0
   48.3820   34.7160   41.6690 P   0  0  0  0  0  0  0  0  0  0  0  0
   49.1110   35.9020   40.7610 O   0  0  0  0  0  0  0  0  0  0  0  0
   49.9860   36.1520   41.1800 H   0  0  0  0  0  0  0  0  0  0  0  0
   49.0860   34.5780   43.2140 O   0  0  0  0  0  0  0  0  0  0  0  0
   48.9350   33.6620   43.5180 H   0  0  0  0  0  0  0  0  0  0  0  0
  1  7  1  0  0  0  0
  1  6  1  0  0  0  0
  2  1  2  0  0  0  0
  3  2  1  0  0  0  0
  3  4  2  0  0  0  0
  4  5  1  0  0  0  0
  5  6  2  0  0  0  0
  8  2  1  0  0  0  0
  9  5  1  6  0  0  0
  9 15  1  0  0  0  0
 10  9  1  0  0  0  0
 10 12  1  0  0  0  0
 11 10  1  0  0  0  0
 12 14  1  0  0  0  0
 13 12  1  0  0  0  0
 15 14  1  0  0  0  0
 16 15  1  0  0  0  0
 17  3  1  0  0  0  0
 18 19  2  0  0  0  0
 19 17  1  0  0  0  0
 19 22  1  0  0  0  0
 20 21  1  0  0  0  0
 20 19  1  0  0  0  0
 22 23  1  0  0  0  0
M  END
>  <minimizedAffinity>
-5.11130238

>  <minimizedRMSD>
0.910750568

$$$$
