
 OpenBabel03252508073D

 43 46  0  0  1  0  0  0  0  0999 V2000
   45.7920   35.1730   42.4380 C   0  0  0  0  0  0  0  0  0  0  0  0
   45.9220   33.8330   42.7700 C   0  0  0  0  0  0  0  0  0  0  0  0
   45.5160   33.3880   44.0040 C   0  0  0  0  0  0  0  0  0  0  0  0
   44.9840   34.3300   44.8630 N   0  0  0  0  0  0  0  0  0  0  0  0
   44.8620   35.6150   44.5390 C   0  0  0  0  0  0  0  0  0  0  0  0
   45.2710   36.0220   43.3190 N   0  0  0  0  0  0  0  0  0  0  0  0
   46.1120   35.5230   41.4670 H   0  0  0  0  0  0  0  0  0  0  0  0
   44.4380   36.3090   45.2510 H   0  0  0  0  0  0  0  0  0  0  0  0
   45.5810   32.0640   44.4940 C   0  0  0  0  0  0  0  0  0  0  0  0
   45.0480   30.9570   43.8270 C   0  0  0  0  0  0  0  0  0  0  0  0
   45.0500   29.6800   44.3290 C   0  0  0  0  0  0  0  0  0  0  0  0
   45.6040   29.4360   45.5650 C   0  0  0  0  0  0  0  0  0  0  0  0
   46.1570   30.5510   46.2660 C   0  0  0  0  0  0  0  0  0  0  0  0
   46.7080   30.3180   47.4920 C   0  0  0  0  0  0  0  0  0  0  0  0
   47.2610   31.3520   48.2190 C   0  0  0  0  0  0  0  0  0  0  0  0
   47.2540   32.6520   47.6830 C   0  0  0  0  0  0  0  0  0  0  0  0
   46.6730   32.8370   46.4160 C   0  0  0  0  0  0  0  0  0  0  0  0
   46.1290   31.7920   45.7200 C   0  0  0  0  0  0  0  0  0  0  0  0
   44.6060   31.1300   42.8500 H   0  0  0  0  0  0  0  0  0  0  0  0
   44.6100   28.8800   43.7330 H   0  0  0  0  0  0  0  0  0  0  0  0
   45.6230   28.4440   45.9940 H   0  0  0  0  0  0  0  0  0  0  0  0
   46.7210   29.3070   47.9230 H   0  0  0  0  0  0  0  0  0  0  0  0
   47.6820   31.1100   49.1850 H   0  0  0  0  0  0  0  0  0  0  0  0
   47.7050   33.3780   48.3200 H   0  0  0  0  0  0  0  0  0  0  0  0
   46.7840   33.8730   46.1770 H   0  0  0  0  0  0  0  0  0  0  0  0
   46.4600   33.0040   41.8240 O   0  0  0  0  0  0  0  0  0  0  0  0
   48.5640   31.6220   41.1030 O   0  0  0  0  0  0  0  0  0  0  0  0
   48.0870   33.0070   41.3550 P   0  0  1  0  0  0  0  0  0  0  0  0
   48.2960   33.8690   39.9110 O   0  0  0  0  0  0  0  0  0  0  0  0
   47.9950   32.9390   38.8950 C   0  0  2  0  0  3  0  0  0  0  0  0
   48.9270   33.1290   37.7110 C   0  0  0  0  0  3  0  0  0  0  0  0
   49.4490   34.1150   37.7270 H   0  0  0  0  0  0  0  0  0  0  0  0
   47.9410   33.0750   36.5510 C   0  0  0  0  0  3  0  0  0  0  0  0
   47.8010   31.9990   36.3350 H   0  0  0  0  0  0  0  0  0  0  0  0
   46.8240   33.6930   37.0890 O   0  0  0  0  0  0  0  0  0  0  0  0
   46.6280   33.0920   38.3250 C   0  0  0  0  0  3  0  0  0  0  0  0
   46.2440   32.0550   38.0980 H   0  0  0  0  0  0  0  0  0  0  0  0
   48.9810   33.7510   42.5640 O   0  0  0  0  0  0  0  0  0  0  0  0
   50.2300   34.3380   42.4310 C   0  0  0  0  0  0  0  0  0  0  0  0
   50.0230   35.5580   42.5730 O   0  0  0  0  0  0  0  0  0  0  0  0
   51.2410   33.3410   42.1880 N   0  0  0  0  0  0  0  0  0  0  0  0
   51.4500   32.6730   42.9850 H   0  0  0  0  0  0  0  0  0  0  0  0
   51.8130   33.1800   41.3130 H   0  0  0  0  0  0  0  0  0  0  0  0
  1  2  2  0  0  0  0
  1  6  1  0  0  0  0
  2  3  1  0  0  0  0
  3  9  1  0  0  0  0
  3  4  2  0  0  0  0
  5  4  1  0  0  0  0
  5  8  1  0  0  0  0
  6  5  2  0  0  0  0
  7  1  1  0  0  0  0
  9 18  1  0  0  0  0
 10 11  1  0  0  0  0
 10  9  2  0  0  0  0
 11 12  2  0  0  0  0
 12 21  1  0  0  0  0
 12 13  1  0  0  0  0
 13 14  1  0  0  0  0
 14 22  1  0  0  0  0
 14 15  2  0  0  0  0
 15 23  1  0  0  0  0
 16 15  1  0  0  0  0
 16 24  1  0  0  0  0
 17 16  2  0  0  0  0
 18 13  2  0  0  0  0
 18 17  1  0  0  0  0
 19 10  1  0  0  0  0
 20 11  1  0  0  0  0
 25 17  1  0  0  0  0
 26  2  1  0  0  0  0
 28 27  2  6  0  0  0
 28 26  1  0  0  0  0
 28 38  1  0  0  0  0
 29 28  1  0  0  0  0
 30 29  1  1  0  0  0
 31 32  1  0  0  0  0
 31 30  1  0  0  0  0
 33 35  1  0  0  0  0
 33 31  1  0  0  0  0
 34 33  1  0  0  0  0
 35 36  1  0  0  0  0
 36 30  1  0  0  0  0
 37 36  1  0  0  0  0
 39 38  1  0  0  0  0
 39 40  2  0  0  0  0
 41 39  1  0  0  0  0
 41 42  1  0  0  0  0
 43 41  1  0  0  0  0
M  END
>  <minimizedAffinity>
-5.53987646

>  <minimizedRMSD>
1.61219549

$$$$
