
 OpenBabel03252505583D

 35 37  0  0  1  0  0  0  0  0999 V2000
   44.6980   35.2570   45.3670 C   0  0  0  0  0  0  0  0  0  0  0  0
   45.3820   34.7300   44.2510 C   0  0  0  0  0  0  0  0  0  0  0  0
   46.0570   33.5300   44.4350 C   0  0  0  0  0  0  0  0  0  0  0  0
   46.0190   32.9490   45.6540 N   0  0  0  0  0  0  0  0  0  0  0  0
   45.3610   33.4770   46.6860 C   0  0  0  0  0  0  0  0  0  0  0  0
   44.7040   34.6230   46.5500 N   0  0  0  0  0  0  0  0  0  0  0  0
   44.1680   36.1920   45.2330 H   0  0  0  0  0  0  0  0  0  0  0  0
   46.8140   32.8110   43.4290 C   0  0  2  0  0  3  0  0  0  0  0  0
   45.8320   31.8520   42.7320 C   0  0  0  0  0  3  0  0  0  0  0  0
   45.6840   32.1070   41.6640 H   0  0  0  0  0  0  0  0  0  0  0  0
   46.4260   30.4860   42.8360 C   0  0  0  0  0  3  0  0  0  0  0  0
   45.6780   29.6780   42.8990 H   0  0  0  0  0  0  0  0  0  0  0  0
   47.0440   30.5670   44.0850 O   0  0  0  0  0  0  0  0  0  0  0  0
   47.7420   31.7730   44.0480 C   0  0  0  0  0  3  0  0  0  0  0  0
   48.6070   31.6500   43.3660 H   0  0  0  0  0  0  0  0  0  0  0  0
   45.3520   35.4570   42.9640 C   0  0  0  0  0  0  0  0  0  0  0  0
   44.8020   36.6980   43.2880 F   0  0  0  0  0  0  0  0  0  0  0  0
   44.4200   34.8040   42.1560 F   0  0  0  0  0  0  0  0  0  0  0  0
   46.5680   35.5840   42.4480 F   0  0  0  0  0  0  0  0  0  0  0  0
   45.3260   32.8730   47.9410 O   0  0  0  0  0  0  0  0  0  0  0  0
   44.8370   31.5550   48.0870 C   0  0  0  0  0  0  0  0  0  0  0  0
   44.4440   31.4690   49.1300 H   0  0  0  0  0  0  0  0  0  0  0  0
   43.9950   31.3200   47.4120 H   0  0  0  0  0  0  0  0  0  0  0  0
   45.9860   30.6420   47.9660 C   0  0  0  0  0  0  0  0  0  0  0  0
   46.0980   29.4320   47.2930 C   0  0  0  0  0  0  0  0  0  0  0  0
   47.2910   28.7820   47.3450 C   0  0  0  0  0  0  0  0  0  0  0  0
   48.3390   29.2640   48.0100 N   0  0  0  0  0  0  0  0  0  0  0  0
   48.2240   30.4320   48.6570 C   0  0  0  0  0  0  0  0  0  0  0  0
   47.0490   31.1330   48.6430 N   0  0  0  0  0  0  0  0  0  0  0  0
   45.1950   29.1560   46.8010 H   0  0  0  0  0  0  0  0  0  0  0  0
   47.3090   27.8420   46.7960 H   0  0  0  0  0  0  0  0  0  0  0  0
   49.4410   30.8840   49.3670 C   0  0  0  0  0  0  0  0  0  0  0  0
   49.5430   32.2600   49.3700 F   0  0  0  0  0  0  0  0  0  0  0  0
   50.5800   30.3610   48.7500 F   0  0  0  0  0  0  0  0  0  0  0  0
   49.4680   30.4620   50.6810 F   0  0  0  0  0  0  0  0  0  0  0  0
  1  6  1  0  0  0  0
  2  3  1  0  0  0  0
  2  1  2  0  0  0  0
  3  4  2  0  0  0  0
  4  5  1  0  0  0  0
  5 20  1  0  0  0  0
  6  5  2  0  0  0  0
  7  1  1  0  0  0  0
  8 14  1  0  0  0  0
  8  3  1  1  0  0  0
  9 11  1  0  0  0  0
  9  8  1  0  0  0  0
 10  9  1  0  0  0  0
 11 12  1  0  0  0  0
 11 13  1  0  0  0  0
 14 13  1  0  0  0  0
 15 14  1  0  0  0  0
 16 17  1  0  0  0  0
 16  2  1  0  0  0  0
 18 16  1  0  0  0  0
 19 16  1  0  0  0  0
 20 21  1  0  0  0  0
 21 22  1  0  0  0  0
 23 21  1  0  0  0  0
 24 21  1  0  0  0  0
 24 29  1  0  0  0  0
 25 26  1  0  0  0  0
 25 24  2  0  0  0  0
 26 27  2  0  0  0  0
 27 28  1  0  0  0  0
 28 32  1  0  0  0  0
 29 28  2  0  0  0  0
 30 25  1  0  0  0  0
 31 26  1  0  0  0  0
 32 33  1  0  0  0  0
 32 35  1  0  0  0  0
 34 32  1  0  0  0  0
M  END
>  <minimizedAffinity>
-5.53896856

>  <minimizedRMSD>
1.6529752

$$$$
