
 OpenBabel03242513223D

 33 35  0  0  1  0  0  0  0  0999 V2000
   35.7100   29.7320   39.4800 C   0  0  2  0  0  0  0  0  0  0  0  0
   35.7870   28.8780   38.2260 C   0  0  0  0  0  0  0  0  0  0  0  0
   36.4860   29.8920   37.3310 C   0  0  0  0  0  0  0  0  0  0  0  0
   37.4400   30.4690   38.1320 O   0  0  0  0  0  0  0  0  0  0  0  0
   37.0820   30.3330   39.4470 C   0  0  1  0  0  0  0  0  0  0  0  0
   34.9330   30.4910   39.3820 H   0  0  0  0  0  0  0  0  0  0  0  0
   34.7390   28.7250   37.8940 H   0  0  0  0  0  0  0  0  0  0  0  0
   36.3660   27.9620   38.3800 H   0  0  0  0  0  0  0  0  0  0  0  0
   35.7150   30.5930   36.9500 H   0  0  0  0  0  0  0  0  0  0  0  0
   36.9150   29.3240   36.4810 H   0  0  0  0  0  0  0  0  0  0  0  0
   37.8630   29.7070   39.9270 H   0  0  0  0  0  0  0  0  0  0  0  0
   37.1020   31.6800   40.0940 C   0  0  1  0  0  3  0  0  0  0  0  0
   38.3730   31.9060   40.8940 C   0  0  0  0  0  3  0  0  0  0  0  0
   38.2130   31.8010   41.9850 H   0  0  0  0  0  0  0  0  0  0  0  0
   38.7370   33.3220   40.5310 C   0  0  0  0  0  3  0  0  0  0  0  0
   39.6140   33.3680   39.8600 H   0  0  0  0  0  0  0  0  0  0  0  0
   37.6290   33.8580   39.8710 O   0  0  0  0  0  0  0  0  0  0  0  0
   37.2390   32.8000   39.0530 C   0  0  0  0  0  3  0  0  0  0  0  0
   38.1230   32.5420   38.4330 H   0  0  0  0  0  0  0  0  0  0  0  0
   35.4170   28.9300   40.7000 C   0  0  0  0  0  0  0  0  0  0  0  0
   35.0410   29.4970   41.5510 H   0  0  0  0  0  0  0  0  0  0  0  0
   34.5660   28.2460   40.4050 H   0  0  0  0  0  0  0  0  0  0  0  0
   36.7670   27.6740   42.3040 C   0  0  0  0  0  3  0  0  0  0  0  0
   36.5090   27.9950   41.0690 C   0  0  0  0  0  3  0  0  0  0  0  0
   39.8630   26.3130   43.6800 C   0  0  0  0  0  0  0  0  0  0  0  0
   39.8280   24.9560   43.2410 C   0  0  0  0  0  0  0  0  0  0  0  0
   38.7160   24.5700   42.4790 C   0  0  0  0  0  0  0  0  0  0  0  0
   37.7440   25.4790   42.1960 N   0  0  0  0  0  0  0  0  0  0  0  0
   37.8270   26.7590   42.6380 C   0  0  0  0  0  0  0  0  0  0  0  0
   38.8630   27.1840   43.3700 N   0  0  0  0  0  0  0  0  0  0  0  0
   40.6960   26.6930   44.2800 H   0  0  0  0  0  0  0  0  0  0  0  0
   40.6260   24.3020   43.5020 H   0  0  0  0  0  0  0  0  0  0  0  0
   38.6530   23.5480   42.1280 H   0  0  0  0  0  0  0  0  0  0  0  0
  1  6  1  6  0  0  0
  1 20  1  0  0  0  0
  2  8  1  0  0  0  0
  2  1  1  0  0  0  0
  3  4  1  0  0  0  0
  3  2  1  0  0  0  0
  4  5  1  0  0  0  0
  5  1  1  0  0  0  0
  5 11  1  1  0  0  0
  5 12  1  0  0  0  0
  7  2  1  0  0  0  0
  9  3  1  0  0  0  0
 10  3  1  0  0  0  0
 12 18  1  6  0  0  0
 12 13  1  0  0  0  0
 13 14  1  0  0  0  0
 15 13  1  0  0  0  0
 16 15  1  0  0  0  0
 17 15  1  0  0  0  0
 18 17  1  0  0  0  0
 19 18  1  0  0  0  0
 20 24  1  0  0  0  0
 20 21  1  0  0  0  0
 22 20  1  0  0  0  0
 23 29  1  0  0  0  0
 24 23  2  0  0  0  0
 25 31  1  0  0  0  0
 26 32  1  0  0  0  0
 26 25  2  0  0  0  0
 27 26  1  0  0  0  0
 28 27  2  0  0  0  0
 28 29  1  0  0  0  0
 29 30  2  0  0  0  0
 30 25  1  0  0  0  0
 33 27  1  0  0  0  0
M  END
>  <minimizedAffinity>
-5.16018105

$$$$

 OpenBabel03242513223D

 33 35  0  0  1  0  0  0  0  0999 V2000
   37.5540   26.5550   43.1290 C   0  0  2  0  0  0  0  0  0  0  0  0
   38.8430   27.1470   43.6740 C   0  0  0  0  0  0  0  0  0  0  0  0
   39.7560   25.9690   43.3610 C   0  0  0  0  0  0  0  0  0  0  0  0
   39.3720   25.5490   42.1110 O   0  0  0  0  0  0  0  0  0  0  0  0
   38.0840   25.9440   41.8680 C   0  0  1  0  0  0  0  0  0  0  0  0
   37.1590   25.8010   43.8090 H   0  0  0  0  0  0  0  0  0  0  0  0
   38.6970   27.2430   44.7700 H   0  0  0  0  0  0  0  0  0  0  0  0
   39.1300   28.0680   43.1580 H   0  0  0  0  0  0  0  0  0  0  0  0
   39.6220   25.2160   44.1650 H   0  0  0  0  0  0  0  0  0  0  0  0
   40.7950   26.3550   43.3920 H   0  0  0  0  0  0  0  0  0  0  0  0
   38.1220   26.6430   41.0060 H   0  0  0  0  0  0  0  0  0  0  0  0
   37.2820   24.7490   41.4630 C   0  0  1  0  0  3  0  0  0  0  0  0
   36.5800   24.9630   40.1340 C   0  0  0  0  0  3  0  0  0  0  0  0
   35.4990   25.1770   40.2530 H   0  0  0  0  0  0  0  0  0  0  0  0
   36.7980   23.6450   39.4370 C   0  0  0  0  0  3  0  0  0  0  0  0
   37.5360   23.7250   38.6170 H   0  0  0  0  0  0  0  0  0  0  0  0
   37.2840   22.7620   40.4040 O   0  0  0  0  0  0  0  0  0  0  0  0
   38.1860   23.5640   41.1010 C   0  0  0  0  0  3  0  0  0  0  0  0
   38.9110   23.9440   40.3500 H   0  0  0  0  0  0  0  0  0  0  0  0
   36.4980   27.5840   42.9190 C   0  0  0  0  0  0  0  0  0  0  0  0
   35.5070   27.1940   42.6940 H   0  0  0  0  0  0  0  0  0  0  0  0
   36.3890   28.1020   43.9190 H   0  0  0  0  0  0  0  0  0  0  0  0
   36.1290   29.1330   41.0660 C   0  0  0  0  0  3  0  0  0  0  0  0
   36.9090   28.6750   42.0010 C   0  0  0  0  0  3  0  0  0  0  0  0
   37.0670   30.9770   38.0580 C   0  0  0  0  0  0  0  0  0  0  0  0
   37.3530   32.2780   38.5680 C   0  0  0  0  0  0  0  0  0  0  0  0
   37.2050   32.4590   39.9500 C   0  0  0  0  0  0  0  0  0  0  0  0
   36.8050   31.4160   40.7270 N   0  0  0  0  0  0  0  0  0  0  0  0
   36.5450   30.1970   40.1910 C   0  0  0  0  0  0  0  0  0  0  0  0
   36.6690   29.9670   38.8790 N   0  0  0  0  0  0  0  0  0  0  0  0
   37.1580   30.7550   36.9900 H   0  0  0  0  0  0  0  0  0  0  0  0
   37.6620   33.0460   37.8980 H   0  0  0  0  0  0  0  0  0  0  0  0
   37.4140   33.4320   40.3760 H   0  0  0  0  0  0  0  0  0  0  0  0
  1  2  1  0  0  0  0
  1  6  1  1  0  0  0
  2  7  1  0  0  0  0
  3 10  1  0  0  0  0
  3  2  1  0  0  0  0
  3  9  1  0  0  0  0
  4  3  1  0  0  0  0
  5 11  1  6  0  0  0
  5  4  1  0  0  0  0
  5  1  1  0  0  0  0
  8  2  1  0  0  0  0
 12 13  1  6  0  0  0
 12  5  1  0  0  0  0
 13 14  1  0  0  0  0
 15 13  1  0  0  0  0
 15 17  1  0  0  0  0
 16 15  1  0  0  0  0
 17 18  1  0  0  0  0
 18 12  1  0  0  0  0
 19 18  1  0  0  0  0
 20  1  1  0  0  0  0
 20 22  1  0  0  0  0
 21 20  1  0  0  0  0
 23 24  2  0  0  0  0
 24 20  1  0  0  0  0
 25 26  2  0  0  0  0
 25 30  1  0  0  0  0
 26 27  1  0  0  0  0
 27 33  1  0  0  0  0
 27 28  2  0  0  0  0
 29 28  1  0  0  0  0
 29 23  1  0  0  0  0
 30 29  2  0  0  0  0
 31 25  1  0  0  0  0
 32 26  1  0  0  0  0
M  END
>  <minimizedAffinity>
-4.98160696

$$$$

 OpenBabel03242513223D

 33 35  0  0  1  0  0  0  0  0999 V2000
   38.2410   26.9660   43.2200 C   0  0  2  0  0  0  0  0  0  0  0  0
   39.6850   27.0790   43.6790 C   0  0  0  0  0  0  0  0  0  0  0  0
   40.2510   25.9290   42.8560 C   0  0  0  0  0  0  0  0  0  0  0  0
   39.6460   26.0440   41.6290 O   0  0  0  0  0  0  0  0  0  0  0  0
   38.4710   26.7350   41.7570 C   0  0  1  0  0  0  0  0  0  0  0  0
   37.7530   26.1140   43.6920 H   0  0  0  0  0  0  0  0  0  0  0  0
   39.6860   26.8190   44.7580 H   0  0  0  0  0  0  0  0  0  0  0  0
   40.1270   28.0490   43.4310 H   0  0  0  0  0  0  0  0  0  0  0  0
   40.0280   24.9860   43.3970 H   0  0  0  0  0  0  0  0  0  0  0  0
   41.3490   26.0760   42.8170 H   0  0  0  0  0  0  0  0  0  0  0  0
   38.5820   27.6660   41.1630 H   0  0  0  0  0  0  0  0  0  0  0  0
   37.3670   25.9270   41.1540 C   0  0  1  0  0  3  0  0  0  0  0  0
   37.8290   25.1670   39.9230 C   0  0  0  0  0  3  0  0  0  0  0  0
   37.4890   25.6400   38.9800 H   0  0  0  0  0  0  0  0  0  0  0  0
   37.1870   23.8180   40.1160 C   0  0  0  0  0  3  0  0  0  0  0  0
   37.9250   23.0430   40.3940 H   0  0  0  0  0  0  0  0  0  0  0  0
   36.2660   23.9630   41.1560 O   0  0  0  0  0  0  0  0  0  0  0  0
   36.9720   24.7540   42.0600 C   0  0  0  0  0  3  0  0  0  0  0  0
   37.9110   24.2060   42.2870 H   0  0  0  0  0  0  0  0  0  0  0  0
   37.4460   28.1850   43.5340 C   0  0  0  0  0  0  0  0  0  0  0  0
   36.3650   28.0570   43.5000 H   0  0  0  0  0  0  0  0  0  0  0  0
   37.6790   28.4170   44.6160 H   0  0  0  0  0  0  0  0  0  0  0  0
   37.2520   29.8970   41.8010 C   0  0  0  0  0  3  0  0  0  0  0  0
   37.9050   29.3950   42.8080 C   0  0  0  0  0  3  0  0  0  0  0  0
   37.3220   32.8570   39.6650 C   0  0  0  0  0  0  0  0  0  0  0  0
   38.6590   33.3260   39.8280 C   0  0  0  0  0  0  0  0  0  0  0  0
   39.4860   32.5850   40.6830 C   0  0  0  0  0  0  0  0  0  0  0  0
   38.9940   31.4800   41.3060 N   0  0  0  0  0  0  0  0  0  0  0  0
   37.7120   31.0760   41.1160 C   0  0  0  0  0  0  0  0  0  0  0  0
   36.8780   31.7440   40.3120 N   0  0  0  0  0  0  0  0  0  0  0  0
   36.6130   33.3800   39.0150 H   0  0  0  0  0  0  0  0  0  0  0  0
   38.9730   34.2000   39.3070 H   0  0  0  0  0  0  0  0  0  0  0  0
   40.5080   32.9090   40.8330 H   0  0  0  0  0  0  0  0  0  0  0  0
  1 20  1  0  0  0  0
  1  2  1  0  0  0  0
  1  6  1  1  0  0  0
  2  7  1  0  0  0  0
  3  9  1  0  0  0  0
  3  2  1  0  0  0  0
  4  5  1  0  0  0  0
  4  3  1  0  0  0  0
  5 11  1  6  0  0  0
  5  1  1  0  0  0  0
  8  2  1  0  0  0  0
 10  3  1  0  0  0  0
 12 13  1  6  0  0  0
 12  5  1  0  0  0  0
 12 18  1  0  0  0  0
 13 15  1  0  0  0  0
 14 13  1  0  0  0  0
 15 16  1  0  0  0  0
 15 17  1  0  0  0  0
 17 18  1  0  0  0  0
 18 19  1  0  0  0  0
 20 22  1  0  0  0  0
 21 20  1  0  0  0  0
 23 24  2  0  0  0  0
 24 20  1  0  0  0  0
 25 26  2  0  0  0  0
 25 30  1  0  0  0  0
 26 27  1  0  0  0  0
 27 33  1  0  0  0  0
 27 28  2  0  0  0  0
 29 28  1  0  0  0  0
 29 23  1  0  0  0  0
 30 29  2  0  0  0  0
 31 25  1  0  0  0  0
 32 26  1  0  0  0  0
M  END
>  <minimizedAffinity>
-4.91306353

$$$$

 OpenBabel03242513223D

 33 35  0  0  1  0  0  0  0  0999 V2000
   35.7240   29.6560   39.5540 C   0  0  2  0  0  0  0  0  0  0  0  0
   34.8940   28.7250   38.6860 C   0  0  0  0  0  0  0  0  0  0  0  0
   35.4440   29.1600   37.3350 C   0  0  0  0  0  0  0  0  0  0  0  0
   36.7960   29.3000   37.5340 O   0  0  0  0  0  0  0  0  0  0  0  0
   37.0460   29.5150   38.8630 C   0  0  1  0  0  0  0  0  0  0  0  0
   35.3440   30.6760   39.4950 H   0  0  0  0  0  0  0  0  0  0  0  0
   33.8400   29.0560   38.8000 H   0  0  0  0  0  0  0  0  0  0  0  0
   35.0790   27.6700   38.9110 H   0  0  0  0  0  0  0  0  0  0  0  0
   34.9200   30.0940   37.0420 H   0  0  0  0  0  0  0  0  0  0  0  0
   35.1890   28.3580   36.6140 H   0  0  0  0  0  0  0  0  0  0  0  0
   37.6520   28.6530   39.2160 H   0  0  0  0  0  0  0  0  0  0  0  0
   37.8700   30.7530   39.0050 C   0  0  1  0  0  3  0  0  0  0  0  0
   37.0350   31.9430   39.4420 C   0  0  0  0  0  3  0  0  0  0  0  0
   36.8170   32.6380   38.6070 H   0  0  0  0  0  0  0  0  0  0  0  0
   37.9150   32.5950   40.4760 C   0  0  0  0  0  3  0  0  0  0  0  0
   37.5330   32.4450   41.5020 H   0  0  0  0  0  0  0  0  0  0  0  0
   39.1700   31.9920   40.3630 O   0  0  0  0  0  0  0  0  0  0  0  0
   38.8330   30.6510   40.1960 C   0  0  0  0  0  3  0  0  0  0  0  0
   38.2130   30.3730   41.0740 H   0  0  0  0  0  0  0  0  0  0  0  0
   35.7290   29.2490   40.9860 C   0  0  0  0  0  0  0  0  0  0  0  0
   35.9180   30.0510   41.6970 H   0  0  0  0  0  0  0  0  0  0  0  0
   34.6710   28.9110   41.1990 H   0  0  0  0  0  0  0  0  0  0  0  0
   37.2590   27.9010   42.3330 C   0  0  0  0  0  3  0  0  0  0  0  0
   36.5450   28.0390   41.2540 C   0  0  0  0  0  3  0  0  0  0  0  0
   38.4140   24.4390   42.2480 C   0  0  0  0  0  0  0  0  0  0  0  0
   39.5690   24.4760   43.0850 C   0  0  0  0  0  0  0  0  0  0  0  0
   39.8990   25.7170   43.6460 C   0  0  0  0  0  0  0  0  0  0  0  0
   39.1270   26.8050   43.3790 N   0  0  0  0  0  0  0  0  0  0  0  0
   38.0370   26.7150   42.5760 C   0  0  0  0  0  0  0  0  0  0  0  0
   37.6750   25.5570   42.0120 N   0  0  0  0  0  0  0  0  0  0  0  0
   38.0900   23.5080   41.7710 H   0  0  0  0  0  0  0  0  0  0  0  0
   40.1250   23.5830   43.2480 H   0  0  0  0  0  0  0  0  0  0  0  0
   40.7690   25.7870   44.2870 H   0  0  0  0  0  0  0  0  0  0  0  0
  1  6  1  6  0  0  0
  1 20  1  0  0  0  0
  2  7  1  0  0  0  0
  2  8  1  0  0  0  0
  2  1  1  0  0  0  0
  3  4  1  0  0  0  0
  3  2  1  0  0  0  0
  4  5  1  0  0  0  0
  5 12  1  0  0  0  0
  5 11  1  1  0  0  0
  5  1  1  0  0  0  0
  9  3  1  0  0  0  0
 10  3  1  0  0  0  0
 12 13  1  1  0  0  0
 12 18  1  0  0  0  0
 13 15  1  0  0  0  0
 14 13  1  0  0  0  0
 15 16  1  0  0  0  0
 17 15  1  0  0  0  0
 18 17  1  0  0  0  0
 18 19  1  0  0  0  0
 20 22  1  0  0  0  0
 20 24  1  0  0  0  0
 20 21  1  0  0  0  0
 23 29  1  0  0  0  0
 24 23  2  0  0  0  0
 25 26  1  0  0  0  0
 26 32  1  0  0  0  0
 26 27  2  0  0  0  0
 27 33  1  0  0  0  0
 28 27  1  0  0  0  0
 29 28  2  0  0  0  0
 30 25  2  0  0  0  0
 30 29  1  0  0  0  0
 31 25  1  0  0  0  0
M  END
>  <minimizedAffinity>
-4.82046175

$$$$

 OpenBabel03242513223D

 33 35  0  0  1  0  0  0  0  0999 V2000
   36.9500   28.5410   42.3810 C   0  0  2  0  0  0  0  0  0  0  0  0
   35.9440   28.6780   41.2510 C   0  0  0  0  0  0  0  0  0  0  0  0
   36.4330   30.0120   40.7020 C   0  0  0  0  0  0  0  0  0  0  0  0
   37.8030   29.9220   40.7310 O   0  0  0  0  0  0  0  0  0  0  0  0
   38.1840   28.9900   41.6600 C   0  0  1  0  0  0  0  0  0  0  0  0
   36.6970   29.2090   43.2040 H   0  0  0  0  0  0  0  0  0  0  0  0
   34.9520   28.8000   41.7360 H   0  0  0  0  0  0  0  0  0  0  0  0
   36.0130   27.8590   40.5280 H   0  0  0  0  0  0  0  0  0  0  0  0
   36.0080   30.8150   41.3380 H   0  0  0  0  0  0  0  0  0  0  0  0
   36.0230   30.1030   39.6760 H   0  0  0  0  0  0  0  0  0  0  0  0
   38.7040   28.1820   41.1040 H   0  0  0  0  0  0  0  0  0  0  0  0
   39.1660   29.6160   42.5970 C   0  0  1  0  0  3  0  0  0  0  0  0
   40.4310   28.7890   42.7280 C   0  0  0  0  0  3  0  0  0  0  0  0
   40.4670   28.2140   43.6750 H   0  0  0  0  0  0  0  0  0  0  0  0
   41.5110   29.8390   42.6900 C   0  0  0  0  0  3  0  0  0  0  0  0
   42.0680   29.8280   41.7350 H   0  0  0  0  0  0  0  0  0  0  0  0
   40.8690   31.0710   42.8300 O   0  0  0  0  0  0  0  0  0  0  0  0
   39.7510   30.9090   42.0130 C   0  0  0  0  0  3  0  0  0  0  0  0
   40.1360   30.6490   41.0050 H   0  0  0  0  0  0  0  0  0  0  0  0
   37.0200   27.1540   42.9180 C   0  0  0  0  0  0  0  0  0  0  0  0
   37.7390   27.0020   43.7210 H   0  0  0  0  0  0  0  0  0  0  0  0
   36.0090   26.9710   43.3910 H   0  0  0  0  0  0  0  0  0  0  0  0
   36.9810   24.8450   42.1190 C   0  0  0  0  0  3  0  0  0  0  0  0
   37.1080   26.1150   41.8630 C   0  0  0  0  0  3  0  0  0  0  0  0
   38.2290   22.1590   39.9850 C   0  0  0  0  0  0  0  0  0  0  0  0
   37.1600   21.9770   39.0580 C   0  0  0  0  0  0  0  0  0  0  0  0
   36.0410   22.8050   39.2180 C   0  0  0  0  0  0  0  0  0  0  0  0
   36.0190   23.7220   40.2220 N   0  0  0  0  0  0  0  0  0  0  0  0
   37.0630   23.8550   41.0780 C   0  0  0  0  0  0  0  0  0  0  0  0
   38.1570   23.0920   40.9740 N   0  0  0  0  0  0  0  0  0  0  0  0
   39.1380   21.5510   39.9280 H   0  0  0  0  0  0  0  0  0  0  0  0
   37.2490   21.2380   38.2960 H   0  0  0  0  0  0  0  0  0  0  0  0
   35.2080   22.6980   38.5340 H   0  0  0  0  0  0  0  0  0  0  0  0
  1 20  1  0  0  0  0
  1  6  1  1  0  0  0
  2  7  1  0  0  0  0
  2  1  1  0  0  0  0
  3  4  1  0  0  0  0
  3  2  1  0  0  0  0
  3  9  1  0  0  0  0
  4  5  1  0  0  0  0
  5 11  1  6  0  0  0
  5  1  1  0  0  0  0
  5 12  1  0  0  0  0
  8  2  1  0  0  0  0
 10  3  1  0  0  0  0
 12 18  1  6  0  0  0
 12 13  1  0  0  0  0
 13 14  1  0  0  0  0
 15 13  1  0  0  0  0
 15 17  1  0  0  0  0
 16 15  1  0  0  0  0
 18 17  1  0  0  0  0
 19 18  1  0  0  0  0
 20 22  1  0  0  0  0
 20 21  1  0  0  0  0
 24 23  2  0  0  0  0
 24 20  1  0  0  0  0
 25 30  1  0  0  0  0
 26 27  1  0  0  0  0
 26 25  2  0  0  0  0
 27 28  2  0  0  0  0
 28 29  1  0  0  0  0
 29 23  1  0  0  0  0
 30 29  2  0  0  0  0
 31 25  1  0  0  0  0
 32 26  1  0  0  0  0
 33 27  1  0  0  0  0
M  END
>  <minimizedAffinity>
-4.67970705

$$$$

 OpenBabel03242513223D

 33 35  0  0  1  0  0  0  0  0999 V2000
   37.3170   30.2750   40.3670 C   0  0  2  0  0  0  0  0  0  0  0  0
   36.1510   29.9140   39.4620 C   0  0  0  0  0  0  0  0  0  0  0  0
   35.8290   28.5580   40.0760 C   0  0  0  0  0  0  0  0  0  0  0  0
   35.9400   28.7520   41.4320 O   0  0  0  0  0  0  0  0  0  0  0  0
   36.7530   29.8250   41.6790 C   0  0  1  0  0  0  0  0  0  0  0  0
   38.2070   29.7080   40.0930 H   0  0  0  0  0  0  0  0  0  0  0  0
   36.5790   29.7860   38.4460 H   0  0  0  0  0  0  0  0  0  0  0  0
   35.3280   30.6310   39.5360 H   0  0  0  0  0  0  0  0  0  0  0  0
   36.5410   27.8190   39.6540 H   0  0  0  0  0  0  0  0  0  0  0  0
   34.8010   28.2990   39.7550 H   0  0  0  0  0  0  0  0  0  0  0  0
   36.1270   30.5880   42.1890 H   0  0  0  0  0  0  0  0  0  0  0  0
   37.8340   29.4050   42.6220 C   0  0  1  0  0  3  0  0  0  0  0  0
   37.3590   28.3330   43.5870 C   0  0  0  0  0  3  0  0  0  0  0  0
   37.1530   28.7340   44.5990 H   0  0  0  0  0  0  0  0  0  0  0  0
   38.5240   27.3790   43.6090 C   0  0  0  0  0  3  0  0  0  0  0  0
   38.3030   26.4400   43.0670 H   0  0  0  0  0  0  0  0  0  0  0  0
   39.5830   28.0320   42.9750 O   0  0  0  0  0  0  0  0  0  0  0  0
   38.9440   28.6370   41.8940 C   0  0  0  0  0  3  0  0  0  0  0  0
   38.4420   27.8210   41.3320 H   0  0  0  0  0  0  0  0  0  0  0  0
   37.6590   31.7230   40.3060 C   0  0  0  0  0  0  0  0  0  0  0  0
   36.8760   32.3700   39.9140 H   0  0  0  0  0  0  0  0  0  0  0  0
   37.7880   32.0400   41.3840 H   0  0  0  0  0  0  0  0  0  0  0  0
   39.5600   33.1590   39.7640 C   0  0  0  0  0  3  0  0  0  0  0  0
   38.9850   31.9940   39.6980 C   0  0  0  0  0  3  0  0  0  0  0  0
   43.0460   34.1600   39.3440 C   0  0  0  0  0  0  0  0  0  0  0  0
   43.3010   33.8320   37.9790 C   0  0  0  0  0  0  0  0  0  0  0  0
   42.2390   33.2710   37.2580 C   0  0  0  0  0  0  0  0  0  0  0  0
   41.0410   33.0670   37.8700 N   0  0  0  0  0  0  0  0  0  0  0  0
   40.8510   33.3970   39.1730 C   0  0  0  0  0  0  0  0  0  0  0  0
   41.8290   33.9350   39.9100 N   0  0  0  0  0  0  0  0  0  0  0  0
   43.8240   34.6020   39.9750 H   0  0  0  0  0  0  0  0  0  0  0  0
   44.2650   34.0210   37.5680 H   0  0  0  0  0  0  0  0  0  0  0  0
   42.3920   33.0090   36.2190 H   0  0  0  0  0  0  0  0  0  0  0  0
  1  6  1  6  0  0  0
  1  5  1  0  0  0  0
  2  8  1  0  0  0  0
  2  3  1  0  0  0  0
  2  1  1  0  0  0  0
  3  4  1  0  0  0  0
  4  5  1  0  0  0  0
  5 11  1  1  0  0  0
  5 12  1  0  0  0  0
  7  2  1  0  0  0  0
  9  3  1  0  0  0  0
 10  3  1  0  0  0  0
 12 18  1  6  0  0  0
 12 13  1  0  0  0  0
 13 15  1  0  0  0  0
 13 14  1  0  0  0  0
 16 15  1  0  0  0  0
 17 15  1  0  0  0  0
 18 17  1  0  0  0  0
 19 18  1  0  0  0  0
 20  1  1  0  0  0  0
 20 22  1  0  0  0  0
 21 20  1  0  0  0  0
 24 23  2  0  0  0  0
 24 20  1  0  0  0  0
 25 30  1  0  0  0  0
 25 31  1  0  0  0  0
 26 25  2  0  0  0  0
 27 28  2  0  0  0  0
 27 26  1  0  0  0  0
 28 29  1  0  0  0  0
 29 23  1  0  0  0  0
 29 30  2  0  0  0  0
 32 26  1  0  0  0  0
 33 27  1  0  0  0  0
M  END
>  <minimizedAffinity>
-4.62877417

$$$$

 OpenBabel03242513223D

 33 35  0  0  1  0  0  0  0  0999 V2000
   36.6150   28.7600   41.2020 C   0  0  2  0  0  0  0  0  0  0  0  0
   36.5310   27.8570   42.4210 C   0  0  0  0  0  0  0  0  0  0  0  0
   37.8860   28.2030   43.0250 C   0  0  0  0  0  0  0  0  0  0  0  0
   38.0020   29.5630   42.8710 O   0  0  0  0  0  0  0  0  0  0  0  0
   37.1960   29.9820   41.8460 C   0  0  1  0  0  0  0  0  0  0  0  0
   37.2880   28.3380   40.4560 H   0  0  0  0  0  0  0  0  0  0  0  0
   36.5350   26.8170   42.0340 H   0  0  0  0  0  0  0  0  0  0  0  0
   35.6880   28.1110   43.0720 H   0  0  0  0  0  0  0  0  0  0  0  0
   38.6550   27.6090   42.4890 H   0  0  0  0  0  0  0  0  0  0  0  0
   37.8520   27.8850   44.0860 H   0  0  0  0  0  0  0  0  0  0  0  0
   36.4410   30.6620   42.2930 H   0  0  0  0  0  0  0  0  0  0  0  0
   38.0170   30.7700   40.8780 C   0  0  1  0  0  3  0  0  0  0  0  0
   37.3160   32.0450   40.4460 C   0  0  0  0  0  3  0  0  0  0  0  0
   36.8790   31.9670   39.4310 H   0  0  0  0  0  0  0  0  0  0  0  0
   38.4320   33.0570   40.4810 C   0  0  0  0  0  3  0  0  0  0  0  0
   38.3360   33.7540   41.3330 H   0  0  0  0  0  0  0  0  0  0  0  0
   39.6180   32.3320   40.6150 O   0  0  0  0  0  0  0  0  0  0  0  0
   39.2610   31.3640   41.5520 C   0  0  0  0  0  3  0  0  0  0  0  0
   38.8980   31.9140   42.4460 H   0  0  0  0  0  0  0  0  0  0  0  0
   35.2890   28.9740   40.5580 C   0  0  0  0  0  0  0  0  0  0  0  0
   34.4370   28.5680   41.1010 H   0  0  0  0  0  0  0  0  0  0  0  0
   35.1350   30.0950   40.5680 H   0  0  0  0  0  0  0  0  0  0  0  0
   35.6870   29.4490   38.1950 C   0  0  0  0  0  3  0  0  0  0  0  0
   35.2700   28.6290   39.1150 C   0  0  0  0  0  3  0  0  0  0  0  0
   36.5420   29.2750   34.6490 C   0  0  0  0  0  0  0  0  0  0  0  0
   35.5670   28.3660   34.1390 C   0  0  0  0  0  0  0  0  0  0  0  0
   34.6470   27.8490   35.0610 C   0  0  0  0  0  0  0  0  0  0  0  0
   34.7180   28.2220   36.3670 N   0  0  0  0  0  0  0  0  0  0  0  0
   35.6660   29.0900   36.8010 C   0  0  0  0  0  0  0  0  0  0  0  0
   36.5700   29.6160   35.9670 N   0  0  0  0  0  0  0  0  0  0  0  0
   37.2960   29.7230   33.9950 H   0  0  0  0  0  0  0  0  0  0  0  0
   35.5740   28.1210   33.1030 H   0  0  0  0  0  0  0  0  0  0  0  0
   33.8910   27.1560   34.7120 H   0  0  0  0  0  0  0  0  0  0  0  0
  1  6  1  6  0  0  0
  1  5  1  0  0  0  0
  1  2  1  0  0  0  0
  2  3  1  0  0  0  0
  2  8  1  0  0  0  0
  3 10  1  0  0  0  0
  4  3  1  0  0  0  0
  5 11  1  1  0  0  0
  5  4  1  0  0  0  0
  7  2  1  0  0  0  0
  9  3  1  0  0  0  0
 12 13  1  1  0  0  0
 12 18  1  0  0  0  0
 12  5  1  0  0  0  0
 13 15  1  0  0  0  0
 14 13  1  0  0  0  0
 15 17  1  0  0  0  0
 15 16  1  0  0  0  0
 17 18  1  0  0  0  0
 18 19  1  0  0  0  0
 20 22  1  0  0  0  0
 20 21  1  0  0  0  0
 20  1  1  0  0  0  0
 23 24  2  0  0  0  0
 24 20  1  0  0  0  0
 25 30  1  0  0  0  0
 26 25  2  0  0  0  0
 26 27  1  0  0  0  0
 27 28  2  0  0  0  0
 28 29  1  0  0  0  0
 29 23  1  0  0  0  0
 30 29  2  0  0  0  0
 31 25  1  0  0  0  0
 32 26  1  0  0  0  0
 33 27  1  0  0  0  0
M  END
>  <minimizedAffinity>
-4.62868738

$$$$

 OpenBabel03242513223D

 33 35  0  0  1  0  0  0  0  0999 V2000
   38.5060   26.8580   42.7910 C   0  0  2  0  0  0  0  0  0  0  0  0
   37.4720   25.8250   42.3740 C   0  0  0  0  0  0  0  0  0  0  0  0
   38.4390   24.7520   41.8930 C   0  0  0  0  0  0  0  0  0  0  0  0
   39.4480   24.7440   42.8240 O   0  0  0  0  0  0  0  0  0  0  0  0
   39.4910   25.9530   43.4660 C   0  0  1  0  0  0  0  0  0  0  0  0
   38.9380   27.3450   41.9170 H   0  0  0  0  0  0  0  0  0  0  0  0
   36.9260   26.2670   41.5150 H   0  0  0  0  0  0  0  0  0  0  0  0
   36.8450   25.5010   43.2100 H   0  0  0  0  0  0  0  0  0  0  0  0
   38.7590   25.0220   40.8650 H   0  0  0  0  0  0  0  0  0  0  0  0
   37.8690   23.8020   41.8600 H   0  0  0  0  0  0  0  0  0  0  0  0
   39.2650   25.7540   44.5350 H   0  0  0  0  0  0  0  0  0  0  0  0
   40.8800   26.4980   43.3780 C   0  0  1  0  0  3  0  0  0  0  0  0
   41.9210   25.3930   43.3430 C   0  0  0  0  0  3  0  0  0  0  0  0
   42.4380   25.2640   44.3140 H   0  0  0  0  0  0  0  0  0  0  0  0
   42.8730   25.8790   42.2810 C   0  0  0  0  0  3  0  0  0  0  0  0
   42.7870   25.2950   41.3460 H   0  0  0  0  0  0  0  0  0  0  0  0
   42.5310   27.2080   42.0220 O   0  0  0  0  0  0  0  0  0  0  0  0
   41.1390   27.1530   42.0150 C   0  0  0  0  0  3  0  0  0  0  0  0
   40.8600   26.3990   41.2490 H   0  0  0  0  0  0  0  0  0  0  0  0
   37.9350   27.9140   43.6720 C   0  0  0  0  0  0  0  0  0  0  0  0
   37.0190   27.6400   44.1940 H   0  0  0  0  0  0  0  0  0  0  0  0
   38.7030   28.0630   44.4880 H   0  0  0  0  0  0  0  0  0  0  0  0
   38.3000   29.4660   41.8210 C   0  0  0  0  0  3  0  0  0  0  0  0
   37.8500   29.2440   43.0210 C   0  0  0  0  0  3  0  0  0  0  0  0
   39.0250   32.9190   40.8830 C   0  0  0  0  0  0  0  0  0  0  0  0
   37.9500   33.2340   40.0000 C   0  0  0  0  0  0  0  0  0  0  0  0
   37.0110   32.2200   39.7660 C   0  0  0  0  0  0  0  0  0  0  0  0
   37.1580   31.0110   40.3740 N   0  0  0  0  0  0  0  0  0  0  0  0
   38.2010   30.7640   41.2060 C   0  0  0  0  0  0  0  0  0  0  0  0
   39.1270   31.6930   41.4650 N   0  0  0  0  0  0  0  0  0  0  0  0
   39.8000   33.6570   41.1160 H   0  0  0  0  0  0  0  0  0  0  0  0
   37.9000   34.2030   39.5610 H   0  0  0  0  0  0  0  0  0  0  0  0
   36.1790   32.4190   39.1020 H   0  0  0  0  0  0  0  0  0  0  0  0
  1  6  1  6  0  0  0
  1  5  1  0  0  0  0
  1 20  1  0  0  0  0
  2  1  1  0  0  0  0
  2  8  1  0  0  0  0
  3  2  1  0  0  0  0
  3  4  1  0  0  0  0
  4  5  1  0  0  0  0
  5 11  1  1  0  0  0
  7  2  1  0  0  0  0
  9  3  1  0  0  0  0
 10  3  1  0  0  0  0
 12 18  1  6  0  0  0
 12  5  1  0  0  0  0
 13 12  1  0  0  0  0
 13 14  1  0  0  0  0
 15 13  1  0  0  0  0
 16 15  1  0  0  0  0
 17 15  1  0  0  0  0
 18 17  1  0  0  0  0
 19 18  1  0  0  0  0
 20 21  1  0  0  0  0
 20 22  1  0  0  0  0
 23 24  2  0  0  0  0
 24 20  1  0  0  0  0
 25 31  1  0  0  0  0
 25 30  1  0  0  0  0
 26 25  2  0  0  0  0
 27 26  1  0  0  0  0
 27 28  2  0  0  0  0
 28 29  1  0  0  0  0
 29 30  2  0  0  0  0
 29 23  1  0  0  0  0
 32 26  1  0  0  0  0
 33 27  1  0  0  0  0
M  END
>  <minimizedAffinity>
-4.61976099

$$$$

 OpenBabel03242513223D

 33 35  0  0  1  0  0  0  0  0999 V2000
   38.1820   27.8230   42.4730 C   0  0  2  0  0  0  0  0  0  0  0  0
   39.4780   28.1740   43.1850 C   0  0  0  0  0  0  0  0  0  0  0  0
   39.7430   29.4990   42.4840 C   0  0  0  0  0  0  0  0  0  0  0  0
   38.5160   30.1120   42.4140 O   0  0  0  0  0  0  0  0  0  0  0  0
   37.5260   29.1690   42.4900 C   0  0  1  0  0  0  0  0  0  0  0  0
   38.3820   27.4830   41.4570 H   0  0  0  0  0  0  0  0  0  0  0  0
   40.2200   27.4120   42.8660 H   0  0  0  0  0  0  0  0  0  0  0  0
   39.3460   28.2730   44.2670 H   0  0  0  0  0  0  0  0  0  0  0  0
   40.2050   29.2740   41.5000 H   0  0  0  0  0  0  0  0  0  0  0  0
   40.4710   30.0510   43.1110 H   0  0  0  0  0  0  0  0  0  0  0  0
   36.9530   29.3830   43.4170 H   0  0  0  0  0  0  0  0  0  0  0  0
   36.6050   29.3410   41.3240 C   0  0  1  0  0  3  0  0  0  0  0  0
   36.3150   30.8040   41.0430 C   0  0  0  0  0  3  0  0  0  0  0  0
   35.3120   31.1140   41.3970 H   0  0  0  0  0  0  0  0  0  0  0  0
   36.4030   30.8680   39.5400 C   0  0  0  0  0  3  0  0  0  0  0  0
   37.3180   31.3860   39.1990 H   0  0  0  0  0  0  0  0  0  0  0  0
   36.4320   29.5470   39.0890 O   0  0  0  0  0  0  0  0  0  0  0  0
   37.2890   28.9450   40.0080 C   0  0  0  0  0  3  0  0  0  0  0  0
   38.2400   29.5160   39.9680 H   0  0  0  0  0  0  0  0  0  0  0  0
   37.4170   26.7550   43.1740 C   0  0  0  0  0  0  0  0  0  0  0  0
   37.8800   26.3700   44.0820 H   0  0  0  0  0  0  0  0  0  0  0  0
   36.4640   27.2550   43.5200 H   0  0  0  0  0  0  0  0  0  0  0  0
   37.7570   24.9120   41.6050 C   0  0  0  0  0  3  0  0  0  0  0  0
   36.9420   25.6780   42.2710 C   0  0  0  0  0  3  0  0  0  0  0  0
   37.5500   21.7890   39.7250 C   0  0  0  0  0  0  0  0  0  0  0  0
   36.2910   21.9070   39.0650 C   0  0  0  0  0  0  0  0  0  0  0  0
   35.5610   23.0790   39.3060 C   0  0  0  0  0  0  0  0  0  0  0  0
   36.0680   24.0300   40.1370 N   0  0  0  0  0  0  0  0  0  0  0  0
   37.2730   23.8680   40.7400 C   0  0  0  0  0  0  0  0  0  0  0  0
   38.0130   22.7710   40.5470 N   0  0  0  0  0  0  0  0  0  0  0  0
   38.1810   20.9040   39.5890 H   0  0  0  0  0  0  0  0  0  0  0  0
   35.9590   21.1200   38.4290 H   0  0  0  0  0  0  0  0  0  0  0  0
   34.6000   23.2050   38.8240 H   0  0  0  0  0  0  0  0  0  0  0  0
  1  6  1  6  0  0  0
  1  5  1  0  0  0  0
  1 20  1  0  0  0  0
  1  2  1  0  0  0  0
  2  8  1  0  0  0  0
  3 10  1  0  0  0  0
  3  2  1  0  0  0  0
  4  3  1  0  0  0  0
  4  5  1  0  0  0  0
  5 11  1  1  0  0  0
  7  2  1  0  0  0  0
  9  3  1  0  0  0  0
 12 18  1  6  0  0  0
 12  5  1  0  0  0  0
 13 12  1  0  0  0  0
 13 14  1  0  0  0  0
 15 13  1  0  0  0  0
 16 15  1  0  0  0  0
 17 15  1  0  0  0  0
 17 18  1  0  0  0  0
 19 18  1  0  0  0  0
 20 22  1  0  0  0  0
 20 21  1  0  0  0  0
 23 24  2  0  0  0  0
 24 20  1  0  0  0  0
 25 30  1  0  0  0  0
 26 27  1  0  0  0  0
 26 25  2  0  0  0  0
 27 28  2  0  0  0  0
 28 29  1  0  0  0  0
 29 23  1  0  0  0  0
 30 29  2  0  0  0  0
 31 25  1  0  0  0  0
 32 26  1  0  0  0  0
 33 27  1  0  0  0  0
M  END
>  <minimizedAffinity>
-4.50464582

$$$$
