
 OpenBabel03242522373D

 44 47  0  0  1  0  0  0  0  0999 V2000
   43.5950   35.2730   42.2390 C   0  0  0  0  0  0  0  0  0  0  0  0
   42.5220   35.0660   41.4290 C   0  0  0  0  0  0  0  0  0  0  0  0
   42.7530   34.4850   40.2120 C   0  0  0  0  0  0  0  0  0  0  0  0
   44.0080   34.0900   39.7460 C   0  0  0  0  0  0  0  0  0  0  0  0
   45.0770   34.3190   40.6070 C   0  0  0  0  0  0  0  0  0  0  0  0
   44.8570   34.9010   41.8270 C   0  0  0  0  0  0  0  0  0  0  0  0
   41.9240   34.3040   39.5380 H   0  0  0  0  0  0  0  0  0  0  0  0
   44.1360   33.6330   38.7730 H   0  0  0  0  0  0  0  0  0  0  0  0
   46.0790   34.0300   40.2910 H   0  0  0  0  0  0  0  0  0  0  0  0
   41.1470   35.4360   41.8010 C   0  0  0  0  0  0  0  0  0  0  0  0
   40.9740   36.4700   41.4570 H   0  0  0  0  0  0  0  0  0  0  0  0
   40.9830   35.4520   42.9050 H   0  0  0  0  0  0  0  0  0  0  0  0
   38.9800   32.4850   41.2370 C   0  0  0  0  0  0  0  0  0  0  0  0
   38.2390   32.8830   40.1330 C   0  0  0  0  0  0  0  0  0  0  0  0
   38.4920   34.1380   39.6090 C   0  0  0  0  0  0  0  0  0  0  0  0
   39.4340   34.9180   40.1790 N   0  0  0  0  0  0  0  0  0  0  0  0
   40.1390   34.5030   41.2540 C   0  0  0  0  0  0  0  0  0  0  0  0
   39.8990   33.3030   41.7580 N   0  0  0  0  0  0  0  0  0  0  0  0
   38.7820   31.5030   41.6470 H   0  0  0  0  0  0  0  0  0  0  0  0
   37.4720   32.2870   39.6420 H   0  0  0  0  0  0  0  0  0  0  0  0
   37.9210   34.4720   38.7400 H   0  0  0  0  0  0  0  0  0  0  0  0
   43.4190   35.8600   43.4880 O   0  0  0  0  0  0  0  0  0  0  0  0
   43.7790   35.3390   44.2860 H   0  0  0  0  0  0  0  0  0  0  0  0
   45.9550   35.1120   42.6570 O   0  0  0  0  0  0  0  0  0  0  0  0
   46.8390   34.0470   42.8370 C   0  0  0  0  0  0  0  0  0  0  0  0
   46.5300   33.1410   43.8210 C   0  0  0  0  0  0  0  0  0  0  0  0
   47.3690   32.0740   44.0360 C   0  0  0  0  0  0  0  0  0  0  0  0
   48.5240   31.9180   43.2610 C   0  0  0  0  0  0  0  0  0  0  0  0
   48.8040   32.8520   42.2770 C   0  0  0  0  0  0  0  0  0  0  0  0
   47.9550   33.9280   42.0610 C   0  0  0  0  0  0  0  0  0  0  0  0
   45.6390   33.2590   44.4200 H   0  0  0  0  0  0  0  0  0  0  0  0
   47.0890   31.3840   44.8210 H   0  0  0  0  0  0  0  0  0  0  0  0
   49.1400   31.0650   43.4800 H   0  0  0  0  0  0  0  0  0  0  0  0
   50.0010   32.7670   41.4150 C   0  0  1  0  0  0  0  0  0  0  0  0
   51.1840   32.0870   42.1220 C   0  0  0  0  0  0  0  0  0  0  0  0
   50.8260   31.2170   42.7080 H   0  0  0  0  0  0  0  0  0  0  0  0
   51.9600   31.5170   40.9580 C   0  0  0  0  0  0  0  0  0  0  0  0
   52.2760   30.4780   41.1290 H   0  0  0  0  0  0  0  0  0  0  0  0
   51.2010   31.6720   39.8070 O   0  0  0  0  0  0  0  0  0  0  0  0
   49.8780   31.8910   40.2140 C   0  0  0  0  0  0  0  0  0  0  0  0
   49.3700   30.9420   40.4560 H   0  0  0  0  0  0  0  0  0  0  0  0
   48.2700   34.8630   41.0490 N   0  0  0  0  0  0  0  0  0  0  0  0
   47.9510   34.3960   40.1540 H   0  0  0  0  0  0  0  0  0  0  0  0
   48.7130   35.7160   41.4720 H   0  0  0  0  0  0  0  0  0  0  0  0
  1 22  1  0  0  0  0
  2 10  1  0  0  0  0
  2  1  2  0  0  0  0
  3  2  1  0  0  0  0
  4  3  2  0  0  0  0
  4  5  1  0  0  0  0
  5  6  2  0  0  0  0
  6  1  1  0  0  0  0
  6 24  1  0  0  0  0
  7  3  1  0  0  0  0
  8  4  1  0  0  0  0
  9  5  1  0  0  0  0
 10 12  1  0  0  0  0
 11 10  1  0  0  0  0
 13 19  1  0  0  0  0
 13 18  1  0  0  0  0
 14 13  2  0  0  0  0
 15 14  1  0  0  0  0
 15 16  2  0  0  0  0
 16 17  1  0  0  0  0
 17 18  2  0  0  0  0
 17 10  1  0  0  0  0
 20 14  1  0  0  0  0
 21 15  1  0  0  0  0
 22 23  1  0  0  0  0
 24 25  1  0  0  0  0
 25 26  1  0  0  0  0
 26 27  2  0  0  0  0
 26 31  1  0  0  0  0
 27 32  1  0  0  0  0
 28 33  1  0  0  0  0
 28 27  1  0  0  0  0
 29 28  2  0  0  0  0
 30 29  1  0  0  0  0
 30 25  2  0  0  0  0
 34 35  1  0  0  0  0
 34 29  1  1  0  0  0
 35 36  1  0  0  0  0
 37 38  1  0  0  0  0
 37 35  1  0  0  0  0
 39 40  1  0  0  0  0
 39 37  1  0  0  0  0
 40 41  1  0  0  0  0
 40 34  1  0  0  0  0
 42 44  1  0  0  0  0
 42 30  1  0  0  0  0
 43 42  1  0  0  0  0
M  END
>  <minimizedAffinity>
-6.46881151

>  <minimizedRMSD>
0.952279568

$$$$
