
 OpenBabel03252507083D

 23 24  0  0  1  0  0  0  0  0999 V2000
   44.6140   36.0850   44.5090 C   0  0  0  0  0  0  0  0  0  0  0  0
   45.2660   36.0230   43.2530 C   0  0  0  0  0  0  0  0  0  0  0  0
   46.0590   34.9170   42.9760 C   0  0  0  0  0  0  0  0  0  0  0  0
   46.1670   33.9470   43.9320 N   0  0  0  0  0  0  0  0  0  0  0  0
   45.5400   34.0280   45.1130 C   0  0  0  0  0  0  0  0  0  0  0  0
   44.7610   35.0990   45.4060 N   0  0  0  0  0  0  0  0  0  0  0  0
   44.0210   36.9930   44.6160 H   0  0  0  0  0  0  0  0  0  0  0  0
   45.1690   36.8010   42.5060 H   0  0  0  0  0  0  0  0  0  0  0  0
   45.6560   32.9850   46.1430 C   0  0  1  0  0  3  0  0  0  0  0  0
   47.1150   32.7460   46.5520 C   0  0  0  0  0  3  0  0  0  0  0  0
   47.5930   32.1300   45.7620 H   0  0  0  0  0  0  0  0  0  0  0  0
   46.8320   31.9600   47.8160 C   0  0  0  0  0  3  0  0  0  0  0  0
   47.6870   31.8980   48.5020 H   0  0  0  0  0  0  0  0  0  0  0  0
   45.6730   32.4750   48.3660 O   0  0  0  0  0  0  0  0  0  0  0  0
   45.0830   33.3350   47.4750 C   0  0  0  0  0  3  0  0  0  0  0  0
   45.3970   34.3750   47.7780 H   0  0  0  0  0  0  0  0  0  0  0  0
   46.6870   34.8690   41.7500 O   0  0  0  0  0  0  0  0  0  0  0  0
   48.6640   33.2610   41.0450 O   0  0  0  0  0  0  0  0  0  0  0  0
   48.3860   34.6280   41.6800 P   0  0  0  0  0  0  0  0  0  0  0  0
   49.0920   35.8710   40.8320 O   0  0  0  0  0  0  0  0  0  0  0  0
   49.8980   36.1980   41.3290 H   0  0  0  0  0  0  0  0  0  0  0  0
   48.9500   34.5570   43.2860 O   0  0  0  0  0  0  0  0  0  0  0  0
   48.8500   33.6320   43.5850 H   0  0  0  0  0  0  0  0  0  0  0  0
  1  7  1  0  0  0  0
  1  6  1  0  0  0  0
  2  1  2  0  0  0  0
  3  2  1  0  0  0  0
  3  4  2  0  0  0  0
  4  5  1  0  0  0  0
  5  6  2  0  0  0  0
  8  2  1  0  0  0  0
  9  5  1  6  0  0  0
  9 10  1  0  0  0  0
  9 15  1  0  0  0  0
 10 12  1  0  0  0  0
 11 10  1  0  0  0  0
 12 14  1  0  0  0  0
 12 13  1  0  0  0  0
 15 16  1  0  0  0  0
 15 14  1  0  0  0  0
 17  3  1  0  0  0  0
 18 19  2  0  0  0  0
 19 17  1  0  0  0  0
 19 22  1  0  0  0  0
 20 21  1  0  0  0  0
 20 19  1  0  0  0  0
 22 23  1  0  0  0  0
M  END
>  <minimizedAffinity>
-5.18835068

>  <minimizedRMSD>
0.468422234

$$$$
