
 OpenBabel03252504393D

 29 31  0  0  1  0  0  0  0  0999 V2000
   46.2620   32.0960   46.9340 C   0  0  0  0  0  0  0  0  0  0  0  0
   45.5350   32.9620   47.7140 C   0  0  0  0  0  0  0  0  0  0  0  0
   45.0250   33.8470   46.8460 N   0  0  0  0  0  0  0  0  0  0  0  0
   45.3940   33.5800   45.5730 C   0  0  0  0  0  0  0  0  0  0  0  0
   46.1700   32.4740   45.6570 N   0  0  0  0  0  0  0  0  0  0  0  0
   45.4090   32.9270   48.7860 H   0  0  0  0  0  0  0  0  0  0  0  0
   44.4130   34.6560   47.0900 H   0  0  0  0  0  0  0  0  0  0  0  0
   45.0870   34.2600   44.3000 C   0  0  1  0  0  0  0  0  0  0  0  0
   44.4880   35.6280   44.5230 C   0  0  0  0  0  0  0  0  0  0  0  0
   44.6720   35.9640   45.5530 H   0  0  0  0  0  0  0  0  0  0  0  0
   45.2420   36.4740   43.5420 C   0  0  0  0  0  0  0  0  0  0  0  0
   46.1000   37.0120   43.9870 H   0  0  0  0  0  0  0  0  0  0  0  0
   45.8070   35.5660   42.6160 O   0  0  0  0  0  0  0  0  0  0  0  0
   46.3410   34.6210   43.5090 C   0  0  0  0  0  0  0  0  0  0  0  0
   47.1180   35.0540   44.1510 H   0  0  0  0  0  0  0  0  0  0  0  0
   47.0510   30.9020   47.3990 C   0  0  0  0  0  0  0  0  0  0  0  0
   46.3220   30.3500   48.0630 H   0  0  0  0  0  0  0  0  0  0  0  0
   47.3570   30.2850   46.5600 H   0  0  0  0  0  0  0  0  0  0  0  0
   48.7330   30.5250   49.1570 C   0  0  0  0  0  0  0  0  0  0  0  0
   48.1470   31.3170   48.2870 C   0  0  0  0  0  0  0  0  0  0  0  0
   49.8090   31.0870   49.9730 C   0  0  0  0  0  0  0  0  0  0  0  0
   50.3520   30.3280   51.0500 C   0  0  0  0  0  0  0  0  0  0  0  0
   51.3730   30.9340   51.7850 C   0  0  0  0  0  0  0  0  0  0  0  0
   51.7950   32.1900   51.4520 N   0  0  0  0  0  0  0  0  0  0  0  0
   51.2490   32.8630   50.4270 C   0  0  0  0  0  0  0  0  0  0  0  0
   50.2730   32.3200   49.6990 N   0  0  0  0  0  0  0  0  0  0  0  0
   49.9810   29.3530   51.2620 H   0  0  0  0  0  0  0  0  0  0  0  0
   51.8240   30.4150   52.6090 H   0  0  0  0  0  0  0  0  0  0  0  0
   51.5640   33.8560   50.1410 H   0  0  0  0  0  0  0  0  0  0  0  0
  1 16  1  0  0  0  0
  1  2  2  0  0  0  0
  2  6  1  0  0  0  0
  3  7  1  0  0  0  0
  3  2  1  0  0  0  0
  4  5  2  0  0  0  0
  4  3  1  0  0  0  0
  5  1  1  0  0  0  0
  8  9  1  0  0  0  0
  8  4  1  1  0  0  0
  9 10  1  0  0  0  0
 11 12  1  0  0  0  0
 11  9  1  0  0  0  0
 13 14  1  0  0  0  0
 13 11  1  0  0  0  0
 14 15  1  0  0  0  0
 14  8  1  0  0  0  0
 16 17  1  0  0  0  0
 16 20  1  0  0  0  0
 18 16  1  0  0  0  0
 19 21  1  0  0  0  0
 20 19  2  0  0  0  0
 21 22  1  0  0  0  0
 22 27  1  0  0  0  0
 22 23  2  0  0  0  0
 23 28  1  0  0  0  0
 24 23  1  0  0  0  0
 25 24  2  0  0  0  0
 26 21  2  0  0  0  0
 26 25  1  0  0  0  0
 29 25  1  0  0  0  0
M  END
>  <minimizedAffinity>
-5.19962645

>  <minimizedRMSD>
4.21110678

$$$$
