
 OpenBabel03242513223D

 33 35  0  0  1  0  0  0  0  0999 V2000
   46.1560   30.5570   47.3500 C   0  0  2  0  0  0  0  0  0  0  0  0
   44.8740   31.1480   47.9110 C   0  0  0  0  0  0  0  0  0  0  0  0
   45.4050   31.5150   49.2900 C   0  0  0  0  0  0  0  0  0  0  0  0
   46.6550   32.0350   49.0580 O   0  0  0  0  0  0  0  0  0  0  0  0
   47.1340   31.5690   47.8630 C   0  0  1  0  0  0  0  0  0  0  0  0
   46.3400   29.5680   47.7700 H   0  0  0  0  0  0  0  0  0  0  0  0
   44.1540   30.3070   47.9840 H   0  0  0  0  0  0  0  0  0  0  0  0
   44.5270   32.0120   47.3350 H   0  0  0  0  0  0  0  0  0  0  0  0
   45.3940   30.5960   49.9110 H   0  0  0  0  0  0  0  0  0  0  0  0
   44.6980   32.2530   49.7170 H   0  0  0  0  0  0  0  0  0  0  0  0
   47.2590   32.4540   47.2040 H   0  0  0  0  0  0  0  0  0  0  0  0
   48.4810   30.9610   48.0870 C   0  0  1  0  0  0  0  0  0  0  0  0
   49.0930   31.4070   49.4020 C   0  0  0  0  0  0  0  0  0  0  0  0
   49.8800   32.1750   49.2660 H   0  0  0  0  0  0  0  0  0  0  0  0
   49.6730   30.1260   49.9410 C   0  0  0  0  0  0  0  0  0  0  0  0
   49.0900   29.7310   50.7930 H   0  0  0  0  0  0  0  0  0  0  0  0
   49.6320   29.2020   48.8940 O   0  0  0  0  0  0  0  0  0  0  0  0
   48.3790   29.4510   48.3380 C   0  0  0  0  0  0  0  0  0  0  0  0
   47.6420   29.3210   49.1580 H   0  0  0  0  0  0  0  0  0  0  0  0
   46.1240   30.4270   45.8670 C   0  0  0  0  0  0  0  0  0  0  0  0
   46.6610   29.5710   45.4620 H   0  0  0  0  0  0  0  0  0  0  0  0
   45.0380   30.2390   45.6120 H   0  0  0  0  0  0  0  0  0  0  0  0
   47.1380   31.7210   44.0590 C   0  0  0  0  0  0  0  0  0  0  0  0
   46.4390   31.6910   45.1550 C   0  0  0  0  0  0  0  0  0  0  0  0
   46.7090   34.9740   42.4580 C   0  0  0  0  0  0  0  0  0  0  0  0
   48.0420   35.3110   42.0770 C   0  0  0  0  0  0  0  0  0  0  0  0
   49.0410   34.3830   42.3980 C   0  0  0  0  0  0  0  0  0  0  0  0
   48.7110   33.2300   43.0410 N   0  0  0  0  0  0  0  0  0  0  0  0
   47.4260   32.9580   43.3820 C   0  0  0  0  0  0  0  0  0  0  0  0
   46.4300   33.8070   43.1020 N   0  0  0  0  0  0  0  0  0  0  0  0
   45.8720   35.6460   42.2450 H   0  0  0  0  0  0  0  0  0  0  0  0
   48.2250   36.2320   41.5750 H   0  0  0  0  0  0  0  0  0  0  0  0
   50.0660   34.6020   42.1250 H   0  0  0  0  0  0  0  0  0  0  0  0
  1  6  1  1  0  0  0
  1  5  1  0  0  0  0
  1  2  1  0  0  0  0
  2  7  1  0  0  0  0
  2  3  1  0  0  0  0
  3 10  1  0  0  0  0
  3  9  1  0  0  0  0
  4  3  1  0  0  0  0
  5 11  1  6  0  0  0
  5 12  1  0  0  0  0
  5  4  1  0  0  0  0
  8  2  1  0  0  0  0
 12 18  1  1  0  0  0
 12 13  1  0  0  0  0
 13 15  1  0  0  0  0
 14 13  1  0  0  0  0
 15 16  1  0  0  0  0
 17 15  1  0  0  0  0
 18 17  1  0  0  0  0
 18 19  1  0  0  0  0
 20  1  1  0  0  0  0
 21 20  1  0  0  0  0
 22 20  1  0  0  0  0
 23 24  2  0  0  0  0
 24 20  1  0  0  0  0
 25 30  1  0  0  0  0
 26 27  1  0  0  0  0
 26 25  2  0  0  0  0
 27 28  2  0  0  0  0
 28 29  1  0  0  0  0
 29 23  1  0  0  0  0
 30 29  2  0  0  0  0
 31 25  1  0  0  0  0
 32 26  1  0  0  0  0
 33 27  1  0  0  0  0
M  END
>  <minimizedAffinity>
-4.35191584

>  <minimizedRMSD>
1.86603498

$$$$
