
 OpenBabel03242521203D

 25 27  0  0  1  0  0  0  0  0999 V2000
   37.4200   30.6530   40.9580 C   0  0  0  0  0  0  0  0  0  0  0  0
   36.1760   30.4250   40.4400 C   0  0  0  0  0  0  0  0  0  0  0  0
   35.4460   29.2840   40.6710 C   0  0  0  0  0  0  0  0  0  0  0  0
   36.0310   28.3520   41.4640 N   0  0  0  0  0  0  0  0  0  0  0  0
   37.2570   28.5720   41.9770 C   0  0  0  0  0  0  0  0  0  0  0  0
   37.9860   29.6910   41.7580 N   0  0  0  0  0  0  0  0  0  0  0  0
   35.6950   31.1660   39.8010 H   0  0  0  0  0  0  0  0  0  0  0  0
   34.4610   29.0950   40.2660 H   0  0  0  0  0  0  0  0  0  0  0  0
   40.1960   33.0170   40.6740 C   0  0  0  0  0  0  0  0  0  0  0  0
   39.5540   34.1600   40.1770 C   0  0  0  0  0  0  0  0  0  0  0  0
   38.1720   34.1330   39.9370 C   0  0  0  0  0  0  0  0  0  0  0  0
   37.5000   32.9630   40.2050 N   0  0  0  0  0  0  0  0  0  0  0  0
   38.1480   31.8830   40.6810 C   0  0  0  0  0  0  0  0  0  0  0  0
   39.4740   31.9020   40.9130 N   0  0  0  0  0  0  0  0  0  0  0  0
   41.2500   33.0890   40.8390 H   0  0  0  0  0  0  0  0  0  0  0  0
   40.0570   35.0900   39.9590 H   0  0  0  0  0  0  0  0  0  0  0  0
   37.6210   34.9840   39.5540 H   0  0  0  0  0  0  0  0  0  0  0  0
   37.8630   27.5260   42.8420 C   0  0  1  0  0  3  0  0  0  0  0  0
   37.9000   26.1620   42.1830 C   0  0  0  0  0  3  0  0  0  0  0  0
   36.9420   25.6290   42.3410 H   0  0  0  0  0  0  0  0  0  0  0  0
   39.0660   25.5240   42.9100 C   0  0  0  0  0  3  0  0  0  0  0  0
   38.6260   24.6980   43.5290 H   0  0  0  0  0  0  0  0  0  0  0  0
   39.6740   26.4960   43.6790 O   0  0  0  0  0  0  0  0  0  0  0  0
   39.3310   27.7400   43.1140 C   0  0  0  0  0  3  0  0  0  0  0  0
   39.5210   28.4850   43.9110 H   0  0  0  0  0  0  0  0  0  0  0  0
  1  6  1  0  0  0  0
  2  3  1  0  0  0  0
  2  1  2  0  0  0  0
  3  4  2  0  0  0  0
  4  5  1  0  0  0  0
  6  5  2  0  0  0  0
  7  2  1  0  0  0  0
  8  3  1  0  0  0  0
  9 15  1  0  0  0  0
  9 14  1  0  0  0  0
 10  9  2  0  0  0  0
 11 10  1  0  0  0  0
 11 12  2  0  0  0  0
 12 13  1  0  0  0  0
 13 14  2  0  0  0  0
 13  1  1  0  0  0  0
 16 10  1  0  0  0  0
 17 11  1  0  0  0  0
 18  5  1  6  0  0  0
 18 24  1  0  0  0  0
 19 20  1  0  0  0  0
 19 18  1  0  0  0  0
 19 21  1  0  0  0  0
 21 22  1  0  0  0  0
 21 23  1  0  0  0  0
 24 23  1  0  0  0  0
 24 25  1  0  0  0  0
M  END
>  <minimizedAffinity>
-4.87171841

$$$$

 OpenBabel03242521203D

 25 27  0  0  1  0  0  0  0  0999 V2000
   37.5960   28.3900   41.4710 C   0  0  0  0  0  0  0  0  0  0  0  0
   36.2480   28.3240   41.2590 C   0  0  0  0  0  0  0  0  0  0  0  0
   35.5140   29.3270   40.6740 C   0  0  0  0  0  0  0  0  0  0  0  0
   36.2050   30.4310   40.2990 N   0  0  0  0  0  0  0  0  0  0  0  0
   37.5350   30.5010   40.5050 C   0  0  0  0  0  0  0  0  0  0  0  0
   38.2700   29.5210   41.0800 N   0  0  0  0  0  0  0  0  0  0  0  0
   35.6800   27.4420   41.5560 H   0  0  0  0  0  0  0  0  0  0  0  0
   34.4470   29.2840   40.5020 H   0  0  0  0  0  0  0  0  0  0  0  0
   39.9100   26.6150   43.6790 C   0  0  0  0  0  0  0  0  0  0  0  0
   39.7110   25.2810   43.2960 C   0  0  0  0  0  0  0  0  0  0  0  0
   38.7880   24.9780   42.2840 C   0  0  0  0  0  0  0  0  0  0  0  0
   38.1090   26.0250   41.7040 N   0  0  0  0  0  0  0  0  0  0  0  0
   38.3250   27.2950   42.0970 C   0  0  0  0  0  0  0  0  0  0  0  0
   39.2090   27.5920   43.0680 N   0  0  0  0  0  0  0  0  0  0  0  0
   40.6240   26.7930   44.4550 H   0  0  0  0  0  0  0  0  0  0  0  0
   40.2300   24.4420   43.7340 H   0  0  0  0  0  0  0  0  0  0  0  0
   38.5910   23.9670   41.9450 H   0  0  0  0  0  0  0  0  0  0  0  0
   38.2560   31.7290   40.0800 C   0  0  1  0  0  3  0  0  0  0  0  0
   37.3300   32.8990   39.8180 C   0  0  0  0  0  3  0  0  0  0  0  0
   36.9410   32.8610   38.7820 H   0  0  0  0  0  0  0  0  0  0  0  0
   38.2660   34.0660   40.0630 C   0  0  0  0  0  3  0  0  0  0  0  0
   38.4090   34.5560   39.0640 H   0  0  0  0  0  0  0  0  0  0  0  0
   39.4430   33.5670   40.5830 O   0  0  0  0  0  0  0  0  0  0  0  0
   39.1420   32.3140   41.1510 C   0  0  0  0  0  3  0  0  0  0  0  0
   40.1160   31.7930   41.2410 H   0  0  0  0  0  0  0  0  0  0  0  0
  1 13  1  0  0  0  0
  2  1  1  0  0  0  0
  2  7  1  0  0  0  0
  3  2  2  0  0  0  0
  4  5  2  0  0  0  0
  4  3  1  0  0  0  0
  5  6  1  0  0  0  0
  6  1  2  0  0  0  0
  8  3  1  0  0  0  0
  9 15  1  0  0  0  0
 10  9  1  0  0  0  0
 10 16  1  0  0  0  0
 11 10  2  0  0  0  0
 12 13  2  0  0  0  0
 12 11  1  0  0  0  0
 13 14  1  0  0  0  0
 14  9  2  0  0  0  0
 17 11  1  0  0  0  0
 18  5  1  1  0  0  0
 18 24  1  0  0  0  0
 19 21  1  0  0  0  0
 19 18  1  0  0  0  0
 20 19  1  0  0  0  0
 21 23  1  0  0  0  0
 22 21  1  0  0  0  0
 23 24  1  0  0  0  0
 24 25  1  0  0  0  0
M  END
>  <minimizedAffinity>
-4.70258284

$$$$

 OpenBabel03242521203D

 25 27  0  0  1  0  0  0  0  0999 V2000
   37.3700   29.0630   41.3750 C   0  0  0  0  0  0  0  0  0  0  0  0
   37.6400   29.3360   42.6860 C   0  0  0  0  0  0  0  0  0  0  0  0
   37.6840   28.3830   43.6750 C   0  0  0  0  0  0  0  0  0  0  0  0
   37.4400   27.1070   43.2850 N   0  0  0  0  0  0  0  0  0  0  0  0
   37.1730   26.8330   41.9940 C   0  0  0  0  0  0  0  0  0  0  0  0
   37.1270   27.7620   41.0090 N   0  0  0  0  0  0  0  0  0  0  0  0
   37.8380   30.3570   43.0130 H   0  0  0  0  0  0  0  0  0  0  0  0
   37.8960   28.5890   44.7150 H   0  0  0  0  0  0  0  0  0  0  0  0
   37.3070   30.6870   38.0980 C   0  0  0  0  0  0  0  0  0  0  0  0
   37.2740   32.0440   38.4470 C   0  0  0  0  0  0  0  0  0  0  0  0
   37.2730   32.4140   39.8010 C   0  0  0  0  0  0  0  0  0  0  0  0
   37.3050   31.4080   40.7380 N   0  0  0  0  0  0  0  0  0  0  0  0
   37.3360   30.1140   40.3680 C   0  0  0  0  0  0  0  0  0  0  0  0
   37.3370   29.7520   39.0710 N   0  0  0  0  0  0  0  0  0  0  0  0
   37.3060   30.4570   37.0540 H   0  0  0  0  0  0  0  0  0  0  0  0
   37.2480   32.8520   37.7320 H   0  0  0  0  0  0  0  0  0  0  0  0
   37.2480   33.4460   40.1320 H   0  0  0  0  0  0  0  0  0  0  0  0
   36.9110   25.4220   41.6070 C   0  0  1  0  0  3  0  0  0  0  0  0
   36.8810   25.2160   40.1060 C   0  0  0  0  0  3  0  0  0  0  0  0
   35.8720   25.4330   39.7050 H   0  0  0  0  0  0  0  0  0  0  0  0
   37.2610   23.7520   40.0100 C   0  0  0  0  0  3  0  0  0  0  0  0
   36.3460   23.2240   39.6320 H   0  0  0  0  0  0  0  0  0  0  0  0
   37.6390   23.3250   41.2660 O   0  0  0  0  0  0  0  0  0  0  0  0
   38.0170   24.4710   41.9920 C   0  0  0  0  0  3  0  0  0  0  0  0
   37.9770   24.1680   43.0570 H   0  0  0  0  0  0  0  0  0  0  0  0
  1  2  1  0  0  0  0
  2  7  1  0  0  0  0
  2  3  2  0  0  0  0
  3  8  1  0  0  0  0
  4  3  1  0  0  0  0
  5  4  2  0  0  0  0
  6  1  2  0  0  0  0
  6  5  1  0  0  0  0
  9 10  2  0  0  0  0
  9 14  1  0  0  0  0
 10 11  1  0  0  0  0
 11 17  1  0  0  0  0
 11 12  2  0  0  0  0
 13 12  1  0  0  0  0
 13  1  1  0  0  0  0
 14 13  2  0  0  0  0
 15  9  1  0  0  0  0
 16 10  1  0  0  0  0
 18 24  1  0  0  0  0
 18  5  1  6  0  0  0
 19 18  1  0  0  0  0
 20 19  1  0  0  0  0
 21 19  1  0  0  0  0
 21 23  1  0  0  0  0
 22 21  1  0  0  0  0
 23 24  1  0  0  0  0
 24 25  1  0  0  0  0
M  END
>  <minimizedAffinity>
-4.62536621

$$$$

 OpenBabel03242521203D

 25 27  0  0  1  0  0  0  0  0999 V2000
   37.8460   29.3620   41.6390 C   0  0  0  0  0  0  0  0  0  0  0  0
   37.9470   29.2400   42.9960 C   0  0  0  0  0  0  0  0  0  0  0  0
   37.9170   28.0380   43.6620 C   0  0  0  0  0  0  0  0  0  0  0  0
   37.7770   26.9320   42.8910 N   0  0  0  0  0  0  0  0  0  0  0  0
   37.6760   27.0470   41.5530 C   0  0  0  0  0  0  0  0  0  0  0  0
   37.7050   28.2240   40.8830 N   0  0  0  0  0  0  0  0  0  0  0  0
   38.0600   30.1210   43.6270 H   0  0  0  0  0  0  0  0  0  0  0  0
   37.9960   27.9320   44.7350 H   0  0  0  0  0  0  0  0  0  0  0  0
   37.0050   32.0870   39.3480 C   0  0  0  0  0  0  0  0  0  0  0  0
   37.9180   33.0800   39.7310 C   0  0  0  0  0  0  0  0  0  0  0  0
   38.8250   32.8270   40.7710 C   0  0  0  0  0  0  0  0  0  0  0  0
   38.7740   31.5930   41.3770 N   0  0  0  0  0  0  0  0  0  0  0  0
   37.8840   30.6620   40.9840 C   0  0  0  0  0  0  0  0  0  0  0  0
   37.0110   30.8990   39.9870 N   0  0  0  0  0  0  0  0  0  0  0  0
   36.3350   32.3290   38.5510 H   0  0  0  0  0  0  0  0  0  0  0  0
   37.9790   34.0550   39.2720 H   0  0  0  0  0  0  0  0  0  0  0  0
   39.5530   33.5550   41.1110 H   0  0  0  0  0  0  0  0  0  0  0  0
   37.5240   25.8100   40.7430 C   0  0  1  0  0  3  0  0  0  0  0  0
   36.9120   24.6640   41.5220 C   0  0  0  0  0  3  0  0  0  0  0  0
   37.6940   24.1120   42.0780 H   0  0  0  0  0  0  0  0  0  0  0  0
   36.2900   23.8550   40.4020 C   0  0  0  0  0  3  0  0  0  0  0  0
   36.8750   22.8980   40.3550 H   0  0  0  0  0  0  0  0  0  0  0  0
   36.3860   24.5910   39.2380 O   0  0  0  0  0  0  0  0  0  0  0  0
   36.5270   25.9400   39.6180 C   0  0  0  0  0  3  0  0  0  0  0  0
   36.9420   26.4520   38.7270 H   0  0  0  0  0  0  0  0  0  0  0  0
  1  2  1  0  0  0  0
  2  7  1  0  0  0  0
  2  3  2  0  0  0  0
  3  8  1  0  0  0  0
  4  3  1  0  0  0  0
  5  4  2  0  0  0  0
  6  5  1  0  0  0  0
  6  1  2  0  0  0  0
  9 10  2  0  0  0  0
  9 14  1  0  0  0  0
 10 11  1  0  0  0  0
 11 17  1  0  0  0  0
 11 12  2  0  0  0  0
 13 12  1  0  0  0  0
 13  1  1  0  0  0  0
 14 13  2  0  0  0  0
 15  9  1  0  0  0  0
 16 10  1  0  0  0  0
 18 19  1  0  0  0  0
 18  5  1  1  0  0  0
 19 20  1  0  0  0  0
 21 19  1  0  0  0  0
 22 21  1  0  0  0  0
 23 24  1  0  0  0  0
 23 21  1  0  0  0  0
 24 18  1  0  0  0  0
 25 24  1  0  0  0  0
M  END
>  <minimizedAffinity>
-4.61075735

$$$$

 OpenBabel03242521203D

 25 27  0  0  1  0  0  0  0  0999 V2000
   38.9290   31.6980   40.1150 C   0  0  0  0  0  0  0  0  0  0  0  0
   37.5940   31.9370   39.9450 C   0  0  0  0  0  0  0  0  0  0  0  0
   36.6090   31.3490   40.7010 C   0  0  0  0  0  0  0  0  0  0  0  0
   37.0260   30.4870   41.6610 N   0  0  0  0  0  0  0  0  0  0  0  0
   38.3410   30.2480   41.8310 C   0  0  0  0  0  0  0  0  0  0  0  0
   39.3230   30.8200   41.0950 N   0  0  0  0  0  0  0  0  0  0  0  0
   37.2450   32.6280   39.1780 H   0  0  0  0  0  0  0  0  0  0  0  0
   35.5500   31.5320   40.5750 H   0  0  0  0  0  0  0  0  0  0  0  0
   41.2250   32.3080   37.3340 C   0  0  0  0  0  0  0  0  0  0  0  0
   41.8050   33.5310   37.6980 C   0  0  0  0  0  0  0  0  0  0  0  0
   41.4170   34.1560   38.8930 C   0  0  0  0  0  0  0  0  0  0  0  0
   40.4680   33.5250   39.6650 N   0  0  0  0  0  0  0  0  0  0  0  0
   39.9320   32.3500   39.2840 C   0  0  0  0  0  0  0  0  0  0  0  0
   40.3000   31.7460   38.1390 N   0  0  0  0  0  0  0  0  0  0  0  0
   41.5540   31.8730   36.4140 H   0  0  0  0  0  0  0  0  0  0  0  0
   42.5500   34.0460   37.1110 H   0  0  0  0  0  0  0  0  0  0  0  0
   41.8280   35.1010   39.2280 H   0  0  0  0  0  0  0  0  0  0  0  0
   38.7580   29.2970   42.8940 C   0  0  1  0  0  3  0  0  0  0  0  0
   37.7550   28.1830   43.1190 C   0  0  0  0  0  3  0  0  0  0  0  0
   36.9680   28.5080   43.8260 H   0  0  0  0  0  0  0  0  0  0  0  0
   38.6520   27.0980   43.6800 C   0  0  0  0  0  3  0  0  0  0  0  0
   38.3380   26.9660   44.7490 H   0  0  0  0  0  0  0  0  0  0  0  0
   39.9610   27.5210   43.5600 O   0  0  0  0  0  0  0  0  0  0  0  0
   39.9850   28.4930   42.5420 C   0  0  0  0  0  3  0  0  0  0  0  0
   40.9300   29.0530   42.6960 H   0  0  0  0  0  0  0  0  0  0  0  0
  1  6  1  0  0  0  0
  2  1  2  0  0  0  0
  2  3  1  0  0  0  0
  3  4  2  0  0  0  0
  4  5  1  0  0  0  0
  6  5  2  0  0  0  0
  7  2  1  0  0  0  0
  8  3  1  0  0  0  0
  9 10  2  0  0  0  0
  9 14  1  0  0  0  0
 10 11  1  0  0  0  0
 11 17  1  0  0  0  0
 11 12  2  0  0  0  0
 13 12  1  0  0  0  0
 13  1  1  0  0  0  0
 14 13  2  0  0  0  0
 15  9  1  0  0  0  0
 16 10  1  0  0  0  0
 18  5  1  6  0  0  0
 18 19  1  0  0  0  0
 19 21  1  0  0  0  0
 19 20  1  0  0  0  0
 21 22  1  0  0  0  0
 23 21  1  0  0  0  0
 24 25  1  0  0  0  0
 24 18  1  0  0  0  0
 24 23  1  0  0  0  0
M  END
>  <minimizedAffinity>
-4.56781101

$$$$

 OpenBabel03242521203D

 25 27  0  0  1  0  0  0  0  0999 V2000
   38.5600   29.8080   41.5890 C   0  0  0  0  0  0  0  0  0  0  0  0
   39.6210   29.5800   42.4190 C   0  0  0  0  0  0  0  0  0  0  0  0
   39.8860   28.3670   43.0080 C   0  0  0  0  0  0  0  0  0  0  0  0
   39.0200   27.3630   42.7250 N   0  0  0  0  0  0  0  0  0  0  0  0
   37.9720   27.5830   41.9080 C   0  0  0  0  0  0  0  0  0  0  0  0
   37.6990   28.7730   41.3200 N   0  0  0  0  0  0  0  0  0  0  0  0
   40.3250   30.3780   42.6550 H   0  0  0  0  0  0  0  0  0  0  0  0
   40.7230   28.1760   43.6670 H   0  0  0  0  0  0  0  0  0  0  0  0
   38.9570   33.3640   40.8280 C   0  0  0  0  0  0  0  0  0  0  0  0
   37.9290   33.5780   39.8980 C   0  0  0  0  0  0  0  0  0  0  0  0
   37.0950   32.5130   39.5260 C   0  0  0  0  0  0  0  0  0  0  0  0
   37.3300   31.2860   40.1010 N   0  0  0  0  0  0  0  0  0  0  0  0
   38.3260   31.1150   40.9910 C   0  0  0  0  0  0  0  0  0  0  0  0
   39.1310   32.1320   41.3520 N   0  0  0  0  0  0  0  0  0  0  0  0
   39.5650   34.2070   41.0780 H   0  0  0  0  0  0  0  0  0  0  0  0
   37.7240   34.5300   39.4330 H   0  0  0  0  0  0  0  0  0  0  0  0
   36.2850   32.6170   38.8130 H   0  0  0  0  0  0  0  0  0  0  0  0
   37.0450   26.4580   41.6210 C   0  0  1  0  0  3  0  0  0  0  0  0
   36.9500   26.1310   40.1450 C   0  0  0  0  0  3  0  0  0  0  0  0
   36.1970   26.7750   39.6530 H   0  0  0  0  0  0  0  0  0  0  0  0
   36.5450   24.6710   40.2000 C   0  0  0  0  0  3  0  0  0  0  0  0
   35.4970   24.6310   39.8010 H   0  0  0  0  0  0  0  0  0  0  0  0
   36.6280   24.2540   41.5130 O   0  0  0  0  0  0  0  0  0  0  0  0
   37.5140   25.1320   42.1670 C   0  0  0  0  0  3  0  0  0  0  0  0
   37.3030   25.0080   43.2470 H   0  0  0  0  0  0  0  0  0  0  0  0
  1  2  1  0  0  0  0
  2  7  1  0  0  0  0
  2  3  2  0  0  0  0
  3  8  1  0  0  0  0
  4  3  1  0  0  0  0
  5  4  2  0  0  0  0
  6  1  2  0  0  0  0
  6  5  1  0  0  0  0
  9 15  1  0  0  0  0
  9 14  1  0  0  0  0
 10  9  2  0  0  0  0
 11 10  1  0  0  0  0
 11 12  2  0  0  0  0
 12 13  1  0  0  0  0
 13 14  2  0  0  0  0
 13  1  1  0  0  0  0
 16 10  1  0  0  0  0
 17 11  1  0  0  0  0
 18  5  1  6  0  0  0
 18 24  1  0  0  0  0
 19 21  1  0  0  0  0
 19 18  1  0  0  0  0
 20 19  1  0  0  0  0
 21 23  1  0  0  0  0
 22 21  1  0  0  0  0
 23 24  1  0  0  0  0
 24 25  1  0  0  0  0
M  END
>  <minimizedAffinity>
-4.54024601

$$$$

 OpenBabel03242521203D

 25 27  0  0  1  0  0  0  0  0999 V2000
   38.0320   30.8680   40.8320 C   0  0  0  0  0  0  0  0  0  0  0  0
   37.0620   31.7410   40.4270 C   0  0  0  0  0  0  0  0  0  0  0  0
   37.3190   32.9320   39.7910 C   0  0  0  0  0  0  0  0  0  0  0  0
   38.6250   33.2220   39.5730 N   0  0  0  0  0  0  0  0  0  0  0  0
   39.5860   32.3650   39.9710 C   0  0  0  0  0  0  0  0  0  0  0  0
   39.3470   31.1880   40.5970 N   0  0  0  0  0  0  0  0  0  0  0  0
   36.0080   31.5200   40.5960 H   0  0  0  0  0  0  0  0  0  0  0  0
   36.5580   33.6290   39.4670 H   0  0  0  0  0  0  0  0  0  0  0  0
   37.6760   28.3760   43.4860 C   0  0  0  0  0  0  0  0  0  0  0  0
   37.1020   27.2980   42.7970 C   0  0  0  0  0  0  0  0  0  0  0  0
   36.8340   27.4140   41.4250 C   0  0  0  0  0  0  0  0  0  0  0  0
   37.1520   28.6020   40.8090 N   0  0  0  0  0  0  0  0  0  0  0  0
   37.7020   29.6180   41.5010 C   0  0  0  0  0  0  0  0  0  0  0  0
   37.9620   29.5140   42.8180 N   0  0  0  0  0  0  0  0  0  0  0  0
   37.8600   28.2390   44.5300 H   0  0  0  0  0  0  0  0  0  0  0  0
   36.8430   26.3560   43.2560 H   0  0  0  0  0  0  0  0  0  0  0  0
   36.3920   26.6160   40.8390 H   0  0  0  0  0  0  0  0  0  0  0  0
   41.0050   32.7190   39.7130 C   0  0  1  0  0  3  0  0  0  0  0  0
   41.2270   33.3110   38.3360 C   0  0  0  0  0  3  0  0  0  0  0  0
   41.3710   32.5080   37.5880 H   0  0  0  0  0  0  0  0  0  0  0  0
   42.4750   34.1370   38.5760 C   0  0  0  0  0  3  0  0  0  0  0  0
   43.2880   33.6400   37.9830 H   0  0  0  0  0  0  0  0  0  0  0  0
   42.7330   34.1380   39.9310 O   0  0  0  0  0  0  0  0  0  0  0  0
   41.5180   33.8420   40.5800 C   0  0  0  0  0  3  0  0  0  0  0  0
   41.8040   33.5100   41.5970 H   0  0  0  0  0  0  0  0  0  0  0  0
  1 13  1  0  0  0  0
  2  7  1  0  0  0  0
  2  1  2  0  0  0  0
  3  2  1  0  0  0  0
  4  3  2  0  0  0  0
  4  5  1  0  0  0  0
  5  6  2  0  0  0  0
  6  1  1  0  0  0  0
  8  3  1  0  0  0  0
  9 15  1  0  0  0  0
 10 16  1  0  0  0  0
 10  9  2  0  0  0  0
 11 10  1  0  0  0  0
 12 11  2  0  0  0  0
 12 13  1  0  0  0  0
 13 14  2  0  0  0  0
 14  9  1  0  0  0  0
 17 11  1  0  0  0  0
 18  5  1  1  0  0  0
 18 24  1  0  0  0  0
 19 21  1  0  0  0  0
 19 18  1  0  0  0  0
 20 19  1  0  0  0  0
 21 23  1  0  0  0  0
 22 21  1  0  0  0  0
 23 24  1  0  0  0  0
 24 25  1  0  0  0  0
M  END
>  <minimizedAffinity>
-4.49943781

$$$$

 OpenBabel03242521203D

 25 27  0  0  1  0  0  0  0  0999 V2000
   36.6190   28.1290   39.6040 C   0  0  0  0  0  0  0  0  0  0  0  0
   36.2260   28.1530   38.2960 C   0  0  0  0  0  0  0  0  0  0  0  0
   36.1010   29.3030   37.5540 C   0  0  0  0  0  0  0  0  0  0  0  0
   36.3940   30.4610   38.1940 N   0  0  0  0  0  0  0  0  0  0  0  0
   36.7820   30.4430   39.4840 C   0  0  0  0  0  0  0  0  0  0  0  0
   36.9100   29.3180   40.2270 N   0  0  0  0  0  0  0  0  0  0  0  0
   35.9870   27.2290   37.7690 H   0  0  0  0  0  0  0  0  0  0  0  0
   35.7900   29.3320   36.5180 H   0  0  0  0  0  0  0  0  0  0  0  0
   37.1950   25.8110   42.3750 C   0  0  0  0  0  0  0  0  0  0  0  0
   36.9640   24.5690   41.7670 C   0  0  0  0  0  0  0  0  0  0  0  0
   36.6120   24.5130   40.4100 C   0  0  0  0  0  0  0  0  0  0  0  0
   36.5070   25.7040   39.7280 N   0  0  0  0  0  0  0  0  0  0  0  0
   36.7350   26.8800   40.3430 C   0  0  0  0  0  0  0  0  0  0  0  0
   37.0730   26.9400   41.6450 N   0  0  0  0  0  0  0  0  0  0  0  0
   37.4590   25.8000   43.4110 H   0  0  0  0  0  0  0  0  0  0  0  0
   37.0400   23.6220   42.2790 H   0  0  0  0  0  0  0  0  0  0  0  0
   36.4220   23.5840   39.8850 H   0  0  0  0  0  0  0  0  0  0  0  0
   37.0950   31.7340   40.1510 C   0  0  1  0  0  3  0  0  0  0  0  0
   38.4570   31.7420   40.8140 C   0  0  0  0  0  3  0  0  0  0  0  0
   38.3940   31.3180   41.8350 H   0  0  0  0  0  0  0  0  0  0  0  0
   38.7740   33.2240   40.8000 C   0  0  0  0  0  3  0  0  0  0  0  0
   38.7640   33.5480   41.8740 H   0  0  0  0  0  0  0  0  0  0  0  0
   37.8090   33.8600   40.0460 O   0  0  0  0  0  0  0  0  0  0  0  0
   37.2490   32.8890   39.1930 C   0  0  0  0  0  3  0  0  0  0  0  0
   36.2790   33.3130   38.8660 H   0  0  0  0  0  0  0  0  0  0  0  0
  1  6  1  0  0  0  0
  1 13  1  0  0  0  0
  2  1  2  0  0  0  0
  3  4  2  0  0  0  0
  3  2  1  0  0  0  0
  4  5  1  0  0  0  0
  5  6  2  0  0  0  0
  7  2  1  0  0  0  0
  8  3  1  0  0  0  0
  9 15  1  0  0  0  0
 10 16  1  0  0  0  0
 10  9  1  0  0  0  0
 11 10  2  0  0  0  0
 12 13  2  0  0  0  0
 12 11  1  0  0  0  0
 13 14  1  0  0  0  0
 14  9  2  0  0  0  0
 17 11  1  0  0  0  0
 18  5  1  6  0  0  0
 18 19  1  0  0  0  0
 19 20  1  0  0  0  0
 21 19  1  0  0  0  0
 21 22  1  0  0  0  0
 23 21  1  0  0  0  0
 24 23  1  0  0  0  0
 24 18  1  0  0  0  0
 25 24  1  0  0  0  0
M  END
>  <minimizedAffinity>
-4.45725393

$$$$

 OpenBabel03242521203D

 25 27  0  0  1  0  0  0  0  0999 V2000
   37.3620   27.0090   41.6360 C   0  0  0  0  0  0  0  0  0  0  0  0
   37.2650   27.1770   42.9890 C   0  0  0  0  0  0  0  0  0  0  0  0
   37.4200   28.3850   43.6240 C   0  0  0  0  0  0  0  0  0  0  0  0
   37.6860   29.4490   42.8260 N   0  0  0  0  0  0  0  0  0  0  0  0
   37.7830   29.2880   41.4920 C   0  0  0  0  0  0  0  0  0  0  0  0
   37.6320   28.1040   40.8530 N   0  0  0  0  0  0  0  0  0  0  0  0
   37.0520   26.3300   43.6410 H   0  0  0  0  0  0  0  0  0  0  0  0
   37.3450   28.5290   44.6930 H   0  0  0  0  0  0  0  0  0  0  0  0
   36.2950   24.4470   39.2520 C   0  0  0  0  0  0  0  0  0  0  0  0
   36.8340   23.2830   39.8170 C   0  0  0  0  0  0  0  0  0  0  0  0
   37.5640   23.3630   41.0130 C   0  0  0  0  0  0  0  0  0  0  0  0
   37.7190   24.6040   41.5850 N   0  0  0  0  0  0  0  0  0  0  0  0
   37.1870   25.7030   41.0150 C   0  0  0  0  0  0  0  0  0  0  0  0
   36.4870   25.6330   39.8680 N   0  0  0  0  0  0  0  0  0  0  0  0
   35.7480   24.3330   38.3410 H   0  0  0  0  0  0  0  0  0  0  0  0
   36.7280   22.2980   39.3890 H   0  0  0  0  0  0  0  0  0  0  0  0
   38.0050   22.4980   41.4960 H   0  0  0  0  0  0  0  0  0  0  0  0
   38.0750   30.4790   40.6520 C   0  0  1  0  0  3  0  0  0  0  0  0
   36.8640   31.3670   40.4440 C   0  0  0  0  0  3  0  0  0  0  0  0
   36.2620   31.0060   39.5880 H   0  0  0  0  0  0  0  0  0  0  0  0
   37.5310   32.7030   40.1850 C   0  0  0  0  0  3  0  0  0  0  0  0
   37.3150   32.9490   39.1110 H   0  0  0  0  0  0  0  0  0  0  0  0
   38.8810   32.5640   40.4360 O   0  0  0  0  0  0  0  0  0  0  0  0
   39.0250   31.4570   41.2950 C   0  0  0  0  0  3  0  0  0  0  0  0
   40.0870   31.1540   41.2040 H   0  0  0  0  0  0  0  0  0  0  0  0
  1  2  1  0  0  0  0
  2  3  2  0  0  0  0
  2  7  1  0  0  0  0
  3  8  1  0  0  0  0
  4  3  1  0  0  0  0
  5  4  2  0  0  0  0
  6  5  1  0  0  0  0
  6  1  2  0  0  0  0
  9 10  2  0  0  0  0
  9 14  1  0  0  0  0
 10 11  1  0  0  0  0
 11 17  1  0  0  0  0
 11 12  2  0  0  0  0
 13 12  1  0  0  0  0
 13  1  1  0  0  0  0
 14 13  2  0  0  0  0
 15  9  1  0  0  0  0
 16 10  1  0  0  0  0
 18 24  1  0  0  0  0
 18  5  1  1  0  0  0
 19 18  1  0  0  0  0
 20 19  1  0  0  0  0
 21 23  1  0  0  0  0
 21 19  1  0  0  0  0
 22 21  1  0  0  0  0
 23 24  1  0  0  0  0
 25 24  1  0  0  0  0
M  END
>  <minimizedAffinity>
-4.44217253

$$$$
