
 OpenBabel03242520273D

 37 39  0  0  1  0  0  0  0  0999 V2000
   44.9470   35.5020   43.0610 C   0  0  0  0  0  0  0  0  0  0  0  0
   45.9890   34.5330   43.1140 C   0  0  0  0  0  0  0  0  0  0  0  0
   46.3130   33.9860   44.3390 C   0  0  0  0  0  0  0  0  0  0  0  0
   45.6170   34.4010   45.4430 N   0  0  0  0  0  0  0  0  0  0  0  0
   44.6350   35.3170   45.3750 C   0  0  0  0  0  0  0  0  0  0  0  0
   44.3050   35.8600   44.1970 N   0  0  0  0  0  0  0  0  0  0  0  0
   44.6740   35.9440   42.1170 H   0  0  0  0  0  0  0  0  0  0  0  0
   44.2060   35.5130   46.3480 H   0  0  0  0  0  0  0  0  0  0  0  0
   46.6050   34.2200   41.8780 N   0  0  0  0  0  0  0  0  0  0  0  0
   47.7380   34.9750   41.3480 C   0  0  0  0  0  0  0  0  0  0  0  0
   48.2330   34.3010   40.0950 C   0  0  0  0  0  0  0  0  0  0  0  0
   47.1970   34.0760   39.1360 N   0  0  0  0  0  0  0  0  0  0  0  0
   46.0310   33.4310   39.6470 C   0  0  0  0  0  0  0  0  0  0  0  0
   46.0820   33.1030   41.1130 C   0  0  0  0  0  0  0  0  0  0  0  0
   47.3370   35.9850   41.1270 H   0  0  0  0  0  0  0  0  0  0  0  0
   48.5290   35.0050   42.1020 H   0  0  0  0  0  0  0  0  0  0  0  0
   49.0290   34.8660   39.6130 H   0  0  0  0  0  0  0  0  0  0  0  0
   48.6260   33.3000   40.3920 H   0  0  0  0  0  0  0  0  0  0  0  0
   46.9650   34.9960   38.6980 H   0  0  0  0  0  0  0  0  0  0  0  0
   45.1310   34.0420   39.4260 H   0  0  0  0  0  0  0  0  0  0  0  0
   45.9020   32.4700   39.0750 H   0  0  0  0  0  0  0  0  0  0  0  0
   45.0920   32.7940   41.4460 H   0  0  0  0  0  0  0  0  0  0  0  0
   46.7580   32.2080   41.2360 H   0  0  0  0  0  0  0  0  0  0  0  0
   47.3330   33.0440   44.3650 O   0  0  0  0  0  0  0  0  0  0  0  0
   45.6250   31.1160   44.9650 O   0  0  0  0  0  0  0  0  0  0  0  0
   47.0620   31.5610   45.1940 P   0  0  1  0  0  0  0  0  0  0  0  0
   48.1480   30.4370   44.5930 O   0  0  0  0  0  0  0  0  0  0  0  0
   47.7210   29.9650   43.8170 H   0  0  0  0  0  0  0  0  0  0  0  0
   47.2970   31.8510   46.8500 O   0  0  0  0  0  0  0  0  0  0  0  0
   46.1610   31.5140   47.5480 C   0  0  1  0  0  3  0  0  0  0  0  0
   46.2550   30.1000   48.1380 C   0  0  0  0  0  3  0  0  0  0  0  0
   46.0890   29.3140   47.3830 H   0  0  0  0  0  0  0  0  0  0  0  0
   45.0630   30.2150   49.0970 C   0  0  0  0  0  3  0  0  0  0  0  0
   44.1520   30.1550   48.4350 H   0  0  0  0  0  0  0  0  0  0  0  0
   45.1010   31.5060   49.5910 O   0  0  0  0  0  0  0  0  0  0  0  0
   45.9390   32.2740   48.8200 C   0  0  0  0  0  3  0  0  0  0  0  0
   45.6040   33.3060   48.6730 H   0  0  0  0  0  0  0  0  0  0  0  0
  1  2  2  0  0  0  0
  1  6  1  0  0  0  0
  2  3  1  0  0  0  0
  3 24  1  0  0  0  0
  3  4  2  0  0  0  0
  5  4  1  0  0  0  0
  5  8  1  0  0  0  0
  6  5  2  0  0  0  0
  7  1  1  0  0  0  0
  9  2  1  0  0  0  0
 10  9  1  0  0  0  0
 10 16  1  0  0  0  0
 11 18  1  0  0  0  0
 11 10  1  0  0  0  0
 12 13  1  0  0  0  0
 12 11  1  0  0  0  0
 13 14  1  0  0  0  0
 14 23  1  0  0  0  0
 14 22  1  0  0  0  0
 14  9  1  0  0  0  0
 15 10  1  0  0  0  0
 17 11  1  0  0  0  0
 19 12  1  0  0  0  0
 20 13  1  0  0  0  0
 21 13  1  0  0  0  0
 24 26  1  0  0  0  0
 26 25  2  6  0  0  0
 26 29  1  0  0  0  0
 27 26  1  0  0  0  0
 28 27  1  0  0  0  0
 30 29  1  1  0  0  0
 30 31  1  0  0  0  0
 30 36  1  0  0  0  0
 31 33  1  0  0  0  0
 32 31  1  0  0  0  0
 33 35  1  0  0  0  0
 34 33  1  0  0  0  0
 36 35  1  0  0  0  0
 37 36  1  0  0  0  0
M  END
>  <minimizedAffinity>
-5.13275146

>  <minimizedRMSD>
1.04360008

$$$$
