
 OpenBabel03252507113D

 23 24  0  0  1  0  0  0  0  0999 V2000
   45.4080   33.2640   43.8680 C   0  0  0  0  0  0  0  0  0  0  0  0
   45.7400   31.9020   44.0730 C   0  0  0  0  0  0  0  0  0  0  0  0
   46.0440   31.4130   45.3850 C   0  0  0  0  0  0  0  0  0  0  0  0
   46.0070   32.3040   46.4010 N   0  0  0  0  0  0  0  0  0  0  0  0
   45.6970   33.5840   46.1690 C   0  0  0  0  0  0  0  0  0  0  0  0
   45.4030   34.0590   44.9420 N   0  0  0  0  0  0  0  0  0  0  0  0
   46.2500   30.3640   45.2560 H   0  0  0  0  0  0  0  0  0  0  0  0
   45.7450   34.0810   47.1570 H   0  0  0  0  0  0  0  0  0  0  0  0
   44.9840   34.2060   42.8000 C   0  0  2  0  0  3  0  0  0  0  0  0
   45.3330   33.7990   41.4210 C   0  0  0  0  0  3  0  0  0  0  0  0
   44.6400   34.2650   40.6960 H   0  0  0  0  0  0  0  0  0  0  0  0
   46.7310   34.3980   41.2140 C   0  0  0  0  0  3  0  0  0  0  0  0
   46.7440   35.0960   40.3410 H   0  0  0  0  0  0  0  0  0  0  0  0
   47.0130   35.1340   42.3640 O   0  0  0  0  0  0  0  0  0  0  0  0
   45.7880   35.5470   42.8660 C   0  0  0  0  0  3  0  0  0  0  0  0
   45.3150   36.2350   42.1710 H   0  0  0  0  0  0  0  0  0  0  0  0
   45.7400   31.1570   42.8870 O   0  0  0  0  0  0  0  0  0  0  0  0
   47.1670   28.9860   42.3700 O   0  0  0  0  0  0  0  0  0  0  0  0
   47.1940   30.4800   42.2750 P   0  0  0  0  0  0  0  0  0  0  0  0
   47.3940   30.8910   40.6610 O   0  0  0  0  0  0  0  0  0  0  0  0
   48.3170   31.0940   40.3910 H   0  0  0  0  0  0  0  0  0  0  0  0
   48.5620   31.0760   43.0570 O   0  0  0  0  0  0  0  0  0  0  0  0
   48.6130   30.6020   43.9330 H   0  0  0  0  0  0  0  0  0  0  0  0
  1  2  2  0  0  0  0
  1  6  1  0  0  0  0
  2  3  1  0  0  0  0
  3  4  2  0  0  0  0
  5  4  1  0  0  0  0
  5  8  1  0  0  0  0
  6  5  2  0  0  0  0
  7  3  1  0  0  0  0
  9 15  1  0  0  0  0
  9  1  1  1  0  0  0
 10  9  1  0  0  0  0
 11 10  1  0  0  0  0
 12 10  1  0  0  0  0
 12 14  1  0  0  0  0
 13 12  1  0  0  0  0
 14 15  1  0  0  0  0
 16 15  1  0  0  0  0
 17  2  1  0  0  0  0
 19 18  2  0  0  0  0
 19 17  1  0  0  0  0
 19 22  1  0  0  0  0
 20 19  1  0  0  0  0
 21 20  1  0  0  0  0
 22 23  1  0  0  0  0
M  END
>  <minimizedAffinity>
-3.09677267

>  <minimizedRMSD>
3.23142004

$$$$
