
 OpenBabel03252501453D

 22 23  0  0  1  0  0  0  0  0999 V2000
   44.5900   35.3380   44.4350 C   0  0  0  0  0  0  0  0  0  0  0  0
   44.5780   34.6600   43.2190 C   0  0  0  0  0  0  0  0  0  0  0  0
   45.1450   33.4000   43.1670 C   0  0  0  0  0  0  0  0  0  0  0  0
   45.6980   32.8630   44.3040 N   0  0  0  0  0  0  0  0  0  0  0  0
   45.6900   33.5540   45.4700 C   0  0  0  0  0  0  0  0  0  0  0  0
   45.1390   34.7790   45.5250 N   0  0  0  0  0  0  0  0  0  0  0  0
   44.1450   36.3230   44.4720 H   0  0  0  0  0  0  0  0  0  0  0  0
   45.1540   32.8490   42.2480 H   0  0  0  0  0  0  0  0  0  0  0  0
   46.2670   33.0230   46.7110 C   0  0  2  0  0  3  0  0  0  0  0  0
   46.9360   31.6980   46.3650 C   0  0  0  0  0  3  0  0  0  0  0  0
   46.7230   31.3650   45.3410 H   0  0  0  0  0  0  0  0  0  0  0  0
   46.3030   30.7640   47.3720 C   0  0  0  0  0  3  0  0  0  0  0  0
   47.1400   30.1360   47.7710 H   0  0  0  0  0  0  0  0  0  0  0  0
   45.7600   31.5650   48.3860 O   0  0  0  0  0  0  0  0  0  0  0  0
   45.2500   32.7010   47.7690 C   0  0  0  0  0  3  0  0  0  0  0  0
   45.1590   33.4820   48.5570 H   0  0  0  0  0  0  0  0  0  0  0  0
   43.9930   35.2340   42.0240 C   0  0  0  0  0  3  0  0  0  0  0  0
   43.2210   34.6200   41.1530 C   0  0  0  0  0  3  0  0  0  0  0  0
   42.6620   35.3020   39.9420 C   0  0  0  0  0  0  0  0  0  0  0  0
   42.4910   34.4780   39.1970 H   0  0  0  0  0  0  0  0  0  0  0  0
   41.7430   35.8590   40.1620 H   0  0  0  0  0  0  0  0  0  0  0  0
   43.4480   35.9550   39.4730 H   0  0  0  0  0  0  0  0  0  0  0  0
  1  7  1  0  0  0  0
  1  6  1  0  0  0  0
  2  1  2  0  0  0  0
  3  2  1  0  0  0  0
  3  4  2  0  0  0  0
  4  5  1  0  0  0  0
  5  6  2  0  0  0  0
  8  3  1  0  0  0  0
  9  5  1  6  0  0  0
  9 15  1  0  0  0  0
 10  9  1  0  0  0  0
 10 12  1  0  0  0  0
 11 10  1  0  0  0  0
 12 13  1  0  0  0  0
 12 14  1  0  0  0  0
 15 14  1  0  0  0  0
 15 16  1  0  0  0  0
 17  2  1  0  0  0  0
 18 17  2  0  0  0  0
 19 21  1  0  0  0  0
 19 18  1  0  0  0  0
 20 19  1  0  0  0  0
 22 19  1  0  0  0  0
M  END
>  <minimizedAffinity>
-4.06291771

>  <minimizedRMSD>
1.10249007

$$$$
