
 OpenBabel03252501463D

 22 23  0  0  1  0  0  0  0  0999 V2000
   44.4630   35.5980   44.0360 C   0  0  0  0  0  0  0  0  0  0  0  0
   44.3400   34.8390   42.8760 C   0  0  0  0  0  0  0  0  0  0  0  0
   44.8370   33.5480   42.8830 C   0  0  0  0  0  0  0  0  0  0  0  0
   45.4310   33.0620   44.0220 N   0  0  0  0  0  0  0  0  0  0  0  0
   45.5320   33.8320   45.1330 C   0  0  0  0  0  0  0  0  0  0  0  0
   45.0490   35.0870   45.1300 N   0  0  0  0  0  0  0  0  0  0  0  0
   44.0720   36.6060   44.0260 H   0  0  0  0  0  0  0  0  0  0  0  0
   44.7610   32.9340   42.0080 H   0  0  0  0  0  0  0  0  0  0  0  0
   46.1570   33.3580   46.3730 C   0  0  2  0  0  3  0  0  0  0  0  0
   46.8500   32.0390   46.0520 C   0  0  0  0  0  3  0  0  0  0  0  0
   46.6160   31.6670   45.0470 H   0  0  0  0  0  0  0  0  0  0  0  0
   46.2690   31.1230   47.1070 C   0  0  0  0  0  3  0  0  0  0  0  0
   47.1330   30.5300   47.5020 H   0  0  0  0  0  0  0  0  0  0  0  0
   45.7340   31.9450   48.1090 O   0  0  0  0  0  0  0  0  0  0  0  0
   45.1780   33.0480   47.4710 C   0  0  0  0  0  3  0  0  0  0  0  0
   45.0900   33.8510   48.2340 H   0  0  0  0  0  0  0  0  0  0  0  0
   43.7120   35.3590   41.6780 C   0  0  0  0  0  3  0  0  0  0  0  0
   43.0010   34.6800   40.8030 C   0  0  0  0  0  3  0  0  0  0  0  0
   42.3900   35.3100   39.5900 C   0  0  0  0  0  0  0  0  0  0  0  0
   42.2950   34.4750   38.8450 H   0  0  0  0  0  0  0  0  0  0  0  0
   41.4240   35.7840   39.8060 H   0  0  0  0  0  0  0  0  0  0  0  0
   43.1170   36.0300   39.1240 H   0  0  0  0  0  0  0  0  0  0  0  0
  1  6  1  0  0  0  0
  2  3  1  0  0  0  0
  2  1  2  0  0  0  0
  3  4  2  0  0  0  0
  4  5  1  0  0  0  0
  6  5  2  0  0  0  0
  7  1  1  0  0  0  0
  8  3  1  0  0  0  0
  9  5  1  6  0  0  0
  9 15  1  0  0  0  0
 10  9  1  0  0  0  0
 10 12  1  0  0  0  0
 11 10  1  0  0  0  0
 12 13  1  0  0  0  0
 12 14  1  0  0  0  0
 15 14  1  0  0  0  0
 15 16  1  0  0  0  0
 17  2  1  0  0  0  0
 18 17  2  0  0  0  0
 19 21  1  0  0  0  0
 19 18  1  0  0  0  0
 20 19  1  0  0  0  0
 22 19  1  0  0  0  0
M  END
>  <minimizedAffinity>
-4.11703205

>  <minimizedRMSD>
0.659237444

$$$$
