
 OpenBabel03242519443D

 30 32  0  0  1  0  0  0  0  0999 V2000
   45.8210   34.1540   43.4570 C   0  0  0  0  0  0  0  0  0  0  0  0
   47.0070   34.3090   42.7100 C   0  0  0  0  0  0  0  0  0  0  0  0
   48.1210   33.4830   43.0170 C   0  0  0  0  0  0  0  0  0  0  0  0
   47.9960   32.5750   44.0210 N   0  0  0  0  0  0  0  0  0  0  0  0
   46.8330   32.4500   44.7240 C   0  0  0  0  0  0  0  0  0  0  0  0
   45.7580   33.2250   44.4490 N   0  0  0  0  0  0  0  0  0  0  0  0
   47.1110   35.0250   41.9180 H   0  0  0  0  0  0  0  0  0  0  0  0
   49.0510   33.5510   42.4870 H   0  0  0  0  0  0  0  0  0  0  0  0
   46.7210   32.1400   47.1940 C   0  0  2  0  0  0  0  0  0  0  0  0
   46.6730   31.5030   45.8300 C   0  0  1  0  0  0  0  0  0  0  0  0
   45.3730   30.8990   45.8030 O   0  0  0  0  0  0  0  0  0  0  0  0
   45.5220   30.1270   46.9890 C   0  0  0  0  0  0  0  0  0  0  0  0
   45.7690   31.2400   47.9910 C   0  0  2  0  0  0  0  0  0  0  0  0
   47.7220   32.1820   47.6260 H   0  0  0  0  0  0  0  0  0  0  0  0
   47.4290   30.6920   45.7650 H   0  0  0  0  0  0  0  0  0  0  0  0
   44.5760   29.6310   47.1990 H   0  0  0  0  0  0  0  0  0  0  0  0
   46.3960   29.4500   46.9100 H   0  0  0  0  0  0  0  0  0  0  0  0
   46.2340   30.8810   48.9140 H   0  0  0  0  0  0  0  0  0  0  0  0
   46.2010   33.4610   47.1410 O   0  0  0  0  0  0  0  0  0  0  0  0
   45.2010   33.3900   47.0910 H   0  0  0  0  0  0  0  0  0  0  0  0
   44.5610   31.9050   48.1850 O   0  0  0  0  0  0  0  0  0  0  0  0
   44.1610   31.5910   49.0210 H   0  0  0  0  0  0  0  0  0  0  0  0
   44.6600   35.0020   43.1500 C   0  0  2  0  0  0  0  0  0  0  0  0
   44.9570   36.2160   42.3450 C   0  0  0  0  0  0  0  0  0  0  0  0
   44.0630   36.4110   41.6860 H   0  0  0  0  0  0  0  0  0  0  0  0
   45.0230   37.3270   43.3410 C   0  0  0  0  0  0  0  0  0  0  0  0
   44.1640   38.0380   43.2550 H   0  0  0  0  0  0  0  0  0  0  0  0
   44.9140   36.7520   44.6040 O   0  0  0  0  0  0  0  0  0  0  0  0
   44.1390   35.6030   44.4430 C   0  0  0  0  0  0  0  0  0  0  0  0
   43.0620   35.8070   44.4160 H   0  0  0  0  0  0  0  0  0  0  0  0
  1  6  1  0  0  0  0
  2  3  1  0  0  0  0
  2  1  2  0  0  0  0
  3  4  2  0  0  0  0
  4  5  1  0  0  0  0
  5 10  1  0  0  0  0
  6  5  2  0  0  0  0
  7  2  1  0  0  0  0
  8  3  1  0  0  0  0
  9 14  1  1  0  0  0
  9 13  1  0  0  0  0
 10 15  1  6  0  0  0
 10  9  1  0  0  0  0
 11 10  1  0  0  0  0
 11 12  1  0  0  0  0
 12 16  1  0  0  0  0
 12 13  1  0  0  0  0
 13 21  1  0  0  0  0
 13 18  1  1  0  0  0
 17 12  1  0  0  0  0
 19  9  1  0  0  0  0
 20 19  1  0  0  0  0
 21 22  1  0  0  0  0
 23  1  1  1  0  0  0
 23 29  1  0  0  0  0
 24 23  1  0  0  0  0
 24 26  1  0  0  0  0
 25 24  1  0  0  0  0
 26 28  1  0  0  0  0
 27 26  1  0  0  0  0
 29 28  1  0  0  0  0
 30 29  1  0  0  0  0
M  END
>  <minimizedAffinity>
-4.45212603

>  <minimizedRMSD>
2.21939516

$$$$
