
 OpenBabel03252501463D

 22 23  0  0  1  0  0  0  0  0999 V2000
   44.4610   35.5980   44.0410 C   0  0  0  0  0  0  0  0  0  0  0  0
   44.3400   34.8400   42.8800 C   0  0  0  0  0  0  0  0  0  0  0  0
   44.8390   33.5500   42.8850 C   0  0  0  0  0  0  0  0  0  0  0  0
   45.4330   33.0640   44.0250 N   0  0  0  0  0  0  0  0  0  0  0  0
   45.5320   33.8330   45.1360 C   0  0  0  0  0  0  0  0  0  0  0  0
   45.0480   35.0870   45.1350 N   0  0  0  0  0  0  0  0  0  0  0  0
   44.0690   36.6060   44.0320 H   0  0  0  0  0  0  0  0  0  0  0  0
   44.7640   32.9380   42.0100 H   0  0  0  0  0  0  0  0  0  0  0  0
   46.1580   33.3580   46.3760 C   0  0  2  0  0  3  0  0  0  0  0  0
   46.8500   32.0380   46.0540 C   0  0  0  0  0  3  0  0  0  0  0  0
   46.6150   31.6660   45.0500 H   0  0  0  0  0  0  0  0  0  0  0  0
   46.2700   31.1220   47.1100 C   0  0  0  0  0  3  0  0  0  0  0  0
   47.1320   30.5290   47.5040 H   0  0  0  0  0  0  0  0  0  0  0  0
   45.7340   31.9440   48.1110 O   0  0  0  0  0  0  0  0  0  0  0  0
   45.1790   33.0470   47.4730 C   0  0  0  0  0  3  0  0  0  0  0  0
   45.0910   33.8500   48.2370 H   0  0  0  0  0  0  0  0  0  0  0  0
   43.7120   35.3620   41.6820 C   0  0  0  0  0  3  0  0  0  0  0  0
   43.0030   34.6820   40.8060 C   0  0  0  0  0  3  0  0  0  0  0  0
   42.3910   35.3130   39.5940 C   0  0  0  0  0  0  0  0  0  0  0  0
   42.2980   34.4780   38.8470 H   0  0  0  0  0  0  0  0  0  0  0  0
   41.4250   35.7850   39.8100 H   0  0  0  0  0  0  0  0  0  0  0  0
   43.1180   36.0350   39.1290 H   0  0  0  0  0  0  0  0  0  0  0  0
  1  6  1  0  0  0  0
  2  3  1  0  0  0  0
  2  1  2  0  0  0  0
  3  4  2  0  0  0  0
  4  5  1  0  0  0  0
  6  5  2  0  0  0  0
  7  1  1  0  0  0  0
  8  3  1  0  0  0  0
  9  5  1  6  0  0  0
  9 15  1  0  0  0  0
 10  9  1  0  0  0  0
 10 12  1  0  0  0  0
 11 10  1  0  0  0  0
 12 13  1  0  0  0  0
 12 14  1  0  0  0  0
 15 14  1  0  0  0  0
 15 16  1  0  0  0  0
 17  2  1  0  0  0  0
 18 17  2  0  0  0  0
 19 21  1  0  0  0  0
 19 18  1  0  0  0  0
 20 19  1  0  0  0  0
 22 19  1  0  0  0  0
M  END
>  <minimizedAffinity>
-4.12212038

>  <minimizedRMSD>
0.787728667

$$$$
