
 OpenBabel03252500153D

 37 40  0  0  1  0  0  0  0  0999 V2000
   45.5340   32.3520   40.5130 Cl  0  0  0  0  0  0  0  0  0  0  0  0
   46.8190   33.4700   40.1720 C   0  0  0  0  0  0  0  0  0  0  0  0
   47.3920   34.2160   41.1670 C   0  0  0  0  0  0  0  0  0  0  0  0
   48.4220   35.1190   40.9230 C   0  0  0  0  0  0  0  0  0  0  0  0
   48.8350   35.2210   39.6170 C   0  0  0  0  0  0  0  0  0  0  0  0
   48.2650   34.4730   38.6020 C   0  0  0  0  0  0  0  0  0  0  0  0
   47.2690   33.6080   38.8720 C   0  0  0  0  0  0  0  0  0  0  0  0
   48.8710   35.7030   41.6990 H   0  0  0  0  0  0  0  0  0  0  0  0
   49.6320   35.9160   39.4180 H   0  0  0  0  0  0  0  0  0  0  0  0
   48.6060   34.5680   37.5830 H   0  0  0  0  0  0  0  0  0  0  0  0
   46.8950   32.9030   44.5780 C   0  0  0  0  0  0  0  0  0  0  0  0
   45.9530   33.8100   45.1260 C   0  0  0  0  0  0  0  0  0  0  0  0
   45.5090   34.8520   44.3110 C   0  0  0  0  0  0  0  0  0  0  0  0
   46.0060   34.9370   43.0410 N   0  0  0  0  0  0  0  0  0  0  0  0
   46.9020   34.0590   42.5480 C   0  0  0  0  0  0  0  0  0  0  0  0
   47.3320   33.0610   43.3170 N   0  0  0  0  0  0  0  0  0  0  0  0
   47.2190   32.1040   45.2380 H   0  0  0  0  0  0  0  0  0  0  0  0
   45.5440   33.7710   46.1160 H   0  0  0  0  0  0  0  0  0  0  0  0
   44.5180   35.8720   44.7740 C   0  0  0  0  0  0  0  0  0  0  0  0
   44.9760   37.1310   44.5520 F   0  0  0  0  0  0  0  0  0  0  0  0
   43.3420   35.6830   44.0740 F   0  0  0  0  0  0  0  0  0  0  0  0
   44.3050   35.6370   46.1080 F   0  0  0  0  0  0  0  0  0  0  0  0
   46.6510   32.8070   37.8180 C   0  0  0  0  0  0  0  0  0  0  0  0
   45.5990   33.2610   37.0100 C   0  0  0  0  0  0  0  0  0  0  0  0
   45.2660   32.2480   36.1260 C   0  0  0  0  0  0  0  0  0  0  0  0
   46.1470   31.2280   36.4550 C   0  0  0  0  0  0  0  0  0  0  0  0
   46.9450   31.5740   37.4440 O   0  0  0  0  0  0  0  0  0  0  0  0
   45.1320   34.2370   37.0720 H   0  0  0  0  0  0  0  0  0  0  0  0
   44.5220   32.2290   35.3700 H   0  0  0  0  0  0  0  0  0  0  0  0
   46.2220   29.9080   35.8140 C   0  0  1  0  0  3  0  0  0  0  0  0
   47.3270   29.0210   36.4040 C   0  0  0  0  0  3  0  0  0  0  0  0
   47.2340   28.9570   37.4960 H   0  0  0  0  0  0  0  0  0  0  0  0
   46.8410   27.6880   35.8220 C   0  0  0  0  0  3  0  0  0  0  0  0
   47.3200   26.8220   36.3030 H   0  0  0  0  0  0  0  0  0  0  0  0
   45.4640   27.7160   35.9190 O   0  0  0  0  0  0  0  0  0  0  0  0
   45.0390   29.0200   36.0640 C   0  0  0  0  0  3  0  0  0  0  0  0
   44.7360   29.1440   37.1240 H   0  0  0  0  0  0  0  0  0  0  0  0
  2  1  1  0  0  0  0
  2  3  1  0  0  0  0
  3 15  1  0  0  0  0
  4  3  2  0  0  0  0
  4  8  1  0  0  0  0
  5  4  1  0  0  0  0
  6  7  1  0  0  0  0
  6  5  2  0  0  0  0
  7  2  2  0  0  0  0
  9  5  1  0  0  0  0
 10  6  1  0  0  0  0
 11 12  1  0  0  0  0
 11 17  1  0  0  0  0
 12 18  1  0  0  0  0
 13 19  1  0  0  0  0
 13 12  2  0  0  0  0
 14 13  1  0  0  0  0
 15 14  2  0  0  0  0
 15 16  1  0  0  0  0
 16 11  2  0  0  0  0
 19 22  1  0  0  0  0
 20 19  1  0  0  0  0
 21 19  1  0  0  0  0
 23  7  1  0  0  0  0
 24 28  1  0  0  0  0
 24 23  2  0  0  0  0
 25 26  2  0  0  0  0
 25 24  1  0  0  0  0
 26 27  1  0  0  0  0
 27 23  1  0  0  0  0
 29 25  1  0  0  0  0
 30 36  1  0  0  0  0
 30 31  1  0  0  0  0
 30 26  1  1  0  0  0
 31 32  1  0  0  0  0
 33 35  1  0  0  0  0
 33 34  1  0  0  0  0
 33 31  1  0  0  0  0
 35 36  1  0  0  0  0
 36 37  1  0  0  0  0
M  END
>  <minimizedAffinity>
-5.55268621

>  <minimizedRMSD>
0.170847625

$$$$
