
 OpenBabel03252502173D

 23 24  0  0  1  0  0  0  0  0999 V2000
   46.0840   34.4760   41.4360 C   0  0  0  0  0  0  0  0  0  0  0  0
   44.7770   34.4240   40.9030 C   0  0  0  0  0  0  0  0  0  0  0  0
   43.7470   35.0980   41.5990 C   0  0  0  0  0  0  0  0  0  0  0  0
   44.0560   35.7580   42.7380 N   0  0  0  0  0  0  0  0  0  0  0  0
   45.3310   35.7760   43.2080 C   0  0  0  0  0  0  0  0  0  0  0  0
   46.3410   35.1500   42.5790 N   0  0  0  0  0  0  0  0  0  0  0  0
   46.8730   33.9680   40.9170 H   0  0  0  0  0  0  0  0  0  0  0  0
   45.4950   36.3180   44.1140 H   0  0  0  0  0  0  0  0  0  0  0  0
   42.3830   35.0250   41.0110 C   0  0  2  0  0  3  0  0  0  0  0  0
   41.7720   33.6480   41.1870 C   0  0  0  0  0  3  0  0  0  0  0  0
   41.2730   33.5100   42.1550 H   0  0  0  0  0  0  0  0  0  0  0  0
   40.8140   33.6290   40.0130 C   0  0  0  0  0  3  0  0  0  0  0  0
   39.9410   34.2360   40.3080 H   0  0  0  0  0  0  0  0  0  0  0  0
   41.5800   34.1620   38.9990 O   0  0  0  0  0  0  0  0  0  0  0  0
   42.3880   35.1380   39.5180 C   0  0  0  0  0  3  0  0  0  0  0  0
   41.9380   36.1310   39.2490 H   0  0  0  0  0  0  0  0  0  0  0  0
   44.6050   33.7160   39.7370 O   0  0  0  0  0  0  0  0  0  0  0  0
   43.8710   31.3830   38.7260 O   0  0  0  0  0  0  0  0  0  0  0  0
   44.8190   32.0120   39.6840 P   0  0  0  0  0  0  0  0  0  0  0  0
   46.3920   31.6360   39.1790 O   0  0  0  0  0  0  0  0  0  0  0  0
   46.4490   31.9260   38.2210 H   0  0  0  0  0  0  0  0  0  0  0  0
   44.5720   31.3470   41.2140 O   0  0  0  0  0  0  0  0  0  0  0  0
   44.8240   31.9520   41.9450 H   0  0  0  0  0  0  0  0  0  0  0  0
  1  6  1  0  0  0  0
  2  1  2  0  0  0  0
  2  3  1  0  0  0  0
  3  4  2  0  0  0  0
  4  5  1  0  0  0  0
  5  8  1  0  0  0  0
  6  5  2  0  0  0  0
  7  1  1  0  0  0  0
  9 10  1  0  0  0  0
  9  3  1  6  0  0  0
 10 11  1  0  0  0  0
 12 13  1  0  0  0  0
 12 10  1  0  0  0  0
 14 15  1  0  0  0  0
 14 12  1  0  0  0  0
 15  9  1  0  0  0  0
 16 15  1  0  0  0  0
 17  2  1  0  0  0  0
 18 19  2  0  0  0  0
 19 17  1  0  0  0  0
 19 22  1  0  0  0  0
 20 19  1  0  0  0  0
 21 20  1  0  0  0  0
 22 23  1  0  0  0  0
M  END
>  <minimizedAffinity>
-3.32660079

>  <minimizedRMSD>
5.95213366

$$$$
