
 OpenBabel03252501463D

 22 23  0  0  1  0  0  0  0  0999 V2000
   44.7220   35.1170   44.6770 C   0  0  0  0  0  0  0  0  0  0  0  0
   44.7880   34.4990   43.4310 C   0  0  0  0  0  0  0  0  0  0  0  0
   45.4170   33.2700   43.3430 C   0  0  0  0  0  0  0  0  0  0  0  0
   45.9510   32.7050   44.4770 N   0  0  0  0  0  0  0  0  0  0  0  0
   45.8650   33.3380   45.6720 C   0  0  0  0  0  0  0  0  0  0  0  0
   45.2550   34.5320   45.7610 N   0  0  0  0  0  0  0  0  0  0  0  0
   44.2290   36.0780   44.7400 H   0  0  0  0  0  0  0  0  0  0  0  0
   45.4880   32.7640   42.4020 H   0  0  0  0  0  0  0  0  0  0  0  0
   46.4190   32.7750   46.9090 C   0  0  2  0  0  3  0  0  0  0  0  0
   47.0240   31.4220   46.5560 C   0  0  0  0  0  3  0  0  0  0  0  0
   46.7940   31.1040   45.5330 H   0  0  0  0  0  0  0  0  0  0  0  0
   46.3500   30.5130   47.5600 C   0  0  0  0  0  3  0  0  0  0  0  0
   47.1570   29.8460   47.9550 H   0  0  0  0  0  0  0  0  0  0  0  0
   45.8460   31.3350   48.5790 O   0  0  0  0  0  0  0  0  0  0  0  0
   45.3900   32.4980   47.9680 C   0  0  0  0  0  3  0  0  0  0  0  0
   45.3380   33.2780   48.7590 H   0  0  0  0  0  0  0  0  0  0  0  0
   44.2230   35.1020   42.2410 C   0  0  0  0  0  3  0  0  0  0  0  0
   43.3560   34.5540   41.4170 C   0  0  0  0  0  3  0  0  0  0  0  0
   42.8280   35.2610   40.2070 C   0  0  0  0  0  0  0  0  0  0  0  0
   42.5390   34.4420   39.4940 H   0  0  0  0  0  0  0  0  0  0  0  0
   41.9840   35.9210   40.4430 H   0  0  0  0  0  0  0  0  0  0  0  0
   43.6610   35.8120   39.6900 H   0  0  0  0  0  0  0  0  0  0  0  0
  1  7  1  0  0  0  0
  1  6  1  0  0  0  0
  2  1  2  0  0  0  0
  3  2  1  0  0  0  0
  3  4  2  0  0  0  0
  4  5  1  0  0  0  0
  5  6  2  0  0  0  0
  8  3  1  0  0  0  0
  9  5  1  6  0  0  0
  9 15  1  0  0  0  0
 10  9  1  0  0  0  0
 10 12  1  0  0  0  0
 11 10  1  0  0  0  0
 12 13  1  0  0  0  0
 12 14  1  0  0  0  0
 15 14  1  0  0  0  0
 15 16  1  0  0  0  0
 17  2  1  0  0  0  0
 18 17  2  0  0  0  0
 19 21  1  0  0  0  0
 19 18  1  0  0  0  0
 20 19  1  0  0  0  0
 22 19  1  0  0  0  0
M  END
>  <minimizedAffinity>
-4.05736208

>  <minimizedRMSD>
1.4465071

$$$$
