
 OpenBabel03252505313D

 26 27  0  0  1  0  0  0  0  0999 V2000
   46.7770   31.7010   48.5980 O   0  0  0  0  0  0  0  0  0  0  0  0
   45.8190   32.0550   47.4550 P   0  0  1  0  0  0  0  0  0  0  0  0
   44.4640   32.8640   48.0250 O   0  0  0  0  0  0  0  0  0  0  0  0
   44.6470   33.4100   48.8370 H   0  0  0  0  0  0  0  0  0  0  0  0
   46.6780   33.0140   46.3610 O   0  0  0  0  0  0  0  0  0  0  0  0
   44.5380   35.4480   44.9380 C   0  0  0  0  0  0  0  0  0  0  0  0
   44.9830   35.5910   43.6090 C   0  0  0  0  0  0  0  0  0  0  0  0
   46.0880   34.7820   43.2250 C   0  0  0  0  0  0  0  0  0  0  0  0
   46.6250   33.9390   44.1640 N   0  0  0  0  0  0  0  0  0  0  0  0
   46.1500   33.8550   45.4110 C   0  0  0  0  0  0  0  0  0  0  0  0
   45.1150   34.6010   45.8000 N   0  0  0  0  0  0  0  0  0  0  0  0
   43.6880   36.0550   45.2720 H   0  0  0  0  0  0  0  0  0  0  0  0
   44.5400   36.2580   42.9070 H   0  0  0  0  0  0  0  0  0  0  0  0
   46.4970   34.8250   42.2290 H   0  0  0  0  0  0  0  0  0  0  0  0
   45.3210   30.5970   46.7900 O   0  0  0  0  0  0  0  0  0  0  0  0
   45.1310   29.6840   47.7860 C   0  0  0  0  0  0  0  0  0  0  0  0
   45.7430   29.8120   48.6770 H   0  0  0  0  0  0  0  0  0  0  0  0
   44.0670   29.7880   48.1260 H   0  0  0  0  0  0  0  0  0  0  0  0
   45.2680   28.2510   47.3380 C   0  0  2  0  0  3  0  0  0  0  0  0
   44.6880   27.2590   48.3280 C   0  0  0  0  0  3  0  0  0  0  0  0
   43.6220   27.1270   48.1070 H   0  0  0  0  0  0  0  0  0  0  0  0
   45.5210   26.0280   47.9460 C   0  0  0  0  0  3  0  0  0  0  0  0
   45.4960   25.2470   48.7290 H   0  0  0  0  0  0  0  0  0  0  0  0
   46.7820   26.5460   47.7990 O   0  0  0  0  0  0  0  0  0  0  0  0
   46.7150   27.8400   47.3400 C   0  0  0  0  0  3  0  0  0  0  0  0
   47.3370   28.5290   47.9800 H   0  0  0  0  0  0  0  0  0  0  0  0
  2  3  1  0  0  0  0
  2  1  2  1  0  0  0
  3  4  1  0  0  0  0
  5  2  1  0  0  0  0
  6 12  1  0  0  0  0
  6 11  1  0  0  0  0
  7  6  2  0  0  0  0
  8  7  1  0  0  0  0
  8  9  2  0  0  0  0
  9 10  1  0  0  0  0
 10 11  2  0  0  0  0
 10  5  1  0  0  0  0
 13  7  1  0  0  0  0
 14  8  1  0  0  0  0
 15  2  1  0  0  0  0
 15 16  1  0  0  0  0
 16 18  1  0  0  0  0
 16 17  1  0  0  0  0
 19 25  1  0  0  0  0
 19 16  1  1  0  0  0
 19 20  1  0  0  0  0
 21 20  1  0  0  0  0
 22 20  1  0  0  0  0
 22 23  1  0  0  0  0
 24 22  1  0  0  0  0
 25 24  1  0  0  0  0
 25 26  1  0  0  0  0
M  END
>  <minimizedAffinity>
-4.43874407

>  <minimizedRMSD>
1.04512835

$$$$
