
 OpenBabel03242521283D

 34 36  0  0  1  0  0  0  0  0999 V2000
   47.9500   33.4410   42.5470 C   0  0  1  0  0  0  0  0  0  0  0  0
   46.4920   33.7360   42.2900 C   0  0  2  0  0  0  0  0  0  0  0  0
   46.3220   34.6540   41.2740 O   0  0  0  0  0  0  0  0  0  0  0  0
   46.6730   34.0050   40.1020 C   0  0  0  0  0  0  0  0  0  0  0  0
   48.1720   33.8660   40.0760 C   0  0  2  0  0  0  0  0  0  0  0  0
   48.7630   33.2660   41.3130 C   0  0  2  0  0  0  0  0  0  0  0  0
   47.9550   32.4530   43.0950 H   0  0  0  0  0  0  0  0  0  0  0  0
   46.0100   32.7720   42.0040 H   0  0  0  0  0  0  0  0  0  0  0  0
   46.1560   33.0410   39.9410 H   0  0  0  0  0  0  0  0  0  0  0  0
   46.4220   34.7000   39.2580 H   0  0  0  0  0  0  0  0  0  0  0  0
   48.4660   33.2530   39.1950 H   0  0  0  0  0  0  0  0  0  0  0  0
   49.7320   33.8170   41.4890 H   0  0  0  0  0  0  0  0  0  0  0  0
   44.5000   35.8780   44.6980 C   0  0  0  0  0  0  0  0  0  0  0  0
   45.0880   35.4500   43.4980 C   0  0  0  0  0  0  0  0  0  0  0  0
   45.8350   34.2390   43.5150 C   0  0  0  0  0  0  0  0  0  0  0  0
   45.9460   33.5570   44.6810 N   0  0  0  0  0  0  0  0  0  0  0  0
   45.3580   34.0130   45.8240 C   0  0  0  0  0  0  0  0  0  0  0  0
   44.6370   35.1680   45.8340 N   0  0  0  0  0  0  0  0  0  0  0  0
   43.9240   36.7910   44.7270 H   0  0  0  0  0  0  0  0  0  0  0  0
   44.9840   36.0140   42.5760 H   0  0  0  0  0  0  0  0  0  0  0  0
   45.5170   33.3850   46.6910 H   0  0  0  0  0  0  0  0  0  0  0  0
   48.5170   34.3500   43.4480 O   0  0  0  0  0  0  0  0  0  0  0  0
   48.7830   33.9640   44.3000 H   0  0  0  0  0  0  0  0  0  0  0  0
   48.6760   35.1520   39.8290 O   0  0  0  0  0  0  0  0  0  0  0  0
   48.5280   35.4030   38.8990 H   0  0  0  0  0  0  0  0  0  0  0  0
   49.1610   31.9290   41.1320 O   0  0  0  0  0  0  0  0  0  0  0  0
   50.1560   31.5270   41.9880 C   0  0  2  0  0  3  0  0  0  0  0  0
   51.4070   32.3110   41.6760 C   0  0  0  0  0  3  0  0  0  0  0  0
   52.1240   32.1200   42.5100 H   0  0  0  0  0  0  0  0  0  0  0  0
   51.9260   31.5660   40.4740 C   0  0  0  0  0  3  0  0  0  0  0  0
   51.5680   32.0920   39.5580 H   0  0  0  0  0  0  0  0  0  0  0  0
   51.4290   30.2780   40.4970 O   0  0  0  0  0  0  0  0  0  0  0  0
   50.6410   30.1270   41.6260 C   0  0  0  0  0  3  0  0  0  0  0  0
   49.8170   29.4410   41.3940 H   0  0  0  0  0  0  0  0  0  0  0  0
  1  7  1  1  0  0  0
  1 22  1  0  0  0  0
  2  8  1  6  0  0  0
  2  1  1  0  0  0  0
  2 15  1  0  0  0  0
  3  2  1  0  0  0  0
  4  3  1  0  0  0  0
  5 11  1  6  0  0  0
  5  4  1  0  0  0  0
  5  6  1  0  0  0  0
  6 12  1  1  0  0  0
  6  1  1  0  0  0  0
  9  4  1  0  0  0  0
 10  4  1  0  0  0  0
 13 19  1  0  0  0  0
 13 18  1  0  0  0  0
 14 15  1  0  0  0  0
 14 13  2  0  0  0  0
 15 16  2  0  0  0  0
 16 17  1  0  0  0  0
 17 18  2  0  0  0  0
 17 21  1  0  0  0  0
 20 14  1  0  0  0  0
 22 23  1  0  0  0  0
 24  5  1  0  0  0  0
 25 24  1  0  0  0  0
 26  6  1  0  0  0  0
 27 26  1  6  0  0  0
 28 27  1  0  0  0  0
 28 29  1  0  0  0  0
 30 32  1  0  0  0  0
 30 28  1  0  0  0  0
 31 30  1  0  0  0  0
 32 33  1  0  0  0  0
 33 27  1  0  0  0  0
 34 33  1  0  0  0  0
M  END
>  <minimizedAffinity>
-5.24922848

>  <minimizedRMSD>
0.803516746

$$$$
