
 OpenBabel03252500153D

 37 40  0  0  1  0  0  0  0  0999 V2000
   45.4970   32.3380   40.5410 Cl  0  0  0  0  0  0  0  0  0  0  0  0
   46.7890   33.4430   40.1870 C   0  0  0  0  0  0  0  0  0  0  0  0
   47.3750   34.1890   41.1750 C   0  0  0  0  0  0  0  0  0  0  0  0
   48.4110   35.0820   40.9200 C   0  0  0  0  0  0  0  0  0  0  0  0
   48.8160   35.1750   39.6110 C   0  0  0  0  0  0  0  0  0  0  0  0
   48.2330   34.4270   38.6020 C   0  0  0  0  0  0  0  0  0  0  0  0
   47.2320   33.5710   38.8830 C   0  0  0  0  0  0  0  0  0  0  0  0
   48.8690   35.6660   41.6900 H   0  0  0  0  0  0  0  0  0  0  0  0
   49.6180   35.8620   39.4030 H   0  0  0  0  0  0  0  0  0  0  0  0
   48.5680   34.5150   37.5810 H   0  0  0  0  0  0  0  0  0  0  0  0
   46.8990   32.9030   44.5990 C   0  0  0  0  0  0  0  0  0  0  0  0
   45.9580   33.8120   45.1450 C   0  0  0  0  0  0  0  0  0  0  0  0
   45.5080   34.8480   44.3240 C   0  0  0  0  0  0  0  0  0  0  0  0
   45.9980   34.9230   43.0500 N   0  0  0  0  0  0  0  0  0  0  0  0
   46.8920   34.0430   42.5590 C   0  0  0  0  0  0  0  0  0  0  0  0
   47.3290   33.0510   43.3340 N   0  0  0  0  0  0  0  0  0  0  0  0
   47.2280   32.1100   45.2640 H   0  0  0  0  0  0  0  0  0  0  0  0
   45.5550   33.7810   46.1370 H   0  0  0  0  0  0  0  0  0  0  0  0
   44.5170   35.8690   44.7840 C   0  0  0  0  0  0  0  0  0  0  0  0
   44.9760   37.1270   44.5590 F   0  0  0  0  0  0  0  0  0  0  0  0
   43.3420   35.6800   44.0840 F   0  0  0  0  0  0  0  0  0  0  0  0
   44.3040   35.6370   46.1190 F   0  0  0  0  0  0  0  0  0  0  0  0
   46.6000   32.7710   37.8370 C   0  0  0  0  0  0  0  0  0  0  0  0
   45.5700   33.2420   37.0100 C   0  0  0  0  0  0  0  0  0  0  0  0
   45.2150   32.2240   36.1410 C   0  0  0  0  0  0  0  0  0  0  0  0
   46.0620   31.1830   36.4970 C   0  0  0  0  0  0  0  0  0  0  0  0
   46.8590   31.5230   37.4880 O   0  0  0  0  0  0  0  0  0  0  0  0
   45.1330   34.2330   37.0490 H   0  0  0  0  0  0  0  0  0  0  0  0
   44.4790   32.2140   35.3770 H   0  0  0  0  0  0  0  0  0  0  0  0
   46.1020   29.8510   35.8810 C   0  0  1  0  0  3  0  0  0  0  0  0
   47.5120   29.2440   35.8660 C   0  0  0  0  0  3  0  0  0  0  0  0
   47.9530   29.2590   36.8700 H   0  0  0  0  0  0  0  0  0  0  0  0
   47.1000   27.7970   35.5650 C   0  0  0  0  0  3  0  0  0  0  0  0
   47.9160   27.0830   35.7520 H   0  0  0  0  0  0  0  0  0  0  0  0
   45.9550   27.5710   36.3030 O   0  0  0  0  0  0  0  0  0  0  0  0
   45.3860   28.7800   36.6480 C   0  0  0  0  0  3  0  0  0  0  0  0
   45.5920   28.9380   37.7280 H   0  0  0  0  0  0  0  0  0  0  0  0
  2  1  1  0  0  0  0
  2  3  1  0  0  0  0
  3 15  1  0  0  0  0
  4  3  2  0  0  0  0
  4  8  1  0  0  0  0
  5  4  1  0  0  0  0
  6  7  1  0  0  0  0
  6  5  2  0  0  0  0
  7  2  2  0  0  0  0
  9  5  1  0  0  0  0
 10  6  1  0  0  0  0
 11 12  1  0  0  0  0
 11 17  1  0  0  0  0
 12 18  1  0  0  0  0
 13 19  1  0  0  0  0
 13 12  2  0  0  0  0
 14 13  1  0  0  0  0
 15 14  2  0  0  0  0
 15 16  1  0  0  0  0
 16 11  2  0  0  0  0
 19 22  1  0  0  0  0
 20 19  1  0  0  0  0
 21 19  1  0  0  0  0
 23  7  1  0  0  0  0
 24 28  1  0  0  0  0
 24 23  2  0  0  0  0
 25 26  2  0  0  0  0
 25 24  1  0  0  0  0
 26 27  1  0  0  0  0
 27 23  1  0  0  0  0
 29 25  1  0  0  0  0
 30 26  1  1  0  0  0
 30 36  1  0  0  0  0
 31 30  1  0  0  0  0
 31 32  1  0  0  0  0
 33 34  1  0  0  0  0
 33 31  1  0  0  0  0
 33 35  1  0  0  0  0
 35 36  1  0  0  0  0
 36 37  1  0  0  0  0
M  END
>  <minimizedAffinity>
-5.52124691

>  <minimizedRMSD>
0.107205801

$$$$
