
 OpenBabel03242513273D

 29 31  0  0  1  0  0  0  0  0999 V2000
   46.4340   34.0590   41.0120 C   0  0  0  0  0  0  0  0  0  0  0  0
   46.9230   34.8300   42.0540 C   0  0  0  0  0  0  0  0  0  0  0  0
   48.0970   35.4800   41.8520 C   0  0  0  0  0  0  0  0  0  0  0  0
   48.7920   35.3870   40.6590 C   0  0  0  0  0  0  0  0  0  0  0  0
   48.2990   34.6230   39.6410 C   0  0  0  0  0  0  0  0  0  0  0  0
   47.1030   33.9410   39.8000 C   0  0  0  0  0  0  0  0  0  0  0  0
   48.4850   36.0840   42.6630 H   0  0  0  0  0  0  0  0  0  0  0  0
   49.7250   35.9310   40.5630 H   0  0  0  0  0  0  0  0  0  0  0  0
   48.8230   34.5430   38.7220 H   0  0  0  0  0  0  0  0  0  0  0  0
   44.5160   35.9600   44.7340 C   0  0  0  0  0  0  0  0  0  0  0  0
   45.2550   35.9250   43.5380 C   0  0  0  0  0  0  0  0  0  0  0  0
   46.1550   34.8880   43.2730 C   0  0  0  0  0  0  0  0  0  0  0  0
   46.2420   33.9600   44.2440 N   0  0  0  0  0  0  0  0  0  0  0  0
   45.5430   33.9820   45.3890 C   0  0  0  0  0  0  0  0  0  0  0  0
   44.6740   34.9890   45.6370 N   0  0  0  0  0  0  0  0  0  0  0  0
   43.8290   36.7540   44.9350 H   0  0  0  0  0  0  0  0  0  0  0  0
   45.1170   36.7130   42.8210 H   0  0  0  0  0  0  0  0  0  0  0  0
   45.7770   33.1370   46.0130 H   0  0  0  0  0  0  0  0  0  0  0  0
   45.2320   33.3750   41.1770 O   0  0  0  0  0  0  0  0  0  0  0  0
   44.4050   33.8520   40.8340 H   0  0  0  0  0  0  0  0  0  0  0  0
   46.5280   33.1440   38.8240 O   0  0  0  0  0  0  0  0  0  0  0  0
   46.7790   33.2020   37.4610 C   0  0  2  0  0  0  0  0  0  0  0  0
   45.4040   33.2040   36.7760 C   0  0  0  0  0  0  0  0  0  0  0  0
   45.4940   33.3670   35.6990 H   0  0  0  0  0  0  0  0  0  0  0  0
   45.0100   31.7650   37.0030 C   0  0  0  0  0  0  0  0  0  0  0  0
   44.2900   31.4270   36.2320 H   0  0  0  0  0  0  0  0  0  0  0  0
   46.1510   31.0050   36.9920 O   0  0  0  0  0  0  0  0  0  0  0  0
   47.2490   31.8250   36.9710 C   0  0  0  0  0  0  0  0  0  0  0  0
   47.5590   31.9550   35.9060 H   0  0  0  0  0  0  0  0  0  0  0  0
  1 19  1  0  0  0  0
  1  2  1  0  0  0  0
  2 12  1  0  0  0  0
  3  2  2  0  0  0  0
  3  7  1  0  0  0  0
  4  3  1  0  0  0  0
  5  6  1  0  0  0  0
  5  4  2  0  0  0  0
  6  1  2  0  0  0  0
  8  4  1  0  0  0  0
  9  5  1  0  0  0  0
 10 16  1  0  0  0  0
 10 15  1  0  0  0  0
 11 10  2  0  0  0  0
 12 11  1  0  0  0  0
 12 13  2  0  0  0  0
 13 14  1  0  0  0  0
 14 15  2  0  0  0  0
 14 18  1  0  0  0  0
 17 11  1  0  0  0  0
 20 19  1  0  0  0  0
 21  6  1  0  0  0  0
 22 21  1  1  0  0  0
 23 25  1  0  0  0  0
 23 22  1  0  0  0  0
 24 23  1  0  0  0  0
 26 25  1  0  0  0  0
 27 25  1  0  0  0  0
 28 27  1  0  0  0  0
 28 22  1  0  0  0  0
 29 28  1  0  0  0  0
M  END
>  <minimizedAffinity>
-5.41145372

>  <minimizedRMSD>
1.15200663

$$$$
