
 OpenBabel03252505313D

 26 27  0  0  1  0  0  0  0  0999 V2000
   46.9400   32.1990   48.3860 O   0  0  0  0  0  0  0  0  0  0  0  0
   45.9010   32.4380   47.2840 P   0  0  1  0  0  0  0  0  0  0  0  0
   44.6140   33.3530   47.8500 O   0  0  0  0  0  0  0  0  0  0  0  0
   44.8730   33.9910   48.5700 H   0  0  0  0  0  0  0  0  0  0  0  0
   46.6900   33.2250   46.0150 O   0  0  0  0  0  0  0  0  0  0  0  0
   44.4800   35.6390   44.6640 C   0  0  0  0  0  0  0  0  0  0  0  0
   44.8750   35.7800   43.3190 C   0  0  0  0  0  0  0  0  0  0  0  0
   45.9710   34.9770   42.8970 C   0  0  0  0  0  0  0  0  0  0  0  0
   46.5480   34.1420   43.8180 N   0  0  0  0  0  0  0  0  0  0  0  0
   46.1200   34.0590   45.0820 C   0  0  0  0  0  0  0  0  0  0  0  0
   45.0950   34.7990   45.5070 N   0  0  0  0  0  0  0  0  0  0  0  0
   43.6390   36.2410   45.0270 H   0  0  0  0  0  0  0  0  0  0  0  0
   44.4010   36.4410   42.6320 H   0  0  0  0  0  0  0  0  0  0  0  0
   46.3420   35.0200   41.8860 H   0  0  0  0  0  0  0  0  0  0  0  0
   45.3200   30.9240   46.8500 O   0  0  0  0  0  0  0  0  0  0  0  0
   45.0840   30.1880   47.9740 C   0  0  0  0  0  0  0  0  0  0  0  0
   45.6980   30.4240   48.8410 H   0  0  0  0  0  0  0  0  0  0  0  0
   44.0250   30.3940   48.2830 H   0  0  0  0  0  0  0  0  0  0  0  0
   45.1520   28.6980   47.7560 C   0  0  2  0  0  3  0  0  0  0  0  0
   46.5370   28.2140   47.3720 C   0  0  0  0  0  3  0  0  0  0  0  0
   47.1020   28.0090   48.2900 H   0  0  0  0  0  0  0  0  0  0  0  0
   46.1440   26.9310   46.6290 C   0  0  0  0  0  3  0  0  0  0  0  0
   46.9630   26.5480   45.9920 H   0  0  0  0  0  0  0  0  0  0  0  0
   45.0710   27.3310   45.8750 O   0  0  0  0  0  0  0  0  0  0  0  0
   44.3700   28.3160   46.5280 C   0  0  0  0  0  3  0  0  0  0  0  0
   44.2000   29.2050   45.8550 H   0  0  0  0  0  0  0  0  0  0  0  0
  2  3  1  0  0  0  0
  2  1  2  1  0  0  0
  3  4  1  0  0  0  0
  5  2  1  0  0  0  0
  6 12  1  0  0  0  0
  6 11  1  0  0  0  0
  7  6  2  0  0  0  0
  8  7  1  0  0  0  0
  8  9  2  0  0  0  0
  9 10  1  0  0  0  0
 10 11  2  0  0  0  0
 10  5  1  0  0  0  0
 13  7  1  0  0  0  0
 14  8  1  0  0  0  0
 15  2  1  0  0  0  0
 15 16  1  0  0  0  0
 16 18  1  0  0  0  0
 16 17  1  0  0  0  0
 19 16  1  6  0  0  0
 20 19  1  0  0  0  0
 20 21  1  0  0  0  0
 22 20  1  0  0  0  0
 23 22  1  0  0  0  0
 24 25  1  0  0  0  0
 24 22  1  0  0  0  0
 25 19  1  0  0  0  0
 26 25  1  0  0  0  0
M  END
>  <minimizedAffinity>
-4.43174028

>  <minimizedRMSD>
0.735500097

$$$$
