
 OpenBabel03252502173D

 23 24  0  0  1  0  0  0  0  0999 V2000
   46.3560   35.2500   42.6520 C   0  0  0  0  0  0  0  0  0  0  0  0
   46.4670   34.0770   43.4320 C   0  0  0  0  0  0  0  0  0  0  0  0
   45.6640   33.9700   44.5910 C   0  0  0  0  0  0  0  0  0  0  0  0
   44.8300   34.9890   44.9000 N   0  0  0  0  0  0  0  0  0  0  0  0
   44.7630   36.0950   44.1160 C   0  0  0  0  0  0  0  0  0  0  0  0
   45.5070   36.2400   43.0060 N   0  0  0  0  0  0  0  0  0  0  0  0
   46.9600   35.3420   41.7710 H   0  0  0  0  0  0  0  0  0  0  0  0
   44.0810   36.8560   44.4280 H   0  0  0  0  0  0  0  0  0  0  0  0
   45.8030   32.7230   45.3880 C   0  0  2  0  0  3  0  0  0  0  0  0
   46.9450   32.8200   46.3830 C   0  0  0  0  0  3  0  0  0  0  0  0
   46.6600   33.2970   47.3310 H   0  0  0  0  0  0  0  0  0  0  0  0
   47.2950   31.3540   46.5340 C   0  0  0  0  0  3  0  0  0  0  0  0
   46.5340   30.9140   47.1990 H   0  0  0  0  0  0  0  0  0  0  0  0
   47.2610   30.9070   45.2300 O   0  0  0  0  0  0  0  0  0  0  0  0
   46.2530   31.5550   44.5650 C   0  0  0  0  0  3  0  0  0  0  0  0
   45.3880   30.8430   44.4810 H   0  0  0  0  0  0  0  0  0  0  0  0
   47.3550   33.1200   42.9990 O   0  0  0  0  0  0  0  0  0  0  0  0
   49.8530   32.3820   42.5340 O   0  0  0  0  0  0  0  0  0  0  0  0
   48.9270   33.5420   42.4490 P   0  0  0  0  0  0  0  0  0  0  0  0
   48.8660   34.0400   40.8300 O   0  0  0  0  0  0  0  0  0  0  0  0
   48.6260   33.2230   40.3010 H   0  0  0  0  0  0  0  0  0  0  0  0
   49.5490   34.8060   43.3760 O   0  0  0  0  0  0  0  0  0  0  0  0
   48.8580   35.4160   43.7130 H   0  0  0  0  0  0  0  0  0  0  0  0
  1  6  2  0  0  0  0
  1  2  1  0  0  0  0
  2  3  2  0  0  0  0
  3  4  1  0  0  0  0
  5  8  1  0  0  0  0
  5  4  2  0  0  0  0
  6  5  1  0  0  0  0
  7  1  1  0  0  0  0
  9  3  1  6  0  0  0
  9 10  1  0  0  0  0
 10 12  1  0  0  0  0
 10 11  1  0  0  0  0
 12 13  1  0  0  0  0
 14 12  1  0  0  0  0
 15 14  1  0  0  0  0
 15  9  1  0  0  0  0
 16 15  1  0  0  0  0
 17  2  1  0  0  0  0
 19 18  2  0  0  0  0
 19 17  1  0  0  0  0
 19 22  1  0  0  0  0
 20 19  1  0  0  0  0
 21 20  1  0  0  0  0
 22 23  1  0  0  0  0
M  END
>  <minimizedAffinity>
-4.37246799

>  <minimizedRMSD>
0.979184926

$$$$
