
 OpenBabel03242511203D

 38 41  0  0  1  0  0  0  0  0999 V2000
   47.9720   33.0220   41.9630 C   0  0  0  0  0  0  0  0  0  0  0  0
   48.8130   33.2070   42.6260 H   0  0  0  0  0  0  0  0  0  0  0  0
   47.2530   32.2810   42.4150 H   0  0  0  0  0  0  0  0  0  0  0  0
   48.2740   32.5970   40.6050 C   0  0  0  0  0  0  0  0  0  0  0  0
   49.4820   32.3030   40.2580 C   0  0  0  0  0  0  0  0  0  0  0  0
   49.7980   31.8860   38.9510 N   0  0  0  0  0  0  0  0  0  0  0  0
   50.4880   30.9500   38.1040 C   0  0  0  0  0  0  0  0  0  0  0  0
   51.5280   30.2330   38.2100 O   0  0  0  0  0  0  0  0  0  0  0  0
   49.4070   31.2470   37.0890 C   0  0  0  0  0  0  0  0  0  0  0  0
   49.2860   32.5950   37.7550 C   0  0  1  0  0  0  0  0  0  0  0  0
   47.6370   33.2060   38.0770 S   0  0  0  0  0  0  0  0  0  0  0  0
   47.1110   32.5320   39.6770 C   0  0  0  0  0  0  0  0  0  0  0  0
   48.4910   30.6330   37.2940 H   0  0  0  0  0  0  0  0  0  0  0  0
   49.7850   31.2180   36.0660 H   0  0  0  0  0  0  0  0  0  0  0  0
   50.0350   33.3120   37.3660 H   0  0  0  0  0  0  0  0  0  0  0  0
   46.8870   31.4590   39.5180 H   0  0  0  0  0  0  0  0  0  0  0  0
   46.2560   33.1230   39.9990 H   0  0  0  0  0  0  0  0  0  0  0  0
   50.5690   32.4030   41.2460 C   0  0  0  0  0  0  0  0  0  0  0  0
   51.7620   32.0090   41.0510 O   0  0  0  0  0  0  0  0  0  0  0  0
   51.3380   32.6340   42.3490 O   0  0  0  0  0  0  0  0  0  0  0  0
   51.0190   32.6430   43.3220 H   0  0  0  0  0  0  0  0  0  0  0  0
   47.0420   34.6130   41.9470 S   0  0  0  0  0  0  0  0  0  0  0  0
   44.5360   35.7880   44.9110 C   0  0  0  0  0  0  0  0  0  0  0  0
   45.2440   35.7560   43.6850 C   0  0  0  0  0  0  0  0  0  0  0  0
   46.1360   34.6880   43.4730 C   0  0  0  0  0  0  0  0  0  0  0  0
   46.2660   33.7580   44.4490 N   0  0  0  0  0  0  0  0  0  0  0  0
   45.5780   33.8290   45.5910 C   0  0  0  0  0  0  0  0  0  0  0  0
   44.7180   34.8230   45.8410 N   0  0  0  0  0  0  0  0  0  0  0  0
   43.8640   36.6310   45.0230 H   0  0  0  0  0  0  0  0  0  0  0  0
   45.0910   36.5350   42.9470 H   0  0  0  0  0  0  0  0  0  0  0  0
   45.8050   32.7640   46.5660 C   0  0  2  0  0  0  0  0  0  0  0  0
   45.0440   32.9760   47.8810 C   0  0  0  0  0  0  0  0  0  0  0  0
   45.2600   34.0010   48.2230 H   0  0  0  0  0  0  0  0  0  0  0  0
   45.8050   31.9330   48.7110 C   0  0  0  0  0  0  0  0  0  0  0  0
   45.6220   32.0450   49.7790 H   0  0  0  0  0  0  0  0  0  0  0  0
   47.1180   32.0100   48.3120 O   0  0  0  0  0  0  0  0  0  0  0  0
   47.2000   32.6540   47.0920 C   0  0  0  0  0  0  0  0  0  0  0  0
   47.6950   33.6260   47.2620 H   0  0  0  0  0  0  0  0  0  0  0  0
  1  3  1  0  0  0  0
  1  2  1  0  0  0  0
  4  1  1  0  0  0  0
  5  4  2  0  0  0  0
  5 18  1  0  0  0  0
  6  5  1  0  0  0  0
  7  8  2  0  0  0  0
  7  6  1  0  0  0  0
  9 13  1  0  0  0  0
  9 10  1  0  0  0  0
  9  7  1  0  0  0  0
 10 15  1  6  0  0  0
 10 11  1  0  0  0  0
 10  6  1  0  0  0  0
 11 12  1  0  0  0  0
 12 17  1  0  0  0  0
 12  4  1  0  0  0  0
 14  9  1  0  0  0  0
 16 12  1  0  0  0  0
 18 20  1  0  0  0  0
 19 18  2  0  0  0  0
 20 21  1  0  0  0  0
 22  1  1  0  0  0  0
 22 25  1  0  0  0  0
 23 29  1  0  0  0  0
 23 28  1  0  0  0  0
 24 23  2  0  0  0  0
 25 24  1  0  0  0  0
 25 26  2  0  0  0  0
 26 27  1  0  0  0  0
 27 28  2  0  0  0  0
 30 24  1  0  0  0  0
 31 27  1  6  0  0  0
 31 37  1  0  0  0  0
 31 32  1  0  0  0  0
 32 33  1  0  0  0  0
 32 34  1  0  0  0  0
 34 35  1  0  0  0  0
 36 34  1  0  0  0  0
 37 38  1  0  0  0  0
 37 36  1  0  0  0  0
M  END
>  <minimizedAffinity>
-5.48795748

>  <minimizedRMSD>
0.547514558

$$$$
