
 OpenBabel03252505303D

 26 27  0  0  1  0  0  0  0  0999 V2000
   46.9600   32.2100   48.3530 O   0  0  0  0  0  0  0  0  0  0  0  0
   45.9170   32.4480   47.2540 P   0  0  1  0  0  0  0  0  0  0  0  0
   44.6280   33.3560   47.8250 O   0  0  0  0  0  0  0  0  0  0  0  0
   44.8860   33.9930   48.5460 H   0  0  0  0  0  0  0  0  0  0  0  0
   46.7010   33.2420   45.9850 O   0  0  0  0  0  0  0  0  0  0  0  0
   44.4760   35.6370   44.6270 C   0  0  0  0  0  0  0  0  0  0  0  0
   44.8660   35.7720   43.2800 C   0  0  0  0  0  0  0  0  0  0  0  0
   45.9640   34.9720   42.8590 C   0  0  0  0  0  0  0  0  0  0  0  0
   46.5480   34.1450   43.7840 N   0  0  0  0  0  0  0  0  0  0  0  0
   46.1250   34.0680   45.0490 C   0  0  0  0  0  0  0  0  0  0  0  0
   45.0970   34.8060   45.4730 N   0  0  0  0  0  0  0  0  0  0  0  0
   43.6340   36.2380   44.9890 H   0  0  0  0  0  0  0  0  0  0  0  0
   44.3870   36.4270   42.5900 H   0  0  0  0  0  0  0  0  0  0  0  0
   46.3320   35.0100   41.8470 H   0  0  0  0  0  0  0  0  0  0  0  0
   45.3420   30.9340   46.8160 O   0  0  0  0  0  0  0  0  0  0  0  0
   44.9930   30.2380   47.9360 C   0  0  0  0  0  0  0  0  0  0  0  0
   45.3900   30.6140   48.8780 H   0  0  0  0  0  0  0  0  0  0  0  0
   43.8760   30.3030   48.0260 H   0  0  0  0  0  0  0  0  0  0  0  0
   45.3010   28.7640   47.8640 C   0  0  2  0  0  3  0  0  0  0  0  0
   46.7030   28.4720   47.3630 C   0  0  0  0  0  3  0  0  0  0  0  0
   47.3880   28.4760   48.2190 H   0  0  0  0  0  0  0  0  0  0  0  0
   46.4680   27.0610   46.8070 C   0  0  0  0  0  3  0  0  0  0  0  0
   47.2710   26.7450   46.1160 H   0  0  0  0  0  0  0  0  0  0  0  0
   45.2690   27.1860   46.1550 O   0  0  0  0  0  0  0  0  0  0  0  0
   44.4770   28.1130   46.7870 C   0  0  0  0  0  3  0  0  0  0  0  0
   44.0810   28.8740   46.0530 H   0  0  0  0  0  0  0  0  0  0  0  0
  2  3  1  0  0  0  0
  2  1  2  1  0  0  0
  3  4  1  0  0  0  0
  5  2  1  0  0  0  0
  6 12  1  0  0  0  0
  6 11  1  0  0  0  0
  7  6  2  0  0  0  0
  8  7  1  0  0  0  0
  8  9  2  0  0  0  0
  9 10  1  0  0  0  0
 10 11  2  0  0  0  0
 10  5  1  0  0  0  0
 13  7  1  0  0  0  0
 14  8  1  0  0  0  0
 15  2  1  0  0  0  0
 15 16  1  0  0  0  0
 16 18  1  0  0  0  0
 16 17  1  0  0  0  0
 19 16  1  6  0  0  0
 20 19  1  0  0  0  0
 20 21  1  0  0  0  0
 22 20  1  0  0  0  0
 23 22  1  0  0  0  0
 24 25  1  0  0  0  0
 24 22  1  0  0  0  0
 25 19  1  0  0  0  0
 26 25  1  0  0  0  0
M  END
>  <minimizedAffinity>
-4.3913846

>  <minimizedRMSD>
1.25317085

$$$$
