
 OpenBabel03252509043D

 47 49  0  0  1  0  0  0  0  0999 V2000
   46.5970   34.5450   43.6090 N   0  0  0  0  0  0  0  0  0  0  0  0
   46.0910   35.5140   42.7160 C   0  0  0  0  0  0  0  0  0  0  0  0
   44.5790   35.6550   42.7200 C   0  0  0  0  0  0  0  0  0  0  0  0
   43.9340   35.4250   44.0620 C   0  0  0  0  0  0  0  0  0  0  0  0
   44.9720   35.1860   45.1430 C   0  0  0  0  0  0  0  0  0  0  0  0
   45.8080   33.9690   44.5820 C   0  0  2  0  0  0  0  0  0  0  0  0
   46.4830   36.5100   43.0420 H   0  0  0  0  0  0  0  0  0  0  0  0
   46.3860   35.4200   41.6630 H   0  0  0  0  0  0  0  0  0  0  0  0
   44.3440   36.6420   42.2950 H   0  0  0  0  0  0  0  0  0  0  0  0
   44.1830   34.8910   42.0110 H   0  0  0  0  0  0  0  0  0  0  0  0
   43.2850   36.2890   44.3040 H   0  0  0  0  0  0  0  0  0  0  0  0
   43.2640   34.5380   44.0700 H   0  0  0  0  0  0  0  0  0  0  0  0
   44.4700   34.8190   46.0450 H   0  0  0  0  0  0  0  0  0  0  0  0
   45.6460   36.0370   45.2750 H   0  0  0  0  0  0  0  0  0  0  0  0
   45.0430   33.2330   44.2600 H   0  0  0  0  0  0  0  0  0  0  0  0
   47.6960   33.7840   43.0810 C   0  0  0  0  0  0  0  0  0  0  0  0
   48.2590   33.3310   43.9340 H   0  0  0  0  0  0  0  0  0  0  0  0
   48.3760   34.4780   42.5340 H   0  0  0  0  0  0  0  0  0  0  0  0
   47.1640   32.6950   42.2040 C   0  0  0  0  0  0  0  0  0  0  0  0
   47.3960   31.7100   42.6040 H   0  0  0  0  0  0  0  0  0  0  0  0
   46.0630   32.7660   42.1110 H   0  0  0  0  0  0  0  0  0  0  0  0
   49.0650   31.9640   39.0370 C   0  0  0  0  0  0  0  0  0  0  0  0
   48.5120   31.8460   40.3330 C   0  0  0  0  0  0  0  0  0  0  0  0
   47.7330   32.8440   40.8370 C   0  0  0  0  0  0  0  0  0  0  0  0
   47.5230   33.9170   40.0620 N   0  0  0  0  0  0  0  0  0  0  0  0
   48.0370   34.0430   38.8380 C   0  0  0  0  0  0  0  0  0  0  0  0
   48.8080   33.0790   38.3120 N   0  0  0  0  0  0  0  0  0  0  0  0
   49.6810   31.1850   38.6260 H   0  0  0  0  0  0  0  0  0  0  0  0
   48.7080   30.9550   40.9320 H   0  0  0  0  0  0  0  0  0  0  0  0
   47.8060   34.9480   38.2940 H   0  0  0  0  0  0  0  0  0  0  0  0
   46.5210   33.5950   45.6980 O   0  0  0  0  0  0  0  0  0  0  0  0
   45.6510   31.1660   45.0270 O   0  0  0  0  0  0  0  0  0  0  0  0
   46.2300   32.0190   46.1750 P   0  0  2  0  0  0  0  0  0  0  0  0
   44.9470   32.0950   47.3140 O   0  0  0  0  0  0  0  0  0  0  0  0
   45.2980   32.4210   48.1840 H   0  0  0  0  0  0  0  0  0  0  0  0
   47.5060   31.2680   46.9140 O   0  0  0  0  0  0  0  0  0  0  0  0
   47.6860   29.9980   46.4040 C   0  0  0  0  0  0  0  0  0  0  0  0
   46.9330   29.2620   46.7750 H   0  0  0  0  0  0  0  0  0  0  0  0
   47.5830   30.0350   45.3020 H   0  0  0  0  0  0  0  0  0  0  0  0
   49.0350   29.4130   46.7390 C   0  0  1  0  0  3  0  0  0  0  0  0
   49.0470   28.7890   48.1180 C   0  0  0  0  0  3  0  0  0  0  0  0
   50.0650   28.7710   48.5510 H   0  0  0  0  0  0  0  0  0  0  0  0
   48.6310   27.3520   47.8200 C   0  0  0  0  0  3  0  0  0  0  0  0
   47.8080   27.0230   48.5030 H   0  0  0  0  0  0  0  0  0  0  0  0
   48.2220   27.3410   46.4870 O   0  0  0  0  0  0  0  0  0  0  0  0
   49.1920   28.1460   45.8860 C   0  0  0  0  0  3  0  0  0  0  0  0
   50.1730   27.6510   46.1230 H   0  0  0  0  0  0  0  0  0  0  0  0
  1  6  1  0  0  0  0
  2  3  1  0  0  0  0
  2  7  1  0  0  0  0
  2  1  1  0  0  0  0
  3  4  1  0  0  0  0
  4 12  1  0  0  0  0
  4 11  1  0  0  0  0
  4  5  1  0  0  0  0
  5 14  1  0  0  0  0
  5 13  1  0  0  0  0
  6 15  1  6  0  0  0
  6  5  1  0  0  0  0
  6 31  1  0  0  0  0
  8  2  1  0  0  0  0
  9  3  1  0  0  0  0
 10  3  1  0  0  0  0
 16  1  1  0  0  0  0
 16 17  1  0  0  0  0
 18 16  1  0  0  0  0
 19 20  1  0  0  0  0
 19 16  1  0  0  0  0
 21 19  1  0  0  0  0
 22 23  1  0  0  0  0
 23 24  2  0  0  0  0
 23 29  1  0  0  0  0
 24 19  1  0  0  0  0
 25 24  1  0  0  0  0
 26 25  2  0  0  0  0
 27 26  1  0  0  0  0
 27 22  2  0  0  0  0
 28 22  1  0  0  0  0
 30 26  1  0  0  0  0
 31 33  1  0  0  0  0
 33 32  2  6  0  0  0
 33 36  1  0  0  0  0
 33 34  1  0  0  0  0
 34 35  1  0  0  0  0
 37 38  1  0  0  0  0
 37 36  1  0  0  0  0
 39 37  1  0  0  0  0
 40 37  1  6  0  0  0
 40 41  1  0  0  0  0
 41 42  1  0  0  0  0
 43 41  1  0  0  0  0
 43 44  1  0  0  0  0
 45 43  1  0  0  0  0
 46 47  1  0  0  0  0
 46 45  1  0  0  0  0
 46 40  1  0  0  0  0
M  END
>  <minimizedAffinity>
-4.08907557

>  <minimizedRMSD>
1.42259192

$$$$
