
 OpenBabel03242521203D

 25 27  0  0  1  0  0  0  0  0999 V2000
   46.6990   32.6230   44.5110 C   0  0  0  0  0  0  0  0  0  0  0  0
   47.6510   32.2190   43.6170 C   0  0  0  0  0  0  0  0  0  0  0  0
   48.3330   31.0300   43.7100 C   0  0  0  0  0  0  0  0  0  0  0  0
   48.0150   30.2400   44.7640 N   0  0  0  0  0  0  0  0  0  0  0  0
   47.0780   30.6340   45.6480 C   0  0  0  0  0  0  0  0  0  0  0  0
   46.3980   31.8020   45.5690 N   0  0  0  0  0  0  0  0  0  0  0  0
   47.9160   32.8450   42.7650 H   0  0  0  0  0  0  0  0  0  0  0  0
   49.0880   30.7020   43.0080 H   0  0  0  0  0  0  0  0  0  0  0  0
   44.5850   35.5010   45.3040 C   0  0  0  0  0  0  0  0  0  0  0  0
   44.6900   36.2690   44.1360 C   0  0  0  0  0  0  0  0  0  0  0  0
   45.4810   35.8110   43.0710 C   0  0  0  0  0  0  0  0  0  0  0  0
   46.1290   34.6080   43.2270 N   0  0  0  0  0  0  0  0  0  0  0  0
   46.0060   33.8950   44.3640 C   0  0  0  0  0  0  0  0  0  0  0  0
   45.2490   34.3290   45.3890 N   0  0  0  0  0  0  0  0  0  0  0  0
   43.9710   35.8940   46.0860 H   0  0  0  0  0  0  0  0  0  0  0  0
   44.1930   37.2160   43.9870 H   0  0  0  0  0  0  0  0  0  0  0  0
   45.6010   36.3600   42.1440 H   0  0  0  0  0  0  0  0  0  0  0  0
   46.7570   29.7390   46.7900 C   0  0  1  0  0  3  0  0  0  0  0  0
   45.3450   29.9250   47.3090 C   0  0  0  0  0  3  0  0  0  0  0  0
   45.3080   30.7500   48.0450 H   0  0  0  0  0  0  0  0  0  0  0  0
   45.0850   28.5630   47.9220 C   0  0  0  0  0  3  0  0  0  0  0  0
   45.0160   28.7360   49.0290 H   0  0  0  0  0  0  0  0  0  0  0  0
   46.1320   27.7320   47.5810 O   0  0  0  0  0  0  0  0  0  0  0  0
   46.7260   28.2760   46.4250 C   0  0  0  0  0  3  0  0  0  0  0  0
   47.7340   27.8190   46.3720 H   0  0  0  0  0  0  0  0  0  0  0  0
  1  6  1  0  0  0  0
  2  3  1  0  0  0  0
  2  1  2  0  0  0  0
  3  4  2  0  0  0  0
  4  5  1  0  0  0  0
  6  5  2  0  0  0  0
  7  2  1  0  0  0  0
  8  3  1  0  0  0  0
  9 14  1  0  0  0  0
  9 15  1  0  0  0  0
 10  9  2  0  0  0  0
 11 12  2  0  0  0  0
 11 10  1  0  0  0  0
 12 13  1  0  0  0  0
 13  1  1  0  0  0  0
 13 14  2  0  0  0  0
 16 10  1  0  0  0  0
 17 11  1  0  0  0  0
 18  5  1  6  0  0  0
 18 19  1  0  0  0  0
 19 21  1  0  0  0  0
 19 20  1  0  0  0  0
 21 22  1  0  0  0  0
 23 21  1  0  0  0  0
 24 18  1  0  0  0  0
 24 23  1  0  0  0  0
 25 24  1  0  0  0  0
M  END
>  <minimizedAffinity>
-4.17015457

>  <minimizedRMSD>
3.34320569

$$$$
