
 OpenBabel03252509043D

 47 49  0  0  1  0  0  0  0  0999 V2000
   46.7120   34.3740   43.5020 N   0  0  0  0  0  0  0  0  0  0  0  0
   46.4590   34.9390   42.2340 C   0  0  0  0  0  0  0  0  0  0  0  0
   44.9930   34.9910   41.8410 C   0  0  0  0  0  0  0  0  0  0  0  0
   44.0460   35.2130   42.9920 C   0  0  0  0  0  0  0  0  0  0  0  0
   44.7960   35.4240   44.2950 C   0  0  0  0  0  0  0  0  0  0  0  0
   45.7000   34.1330   44.4070 C   0  0  2  0  0  0  0  0  0  0  0  0
   46.7960   36.0060   42.2680 H   0  0  0  0  0  0  0  0  0  0  0  0
   46.9890   34.4970   41.3800 H   0  0  0  0  0  0  0  0  0  0  0  0
   44.8960   35.7520   41.0530 H   0  0  0  0  0  0  0  0  0  0  0  0
   44.7500   34.0070   41.3780 H   0  0  0  0  0  0  0  0  0  0  0  0
   43.3870   36.0710   42.7570 H   0  0  0  0  0  0  0  0  0  0  0  0
   43.3650   34.3500   43.1590 H   0  0  0  0  0  0  0  0  0  0  0  0
   44.0860   35.3700   45.1270 H   0  0  0  0  0  0  0  0  0  0  0  0
   45.4470   36.3020   44.2690 H   0  0  0  0  0  0  0  0  0  0  0  0
   45.0090   33.2920   44.2000 H   0  0  0  0  0  0  0  0  0  0  0  0
   47.8800   33.5350   43.5440 C   0  0  0  0  0  0  0  0  0  0  0  0
   48.0590   33.2260   44.6030 H   0  0  0  0  0  0  0  0  0  0  0  0
   48.7550   34.1310   43.1930 H   0  0  0  0  0  0  0  0  0  0  0  0
   47.6420   32.3190   42.7060 C   0  0  0  0  0  0  0  0  0  0  0  0
   47.4610   31.4400   43.3190 H   0  0  0  0  0  0  0  0  0  0  0  0
   46.7600   32.4570   42.0520 H   0  0  0  0  0  0  0  0  0  0  0  0
   51.1930   32.2060   41.4600 C   0  0  0  0  0  0  0  0  0  0  0  0
   50.0610   32.4070   42.2820 C   0  0  0  0  0  0  0  0  0  0  0  0
   48.8170   32.0970   41.8200 C   0  0  0  0  0  0  0  0  0  0  0  0
   48.7230   31.6050   40.5760 N   0  0  0  0  0  0  0  0  0  0  0  0
   49.7820   31.4100   39.7890 C   0  0  0  0  0  0  0  0  0  0  0  0
   51.0200   31.7050   40.2140 N   0  0  0  0  0  0  0  0  0  0  0  0
   52.1810   32.4460   41.8120 H   0  0  0  0  0  0  0  0  0  0  0  0
   50.1810   32.8100   43.2890 H   0  0  0  0  0  0  0  0  0  0  0  0
   49.5980   31.0080   38.8030 H   0  0  0  0  0  0  0  0  0  0  0  0
   46.1210   34.2140   45.7150 O   0  0  0  0  0  0  0  0  0  0  0  0
   45.6020   31.6010   45.6070 O   0  0  0  0  0  0  0  0  0  0  0  0
   46.0200   32.7600   46.5350 P   0  0  2  0  0  0  0  0  0  0  0  0
   44.6940   32.9160   47.6170 O   0  0  0  0  0  0  0  0  0  0  0  0
   44.9660   33.4730   48.3930 H   0  0  0  0  0  0  0  0  0  0  0  0
   47.3530   32.3740   47.4370 O   0  0  0  0  0  0  0  0  0  0  0  0
   47.8140   31.1150   47.1100 C   0  0  0  0  0  0  0  0  0  0  0  0
   47.2130   30.6180   46.3120 H   0  0  0  0  0  0  0  0  0  0  0  0
   48.8490   31.1990   46.7270 H   0  0  0  0  0  0  0  0  0  0  0  0
   47.8140   30.1640   48.2810 C   0  0  1  0  0  3  0  0  0  0  0  0
   48.7620   29.0040   48.0590 C   0  0  0  0  0  3  0  0  0  0  0  0
   48.4620   28.1120   48.6400 H   0  0  0  0  0  0  0  0  0  0  0  0
   50.0630   29.5410   48.6490 C   0  0  0  0  0  3  0  0  0  0  0  0
   50.9160   29.3930   47.9400 H   0  0  0  0  0  0  0  0  0  0  0  0
   49.8380   30.8940   48.9020 O   0  0  0  0  0  0  0  0  0  0  0  0
   48.5450   30.8730   49.4280 C   0  0  0  0  0  3  0  0  0  0  0  0
   48.6010   30.1900   50.3200 H   0  0  0  0  0  0  0  0  0  0  0  0
  1 16  1  0  0  0  0
  1  6  1  0  0  0  0
  2  7  1  0  0  0  0
  2  1  1  0  0  0  0
  3  2  1  0  0  0  0
  3  4  1  0  0  0  0
  4 12  1  0  0  0  0
  4  5  1  0  0  0  0
  5  6  1  0  0  0  0
  5 13  1  0  0  0  0
  6 15  1  6  0  0  0
  6 31  1  0  0  0  0
  8  2  1  0  0  0  0
  9  3  1  0  0  0  0
 10  3  1  0  0  0  0
 11  4  1  0  0  0  0
 14  5  1  0  0  0  0
 16 17  1  0  0  0  0
 18 16  1  0  0  0  0
 19 20  1  0  0  0  0
 19 16  1  0  0  0  0
 21 19  1  0  0  0  0
 22 28  1  0  0  0  0
 22 23  1  0  0  0  0
 23 29  1  0  0  0  0
 24 23  2  0  0  0  0
 24 19  1  0  0  0  0
 25 24  1  0  0  0  0
 26 27  1  0  0  0  0
 26 25  2  0  0  0  0
 27 22  2  0  0  0  0
 30 26  1  0  0  0  0
 31 33  1  0  0  0  0
 33 32  2  6  0  0  0
 33 36  1  0  0  0  0
 33 34  1  0  0  0  0
 34 35  1  0  0  0  0
 37 36  1  0  0  0  0
 38 37  1  0  0  0  0
 39 37  1  0  0  0  0
 40 37  1  6  0  0  0
 40 46  1  0  0  0  0
 41 40  1  0  0  0  0
 41 42  1  0  0  0  0
 41 43  1  0  0  0  0
 43 45  1  0  0  0  0
 44 43  1  0  0  0  0
 45 46  1  0  0  0  0
 46 47  1  0  0  0  0
M  END
>  <minimizedAffinity>
-4.67830896

>  <minimizedRMSD>
2.81435847

$$$$
