
 OpenBabel03252508083D

 43 46  0  0  1  0  0  0  0  0999 V2000
   45.9610   35.0940   42.3370 C   0  0  0  0  0  0  0  0  0  0  0  0
   46.0580   33.7560   42.6910 C   0  0  0  0  0  0  0  0  0  0  0  0
   45.5610   33.3280   43.8970 C   0  0  0  0  0  0  0  0  0  0  0  0
   44.9750   34.2810   44.7050 N   0  0  0  0  0  0  0  0  0  0  0  0
   44.8850   35.5640   44.3600 C   0  0  0  0  0  0  0  0  0  0  0  0
   45.3840   35.9550   43.1690 N   0  0  0  0  0  0  0  0  0  0  0  0
   46.3530   35.4310   41.3880 H   0  0  0  0  0  0  0  0  0  0  0  0
   44.4150   36.2680   45.0330 H   0  0  0  0  0  0  0  0  0  0  0  0
   45.5820   32.0080   44.4040 C   0  0  0  0  0  0  0  0  0  0  0  0
   45.0170   30.9100   43.7480 C   0  0  0  0  0  0  0  0  0  0  0  0
   44.9760   29.6410   44.2670 C   0  0  0  0  0  0  0  0  0  0  0  0
   45.5160   29.3940   45.5080 C   0  0  0  0  0  0  0  0  0  0  0  0
   46.1010   30.5000   46.1970 C   0  0  0  0  0  0  0  0  0  0  0  0
   46.6390   30.2660   47.4290 C   0  0  0  0  0  0  0  0  0  0  0  0
   47.2220   31.2910   48.1450 C   0  0  0  0  0  0  0  0  0  0  0  0
   47.2580   32.5830   47.5930 C   0  0  0  0  0  0  0  0  0  0  0  0
   46.6900   32.7710   46.3210 C   0  0  0  0  0  0  0  0  0  0  0  0
   46.1150   31.7350   45.6360 C   0  0  0  0  0  0  0  0  0  0  0  0
   44.5850   31.0850   42.7670 H   0  0  0  0  0  0  0  0  0  0  0  0
   44.5120   28.8470   43.6780 H   0  0  0  0  0  0  0  0  0  0  0  0
   45.5010   28.4080   45.9490 H   0  0  0  0  0  0  0  0  0  0  0  0
   46.6180   29.2610   47.8730 H   0  0  0  0  0  0  0  0  0  0  0  0
   47.6310   31.0480   49.1160 H   0  0  0  0  0  0  0  0  0  0  0  0
   47.7300   33.3020   48.2230 H   0  0  0  0  0  0  0  0  0  0  0  0
   46.8350   33.8000   46.0690 H   0  0  0  0  0  0  0  0  0  0  0  0
   46.6570   32.9140   41.7950 O   0  0  0  0  0  0  0  0  0  0  0  0
   48.4580   31.0800   42.2970 O   0  0  0  0  0  0  0  0  0  0  0  0
   48.2940   32.4810   41.8270 P   0  0  1  0  0  0  0  0  0  0  0  0
   48.9690   32.5610   40.2750 O   0  0  0  0  0  0  0  0  0  0  0  0
   47.9700   33.1680   39.4850 C   0  0  2  0  0  3  0  0  0  0  0  0
   47.9440   32.5480   38.0980 C   0  0  0  0  0  3  0  0  0  0  0  0
   48.8720   31.9730   37.8660 H   0  0  0  0  0  0  0  0  0  0  0  0
   47.8640   33.7920   37.2230 C   0  0  0  0  0  3  0  0  0  0  0  0
   46.7900   34.0530   37.1830 H   0  0  0  0  0  0  0  0  0  0  0  0
   48.6410   34.6970   37.9300 O   0  0  0  0  0  0  0  0  0  0  0  0
   48.1930   34.6200   39.2430 C   0  0  0  0  0  3  0  0  0  0  0  0
   47.1790   35.1170   39.2460 H   0  0  0  0  0  0  0  0  0  0  0  0
   49.1040   33.5600   42.8250 O   0  0  0  0  0  0  0  0  0  0  0  0
   50.1830   34.3580   42.4820 C   0  0  0  0  0  0  0  0  0  0  0  0
   49.7280   35.5170   42.4650 O   0  0  0  0  0  0  0  0  0  0  0  0
   51.3680   33.5610   42.2850 N   0  0  0  0  0  0  0  0  0  0  0  0
   51.7710   33.0890   43.1440 H   0  0  0  0  0  0  0  0  0  0  0  0
   51.8990   33.3790   41.3890 H   0  0  0  0  0  0  0  0  0  0  0  0
  1  2  2  0  0  0  0
  1  6  1  0  0  0  0
  2  3  1  0  0  0  0
  3  9  1  0  0  0  0
  3  4  2  0  0  0  0
  5  4  1  0  0  0  0
  5  8  1  0  0  0  0
  6  5  2  0  0  0  0
  7  1  1  0  0  0  0
  9 18  1  0  0  0  0
 10 11  1  0  0  0  0
 10  9  2  0  0  0  0
 11 12  2  0  0  0  0
 12 21  1  0  0  0  0
 12 13  1  0  0  0  0
 13 14  1  0  0  0  0
 14 22  1  0  0  0  0
 14 15  2  0  0  0  0
 15 23  1  0  0  0  0
 16 15  1  0  0  0  0
 16 24  1  0  0  0  0
 17 16  2  0  0  0  0
 18 13  2  0  0  0  0
 18 17  1  0  0  0  0
 19 10  1  0  0  0  0
 20 11  1  0  0  0  0
 25 17  1  0  0  0  0
 26 28  1  0  0  0  0
 26  2  1  0  0  0  0
 28 27  2  1  0  0  0
 28 38  1  0  0  0  0
 29 28  1  0  0  0  0
 30 29  1  1  0  0  0
 31 30  1  0  0  0  0
 32 31  1  0  0  0  0
 33 35  1  0  0  0  0
 33 31  1  0  0  0  0
 34 33  1  0  0  0  0
 35 36  1  0  0  0  0
 36 37  1  0  0  0  0
 36 30  1  0  0  0  0
 39 38  1  0  0  0  0
 40 39  2  0  0  0  0
 41 39  1  0  0  0  0
 41 42  1  0  0  0  0
 43 41  1  0  0  0  0
M  END
>  <minimizedAffinity>
-5.71355677

>  <minimizedRMSD>
1.57032704

$$$$
