
 OpenBabel03242521203D

 25 27  0  0  1  0  0  0  0  0999 V2000
   46.1570   32.8060   44.0290 C   0  0  0  0  0  0  0  0  0  0  0  0
   46.9570   31.8610   43.4510 C   0  0  0  0  0  0  0  0  0  0  0  0
   47.6670   30.9210   44.1590 C   0  0  0  0  0  0  0  0  0  0  0  0
   47.5410   30.9700   45.5080 N   0  0  0  0  0  0  0  0  0  0  0  0
   46.7540   31.9000   46.0820 C   0  0  0  0  0  0  0  0  0  0  0  0
   46.0490   32.8310   45.3970 N   0  0  0  0  0  0  0  0  0  0  0  0
   47.0670   31.8110   42.3670 H   0  0  0  0  0  0  0  0  0  0  0  0
   48.3030   30.1690   43.7110 H   0  0  0  0  0  0  0  0  0  0  0  0
   44.2000   35.7720   43.1610 C   0  0  0  0  0  0  0  0  0  0  0  0
   44.0480   35.6240   41.7750 C   0  0  0  0  0  0  0  0  0  0  0  0
   44.6100   34.5130   41.1280 C   0  0  0  0  0  0  0  0  0  0  0  0
   45.2980   33.6050   41.8990 N   0  0  0  0  0  0  0  0  0  0  0  0
   45.4250   33.7790   43.2290 C   0  0  0  0  0  0  0  0  0  0  0  0
   44.8890   34.8430   43.8550 N   0  0  0  0  0  0  0  0  0  0  0  0
   43.7540   36.6360   43.6060 H   0  0  0  0  0  0  0  0  0  0  0  0
   43.5140   36.3210   41.1470 H   0  0  0  0  0  0  0  0  0  0  0  0
   44.5260   34.3440   40.0600 H   0  0  0  0  0  0  0  0  0  0  0  0
   46.6420   31.9200   47.5640 C   0  0  1  0  0  3  0  0  0  0  0  0
   45.2270   32.1600   48.0470 C   0  0  0  0  0  3  0  0  0  0  0  0
   45.0120   33.2460   48.0930 H   0  0  0  0  0  0  0  0  0  0  0  0
   45.2730   31.5010   49.4110 C   0  0  0  0  0  3  0  0  0  0  0  0
   45.1730   32.3350   50.1560 H   0  0  0  0  0  0  0  0  0  0  0  0
   46.4750   30.8330   49.5220 O   0  0  0  0  0  0  0  0  0  0  0  0
   46.9310   30.5890   48.2120 C   0  0  0  0  0  3  0  0  0  0  0  0
   48.0150   30.3810   48.3140 H   0  0  0  0  0  0  0  0  0  0  0  0
  1  6  1  0  0  0  0
  2  1  2  0  0  0  0
  2  3  1  0  0  0  0
  3  4  2  0  0  0  0
  4  5  1  0  0  0  0
  6  5  2  0  0  0  0
  7  2  1  0  0  0  0
  8  3  1  0  0  0  0
  9 15  1  0  0  0  0
  9 14  1  0  0  0  0
 10  9  2  0  0  0  0
 11 10  1  0  0  0  0
 11 12  2  0  0  0  0
 12 13  1  0  0  0  0
 13 14  2  0  0  0  0
 13  1  1  0  0  0  0
 16 10  1  0  0  0  0
 17 11  1  0  0  0  0
 18  5  1  6  0  0  0
 18 19  1  0  0  0  0
 18 24  1  0  0  0  0
 19 20  1  0  0  0  0
 19 21  1  0  0  0  0
 21 23  1  0  0  0  0
 21 22  1  0  0  0  0
 24 25  1  0  0  0  0
 24 23  1  0  0  0  0
M  END
>  <minimizedAffinity>
-4.2111063

>  <minimizedRMSD>
2.75640225

$$$$
