
 OpenBabel03252501173D

 34 37  0  0  1  0  0  0  0  0999 V2000
   38.0660   30.9010   39.8990 C   0  0  1  0  0  0  0  0  0  0  0  0
   37.0350   31.7760   39.3080 C   0  0  0  0  0  0  0  0  0  0  0  0
   37.8610   32.1750   40.5880 C   0  0  2  0  0  0  0  0  0  0  0  0
   39.0300   30.7280   39.3490 H   0  0  0  0  0  0  0  0  0  0  0  0
   35.9710   31.6650   39.5020 H   0  0  0  0  0  0  0  0  0  0  0  0
   37.2750   32.3370   38.3810 H   0  0  0  0  0  0  0  0  0  0  0  0
   37.2800   32.2200   41.5050 H   0  0  0  0  0  0  0  0  0  0  0  0
   37.1340   28.1890   42.3180 C   0  0  0  0  0  0  0  0  0  0  0  0
   37.6190   29.4080   41.8700 C   0  0  0  0  0  0  0  0  0  0  0  0
   37.5650   29.6290   40.5030 C   0  0  0  0  0  0  0  0  0  0  0  0
   37.0600   28.6840   39.6780 N   0  0  0  0  0  0  0  0  0  0  0  0
   36.5940   27.4980   40.1690 C   0  0  0  0  0  0  0  0  0  0  0  0
   36.6380   27.2620   41.4990 N   0  0  0  0  0  0  0  0  0  0  0  0
   38.0220   30.1620   42.5270 H   0  0  0  0  0  0  0  0  0  0  0  0
   36.1980   26.7650   39.4760 H   0  0  0  0  0  0  0  0  0  0  0  0
   37.1670   27.9270   43.7940 C   0  0  0  0  0  0  0  0  0  0  0  0
   37.3250   29.1360   44.4290 F   0  0  0  0  0  0  0  0  0  0  0  0
   38.2840   27.1590   44.0510 F   0  0  0  0  0  0  0  0  0  0  0  0
   36.0120   27.3290   44.2230 F   0  0  0  0  0  0  0  0  0  0  0  0
   38.8750   33.2380   40.3050 C   0  0  0  0  0  0  0  0  0  0  0  0
   38.6740   34.6140   40.2680 C   0  0  0  0  0  0  0  0  0  0  0  0
   39.9360   35.0840   39.9660 C   0  0  0  0  0  0  0  0  0  0  0  0
   40.8250   34.0330   39.8340 C   0  0  0  0  0  0  0  0  0  0  0  0
   40.1130   32.9520   40.0530 O   0  0  0  0  0  0  0  0  0  0  0  0
   37.7510   35.1350   40.4380 H   0  0  0  0  0  0  0  0  0  0  0  0
   40.2000   36.1330   39.8460 H   0  0  0  0  0  0  0  0  0  0  0  0
   42.2490   34.0100   39.5260 C   0  0  1  0  0  3  0  0  0  0  0  0
   42.6080   32.5620   39.1680 C   0  0  0  0  0  3  0  0  0  0  0  0
   42.0860   31.9040   39.8670 H   0  0  0  0  0  0  0  0  0  0  0  0
   42.0820   32.4990   37.7460 C   0  0  0  0  0  3  0  0  0  0  0  0
   42.7960   32.0070   37.0640 H   0  0  0  0  0  0  0  0  0  0  0  0
   41.8100   33.7780   37.3320 O   0  0  0  0  0  0  0  0  0  0  0  0
   42.4770   34.6620   38.1780 C   0  0  0  0  0  3  0  0  0  0  0  0
   42.0490   35.6640   38.0860 H   0  0  0  0  0  0  0  0  0  0  0  0
  1  4  1  6  0  0  0
  1 10  1  0  0  0  0
  1  3  1  0  0  0  0
  2  5  1  0  0  0  0
  2  1  1  0  0  0  0
  2  3  1  0  0  0  0
  3  7  1  1  0  0  0
  6  2  1  0  0  0  0
  8 16  1  0  0  0  0
  9  8  1  0  0  0  0
  9 14  1  0  0  0  0
 10  9  2  0  0  0  0
 11 12  2  0  0  0  0
 11 10  1  0  0  0  0
 12 13  1  0  0  0  0
 13  8  2  0  0  0  0
 15 12  1  0  0  0  0
 16 18  1  0  0  0  0
 16 19  1  0  0  0  0
 16 17  1  0  0  0  0
 20  3  1  0  0  0  0
 21 20  2  0  0  0  0
 21 25  1  0  0  0  0
 22 21  1  0  0  0  0
 23 22  2  0  0  0  0
 23 24  1  0  0  0  0
 24 20  1  0  0  0  0
 26 22  1  0  0  0  0
 27 23  1  6  0  0  0
 28 27  1  0  0  0  0
 28 29  1  0  0  0  0
 30 28  1  0  0  0  0
 31 30  1  0  0  0  0
 32 30  1  0  0  0  0
 32 33  1  0  0  0  0
 33 27  1  0  0  0  0
 34 33  1  0  0  0  0
M  END
>  <minimizedAffinity>
-6.10121012

$$$$

 OpenBabel03252501173D

 34 37  0  0  1  0  0  0  0  0999 V2000
   38.3670   31.3550   39.9410 C   0  0  1  0  0  0  0  0  0  0  0  0
   37.7190   32.3210   39.0330 C   0  0  0  0  0  0  0  0  0  0  0  0
   38.2760   32.7230   40.4490 C   0  0  2  0  0  0  0  0  0  0  0  0
   39.3760   30.9360   39.6800 H   0  0  0  0  0  0  0  0  0  0  0  0
   36.6410   32.4350   38.9480 H   0  0  0  0  0  0  0  0  0  0  0  0
   38.2890   32.7020   38.1610 H   0  0  0  0  0  0  0  0  0  0  0  0
   37.5150   32.9950   41.1750 H   0  0  0  0  0  0  0  0  0  0  0  0
   36.8830   28.6570   42.0870 C   0  0  0  0  0  0  0  0  0  0  0  0
   37.7760   29.6360   41.6770 C   0  0  0  0  0  0  0  0  0  0  0  0
   37.4760   30.2880   40.4910 C   0  0  0  0  0  0  0  0  0  0  0  0
   36.3640   29.9600   39.7940 N   0  0  0  0  0  0  0  0  0  0  0  0
   35.5160   28.9880   40.2400 C   0  0  0  0  0  0  0  0  0  0  0  0
   35.7890   28.3400   41.3950 N   0  0  0  0  0  0  0  0  0  0  0  0
   38.6630   29.8980   42.2320 H   0  0  0  0  0  0  0  0  0  0  0  0
   34.6350   28.7530   39.6530 H   0  0  0  0  0  0  0  0  0  0  0  0
   37.1740   27.9450   43.3740 C   0  0  0  0  0  0  0  0  0  0  0  0
   37.3060   28.8970   44.3560 F   0  0  0  0  0  0  0  0  0  0  0  0
   38.3900   27.3100   43.2270 F   0  0  0  0  0  0  0  0  0  0  0  0
   36.1680   27.0780   43.7050 F   0  0  0  0  0  0  0  0  0  0  0  0
   39.5310   33.5340   40.3600 C   0  0  0  0  0  0  0  0  0  0  0  0
   39.6460   34.9210   40.3490 C   0  0  0  0  0  0  0  0  0  0  0  0
   41.0110   35.0990   40.2530 C   0  0  0  0  0  0  0  0  0  0  0  0
   41.6560   33.8750   40.2110 C   0  0  0  0  0  0  0  0  0  0  0  0
   40.6990   32.9800   40.2800 O   0  0  0  0  0  0  0  0  0  0  0  0
   38.8460   35.6340   40.4030 H   0  0  0  0  0  0  0  0  0  0  0  0
   41.5150   36.0620   40.2150 H   0  0  0  0  0  0  0  0  0  0  0  0
   43.0700   33.5370   40.1130 C   0  0  1  0  0  3  0  0  0  0  0  0
   43.8250   34.4800   41.0580 C   0  0  0  0  0  3  0  0  0  0  0  0
   43.3890   35.4770   40.9570 H   0  0  0  0  0  0  0  0  0  0  0  0
   43.5380   33.8100   42.3900 C   0  0  0  0  0  3  0  0  0  0  0  0
   44.4410   33.7420   43.0200 H   0  0  0  0  0  0  0  0  0  0  0  0
   43.0180   32.5650   42.1410 O   0  0  0  0  0  0  0  0  0  0  0  0
   43.3170   32.2220   40.8240 C   0  0  0  0  0  3  0  0  0  0  0  0
   42.6710   31.4050   40.4930 H   0  0  0  0  0  0  0  0  0  0  0  0
  1  4  1  6  0  0  0
  1  3  1  0  0  0  0
  1 10  1  0  0  0  0
  2  1  1  0  0  0  0
  2  3  1  0  0  0  0
  3  7  1  1  0  0  0
  5  2  1  0  0  0  0
  6  2  1  0  0  0  0
  8 16  1  0  0  0  0
  9  8  1  0  0  0  0
  9 14  1  0  0  0  0
 10  9  2  0  0  0  0
 11 12  2  0  0  0  0
 11 10  1  0  0  0  0
 12 13  1  0  0  0  0
 13  8  2  0  0  0  0
 15 12  1  0  0  0  0
 16 19  1  0  0  0  0
 16 17  1  0  0  0  0
 18 16  1  0  0  0  0
 20  3  1  0  0  0  0
 21 20  2  0  0  0  0
 21 25  1  0  0  0  0
 22 21  1  0  0  0  0
 23 22  2  0  0  0  0
 23 24  1  0  0  0  0
 24 20  1  0  0  0  0
 26 22  1  0  0  0  0
 27 23  1  1  0  0  0
 27 33  1  0  0  0  0
 27 28  1  0  0  0  0
 28 30  1  0  0  0  0
 29 28  1  0  0  0  0
 30 31  1  0  0  0  0
 32 30  1  0  0  0  0
 33 32  1  0  0  0  0
 34 33  1  0  0  0  0
M  END
>  <minimizedAffinity>
-5.73330927

$$$$

 OpenBabel03252501173D

 34 37  0  0  1  0  0  0  0  0999 V2000
   38.1030   31.9470   40.0980 C   0  0  1  0  0  0  0  0  0  0  0  0
   36.9430   32.0160   39.1880 C   0  0  0  0  0  0  0  0  0  0  0  0
   37.9650   30.8200   39.1770 C   0  0  2  0  0  0  0  0  0  0  0  0
   37.9390   31.7760   41.1960 H   0  0  0  0  0  0  0  0  0  0  0  0
   36.9390   32.5870   38.2630 H   0  0  0  0  0  0  0  0  0  0  0  0
   35.9330   31.7890   39.5890 H   0  0  0  0  0  0  0  0  0  0  0  0
   38.5790   30.7580   38.2830 H   0  0  0  0  0  0  0  0  0  0  0  0
   41.1180   33.7940   38.8420 C   0  0  0  0  0  0  0  0  0  0  0  0
   40.1860   32.7740   38.9620 C   0  0  0  0  0  0  0  0  0  0  0  0
   39.1620   32.9780   39.8740 C   0  0  0  0  0  0  0  0  0  0  0  0
   39.1050   34.1220   40.5930 N   0  0  0  0  0  0  0  0  0  0  0  0
   40.0480   35.0970   40.4390 C   0  0  0  0  0  0  0  0  0  0  0  0
   41.0560   34.9190   39.5550 N   0  0  0  0  0  0  0  0  0  0  0  0
   40.2310   31.8620   38.3890 H   0  0  0  0  0  0  0  0  0  0  0  0
   39.9690   35.9990   41.0340 H   0  0  0  0  0  0  0  0  0  0  0  0
   42.2300   33.6090   37.8540 C   0  0  0  0  0  0  0  0  0  0  0  0
   43.3150   33.1100   38.5360 F   0  0  0  0  0  0  0  0  0  0  0  0
   42.5650   34.8570   37.3720 F   0  0  0  0  0  0  0  0  0  0  0  0
   41.8750   32.7410   36.8560 F   0  0  0  0  0  0  0  0  0  0  0  0
   37.3880   29.5690   39.7610 C   0  0  0  0  0  0  0  0  0  0  0  0
   36.8370   28.4890   39.0780 C   0  0  0  0  0  0  0  0  0  0  0  0
   36.4750   27.6470   40.1100 C   0  0  0  0  0  0  0  0  0  0  0  0
   36.8010   28.2100   41.3310 C   0  0  0  0  0  0  0  0  0  0  0  0
   37.3470   29.3680   41.0410 O   0  0  0  0  0  0  0  0  0  0  0  0
   36.7390   28.3820   38.0150 H   0  0  0  0  0  0  0  0  0  0  0  0
   36.0010   26.6750   39.9880 H   0  0  0  0  0  0  0  0  0  0  0  0
   36.6250   27.7220   42.6930 C   0  0  1  0  0  3  0  0  0  0  0  0
   37.0020   26.2350   42.6890 C   0  0  0  0  0  3  0  0  0  0  0  0
   36.5910   25.7860   41.7830 H   0  0  0  0  0  0  0  0  0  0  0  0
   38.5160   26.3430   42.6970 C   0  0  0  0  0  3  0  0  0  0  0  0
   38.9760   25.6420   43.4150 H   0  0  0  0  0  0  0  0  0  0  0  0
   38.8520   27.6400   42.9930 O   0  0  0  0  0  0  0  0  0  0  0  0
   37.7420   28.2600   43.5630 C   0  0  0  0  0  3  0  0  0  0  0  0
   37.8580   29.3460   43.5230 H   0  0  0  0  0  0  0  0  0  0  0  0
  1  4  1  1  0  0  0
  2  6  1  0  0  0  0
  2  1  1  0  0  0  0
  3  7  1  6  0  0  0
  3  2  1  0  0  0  0
  3 20  1  0  0  0  0
  3  1  1  0  0  0  0
  5  2  1  0  0  0  0
  8  9  2  0  0  0  0
  8 13  1  0  0  0  0
  9 10  1  0  0  0  0
 10  1  1  0  0  0  0
 10 11  2  0  0  0  0
 12 11  1  0  0  0  0
 12 15  1  0  0  0  0
 13 12  2  0  0  0  0
 14  9  1  0  0  0  0
 16 17  1  0  0  0  0
 16  8  1  0  0  0  0
 18 16  1  0  0  0  0
 19 16  1  0  0  0  0
 20 24  1  0  0  0  0
 21 20  2  0  0  0  0
 21 22  1  0  0  0  0
 22 23  2  0  0  0  0
 24 23  1  0  0  0  0
 25 21  1  0  0  0  0
 26 22  1  0  0  0  0
 27 23  1  6  0  0  0
 27 33  1  0  0  0  0
 28 27  1  0  0  0  0
 28 30  1  0  0  0  0
 29 28  1  0  0  0  0
 30 32  1  0  0  0  0
 30 31  1  0  0  0  0
 32 33  1  0  0  0  0
 34 33  1  0  0  0  0
M  END
>  <minimizedAffinity>
-5.67382526

$$$$

 OpenBabel03252501173D

 34 37  0  0  1  0  0  0  0  0999 V2000
   39.4230   30.4220   41.4320 C   0  0  1  0  0  0  0  0  0  0  0  0
   40.3250   29.9380   42.4960 C   0  0  0  0  0  0  0  0  0  0  0  0
   38.7860   30.1740   42.7250 C   0  0  2  0  0  0  0  0  0  0  0  0
   39.1760   29.7510   40.5650 H   0  0  0  0  0  0  0  0  0  0  0  0
   40.9530   30.5940   43.0940 H   0  0  0  0  0  0  0  0  0  0  0  0
   40.6570   28.8790   42.4760 H   0  0  0  0  0  0  0  0  0  0  0  0
   38.5490   30.9980   43.3910 H   0  0  0  0  0  0  0  0  0  0  0  0
   41.0530   33.6280   40.3620 C   0  0  0  0  0  0  0  0  0  0  0  0
   40.9490   32.3120   40.7860 C   0  0  0  0  0  0  0  0  0  0  0  0
   39.6650   31.8220   40.9680 C   0  0  0  0  0  0  0  0  0  0  0  0
   38.5930   32.6130   40.7350 N   0  0  0  0  0  0  0  0  0  0  0  0
   38.7480   33.9040   40.3180 C   0  0  0  0  0  0  0  0  0  0  0  0
   39.9920   34.4020   40.1350 N   0  0  0  0  0  0  0  0  0  0  0  0
   41.8030   31.6800   40.9720 H   0  0  0  0  0  0  0  0  0  0  0  0
   37.8650   34.5060   40.1430 H   0  0  0  0  0  0  0  0  0  0  0  0
   42.4290   34.1810   40.1440 C   0  0  0  0  0  0  0  0  0  0  0  0
   43.3230   33.1470   40.2900 F   0  0  0  0  0  0  0  0  0  0  0  0
   42.6680   35.0980   41.1470 F   0  0  0  0  0  0  0  0  0  0  0  0
   42.5580   34.7280   38.8950 F   0  0  0  0  0  0  0  0  0  0  0  0
   38.0220   28.8920   42.8380 C   0  0  0  0  0  0  0  0  0  0  0  0
   37.3260   28.4140   43.9440 C   0  0  0  0  0  0  0  0  0  0  0  0
   36.8320   27.2120   43.4780 C   0  0  0  0  0  0  0  0  0  0  0  0
   37.2220   27.0030   42.1680 C   0  0  0  0  0  0  0  0  0  0  0  0
   37.9370   28.0570   41.8500 O   0  0  0  0  0  0  0  0  0  0  0  0
   37.2250   28.8940   44.8980 H   0  0  0  0  0  0  0  0  0  0  0  0
   36.2210   26.5210   44.0560 H   0  0  0  0  0  0  0  0  0  0  0  0
   36.9600   25.9020   41.2500 C   0  0  1  0  0  3  0  0  0  0  0  0
   38.2360   25.6940   40.4220 C   0  0  0  0  0  3  0  0  0  0  0  0
   38.6290   26.6780   40.1580 H   0  0  0  0  0  0  0  0  0  0  0  0
   39.0860   24.9360   41.4260 C   0  0  0  0  0  3  0  0  0  0  0  0
   39.5970   24.0740   40.9640 H   0  0  0  0  0  0  0  0  0  0  0  0
   38.2750   24.5320   42.4560 O   0  0  0  0  0  0  0  0  0  0  0  0
   36.9520   24.6000   42.0240 C   0  0  0  0  0  3  0  0  0  0  0  0
   36.2760   24.5930   42.8830 H   0  0  0  0  0  0  0  0  0  0  0  0
  1  4  1  6  0  0  0
  1  2  1  0  0  0  0
  1  3  1  0  0  0  0
  2  3  1  0  0  0  0
  2  5  1  0  0  0  0
  3 20  1  0  0  0  0
  3  7  1  1  0  0  0
  6  2  1  0  0  0  0
  8  9  1  0  0  0  0
  9 10  2  0  0  0  0
  9 14  1  0  0  0  0
 10  1  1  0  0  0  0
 11 10  1  0  0  0  0
 12 11  2  0  0  0  0
 13 12  1  0  0  0  0
 13  8  2  0  0  0  0
 15 12  1  0  0  0  0
 16 17  1  0  0  0  0
 16  8  1  0  0  0  0
 16 18  1  0  0  0  0
 19 16  1  0  0  0  0
 20 21  2  0  0  0  0
 21 25  1  0  0  0  0
 22 21  1  0  0  0  0
 22 26  1  0  0  0  0
 23 22  2  0  0  0  0
 24 23  1  0  0  0  0
 24 20  1  0  0  0  0
 27 33  1  0  0  0  0
 27 23  1  1  0  0  0
 28 27  1  0  0  0  0
 28 30  1  0  0  0  0
 29 28  1  0  0  0  0
 30 32  1  0  0  0  0
 31 30  1  0  0  0  0
 33 32  1  0  0  0  0
 33 34  1  0  0  0  0
M  END
>  <minimizedAffinity>
-5.6617074

$$$$

 OpenBabel03252501173D

 34 37  0  0  1  0  0  0  0  0999 V2000
   34.7180   28.5950   37.9570 C   0  0  1  0  0  0  0  0  0  0  0  0
   35.7740   29.6210   38.0630 C   0  0  0  0  0  0  0  0  0  0  0  0
   35.0320   29.0280   39.3180 C   0  0  2  0  0  0  0  0  0  0  0  0
   34.9860   27.5510   37.6410 H   0  0  0  0  0  0  0  0  0  0  0  0
   35.5950   30.6840   37.9200 H   0  0  0  0  0  0  0  0  0  0  0  0
   36.8330   29.3150   37.9350 H   0  0  0  0  0  0  0  0  0  0  0  0
   34.3880   29.7320   39.8370 H   0  0  0  0  0  0  0  0  0  0  0  0
   31.2420   29.8610   37.3280 C   0  0  0  0  0  0  0  0  0  0  0  0
   32.3680   29.4830   38.0430 C   0  0  0  0  0  0  0  0  0  0  0  0
   33.4510   29.0390   37.2990 C   0  0  0  0  0  0  0  0  0  0  0  0
   33.3780   28.9900   35.9500 N   0  0  0  0  0  0  0  0  0  0  0  0
   32.2450   29.3730   35.2920 C   0  0  0  0  0  0  0  0  0  0  0  0
   31.1770   29.8080   35.9980 N   0  0  0  0  0  0  0  0  0  0  0  0
   32.4270   29.5220   39.1190 H   0  0  0  0  0  0  0  0  0  0  0  0
   32.2250   29.3180   34.2100 H   0  0  0  0  0  0  0  0  0  0  0  0
   30.0590   30.3580   38.1050 C   0  0  0  0  0  0  0  0  0  0  0  0
   30.1650   31.7260   38.1930 F   0  0  0  0  0  0  0  0  0  0  0  0
   30.1560   29.8380   39.3790 F   0  0  0  0  0  0  0  0  0  0  0  0
   28.8820   30.0250   37.4920 F   0  0  0  0  0  0  0  0  0  0  0  0
   35.9010   28.1020   40.1100 C   0  0  0  0  0  0  0  0  0  0  0  0
   36.5570   26.9610   39.6600 C   0  0  0  0  0  0  0  0  0  0  0  0
   37.1920   26.5200   40.8030 C   0  0  0  0  0  0  0  0  0  0  0  0
   36.9170   27.3640   41.8640 C   0  0  0  0  0  0  0  0  0  0  0  0
   36.1340   28.2940   41.3700 O   0  0  0  0  0  0  0  0  0  0  0  0
   36.5430   26.5610   38.6640 H   0  0  0  0  0  0  0  0  0  0  0  0
   37.8200   25.6340   40.8680 H   0  0  0  0  0  0  0  0  0  0  0  0
   37.3450   27.3290   43.2570 C   0  0  1  0  0  3  0  0  0  0  0  0
   38.8050   26.8560   43.2660 C   0  0  0  0  0  3  0  0  0  0  0  0
   38.9020   26.0480   42.5380 H   0  0  0  0  0  0  0  0  0  0  0  0
   39.5050   28.1420   42.8620 C   0  0  0  0  0  3  0  0  0  0  0  0
   40.3960   28.3390   43.4830 H   0  0  0  0  0  0  0  0  0  0  0  0
   38.6020   29.1700   42.9590 O   0  0  0  0  0  0  0  0  0  0  0  0
   37.5400   28.7460   43.7540 C   0  0  0  0  0  3  0  0  0  0  0  0
   36.6750   29.3970   43.6030 H   0  0  0  0  0  0  0  0  0  0  0  0
  1  4  1  6  0  0  0
  1  2  1  0  0  0  0
  1  3  1  0  0  0  0
  2  3  1  0  0  0  0
  3  7  1  1  0  0  0
  3 20  1  0  0  0  0
  5  2  1  0  0  0  0
  6  2  1  0  0  0  0
  8  9  1  0  0  0  0
  8 16  1  0  0  0  0
  9 14  1  0  0  0  0
 10  1  1  0  0  0  0
 10  9  2  0  0  0  0
 11 10  1  0  0  0  0
 12 11  2  0  0  0  0
 12 13  1  0  0  0  0
 13  8  2  0  0  0  0
 15 12  1  0  0  0  0
 16 17  1  0  0  0  0
 16 18  1  0  0  0  0
 19 16  1  0  0  0  0
 20 24  1  0  0  0  0
 21 20  2  0  0  0  0
 21 22  1  0  0  0  0
 22 26  1  0  0  0  0
 22 23  2  0  0  0  0
 24 23  1  0  0  0  0
 25 21  1  0  0  0  0
 27 23  1  6  0  0  0
 27 28  1  0  0  0  0
 27 33  1  0  0  0  0
 29 28  1  0  0  0  0
 30 32  1  0  0  0  0
 30 28  1  0  0  0  0
 30 31  1  0  0  0  0
 32 33  1  0  0  0  0
 34 33  1  0  0  0  0
M  END
>  <minimizedAffinity>
-5.63674974

$$$$

 OpenBabel03252501173D

 34 37  0  0  1  0  0  0  0  0999 V2000
   37.8180   29.9970   39.2210 C   0  0  1  0  0  0  0  0  0  0  0  0
   36.9920   30.6590   38.1910 C   0  0  0  0  0  0  0  0  0  0  0  0
   37.0510   31.1530   39.6850 C   0  0  2  0  0  0  0  0  0  0  0  0
   38.9370   30.0720   39.1690 H   0  0  0  0  0  0  0  0  0  0  0  0
   36.0080   30.3060   37.8940 H   0  0  0  0  0  0  0  0  0  0  0  0
   37.4900   31.3110   37.4440 H   0  0  0  0  0  0  0  0  0  0  0  0
   36.1290   31.0170   40.2430 H   0  0  0  0  0  0  0  0  0  0  0  0
   37.0500   26.8650   41.1390 C   0  0  0  0  0  0  0  0  0  0  0  0
   37.4590   28.1690   40.9080 C   0  0  0  0  0  0  0  0  0  0  0  0
   37.3950   28.6130   39.5960 C   0  0  0  0  0  0  0  0  0  0  0  0
   36.9530   27.7910   38.6180 N   0  0  0  0  0  0  0  0  0  0  0  0
   36.5610   26.5130   38.8960 C   0  0  0  0  0  0  0  0  0  0  0  0
   36.6160   26.0600   40.1690 N   0  0  0  0  0  0  0  0  0  0  0  0
   37.8110   28.8260   41.6880 H   0  0  0  0  0  0  0  0  0  0  0  0
   36.2140   25.8840   38.0850 H   0  0  0  0  0  0  0  0  0  0  0  0
   37.0940   26.3610   42.5500 C   0  0  0  0  0  0  0  0  0  0  0  0
   36.6090   25.0750   42.5490 F   0  0  0  0  0  0  0  0  0  0  0  0
   36.2340   27.1420   43.2940 F   0  0  0  0  0  0  0  0  0  0  0  0
   38.3700   26.3710   43.0460 F   0  0  0  0  0  0  0  0  0  0  0  0
   37.8210   32.4260   39.8350 C   0  0  0  0  0  0  0  0  0  0  0  0
   37.3440   33.7270   39.7060 C   0  0  0  0  0  0  0  0  0  0  0  0
   38.4770   34.4780   39.9460 C   0  0  0  0  0  0  0  0  0  0  0  0
   39.5580   33.6530   40.2020 C   0  0  0  0  0  0  0  0  0  0  0  0
   39.0860   32.4320   40.1180 O   0  0  0  0  0  0  0  0  0  0  0  0
   36.3390   34.0240   39.4760 H   0  0  0  0  0  0  0  0  0  0  0  0
   38.5210   35.5650   39.9360 H   0  0  0  0  0  0  0  0  0  0  0  0
   40.9500   33.9590   40.5080 C   0  0  1  0  0  3  0  0  0  0  0  0
   41.7700   32.7060   40.1690 C   0  0  0  0  0  3  0  0  0  0  0  0
   41.2080   31.8350   40.5100 H   0  0  0  0  0  0  0  0  0  0  0  0
   41.8500   32.8400   38.6590 C   0  0  0  0  0  3  0  0  0  0  0  0
   42.8670   32.6390   38.2810 H   0  0  0  0  0  0  0  0  0  0  0  0
   41.4400   34.1040   38.3180 O   0  0  0  0  0  0  0  0  0  0  0  0
   41.4940   34.9040   39.4570 C   0  0  0  0  0  3  0  0  0  0  0  0
   40.8950   35.8060   39.3110 H   0  0  0  0  0  0  0  0  0  0  0  0
  1  4  1  6  0  0  0
  1 10  1  0  0  0  0
  1  3  1  0  0  0  0
  2  1  1  0  0  0  0
  2  3  1  0  0  0  0
  3 20  1  0  0  0  0
  3  7  1  1  0  0  0
  5  2  1  0  0  0  0
  6  2  1  0  0  0  0
  8 16  1  0  0  0  0
  9  8  1  0  0  0  0
  9 14  1  0  0  0  0
 10  9  2  0  0  0  0
 11 12  2  0  0  0  0
 11 10  1  0  0  0  0
 12 13  1  0  0  0  0
 13  8  2  0  0  0  0
 15 12  1  0  0  0  0
 16 19  1  0  0  0  0
 16 18  1  0  0  0  0
 17 16  1  0  0  0  0
 20 24  1  0  0  0  0
 21 20  2  0  0  0  0
 21 22  1  0  0  0  0
 22 23  2  0  0  0  0
 24 23  1  0  0  0  0
 25 21  1  0  0  0  0
 26 22  1  0  0  0  0
 27 23  1  6  0  0  0
 28 27  1  0  0  0  0
 28 29  1  0  0  0  0
 30 28  1  0  0  0  0
 31 30  1  0  0  0  0
 32 30  1  0  0  0  0
 32 33  1  0  0  0  0
 33 27  1  0  0  0  0
 34 33  1  0  0  0  0
M  END
>  <minimizedAffinity>
-5.60946131

$$$$

 OpenBabel03252501173D

 34 37  0  0  1  0  0  0  0  0999 V2000
   36.4340   29.1780   39.7980 C   0  0  1  0  0  0  0  0  0  0  0  0
   35.9940   30.2540   40.7070 C   0  0  0  0  0  0  0  0  0  0  0  0
   35.8310   28.7270   41.0510 C   0  0  2  0  0  0  0  0  0  0  0  0
   37.5310   29.0060   39.6290 H   0  0  0  0  0  0  0  0  0  0  0  0
   35.0450   30.7750   40.6060 H   0  0  0  0  0  0  0  0  0  0  0  0
   36.7580   30.8050   41.2940 H   0  0  0  0  0  0  0  0  0  0  0  0
   34.8030   28.3760   41.0750 H   0  0  0  0  0  0  0  0  0  0  0  0
   35.4990   29.1160   36.1640 C   0  0  0  0  0  0  0  0  0  0  0  0
   36.3030   29.2320   37.2890 C   0  0  0  0  0  0  0  0  0  0  0  0
   35.6760   29.0670   38.5150 C   0  0  0  0  0  0  0  0  0  0  0  0
   34.3500   28.8080   38.5750 N   0  0  0  0  0  0  0  0  0  0  0  0
   33.6020   28.7040   37.4370 C   0  0  0  0  0  0  0  0  0  0  0  0
   34.1930   28.8610   36.2310 N   0  0  0  0  0  0  0  0  0  0  0  0
   37.3600   29.4380   37.2420 H   0  0  0  0  0  0  0  0  0  0  0  0
   32.5420   28.4960   37.5260 H   0  0  0  0  0  0  0  0  0  0  0  0
   36.1510   29.2760   34.8240 C   0  0  0  0  0  0  0  0  0  0  0  0
   35.4260   28.5390   33.9170 F   0  0  0  0  0  0  0  0  0  0  0  0
   37.4130   28.7240   34.9110 F   0  0  0  0  0  0  0  0  0  0  0  0
   36.1800   30.5870   34.4330 F   0  0  0  0  0  0  0  0  0  0  0  0
   36.7880   28.2730   42.1080 C   0  0  0  0  0  0  0  0  0  0  0  0
   36.4980   27.9290   43.4250 C   0  0  0  0  0  0  0  0  0  0  0  0
   37.7430   27.5980   43.9200 C   0  0  0  0  0  0  0  0  0  0  0  0
   38.7080   27.7440   42.9390 C   0  0  0  0  0  0  0  0  0  0  0  0
   38.0570   28.1540   41.8750 O   0  0  0  0  0  0  0  0  0  0  0  0
   35.5330   27.9330   43.8940 H   0  0  0  0  0  0  0  0  0  0  0  0
   37.9450   27.2700   44.9370 H   0  0  0  0  0  0  0  0  0  0  0  0
   40.1480   27.5230   42.9650 C   0  0  1  0  0  3  0  0  0  0  0  0
   40.4210   26.4720   44.0500 C   0  0  0  0  0  3  0  0  0  0  0  0
   39.7850   26.7020   44.9080 H   0  0  0  0  0  0  0  0  0  0  0  0
   40.0260   25.2100   43.3050 C   0  0  0  0  0  3  0  0  0  0  0  0
   40.7590   24.3980   43.4530 H   0  0  0  0  0  0  0  0  0  0  0  0
   39.8990   25.5190   41.9750 O   0  0  0  0  0  0  0  0  0  0  0  0
   40.5520   26.7270   41.7420 C   0  0  0  0  0  3  0  0  0  0  0  0
   40.2170   27.1590   40.7950 H   0  0  0  0  0  0  0  0  0  0  0  0
  1  4  1  6  0  0  0
  1  2  1  0  0  0  0
  1  3  1  0  0  0  0
  2  3  1  0  0  0  0
  2  6  1  0  0  0  0
  3  7  1  6  0  0  0
  3 20  1  0  0  0  0
  5  2  1  0  0  0  0
  8 13  2  0  0  0  0
  8  9  1  0  0  0  0
  9 10  2  0  0  0  0
 10 11  1  0  0  0  0
 10  1  1  0  0  0  0
 12 15  1  0  0  0  0
 12 11  2  0  0  0  0
 13 12  1  0  0  0  0
 14  9  1  0  0  0  0
 16 18  1  0  0  0  0
 16  8  1  0  0  0  0
 17 16  1  0  0  0  0
 19 16  1  0  0  0  0
 20 21  2  0  0  0  0
 21 25  1  0  0  0  0
 21 22  1  0  0  0  0
 22 26  1  0  0  0  0
 23 22  2  0  0  0  0
 24 20  1  0  0  0  0
 24 23  1  0  0  0  0
 27 23  1  6  0  0  0
 27 28  1  0  0  0  0
 28 29  1  0  0  0  0
 30 31  1  0  0  0  0
 30 28  1  0  0  0  0
 32 30  1  0  0  0  0
 33 32  1  0  0  0  0
 33 27  1  0  0  0  0
 34 33  1  0  0  0  0
M  END
>  <minimizedAffinity>
-5.51038408

$$$$

 OpenBabel03252501173D

 34 37  0  0  1  0  0  0  0  0999 V2000
   40.0940   29.6210   41.7060 C   0  0  1  0  0  0  0  0  0  0  0  0
   40.6690   29.0290   42.9300 C   0  0  0  0  0  0  0  0  0  0  0  0
   39.1610   29.4690   42.8230 C   0  0  2  0  0  0  0  0  0  0  0  0
   39.9570   28.9850   40.7910 H   0  0  0  0  0  0  0  0  0  0  0  0
   41.2310   29.5990   43.6650 H   0  0  0  0  0  0  0  0  0  0  0  0
   40.8550   27.9350   42.9590 H   0  0  0  0  0  0  0  0  0  0  0  0
   38.8940   30.3210   43.4400 H   0  0  0  0  0  0  0  0  0  0  0  0
   40.3560   33.1890   40.5720 C   0  0  0  0  0  0  0  0  0  0  0  0
   39.7640   31.9770   40.8940 C   0  0  0  0  0  0  0  0  0  0  0  0
   40.6120   30.9740   41.3380 C   0  0  0  0  0  0  0  0  0  0  0  0
   41.9410   31.2000   41.4410 N   0  0  0  0  0  0  0  0  0  0  0  0
   42.4760   32.4130   41.1110 C   0  0  0  0  0  0  0  0  0  0  0  0
   41.6670   33.4040   40.6750 N   0  0  0  0  0  0  0  0  0  0  0  0
   38.7040   31.7950   40.8120 H   0  0  0  0  0  0  0  0  0  0  0  0
   43.5460   32.5550   41.2060 H   0  0  0  0  0  0  0  0  0  0  0  0
   39.4610   34.2960   40.1010 C   0  0  0  0  0  0  0  0  0  0  0  0
   40.1970   35.0950   39.2580 F   0  0  0  0  0  0  0  0  0  0  0  0
   39.1160   35.0450   41.2070 F   0  0  0  0  0  0  0  0  0  0  0  0
   38.3680   33.8100   39.4370 F   0  0  0  0  0  0  0  0  0  0  0  0
   38.2300   28.3000   42.7370 C   0  0  0  0  0  0  0  0  0  0  0  0
   37.3480   27.8450   43.7120 C   0  0  0  0  0  0  0  0  0  0  0  0
   36.7630   26.7600   43.0910 C   0  0  0  0  0  0  0  0  0  0  0  0
   37.2810   26.5940   41.8190 C   0  0  0  0  0  0  0  0  0  0  0  0
   38.1590   27.5590   41.6770 O   0  0  0  0  0  0  0  0  0  0  0  0
   37.1940   28.2640   44.6870 H   0  0  0  0  0  0  0  0  0  0  0  0
   36.0030   26.1200   43.5340 H   0  0  0  0  0  0  0  0  0  0  0  0
   36.9930   25.6090   40.7840 C   0  0  1  0  0  3  0  0  0  0  0  0
   38.3160   25.3130   40.0650 C   0  0  0  0  0  3  0  0  0  0  0  0
   38.8440   26.2590   39.9300 H   0  0  0  0  0  0  0  0  0  0  0  0
   38.9650   24.3800   41.0720 C   0  0  0  0  0  3  0  0  0  0  0  0
   39.4210   23.5010   40.5850 H   0  0  0  0  0  0  0  0  0  0  0  0
   38.0100   23.9980   41.9800 O   0  0  0  0  0  0  0  0  0  0  0  0
   36.7560   24.2610   41.4330 C   0  0  0  0  0  3  0  0  0  0  0  0
   35.9980   24.2690   42.2200 H   0  0  0  0  0  0  0  0  0  0  0  0
  1  4  1  6  0  0  0
  1  3  1  0  0  0  0
  1  2  1  0  0  0  0
  2  6  1  0  0  0  0
  2  5  1  0  0  0  0
  3  2  1  0  0  0  0
  3  7  1  1  0  0  0
  8 13  2  0  0  0  0
  8  9  1  0  0  0  0
  9 10  2  0  0  0  0
 10 11  1  0  0  0  0
 10  1  1  0  0  0  0
 12 15  1  0  0  0  0
 12 11  2  0  0  0  0
 13 12  1  0  0  0  0
 14  9  1  0  0  0  0
 16  8  1  0  0  0  0
 16 18  1  0  0  0  0
 17 16  1  0  0  0  0
 19 16  1  0  0  0  0
 20  3  1  0  0  0  0
 20 21  2  0  0  0  0
 21 25  1  0  0  0  0
 22 26  1  0  0  0  0
 22 21  1  0  0  0  0
 23 22  2  0  0  0  0
 24 23  1  0  0  0  0
 24 20  1  0  0  0  0
 27 33  1  0  0  0  0
 27 23  1  1  0  0  0
 28 27  1  0  0  0  0
 28 30  1  0  0  0  0
 29 28  1  0  0  0  0
 30 32  1  0  0  0  0
 31 30  1  0  0  0  0
 33 32  1  0  0  0  0
 33 34  1  0  0  0  0
M  END
>  <minimizedAffinity>
-5.43328285

$$$$

 OpenBabel03252501173D

 34 37  0  0  1  0  0  0  0  0999 V2000
   39.9870   32.5560   40.0560 C   0  0  1  0  0  0  0  0  0  0  0  0
   38.9680   33.5980   40.2850 C   0  0  0  0  0  0  0  0  0  0  0  0
   38.6480   32.2380   39.5600 C   0  0  2  0  0  0  0  0  0  0  0  0
   40.3960   31.9770   40.9270 H   0  0  0  0  0  0  0  0  0  0  0  0
   38.8430   34.4670   39.6440 H   0  0  0  0  0  0  0  0  0  0  0  0
   38.5430   33.7170   41.3040 H   0  0  0  0  0  0  0  0  0  0  0  0
   38.4130   32.3340   38.5030 H   0  0  0  0  0  0  0  0  0  0  0  0
   42.8290   32.3980   37.6110 C   0  0  0  0  0  0  0  0  0  0  0  0
   41.8390   31.9460   38.4700 C   0  0  0  0  0  0  0  0  0  0  0  0
   41.0780   32.9180   39.1010 C   0  0  0  0  0  0  0  0  0  0  0  0
   41.3160   34.2290   38.8680 N   0  0  0  0  0  0  0  0  0  0  0  0
   42.3050   34.6240   38.0130 C   0  0  0  0  0  0  0  0  0  0  0  0
   43.0580   33.6920   37.3870 N   0  0  0  0  0  0  0  0  0  0  0  0
   41.6480   30.9010   38.6560 H   0  0  0  0  0  0  0  0  0  0  0  0
   42.4660   35.6830   37.8530 H   0  0  0  0  0  0  0  0  0  0  0  0
   43.6590   31.3690   36.9040 C   0  0  0  0  0  0  0  0  0  0  0  0
   42.9000   30.8540   35.8800 F   0  0  0  0  0  0  0  0  0  0  0  0
   43.9110   30.3540   37.8030 F   0  0  0  0  0  0  0  0  0  0  0  0
   44.8080   31.9140   36.3960 F   0  0  0  0  0  0  0  0  0  0  0  0
   37.8420   31.3110   40.4130 C   0  0  0  0  0  0  0  0  0  0  0  0
   36.4780   31.0480   40.3250 C   0  0  0  0  0  0  0  0  0  0  0  0
   36.2920   30.1350   41.3430 C   0  0  0  0  0  0  0  0  0  0  0  0
   37.4890   29.8810   41.9890 C   0  0  0  0  0  0  0  0  0  0  0  0
   38.3770   30.6260   41.3730 O   0  0  0  0  0  0  0  0  0  0  0  0
   35.7840   31.4720   39.6250 H   0  0  0  0  0  0  0  0  0  0  0  0
   35.3410   29.6760   41.6060 H   0  0  0  0  0  0  0  0  0  0  0  0
   37.8100   29.0070   43.1100 C   0  0  1  0  0  3  0  0  0  0  0  0
   36.8860   27.7850   43.0060 C   0  0  0  0  0  3  0  0  0  0  0  0
   35.8920   28.1390   42.7240 H   0  0  0  0  0  0  0  0  0  0  0  0
   37.5980   27.0040   41.9160 C   0  0  0  0  0  3  0  0  0  0  0  0
   37.6750   25.9310   42.1620 H   0  0  0  0  0  0  0  0  0  0  0  0
   38.8410   27.5560   41.7340 O   0  0  0  0  0  0  0  0  0  0  0  0
   39.1420   28.3330   42.8500 C   0  0  0  0  0  3  0  0  0  0  0  0
   39.9560   29.0250   42.6170 H   0  0  0  0  0  0  0  0  0  0  0  0
  1  2  1  0  0  0  0
  1  4  1  1  0  0  0
  2  6  1  0  0  0  0
  3  7  1  6  0  0  0
  3  1  1  0  0  0  0
  3  2  1  0  0  0  0
  3 20  1  0  0  0  0
  5  2  1  0  0  0  0
  8  9  1  0  0  0  0
  9 14  1  0  0  0  0
  9 10  2  0  0  0  0
 10  1  1  0  0  0  0
 11 10  1  0  0  0  0
 12 11  2  0  0  0  0
 13  8  2  0  0  0  0
 13 12  1  0  0  0  0
 15 12  1  0  0  0  0
 16  8  1  0  0  0  0
 16 18  1  0  0  0  0
 17 16  1  0  0  0  0
 19 16  1  0  0  0  0
 20 24  1  0  0  0  0
 21 20  2  0  0  0  0
 21 22  1  0  0  0  0
 22 26  1  0  0  0  0
 22 23  2  0  0  0  0
 24 23  1  0  0  0  0
 25 21  1  0  0  0  0
 27 23  1  6  0  0  0
 28 27  1  0  0  0  0
 29 28  1  0  0  0  0
 30 31  1  0  0  0  0
 30 28  1  0  0  0  0
 32 30  1  0  0  0  0
 32 33  1  0  0  0  0
 33 27  1  0  0  0  0
 34 33  1  0  0  0  0
M  END
>  <minimizedAffinity>
-5.4255023

$$$$
