
 OpenBabel03242520263D

 37 39  0  0  1  0  0  0  0  0999 V2000
   45.5730   35.6840   43.3790 C   0  0  0  0  0  0  0  0  0  0  0  0
   46.2770   34.4660   43.5970 C   0  0  0  0  0  0  0  0  0  0  0  0
   46.0500   33.7800   44.7730 C   0  0  0  0  0  0  0  0  0  0  0  0
   45.1600   34.3030   45.6720 N   0  0  0  0  0  0  0  0  0  0  0  0
   44.5020   35.4560   45.4500 C   0  0  0  0  0  0  0  0  0  0  0  0
   44.7080   36.1360   44.3170 N   0  0  0  0  0  0  0  0  0  0  0  0
   45.7310   36.2390   42.4690 H   0  0  0  0  0  0  0  0  0  0  0  0
   43.8460   35.7030   46.2720 H   0  0  0  0  0  0  0  0  0  0  0  0
   47.1610   34.0710   42.5650 N   0  0  0  0  0  0  0  0  0  0  0  0
   48.6140   34.1130   42.7110 C   0  0  0  0  0  0  0  0  0  0  0  0
   49.2470   33.5010   41.4890 C   0  0  0  0  0  0  0  0  0  0  0  0
   48.7790   34.0780   40.2680 N   0  0  0  0  0  0  0  0  0  0  0  0
   47.3590   34.1460   40.1390 C   0  0  0  0  0  0  0  0  0  0  0  0
   46.5920   33.6060   41.3130 C   0  0  0  0  0  0  0  0  0  0  0  0
   48.8670   35.1890   42.7950 H   0  0  0  0  0  0  0  0  0  0  0  0
   48.8970   33.5540   43.6070 H   0  0  0  0  0  0  0  0  0  0  0  0
   50.3330   33.5760   41.5090 H   0  0  0  0  0  0  0  0  0  0  0  0
   48.9590   32.4240   41.4730 H   0  0  0  0  0  0  0  0  0  0  0  0
   49.2170   35.0220   40.1750 H   0  0  0  0  0  0  0  0  0  0  0  0
   47.0460   35.1900   39.9290 H   0  0  0  0  0  0  0  0  0  0  0  0
   47.0770   33.5480   39.2280 H   0  0  0  0  0  0  0  0  0  0  0  0
   45.5400   33.8720   41.2070 H   0  0  0  0  0  0  0  0  0  0  0  0
   46.6460   32.4810   41.2650 H   0  0  0  0  0  0  0  0  0  0  0  0
   46.7500   32.5960   44.9630 O   0  0  0  0  0  0  0  0  0  0  0  0
   47.9640   30.8920   46.5800 O   0  0  0  0  0  0  0  0  0  0  0  0
   46.8890   31.9690   46.5600 P   0  0  1  0  0  0  0  0  0  0  0  0
   47.2870   33.2410   47.5720 O   0  0  0  0  0  0  0  0  0  0  0  0
   48.2880   33.3100   47.6190 H   0  0  0  0  0  0  0  0  0  0  0  0
   45.3960   31.2730   46.9670 O   0  0  0  0  0  0  0  0  0  0  0  0
   45.5180   29.9030   47.0150 C   0  0  1  0  0  0  0  0  0  0  0  0
   45.0750   29.3400   48.3730 C   0  0  0  0  0  0  0  0  0  0  0  0
   45.8330   29.4890   49.1600 H   0  0  0  0  0  0  0  0  0  0  0  0
   44.9900   27.8680   47.9490 C   0  0  0  0  0  0  0  0  0  0  0  0
   46.0630   27.5280   47.8690 H   0  0  0  0  0  0  0  0  0  0  0  0
   44.4880   27.8760   46.6600 O   0  0  0  0  0  0  0  0  0  0  0  0
   44.5720   29.1440   46.1360 C   0  0  0  0  0  0  0  0  0  0  0  0
   44.8210   29.1790   45.0710 H   0  0  0  0  0  0  0  0  0  0  0  0
  1  2  2  0  0  0  0
  1  6  1  0  0  0  0
  2  3  1  0  0  0  0
  3 24  1  0  0  0  0
  3  4  2  0  0  0  0
  5  4  1  0  0  0  0
  5  8  1  0  0  0  0
  6  5  2  0  0  0  0
  7  1  1  0  0  0  0
  9 10  1  0  0  0  0
  9  2  1  0  0  0  0
 10 15  1  0  0  0  0
 10 16  1  0  0  0  0
 11 17  1  0  0  0  0
 11 10  1  0  0  0  0
 12 11  1  0  0  0  0
 13 12  1  0  0  0  0
 13 14  1  0  0  0  0
 14  9  1  0  0  0  0
 18 11  1  0  0  0  0
 19 12  1  0  0  0  0
 20 13  1  0  0  0  0
 21 13  1  0  0  0  0
 22 14  1  0  0  0  0
 23 14  1  0  0  0  0
 24 26  1  0  0  0  0
 26 25  2  1  0  0  0
 26 29  1  0  0  0  0
 26 27  1  0  0  0  0
 27 28  1  0  0  0  0
 30 29  1  1  0  0  0
 30 31  1  0  0  0  0
 31 32  1  0  0  0  0
 33 31  1  0  0  0  0
 34 33  1  0  0  0  0
 35 33  1  0  0  0  0
 36 35  1  0  0  0  0
 36 30  1  0  0  0  0
 37 36  1  0  0  0  0
M  END
>  <minimizedAffinity>
-5.37540197

>  <minimizedRMSD>
2.71670008

$$$$
