
 OpenBabel03252507093D

 23 24  0  0  1  0  0  0  0  0999 V2000
   39.6340   28.2070   43.0700 C   0  0  0  0  0  0  0  0  0  0  0  0
   39.5090   29.5010   42.5050 C   0  0  0  0  0  0  0  0  0  0  0  0
   38.5110   29.7160   41.5640 C   0  0  0  0  0  0  0  0  0  0  0  0
   37.7010   28.6660   41.2340 N   0  0  0  0  0  0  0  0  0  0  0  0
   37.8390   27.4520   41.7820 C   0  0  0  0  0  0  0  0  0  0  0  0
   38.8070   27.2180   42.7030 N   0  0  0  0  0  0  0  0  0  0  0  0
   40.4470   28.1550   43.7940 H   0  0  0  0  0  0  0  0  0  0  0  0
   40.1600   30.3220   42.7790 H   0  0  0  0  0  0  0  0  0  0  0  0
   36.9680   26.3210   41.4260 C   0  0  1  0  0  3  0  0  0  0  0  0
   37.1850   25.8690   39.9760 C   0  0  0  0  0  3  0  0  0  0  0  0
   36.6560   26.5850   39.3120 H   0  0  0  0  0  0  0  0  0  0  0  0
   36.4690   24.5370   40.0840 C   0  0  0  0  0  3  0  0  0  0  0  0
   36.7130   23.8360   39.2750 H   0  0  0  0  0  0  0  0  0  0  0  0
   36.6890   24.0580   41.3620 O   0  0  0  0  0  0  0  0  0  0  0  0
   37.2640   25.0400   42.1280 C   0  0  0  0  0  3  0  0  0  0  0  0
   38.3740   24.8370   42.1280 H   0  0  0  0  0  0  0  0  0  0  0  0
   38.4010   30.9790   41.0230 O   0  0  0  0  0  0  0  0  0  0  0  0
   36.7540   30.9620   38.9550 O   0  0  0  0  0  0  0  0  0  0  0  0
   36.8930   31.4970   40.3840 P   0  0  0  0  0  0  0  0  0  0  0  0
   35.6610   30.9810   41.3730 O   0  0  0  0  0  0  0  0  0  0  0  0
   35.0210   31.7360   41.5300 H   0  0  0  0  0  0  0  0  0  0  0  0
   36.9510   33.1970   40.2790 O   0  0  0  0  0  0  0  0  0  0  0  0
   37.3680   33.4180   39.4230 H   0  0  0  0  0  0  0  0  0  0  0  0
  1  7  1  0  0  0  0
  2  8  1  0  0  0  0
  2  1  2  0  0  0  0
  3  2  1  0  0  0  0
  4  3  2  0  0  0  0
  4  5  1  0  0  0  0
  5  6  2  0  0  0  0
  6  1  1  0  0  0  0
  9  5  1  1  0  0  0
  9 15  1  0  0  0  0
 10 12  1  0  0  0  0
 10  9  1  0  0  0  0
 11 10  1  0  0  0  0
 12 14  1  0  0  0  0
 13 12  1  0  0  0  0
 14 15  1  0  0  0  0
 15 16  1  0  0  0  0
 17  3  1  0  0  0  0
 18 19  2  0  0  0  0
 19 17  1  0  0  0  0
 19 20  1  0  0  0  0
 20 21  1  0  0  0  0
 22 19  1  0  0  0  0
 23 22  1  0  0  0  0
M  END
>  <minimizedAffinity>
-5.07113123

$$$$

 OpenBabel03252507093D

 23 24  0  0  1  0  0  0  0  0999 V2000
   39.5980   26.5070   43.4630 C   0  0  0  0  0  0  0  0  0  0  0  0
   38.9640   27.7710   43.3730 C   0  0  0  0  0  0  0  0  0  0  0  0
   37.7620   27.8570   42.6830 C   0  0  0  0  0  0  0  0  0  0  0  0
   37.2560   26.7170   42.1270 N   0  0  0  0  0  0  0  0  0  0  0  0
   37.8750   25.5330   42.2250 C   0  0  0  0  0  0  0  0  0  0  0  0
   39.0500   25.4250   42.8940 N   0  0  0  0  0  0  0  0  0  0  0  0
   40.5300   26.5580   44.0260 H   0  0  0  0  0  0  0  0  0  0  0  0
   39.3790   28.6660   43.8210 H   0  0  0  0  0  0  0  0  0  0  0  0
   37.3310   24.3050   41.6260 C   0  0  1  0  0  3  0  0  0  0  0  0
   36.5450   24.5970   40.3410 C   0  0  0  0  0  3  0  0  0  0  0  0
   35.5480   24.9890   40.6330 H   0  0  0  0  0  0  0  0  0  0  0  0
   36.4840   23.1720   39.8290 C   0  0  0  0  0  3  0  0  0  0  0  0
   36.2370   23.0940   38.7620 H   0  0  0  0  0  0  0  0  0  0  0  0
   37.6620   22.5520   40.2050 O   0  0  0  0  0  0  0  0  0  0  0  0
   38.3440   23.3550   41.0830 C   0  0  0  0  0  3  0  0  0  0  0  0
   39.1180   23.9090   40.4760 H   0  0  0  0  0  0  0  0  0  0  0  0
   37.1550   29.0930   42.6030 O   0  0  0  0  0  0  0  0  0  0  0  0
   37.7680   30.0970   40.2360 O   0  0  0  0  0  0  0  0  0  0  0  0
   36.5740   29.6530   41.0880 P   0  0  0  0  0  0  0  0  0  0  0  0
   35.6860   28.4560   40.3530 O   0  0  0  0  0  0  0  0  0  0  0  0
   34.8350   28.8440   39.9940 H   0  0  0  0  0  0  0  0  0  0  0  0
   35.6340   31.0410   41.3930 O   0  0  0  0  0  0  0  0  0  0  0  0
   36.2460   31.8030   41.4190 H   0  0  0  0  0  0  0  0  0  0  0  0
  1  7  1  0  0  0  0
  2  1  1  0  0  0  0
  2  8  1  0  0  0  0
  3  2  2  0  0  0  0
  4  5  2  0  0  0  0
  4  3  1  0  0  0  0
  5  6  1  0  0  0  0
  6  1  2  0  0  0  0
  9  5  1  6  0  0  0
 10 11  1  0  0  0  0
 10  9  1  0  0  0  0
 12 14  1  0  0  0  0
 12 10  1  0  0  0  0
 13 12  1  0  0  0  0
 14 15  1  0  0  0  0
 15  9  1  0  0  0  0
 16 15  1  0  0  0  0
 17  3  1  0  0  0  0
 18 19  2  0  0  0  0
 19 22  1  0  0  0  0
 19 17  1  0  0  0  0
 20 19  1  0  0  0  0
 21 20  1  0  0  0  0
 22 23  1  0  0  0  0
M  END
>  <minimizedAffinity>
-4.77374935

$$$$

 OpenBabel03252507093D

 23 24  0  0  1  0  0  0  0  0999 V2000
   38.4510   33.7530   40.5780 C   0  0  0  0  0  0  0  0  0  0  0  0
   39.7210   33.9130   39.9730 C   0  0  0  0  0  0  0  0  0  0  0  0
   40.4140   32.7740   39.5830 C   0  0  0  0  0  0  0  0  0  0  0  0
   39.8310   31.5590   39.8060 N   0  0  0  0  0  0  0  0  0  0  0  0
   38.6280   31.4330   40.3810 C   0  0  0  0  0  0  0  0  0  0  0  0
   37.9330   32.5310   40.7700 N   0  0  0  0  0  0  0  0  0  0  0  0
   38.0010   34.7100   40.8410 H   0  0  0  0  0  0  0  0  0  0  0  0
   40.1690   34.8850   39.8030 H   0  0  0  0  0  0  0  0  0  0  0  0
   37.9990   30.1260   40.6220 C   0  0  1  0  0  3  0  0  0  0  0  0
   38.8870   28.9690   40.1400 C   0  0  0  0  0  3  0  0  0  0  0  0
   38.7880   28.9010   39.0360 H   0  0  0  0  0  0  0  0  0  0  0  0
   38.1540   27.8560   40.8610 C   0  0  0  0  0  3  0  0  0  0  0  0
   38.7350   26.9290   40.9520 H   0  0  0  0  0  0  0  0  0  0  0  0
   37.6900   28.3780   42.0540 O   0  0  0  0  0  0  0  0  0  0  0  0
   37.8520   29.7400   42.0540 C   0  0  0  0  0  3  0  0  0  0  0  0
   38.8060   29.9490   42.6180 H   0  0  0  0  0  0  0  0  0  0  0  0
   41.6490   32.9440   38.9950 O   0  0  0  0  0  0  0  0  0  0  0  0
   42.8230   31.6010   37.0440 O   0  0  0  0  0  0  0  0  0  0  0  0
   41.8160   32.7280   37.3000 P   0  0  0  0  0  0  0  0  0  0  0  0
   40.3300   32.4090   36.6290 O   0  0  0  0  0  0  0  0  0  0  0  0
   40.2080   32.9670   35.8050 H   0  0  0  0  0  0  0  0  0  0  0  0
   42.4980   34.1600   36.6770 O   0  0  0  0  0  0  0  0  0  0  0  0
   43.4680   34.0780   36.7630 H   0  0  0  0  0  0  0  0  0  0  0  0
  1  6  1  0  0  0  0
  1  7  1  0  0  0  0
  2  1  2  0  0  0  0
  3  4  2  0  0  0  0
  3  2  1  0  0  0  0
  4  5  1  0  0  0  0
  5  6  2  0  0  0  0
  8  2  1  0  0  0  0
  9  5  1  1  0  0  0
  9 15  1  0  0  0  0
 10  9  1  0  0  0  0
 10 12  1  0  0  0  0
 11 10  1  0  0  0  0
 12 13  1  0  0  0  0
 12 14  1  0  0  0  0
 14 15  1  0  0  0  0
 15 16  1  0  0  0  0
 17  3  1  0  0  0  0
 18 19  2  0  0  0  0
 19 17  1  0  0  0  0
 20 19  1  0  0  0  0
 21 20  1  0  0  0  0
 22 23  1  0  0  0  0
 22 19  1  0  0  0  0
M  END
>  <minimizedAffinity>
-4.6740036

$$$$

 OpenBabel03252507093D

 23 24  0  0  1  0  0  0  0  0999 V2000
   35.6070   28.4110   41.0080 C   0  0  0  0  0  0  0  0  0  0  0  0
   35.6130   29.7700   40.6090 C   0  0  0  0  0  0  0  0  0  0  0  0
   36.6340   30.5890   41.0720 C   0  0  0  0  0  0  0  0  0  0  0  0
   37.5790   30.0380   41.8910 N   0  0  0  0  0  0  0  0  0  0  0  0
   37.5520   28.7490   42.2540 C   0  0  0  0  0  0  0  0  0  0  0  0
   36.5640   27.9300   41.8140 N   0  0  0  0  0  0  0  0  0  0  0  0
   34.7640   27.8660   40.5850 H   0  0  0  0  0  0  0  0  0  0  0  0
   34.8550   30.1910   39.9590 H   0  0  0  0  0  0  0  0  0  0  0  0
   38.5690   28.1540   43.1350 C   0  0  1  0  0  3  0  0  0  0  0  0
   38.6440   26.6300   42.9710 C   0  0  0  0  0  3  0  0  0  0  0  0
   37.7910   26.1850   43.5250 H   0  0  0  0  0  0  0  0  0  0  0  0
   39.9680   26.4280   43.6800 C   0  0  0  0  0  3  0  0  0  0  0  0
   40.4440   25.4620   43.4650 H   0  0  0  0  0  0  0  0  0  0  0  0
   40.7470   27.5390   43.4120 O   0  0  0  0  0  0  0  0  0  0  0  0
   39.9810   28.5040   42.8110 C   0  0  0  0  0  3  0  0  0  0  0  0
   40.1640   28.4140   41.7010 H   0  0  0  0  0  0  0  0  0  0  0  0
   36.6280   31.9090   40.6770 O   0  0  0  0  0  0  0  0  0  0  0  0
   38.4710   33.8030   40.6020 O   0  0  0  0  0  0  0  0  0  0  0  0
   37.9930   32.5530   39.8560 P   0  0  0  0  0  0  0  0  0  0  0  0
   39.1770   31.3920   39.7470 O   0  0  0  0  0  0  0  0  0  0  0  0
   39.5450   31.3760   38.8150 H   0  0  0  0  0  0  0  0  0  0  0  0
   37.4610   33.0590   38.3190 O   0  0  0  0  0  0  0  0  0  0  0  0
   37.1160   33.9690   38.4190 H   0  0  0  0  0  0  0  0  0  0  0  0
  1  6  1  0  0  0  0
  2  1  2  0  0  0  0
  2  3  1  0  0  0  0
  3  4  2  0  0  0  0
  4  5  1  0  0  0  0
  6  5  2  0  0  0  0
  7  1  1  0  0  0  0
  8  2  1  0  0  0  0
  9  5  1  6  0  0  0
 10  9  1  0  0  0  0
 10 11  1  0  0  0  0
 10 12  1  0  0  0  0
 13 12  1  0  0  0  0
 14 12  1  0  0  0  0
 15  9  1  0  0  0  0
 15 14  1  0  0  0  0
 16 15  1  0  0  0  0
 17  3  1  0  0  0  0
 19 18  2  0  0  0  0
 19 17  1  0  0  0  0
 20 19  1  0  0  0  0
 21 20  1  0  0  0  0
 22 23  1  0  0  0  0
 22 19  1  0  0  0  0
M  END
>  <minimizedAffinity>
-4.49202013

$$$$

 OpenBabel03252507093D

 23 24  0  0  1  0  0  0  0  0999 V2000
   37.8790   27.6590   37.4300 C   0  0  0  0  0  0  0  0  0  0  0  0
   37.6200   29.0490   37.5290 C   0  0  0  0  0  0  0  0  0  0  0  0
   37.0960   29.5380   38.7180 C   0  0  0  0  0  0  0  0  0  0  0  0
   36.8570   28.6510   39.7300 N   0  0  0  0  0  0  0  0  0  0  0  0
   37.1110   27.3410   39.6120 C   0  0  0  0  0  0  0  0  0  0  0  0
   37.6230   26.8400   38.4600 N   0  0  0  0  0  0  0  0  0  0  0  0
   38.2880   27.3890   36.4570 H   0  0  0  0  0  0  0  0  0  0  0  0
   37.8140   29.7380   36.7170 H   0  0  0  0  0  0  0  0  0  0  0  0
   36.8550   26.3850   40.7000 C   0  0  1  0  0  3  0  0  0  0  0  0
   36.7930   24.9400   40.1860 C   0  0  0  0  0  3  0  0  0  0  0  0
   35.7990   24.7890   39.7140 H   0  0  0  0  0  0  0  0  0  0  0  0
   36.9090   24.2560   41.5340 C   0  0  0  0  0  3  0  0  0  0  0  0
   37.1960   23.1980   41.4700 H   0  0  0  0  0  0  0  0  0  0  0  0
   37.7300   25.0410   42.3210 O   0  0  0  0  0  0  0  0  0  0  0  0
   37.9530   26.2420   41.6990 C   0  0  0  0  0  3  0  0  0  0  0  0
   38.9500   26.1540   41.1780 H   0  0  0  0  0  0  0  0  0  0  0  0
   36.8480   30.8910   38.8010 O   0  0  0  0  0  0  0  0  0  0  0  0
   38.3050   31.2930   40.9710 O   0  0  0  0  0  0  0  0  0  0  0  0
   36.9730   31.6830   40.3210 P   0  0  0  0  0  0  0  0  0  0  0  0
   36.8310   33.3250   40.1080 O   0  0  0  0  0  0  0  0  0  0  0  0
   36.2010   33.6970   40.7920 H   0  0  0  0  0  0  0  0  0  0  0  0
   35.7320   31.0640   41.3110 O   0  0  0  0  0  0  0  0  0  0  0  0
   36.0770   30.2500   41.7290 H   0  0  0  0  0  0  0  0  0  0  0  0
  1  2  2  0  0  0  0
  1  6  1  0  0  0  0
  2  3  1  0  0  0  0
  3 17  1  0  0  0  0
  3  4  2  0  0  0  0
  5  4  1  0  0  0  0
  6  5  2  0  0  0  0
  7  1  1  0  0  0  0
  8  2  1  0  0  0  0
  9  5  1  6  0  0  0
  9 15  1  0  0  0  0
 10  9  1  0  0  0  0
 10 12  1  0  0  0  0
 11 10  1  0  0  0  0
 12 14  1  0  0  0  0
 13 12  1  0  0  0  0
 15 14  1  0  0  0  0
 16 15  1  0  0  0  0
 17 19  1  0  0  0  0
 19 18  2  0  0  0  0
 19 22  1  0  0  0  0
 20 19  1  0  0  0  0
 20 21  1  0  0  0  0
 22 23  1  0  0  0  0
M  END
>  <minimizedAffinity>
-4.47873116

$$$$

 OpenBabel03252507093D

 23 24  0  0  1  0  0  0  0  0999 V2000
   36.5730   31.4820   40.6250 C   0  0  0  0  0  0  0  0  0  0  0  0
   37.5440   32.2680   39.9570 C   0  0  0  0  0  0  0  0  0  0  0  0
   38.8420   31.7820   39.8740 C   0  0  0  0  0  0  0  0  0  0  0  0
   39.1120   30.5690   40.4420 N   0  0  0  0  0  0  0  0  0  0  0  0
   38.1760   29.8430   41.0680 C   0  0  0  0  0  0  0  0  0  0  0  0
   36.9020   30.2990   41.1620 N   0  0  0  0  0  0  0  0  0  0  0  0
   35.5940   31.9600   40.6280 H   0  0  0  0  0  0  0  0  0  0  0  0
   37.3130   33.2280   39.5130 H   0  0  0  0  0  0  0  0  0  0  0  0
   38.4660   28.5380   41.6800 C   0  0  1  0  0  3  0  0  0  0  0  0
   39.2060   28.6870   43.0160 C   0  0  0  0  0  3  0  0  0  0  0  0
   40.2710   28.9060   42.7930 H   0  0  0  0  0  0  0  0  0  0  0  0
   38.9930   27.2690   43.5080 C   0  0  0  0  0  3  0  0  0  0  0  0
   39.1560   27.1450   44.5870 H   0  0  0  0  0  0  0  0  0  0  0  0
   37.7550   26.8590   43.0500 O   0  0  0  0  0  0  0  0  0  0  0  0
   37.2750   27.7700   42.1440 C   0  0  0  0  0  3  0  0  0  0  0  0
   36.5680   28.4430   42.7100 H   0  0  0  0  0  0  0  0  0  0  0  0
   39.7770   32.5570   39.2220 O   0  0  0  0  0  0  0  0  0  0  0  0
   41.6040   32.9150   37.3450 O   0  0  0  0  0  0  0  0  0  0  0  0
   40.4040   32.0340   37.7110 P   0  0  0  0  0  0  0  0  0  0  0  0
   40.8080   30.4250   37.8010 O   0  0  0  0  0  0  0  0  0  0  0  0
   40.4610   29.9480   36.9910 H   0  0  0  0  0  0  0  0  0  0  0  0
   39.1980   32.3200   36.5420 O   0  0  0  0  0  0  0  0  0  0  0  0
   39.3010   33.2450   36.2430 H   0  0  0  0  0  0  0  0  0  0  0  0
  1  7  1  0  0  0  0
  1  6  1  0  0  0  0
  2  1  2  0  0  0  0
  3  2  1  0  0  0  0
  3  4  2  0  0  0  0
  4  5  1  0  0  0  0
  5  6  2  0  0  0  0
  8  2  1  0  0  0  0
  9  5  1  1  0  0  0
  9 15  1  0  0  0  0
  9 10  1  0  0  0  0
 10 12  1  0  0  0  0
 11 10  1  0  0  0  0
 12 13  1  0  0  0  0
 14 12  1  0  0  0  0
 15 16  1  0  0  0  0
 15 14  1  0  0  0  0
 17  3  1  0  0  0  0
 18 19  2  0  0  0  0
 19 20  1  0  0  0  0
 19 17  1  0  0  0  0
 21 20  1  0  0  0  0
 22 19  1  0  0  0  0
 23 22  1  0  0  0  0
M  END
>  <minimizedAffinity>
-4.47350407

$$$$

 OpenBabel03252507093D

 23 24  0  0  1  0  0  0  0  0999 V2000
   36.6860   26.7270   38.2380 C   0  0  0  0  0  0  0  0  0  0  0  0
   36.9720   27.8270   37.3920 C   0  0  0  0  0  0  0  0  0  0  0  0
   37.1010   29.0850   37.9680 C   0  0  0  0  0  0  0  0  0  0  0  0
   36.9450   29.1920   39.3200 N   0  0  0  0  0  0  0  0  0  0  0  0
   36.6740   28.1370   40.1000 C   0  0  0  0  0  0  0  0  0  0  0  0
   36.5440   26.8990   39.5600 N   0  0  0  0  0  0  0  0  0  0  0  0
   36.6080   25.7940   37.6800 H   0  0  0  0  0  0  0  0  0  0  0  0
   37.0930   27.7240   36.3210 H   0  0  0  0  0  0  0  0  0  0  0  0
   36.5050   28.2510   41.5560 C   0  0  1  0  0  3  0  0  0  0  0  0
   36.9610   26.9790   42.2840 C   0  0  0  0  0  3  0  0  0  0  0  0
   36.1610   26.2180   42.1730 H   0  0  0  0  0  0  0  0  0  0  0  0
   37.0140   27.5690   43.6790 C   0  0  0  0  0  3  0  0  0  0  0  0
   37.6010   26.9730   44.3910 H   0  0  0  0  0  0  0  0  0  0  0  0
   37.4100   28.8880   43.5500 O   0  0  0  0  0  0  0  0  0  0  0  0
   37.3890   29.2470   42.2270 C   0  0  0  0  0  3  0  0  0  0  0  0
   38.4480   29.1500   41.8510 H   0  0  0  0  0  0  0  0  0  0  0  0
   37.3790   30.1460   37.1340 O   0  0  0  0  0  0  0  0  0  0  0  0
   37.2520   32.4760   38.3780 O   0  0  0  0  0  0  0  0  0  0  0  0
   38.2470   31.4970   37.7440 P   0  0  0  0  0  0  0  0  0  0  0  0
   39.3970   30.9790   38.8260 O   0  0  0  0  0  0  0  0  0  0  0  0
   40.2670   31.4370   38.6330 H   0  0  0  0  0  0  0  0  0  0  0  0
   38.9470   32.2890   36.4080 O   0  0  0  0  0  0  0  0  0  0  0  0
   38.2750   32.9050   36.0550 H   0  0  0  0  0  0  0  0  0  0  0  0
  1  6  1  0  0  0  0
  2  3  1  0  0  0  0
  2  1  2  0  0  0  0
  3  4  2  0  0  0  0
  4  5  1  0  0  0  0
  6  5  2  0  0  0  0
  7  1  1  0  0  0  0
  8  2  1  0  0  0  0
  9  5  1  6  0  0  0
  9 15  1  0  0  0  0
  9 10  1  0  0  0  0
 10 12  1  0  0  0  0
 11 10  1  0  0  0  0
 12 13  1  0  0  0  0
 14 12  1  0  0  0  0
 15 14  1  0  0  0  0
 16 15  1  0  0  0  0
 17 19  1  0  0  0  0
 17  3  1  0  0  0  0
 19 18  2  0  0  0  0
 19 20  1  0  0  0  0
 21 20  1  0  0  0  0
 22 19  1  0  0  0  0
 23 22  1  0  0  0  0
M  END
>  <minimizedAffinity>
-4.31652546

$$$$

 OpenBabel03252507093D

 23 24  0  0  1  0  0  0  0  0999 V2000
   41.1440   29.7060   41.2470 C   0  0  0  0  0  0  0  0  0  0  0  0
   41.7370   30.7870   40.5500 C   0  0  0  0  0  0  0  0  0  0  0  0
   40.9490   31.5110   39.6640 C   0  0  0  0  0  0  0  0  0  0  0  0
   39.6440   31.1400   39.5130 N   0  0  0  0  0  0  0  0  0  0  0  0
   39.1050   30.1130   40.1840 C   0  0  0  0  0  0  0  0  0  0  0  0
   39.8550   29.3910   41.0540 N   0  0  0  0  0  0  0  0  0  0  0  0
   41.8520   29.2130   41.9130 H   0  0  0  0  0  0  0  0  0  0  0  0
   42.7740   31.0680   40.6820 H   0  0  0  0  0  0  0  0  0  0  0  0
   37.7000   29.7120   40.0220 C   0  0  1  0  0  3  0  0  0  0  0  0
   37.2400   28.7770   41.1490 C   0  0  0  0  0  3  0  0  0  0  0  0
   37.6360   27.7620   40.9320 H   0  0  0  0  0  0  0  0  0  0  0  0
   35.7510   28.8890   40.8910 C   0  0  0  0  0  3  0  0  0  0  0  0
   35.1290   28.5600   41.7350 H   0  0  0  0  0  0  0  0  0  0  0  0
   35.5090   30.1760   40.4500 O   0  0  0  0  0  0  0  0  0  0  0  0
   36.6990   30.8040   40.1880 C   0  0  0  0  0  3  0  0  0  0  0  0
   36.9420   31.4260   41.0980 H   0  0  0  0  0  0  0  0  0  0  0  0
   41.5390   32.5610   38.9930 O   0  0  0  0  0  0  0  0  0  0  0  0
   42.4470   31.4090   36.7930 O   0  0  0  0  0  0  0  0  0  0  0  0
   41.5580   32.5610   37.2750 P   0  0  0  0  0  0  0  0  0  0  0  0
   40.0040   32.4420   36.6990 O   0  0  0  0  0  0  0  0  0  0  0  0
   39.8670   33.1120   35.9670 H   0  0  0  0  0  0  0  0  0  0  0  0
   42.3070   34.0110   36.7830 O   0  0  0  0  0  0  0  0  0  0  0  0
   43.2700   33.8480   36.7750 H   0  0  0  0  0  0  0  0  0  0  0  0
  1  7  1  0  0  0  0
  2  8  1  0  0  0  0
  2  1  2  0  0  0  0
  3  2  1  0  0  0  0
  4  3  2  0  0  0  0
  4  5  1  0  0  0  0
  5  6  2  0  0  0  0
  6  1  1  0  0  0  0
  9  5  1  1  0  0  0
  9 15  1  0  0  0  0
  9 10  1  0  0  0  0
 11 10  1  0  0  0  0
 12 10  1  0  0  0  0
 12 13  1  0  0  0  0
 14 12  1  0  0  0  0
 15 14  1  0  0  0  0
 15 16  1  0  0  0  0
 17  3  1  0  0  0  0
 18 19  2  0  0  0  0
 19 17  1  0  0  0  0
 20 19  1  0  0  0  0
 21 20  1  0  0  0  0
 22 19  1  0  0  0  0
 23 22  1  0  0  0  0
M  END
>  <minimizedAffinity>
-4.31130838

$$$$

 OpenBabel03252507093D

 23 24  0  0  1  0  0  0  0  0999 V2000
   39.7840   24.4580   43.2370 C   0  0  0  0  0  0  0  0  0  0  0  0
   40.0920   25.8070   43.5440 C   0  0  0  0  0  0  0  0  0  0  0  0
   39.3040   26.8060   42.9870 C   0  0  0  0  0  0  0  0  0  0  0  0
   38.2740   26.4330   42.1710 N   0  0  0  0  0  0  0  0  0  0  0  0
   38.0020   25.1500   41.8960 C   0  0  0  0  0  0  0  0  0  0  0  0
   38.7580   24.1570   42.4290 N   0  0  0  0  0  0  0  0  0  0  0  0
   40.4650   23.7630   43.7280 H   0  0  0  0  0  0  0  0  0  0  0  0
   40.9130   26.0850   44.1930 H   0  0  0  0  0  0  0  0  0  0  0  0
   36.8940   24.7470   41.0180 C   0  0  1  0  0  3  0  0  0  0  0  0
   36.8540   25.5820   39.7310 C   0  0  0  0  0  3  0  0  0  0  0  0
   36.4030   26.5670   39.9780 H   0  0  0  0  0  0  0  0  0  0  0  0
   35.9080   24.6880   38.9540 C   0  0  0  0  0  3  0  0  0  0  0  0
   35.9170   24.8670   37.8710 H   0  0  0  0  0  0  0  0  0  0  0  0
   36.1720   23.3850   39.3370 O   0  0  0  0  0  0  0  0  0  0  0  0
   37.0110   23.3860   40.4220 C   0  0  0  0  0  3  0  0  0  0  0  0
   38.0530   23.2190   40.0230 H   0  0  0  0  0  0  0  0  0  0  0  0
   39.6140   28.1130   43.2930 O   0  0  0  0  0  0  0  0  0  0  0  0
   39.3520   30.7240   42.9690 O   0  0  0  0  0  0  0  0  0  0  0  0
   38.7140   29.3870   42.5740 P   0  0  0  0  0  0  0  0  0  0  0  0
   38.6660   29.1750   40.9270 O   0  0  0  0  0  0  0  0  0  0  0  0
   37.7290   29.3150   40.6000 H   0  0  0  0  0  0  0  0  0  0  0  0
   37.1570   29.3520   43.2630 O   0  0  0  0  0  0  0  0  0  0  0  0
   37.1960   29.8720   44.0900 H   0  0  0  0  0  0  0  0  0  0  0  0
  1  2  1  0  0  0  0
  1  7  1  0  0  0  0
  2  8  1  0  0  0  0
  3 17  1  0  0  0  0
  3  2  2  0  0  0  0
  4  3  1  0  0  0  0
  5  4  2  0  0  0  0
  5  6  1  0  0  0  0
  6  1  2  0  0  0  0
  9  5  1  1  0  0  0
 10 11  1  0  0  0  0
 10  9  1  0  0  0  0
 12 14  1  0  0  0  0
 12 10  1  0  0  0  0
 13 12  1  0  0  0  0
 14 15  1  0  0  0  0
 15  9  1  0  0  0  0
 16 15  1  0  0  0  0
 19 18  2  0  0  0  0
 19 22  1  0  0  0  0
 19 17  1  0  0  0  0
 20 19  1  0  0  0  0
 21 20  1  0  0  0  0
 22 23  1  0  0  0  0
M  END
>  <minimizedAffinity>
-4.23941088

$$$$
