
 OpenBabel03252500153D

 37 40  0  0  1  0  0  0  0  0999 V2000
   45.4980   32.4440   40.2010 Cl  0  0  0  0  0  0  0  0  0  0  0  0
   46.8190   33.5420   39.9410 C   0  0  0  0  0  0  0  0  0  0  0  0
   47.3830   34.2310   40.9820 C   0  0  0  0  0  0  0  0  0  0  0  0
   48.4410   35.1170   40.8030 C   0  0  0  0  0  0  0  0  0  0  0  0
   48.8910   35.2630   39.5130 C   0  0  0  0  0  0  0  0  0  0  0  0
   48.3310   34.5730   38.4520 C   0  0  0  0  0  0  0  0  0  0  0  0
   47.3070   33.7220   38.6600 C   0  0  0  0  0  0  0  0  0  0  0  0
   48.8830   35.6560   41.6140 H   0  0  0  0  0  0  0  0  0  0  0  0
   49.7100   35.9450   39.3640 H   0  0  0  0  0  0  0  0  0  0  0  0
   48.7000   34.7020   37.4480 H   0  0  0  0  0  0  0  0  0  0  0  0
   46.7260   32.7640   44.3010 C   0  0  0  0  0  0  0  0  0  0  0  0
   45.8310   33.6970   44.8820 C   0  0  0  0  0  0  0  0  0  0  0  0
   45.4730   34.8100   44.1200 C   0  0  0  0  0  0  0  0  0  0  0  0
   46.0030   34.9340   42.8660 N   0  0  0  0  0  0  0  0  0  0  0  0
   46.8520   34.0290   42.3410 C   0  0  0  0  0  0  0  0  0  0  0  0
   47.2010   32.9630   43.0600 N   0  0  0  0  0  0  0  0  0  0  0  0
   46.9840   31.9100   44.9210 H   0  0  0  0  0  0  0  0  0  0  0  0
   45.3980   33.6290   45.8600 H   0  0  0  0  0  0  0  0  0  0  0  0
   44.5380   35.8630   44.6210 C   0  0  0  0  0  0  0  0  0  0  0  0
   45.0250   37.1060   44.3700 F   0  0  0  0  0  0  0  0  0  0  0  0
   43.3250   35.7100   43.9780 F   0  0  0  0  0  0  0  0  0  0  0  0
   44.3800   35.6420   45.9660 F   0  0  0  0  0  0  0  0  0  0  0  0
   46.6980   32.9830   37.5570 C   0  0  0  0  0  0  0  0  0  0  0  0
   45.4440   33.2910   37.0110 C   0  0  0  0  0  0  0  0  0  0  0  0
   45.1850   32.3900   35.9900 C   0  0  0  0  0  0  0  0  0  0  0  0
   46.3120   31.5810   35.9790 C   0  0  0  0  0  0  0  0  0  0  0  0
   47.1800   31.9420   36.9010 O   0  0  0  0  0  0  0  0  0  0  0  0
   44.7950   34.0950   37.3350 H   0  0  0  0  0  0  0  0  0  0  0  0
   44.3390   32.3150   35.3550 H   0  0  0  0  0  0  0  0  0  0  0  0
   46.5550   30.4480   35.0760 C   0  0  1  0  0  0  0  0  0  0  0  0
   45.6200   30.4480   33.8590 C   0  0  0  0  0  0  0  0  0  0  0  0
   45.6510   31.4150   33.3420 H   0  0  0  0  0  0  0  0  0  0  0  0
   46.4080   29.4450   33.0050 C   0  0  0  0  0  0  0  0  0  0  0  0
   46.0870   29.4490   31.9530 H   0  0  0  0  0  0  0  0  0  0  0  0
   47.7410   29.7490   33.2060 O   0  0  0  0  0  0  0  0  0  0  0  0
   47.8750   30.4800   34.3670 C   0  0  0  0  0  0  0  0  0  0  0  0
   48.0760   31.5310   34.0650 H   0  0  0  0  0  0  0  0  0  0  0  0
  2  1  1  0  0  0  0
  2  3  1  0  0  0  0
  3 15  1  0  0  0  0
  4  3  2  0  0  0  0
  4  8  1  0  0  0  0
  5  4  1  0  0  0  0
  6  7  1  0  0  0  0
  6  5  2  0  0  0  0
  7  2  2  0  0  0  0
  9  5  1  0  0  0  0
 10  6  1  0  0  0  0
 11 12  1  0  0  0  0
 11 17  1  0  0  0  0
 12 18  1  0  0  0  0
 13 19  1  0  0  0  0
 13 12  2  0  0  0  0
 14 13  1  0  0  0  0
 15 14  2  0  0  0  0
 15 16  1  0  0  0  0
 16 11  2  0  0  0  0
 19 22  1  0  0  0  0
 20 19  1  0  0  0  0
 21 19  1  0  0  0  0
 23  7  1  0  0  0  0
 24 28  1  0  0  0  0
 24 23  2  0  0  0  0
 25 24  1  0  0  0  0
 26 25  2  0  0  0  0
 26 27  1  0  0  0  0
 27 23  1  0  0  0  0
 29 25  1  0  0  0  0
 30 26  1  1  0  0  0
 31 30  1  0  0  0  0
 32 31  1  0  0  0  0
 33 35  1  0  0  0  0
 33 31  1  0  0  0  0
 34 33  1  0  0  0  0
 35 36  1  0  0  0  0
 36 30  1  0  0  0  0
 37 36  1  0  0  0  0
M  END
>  <minimizedAffinity>
-5.8788147

>  <minimizedRMSD>
0.975181699

$$$$
