
 OpenBabel03242516233D

 28 30  0  0  1  0  0  0  0  0999 V2000
   37.6670   30.6900   41.0240 C   0  0  0  0  0  0  0  0  0  0  0  0
   38.1170   29.7420   41.9410 C   0  0  0  0  0  0  0  0  0  0  0  0
   37.3740   28.6210   42.2350 C   0  0  0  0  0  0  0  0  0  0  0  0
   36.1430   28.4160   41.6110 C   0  0  0  0  0  0  0  0  0  0  0  0
   35.7010   29.3450   40.7090 C   0  0  0  0  0  0  0  0  0  0  0  0
   36.4640   30.4640   40.4300 C   0  0  0  0  0  0  0  0  0  0  0  0
   39.0840   29.9550   42.3970 H   0  0  0  0  0  0  0  0  0  0  0  0
   35.5330   27.5600   41.8070 H   0  0  0  0  0  0  0  0  0  0  0  0
   34.7560   29.2440   40.1900 H   0  0  0  0  0  0  0  0  0  0  0  0
   36.1060   31.1800   39.7240 H   0  0  0  0  0  0  0  0  0  0  0  0
   38.5300   34.1060   40.0470 C   0  0  0  0  0  0  0  0  0  0  0  0
   39.9200   34.1570   40.1830 C   0  0  0  0  0  0  0  0  0  0  0  0
   40.5800   32.9960   40.6210 C   0  0  0  0  0  0  0  0  0  0  0  0
   39.8480   31.8770   40.8910 N   0  0  0  0  0  0  0  0  0  0  0  0
   38.5000   31.8760   40.7430 C   0  0  0  0  0  0  0  0  0  0  0  0
   37.8450   32.9850   40.3240 N   0  0  0  0  0  0  0  0  0  0  0  0
   37.9670   34.9840   39.7090 H   0  0  0  0  0  0  0  0  0  0  0  0
   40.4750   35.0530   39.9640 H   0  0  0  0  0  0  0  0  0  0  0  0
   41.6530   32.9720   40.7470 H   0  0  0  0  0  0  0  0  0  0  0  0
   37.9600   27.4350   43.4080 S   0  0  0  0  0  0  0  0  0  0  0  0
   39.3460   26.5320   42.6900 C   0  0  2  0  0  3  0  0  0  0  0  0
   38.8380   25.6230   41.6190 C   0  0  0  0  0  3  0  0  0  0  0  0
   39.5290   25.7120   40.7300 H   0  0  0  0  0  0  0  0  0  0  0  0
   39.0350   24.2540   42.2430 C   0  0  0  0  0  3  0  0  0  0  0  0
   38.2010   24.0850   42.9680 H   0  0  0  0  0  0  0  0  0  0  0  0
   40.2110   24.4060   42.9600 O   0  0  0  0  0  0  0  0  0  0  0  0
   39.9800   25.5850   43.6790 C   0  0  0  0  0  3  0  0  0  0  0  0
   40.9420   26.0010   44.0460 H   0  0  0  0  0  0  0  0  0  0  0  0
  1  2  1  0  0  0  0
  2  3  2  0  0  0  0
  2  7  1  0  0  0  0
  3 20  1  0  0  0  0
  4  8  1  0  0  0  0
  4  3  1  0  0  0  0
  5  4  2  0  0  0  0
  6  5  1  0  0  0  0
  6  1  2  0  0  0  0
  9  5  1  0  0  0  0
 10  6  1  0  0  0  0
 11 12  2  0  0  0  0
 11 16  1  0  0  0  0
 12 13  1  0  0  0  0
 13 19  1  0  0  0  0
 13 14  2  0  0  0  0
 15 14  1  0  0  0  0
 15  1  1  0  0  0  0
 16 15  2  0  0  0  0
 17 11  1  0  0  0  0
 18 12  1  0  0  0  0
 21 20  1  1  0  0  0
 21 27  1  0  0  0  0
 22 24  1  0  0  0  0
 22 21  1  0  0  0  0
 23 22  1  0  0  0  0
 24 26  1  0  0  0  0
 24 25  1  0  0  0  0
 26 27  1  0  0  0  0
 27 28  1  0  0  0  0
M  END
>  <minimizedAffinity>
-4.87509727

$$$$

 OpenBabel03242516233D

 28 30  0  0  1  0  0  0  0  0999 V2000
   37.2260   26.7510   41.5290 C   0  0  0  0  0  0  0  0  0  0  0  0
   37.7970   27.9070   41.0020 C   0  0  0  0  0  0  0  0  0  0  0  0
   38.0710   28.9970   41.7980 C   0  0  0  0  0  0  0  0  0  0  0  0
   37.7760   28.9580   43.1610 C   0  0  0  0  0  0  0  0  0  0  0  0
   37.2170   27.8220   43.6800 C   0  0  0  0  0  0  0  0  0  0  0  0
   36.9490   26.7400   42.8610 C   0  0  0  0  0  0  0  0  0  0  0  0
   38.0050   27.8810   39.9320 H   0  0  0  0  0  0  0  0  0  0  0  0
   37.9730   29.7780   43.8170 H   0  0  0  0  0  0  0  0  0  0  0  0
   36.9660   27.7270   44.7290 H   0  0  0  0  0  0  0  0  0  0  0  0
   36.5130   25.8600   43.2800 H   0  0  0  0  0  0  0  0  0  0  0  0
   36.3010   24.9300   38.4950 C   0  0  0  0  0  0  0  0  0  0  0  0
   36.4030   23.5860   38.8630 C   0  0  0  0  0  0  0  0  0  0  0  0
   36.7980   23.2920   40.1790 C   0  0  0  0  0  0  0  0  0  0  0  0
   37.0630   24.3180   41.0380 N   0  0  0  0  0  0  0  0  0  0  0  0
   36.9500   25.6090   40.6350 C   0  0  0  0  0  0  0  0  0  0  0  0
   36.5710   25.9120   39.3700 N   0  0  0  0  0  0  0  0  0  0  0  0
   35.9970   25.2130   37.4800 H   0  0  0  0  0  0  0  0  0  0  0  0
   36.1890   22.7930   38.1660 H   0  0  0  0  0  0  0  0  0  0  0  0
   36.8970   22.2720   40.5230 H   0  0  0  0  0  0  0  0  0  0  0  0
   38.7890   30.4580   41.1070 S   0  0  0  0  0  0  0  0  0  0  0  0
   37.4730   31.6140   40.6780 C   0  0  2  0  0  3  0  0  0  0  0  0
   36.8380   31.1830   39.3970 C   0  0  0  0  0  3  0  0  0  0  0  0
   35.7200   31.2640   39.5170 H   0  0  0  0  0  0  0  0  0  0  0  0
   37.2960   32.2650   38.4360 C   0  0  0  0  0  3  0  0  0  0  0  0
   38.3520   32.0410   38.1440 H   0  0  0  0  0  0  0  0  0  0  0  0
   37.2950   33.4030   39.2260 O   0  0  0  0  0  0  0  0  0  0  0  0
   38.0070   32.9890   40.3590 C   0  0  0  0  0  3  0  0  0  0  0  0
   37.8130   33.6820   41.2040 H   0  0  0  0  0  0  0  0  0  0  0  0
  1  6  1  0  0  0  0
  2  1  2  0  0  0  0
  2  3  1  0  0  0  0
  3  4  2  0  0  0  0
  4  5  1  0  0  0  0
  4  8  1  0  0  0  0
  5  9  1  0  0  0  0
  6 10  1  0  0  0  0
  6  5  2  0  0  0  0
  7  2  1  0  0  0  0
 11 12  2  0  0  0  0
 11 16  1  0  0  0  0
 12 13  1  0  0  0  0
 13 19  1  0  0  0  0
 13 14  2  0  0  0  0
 15 14  1  0  0  0  0
 15  1  1  0  0  0  0
 16 15  2  0  0  0  0
 17 11  1  0  0  0  0
 18 12  1  0  0  0  0
 20  3  1  0  0  0  0
 21 20  1  6  0  0  0
 22 23  1  0  0  0  0
 22 21  1  0  0  0  0
 24 26  1  0  0  0  0
 24 22  1  0  0  0  0
 25 24  1  0  0  0  0
 26 27  1  0  0  0  0
 27 21  1  0  0  0  0
 27 28  1  0  0  0  0
M  END
>  <minimizedAffinity>
-4.8379302

$$$$

 OpenBabel03242516233D

 28 30  0  0  1  0  0  0  0  0999 V2000
   38.3900   25.1440   41.9870 C   0  0  0  0  0  0  0  0  0  0  0  0
   37.9090   26.4510   42.0280 C   0  0  0  0  0  0  0  0  0  0  0  0
   38.4730   27.3950   42.8570 C   0  0  0  0  0  0  0  0  0  0  0  0
   39.5470   27.0520   43.6790 C   0  0  0  0  0  0  0  0  0  0  0  0
   40.0210   25.7680   43.6380 C   0  0  0  0  0  0  0  0  0  0  0  0
   39.4380   24.8360   42.7980 C   0  0  0  0  0  0  0  0  0  0  0  0
   37.0700   26.6610   41.3660 H   0  0  0  0  0  0  0  0  0  0  0  0
   40.0170   27.7510   44.3360 H   0  0  0  0  0  0  0  0  0  0  0  0
   40.8520   25.4380   44.2480 H   0  0  0  0  0  0  0  0  0  0  0  0
   39.8190   23.8390   42.7780 H   0  0  0  0  0  0  0  0  0  0  0  0
   35.8270   23.5970   39.8860 C   0  0  0  0  0  0  0  0  0  0  0  0
   36.4400   22.4360   39.4050 C   0  0  0  0  0  0  0  0  0  0  0  0
   37.7610   22.1750   39.8060 C   0  0  0  0  0  0  0  0  0  0  0  0
   38.3870   23.0530   40.6410 N   0  0  0  0  0  0  0  0  0  0  0  0
   37.7510   24.1670   41.0830 C   0  0  0  0  0  0  0  0  0  0  0  0
   36.4790   24.4360   40.7070 N   0  0  0  0  0  0  0  0  0  0  0  0
   34.7980   23.8470   39.6030 H   0  0  0  0  0  0  0  0  0  0  0  0
   35.9240   21.7590   38.7450 H   0  0  0  0  0  0  0  0  0  0  0  0
   38.2890   21.2950   39.4660 H   0  0  0  0  0  0  0  0  0  0  0  0
   37.8420   29.0470   42.8990 S   0  0  0  0  0  0  0  0  0  0  0  0
   37.4920   29.5860   41.2150 C   0  0  2  0  0  3  0  0  0  0  0  0
   38.6320   30.4100   40.7150 C   0  0  0  0  0  3  0  0  0  0  0  0
   38.8660   30.0810   39.6620 H   0  0  0  0  0  0  0  0  0  0  0  0
   38.0210   31.7980   40.6570 C   0  0  0  0  0  3  0  0  0  0  0  0
   38.0030   32.2090   41.6970 H   0  0  0  0  0  0  0  0  0  0  0  0
   36.7150   31.5460   40.2680 O   0  0  0  0  0  0  0  0  0  0  0  0
   36.3210   30.5360   41.1550 C   0  0  0  0  0  3  0  0  0  0  0  0
   35.4230   30.0150   40.7630 H   0  0  0  0  0  0  0  0  0  0  0  0
  1  2  2  0  0  0  0
  1  6  1  0  0  0  0
  2  3  1  0  0  0  0
  3 20  1  0  0  0  0
  3  4  2  0  0  0  0
  4  8  1  0  0  0  0
  5  4  1  0  0  0  0
  5  9  1  0  0  0  0
  6  5  2  0  0  0  0
  7  2  1  0  0  0  0
 10  6  1  0  0  0  0
 11 16  1  0  0  0  0
 12 13  1  0  0  0  0
 12 11  2  0  0  0  0
 13 14  2  0  0  0  0
 14 15  1  0  0  0  0
 15  1  1  0  0  0  0
 16 15  2  0  0  0  0
 17 11  1  0  0  0  0
 18 12  1  0  0  0  0
 19 13  1  0  0  0  0
 21 20  1  1  0  0  0
 22 21  1  0  0  0  0
 23 22  1  0  0  0  0
 24 22  1  0  0  0  0
 24 25  1  0  0  0  0
 26 24  1  0  0  0  0
 26 27  1  0  0  0  0
 27 21  1  0  0  0  0
 28 27  1  0  0  0  0
M  END
>  <minimizedAffinity>
-4.73063087

$$$$

 OpenBabel03242516233D

 28 30  0  0  1  0  0  0  0  0999 V2000
   37.6370   29.4180   41.8470 C   0  0  0  0  0  0  0  0  0  0  0  0
   37.4370   28.3470   40.9790 C   0  0  0  0  0  0  0  0  0  0  0  0
   37.1320   27.0900   41.4520 C   0  0  0  0  0  0  0  0  0  0  0  0
   37.0190   26.8680   42.8250 C   0  0  0  0  0  0  0  0  0  0  0  0
   37.2150   27.9210   43.6780 C   0  0  0  0  0  0  0  0  0  0  0  0
   37.5200   29.1740   43.1810 C   0  0  0  0  0  0  0  0  0  0  0  0
   37.5370   28.5790   39.9190 H   0  0  0  0  0  0  0  0  0  0  0  0
   36.7830   25.9110   43.2360 H   0  0  0  0  0  0  0  0  0  0  0  0
   37.1400   27.8160   44.7530 H   0  0  0  0  0  0  0  0  0  0  0  0
   37.6700   29.9850   43.8590 H   0  0  0  0  0  0  0  0  0  0  0  0
   37.2300   32.5380   39.9820 C   0  0  0  0  0  0  0  0  0  0  0  0
   38.4320   33.2180   40.1950 C   0  0  0  0  0  0  0  0  0  0  0  0
   39.4060   32.5980   40.9960 C   0  0  0  0  0  0  0  0  0  0  0  0
   39.1450   31.3690   41.5280 N   0  0  0  0  0  0  0  0  0  0  0  0
   37.9630   30.7470   41.2920 C   0  0  0  0  0  0  0  0  0  0  0  0
   37.0110   31.3290   40.5240 N   0  0  0  0  0  0  0  0  0  0  0  0
   36.4380   32.9780   39.3660 H   0  0  0  0  0  0  0  0  0  0  0  0
   38.6140   34.1880   39.7650 H   0  0  0  0  0  0  0  0  0  0  0  0
   40.3550   33.0740   41.1990 H   0  0  0  0  0  0  0  0  0  0  0  0
   36.8890   25.7420   40.3330 S   0  0  0  0  0  0  0  0  0  0  0  0
   38.4010   24.7630   40.2550 C   0  0  2  0  0  3  0  0  0  0  0  0
   38.3950   23.7600   41.3610 C   0  0  0  0  0  3  0  0  0  0  0  0
   38.7340   22.7710   40.9370 H   0  0  0  0  0  0  0  0  0  0  0  0
   39.4850   24.2880   42.2750 C   0  0  0  0  0  3  0  0  0  0  0  0
   39.0600   25.1380   42.8620 H   0  0  0  0  0  0  0  0  0  0  0  0
   40.4170   24.7980   41.3850 O   0  0  0  0  0  0  0  0  0  0  0  0
   39.6290   25.5910   40.5410 C   0  0  0  0  0  3  0  0  0  0  0  0
   40.1770   25.8030   39.5990 H   0  0  0  0  0  0  0  0  0  0  0  0
  1  6  1  0  0  0  0
  2  3  1  0  0  0  0
  2  1  2  0  0  0  0
  3  4  2  0  0  0  0
  4  8  1  0  0  0  0
  4  5  1  0  0  0  0
  5  9  1  0  0  0  0
  6  5  2  0  0  0  0
  6 10  1  0  0  0  0
  7  2  1  0  0  0  0
 11 12  2  0  0  0  0
 11 16  1  0  0  0  0
 12 13  1  0  0  0  0
 13 19  1  0  0  0  0
 13 14  2  0  0  0  0
 15 14  1  0  0  0  0
 15  1  1  0  0  0  0
 16 15  2  0  0  0  0
 17 11  1  0  0  0  0
 18 12  1  0  0  0  0
 20  3  1  0  0  0  0
 21 20  1  1  0  0  0
 21 27  1  0  0  0  0
 21 22  1  0  0  0  0
 22 24  1  0  0  0  0
 23 22  1  0  0  0  0
 24 25  1  0  0  0  0
 26 24  1  0  0  0  0
 27 26  1  0  0  0  0
 28 27  1  0  0  0  0
M  END
>  <minimizedAffinity>
-4.69473362

$$$$

 OpenBabel03242516233D

 28 30  0  0  1  0  0  0  0  0999 V2000
   37.4890   28.3090   41.6510 C   0  0  0  0  0  0  0  0  0  0  0  0
   38.0220   29.5740   41.4140 C   0  0  0  0  0  0  0  0  0  0  0  0
   37.2700   30.5700   40.8320 C   0  0  0  0  0  0  0  0  0  0  0  0
   35.9470   30.3230   40.4640 C   0  0  0  0  0  0  0  0  0  0  0  0
   35.4220   29.0800   40.6970 C   0  0  0  0  0  0  0  0  0  0  0  0
   36.1960   28.0950   41.2830 C   0  0  0  0  0  0  0  0  0  0  0  0
   39.0580   29.7100   41.7220 H   0  0  0  0  0  0  0  0  0  0  0  0
   35.3260   31.0650   40.0110 H   0  0  0  0  0  0  0  0  0  0  0  0
   34.4030   28.8250   40.4370 H   0  0  0  0  0  0  0  0  0  0  0  0
   35.7730   27.1310   41.4580 H   0  0  0  0  0  0  0  0  0  0  0  0
   38.7650   24.9870   42.4930 C   0  0  0  0  0  0  0  0  0  0  0  0
   39.8250   25.2440   43.3680 C   0  0  0  0  0  0  0  0  0  0  0  0
   40.1120   26.5830   43.6770 C   0  0  0  0  0  0  0  0  0  0  0  0
   39.3540   27.5720   43.1210 N   0  0  0  0  0  0  0  0  0  0  0  0
   38.3340   27.2740   42.2770 C   0  0  0  0  0  0  0  0  0  0  0  0
   38.0430   25.9890   41.9650 N   0  0  0  0  0  0  0  0  0  0  0  0
   38.5000   23.9600   42.2180 H   0  0  0  0  0  0  0  0  0  0  0  0
   40.4090   24.4460   43.7940 H   0  0  0  0  0  0  0  0  0  0  0  0
   40.9200   26.8470   44.3460 H   0  0  0  0  0  0  0  0  0  0  0  0
   37.9680   32.1670   40.5340 S   0  0  0  0  0  0  0  0  0  0  0  0
   38.7440   32.1760   38.9060 C   0  0  2  0  0  3  0  0  0  0  0  0
   37.8040   31.5810   37.9100 C   0  0  0  0  0  3  0  0  0  0  0  0
   37.8150   32.2320   36.9880 H   0  0  0  0  0  0  0  0  0  0  0  0
   38.4850   30.2670   37.5760 C   0  0  0  0  0  3  0  0  0  0  0  0
   38.2720   29.5490   38.4060 H   0  0  0  0  0  0  0  0  0  0  0  0
   39.8310   30.5940   37.6190 O   0  0  0  0  0  0  0  0  0  0  0  0
   39.9430   31.2630   38.8440 C   0  0  0  0  0  3  0  0  0  0  0  0
   40.8810   31.8570   38.8680 H   0  0  0  0  0  0  0  0  0  0  0  0
  1 15  1  0  0  0  0
  2  1  1  0  0  0  0
  2  7  1  0  0  0  0
  3  2  2  0  0  0  0
  4  5  2  0  0  0  0
  4  3  1  0  0  0  0
  5  6  1  0  0  0  0
  6 10  1  0  0  0  0
  6  1  2  0  0  0  0
  8  4  1  0  0  0  0
  9  5  1  0  0  0  0
 11 12  1  0  0  0  0
 12 13  2  0  0  0  0
 12 18  1  0  0  0  0
 13 19  1  0  0  0  0
 14 13  1  0  0  0  0
 15 14  2  0  0  0  0
 16 15  1  0  0  0  0
 16 11  2  0  0  0  0
 17 11  1  0  0  0  0
 20  3  1  0  0  0  0
 21 20  1  1  0  0  0
 22 21  1  0  0  0  0
 23 22  1  0  0  0  0
 24 26  1  0  0  0  0
 24 22  1  0  0  0  0
 24 25  1  0  0  0  0
 26 27  1  0  0  0  0
 27 28  1  0  0  0  0
 27 21  1  0  0  0  0
M  END
>  <minimizedAffinity>
-4.63460445

$$$$

 OpenBabel03242516233D

 28 30  0  0  1  0  0  0  0  0999 V2000
   38.9080   29.9040   41.7260 C   0  0  0  0  0  0  0  0  0  0  0  0
   38.0240   28.8300   41.8070 C   0  0  0  0  0  0  0  0  0  0  0  0
   38.3770   27.6600   42.4410 C   0  0  0  0  0  0  0  0  0  0  0  0
   39.6410   27.5300   43.0170 C   0  0  0  0  0  0  0  0  0  0  0  0
   40.5090   28.5850   42.9390 C   0  0  0  0  0  0  0  0  0  0  0  0
   40.1340   29.7510   42.2970 C   0  0  0  0  0  0  0  0  0  0  0  0
   37.0520   28.9880   41.3400 H   0  0  0  0  0  0  0  0  0  0  0  0
   39.9560   26.6410   43.5190 H   0  0  0  0  0  0  0  0  0  0  0  0
   41.5030   28.5490   43.3660 H   0  0  0  0  0  0  0  0  0  0  0  0
   40.8220   30.5650   42.2440 H   0  0  0  0  0  0  0  0  0  0  0  0
   36.9880   32.1010   39.5220 C   0  0  0  0  0  0  0  0  0  0  0  0
   37.5900   33.3520   39.6830 C   0  0  0  0  0  0  0  0  0  0  0  0
   38.6770   33.4500   40.5670 C   0  0  0  0  0  0  0  0  0  0  0  0
   39.1010   32.3320   41.2250 N   0  0  0  0  0  0  0  0  0  0  0  0
   38.4850   31.1390   41.0360 C   0  0  0  0  0  0  0  0  0  0  0  0
   37.4340   31.0250   40.1890 N   0  0  0  0  0  0  0  0  0  0  0  0
   36.1360   31.9720   38.8450 H   0  0  0  0  0  0  0  0  0  0  0  0
   37.2370   34.2200   39.1530 H   0  0  0  0  0  0  0  0  0  0  0  0
   39.1850   34.3900   40.7360 H   0  0  0  0  0  0  0  0  0  0  0  0
   37.2420   26.3060   42.5250 S   0  0  0  0  0  0  0  0  0  0  0  0
   37.1450   25.5170   40.9060 C   0  0  2  0  0  3  0  0  0  0  0  0
   36.5960   24.1370   41.0640 C   0  0  0  0  0  3  0  0  0  0  0  0
   35.8280   23.9730   40.2540 H   0  0  0  0  0  0  0  0  0  0  0  0
   37.8070   23.2770   40.7550 C   0  0  0  0  0  3  0  0  0  0  0  0
   38.4610   23.2650   41.6620 H   0  0  0  0  0  0  0  0  0  0  0  0
   38.4550   23.9950   39.7620 O   0  0  0  0  0  0  0  0  0  0  0  0
   38.5100   25.2850   40.3060 C   0  0  0  0  0  3  0  0  0  0  0  0
   38.7080   26.0260   39.5040 H   0  0  0  0  0  0  0  0  0  0  0  0
  1  2  2  0  0  0  0
  1  6  1  0  0  0  0
  2  3  1  0  0  0  0
  3 20  1  0  0  0  0
  3  4  2  0  0  0  0
  4  8  1  0  0  0  0
  5  4  1  0  0  0  0
  5  9  1  0  0  0  0
  6  5  2  0  0  0  0
  7  2  1  0  0  0  0
 10  6  1  0  0  0  0
 11 12  2  0  0  0  0
 11 16  1  0  0  0  0
 12 13  1  0  0  0  0
 13 19  1  0  0  0  0
 13 14  2  0  0  0  0
 15 14  1  0  0  0  0
 15  1  1  0  0  0  0
 16 15  2  0  0  0  0
 17 11  1  0  0  0  0
 18 12  1  0  0  0  0
 21 22  1  0  0  0  0
 21 20  1  1  0  0  0
 23 22  1  0  0  0  0
 24 22  1  0  0  0  0
 24 25  1  0  0  0  0
 26 27  1  0  0  0  0
 26 24  1  0  0  0  0
 27 21  1  0  0  0  0
 28 27  1  0  0  0  0
M  END
>  <minimizedAffinity>
-4.56101084

$$$$

 OpenBabel03242516233D

 28 30  0  0  1  0  0  0  0  0999 V2000
   39.2000   31.5650   39.0900 C   0  0  0  0  0  0  0  0  0  0  0  0
   39.1220   30.7000   40.1790 C   0  0  0  0  0  0  0  0  0  0  0  0
   37.9800   30.6140   40.9440 C   0  0  0  0  0  0  0  0  0  0  0  0
   36.8710   31.4030   40.6370 C   0  0  0  0  0  0  0  0  0  0  0  0
   36.9470   32.2520   39.5660 C   0  0  0  0  0  0  0  0  0  0  0  0
   38.1040   32.3230   38.8120 C   0  0  0  0  0  0  0  0  0  0  0  0
   40.0170   30.1090   40.3720 H   0  0  0  0  0  0  0  0  0  0  0  0
   35.9650   31.3680   41.2010 H   0  0  0  0  0  0  0  0  0  0  0  0
   36.1220   32.8900   39.2730 H   0  0  0  0  0  0  0  0  0  0  0  0
   38.1470   32.9900   37.9800 H   0  0  0  0  0  0  0  0  0  0  0  0
   42.1130   30.4010   37.2100 C   0  0  0  0  0  0  0  0  0  0  0  0
   42.7620   31.5790   36.8290 C   0  0  0  0  0  0  0  0  0  0  0  0
   42.1910   32.8010   37.2210 C   0  0  0  0  0  0  0  0  0  0  0  0
   41.0390   32.7920   37.9530 N   0  0  0  0  0  0  0  0  0  0  0  0
   40.4460   31.6230   38.3000 C   0  0  0  0  0  0  0  0  0  0  0  0
   40.9800   30.4350   37.9300 N   0  0  0  0  0  0  0  0  0  0  0  0
   42.5160   29.4220   36.9290 H   0  0  0  0  0  0  0  0  0  0  0  0
   43.6700   31.5600   36.2500 H   0  0  0  0  0  0  0  0  0  0  0  0
   42.6440   33.7460   36.9560 H   0  0  0  0  0  0  0  0  0  0  0  0
   37.9050   29.5150   42.3280 S   0  0  0  0  0  0  0  0  0  0  0  0
   36.7100   28.2100   41.9790 C   0  0  2  0  0  3  0  0  0  0  0  0
   36.7990   27.1640   43.0400 C   0  0  0  0  0  3  0  0  0  0  0  0
   35.7490   26.8840   43.3440 H   0  0  0  0  0  0  0  0  0  0  0  0
   37.4070   25.9970   42.2850 C   0  0  0  0  0  3  0  0  0  0  0  0
   38.5050   26.1840   42.1890 H   0  0  0  0  0  0  0  0  0  0  0  0
   36.8350   26.1070   41.0280 O   0  0  0  0  0  0  0  0  0  0  0  0
   37.0450   27.4560   40.7150 C   0  0  0  0  0  3  0  0  0  0  0  0
   36.3680   27.7650   39.8920 H   0  0  0  0  0  0  0  0  0  0  0  0
  1  2  1  0  0  0  0
  2  7  1  0  0  0  0
  2  3  2  0  0  0  0
  3 20  1  0  0  0  0
  4  3  1  0  0  0  0
  4  8  1  0  0  0  0
  5  4  2  0  0  0  0
  6  1  2  0  0  0  0
  6  5  1  0  0  0  0
  9  5  1  0  0  0  0
 10  6  1  0  0  0  0
 11 16  1  0  0  0  0
 12 11  2  0  0  0  0
 12 13  1  0  0  0  0
 13 14  2  0  0  0  0
 14 15  1  0  0  0  0
 15  1  1  0  0  0  0
 16 15  2  0  0  0  0
 17 11  1  0  0  0  0
 18 12  1  0  0  0  0
 19 13  1  0  0  0  0
 21 20  1  1  0  0  0
 21 22  1  0  0  0  0
 22 23  1  0  0  0  0
 24 22  1  0  0  0  0
 25 24  1  0  0  0  0
 26 24  1  0  0  0  0
 27 26  1  0  0  0  0
 27 21  1  0  0  0  0
 28 27  1  0  0  0  0
M  END
>  <minimizedAffinity>
-4.55102634

$$$$

 OpenBabel03242516233D

 28 30  0  0  1  0  0  0  0  0999 V2000
   39.0760   27.4040   42.6870 C   0  0  0  0  0  0  0  0  0  0  0  0
   38.7980   27.9510   41.4360 C   0  0  0  0  0  0  0  0  0  0  0  0
   37.5150   28.2980   41.0770 C   0  0  0  0  0  0  0  0  0  0  0  0
   36.4610   28.1030   41.9700 C   0  0  0  0  0  0  0  0  0  0  0  0
   36.7340   27.5670   43.2000 C   0  0  0  0  0  0  0  0  0  0  0  0
   38.0300   27.2250   43.5390 C   0  0  0  0  0  0  0  0  0  0  0  0
   39.6590   28.0800   40.7810 H   0  0  0  0  0  0  0  0  0  0  0  0
   35.4510   28.3590   41.7350 H   0  0  0  0  0  0  0  0  0  0  0  0
   35.9620   27.3920   43.9390 H   0  0  0  0  0  0  0  0  0  0  0  0
   38.2270   26.8070   44.5020 H   0  0  0  0  0  0  0  0  0  0  0  0
   42.5730   27.8300   43.6670 C   0  0  0  0  0  0  0  0  0  0  0  0
   43.0820   26.5280   43.6800 C   0  0  0  0  0  0  0  0  0  0  0  0
   42.2110   25.4780   43.3460 C   0  0  0  0  0  0  0  0  0  0  0  0
   40.9160   25.7660   43.0250 N   0  0  0  0  0  0  0  0  0  0  0  0
   40.4670   27.0460   43.0270 C   0  0  0  0  0  0  0  0  0  0  0  0
   41.2920   28.0710   43.3470 N   0  0  0  0  0  0  0  0  0  0  0  0
   43.2120   28.6850   43.9210 H   0  0  0  0  0  0  0  0  0  0  0  0
   44.1080   26.3270   43.9370 H   0  0  0  0  0  0  0  0  0  0  0  0
   42.5440   24.4500   43.3390 H   0  0  0  0  0  0  0  0  0  0  0  0
   37.1830   28.9840   39.4810 S   0  0  0  0  0  0  0  0  0  0  0  0
   36.6250   30.6880   39.6770 C   0  0  2  0  0  3  0  0  0  0  0  0
   37.0590   31.4870   38.4930 C   0  0  0  0  0  3  0  0  0  0  0  0
   36.1900   32.1290   38.1680 H   0  0  0  0  0  0  0  0  0  0  0  0
   38.1230   32.3890   39.0900 C   0  0  0  0  0  3  0  0  0  0  0  0
   39.0600   31.7900   39.1980 H   0  0  0  0  0  0  0  0  0  0  0  0
   37.6290   32.6550   40.3580 O   0  0  0  0  0  0  0  0  0  0  0  0
   37.3060   31.3780   40.8340 C   0  0  0  0  0  3  0  0  0  0  0  0
   36.6120   31.4590   41.6960 H   0  0  0  0  0  0  0  0  0  0  0  0
  1 15  1  0  0  0  0
  1  6  1  0  0  0  0
  2  1  2  0  0  0  0
  3  2  1  0  0  0  0
  3  4  2  0  0  0  0
  4  5  1  0  0  0  0
  5  6  2  0  0  0  0
  5  9  1  0  0  0  0
  6 10  1  0  0  0  0
  7  2  1  0  0  0  0
  8  4  1  0  0  0  0
 11 12  1  0  0  0  0
 11 17  1  0  0  0  0
 12 18  1  0  0  0  0
 13 12  2  0  0  0  0
 14 15  2  0  0  0  0
 14 13  1  0  0  0  0
 15 16  1  0  0  0  0
 16 11  2  0  0  0  0
 19 13  1  0  0  0  0
 20  3  1  0  0  0  0
 21 20  1  6  0  0  0
 21 27  1  0  0  0  0
 22 24  1  0  0  0  0
 22 21  1  0  0  0  0
 23 22  1  0  0  0  0
 24 25  1  0  0  0  0
 24 26  1  0  0  0  0
 26 27  1  0  0  0  0
 27 28  1  0  0  0  0
M  END
>  <minimizedAffinity>
-4.51345921

$$$$

 OpenBabel03242516233D

 28 30  0  0  1  0  0  0  0  0999 V2000
   37.9180   28.9480   41.2910 C   0  0  0  0  0  0  0  0  0  0  0  0
   38.5900   27.7290   41.2330 C   0  0  0  0  0  0  0  0  0  0  0  0
   38.7810   26.9620   42.3610 C   0  0  0  0  0  0  0  0  0  0  0  0
   38.2990   27.4020   43.5940 C   0  0  0  0  0  0  0  0  0  0  0  0
   37.6380   28.5990   43.6520 C   0  0  0  0  0  0  0  0  0  0  0  0
   37.4580   29.3520   42.5070 C   0  0  0  0  0  0  0  0  0  0  0  0
   38.9430   27.4360   40.2440 H   0  0  0  0  0  0  0  0  0  0  0  0
   38.4230   26.8400   44.4950 H   0  0  0  0  0  0  0  0  0  0  0  0
   37.2390   28.9950   44.5770 H   0  0  0  0  0  0  0  0  0  0  0  0
   36.9410   30.2840   42.5680 H   0  0  0  0  0  0  0  0  0  0  0  0
   38.0440   29.8100   37.7400 C   0  0  0  0  0  0  0  0  0  0  0  0
   37.4700   31.0830   37.6800 C   0  0  0  0  0  0  0  0  0  0  0  0
   37.0270   31.6610   38.8810 C   0  0  0  0  0  0  0  0  0  0  0  0
   37.1750   30.9680   40.0470 N   0  0  0  0  0  0  0  0  0  0  0  0
   37.7390   29.7340   40.0550 C   0  0  0  0  0  0  0  0  0  0  0  0
   38.1700   29.1590   38.9070 N   0  0  0  0  0  0  0  0  0  0  0  0
   38.4050   29.3140   36.8310 H   0  0  0  0  0  0  0  0  0  0  0  0
   37.3640   31.6100   36.7470 H   0  0  0  0  0  0  0  0  0  0  0  0
   36.5730   32.6430   38.9000 H   0  0  0  0  0  0  0  0  0  0  0  0
   39.6430   25.4210   42.2660 S   0  0  0  0  0  0  0  0  0  0  0  0
   38.4910   24.1330   41.7510 C   0  0  2  0  0  3  0  0  0  0  0  0
   38.5110   24.0220   40.2620 C   0  0  0  0  0  3  0  0  0  0  0  0
   38.5410   22.9260   39.9940 H   0  0  0  0  0  0  0  0  0  0  0  0
   37.1470   24.5690   39.8840 C   0  0  0  0  0  3  0  0  0  0  0  0
   37.1980   25.6850   39.9360 H   0  0  0  0  0  0  0  0  0  0  0  0
   36.3360   24.1230   40.9160 O   0  0  0  0  0  0  0  0  0  0  0  0
   37.0590   24.4980   42.0560 C   0  0  0  0  0  3  0  0  0  0  0  0
   36.6970   23.9290   42.9380 H   0  0  0  0  0  0  0  0  0  0  0  0
  1  6  1  0  0  0  0
  2  1  2  0  0  0  0
  2  3  1  0  0  0  0
  3  4  2  0  0  0  0
  4  5  1  0  0  0  0
  4  8  1  0  0  0  0
  5  9  1  0  0  0  0
  6 10  1  0  0  0  0
  6  5  2  0  0  0  0
  7  2  1  0  0  0  0
 11 16  1  0  0  0  0
 12 11  2  0  0  0  0
 12 13  1  0  0  0  0
 13 19  1  0  0  0  0
 13 14  2  0  0  0  0
 14 15  1  0  0  0  0
 15  1  1  0  0  0  0
 16 15  2  0  0  0  0
 17 11  1  0  0  0  0
 18 12  1  0  0  0  0
 20  3  1  0  0  0  0
 21 27  1  0  0  0  0
 21 20  1  6  0  0  0
 22 21  1  0  0  0  0
 23 22  1  0  0  0  0
 24 25  1  0  0  0  0
 24 22  1  0  0  0  0
 24 26  1  0  0  0  0
 26 27  1  0  0  0  0
 27 28  1  0  0  0  0
M  END
>  <minimizedAffinity>
-4.47709179

$$$$
