
 OpenBabel03252501463D

 22 23  0  0  1  0  0  0  0  0999 V2000
   44.4840   35.8160   42.7430 C   0  0  0  0  0  0  0  0  0  0  0  0
   43.6490   34.9640   42.0260 C   0  0  0  0  0  0  0  0  0  0  0  0
   43.8420   33.6000   42.1520 C   0  0  0  0  0  0  0  0  0  0  0  0
   44.8420   33.1350   42.9710 N   0  0  0  0  0  0  0  0  0  0  0  0
   45.6350   33.9970   43.6530 C   0  0  0  0  0  0  0  0  0  0  0  0
   45.4500   35.3230   43.5340 N   0  0  0  0  0  0  0  0  0  0  0  0
   44.3290   36.8820   42.6420 H   0  0  0  0  0  0  0  0  0  0  0  0
   43.2190   32.9140   41.6150 H   0  0  0  0  0  0  0  0  0  0  0  0
   46.7160   33.5490   44.5400 C   0  0  2  0  0  0  0  0  0  0  0  0
   47.2140   32.2120   44.0020 C   0  0  0  0  0  0  0  0  0  0  0  0
   46.5860   31.8160   43.1940 H   0  0  0  0  0  0  0  0  0  0  0  0
   47.1190   31.3340   45.2300 C   0  0  0  0  0  0  0  0  0  0  0  0
   48.0680   30.7400   45.2510 H   0  0  0  0  0  0  0  0  0  0  0  0
   47.0450   32.1890   46.3380 O   0  0  0  0  0  0  0  0  0  0  0  0
   46.2760   33.2810   45.9510 C   0  0  0  0  0  0  0  0  0  0  0  0
   46.5110   34.1060   46.6600 H   0  0  0  0  0  0  0  0  0  0  0  0
   42.5960   35.4630   41.1640 C   0  0  0  0  0  0  0  0  0  0  0  0
   41.3200   35.5790   41.4660 C   0  0  0  0  0  0  0  0  0  0  0  0
   40.3040   36.1090   40.5030 C   0  0  0  0  0  0  0  0  0  0  0  0
   39.3300   35.6510   40.8260 H   0  0  0  0  0  0  0  0  0  0  0  0
   40.2650   37.2050   40.4960 H   0  0  0  0  0  0  0  0  0  0  0  0
   40.4920   35.6880   39.4770 H   0  0  0  0  0  0  0  0  0  0  0  0
  1  6  1  0  0  0  0
  2  3  1  0  0  0  0
  2  1  2  0  0  0  0
  3  4  2  0  0  0  0
  4  5  1  0  0  0  0
  6  5  2  0  0  0  0
  7  1  1  0  0  0  0
  8  3  1  0  0  0  0
  9  5  1  6  0  0  0
  9 15  1  0  0  0  0
 10  9  1  0  0  0  0
 10 12  1  0  0  0  0
 11 10  1  0  0  0  0
 12 13  1  0  0  0  0
 12 14  1  0  0  0  0
 15 14  1  0  0  0  0
 15 16  1  0  0  0  0
 17 18  2  0  0  0  0
 17  2  1  0  0  0  0
 19 20  1  0  0  0  0
 19 18  1  0  0  0  0
 21 19  1  0  0  0  0
 22 19  1  0  0  0  0
M  END
>  <minimizedAffinity>
-4.17909193

>  <minimizedRMSD>
2.4132154

$$$$
