
 OpenBabel03242519043D

 31 33  0  0  1  0  0  0  0  0999 V2000
   37.5080   26.9310   42.1870 N   0  0  0  0  0  0  0  0  0  0  0  0
   36.4810   27.8840   41.8290 C   0  0  0  0  0  0  0  0  0  0  0  0
   37.2920   29.1420   41.8920 C   0  0  2  0  0  0  0  0  0  0  0  0
   37.9120   28.9910   43.2700 C   0  0  0  0  0  0  0  0  0  0  0  0
   38.2040   27.5020   43.3220 C   0  0  0  0  0  0  0  0  0  0  0  0
   35.6500   27.9110   42.5370 H   0  0  0  0  0  0  0  0  0  0  0  0
   36.1930   27.6830   40.7860 H   0  0  0  0  0  0  0  0  0  0  0  0
   38.0830   29.1470   41.1280 H   0  0  0  0  0  0  0  0  0  0  0  0
   38.7930   29.6200   43.4380 H   0  0  0  0  0  0  0  0  0  0  0  0
   37.0840   29.1600   44.0000 H   0  0  0  0  0  0  0  0  0  0  0  0
   37.9090   27.0310   44.2800 H   0  0  0  0  0  0  0  0  0  0  0  0
   39.2970   27.3910   43.1190 H   0  0  0  0  0  0  0  0  0  0  0  0
   37.5180   23.3780   41.0710 C   0  0  0  0  0  0  0  0  0  0  0  0
   37.0420   24.5490   41.6680 C   0  0  0  0  0  0  0  0  0  0  0  0
   37.8560   25.6890   41.6320 C   0  0  0  0  0  0  0  0  0  0  0  0
   39.0720   25.5740   41.0090 N   0  0  0  0  0  0  0  0  0  0  0  0
   39.5090   24.4330   40.4420 C   0  0  0  0  0  0  0  0  0  0  0  0
   38.7210   23.3290   40.4770 N   0  0  0  0  0  0  0  0  0  0  0  0
   36.8370   22.5250   41.1350 H   0  0  0  0  0  0  0  0  0  0  0  0
   36.0970   24.6250   42.1470 H   0  0  0  0  0  0  0  0  0  0  0  0
   40.4850   24.4180   39.9670 H   0  0  0  0  0  0  0  0  0  0  0  0
   36.5030   30.3180   41.9570 N   0  0  0  0  0  0  0  0  0  0  0  0
   36.7220   30.8360   42.8380 H   0  0  0  0  0  0  0  0  0  0  0  0
   36.5700   31.2090   40.8590 C   0  0  2  0  0  3  0  0  0  0  0  0
   36.3210   30.6410   39.5150 C   0  0  0  0  0  3  0  0  0  0  0  0
   35.2710   30.8170   39.2010 H   0  0  0  0  0  0  0  0  0  0  0  0
   37.1570   31.5660   38.6400 C   0  0  0  0  0  3  0  0  0  0  0  0
   36.5870   32.5320   38.5200 H   0  0  0  0  0  0  0  0  0  0  0  0
   38.2750   31.8900   39.3930 O   0  0  0  0  0  0  0  0  0  0  0  0
   37.8960   31.8830   40.7250 C   0  0  0  0  0  3  0  0  0  0  0  0
   38.7060   31.3260   41.2680 H   0  0  0  0  0  0  0  0  0  0  0  0
  1  5  1  0  0  0  0
  2  3  1  0  0  0  0
  2  1  1  0  0  0  0
  2  6  1  0  0  0  0
  3  8  1  6  0  0  0
  3 22  1  0  0  0  0
  3  4  1  0  0  0  0
  4  5  1  0  0  0  0
  4  9  1  0  0  0  0
  4 10  1  0  0  0  0
  5 11  1  0  0  0  0
  7  2  1  0  0  0  0
 12  5  1  0  0  0  0
 13 19  1  0  0  0  0
 13 14  1  0  0  0  0
 14 20  1  0  0  0  0
 15 14  2  0  0  0  0
 15  1  1  0  0  0  0
 16 15  1  0  0  0  0
 17 18  1  0  0  0  0
 17 16  2  0  0  0  0
 18 13  2  0  0  0  0
 21 17  1  0  0  0  0
 22 23  1  0  0  0  0
 24 22  1  1  0  0  0
 25 24  1  0  0  0  0
 26 25  1  0  0  0  0
 27 29  1  0  0  0  0
 27 25  1  0  0  0  0
 28 27  1  0  0  0  0
 29 30  1  0  0  0  0
 30 24  1  0  0  0  0
 30 31  1  0  0  0  0
M  END
>  <minimizedAffinity>
-4.76642656

$$$$

 OpenBabel03242519043D

 31 33  0  0  1  0  0  0  0  0999 V2000
   38.4070   31.8390   40.1850 N   0  0  0  0  0  0  0  0  0  0  0  0
   38.4680   31.2360   41.4980 C   0  0  0  0  0  0  0  0  0  0  0  0
   37.4100   30.1880   41.3270 C   0  0  2  0  0  0  0  0  0  0  0  0
   36.2700   31.0450   40.8040 C   0  0  0  0  0  0  0  0  0  0  0  0
   36.9990   32.0160   39.8930 C   0  0  0  0  0  0  0  0  0  0  0  0
   38.2160   31.9270   42.3040 H   0  0  0  0  0  0  0  0  0  0  0  0
   39.4530   30.7530   41.5940 H   0  0  0  0  0  0  0  0  0  0  0  0
   37.6980   29.4490   40.5660 H   0  0  0  0  0  0  0  0  0  0  0  0
   35.4770   30.4780   40.3030 H   0  0  0  0  0  0  0  0  0  0  0  0
   35.9180   31.6530   41.6720 H   0  0  0  0  0  0  0  0  0  0  0  0
   36.6690   33.0650   40.0180 H   0  0  0  0  0  0  0  0  0  0  0  0
   36.8370   31.6470   38.8500 H   0  0  0  0  0  0  0  0  0  0  0  0
   40.7590   32.0310   37.3040 C   0  0  0  0  0  0  0  0  0  0  0  0
   39.7220   31.5380   38.1010 C   0  0  0  0  0  0  0  0  0  0  0  0
   39.4200   32.2170   39.2890 C   0  0  0  0  0  0  0  0  0  0  0  0
   40.1700   33.3260   39.5880 N   0  0  0  0  0  0  0  0  0  0  0  0
   41.1660   33.7800   38.8040 C   0  0  0  0  0  0  0  0  0  0  0  0
   41.4580   33.1230   37.6530 N   0  0  0  0  0  0  0  0  0  0  0  0
   40.9460   31.4560   36.3930 H   0  0  0  0  0  0  0  0  0  0  0  0
   39.1480   30.6780   37.8580 H   0  0  0  0  0  0  0  0  0  0  0  0
   41.7160   34.6650   39.1060 H   0  0  0  0  0  0  0  0  0  0  0  0
   36.9480   29.6500   42.5540 N   0  0  0  0  0  0  0  0  0  0  0  0
   35.9360   29.8790   42.6770 H   0  0  0  0  0  0  0  0  0  0  0  0
   37.1460   28.2650   42.7730 C   0  0  2  0  0  3  0  0  0  0  0  0
   38.4640   27.8490   43.3040 C   0  0  0  0  0  3  0  0  0  0  0  0
   38.4190   27.7050   44.4020 H   0  0  0  0  0  0  0  0  0  0  0  0
   38.5880   26.4450   42.7240 C   0  0  0  0  0  3  0  0  0  0  0  0
   37.9380   25.7610   43.3420 H   0  0  0  0  0  0  0  0  0  0  0  0
   37.9880   26.4970   41.4760 O   0  0  0  0  0  0  0  0  0  0  0  0
   36.9770   27.4410   41.5400 C   0  0  0  0  0  3  0  0  0  0  0  0
   37.0800   28.0580   40.6070 H   0  0  0  0  0  0  0  0  0  0  0  0
  1  2  1  0  0  0  0
  2  7  1  0  0  0  0
  2  6  1  0  0  0  0
  3  8  1  6  0  0  0
  3  2  1  0  0  0  0
  3 22  1  0  0  0  0
  4  3  1  0  0  0  0
  4 10  1  0  0  0  0
  5 11  1  0  0  0  0
  5  1  1  0  0  0  0
  5  4  1  0  0  0  0
  9  4  1  0  0  0  0
 12  5  1  0  0  0  0
 13 18  2  0  0  0  0
 13 14  1  0  0  0  0
 14 15  2  0  0  0  0
 15 16  1  0  0  0  0
 15  1  1  0  0  0  0
 17 21  1  0  0  0  0
 17 16  2  0  0  0  0
 18 17  1  0  0  0  0
 19 13  1  0  0  0  0
 20 14  1  0  0  0  0
 22 23  1  0  0  0  0
 24 22  1  6  0  0  0
 24 25  1  0  0  0  0
 25 26  1  0  0  0  0
 27 25  1  0  0  0  0
 27 28  1  0  0  0  0
 29 30  1  0  0  0  0
 29 27  1  0  0  0  0
 30 24  1  0  0  0  0
 31 30  1  0  0  0  0
M  END
>  <minimizedAffinity>
-4.59991932

$$$$

 OpenBabel03242519043D

 31 33  0  0  1  0  0  0  0  0999 V2000
   37.2070   30.6680   41.1460 N   0  0  0  0  0  0  0  0  0  0  0  0
   37.4680   29.6040   42.0900 C   0  0  0  0  0  0  0  0  0  0  0  0
   37.0560   28.4350   41.2490 C   0  0  2  0  0  0  0  0  0  0  0  0
   35.6800   28.9000   40.8040 C   0  0  0  0  0  0  0  0  0  0  0  0
   35.9080   30.3820   40.5730 C   0  0  0  0  0  0  0  0  0  0  0  0
   36.8660   29.6720   42.9980 H   0  0  0  0  0  0  0  0  0  0  0  0
   38.5560   29.5710   42.2580 H   0  0  0  0  0  0  0  0  0  0  0  0
   37.7100   28.3210   40.3720 H   0  0  0  0  0  0  0  0  0  0  0  0
   35.2880   28.3700   39.9290 H   0  0  0  0  0  0  0  0  0  0  0  0
   35.0260   28.8340   41.7070 H   0  0  0  0  0  0  0  0  0  0  0  0
   35.1080   31.0200   40.9960 H   0  0  0  0  0  0  0  0  0  0  0  0
   36.0080   30.5140   39.4670 H   0  0  0  0  0  0  0  0  0  0  0  0
   38.3260   33.9700   39.8380 C   0  0  0  0  0  0  0  0  0  0  0  0
   37.4480   32.9270   40.1450 C   0  0  0  0  0  0  0  0  0  0  0  0
   37.9680   31.7890   40.7780 C   0  0  0  0  0  0  0  0  0  0  0  0
   39.3120   31.7810   41.0530 N   0  0  0  0  0  0  0  0  0  0  0  0
   40.1370   32.8000   40.7450 C   0  0  0  0  0  0  0  0  0  0  0  0
   39.6340   33.9010   40.1330 N   0  0  0  0  0  0  0  0  0  0  0  0
   37.8590   34.8280   39.3440 H   0  0  0  0  0  0  0  0  0  0  0  0
   36.4090   32.9460   39.9280 H   0  0  0  0  0  0  0  0  0  0  0  0
   41.1900   32.7210   40.9940 H   0  0  0  0  0  0  0  0  0  0  0  0
   36.8330   27.2530   41.9980 N   0  0  0  0  0  0  0  0  0  0  0  0
   35.8110   27.0390   42.0180 H   0  0  0  0  0  0  0  0  0  0  0  0
   37.5480   26.0920   41.6120 C   0  0  2  0  0  3  0  0  0  0  0  0
   36.9080   24.7860   41.8850 C   0  0  0  0  0  3  0  0  0  0  0  0
   36.3950   24.4010   40.9800 H   0  0  0  0  0  0  0  0  0  0  0  0
   38.1260   23.8890   42.0630 C   0  0  0  0  0  3  0  0  0  0  0  0
   38.5360   23.6610   41.0380 H   0  0  0  0  0  0  0  0  0  0  0  0
   39.0880   24.6750   42.6790 O   0  0  0  0  0  0  0  0  0  0  0  0
   38.8880   25.9800   42.2590 C   0  0  0  0  0  3  0  0  0  0  0  0
   38.9590   26.6100   43.1870 H   0  0  0  0  0  0  0  0  0  0  0  0
  1  2  1  0  0  0  0
  2  7  1  0  0  0  0
  2  6  1  0  0  0  0
  3  8  1  6  0  0  0
  3 22  1  0  0  0  0
  3  2  1  0  0  0  0
  4  3  1  0  0  0  0
  4 10  1  0  0  0  0
  5  4  1  0  0  0  0
  5 11  1  0  0  0  0
  5  1  1  0  0  0  0
  9  4  1  0  0  0  0
 12  5  1  0  0  0  0
 13 18  2  0  0  0  0
 13 14  1  0  0  0  0
 14 15  2  0  0  0  0
 15 16  1  0  0  0  0
 15  1  1  0  0  0  0
 17 21  1  0  0  0  0
 17 16  2  0  0  0  0
 18 17  1  0  0  0  0
 19 13  1  0  0  0  0
 20 14  1  0  0  0  0
 22 23  1  0  0  0  0
 24 25  1  0  0  0  0
 24 22  1  1  0  0  0
 24 30  1  0  0  0  0
 25 27  1  0  0  0  0
 26 25  1  0  0  0  0
 27 29  1  0  0  0  0
 28 27  1  0  0  0  0
 30 29  1  0  0  0  0
 30 31  1  0  0  0  0
M  END
>  <minimizedAffinity>
-4.58074856

$$$$

 OpenBabel03242519043D

 31 33  0  0  1  0  0  0  0  0999 V2000
   36.6410   27.8410   40.2350 N   0  0  0  0  0  0  0  0  0  0  0  0
   37.1660   29.0600   40.8080 C   0  0  0  0  0  0  0  0  0  0  0  0
   35.9220   29.8950   40.7730 C   0  0  2  0  0  0  0  0  0  0  0  0
   35.5180   29.7070   39.3210 C   0  0  0  0  0  0  0  0  0  0  0  0
   35.8570   28.2470   39.0860 C   0  0  0  0  0  0  0  0  0  0  0  0
   37.9640   29.5100   40.2130 H   0  0  0  0  0  0  0  0  0  0  0  0
   37.4350   28.8450   41.8540 H   0  0  0  0  0  0  0  0  0  0  0  0
   35.1440   29.4820   41.4300 H   0  0  0  0  0  0  0  0  0  0  0  0
   34.4720   29.9570   39.1100 H   0  0  0  0  0  0  0  0  0  0  0  0
   36.2570   30.2880   38.7180 H   0  0  0  0  0  0  0  0  0  0  0  0
   36.3850   28.0680   38.1290 H   0  0  0  0  0  0  0  0  0  0  0  0
   34.8910   27.6880   39.1420 H   0  0  0  0  0  0  0  0  0  0  0  0
   37.2830   24.7020   42.1330 C   0  0  0  0  0  0  0  0  0  0  0  0
   37.1810   26.0760   41.8940 C   0  0  0  0  0  0  0  0  0  0  0  0
   36.7860   26.4980   40.6180 C   0  0  0  0  0  0  0  0  0  0  0  0
   36.5260   25.5260   39.6860 N   0  0  0  0  0  0  0  0  0  0  0  0
   36.6320   24.2080   39.9410 C   0  0  0  0  0  0  0  0  0  0  0  0
   37.0140   23.7980   41.1770 N   0  0  0  0  0  0  0  0  0  0  0  0
   37.5960   24.4380   43.1470 H   0  0  0  0  0  0  0  0  0  0  0  0
   37.3850   26.8190   42.6250 H   0  0  0  0  0  0  0  0  0  0  0  0
   36.4090   23.4960   39.1530 H   0  0  0  0  0  0  0  0  0  0  0  0
   36.1710   31.2820   40.9210 N   0  0  0  0  0  0  0  0  0  0  0  0
   36.1860   31.5280   41.9360 H   0  0  0  0  0  0  0  0  0  0  0  0
   37.3280   31.8070   40.2940 C   0  0  2  0  0  3  0  0  0  0  0  0
   38.4700   32.1500   41.1700 C   0  0  0  0  0  3  0  0  0  0  0  0
   39.2190   31.3320   41.1800 H   0  0  0  0  0  0  0  0  0  0  0  0
   39.1230   33.2770   40.3790 C   0  0  0  0  0  3  0  0  0  0  0  0
   39.7010   32.8090   39.5310 H   0  0  0  0  0  0  0  0  0  0  0  0
   38.0840   33.9710   39.7810 O   0  0  0  0  0  0  0  0  0  0  0  0
   37.0680   33.0630   39.5310 C   0  0  0  0  0  3  0  0  0  0  0  0
   36.1220   33.5680   39.8640 H   0  0  0  0  0  0  0  0  0  0  0  0
  1 15  1  0  0  0  0
  1  2  1  0  0  0  0
  2  7  1  0  0  0  0
  3  2  1  0  0  0  0
  3 22  1  0  0  0  0
  3  8  1  1  0  0  0
  4  3  1  0  0  0  0
  5 12  1  0  0  0  0
  5  4  1  0  0  0  0
  5  1  1  0  0  0  0
  6  2  1  0  0  0  0
  9  4  1  0  0  0  0
 10  4  1  0  0  0  0
 11  5  1  0  0  0  0
 13 19  1  0  0  0  0
 14 13  1  0  0  0  0
 14 20  1  0  0  0  0
 15 14  2  0  0  0  0
 16 17  2  0  0  0  0
 16 15  1  0  0  0  0
 17 18  1  0  0  0  0
 18 13  2  0  0  0  0
 21 17  1  0  0  0  0
 22 23  1  0  0  0  0
 24 22  1  1  0  0  0
 24 25  1  0  0  0  0
 25 26  1  0  0  0  0
 27 25  1  0  0  0  0
 28 27  1  0  0  0  0
 29 27  1  0  0  0  0
 30 29  1  0  0  0  0
 30 31  1  0  0  0  0
 30 24  1  0  0  0  0
M  END
>  <minimizedAffinity>
-4.40034962

$$$$

 OpenBabel03242519043D

 31 33  0  0  1  0  0  0  0  0999 V2000
   37.3270   29.8890   39.2690 N   0  0  0  0  0  0  0  0  0  0  0  0
   38.0550   29.5380   40.4680 C   0  0  0  0  0  0  0  0  0  0  0  0
   36.9120   29.4990   41.4360 C   0  0  2  0  0  0  0  0  0  0  0  0
   36.2780   30.8500   41.1550 C   0  0  0  0  0  0  0  0  0  0  0  0
   36.4270   30.9590   39.6480 C   0  0  0  0  0  0  0  0  0  0  0  0
   38.7960   30.2850   40.7590 H   0  0  0  0  0  0  0  0  0  0  0  0
   38.4530   28.5220   40.3270 H   0  0  0  0  0  0  0  0  0  0  0  0
   36.2020   28.6970   41.1860 H   0  0  0  0  0  0  0  0  0  0  0  0
   35.2440   30.9430   41.5050 H   0  0  0  0  0  0  0  0  0  0  0  0
   36.9750   31.6120   41.5810 H   0  0  0  0  0  0  0  0  0  0  0  0
   36.7850   31.9530   39.3140 H   0  0  0  0  0  0  0  0  0  0  0  0
   35.4270   30.7070   39.2160 H   0  0  0  0  0  0  0  0  0  0  0  0
   36.7230   29.1790   35.6640 C   0  0  0  0  0  0  0  0  0  0  0  0
   36.5450   29.7740   36.9160 C   0  0  0  0  0  0  0  0  0  0  0  0
   37.3890   29.3780   37.9630 C   0  0  0  0  0  0  0  0  0  0  0  0
   38.3360   28.4270   37.6820 N   0  0  0  0  0  0  0  0  0  0  0  0
   38.4870   27.8680   36.4660 C   0  0  0  0  0  0  0  0  0  0  0  0
   37.6700   28.2510   35.4520 N   0  0  0  0  0  0  0  0  0  0  0  0
   36.0330   29.5300   34.8910 H   0  0  0  0  0  0  0  0  0  0  0  0
   35.8070   30.5100   37.1200 H   0  0  0  0  0  0  0  0  0  0  0  0
   39.2600   27.1210   36.3190 H   0  0  0  0  0  0  0  0  0  0  0  0
   37.3210   29.5470   42.7920 N   0  0  0  0  0  0  0  0  0  0  0  0
   36.5780   30.0070   43.3650 H   0  0  0  0  0  0  0  0  0  0  0  0
   37.6940   28.3250   43.4030 C   0  0  2  0  0  3  0  0  0  0  0  0
   39.1200   27.9360   43.3150 C   0  0  0  0  0  3  0  0  0  0  0  0
   39.6620   28.2130   44.2420 H   0  0  0  0  0  0  0  0  0  0  0  0
   39.0170   26.4170   43.3530 C   0  0  0  0  0  3  0  0  0  0  0  0
   38.8290   26.1130   44.4230 H   0  0  0  0  0  0  0  0  0  0  0  0
   37.8540   26.0980   42.6700 O   0  0  0  0  0  0  0  0  0  0  0  0
   36.9640   27.1430   42.8570 C   0  0  0  0  0  3  0  0  0  0  0  0
   36.5260   27.3530   41.8440 H   0  0  0  0  0  0  0  0  0  0  0  0
  1  5  1  0  0  0  0
  1  2  1  0  0  0  0
  2  6  1  0  0  0  0
  2  3  1  0  0  0  0
  3  8  1  6  0  0  0
  3 22  1  0  0  0  0
  4  3  1  0  0  0  0
  4  9  1  0  0  0  0
  4 10  1  0  0  0  0
  5  4  1  0  0  0  0
  7  2  1  0  0  0  0
 11  5  1  0  0  0  0
 12  5  1  0  0  0  0
 13 14  1  0  0  0  0
 14 20  1  0  0  0  0
 14 15  2  0  0  0  0
 15  1  1  0  0  0  0
 16 15  1  0  0  0  0
 17 16  2  0  0  0  0
 18 13  2  0  0  0  0
 18 17  1  0  0  0  0
 19 13  1  0  0  0  0
 21 17  1  0  0  0  0
 22 23  1  0  0  0  0
 24 22  1  6  0  0  0
 25 27  1  0  0  0  0
 25 24  1  0  0  0  0
 25 26  1  0  0  0  0
 27 28  1  0  0  0  0
 29 30  1  0  0  0  0
 29 27  1  0  0  0  0
 30 24  1  0  0  0  0
 31 30  1  0  0  0  0
M  END
>  <minimizedAffinity>
-4.37825823

$$$$

 OpenBabel03242519043D

 31 33  0  0  1  0  0  0  0  0999 V2000
   38.1050   29.0780   42.1980 N   0  0  0  0  0  0  0  0  0  0  0  0
   38.6570   27.8070   41.7820 C   0  0  0  0  0  0  0  0  0  0  0  0
   37.5000   26.9210   42.1310 C   0  0  2  0  0  0  0  0  0  0  0  0
   37.2610   27.3500   43.5680 C   0  0  0  0  0  0  0  0  0  0  0  0
   37.5040   28.8460   43.4950 C   0  0  0  0  0  0  0  0  0  0  0  0
   39.5550   27.5230   42.3330 H   0  0  0  0  0  0  0  0  0  0  0  0
   38.7770   27.8420   40.6880 H   0  0  0  0  0  0  0  0  0  0  0  0
   36.6160   27.1590   41.5220 H   0  0  0  0  0  0  0  0  0  0  0  0
   36.2730   27.0800   43.9580 H   0  0  0  0  0  0  0  0  0  0  0  0
   38.1130   26.9350   44.1580 H   0  0  0  0  0  0  0  0  0  0  0  0
   38.1280   29.2290   44.3260 H   0  0  0  0  0  0  0  0  0  0  0  0
   36.4950   29.3260   43.4730 H   0  0  0  0  0  0  0  0  0  0  0  0
   37.1440   32.1030   40.2500 C   0  0  0  0  0  0  0  0  0  0  0  0
   37.0180   30.8320   40.8180 C   0  0  0  0  0  0  0  0  0  0  0  0
   38.0910   30.3340   41.5700 C   0  0  0  0  0  0  0  0  0  0  0  0
   39.1970   31.1350   41.6940 N   0  0  0  0  0  0  0  0  0  0  0  0
   39.2940   32.3560   41.1360 C   0  0  0  0  0  0  0  0  0  0  0  0
   38.2560   32.8390   40.4080 N   0  0  0  0  0  0  0  0  0  0  0  0
   36.2740   32.4330   39.6760 H   0  0  0  0  0  0  0  0  0  0  0  0
   36.1550   30.2220   40.7150 H   0  0  0  0  0  0  0  0  0  0  0  0
   40.2030   32.9320   41.2780 H   0  0  0  0  0  0  0  0  0  0  0  0
   37.8430   25.5480   42.1960 N   0  0  0  0  0  0  0  0  0  0  0  0
   37.2880   25.0850   42.9500 H   0  0  0  0  0  0  0  0  0  0  0  0
   37.7330   24.7920   41.0020 C   0  0  2  0  0  3  0  0  0  0  0  0
   36.4340   24.1350   40.7390 C   0  0  0  0  0  3  0  0  0  0  0  0
   35.8160   24.7440   40.0490 H   0  0  0  0  0  0  0  0  0  0  0  0
   36.8710   22.9270   39.9190 C   0  0  0  0  0  3  0  0  0  0  0  0
   37.0900   23.2860   38.8720 H   0  0  0  0  0  0  0  0  0  0  0  0
   38.0960   22.5400   40.4400 O   0  0  0  0  0  0  0  0  0  0  0  0
   38.7250   23.6800   40.9140 C   0  0  0  0  0  3  0  0  0  0  0  0
   39.1340   23.4030   41.9220 H   0  0  0  0  0  0  0  0  0  0  0  0
  1  5  1  0  0  0  0
  2  3  1  0  0  0  0
  2  1  1  0  0  0  0
  2  6  1  0  0  0  0
  3  8  1  6  0  0  0
  3 22  1  0  0  0  0
  3  4  1  0  0  0  0
  4  9  1  0  0  0  0
  4 10  1  0  0  0  0
  5  4  1  0  0  0  0
  5 11  1  0  0  0  0
  7  2  1  0  0  0  0
 12  5  1  0  0  0  0
 13 18  2  0  0  0  0
 13 14  1  0  0  0  0
 14 15  2  0  0  0  0
 15 16  1  0  0  0  0
 15  1  1  0  0  0  0
 17 21  1  0  0  0  0
 17 16  2  0  0  0  0
 18 17  1  0  0  0  0
 19 13  1  0  0  0  0
 20 14  1  0  0  0  0
 22 23  1  0  0  0  0
 24 22  1  1  0  0  0
 25 24  1  0  0  0  0
 26 25  1  0  0  0  0
 27 29  1  0  0  0  0
 27 25  1  0  0  0  0
 28 27  1  0  0  0  0
 29 30  1  0  0  0  0
 30 24  1  0  0  0  0
 30 31  1  0  0  0  0
M  END
>  <minimizedAffinity>
-4.35665369

$$$$

 OpenBabel03242519043D

 31 33  0  0  1  0  0  0  0  0999 V2000
   37.4270   30.1590   41.5790 N   0  0  0  0  0  0  0  0  0  0  0  0
   37.8300   29.2920   42.6650 C   0  0  0  0  0  0  0  0  0  0  0  0
   37.6210   27.9660   41.9980 C   0  0  2  0  0  0  0  0  0  0  0  0
   36.1990   28.1420   41.4940 C   0  0  0  0  0  0  0  0  0  0  0  0
   36.2000   29.5950   41.0540 C   0  0  0  0  0  0  0  0  0  0  0  0
   37.2060   29.3920   43.5540 H   0  0  0  0  0  0  0  0  0  0  0  0
   38.9060   29.4530   42.8330 H   0  0  0  0  0  0  0  0  0  0  0  0
   38.3030   27.8340   41.1460 H   0  0  0  0  0  0  0  0  0  0  0  0
   35.9130   27.4400   40.7030 H   0  0  0  0  0  0  0  0  0  0  0  0
   35.5450   28.1030   42.3990 H   0  0  0  0  0  0  0  0  0  0  0  0
   35.3020   30.1530   41.3840 H   0  0  0  0  0  0  0  0  0  0  0  0
   36.3020   29.5840   39.9410 H   0  0  0  0  0  0  0  0  0  0  0  0
   38.0370   33.3970   39.8460 C   0  0  0  0  0  0  0  0  0  0  0  0
   37.3240   32.2860   40.3050 C   0  0  0  0  0  0  0  0  0  0  0  0
   38.0120   31.3220   41.0550 C   0  0  0  0  0  0  0  0  0  0  0  0
   39.3460   31.5390   41.2860 N   0  0  0  0  0  0  0  0  0  0  0  0
   40.0110   32.6190   40.8320 C   0  0  0  0  0  0  0  0  0  0  0  0
   39.3460   33.5520   40.1060 N   0  0  0  0  0  0  0  0  0  0  0  0
   37.4450   34.1110   39.2670 H   0  0  0  0  0  0  0  0  0  0  0  0
   36.2900   32.1300   40.1190 H   0  0  0  0  0  0  0  0  0  0  0  0
   41.0680   32.7220   41.0550 H   0  0  0  0  0  0  0  0  0  0  0  0
   37.5690   26.8810   42.9090 N   0  0  0  0  0  0  0  0  0  0  0  0
   36.5720   26.6460   43.1160 H   0  0  0  0  0  0  0  0  0  0  0  0
   38.2660   25.6990   42.5540 C   0  0  2  0  0  3  0  0  0  0  0  0
   39.2130   25.7910   41.4210 C   0  0  0  0  0  3  0  0  0  0  0  0
   40.2510   25.9300   41.7850 H   0  0  0  0  0  0  0  0  0  0  0  0
   39.1680   24.3680   40.8790 C   0  0  0  0  0  3  0  0  0  0  0  0
   39.7910   23.7220   41.5630 H   0  0  0  0  0  0  0  0  0  0  0  0
   37.8620   23.9380   41.0530 O   0  0  0  0  0  0  0  0  0  0  0  0
   37.3630   24.5710   42.1800 C   0  0  0  0  0  3  0  0  0  0  0  0
   36.3380   24.9310   41.8950 H   0  0  0  0  0  0  0  0  0  0  0  0
  1  2  1  0  0  0  0
  2  7  1  0  0  0  0
  2  6  1  0  0  0  0
  3  8  1  6  0  0  0
  3  2  1  0  0  0  0
  3 22  1  0  0  0  0
  4  3  1  0  0  0  0
  4 10  1  0  0  0  0
  5 11  1  0  0  0  0
  5  4  1  0  0  0  0
  5  1  1  0  0  0  0
  9  4  1  0  0  0  0
 12  5  1  0  0  0  0
 13 18  2  0  0  0  0
 13 14  1  0  0  0  0
 14 15  2  0  0  0  0
 15 16  1  0  0  0  0
 15  1  1  0  0  0  0
 17 21  1  0  0  0  0
 17 16  2  0  0  0  0
 18 17  1  0  0  0  0
 19 13  1  0  0  0  0
 20 14  1  0  0  0  0
 22 23  1  0  0  0  0
 24 22  1  6  0  0  0
 25 26  1  0  0  0  0
 25 24  1  0  0  0  0
 27 29  1  0  0  0  0
 27 25  1  0  0  0  0
 27 28  1  0  0  0  0
 29 30  1  0  0  0  0
 30 24  1  0  0  0  0
 31 30  1  0  0  0  0
M  END
>  <minimizedAffinity>
-4.35054827

$$$$

 OpenBabel03242519043D

 31 33  0  0  1  0  0  0  0  0999 V2000
   35.8070   29.5370   38.5610 N   0  0  0  0  0  0  0  0  0  0  0  0
   36.0600   28.8940   39.8320 C   0  0  0  0  0  0  0  0  0  0  0  0
   35.9930   30.0970   40.7240 C   0  0  2  0  0  0  0  0  0  0  0  0
   36.9550   31.0200   39.9960 C   0  0  0  0  0  0  0  0  0  0  0  0
   36.6390   30.7230   38.5420 C   0  0  0  0  0  0  0  0  0  0  0  0
   37.0380   28.4130   39.8870 H   0  0  0  0  0  0  0  0  0  0  0  0
   35.2060   28.2320   40.0430 H   0  0  0  0  0  0  0  0  0  0  0  0
   34.9860   30.5390   40.7260 H   0  0  0  0  0  0  0  0  0  0  0  0
   36.8520   32.0780   40.2650 H   0  0  0  0  0  0  0  0  0  0  0  0
   37.9760   30.6020   40.1730 H   0  0  0  0  0  0  0  0  0  0  0  0
   37.5420   30.5970   37.9140 H   0  0  0  0  0  0  0  0  0  0  0  0
   35.9930   31.5630   38.1850 H   0  0  0  0  0  0  0  0  0  0  0  0
   32.8990   28.4850   36.4870 C   0  0  0  0  0  0  0  0  0  0  0  0
   33.6210   28.8070   37.6400 C   0  0  0  0  0  0  0  0  0  0  0  0
   34.9620   29.1860   37.4960 C   0  0  0  0  0  0  0  0  0  0  0  0
   35.4750   29.2140   36.2240 N   0  0  0  0  0  0  0  0  0  0  0  0
   34.7580   28.8980   35.1290 C   0  0  0  0  0  0  0  0  0  0  0  0
   33.4590   28.5310   35.2680 N   0  0  0  0  0  0  0  0  0  0  0  0
   31.8590   28.1960   36.6670 H   0  0  0  0  0  0  0  0  0  0  0  0
   33.2110   28.7820   38.6200 H   0  0  0  0  0  0  0  0  0  0  0  0
   35.2330   28.9430   34.1550 H   0  0  0  0  0  0  0  0  0  0  0  0
   36.5660   29.8820   42.0020 N   0  0  0  0  0  0  0  0  0  0  0  0
   35.8160   29.9040   42.7290 H   0  0  0  0  0  0  0  0  0  0  0  0
   37.3530   28.7180   42.1750 C   0  0  2  0  0  3  0  0  0  0  0  0
   37.0290   27.8530   43.3320 C   0  0  0  0  0  3  0  0  0  0  0  0
   36.3880   27.0030   43.0210 H   0  0  0  0  0  0  0  0  0  0  0  0
   38.3900   27.2340   43.6310 C   0  0  0  0  0  3  0  0  0  0  0  0
   38.5740   26.4260   42.8670 H   0  0  0  0  0  0  0  0  0  0  0  0
   39.3230   28.2210   43.3560 O   0  0  0  0  0  0  0  0  0  0  0  0
   38.8090   29.0060   42.3370 C   0  0  0  0  0  3  0  0  0  0  0  0
   38.9930   30.0690   42.6510 H   0  0  0  0  0  0  0  0  0  0  0  0
  1  2  1  0  0  0  0
  2  6  1  0  0  0  0
  2  7  1  0  0  0  0
  2  3  1  0  0  0  0
  3  8  1  1  0  0  0
  3 22  1  0  0  0  0
  4 10  1  0  0  0  0
  4  9  1  0  0  0  0
  4  3  1  0  0  0  0
  5  1  1  0  0  0  0
  5  4  1  0  0  0  0
 11  5  1  0  0  0  0
 12  5  1  0  0  0  0
 13 19  1  0  0  0  0
 13 14  1  0  0  0  0
 14 20  1  0  0  0  0
 15 14  2  0  0  0  0
 15  1  1  0  0  0  0
 16 15  1  0  0  0  0
 17 18  1  0  0  0  0
 17 16  2  0  0  0  0
 18 13  2  0  0  0  0
 21 17  1  0  0  0  0
 22 23  1  0  0  0  0
 24 22  1  1  0  0  0
 24 30  1  0  0  0  0
 24 25  1  0  0  0  0
 25 27  1  0  0  0  0
 26 25  1  0  0  0  0
 28 27  1  0  0  0  0
 29 27  1  0  0  0  0
 30 31  1  0  0  0  0
 30 29  1  0  0  0  0
M  END
>  <minimizedAffinity>
-4.32996416

$$$$

 OpenBabel03242519043D

 31 33  0  0  1  0  0  0  0  0999 V2000
   37.5600   30.3450   40.5170 N   0  0  0  0  0  0  0  0  0  0  0  0
   38.5380   30.6340   39.4920 C   0  0  0  0  0  0  0  0  0  0  0  0
   38.7640   32.0870   39.7830 C   0  0  2  0  0  0  0  0  0  0  0  0
   37.3280   32.5820   39.7940 C   0  0  0  0  0  0  0  0  0  0  0  0
   36.6050   31.4340   40.4740 C   0  0  0  0  0  0  0  0  0  0  0  0
   38.1610   30.4860   38.4780 H   0  0  0  0  0  0  0  0  0  0  0  0
   39.4480   30.0650   39.7340 H   0  0  0  0  0  0  0  0  0  0  0  0
   39.2130   32.2310   40.7760 H   0  0  0  0  0  0  0  0  0  0  0  0
   37.1900   33.5480   40.2920 H   0  0  0  0  0  0  0  0  0  0  0  0
   36.9870   32.5630   38.7310 H   0  0  0  0  0  0  0  0  0  0  0  0
   35.6610   31.1500   39.9700 H   0  0  0  0  0  0  0  0  0  0  0  0
   36.4350   31.7540   41.5320 H   0  0  0  0  0  0  0  0  0  0  0  0
   36.9500   27.0220   42.0830 C   0  0  0  0  0  0  0  0  0  0  0  0
   37.0070   27.9910   41.0770 C   0  0  0  0  0  0  0  0  0  0  0  0
   37.4500   29.2760   41.4200 C   0  0  0  0  0  0  0  0  0  0  0  0
   37.7980   29.4930   42.7280 N   0  0  0  0  0  0  0  0  0  0  0  0
   37.7330   28.5420   43.6800 C   0  0  0  0  0  0  0  0  0  0  0  0
   37.3050   27.2980   43.3480 N   0  0  0  0  0  0  0  0  0  0  0  0
   36.5960   26.0420   41.7510 H   0  0  0  0  0  0  0  0  0  0  0  0
   36.7350   27.8100   40.0660 H   0  0  0  0  0  0  0  0  0  0  0  0
   38.0260   28.7880   44.6950 H   0  0  0  0  0  0  0  0  0  0  0  0
   39.3960   32.7820   38.7220 N   0  0  0  0  0  0  0  0  0  0  0  0
   38.7400   33.4960   38.3310 H   0  0  0  0  0  0  0  0  0  0  0  0
   40.6440   33.3920   38.9960 C   0  0  2  0  0  3  0  0  0  0  0  0
   41.8300   32.5080   39.0420 C   0  0  0  0  0  3  0  0  0  0  0  0
   42.3770   32.5290   38.0780 H   0  0  0  0  0  0  0  0  0  0  0  0
   42.7240   33.2590   40.0220 C   0  0  0  0  0  3  0  0  0  0  0  0
   43.1860   34.1260   39.4680 H   0  0  0  0  0  0  0  0  0  0  0  0
   41.8690   33.8290   40.9520 O   0  0  0  0  0  0  0  0  0  0  0  0
   40.6770   34.1090   40.3050 C   0  0  0  0  0  3  0  0  0  0  0  0
   39.8660   33.7550   40.9970 H   0  0  0  0  0  0  0  0  0  0  0  0
  1 15  1  0  0  0  0
  2  7  1  0  0  0  0
  2  3  1  0  0  0  0
  2  1  1  0  0  0  0
  3  4  1  0  0  0  0
  3  8  1  1  0  0  0
  4  9  1  0  0  0  0
  4  5  1  0  0  0  0
  5  1  1  0  0  0  0
  5 12  1  0  0  0  0
  6  2  1  0  0  0  0
 10  4  1  0  0  0  0
 11  5  1  0  0  0  0
 13 18  1  0  0  0  0
 14 15  1  0  0  0  0
 14 13  2  0  0  0  0
 15 16  2  0  0  0  0
 16 17  1  0  0  0  0
 17 21  1  0  0  0  0
 18 17  2  0  0  0  0
 19 13  1  0  0  0  0
 20 14  1  0  0  0  0
 22  3  1  0  0  0  0
 23 22  1  0  0  0  0
 24 22  1  1  0  0  0
 24 25  1  0  0  0  0
 24 30  1  0  0  0  0
 25 27  1  0  0  0  0
 26 25  1  0  0  0  0
 27 29  1  0  0  0  0
 28 27  1  0  0  0  0
 30 29  1  0  0  0  0
 30 31  1  0  0  0  0
M  END
>  <minimizedAffinity>
-4.31836462

$$$$
