
 OpenBabel03252508073D

 43 46  0  0  1  0  0  0  0  0999 V2000
   45.9020   34.9710   42.6860 C   0  0  0  0  0  0  0  0  0  0  0  0
   46.0640   33.6390   43.0360 C   0  0  0  0  0  0  0  0  0  0  0  0
   45.6390   33.1950   44.2640 C   0  0  0  0  0  0  0  0  0  0  0  0
   45.0560   34.1290   45.0980 N   0  0  0  0  0  0  0  0  0  0  0  0
   44.9030   35.4060   44.7570 C   0  0  0  0  0  0  0  0  0  0  0  0
   45.3320   35.8130   43.5430 N   0  0  0  0  0  0  0  0  0  0  0  0
   46.2380   35.3200   41.7200 H   0  0  0  0  0  0  0  0  0  0  0  0
   44.4400   36.0950   45.4500 H   0  0  0  0  0  0  0  0  0  0  0  0
   45.7310   31.8780   44.7700 C   0  0  0  0  0  0  0  0  0  0  0  0
   45.2110   30.7540   44.1230 C   0  0  0  0  0  0  0  0  0  0  0  0
   45.2390   29.4840   44.6420 C   0  0  0  0  0  0  0  0  0  0  0  0
   45.8090   29.2650   45.8750 C   0  0  0  0  0  0  0  0  0  0  0  0
   46.3500   30.3980   46.5550 C   0  0  0  0  0  0  0  0  0  0  0  0
   46.9170   30.1910   47.7790 C   0  0  0  0  0  0  0  0  0  0  0  0
   47.4600   31.2440   48.4870 C   0  0  0  0  0  0  0  0  0  0  0  0
   47.4260   32.5360   47.9340 C   0  0  0  0  0  0  0  0  0  0  0  0
   46.8300   32.6950   46.6710 C   0  0  0  0  0  0  0  0  0  0  0  0
   46.2960   31.6320   45.9940 C   0  0  0  0  0  0  0  0  0  0  0  0
   44.7560   30.9070   43.1490 H   0  0  0  0  0  0  0  0  0  0  0  0
   44.8060   28.6690   44.0600 H   0  0  0  0  0  0  0  0  0  0  0  0
   45.8490   28.2790   46.3160 H   0  0  0  0  0  0  0  0  0  0  0  0
   46.9520   29.1860   48.2230 H   0  0  0  0  0  0  0  0  0  0  0  0
   47.8950   31.0210   49.4510 H   0  0  0  0  0  0  0  0  0  0  0  0
   47.8710   33.2770   48.5570 H   0  0  0  0  0  0  0  0  0  0  0  0
   46.9210   33.7290   46.4170 H   0  0  0  0  0  0  0  0  0  0  0  0
   46.6530   32.8170   42.1140 O   0  0  0  0  0  0  0  0  0  0  0  0
   48.5590   31.0900   42.6030 O   0  0  0  0  0  0  0  0  0  0  0  0
   48.3050   32.4520   42.0650 P   0  0  1  0  0  0  0  0  0  0  0  0
   48.8780   32.4670   40.4710 O   0  0  0  0  0  0  0  0  0  0  0  0
   47.8530   33.0910   39.7310 C   0  0  2  0  0  3  0  0  0  0  0  0
   47.7500   32.4760   38.3460 C   0  0  0  0  0  3  0  0  0  0  0  0
   48.6550   31.8860   38.0670 H   0  0  0  0  0  0  0  0  0  0  0  0
   47.6480   33.7230   37.4780 C   0  0  0  0  0  3  0  0  0  0  0  0
   46.5770   34.0030   37.4900 H   0  0  0  0  0  0  0  0  0  0  0  0
   48.4710   34.6130   38.1490 O   0  0  0  0  0  0  0  0  0  0  0  0
   48.0870   34.5400   39.4810 C   0  0  0  0  0  3  0  0  0  0  0  0
   47.0830   35.0540   39.5340 H   0  0  0  0  0  0  0  0  0  0  0  0
   49.1280   33.6210   42.9460 O   0  0  0  0  0  0  0  0  0  0  0  0
   50.2010   34.3830   42.5140 C   0  0  0  0  0  0  0  0  0  0  0  0
   49.7660   35.5490   42.4740 O   0  0  0  0  0  0  0  0  0  0  0  0
   51.3590   33.5550   42.2860 N   0  0  0  0  0  0  0  0  0  0  0  0
   51.7990   33.1090   43.1410 H   0  0  0  0  0  0  0  0  0  0  0  0
   51.8370   33.3270   41.3710 H   0  0  0  0  0  0  0  0  0  0  0  0
  1  2  2  0  0  0  0
  1  6  1  0  0  0  0
  2  3  1  0  0  0  0
  3  9  1  0  0  0  0
  3  4  2  0  0  0  0
  5  4  1  0  0  0  0
  5  8  1  0  0  0  0
  6  5  2  0  0  0  0
  7  1  1  0  0  0  0
  9 18  1  0  0  0  0
 10 11  1  0  0  0  0
 10  9  2  0  0  0  0
 11 12  2  0  0  0  0
 12 21  1  0  0  0  0
 12 13  1  0  0  0  0
 13 14  1  0  0  0  0
 14 22  1  0  0  0  0
 14 15  2  0  0  0  0
 15 23  1  0  0  0  0
 16 15  1  0  0  0  0
 16 24  1  0  0  0  0
 17 16  2  0  0  0  0
 18 13  2  0  0  0  0
 18 17  1  0  0  0  0
 19 10  1  0  0  0  0
 20 11  1  0  0  0  0
 25 17  1  0  0  0  0
 26  2  1  0  0  0  0
 28 26  1  0  0  0  0
 28 27  2  1  0  0  0
 28 38  1  0  0  0  0
 29 28  1  0  0  0  0
 30 29  1  6  0  0  0
 31 30  1  0  0  0  0
 32 31  1  0  0  0  0
 33 34  1  0  0  0  0
 33 35  1  0  0  0  0
 33 31  1  0  0  0  0
 35 36  1  0  0  0  0
 36 37  1  0  0  0  0
 36 30  1  0  0  0  0
 39 38  1  0  0  0  0
 40 39  2  0  0  0  0
 41 39  1  0  0  0  0
 41 42  1  0  0  0  0
 43 41  1  0  0  0  0
M  END
>  <minimizedAffinity>
-5.76298714

>  <minimizedRMSD>
1.66021466

$$$$
