
 OpenBabel03252501073D

 39 42  0  0  1  0  0  0  0  0999 V2000
   48.6890   32.3460   38.0160 O   0  0  0  0  0  0  0  0  0  0  0  0
   48.1140   33.7480   38.2180 P   0  0  2  0  0  0  0  0  0  0  0  0
   49.2710   34.8010   37.5640 O   0  0  0  0  0  0  0  0  0  0  0  0
   48.8470   35.6640   37.4240 H   0  0  0  0  0  0  0  0  0  0  0  0
   47.7220   34.0430   39.7770 O   0  0  0  0  0  0  0  0  0  0  0  0
   47.9270   35.3960   41.7730 C   0  0  1  0  0  0  0  0  0  0  0  0
   49.1900   34.6500   41.7120 C   0  0  0  0  0  0  0  0  0  0  0  0
   48.3930   35.0000   40.4430 C   0  0  1  0  0  0  0  0  0  0  0  0
   47.9410   36.4660   42.0590 H   0  0  0  0  0  0  0  0  0  0  0  0
   50.1550   35.1540   41.8910 H   0  0  0  0  0  0  0  0  0  0  0  0
   49.2210   33.5490   41.8740 H   0  0  0  0  0  0  0  0  0  0  0  0
   48.9720   35.6960   39.8060 H   0  0  0  0  0  0  0  0  0  0  0  0
   45.8830   32.9310   43.8000 C   0  0  0  0  0  0  0  0  0  0  0  0
   46.9750   33.6440   43.3140 C   0  0  0  0  0  0  0  0  0  0  0  0
   46.7620   34.6230   42.3250 C   0  0  0  0  0  0  0  0  0  0  0  0
   45.5010   34.8450   41.8740 N   0  0  0  0  0  0  0  0  0  0  0  0
   44.4520   34.1340   42.3670 C   0  0  0  0  0  0  0  0  0  0  0  0
   44.6410   33.1830   43.3230 N   0  0  0  0  0  0  0  0  0  0  0  0
   46.0760   32.1860   44.5590 H   0  0  0  0  0  0  0  0  0  0  0  0
   47.9420   33.4360   43.6960 H   0  0  0  0  0  0  0  0  0  0  0  0
   43.5150   34.3980   41.9340 H   0  0  0  0  0  0  0  0  0  0  0  0
   46.7620   33.8080   37.2260 O   0  0  0  0  0  0  0  0  0  0  0  0
   45.6890   32.9390   37.3190 C   0  0  0  0  0  0  0  0  0  0  0  0
   45.5670   31.6630   36.8010 C   0  0  0  0  0  0  0  0  0  0  0  0
   44.4370   30.9340   36.9820 C   0  0  0  0  0  0  0  0  0  0  0  0
   43.3750   31.4430   37.6910 C   0  0  0  0  0  0  0  0  0  0  0  0
   43.5280   32.7330   38.2020 C   0  0  0  0  0  0  0  0  0  0  0  0
   44.6690   33.4520   38.0100 N   0  0  0  0  0  0  0  0  0  0  0  0
   46.4420   31.3240   36.2530 H   0  0  0  0  0  0  0  0  0  0  0  0
   44.4350   29.9410   36.5360 H   0  0  0  0  0  0  0  0  0  0  0  0
   42.4810   30.8610   37.8330 H   0  0  0  0  0  0  0  0  0  0  0  0
   42.3860   33.3090   38.9770 C   0  0  2  0  0  0  0  0  0  0  0  0
   41.0800   33.2380   38.2110 C   0  0  0  0  0  0  0  0  0  0  0  0
   40.4980   32.3330   38.3950 H   0  0  0  0  0  0  0  0  0  0  0  0
   40.3750   34.5270   38.5720 C   0  0  0  0  0  0  0  0  0  0  0  0
   39.5650   34.2130   39.2950 H   0  0  0  0  0  0  0  0  0  0  0  0
   41.2870   35.3720   39.1500 O   0  0  0  0  0  0  0  0  0  0  0  0
   42.5380   34.8090   39.1180 C   0  0  0  0  0  0  0  0  0  0  0  0
   43.0240   35.0770   40.0900 H   0  0  0  0  0  0  0  0  0  0  0  0
  2  1  2  6  0  0  0
  2  5  1  0  0  0  0
  3  2  1  0  0  0  0
  4  3  1  0  0  0  0
  5  8  1  0  0  0  0
  6  9  1  1  0  0  0
  6 15  1  0  0  0  0
  7  6  1  0  0  0  0
  7 11  1  0  0  0  0
  7 10  1  0  0  0  0
  8 12  1  6  0  0  0
  8  7  1  0  0  0  0
  8  6  1  0  0  0  0
 13 19  1  0  0  0  0
 14 20  1  0  0  0  0
 14 13  2  0  0  0  0
 15 14  1  0  0  0  0
 16 15  2  0  0  0  0
 16 17  1  0  0  0  0
 17 18  2  0  0  0  0
 18 13  1  0  0  0  0
 21 17  1  0  0  0  0
 22 23  1  0  0  0  0
 22  2  1  0  0  0  0
 23 28  1  0  0  0  0
 24 25  1  0  0  0  0
 24 23  2  0  0  0  0
 25 26  2  0  0  0  0
 26 31  1  0  0  0  0
 26 27  1  0  0  0  0
 28 27  2  0  0  0  0
 29 24  1  0  0  0  0
 30 25  1  0  0  0  0
 32 27  1  6  0  0  0
 32 38  1  0  0  0  0
 33 34  1  0  0  0  0
 33 35  1  0  0  0  0
 33 32  1  0  0  0  0
 35 37  1  0  0  0  0
 35 36  1  0  0  0  0
 38 37  1  0  0  0  0
 38 39  1  0  0  0  0
M  END
>  <minimizedAffinity>
-5.09628582

>  <minimizedRMSD>
1.08519745

$$$$
