
 OpenBabel03252500153D

 37 40  0  0  1  0  0  0  0  0999 V2000
   45.4890   32.3400   40.5410 Cl  0  0  0  0  0  0  0  0  0  0  0  0
   46.7840   33.4430   40.1860 C   0  0  0  0  0  0  0  0  0  0  0  0
   47.3720   34.1870   41.1740 C   0  0  0  0  0  0  0  0  0  0  0  0
   48.4100   35.0780   40.9190 C   0  0  0  0  0  0  0  0  0  0  0  0
   48.8140   35.1700   39.6100 C   0  0  0  0  0  0  0  0  0  0  0  0
   48.2300   34.4240   38.6010 C   0  0  0  0  0  0  0  0  0  0  0  0
   47.2260   33.5710   38.8820 C   0  0  0  0  0  0  0  0  0  0  0  0
   48.8700   35.6600   41.6900 H   0  0  0  0  0  0  0  0  0  0  0  0
   49.6180   35.8560   39.4020 H   0  0  0  0  0  0  0  0  0  0  0  0
   48.5640   34.5120   37.5800 H   0  0  0  0  0  0  0  0  0  0  0  0
   46.8960   32.9010   44.5980 C   0  0  0  0  0  0  0  0  0  0  0  0
   45.9560   33.8110   45.1440 C   0  0  0  0  0  0  0  0  0  0  0  0
   45.5070   34.8470   44.3240 C   0  0  0  0  0  0  0  0  0  0  0  0
   45.9970   34.9220   43.0500 N   0  0  0  0  0  0  0  0  0  0  0  0
   46.8900   34.0410   42.5590 C   0  0  0  0  0  0  0  0  0  0  0  0
   47.3250   33.0480   43.3330 N   0  0  0  0  0  0  0  0  0  0  0  0
   47.2240   32.1070   45.2630 H   0  0  0  0  0  0  0  0  0  0  0  0
   45.5540   33.7800   46.1370 H   0  0  0  0  0  0  0  0  0  0  0  0
   44.5180   35.8700   44.7850 C   0  0  0  0  0  0  0  0  0  0  0  0
   44.9770   37.1280   44.5550 F   0  0  0  0  0  0  0  0  0  0  0  0
   43.3400   35.6790   44.0890 F   0  0  0  0  0  0  0  0  0  0  0  0
   44.3090   35.6410   46.1210 F   0  0  0  0  0  0  0  0  0  0  0  0
   46.5920   32.7720   37.8360 C   0  0  0  0  0  0  0  0  0  0  0  0
   45.5690   33.2490   37.0040 C   0  0  0  0  0  0  0  0  0  0  0  0
   45.2090   32.2310   36.1360 C   0  0  0  0  0  0  0  0  0  0  0  0
   46.0470   31.1860   36.4980 C   0  0  0  0  0  0  0  0  0  0  0  0
   46.8440   31.5220   37.4910 O   0  0  0  0  0  0  0  0  0  0  0  0
   45.1390   34.2430   37.0400 H   0  0  0  0  0  0  0  0  0  0  0  0
   44.4750   32.2250   35.3700 H   0  0  0  0  0  0  0  0  0  0  0  0
   46.0800   29.8510   35.8850 C   0  0  1  0  0  3  0  0  0  0  0  0
   46.9720   29.7910   34.6380 C   0  0  0  0  0  3  0  0  0  0  0  0
   47.9750   30.1810   34.8580 H   0  0  0  0  0  0  0  0  0  0  0  0
   47.0820   28.2630   34.5480 C   0  0  0  0  0  3  0  0  0  0  0  0
   47.8910   27.9420   33.8750 H   0  0  0  0  0  0  0  0  0  0  0  0
   47.2030   27.8180   35.8500 O   0  0  0  0  0  0  0  0  0  0  0  0
   46.7470   28.7950   36.7120 C   0  0  0  0  0  3  0  0  0  0  0  0
   47.6430   29.2470   37.1880 H   0  0  0  0  0  0  0  0  0  0  0  0
  2  1  1  0  0  0  0
  2  3  1  0  0  0  0
  3 15  1  0  0  0  0
  4  3  2  0  0  0  0
  4  8  1  0  0  0  0
  5  4  1  0  0  0  0
  6  7  1  0  0  0  0
  6  5  2  0  0  0  0
  7  2  2  0  0  0  0
  9  5  1  0  0  0  0
 10  6  1  0  0  0  0
 11 12  1  0  0  0  0
 11 17  1  0  0  0  0
 12 18  1  0  0  0  0
 13 19  1  0  0  0  0
 13 12  2  0  0  0  0
 14 13  1  0  0  0  0
 15 14  2  0  0  0  0
 15 16  1  0  0  0  0
 16 11  2  0  0  0  0
 19 22  1  0  0  0  0
 20 19  1  0  0  0  0
 21 19  1  0  0  0  0
 23  7  1  0  0  0  0
 24 28  1  0  0  0  0
 24 23  2  0  0  0  0
 25 26  2  0  0  0  0
 25 24  1  0  0  0  0
 26 27  1  0  0  0  0
 27 23  1  0  0  0  0
 29 25  1  0  0  0  0
 30 26  1  1  0  0  0
 30 36  1  0  0  0  0
 31 32  1  0  0  0  0
 31 30  1  0  0  0  0
 33 31  1  0  0  0  0
 33 35  1  0  0  0  0
 34 33  1  0  0  0  0
 35 36  1  0  0  0  0
 36 37  1  0  0  0  0
M  END
>  <minimizedAffinity>
-5.55551577

>  <minimizedRMSD>
0.116123296

$$$$
