
 OpenBabel03252507083D

 23 24  0  0  1  0  0  0  0  0999 V2000
   44.6480   35.9290   44.6060 C   0  0  0  0  0  0  0  0  0  0  0  0
   45.2870   35.9810   43.3420 C   0  0  0  0  0  0  0  0  0  0  0  0
   46.1100   34.9250   42.9760 C   0  0  0  0  0  0  0  0  0  0  0  0
   46.2610   33.8910   43.8560 N   0  0  0  0  0  0  0  0  0  0  0  0
   45.6460   33.8650   45.0460 C   0  0  0  0  0  0  0  0  0  0  0  0
   44.8370   34.8860   45.4250 N   0  0  0  0  0  0  0  0  0  0  0  0
   44.0280   36.8070   44.7850 H   0  0  0  0  0  0  0  0  0  0  0  0
   45.1570   36.8090   42.6560 H   0  0  0  0  0  0  0  0  0  0  0  0
   45.8060   32.7530   45.9950 C   0  0  1  0  0  3  0  0  0  0  0  0
   46.1270   31.4330   45.2790 C   0  0  0  0  0  3  0  0  0  0  0  0
   45.1810   31.0380   44.8540 H   0  0  0  0  0  0  0  0  0  0  0  0
   46.5860   30.6620   46.5010 C   0  0  0  0  0  3  0  0  0  0  0  0
   47.1690   29.7630   46.2630 H   0  0  0  0  0  0  0  0  0  0  0  0
   47.2110   31.5630   47.3410 O   0  0  0  0  0  0  0  0  0  0  0  0
   46.9960   32.8410   46.8900 C   0  0  0  0  0  3  0  0  0  0  0  0
   47.9110   33.1320   46.3000 H   0  0  0  0  0  0  0  0  0  0  0  0
   46.7260   34.9880   41.7440 O   0  0  0  0  0  0  0  0  0  0  0  0
   48.6370   33.3380   40.9590 O   0  0  0  0  0  0  0  0  0  0  0  0
   48.4150   34.7000   41.6270 P   0  0  0  0  0  0  0  0  0  0  0  0
   49.1350   35.9390   40.7850 O   0  0  0  0  0  0  0  0  0  0  0  0
   49.9620   36.2340   41.2680 H   0  0  0  0  0  0  0  0  0  0  0  0
   49.0150   34.5820   43.2170 O   0  0  0  0  0  0  0  0  0  0  0  0
   48.8970   33.6540   43.5010 H   0  0  0  0  0  0  0  0  0  0  0  0
  1  7  1  0  0  0  0
  1  6  1  0  0  0  0
  2  1  2  0  0  0  0
  3  2  1  0  0  0  0
  3  4  2  0  0  0  0
  4  5  1  0  0  0  0
  5  6  2  0  0  0  0
  8  2  1  0  0  0  0
  9  5  1  6  0  0  0
  9 15  1  0  0  0  0
 10  9  1  0  0  0  0
 10 12  1  0  0  0  0
 11 10  1  0  0  0  0
 12 14  1  0  0  0  0
 13 12  1  0  0  0  0
 15 14  1  0  0  0  0
 16 15  1  0  0  0  0
 17  3  1  0  0  0  0
 18 19  2  0  0  0  0
 19 17  1  0  0  0  0
 19 22  1  0  0  0  0
 20 21  1  0  0  0  0
 20 19  1  0  0  0  0
 22 23  1  0  0  0  0
M  END
>  <minimizedAffinity>
-5.09053612

>  <minimizedRMSD>
0.199809492

$$$$
