
 OpenBabel03252505583D

 35 37  0  0  1  0  0  0  0  0999 V2000
   44.6450   35.3030   45.4550 C   0  0  0  0  0  0  0  0  0  0  0  0
   45.3440   34.8190   44.3280 C   0  0  0  0  0  0  0  0  0  0  0  0
   46.0420   33.6290   44.4840 C   0  0  0  0  0  0  0  0  0  0  0  0
   46.0130   33.0150   45.6870 N   0  0  0  0  0  0  0  0  0  0  0  0
   45.3400   33.5030   46.7300 C   0  0  0  0  0  0  0  0  0  0  0  0
   44.6590   34.6380   46.6200 N   0  0  0  0  0  0  0  0  0  0  0  0
   44.0970   36.2300   45.3430 H   0  0  0  0  0  0  0  0  0  0  0  0
   46.8180   32.9530   43.4620 C   0  0  2  0  0  3  0  0  0  0  0  0
   45.8430   32.0450   42.6890 C   0  0  0  0  0  3  0  0  0  0  0  0
   45.7290   32.3570   41.6330 H   0  0  0  0  0  0  0  0  0  0  0  0
   46.4160   30.6670   42.7380 C   0  0  0  0  0  3  0  0  0  0  0  0
   45.6560   29.8680   42.7390 H   0  0  0  0  0  0  0  0  0  0  0  0
   47.0000   30.6750   44.0050 O   0  0  0  0  0  0  0  0  0  0  0  0
   47.7150   31.8710   44.0500 C   0  0  0  0  0  3  0  0  0  0  0  0
   48.5970   31.7710   43.3880 H   0  0  0  0  0  0  0  0  0  0  0  0
   45.3030   35.5800   43.0610 C   0  0  0  0  0  0  0  0  0  0  0  0
   44.8030   36.8290   43.4300 F   0  0  0  0  0  0  0  0  0  0  0  0
   44.3300   34.9770   42.2620 F   0  0  0  0  0  0  0  0  0  0  0  0
   46.5100   35.6800   42.5150 F   0  0  0  0  0  0  0  0  0  0  0  0
   45.3120   32.8650   47.9680 O   0  0  0  0  0  0  0  0  0  0  0  0
   44.8250   31.5430   48.0810 C   0  0  0  0  0  0  0  0  0  0  0  0
   44.4250   31.4330   49.1190 H   0  0  0  0  0  0  0  0  0  0  0  0
   43.9900   31.3200   47.3950 H   0  0  0  0  0  0  0  0  0  0  0  0
   45.9770   30.6350   47.9480 C   0  0  0  0  0  0  0  0  0  0  0  0
   46.0960   29.4390   47.2540 C   0  0  0  0  0  0  0  0  0  0  0  0
   47.2910   28.7910   47.2990 C   0  0  0  0  0  0  0  0  0  0  0  0
   48.3340   29.2640   47.9770 N   0  0  0  0  0  0  0  0  0  0  0  0
   48.2130   30.4190   48.6450 C   0  0  0  0  0  0  0  0  0  0  0  0
   47.0370   31.1170   48.6390 N   0  0  0  0  0  0  0  0  0  0  0  0
   45.1960   29.1690   46.7530 H   0  0  0  0  0  0  0  0  0  0  0  0
   47.3140   27.8610   46.7320 H   0  0  0  0  0  0  0  0  0  0  0  0
   49.4260   30.8620   49.3680 C   0  0  0  0  0  0  0  0  0  0  0  0
   49.5260   32.2370   49.3930 F   0  0  0  0  0  0  0  0  0  0  0  0
   50.5690   30.3490   48.7500 F   0  0  0  0  0  0  0  0  0  0  0  0
   49.4460   30.4200   50.6760 F   0  0  0  0  0  0  0  0  0  0  0  0
  1  6  1  0  0  0  0
  2  3  1  0  0  0  0
  2  1  2  0  0  0  0
  3  4  2  0  0  0  0
  4  5  1  0  0  0  0
  5 20  1  0  0  0  0
  6  5  2  0  0  0  0
  7  1  1  0  0  0  0
  8 14  1  0  0  0  0
  8  3  1  1  0  0  0
  9 11  1  0  0  0  0
  9  8  1  0  0  0  0
 10  9  1  0  0  0  0
 11 12  1  0  0  0  0
 11 13  1  0  0  0  0
 13 14  1  0  0  0  0
 15 14  1  0  0  0  0
 16 17  1  0  0  0  0
 16  2  1  0  0  0  0
 18 16  1  0  0  0  0
 19 16  1  0  0  0  0
 20 21  1  0  0  0  0
 21 22  1  0  0  0  0
 23 21  1  0  0  0  0
 24 21  1  0  0  0  0
 24 29  1  0  0  0  0
 25 26  1  0  0  0  0
 25 24  2  0  0  0  0
 26 27  2  0  0  0  0
 27 28  1  0  0  0  0
 28 32  1  0  0  0  0
 29 28  2  0  0  0  0
 30 25  1  0  0  0  0
 31 26  1  0  0  0  0
 32 33  1  0  0  0  0
 32 35  1  0  0  0  0
 34 32  1  0  0  0  0
M  END
>  <minimizedAffinity>
-5.56717539

>  <minimizedRMSD>
1.53849602

$$$$
