
 OpenBabel03252504293D

 26 27  0  0  1  0  0  0  0  0999 V2000
   43.3160   35.7780   41.7190 O   0  0  0  0  0  0  0  0  0  0  0  0
   44.5700   35.2540   41.8970 C   0  0  0  0  0  0  0  0  0  0  0  0
   45.2940   36.1350   41.7960 H   0  0  0  0  0  0  0  0  0  0  0  0
   44.9210   34.5000   41.1740 H   0  0  0  0  0  0  0  0  0  0  0  0
   44.4450   35.6340   44.2670 C   0  0  0  0  0  0  0  0  0  0  0  0
   44.8540   34.7500   43.2560 C   0  0  0  0  0  0  0  0  0  0  0  0
   45.4540   33.5820   43.6430 C   0  0  0  0  0  0  0  0  0  0  0  0
   45.6060   33.3730   44.9570 N   0  0  0  0  0  0  0  0  0  0  0  0
   45.2180   34.2120   45.9120 C   0  0  0  0  0  0  0  0  0  0  0  0
   44.6030   35.4130   45.5920 N   0  0  0  0  0  0  0  0  0  0  0  0
   43.9560   36.5930   44.0710 H   0  0  0  0  0  0  0  0  0  0  0  0
   45.7420   32.9520   42.8290 H   0  0  0  0  0  0  0  0  0  0  0  0
   45.3830   33.9580   46.9560 H   0  0  0  0  0  0  0  0  0  0  0  0
   42.2260   35.2060   41.0840 C   0  0  0  0  0  0  0  0  0  0  0  0
   41.1220   35.9410   40.9170 C   0  0  0  0  0  0  0  0  0  0  0  0
   39.8360   35.5410   40.2380 C   0  0  0  0  0  0  0  0  0  0  0  0
   39.7750   36.1920   39.3300 H   0  0  0  0  0  0  0  0  0  0  0  0
   38.9550   35.7620   40.8590 H   0  0  0  0  0  0  0  0  0  0  0  0
   39.8240   34.1290   39.7710 C   0  0  2  0  0  0  0  0  0  0  0  0
   40.1520   34.1590   38.2830 C   0  0  0  0  0  0  0  0  0  0  0  0
   40.7720   33.2790   38.0030 H   0  0  0  0  0  0  0  0  0  0  0  0
   38.7730   34.1060   37.6620 C   0  0  0  0  0  0  0  0  0  0  0  0
   38.7790   33.5890   36.6820 H   0  0  0  0  0  0  0  0  0  0  0  0
   38.0170   33.3240   38.5120 O   0  0  0  0  0  0  0  0  0  0  0  0
   38.4450   33.5150   39.8050 C   0  0  0  0  0  0  0  0  0  0  0  0
   37.7080   34.1000   40.3950 H   0  0  0  0  0  0  0  0  0  0  0  0
  1  2  1  0  0  0  0
  2  6  1  0  0  0  0
  3  2  1  0  0  0  0
  4  2  1  0  0  0  0
  5 10  1  0  0  0  0
  6  7  1  0  0  0  0
  6  5  2  0  0  0  0
  7  8  2  0  0  0  0
  8  9  1  0  0  0  0
  9 13  1  0  0  0  0
 10  9  2  0  0  0  0
 11  5  1  0  0  0  0
 12  7  1  0  0  0  0
 14  1  1  0  0  0  0
 15 14  2  0  0  0  0
 16 18  1  0  0  0  0
 16 15  1  0  0  0  0
 17 16  1  0  0  0  0
 19 25  1  0  0  0  0
 19 16  1  6  0  0  0
 20 19  1  0  0  0  0
 21 20  1  0  0  0  0
 22 20  1  0  0  0  0
 22 24  1  0  0  0  0
 23 22  1  0  0  0  0
 24 25  1  0  0  0  0
 25 26  1  0  0  0  0
M  END
>  <minimizedAffinity>
-4.71954536

>  <minimizedRMSD>
0.56380111

$$$$
