
 OpenBabel03252500163D

 37 40  0  0  1  0  0  0  0  0999 V2000
   39.9590   31.1910   42.1780 Cl  0  0  0  0  0  0  0  0  0  0  0  0
   38.5340   31.0210   41.1990 C   0  0  0  0  0  0  0  0  0  0  0  0
   38.1850   31.9780   40.2830 C   0  0  0  0  0  0  0  0  0  0  0  0
   37.0500   31.8690   39.4870 C   0  0  0  0  0  0  0  0  0  0  0  0
   36.2930   30.7380   39.6720 C   0  0  0  0  0  0  0  0  0  0  0  0
   36.6330   29.7630   40.5930 C   0  0  0  0  0  0  0  0  0  0  0  0
   37.7390   29.9000   41.3490 C   0  0  0  0  0  0  0  0  0  0  0  0
   36.7760   32.6150   38.7710 H   0  0  0  0  0  0  0  0  0  0  0  0
   35.4130   30.6430   39.0590 H   0  0  0  0  0  0  0  0  0  0  0  0
   36.0240   28.8820   40.7210 H   0  0  0  0  0  0  0  0  0  0  0  0
   39.5460   35.3830   40.6790 C   0  0  0  0  0  0  0  0  0  0  0  0
   40.6760   35.3680   39.8230 C   0  0  0  0  0  0  0  0  0  0  0  0
   40.9460   34.1880   39.1290 C   0  0  0  0  0  0  0  0  0  0  0  0
   40.1090   33.1230   39.3140 N   0  0  0  0  0  0  0  0  0  0  0  0
   39.0420   33.1680   40.1350 C   0  0  0  0  0  0  0  0  0  0  0  0
   38.7750   34.2900   40.8030 N   0  0  0  0  0  0  0  0  0  0  0  0
   39.3650   36.3170   41.2040 H   0  0  0  0  0  0  0  0  0  0  0  0
   41.3510   36.1850   39.6560 H   0  0  0  0  0  0  0  0  0  0  0  0
   42.1070   34.0480   38.1970 C   0  0  0  0  0  0  0  0  0  0  0  0
   43.1450   33.4180   38.8070 F   0  0  0  0  0  0  0  0  0  0  0  0
   41.7010   33.3060   37.1050 F   0  0  0  0  0  0  0  0  0  0  0  0
   42.4460   35.3150   37.7970 F   0  0  0  0  0  0  0  0  0  0  0  0
   38.1200   28.8850   42.3290 C   0  0  0  0  0  0  0  0  0  0  0  0
   37.3440   28.5510   43.4470 C   0  0  0  0  0  0  0  0  0  0  0  0
   38.0060   27.5580   44.1510 C   0  0  0  0  0  0  0  0  0  0  0  0
   39.1580   27.3480   43.4070 C   0  0  0  0  0  0  0  0  0  0  0  0
   39.2060   28.1320   42.3510 O   0  0  0  0  0  0  0  0  0  0  0  0
   36.3910   28.9960   43.7090 H   0  0  0  0  0  0  0  0  0  0  0  0
   37.7230   27.0610   45.0440 H   0  0  0  0  0  0  0  0  0  0  0  0
   40.2240   26.3850   43.7170 C   0  0  1  0  0  3  0  0  0  0  0  0
   40.8120   25.7250   42.4630 C   0  0  0  0  0  3  0  0  0  0  0  0
   41.1260   26.4820   41.7330 H   0  0  0  0  0  0  0  0  0  0  0  0
   42.0820   25.1610   43.1140 C   0  0  0  0  0  3  0  0  0  0  0  0
   42.8290   24.8450   42.3700 H   0  0  0  0  0  0  0  0  0  0  0  0
   42.5160   26.1340   43.9940 O   0  0  0  0  0  0  0  0  0  0  0  0
   41.4730   26.9900   44.2820 C   0  0  0  0  0  3  0  0  0  0  0  0
   41.6730   27.9360   43.7340 H   0  0  0  0  0  0  0  0  0  0  0  0
  2  7  1  0  0  0  0
  2  1  1  0  0  0  0
  3  2  2  0  0  0  0
  4  5  2  0  0  0  0
  4  3  1  0  0  0  0
  5  6  1  0  0  0  0
  6 10  1  0  0  0  0
  6  7  2  0  0  0  0
  7 23  1  0  0  0  0
  8  4  1  0  0  0  0
  9  5  1  0  0  0  0
 11 16  1  0  0  0  0
 11 17  1  0  0  0  0
 12 11  2  0  0  0  0
 13 14  2  0  0  0  0
 13 12  1  0  0  0  0
 14 15  1  0  0  0  0
 15  3  1  0  0  0  0
 15 16  2  0  0  0  0
 18 12  1  0  0  0  0
 19 20  1  0  0  0  0
 19 13  1  0  0  0  0
 21 19  1  0  0  0  0
 22 19  1  0  0  0  0
 23 27  1  0  0  0  0
 23 24  2  0  0  0  0
 24 28  1  0  0  0  0
 24 25  1  0  0  0  0
 25 29  1  0  0  0  0
 26 25  2  0  0  0  0
 27 26  1  0  0  0  0
 30 26  1  6  0  0  0
 30 36  1  0  0  0  0
 31 33  1  0  0  0  0
 31 30  1  0  0  0  0
 32 31  1  0  0  0  0
 33 35  1  0  0  0  0
 34 33  1  0  0  0  0
 35 36  1  0  0  0  0
 37 36  1  0  0  0  0
M  END
>  <minimizedAffinity>
-6.89145088

$$$$

 OpenBabel03252500163D

 37 40  0  0  1  0  0  0  0  0999 V2000
   39.0810   31.0560   41.7080 Cl  0  0  0  0  0  0  0  0  0  0  0  0
   38.1220   30.8490   40.2750 C   0  0  0  0  0  0  0  0  0  0  0  0
   38.0540   31.8280   39.3200 C   0  0  0  0  0  0  0  0  0  0  0  0
   37.2930   31.6900   38.1630 C   0  0  0  0  0  0  0  0  0  0  0  0
   36.6090   30.5060   38.0320 C   0  0  0  0  0  0  0  0  0  0  0  0
   36.6690   29.5080   38.9890 C   0  0  0  0  0  0  0  0  0  0  0  0
   37.4150   29.6740   40.0980 C   0  0  0  0  0  0  0  0  0  0  0  0
   37.2390   32.4530   37.4160 H   0  0  0  0  0  0  0  0  0  0  0  0
   36.0190   30.3880   37.1400 H   0  0  0  0  0  0  0  0  0  0  0  0
   36.1240   28.5860   38.8650 H   0  0  0  0  0  0  0  0  0  0  0  0
   38.9190   35.2820   40.2800 C   0  0  0  0  0  0  0  0  0  0  0  0
   40.2760   35.3860   39.8800 C   0  0  0  0  0  0  0  0  0  0  0  0
   40.8630   34.2660   39.2900 C   0  0  0  0  0  0  0  0  0  0  0  0
   40.1000   33.1430   39.1320 N   0  0  0  0  0  0  0  0  0  0  0  0
   38.8120   33.0750   39.5220 C   0  0  0  0  0  0  0  0  0  0  0  0
   38.2420   34.1380   40.0880 N   0  0  0  0  0  0  0  0  0  0  0  0
   38.4930   36.1720   40.7360 H   0  0  0  0  0  0  0  0  0  0  0  0
   40.9000   36.2500   39.9900 H   0  0  0  0  0  0  0  0  0  0  0  0
   42.2850   34.2510   38.8270 C   0  0  0  0  0  0  0  0  0  0  0  0
   42.4880   35.1740   37.8510 F   0  0  0  0  0  0  0  0  0  0  0  0
   43.0970   34.5410   39.9060 F   0  0  0  0  0  0  0  0  0  0  0  0
   42.5400   32.9780   38.3830 F   0  0  0  0  0  0  0  0  0  0  0  0
   37.4940   28.6360   41.1230 C   0  0  0  0  0  0  0  0  0  0  0  0
   36.4110   28.2470   41.9240 C   0  0  0  0  0  0  0  0  0  0  0  0
   36.8440   27.2460   42.7780 C   0  0  0  0  0  0  0  0  0  0  0  0
   38.1800   27.0870   42.4390 C   0  0  0  0  0  0  0  0  0  0  0  0
   38.5390   27.9070   41.4740 O   0  0  0  0  0  0  0  0  0  0  0  0
   35.4110   28.6620   41.8770 H   0  0  0  0  0  0  0  0  0  0  0  0
   36.3060   26.7130   43.5210 H   0  0  0  0  0  0  0  0  0  0  0  0
   39.1200   26.1390   43.0510 C   0  0  1  0  0  3  0  0  0  0  0  0
   39.9950   25.4170   42.0170 C   0  0  0  0  0  3  0  0  0  0  0  0
   40.4920   26.1370   41.3550 H   0  0  0  0  0  0  0  0  0  0  0  0
   41.0530   24.8830   42.9920 C   0  0  0  0  0  3  0  0  0  0  0  0
   41.9580   24.5300   42.4750 H   0  0  0  0  0  0  0  0  0  0  0  0
   41.2660   25.8970   43.9060 O   0  0  0  0  0  0  0  0  0  0  0  0
   40.1970   26.7680   43.8830 C   0  0  0  0  0  3  0  0  0  0  0  0
   40.5410   27.6860   43.3590 H   0  0  0  0  0  0  0  0  0  0  0  0
  2  1  1  0  0  0  0
  3 15  1  0  0  0  0
  3  2  2  0  0  0  0
  4  3  1  0  0  0  0
  5  4  2  0  0  0  0
  5  6  1  0  0  0  0
  6  7  2  0  0  0  0
  7  2  1  0  0  0  0
  7 23  1  0  0  0  0
  8  4  1  0  0  0  0
  9  5  1  0  0  0  0
 10  6  1  0  0  0  0
 11 17  1  0  0  0  0
 12 18  1  0  0  0  0
 12 11  2  0  0  0  0
 13 12  1  0  0  0  0
 14 13  2  0  0  0  0
 14 15  1  0  0  0  0
 15 16  2  0  0  0  0
 16 11  1  0  0  0  0
 19 13  1  0  0  0  0
 19 21  1  0  0  0  0
 20 19  1  0  0  0  0
 22 19  1  0  0  0  0
 23 27  1  0  0  0  0
 23 24  2  0  0  0  0
 24 25  1  0  0  0  0
 25 29  1  0  0  0  0
 26 25  2  0  0  0  0
 27 26  1  0  0  0  0
 28 24  1  0  0  0  0
 30 26  1  6  0  0  0
 30 36  1  0  0  0  0
 31 33  1  0  0  0  0
 31 30  1  0  0  0  0
 32 31  1  0  0  0  0
 33 35  1  0  0  0  0
 34 33  1  0  0  0  0
 36 35  1  0  0  0  0
 37 36  1  0  0  0  0
M  END
>  <minimizedAffinity>
-6.74162436

$$$$

 OpenBabel03252500163D

 37 40  0  0  1  0  0  0  0  0999 V2000
   39.4480   31.0770   41.7480 Cl  0  0  0  0  0  0  0  0  0  0  0  0
   38.2990   30.9150   40.4550 C   0  0  0  0  0  0  0  0  0  0  0  0
   37.3900   29.8910   40.4400 C   0  0  0  0  0  0  0  0  0  0  0  0
   36.4590   29.7360   39.4170 C   0  0  0  0  0  0  0  0  0  0  0  0
   36.5050   30.6750   38.4160 C   0  0  0  0  0  0  0  0  0  0  0  0
   37.4180   31.7150   38.4190 C   0  0  0  0  0  0  0  0  0  0  0  0
   38.3060   31.8370   39.4250 C   0  0  0  0  0  0  0  0  0  0  0  0
   35.7490   28.9370   39.4030 H   0  0  0  0  0  0  0  0  0  0  0  0
   35.7880   30.5660   37.6200 H   0  0  0  0  0  0  0  0  0  0  0  0
   37.4350   32.4430   37.6230 H   0  0  0  0  0  0  0  0  0  0  0  0
   37.3790   28.4450   43.8320 C   0  0  0  0  0  0  0  0  0  0  0  0
   37.4060   27.0510   43.5770 C   0  0  0  0  0  0  0  0  0  0  0  0
   37.4280   26.6380   42.2440 C   0  0  0  0  0  0  0  0  0  0  0  0
   37.4210   27.5970   41.2700 N   0  0  0  0  0  0  0  0  0  0  0  0
   37.3950   28.9160   41.5440 C   0  0  0  0  0  0  0  0  0  0  0  0
   37.3750   29.3210   42.8130 N   0  0  0  0  0  0  0  0  0  0  0  0
   37.3630   28.7310   44.8800 H   0  0  0  0  0  0  0  0  0  0  0  0
   37.4120   26.2750   44.3160 H   0  0  0  0  0  0  0  0  0  0  0  0
   37.4570   25.1970   41.8460 C   0  0  0  0  0  0  0  0  0  0  0  0
   37.3310   25.0620   40.5000 F   0  0  0  0  0  0  0  0  0  0  0  0
   38.6640   24.6600   42.2470 F   0  0  0  0  0  0  0  0  0  0  0  0
   36.4300   24.5830   42.5160 F   0  0  0  0  0  0  0  0  0  0  0  0
   39.2800   32.9250   39.4510 C   0  0  0  0  0  0  0  0  0  0  0  0
   39.0440   34.1680   40.0550 C   0  0  0  0  0  0  0  0  0  0  0  0
   40.1760   34.9500   39.8900 C   0  0  0  0  0  0  0  0  0  0  0  0
   41.0410   34.1220   39.1880 C   0  0  0  0  0  0  0  0  0  0  0  0
   40.4990   32.9480   38.9420 O   0  0  0  0  0  0  0  0  0  0  0  0
   38.1310   34.4600   40.5600 H   0  0  0  0  0  0  0  0  0  0  0  0
   40.3630   35.9430   40.2120 H   0  0  0  0  0  0  0  0  0  0  0  0
   42.4000   34.4660   38.7490 C   0  0  1  0  0  3  0  0  0  0  0  0
   43.4860   33.8750   39.6580 C   0  0  0  0  0  3  0  0  0  0  0  0
   43.3430   32.7940   39.7850 H   0  0  0  0  0  0  0  0  0  0  0  0
   44.6710   34.0720   38.7040 C   0  0  0  0  0  3  0  0  0  0  0  0
   45.5560   33.4940   39.0100 H   0  0  0  0  0  0  0  0  0  0  0  0
   44.1910   33.7730   37.4430 O   0  0  0  0  0  0  0  0  0  0  0  0
   42.8140   33.8520   37.4460 C   0  0  0  0  0  3  0  0  0  0  0  0
   42.4320   32.8090   37.4220 H   0  0  0  0  0  0  0  0  0  0  0  0
  2  1  1  0  0  0  0
  3  2  1  0  0  0  0
  3 15  1  0  0  0  0
  4  3  2  0  0  0  0
  5  6  2  0  0  0  0
  5  4  1  0  0  0  0
  6  7  1  0  0  0  0
  7 23  1  0  0  0  0
  7  2  2  0  0  0  0
  8  4  1  0  0  0  0
  9  5  1  0  0  0  0
 10  6  1  0  0  0  0
 11 17  1  0  0  0  0
 12 11  1  0  0  0  0
 12 18  1  0  0  0  0
 13 12  2  0  0  0  0
 14 15  2  0  0  0  0
 14 13  1  0  0  0  0
 15 16  1  0  0  0  0
 16 11  2  0  0  0  0
 19 13  1  0  0  0  0
 19 21  1  0  0  0  0
 19 22  1  0  0  0  0
 20 19  1  0  0  0  0
 23 24  2  0  0  0  0
 24 28  1  0  0  0  0
 25 24  1  0  0  0  0
 25 29  1  0  0  0  0
 26 25  2  0  0  0  0
 27 26  1  0  0  0  0
 27 23  1  0  0  0  0
 30 26  1  1  0  0  0
 30 31  1  0  0  0  0
 31 32  1  0  0  0  0
 33 34  1  0  0  0  0
 33 31  1  0  0  0  0
 35 36  1  0  0  0  0
 35 33  1  0  0  0  0
 36 30  1  0  0  0  0
 37 36  1  0  0  0  0
M  END
>  <minimizedAffinity>
-6.6587615

$$$$

 OpenBabel03252500163D

 37 40  0  0  1  0  0  0  0  0999 V2000
   37.9510   28.2090   39.3550 Cl  0  0  0  0  0  0  0  0  0  0  0  0
   37.8080   28.0980   41.0830 C   0  0  0  0  0  0  0  0  0  0  0  0
   37.7750   26.8830   41.7150 C   0  0  0  0  0  0  0  0  0  0  0  0
   37.6600   26.7650   43.0960 C   0  0  0  0  0  0  0  0  0  0  0  0
   37.5820   27.9440   43.7960 C   0  0  0  0  0  0  0  0  0  0  0  0
   37.6140   29.1780   43.1710 C   0  0  0  0  0  0  0  0  0  0  0  0
   37.7260   29.2580   41.8310 C   0  0  0  0  0  0  0  0  0  0  0  0
   37.6340   25.8170   43.5920 H   0  0  0  0  0  0  0  0  0  0  0  0
   37.4940   27.8640   44.8660 H   0  0  0  0  0  0  0  0  0  0  0  0
   37.5520   30.0920   43.7400 H   0  0  0  0  0  0  0  0  0  0  0  0
   39.1420   23.9990   39.8670 C   0  0  0  0  0  0  0  0  0  0  0  0
   37.9740   23.3560   39.3850 C   0  0  0  0  0  0  0  0  0  0  0  0
   36.7420   23.9280   39.7060 C   0  0  0  0  0  0  0  0  0  0  0  0
   36.7350   25.0680   40.4610 N   0  0  0  0  0  0  0  0  0  0  0  0
   37.8630   25.6560   40.9050 C   0  0  0  0  0  0  0  0  0  0  0  0
   39.0440   25.1180   40.6050 N   0  0  0  0  0  0  0  0  0  0  0  0
   40.0830   23.5280   39.6000 H   0  0  0  0  0  0  0  0  0  0  0  0
   37.9460   22.4640   38.7920 H   0  0  0  0  0  0  0  0  0  0  0  0
   35.4410   23.3450   39.2570 C   0  0  0  0  0  0  0  0  0  0  0  0
   34.5800   23.2150   40.3000 F   0  0  0  0  0  0  0  0  0  0  0  0
   34.8890   24.1890   38.3130 F   0  0  0  0  0  0  0  0  0  0  0  0
   35.7300   22.1330   38.6830 F   0  0  0  0  0  0  0  0  0  0  0  0
   37.7620   30.5480   41.1470 C   0  0  0  0  0  0  0  0  0  0  0  0
   36.6330   31.1700   40.5950 C   0  0  0  0  0  0  0  0  0  0  0  0
   37.0340   32.3700   40.0300 C   0  0  0  0  0  0  0  0  0  0  0  0
   38.3990   32.4030   40.2760 C   0  0  0  0  0  0  0  0  0  0  0  0
   38.8030   31.3320   40.9270 O   0  0  0  0  0  0  0  0  0  0  0  0
   35.6240   30.7750   40.6120 H   0  0  0  0  0  0  0  0  0  0  0  0
   36.4580   33.1040   39.5250 H   0  0  0  0  0  0  0  0  0  0  0  0
   39.3230   33.4740   39.8810 C   0  0  1  0  0  3  0  0  0  0  0  0
   38.9060   34.8490   40.4190 C   0  0  0  0  0  3  0  0  0  0  0  0
   38.7430   34.8100   41.5040 H   0  0  0  0  0  0  0  0  0  0  0  0
   40.2400   35.5680   40.1810 C   0  0  0  0  0  3  0  0  0  0  0  0
   40.3020   36.5250   40.7200 H   0  0  0  0  0  0  0  0  0  0  0  0
   41.2220   34.6540   40.5090 O   0  0  0  0  0  0  0  0  0  0  0  0
   40.6910   33.3810   40.4870 C   0  0  0  0  0  3  0  0  0  0  0  0
   40.5750   33.0620   41.5450 H   0  0  0  0  0  0  0  0  0  0  0  0
  1  2  1  0  0  0  0
  2  3  2  0  0  0  0
  2  7  1  0  0  0  0
  3  4  1  0  0  0  0
  4  8  1  0  0  0  0
  4  5  2  0  0  0  0
  5  9  1  0  0  0  0
  6 10  1  0  0  0  0
  6  5  1  0  0  0  0
  7  6  2  0  0  0  0
 11 16  1  0  0  0  0
 12 13  1  0  0  0  0
 12 11  2  0  0  0  0
 13 14  2  0  0  0  0
 14 15  1  0  0  0  0
 15  3  1  0  0  0  0
 16 15  2  0  0  0  0
 17 11  1  0  0  0  0
 18 12  1  0  0  0  0
 19 13  1  0  0  0  0
 19 20  1  0  0  0  0
 21 19  1  0  0  0  0
 22 19  1  0  0  0  0
 23  7  1  0  0  0  0
 24 28  1  0  0  0  0
 24 23  2  0  0  0  0
 25 26  2  0  0  0  0
 25 24  1  0  0  0  0
 26 27  1  0  0  0  0
 27 23  1  0  0  0  0
 29 25  1  0  0  0  0
 30 26  1  1  0  0  0
 30 31  1  0  0  0  0
 30 36  1  0  0  0  0
 31 32  1  0  0  0  0
 33 31  1  0  0  0  0
 33 35  1  0  0  0  0
 33 34  1  0  0  0  0
 36 35  1  0  0  0  0
 36 37  1  0  0  0  0
M  END
>  <minimizedAffinity>
-6.43273163

$$$$

 OpenBabel03252500163D

 37 40  0  0  1  0  0  0  0  0999 V2000
   40.5780   30.4450   40.3260 Cl  0  0  0  0  0  0  0  0  0  0  0  0
   39.3020   31.6010   40.0940 C   0  0  0  0  0  0  0  0  0  0  0  0
   37.9890   31.2130   40.0670 C   0  0  0  0  0  0  0  0  0  0  0  0
   36.9480   32.1160   39.8810 C   0  0  0  0  0  0  0  0  0  0  0  0
   37.3140   33.4310   39.7250 C   0  0  0  0  0  0  0  0  0  0  0  0
   38.6370   33.8380   39.7500 C   0  0  0  0  0  0  0  0  0  0  0  0
   39.6220   32.9370   39.9310 C   0  0  0  0  0  0  0  0  0  0  0  0
   35.9220   31.8150   39.8600 H   0  0  0  0  0  0  0  0  0  0  0  0
   36.5160   34.1390   39.5820 H   0  0  0  0  0  0  0  0  0  0  0  0
   38.9020   34.8760   39.6260 H   0  0  0  0  0  0  0  0  0  0  0  0
   37.1720   27.6930   39.3260 C   0  0  0  0  0  0  0  0  0  0  0  0
   37.0610   27.1210   40.6180 C   0  0  0  0  0  0  0  0  0  0  0  0
   37.2680   27.9570   41.7160 C   0  0  0  0  0  0  0  0  0  0  0  0
   37.5660   29.2710   41.4810 N   0  0  0  0  0  0  0  0  0  0  0  0
   37.6650   29.7860   40.2400 C   0  0  0  0  0  0  0  0  0  0  0  0
   37.4690   28.9960   39.1850 N   0  0  0  0  0  0  0  0  0  0  0  0
   37.0050   27.0150   38.4940 H   0  0  0  0  0  0  0  0  0  0  0  0
   36.8290   26.0970   40.8350 H   0  0  0  0  0  0  0  0  0  0  0  0
   37.1780   27.4730   43.1270 C   0  0  0  0  0  0  0  0  0  0  0  0
   37.8040   26.2750   43.2710 F   0  0  0  0  0  0  0  0  0  0  0  0
   37.7840   28.4050   43.9460 F   0  0  0  0  0  0  0  0  0  0  0  0
   35.8430   27.3870   43.4290 F   0  0  0  0  0  0  0  0  0  0  0  0
   41.0250   33.3410   39.9610 C   0  0  0  0  0  0  0  0  0  0  0  0
   41.8770   33.2810   38.8500 C   0  0  0  0  0  0  0  0  0  0  0  0
   43.1260   33.7380   39.2380 C   0  0  0  0  0  0  0  0  0  0  0  0
   42.9530   34.0510   40.5790 C   0  0  0  0  0  0  0  0  0  0  0  0
   41.7220   33.8110   40.9810 O   0  0  0  0  0  0  0  0  0  0  0  0
   41.6000   32.9370   37.8600 H   0  0  0  0  0  0  0  0  0  0  0  0
   44.0160   33.8360   38.6700 H   0  0  0  0  0  0  0  0  0  0  0  0
   43.9820   34.5830   41.4820 C   0  0  1  0  0  3  0  0  0  0  0  0
   43.4390   35.6600   42.4320 C   0  0  0  0  0  3  0  0  0  0  0  0
   42.5530   35.2970   42.9680 H   0  0  0  0  0  0  0  0  0  0  0  0
   44.6100   35.6550   43.4250 C   0  0  0  0  0  3  0  0  0  0  0  0
   44.3630   36.1680   44.3660 H   0  0  0  0  0  0  0  0  0  0  0  0
   44.9760   34.3300   43.5660 O   0  0  0  0  0  0  0  0  0  0  0  0
   44.4990   33.6060   42.4940 C   0  0  0  0  0  3  0  0  0  0  0  0
   43.6370   33.0100   42.8660 H   0  0  0  0  0  0  0  0  0  0  0  0
  2  1  1  0  0  0  0
  3  2  1  0  0  0  0
  3 15  1  0  0  0  0
  4  3  2  0  0  0  0
  5  6  2  0  0  0  0
  5  4  1  0  0  0  0
  6  7  1  0  0  0  0
  7 23  1  0  0  0  0
  7  2  2  0  0  0  0
  8  4  1  0  0  0  0
  9  5  1  0  0  0  0
 10  6  1  0  0  0  0
 11 12  1  0  0  0  0
 12 18  1  0  0  0  0
 12 13  2  0  0  0  0
 13 19  1  0  0  0  0
 14 13  1  0  0  0  0
 15 14  2  0  0  0  0
 16 11  2  0  0  0  0
 16 15  1  0  0  0  0
 17 11  1  0  0  0  0
 19 20  1  0  0  0  0
 19 22  1  0  0  0  0
 19 21  1  0  0  0  0
 23 27  1  0  0  0  0
 24 25  1  0  0  0  0
 24 23  2  0  0  0  0
 25 26  2  0  0  0  0
 26 27  1  0  0  0  0
 28 24  1  0  0  0  0
 29 25  1  0  0  0  0
 30 26  1  1  0  0  0
 30 31  1  0  0  0  0
 30 36  1  0  0  0  0
 31 32  1  0  0  0  0
 31 33  1  0  0  0  0
 33 35  1  0  0  0  0
 33 34  1  0  0  0  0
 36 37  1  0  0  0  0
 36 35  1  0  0  0  0
M  END
>  <minimizedAffinity>
-6.39387894

$$$$

 OpenBabel03252500163D

 37 40  0  0  1  0  0  0  0  0999 V2000
   34.3360   29.1980   39.6560 Cl  0  0  0  0  0  0  0  0  0  0  0  0
   35.4910   29.0400   38.3680 C   0  0  0  0  0  0  0  0  0  0  0  0
   36.8380   29.0750   38.6160 C   0  0  0  0  0  0  0  0  0  0  0  0
   37.7850   28.9510   37.6050 C   0  0  0  0  0  0  0  0  0  0  0  0
   37.2900   28.7910   36.3340 C   0  0  0  0  0  0  0  0  0  0  0  0
   35.9320   28.7530   36.0690 C   0  0  0  0  0  0  0  0  0  0  0  0
   35.0400   28.8760   37.0720 C   0  0  0  0  0  0  0  0  0  0  0  0
   38.8370   28.9780   37.7960 H   0  0  0  0  0  0  0  0  0  0  0  0
   38.0140   28.6930   35.5440 H   0  0  0  0  0  0  0  0  0  0  0  0
   35.5650   28.6260   35.0630 H   0  0  0  0  0  0  0  0  0  0  0  0
   38.3820   30.5300   41.6330 C   0  0  0  0  0  0  0  0  0  0  0  0
   38.1520   29.5310   42.6130 C   0  0  0  0  0  0  0  0  0  0  0  0
   37.4710   28.3800   42.2150 C   0  0  0  0  0  0  0  0  0  0  0  0
   37.0690   28.2830   40.9120 N   0  0  0  0  0  0  0  0  0  0  0  0
   37.3030   29.2500   40.0030 C   0  0  0  0  0  0  0  0  0  0  0  0
   37.9510   30.3540   40.3720 N   0  0  0  0  0  0  0  0  0  0  0  0
   38.9140   31.4120   41.9760 H   0  0  0  0  0  0  0  0  0  0  0  0
   38.4540   29.5760   43.6400 H   0  0  0  0  0  0  0  0  0  0  0  0
   37.1690   27.2570   43.1540 C   0  0  0  0  0  0  0  0  0  0  0  0
   37.4040   26.0550   42.5670 F   0  0  0  0  0  0  0  0  0  0  0  0
   37.9790   27.3880   44.2650 F   0  0  0  0  0  0  0  0  0  0  0  0
   35.8540   27.3940   43.5200 F   0  0  0  0  0  0  0  0  0  0  0  0
   33.6020   28.8410   36.8190 C   0  0  0  0  0  0  0  0  0  0  0  0
   32.9750   27.8750   36.0180 C   0  0  0  0  0  0  0  0  0  0  0  0
   31.6170   28.1450   36.0000 C   0  0  0  0  0  0  0  0  0  0  0  0
   31.5000   29.2730   36.8010 C   0  0  0  0  0  0  0  0  0  0  0  0
   32.6690   29.6620   37.2670 O   0  0  0  0  0  0  0  0  0  0  0  0
   33.4740   27.0610   35.5050 H   0  0  0  0  0  0  0  0  0  0  0  0
   30.8330   27.6320   35.5030 H   0  0  0  0  0  0  0  0  0  0  0  0
   30.2540   29.9820   37.1190 C   0  0  1  0  0  3  0  0  0  0  0  0
   29.9710   30.0390   38.6270 C   0  0  0  0  0  3  0  0  0  0  0  0
   30.8350   30.4370   39.1720 H   0  0  0  0  0  0  0  0  0  0  0  0
   28.9050   31.1420   38.5860 C   0  0  0  0  0  3  0  0  0  0  0  0
   28.7040   31.5670   39.5800 H   0  0  0  0  0  0  0  0  0  0  0  0
   29.3460   32.0540   37.6450 O   0  0  0  0  0  0  0  0  0  0  0  0
   30.2730   31.4510   36.8210 C   0  0  0  0  0  3  0  0  0  0  0  0
   31.2690   31.8470   37.1130 H   0  0  0  0  0  0  0  0  0  0  0  0
  2  3  1  0  0  0  0
  2  1  1  0  0  0  0
  3 15  1  0  0  0  0
  4  8  1  0  0  0  0
  4  3  2  0  0  0  0
  5  4  1  0  0  0  0
  6  5  2  0  0  0  0
  6  7  1  0  0  0  0
  7  2  2  0  0  0  0
  9  5  1  0  0  0  0
 10  6  1  0  0  0  0
 11 17  1  0  0  0  0
 11 12  1  0  0  0  0
 12 18  1  0  0  0  0
 13 12  2  0  0  0  0
 13 19  1  0  0  0  0
 14 13  1  0  0  0  0
 15 16  1  0  0  0  0
 15 14  2  0  0  0  0
 16 11  2  0  0  0  0
 19 22  1  0  0  0  0
 19 21  1  0  0  0  0
 20 19  1  0  0  0  0
 23  7  1  0  0  0  0
 23 27  1  0  0  0  0
 24 23  2  0  0  0  0
 25 24  1  0  0  0  0
 25 26  2  0  0  0  0
 26 27  1  0  0  0  0
 28 24  1  0  0  0  0
 29 25  1  0  0  0  0
 30 26  1  1  0  0  0
 30 31  1  0  0  0  0
 31 32  1  0  0  0  0
 33 31  1  0  0  0  0
 33 34  1  0  0  0  0
 35 33  1  0  0  0  0
 36 37  1  0  0  0  0
 36 30  1  0  0  0  0
 36 35  1  0  0  0  0
M  END
>  <minimizedAffinity>
-6.18881941

$$$$

 OpenBabel03252500163D

 37 40  0  0  1  0  0  0  0  0999 V2000
   35.5330   29.4530   38.5910 Cl  0  0  0  0  0  0  0  0  0  0  0  0
   35.4410   27.7420   38.3030 C   0  0  0  0  0  0  0  0  0  0  0  0
   36.2800   26.8700   38.9450 C   0  0  0  0  0  0  0  0  0  0  0  0
   36.2300   25.4950   38.7330 C   0  0  0  0  0  0  0  0  0  0  0  0
   35.2850   25.0600   37.8380 C   0  0  0  0  0  0  0  0  0  0  0  0
   34.4310   25.9290   37.1830 C   0  0  0  0  0  0  0  0  0  0  0  0
   34.5060   27.2550   37.4100 C   0  0  0  0  0  0  0  0  0  0  0  0
   36.8840   24.8130   39.2330 H   0  0  0  0  0  0  0  0  0  0  0  0
   35.2370   23.9980   37.6680 H   0  0  0  0  0  0  0  0  0  0  0  0
   33.6950   25.5650   36.4830 H   0  0  0  0  0  0  0  0  0  0  0  0
   39.3510   28.3840   40.3160 C   0  0  0  0  0  0  0  0  0  0  0  0
   39.0980   28.3920   41.7110 C   0  0  0  0  0  0  0  0  0  0  0  0
   37.8780   27.8770   42.1500 C   0  0  0  0  0  0  0  0  0  0  0  0
   37.0040   27.3980   41.2140 N   0  0  0  0  0  0  0  0  0  0  0  0
   37.2730   27.4030   39.8940 C   0  0  0  0  0  0  0  0  0  0  0  0
   38.4350   27.8930   39.4640 N   0  0  0  0  0  0  0  0  0  0  0  0
   40.3100   28.7920   40.0090 H   0  0  0  0  0  0  0  0  0  0  0  0
   39.7610   28.7600   42.4690 H   0  0  0  0  0  0  0  0  0  0  0  0
   37.4940   27.8300   43.5940 C   0  0  0  0  0  0  0  0  0  0  0  0
   37.4120   29.0820   44.1160 F   0  0  0  0  0  0  0  0  0  0  0  0
   36.2640   27.2110   43.6980 F   0  0  0  0  0  0  0  0  0  0  0  0
   38.4480   27.0770   44.2300 F   0  0  0  0  0  0  0  0  0  0  0  0
   33.6160   28.1940   36.7310 C   0  0  0  0  0  0  0  0  0  0  0  0
   33.8210   28.6550   35.4220 C   0  0  0  0  0  0  0  0  0  0  0  0
   32.7910   29.5250   35.1050 C   0  0  0  0  0  0  0  0  0  0  0  0
   32.0140   29.5390   36.2550 C   0  0  0  0  0  0  0  0  0  0  0  0
   32.5130   28.7580   37.1900 O   0  0  0  0  0  0  0  0  0  0  0  0
   34.6450   28.3740   34.7770 H   0  0  0  0  0  0  0  0  0  0  0  0
   32.6140   30.0640   34.2090 H   0  0  0  0  0  0  0  0  0  0  0  0
   30.7810   30.3130   36.4560 C   0  0  1  0  0  3  0  0  0  0  0  0
   30.4680   30.5570   37.9390 C   0  0  0  0  0  3  0  0  0  0  0  0
   31.3320   30.9970   38.4530 H   0  0  0  0  0  0  0  0  0  0  0  0
   29.4340   31.6740   37.7400 C   0  0  0  0  0  3  0  0  0  0  0  0
   29.2240   32.2200   38.6720 H   0  0  0  0  0  0  0  0  0  0  0  0
   29.9190   32.4540   36.7080 O   0  0  0  0  0  0  0  0  0  0  0  0
   30.8460   31.7340   35.9840 C   0  0  0  0  0  3  0  0  0  0  0  0
   31.8470   32.1370   36.2510 H   0  0  0  0  0  0  0  0  0  0  0  0
  2  1  1  0  0  0  0
  2  3  1  0  0  0  0
  3 15  1  0  0  0  0
  4  3  2  0  0  0  0
  4  8  1  0  0  0  0
  5  4  1  0  0  0  0
  6  7  1  0  0  0  0
  6  5  2  0  0  0  0
  7  2  2  0  0  0  0
  9  5  1  0  0  0  0
 10  6  1  0  0  0  0
 11 12  1  0  0  0  0
 12 13  2  0  0  0  0
 12 18  1  0  0  0  0
 13 19  1  0  0  0  0
 14 13  1  0  0  0  0
 15 14  2  0  0  0  0
 16 15  1  0  0  0  0
 16 11  2  0  0  0  0
 17 11  1  0  0  0  0
 19 21  1  0  0  0  0
 19 20  1  0  0  0  0
 19 22  1  0  0  0  0
 23 27  1  0  0  0  0
 23  7  1  0  0  0  0
 24 23  2  0  0  0  0
 25 24  1  0  0  0  0
 25 26  2  0  0  0  0
 26 27  1  0  0  0  0
 28 24  1  0  0  0  0
 29 25  1  0  0  0  0
 30 26  1  1  0  0  0
 30 31  1  0  0  0  0
 31 32  1  0  0  0  0
 33 31  1  0  0  0  0
 33 34  1  0  0  0  0
 35 33  1  0  0  0  0
 36 37  1  0  0  0  0
 36 30  1  0  0  0  0
 36 35  1  0  0  0  0
M  END
>  <minimizedAffinity>
-6.16800356

$$$$

 OpenBabel03252500163D

 37 40  0  0  1  0  0  0  0  0999 V2000
   38.9930   27.4490   40.4170 Cl  0  0  0  0  0  0  0  0  0  0  0  0
   38.1330   27.6280   41.9160 C   0  0  0  0  0  0  0  0  0  0  0  0
   38.2550   28.7640   42.6720 C   0  0  0  0  0  0  0  0  0  0  0  0
   37.5800   28.9340   43.8760 C   0  0  0  0  0  0  0  0  0  0  0  0
   36.7780   27.8900   44.2680 C   0  0  0  0  0  0  0  0  0  0  0  0
   36.6450   26.7370   43.5140 C   0  0  0  0  0  0  0  0  0  0  0  0
   37.3140   26.6040   42.3520 C   0  0  0  0  0  0  0  0  0  0  0  0
   37.6730   29.8200   44.4670 H   0  0  0  0  0  0  0  0  0  0  0  0
   36.2490   28.0120   45.1980 H   0  0  0  0  0  0  0  0  0  0  0  0
   36.0090   25.9290   43.8410 H   0  0  0  0  0  0  0  0  0  0  0  0
   41.2680   30.7520   41.9180 C   0  0  0  0  0  0  0  0  0  0  0  0
   40.7330   31.9000   41.2820 C   0  0  0  0  0  0  0  0  0  0  0  0
   39.3480   31.9660   41.1260 C   0  0  0  0  0  0  0  0  0  0  0  0
   38.5940   30.9260   41.5930 N   0  0  0  0  0  0  0  0  0  0  0  0
   39.1330   29.8470   42.1940 C   0  0  0  0  0  0  0  0  0  0  0  0
   40.4540   29.7740   42.3480 N   0  0  0  0  0  0  0  0  0  0  0  0
   42.3490   30.7330   42.0240 H   0  0  0  0  0  0  0  0  0  0  0  0
   41.2950   32.7320   40.9050 H   0  0  0  0  0  0  0  0  0  0  0  0
   38.6640   33.1230   40.4710 C   0  0  0  0  0  0  0  0  0  0  0  0
   38.8510   34.2650   41.1840 F   0  0  0  0  0  0  0  0  0  0  0  0
   39.1930   33.2830   39.2060 F   0  0  0  0  0  0  0  0  0  0  0  0
   37.3350   32.7950   40.3800 F   0  0  0  0  0  0  0  0  0  0  0  0
   37.1910   25.3960   41.5390 C   0  0  0  0  0  0  0  0  0  0  0  0
   37.9270   24.2250   41.7680 C   0  0  0  0  0  0  0  0  0  0  0  0
   37.5590   23.2910   40.8130 C   0  0  0  0  0  0  0  0  0  0  0  0
   36.6100   23.9620   40.0530 C   0  0  0  0  0  0  0  0  0  0  0  0
   36.4120   25.1870   40.4930 O   0  0  0  0  0  0  0  0  0  0  0  0
   38.6550   24.0810   42.5570 H   0  0  0  0  0  0  0  0  0  0  0  0
   37.9020   22.2970   40.6730 H   0  0  0  0  0  0  0  0  0  0  0  0
   35.8900   23.4190   38.8940 C   0  0  1  0  0  3  0  0  0  0  0  0
   34.5290   22.8150   39.2680 C   0  0  0  0  0  3  0  0  0  0  0  0
   33.9290   23.5320   39.8410 H   0  0  0  0  0  0  0  0  0  0  0  0
   33.9440   22.7550   37.8510 C   0  0  0  0  0  3  0  0  0  0  0  0
   32.8560   22.5900   37.8540 H   0  0  0  0  0  0  0  0  0  0  0  0
   34.3520   23.9190   37.2270 O   0  0  0  0  0  0  0  0  0  0  0  0
   35.4350   24.4440   37.9000 C   0  0  0  0  0  3  0  0  0  0  0  0
   35.0660   25.3280   38.4640 H   0  0  0  0  0  0  0  0  0  0  0  0
  1  2  1  0  0  0  0
  2  7  2  0  0  0  0
  2  3  1  0  0  0  0
  3  4  2  0  0  0  0
  4  5  1  0  0  0  0
  4  8  1  0  0  0  0
  5  9  1  0  0  0  0
  6 10  1  0  0  0  0
  6  5  2  0  0  0  0
  7  6  1  0  0  0  0
 11 17  1  0  0  0  0
 11 16  1  0  0  0  0
 12 11  2  0  0  0  0
 13 12  1  0  0  0  0
 13 14  2  0  0  0  0
 14 15  1  0  0  0  0
 15 16  2  0  0  0  0
 15  3  1  0  0  0  0
 18 12  1  0  0  0  0
 19 13  1  0  0  0  0
 19 20  1  0  0  0  0
 21 19  1  0  0  0  0
 22 19  1  0  0  0  0
 23 24  2  0  0  0  0
 23  7  1  0  0  0  0
 24 28  1  0  0  0  0
 25 24  1  0  0  0  0
 26 27  1  0  0  0  0
 26 25  2  0  0  0  0
 27 23  1  0  0  0  0
 29 25  1  0  0  0  0
 30 31  1  0  0  0  0
 30 26  1  1  0  0  0
 31 32  1  0  0  0  0
 33 34  1  0  0  0  0
 33 31  1  0  0  0  0
 35 33  1  0  0  0  0
 35 36  1  0  0  0  0
 36 37  1  0  0  0  0
 36 30  1  0  0  0  0
M  END
>  <minimizedAffinity>
-6.13159275

$$$$

 OpenBabel03252500163D

 37 40  0  0  1  0  0  0  0  0999 V2000
   41.0330   31.6090   39.7240 Cl  0  0  0  0  0  0  0  0  0  0  0  0
   40.3350   33.1890   39.9110 C   0  0  0  0  0  0  0  0  0  0  0  0
   41.1240   34.3050   40.0020 C   0  0  0  0  0  0  0  0  0  0  0  0
   40.5930   35.5820   40.1530 C   0  0  0  0  0  0  0  0  0  0  0  0
   39.2230   35.6610   40.2070 C   0  0  0  0  0  0  0  0  0  0  0  0
   38.4140   34.5410   40.1150 C   0  0  0  0  0  0  0  0  0  0  0  0
   38.9600   33.3190   39.9700 C   0  0  0  0  0  0  0  0  0  0  0  0
   41.2070   36.4550   40.2250 H   0  0  0  0  0  0  0  0  0  0  0  0
   38.8010   36.6450   40.3220 H   0  0  0  0  0  0  0  0  0  0  0  0
   37.3400   34.6260   40.1580 H   0  0  0  0  0  0  0  0  0  0  0  0
   44.6990   34.4300   40.8990 C   0  0  0  0  0  0  0  0  0  0  0  0
   45.3230   33.8390   39.7720 C   0  0  0  0  0  0  0  0  0  0  0  0
   44.5020   33.4100   38.7280 C   0  0  0  0  0  0  0  0  0  0  0  0
   43.1520   33.5850   38.8540 N   0  0  0  0  0  0  0  0  0  0  0  0
   42.5880   34.1510   39.9390 C   0  0  0  0  0  0  0  0  0  0  0  0
   43.3620   34.5640   40.9410 N   0  0  0  0  0  0  0  0  0  0  0  0
   45.3670   34.7520   41.6930 H   0  0  0  0  0  0  0  0  0  0  0  0
   46.3770   33.6880   39.6430 H   0  0  0  0  0  0  0  0  0  0  0  0
   45.0400   32.7720   37.4880 C   0  0  0  0  0  0  0  0  0  0  0  0
   45.8950   31.7610   37.7930 F   0  0  0  0  0  0  0  0  0  0  0  0
   43.9780   32.2690   36.7620 F   0  0  0  0  0  0  0  0  0  0  0  0
   45.6620   33.7640   36.7740 F   0  0  0  0  0  0  0  0  0  0  0  0
   38.1290   32.1220   39.8720 C   0  0  0  0  0  0  0  0  0  0  0  0
   37.3660   31.7930   38.7420 C   0  0  0  0  0  0  0  0  0  0  0  0
   36.7090   30.6000   38.9980 C   0  0  0  0  0  0  0  0  0  0  0  0
   37.1190   30.2740   40.2830 C   0  0  0  0  0  0  0  0  0  0  0  0
   37.9440   31.1740   40.7740 O   0  0  0  0  0  0  0  0  0  0  0  0
   37.3060   32.3750   37.8300 H   0  0  0  0  0  0  0  0  0  0  0  0
   36.0480   30.0480   38.3790 H   0  0  0  0  0  0  0  0  0  0  0  0
   36.7100   29.0870   41.0450 C   0  0  1  0  0  3  0  0  0  0  0  0
   37.5100   27.8320   40.6660 C   0  0  0  0  0  3  0  0  0  0  0  0
   38.5880   28.0240   40.7280 H   0  0  0  0  0  0  0  0  0  0  0  0
   37.1250   26.9790   41.8810 C   0  0  0  0  0  3  0  0  0  0  0  0
   37.7730   26.0970   41.9960 H   0  0  0  0  0  0  0  0  0  0  0  0
   37.1250   27.8410   42.9610 O   0  0  0  0  0  0  0  0  0  0  0  0
   37.0230   29.1410   42.5090 C   0  0  0  0  0  3  0  0  0  0  0  0
   38.0280   29.6020   42.6280 H   0  0  0  0  0  0  0  0  0  0  0  0
  1  2  1  0  0  0  0
  2  7  2  0  0  0  0
  2  3  1  0  0  0  0
  3  4  2  0  0  0  0
  4  5  1  0  0  0  0
  4  8  1  0  0  0  0
  5  9  1  0  0  0  0
  6 10  1  0  0  0  0
  6  5  2  0  0  0  0
  7  6  1  0  0  0  0
 11 16  1  0  0  0  0
 11 17  1  0  0  0  0
 12 11  2  0  0  0  0
 13 14  2  0  0  0  0
 13 12  1  0  0  0  0
 14 15  1  0  0  0  0
 15  3  1  0  0  0  0
 15 16  2  0  0  0  0
 18 12  1  0  0  0  0
 19 20  1  0  0  0  0
 19 13  1  0  0  0  0
 21 19  1  0  0  0  0
 22 19  1  0  0  0  0
 23  7  1  0  0  0  0
 23 27  1  0  0  0  0
 24 25  1  0  0  0  0
 24 23  2  0  0  0  0
 25 26  2  0  0  0  0
 26 27  1  0  0  0  0
 28 24  1  0  0  0  0
 29 25  1  0  0  0  0
 30 26  1  6  0  0  0
 30 36  1  0  0  0  0
 31 32  1  0  0  0  0
 31 30  1  0  0  0  0
 31 33  1  0  0  0  0
 33 34  1  0  0  0  0
 33 35  1  0  0  0  0
 36 37  1  0  0  0  0
 36 35  1  0  0  0  0
M  END
>  <minimizedAffinity>
-6.1265049

$$$$
