
 OpenBabel03252505313D

 26 27  0  0  1  0  0  0  0  0999 V2000
   46.8310   31.6630   48.5420 O   0  0  0  0  0  0  0  0  0  0  0  0
   45.8620   32.0160   47.4070 P   0  0  1  0  0  0  0  0  0  0  0  0
   44.5080   32.8160   47.9890 O   0  0  0  0  0  0  0  0  0  0  0  0
   44.6940   33.3620   48.8010 H   0  0  0  0  0  0  0  0  0  0  0  0
   46.7080   32.9810   46.3080 O   0  0  0  0  0  0  0  0  0  0  0  0
   44.5470   35.4360   44.9540 C   0  0  0  0  0  0  0  0  0  0  0  0
   44.9800   35.6070   43.6250 C   0  0  0  0  0  0  0  0  0  0  0  0
   46.0850   34.8100   43.2150 C   0  0  0  0  0  0  0  0  0  0  0  0
   46.6320   33.9510   44.1310 N   0  0  0  0  0  0  0  0  0  0  0  0
   46.1680   33.8390   45.3800 C   0  0  0  0  0  0  0  0  0  0  0  0
   45.1340   34.5730   45.7940 N   0  0  0  0  0  0  0  0  0  0  0  0
   43.6980   36.0320   45.3070 H   0  0  0  0  0  0  0  0  0  0  0  0
   44.5290   36.2870   42.9400 H   0  0  0  0  0  0  0  0  0  0  0  0
   46.4850   34.8760   42.2160 H   0  0  0  0  0  0  0  0  0  0  0  0
   45.3660   30.5560   46.7430 O   0  0  0  0  0  0  0  0  0  0  0  0
   45.1080   29.6650   47.7430 C   0  0  0  0  0  0  0  0  0  0  0  0
   45.6710   29.8030   48.6650 H   0  0  0  0  0  0  0  0  0  0  0  0
   44.0280   29.7890   48.0200 H   0  0  0  0  0  0  0  0  0  0  0  0
   45.2500   28.2220   47.3290 C   0  0  2  0  0  3  0  0  0  0  0  0
   44.6830   27.2520   48.3480 C   0  0  0  0  0  3  0  0  0  0  0  0
   43.6170   27.1080   48.1360 H   0  0  0  0  0  0  0  0  0  0  0  0
   45.5210   26.0170   47.9910 C   0  0  0  0  0  3  0  0  0  0  0  0
   45.5060   25.2560   48.7920 H   0  0  0  0  0  0  0  0  0  0  0  0
   46.7770   26.5390   47.8230 O   0  0  0  0  0  0  0  0  0  0  0  0
   46.7000   27.8200   47.3340 C   0  0  0  0  0  3  0  0  0  0  0  0
   47.3220   28.5280   47.9530 H   0  0  0  0  0  0  0  0  0  0  0  0
  2  3  1  0  0  0  0
  2  1  2  1  0  0  0
  3  4  1  0  0  0  0
  5  2  1  0  0  0  0
  6 12  1  0  0  0  0
  6 11  1  0  0  0  0
  7  6  2  0  0  0  0
  8  7  1  0  0  0  0
  8  9  2  0  0  0  0
  9 10  1  0  0  0  0
 10 11  2  0  0  0  0
 10  5  1  0  0  0  0
 13  7  1  0  0  0  0
 14  8  1  0  0  0  0
 15  2  1  0  0  0  0
 15 16  1  0  0  0  0
 16 18  1  0  0  0  0
 16 17  1  0  0  0  0
 19 25  1  0  0  0  0
 19 16  1  1  0  0  0
 19 20  1  0  0  0  0
 21 20  1  0  0  0  0
 22 20  1  0  0  0  0
 22 23  1  0  0  0  0
 24 22  1  0  0  0  0
 25 24  1  0  0  0  0
 25 26  1  0  0  0  0
M  END
>  <minimizedAffinity>
-4.43101501

>  <minimizedRMSD>
0.792134762

$$$$
