
 OpenBabel03252509043D

 47 49  0  0  1  0  0  0  0  0999 V2000
   46.6080   34.5230   43.6130 N   0  0  0  0  0  0  0  0  0  0  0  0
   46.1090   35.4640   42.6870 C   0  0  0  0  0  0  0  0  0  0  0  0
   44.5960   35.5970   42.6680 C   0  0  0  0  0  0  0  0  0  0  0  0
   43.9360   35.4010   44.0090 C   0  0  0  0  0  0  0  0  0  0  0  0
   44.9620   35.1970   45.1080 C   0  0  0  0  0  0  0  0  0  0  0  0
   45.8100   33.9690   44.5910 C   0  0  2  0  0  0  0  0  0  0  0  0
   46.4920   36.4710   42.9910 H   0  0  0  0  0  0  0  0  0  0  0  0
   46.4180   35.3420   41.6410 H   0  0  0  0  0  0  0  0  0  0  0  0
   44.3630   36.5710   42.2140 H   0  0  0  0  0  0  0  0  0  0  0  0
   44.2130   34.8120   41.9760 H   0  0  0  0  0  0  0  0  0  0  0  0
   43.2800   36.2680   44.2180 H   0  0  0  0  0  0  0  0  0  0  0  0
   43.2700   34.5110   44.0320 H   0  0  0  0  0  0  0  0  0  0  0  0
   44.4500   34.8520   46.0140 H   0  0  0  0  0  0  0  0  0  0  0  0
   45.6300   36.0550   45.2260 H   0  0  0  0  0  0  0  0  0  0  0  0
   45.0530   33.2210   44.2800 H   0  0  0  0  0  0  0  0  0  0  0  0
   47.7180   33.7520   43.1190 C   0  0  0  0  0  0  0  0  0  0  0  0
   48.2720   33.3260   43.9920 H   0  0  0  0  0  0  0  0  0  0  0  0
   48.4010   34.4350   42.5620 H   0  0  0  0  0  0  0  0  0  0  0  0
   47.2020   32.6370   42.2660 C   0  0  0  0  0  0  0  0  0  0  0  0
   47.4660   31.6650   42.6770 H   0  0  0  0  0  0  0  0  0  0  0  0
   46.0980   32.6780   42.1890 H   0  0  0  0  0  0  0  0  0  0  0  0
   49.3230   32.1080   39.2020 C   0  0  0  0  0  0  0  0  0  0  0  0
   48.7880   31.9900   40.5050 C   0  0  0  0  0  0  0  0  0  0  0  0
   47.7460   32.7810   40.8890 C   0  0  0  0  0  0  0  0  0  0  0  0
   47.2680   33.6550   39.9920 N   0  0  0  0  0  0  0  0  0  0  0  0
   47.7630   33.7780   38.7600 C   0  0  0  0  0  0  0  0  0  0  0  0
   48.7870   33.0140   38.3500 N   0  0  0  0  0  0  0  0  0  0  0  0
   50.1450   31.4910   38.8840 H   0  0  0  0  0  0  0  0  0  0  0  0
   49.2070   31.2650   41.2040 H   0  0  0  0  0  0  0  0  0  0  0  0
   47.3040   34.5130   38.1140 H   0  0  0  0  0  0  0  0  0  0  0  0
   46.5110   33.6300   45.7260 O   0  0  0  0  0  0  0  0  0  0  0  0
   45.6840   31.1740   45.1010 O   0  0  0  0  0  0  0  0  0  0  0  0
   46.2260   32.0640   46.2390 P   0  0  2  0  0  0  0  0  0  0  0  0
   44.9140   32.1570   47.3450 O   0  0  0  0  0  0  0  0  0  0  0  0
   45.2410   32.5100   48.2140 H   0  0  0  0  0  0  0  0  0  0  0  0
   47.4910   31.3480   47.0290 O   0  0  0  0  0  0  0  0  0  0  0  0
   47.4090   29.9730   46.9360 C   0  0  0  0  0  0  0  0  0  0  0  0
   47.1470   29.4800   47.9020 H   0  0  0  0  0  0  0  0  0  0  0  0
   46.6120   29.7080   46.2140 H   0  0  0  0  0  0  0  0  0  0  0  0
   48.6970   29.3340   46.4820 C   0  0  1  0  0  3  0  0  0  0  0  0
   49.7650   29.4080   47.5520 C   0  0  0  0  0  3  0  0  0  0  0  0
   50.7830   29.3740   47.1180 H   0  0  0  0  0  0  0  0  0  0  0  0
   49.5320   28.1110   48.3220 C   0  0  0  0  0  3  0  0  0  0  0  0
   49.4810   28.3020   49.4240 H   0  0  0  0  0  0  0  0  0  0  0  0
   48.3340   27.5900   47.8380 O   0  0  0  0  0  0  0  0  0  0  0  0
   48.4570   27.8180   46.4660 C   0  0  0  0  0  3  0  0  0  0  0  0
   49.4030   27.2890   46.1640 H   0  0  0  0  0  0  0  0  0  0  0  0
  1  6  1  0  0  0  0
  2  7  1  0  0  0  0
  2  1  1  0  0  0  0
  3  2  1  0  0  0  0
  3  4  1  0  0  0  0
  4 12  1  0  0  0  0
  4 11  1  0  0  0  0
  4  5  1  0  0  0  0
  5 14  1  0  0  0  0
  5 13  1  0  0  0  0
  6 15  1  6  0  0  0
  6  5  1  0  0  0  0
  6 31  1  0  0  0  0
  8  2  1  0  0  0  0
  9  3  1  0  0  0  0
 10  3  1  0  0  0  0
 16  1  1  0  0  0  0
 16 17  1  0  0  0  0
 18 16  1  0  0  0  0
 19 20  1  0  0  0  0
 19 16  1  0  0  0  0
 21 19  1  0  0  0  0
 22 23  1  0  0  0  0
 23 24  2  0  0  0  0
 23 29  1  0  0  0  0
 24 19  1  0  0  0  0
 25 24  1  0  0  0  0
 26 25  2  0  0  0  0
 27 26  1  0  0  0  0
 27 22  2  0  0  0  0
 28 22  1  0  0  0  0
 30 26  1  0  0  0  0
 31 33  1  0  0  0  0
 33 32  2  6  0  0  0
 33 36  1  0  0  0  0
 33 34  1  0  0  0  0
 34 35  1  0  0  0  0
 37 36  1  0  0  0  0
 37 38  1  0  0  0  0
 39 37  1  0  0  0  0
 40 37  1  1  0  0  0
 40 41  1  0  0  0  0
 41 43  1  0  0  0  0
 42 41  1  0  0  0  0
 43 44  1  0  0  0  0
 45 43  1  0  0  0  0
 46 40  1  0  0  0  0
 46 45  1  0  0  0  0
 47 46  1  0  0  0  0
M  END
>  <minimizedAffinity>
-4.16495514

>  <minimizedRMSD>
1.21833766

$$$$
