
 OpenBabel03252503383D

 40 43  0  0  1  0  0  0  0  0999 V2000
   45.6450   33.9720   40.9250 C   0  0  1  0  0  0  0  0  0  0  0  0
   45.2120   33.2090   39.5930 C   0  0  0  0  0  0  0  0  0  0  0  0
   43.8790   33.6970   39.1330 C   0  0  0  0  0  0  0  0  0  0  0  0
   42.7740   33.2500   40.0580 C   0  0  0  0  0  0  0  0  0  0  0  0
   43.3240   33.1970   41.4680 C   0  0  0  0  0  0  0  0  0  0  0  0
   44.4250   34.2360   41.6570 C   0  0  1  0  0  0  0  0  0  0  0  0
   46.1900   34.8180   40.4590 H   0  0  0  0  0  0  0  0  0  0  0  0
   45.9640   33.3820   38.8160 H   0  0  0  0  0  0  0  0  0  0  0  0
   45.1380   32.1530   39.8800 H   0  0  0  0  0  0  0  0  0  0  0  0
   43.8820   34.8150   39.0200 H   0  0  0  0  0  0  0  0  0  0  0  0
   43.7000   33.2940   38.1410 H   0  0  0  0  0  0  0  0  0  0  0  0
   42.0000   34.0490   40.0520 H   0  0  0  0  0  0  0  0  0  0  0  0
   42.3120   32.3040   39.7520 H   0  0  0  0  0  0  0  0  0  0  0  0
   42.4920   33.3790   42.1610 H   0  0  0  0  0  0  0  0  0  0  0  0
   43.7070   32.1770   41.6840 H   0  0  0  0  0  0  0  0  0  0  0  0
   43.9790   35.0890   41.0370 H   0  0  0  0  0  0  0  0  0  0  0  0
   46.6680   33.0880   41.5530 C   0  0  0  0  0  0  0  0  0  0  0  0
   48.0350   33.2750   41.7050 C   0  0  0  0  0  0  0  0  0  0  0  0
   48.7370   32.2750   42.3280 C   0  0  0  0  0  0  0  0  0  0  0  0
   48.0630   31.1520   42.7690 N   0  0  0  0  0  0  0  0  0  0  0  0
   46.7360   31.0110   42.6010 C   0  0  0  0  0  0  0  0  0  0  0  0
   46.0120   32.0050   41.9760 N   0  0  0  0  0  0  0  0  0  0  0  0
   49.8030   32.4060   42.4510 H   0  0  0  0  0  0  0  0  0  0  0  0
   46.3560   30.0710   43.0040 H   0  0  0  0  0  0  0  0  0  0  0  0
   48.7410   34.5220   41.2910 C   0  0  0  0  0  0  0  0  0  0  0  0
   48.5420   35.7690   41.8940 C   0  0  0  0  0  0  0  0  0  0  0  0
   49.7450   35.1160   42.4090 C   0  0  0  0  0  0  0  0  0  0  0  0
   49.4850   34.2490   40.4640 H   0  0  0  0  0  0  0  0  0  0  0  0
   48.6850   36.7030   41.2700 H   0  0  0  0  0  0  0  0  0  0  0  0
   47.6640   35.9370   42.5840 H   0  0  0  0  0  0  0  0  0  0  0  0
   49.6560   34.5730   43.3730 H   0  0  0  0  0  0  0  0  0  0  0  0
   50.7160   35.4460   42.0460 H   0  0  0  0  0  0  0  0  0  0  0  0
   44.4400   34.8810   42.9630 C   0  0  1  0  0  0  0  0  0  0  0  0
   45.0180   34.2950   44.1670 C   0  0  0  0  0  0  0  0  0  0  0  0
   44.4760   33.4760   44.6630 H   0  0  0  0  0  0  0  0  0  0  0  0
   44.7430   35.4910   45.1080 C   0  0  0  0  0  0  0  0  0  0  0  0
   45.4430   35.5220   45.9500 H   0  0  0  0  0  0  0  0  0  0  0  0
   44.8740   36.6210   44.3220 O   0  0  0  0  0  0  0  0  0  0  0  0
   45.0940   36.2490   43.0110 C   0  0  0  0  0  0  0  0  0  0  0  0
   46.1900   36.1060   42.8860 H   0  0  0  0  0  0  0  0  0  0  0  0
  1  7  1  6  0  0  0
  1 17  1  0  0  0  0
  1  6  1  0  0  0  0
  2  9  1  0  0  0  0
  2  1  1  0  0  0  0
  3  2  1  0  0  0  0
  3  4  1  0  0  0  0
  4  5  1  0  0  0  0
  5  6  1  0  0  0  0
  5 15  1  0  0  0  0
  5 14  1  0  0  0  0
  6 16  1  6  0  0  0
  6 33  1  0  0  0  0
  8  2  1  0  0  0  0
 10  3  1  0  0  0  0
 11  3  1  0  0  0  0
 12  4  1  0  0  0  0
 13  4  1  0  0  0  0
 17 18  2  0  0  0  0
 17 22  1  0  0  0  0
 18 19  1  0  0  0  0
 19 23  1  0  0  0  0
 19 20  2  0  0  0  0
 21 20  1  0  0  0  0
 21 24  1  0  0  0  0
 22 21  2  0  0  0  0
 25 18  1  0  0  0  0
 25 26  1  0  0  0  0
 25 27  1  0  0  0  0
 26 27  1  0  0  0  0
 26 30  1  0  0  0  0
 27 31  1  0  0  0  0
 28 25  1  0  0  0  0
 29 26  1  0  0  0  0
 32 27  1  0  0  0  0
 33 39  1  6  0  0  0
 33 34  1  0  0  0  0
 34 35  1  0  0  0  0
 34 36  1  0  0  0  0
 36 37  1  0  0  0  0
 38 36  1  0  0  0  0
 39 38  1  0  0  0  0
 40 39  1  0  0  0  0
M  END
>  <minimizedAffinity>
-4.9463582

>  <minimizedRMSD>
2.3982203

$$$$
