
 OpenBabel03252502173D

 23 24  0  0  1  0  0  0  0  0999 V2000
   44.9130   34.2330   42.4610 C   0  0  0  0  0  0  0  0  0  0  0  0
   43.9940   34.2940   41.3900 C   0  0  0  0  0  0  0  0  0  0  0  0
   43.0630   35.3580   41.3700 C   0  0  0  0  0  0  0  0  0  0  0  0
   43.0930   36.2660   42.3720 N   0  0  0  0  0  0  0  0  0  0  0  0
   43.9990   36.1610   43.3790 C   0  0  0  0  0  0  0  0  0  0  0  0
   44.9010   35.1660   43.4380 N   0  0  0  0  0  0  0  0  0  0  0  0
   45.6230   33.4300   42.4850 H   0  0  0  0  0  0  0  0  0  0  0  0
   43.9580   36.9160   44.1330 H   0  0  0  0  0  0  0  0  0  0  0  0
   42.1100   35.3940   40.2290 C   0  0  2  0  0  3  0  0  0  0  0  0
   40.6860   35.6270   40.6970 C   0  0  0  0  0  3  0  0  0  0  0  0
   40.4380   36.6890   40.8310 H   0  0  0  0  0  0  0  0  0  0  0  0
   39.9210   34.9730   39.5650 C   0  0  0  0  0  3  0  0  0  0  0  0
   39.9360   35.6830   38.7220 H   0  0  0  0  0  0  0  0  0  0  0  0
   40.6330   33.8090   39.3620 O   0  0  0  0  0  0  0  0  0  0  0  0
   41.9640   34.0650   39.5540 C   0  0  0  0  0  3  0  0  0  0  0  0
   42.4450   34.1420   38.5420 H   0  0  0  0  0  0  0  0  0  0  0  0
   44.0750   33.3040   40.4380 O   0  0  0  0  0  0  0  0  0  0  0  0
   43.8380   30.7750   39.6960 O   0  0  0  0  0  0  0  0  0  0  0  0
   44.0990   31.6420   40.8750 P   0  0  0  0  0  0  0  0  0  0  0  0
   45.6170   31.2230   41.5020 O   0  0  0  0  0  0  0  0  0  0  0  0
   46.2580   31.2900   40.7340 H   0  0  0  0  0  0  0  0  0  0  0  0
   42.9290   31.3320   42.0500 O   0  0  0  0  0  0  0  0  0  0  0  0
   42.7630   32.0970   42.6430 H   0  0  0  0  0  0  0  0  0  0  0  0
  1  7  1  0  0  0  0
  1  6  1  0  0  0  0
  2  1  2  0  0  0  0
  3  2  1  0  0  0  0
  3  4  2  0  0  0  0
  4  5  1  0  0  0  0
  5  6  2  0  0  0  0
  5  8  1  0  0  0  0
  9 10  1  0  0  0  0
  9  3  1  1  0  0  0
 10 11  1  0  0  0  0
 12 10  1  0  0  0  0
 13 12  1  0  0  0  0
 14 15  1  0  0  0  0
 14 12  1  0  0  0  0
 15  9  1  0  0  0  0
 16 15  1  0  0  0  0
 17 19  1  0  0  0  0
 17  2  1  0  0  0  0
 18 19  2  0  0  0  0
 19 20  1  0  0  0  0
 19 22  1  0  0  0  0
 21 20  1  0  0  0  0
 22 23  1  0  0  0  0
M  END
>  <minimizedAffinity>
-2.23886466

>  <minimizedRMSD>
6.68726683

$$$$
