
 OpenBabel03242523513D

 42 45  0  0  1  0  0  0  0  0999 V2000
   42.8360   34.4580   38.7780 C   0  0  1  0  0  0  0  0  0  0  0  0
   42.9990   35.1810   40.1210 C   0  0  1  0  0  0  0  0  0  0  0  0
   41.7190   35.4860   40.6270 O   0  0  0  0  0  0  0  0  0  0  0  0
   40.8000   35.8030   39.6240 C   0  0  0  0  0  0  0  0  0  0  0  0
   40.4400   34.5580   38.8200 C   0  0  2  0  0  0  0  0  0  0  0  0
   41.6060   33.5800   38.9470 C   0  0  1  0  0  0  0  0  0  0  0  0
   43.7410   33.8460   38.5880 H   0  0  0  0  0  0  0  0  0  0  0  0
   43.6000   36.0890   40.0200 H   0  0  0  0  0  0  0  0  0  0  0  0
   39.8880   36.1120   40.1580 H   0  0  0  0  0  0  0  0  0  0  0  0
   41.1040   36.6500   39.0010 H   0  0  0  0  0  0  0  0  0  0  0  0
   39.4840   34.1150   39.0980 H   0  0  0  0  0  0  0  0  0  0  0  0
   41.6140   33.2010   39.9790 H   0  0  0  0  0  0  0  0  0  0  0  0
   42.6320   35.3880   37.7590 O   0  0  0  0  0  0  0  0  0  0  0  0
   42.7520   34.9200   36.9060 H   0  0  0  0  0  0  0  0  0  0  0  0
   40.4560   34.9370   37.4550 O   0  0  0  0  0  0  0  0  0  0  0  0
   39.5460   35.3010   37.2660 H   0  0  0  0  0  0  0  0  0  0  0  0
   43.4980   34.2210   41.0120 O   0  0  0  0  0  0  0  0  0  0  0  0
   44.6100   34.3380   41.7390 C   0  0  0  0  0  0  0  0  0  0  0  0
   45.8540   34.4660   41.1270 C   0  0  0  0  0  0  0  0  0  0  0  0
   46.9770   34.5860   41.9360 C   0  0  0  0  0  0  0  0  0  0  0  0
   46.8390   34.5750   43.3170 N   0  0  0  0  0  0  0  0  0  0  0  0
   45.6200   34.4490   43.8590 C   0  0  0  0  0  0  0  0  0  0  0  0
   44.5120   34.3310   43.0890 N   0  0  0  0  0  0  0  0  0  0  0  0
   45.9420   34.4720   40.0520 H   0  0  0  0  0  0  0  0  0  0  0  0
   45.4840   34.4380   44.9220 H   0  0  0  0  0  0  0  0  0  0  0  0
   48.3480   34.7180   41.3170 C   0  0  0  0  0  0  0  0  0  0  0  0
   49.0720   36.0270   41.5160 C   0  0  0  0  0  0  0  0  0  0  0  0
   49.5150   34.7020   42.1620 C   0  0  0  0  0  0  0  0  0  0  0  0
   48.3200   34.4370   40.2360 H   0  0  0  0  0  0  0  0  0  0  0  0
   48.5780   36.7060   42.2390 H   0  0  0  0  0  0  0  0  0  0  0  0
   49.7030   36.4510   40.7260 H   0  0  0  0  0  0  0  0  0  0  0  0
   50.4700   34.2940   41.7340 H   0  0  0  0  0  0  0  0  0  0  0  0
   49.3700   34.5720   43.2420 H   0  0  0  0  0  0  0  0  0  0  0  0
   41.5360   32.5890   37.9910 O   0  0  0  0  0  0  0  0  0  0  0  0
   41.2780   31.3460   38.4660 C   0  0  1  0  0  0  0  0  0  0  0  0
   41.4800   31.3530   39.9690 C   0  0  0  0  0  0  0  0  0  0  0  0
   41.9380   32.3190   40.3080 H   0  0  0  0  0  0  0  0  0  0  0  0
   40.0700   31.2020   40.4760 C   0  0  0  0  0  0  0  0  0  0  0  0
   39.4830   32.1450   40.4420 H   0  0  0  0  0  0  0  0  0  0  0  0
   39.5420   30.2710   39.5810 O   0  0  0  0  0  0  0  0  0  0  0  0
   39.8550   30.8750   38.3420 C   0  0  0  0  0  0  0  0  0  0  0  0
   39.8110   30.1230   37.5290 H   0  0  0  0  0  0  0  0  0  0  0  0
  1  7  1  6  0  0  0
  1  6  1  0  0  0  0
  1  2  1  0  0  0  0
  2  8  1  6  0  0  0
  2  3  1  0  0  0  0
  2 17  1  0  0  0  0
  4  9  1  0  0  0  0
  4  3  1  0  0  0  0
  5  6  1  0  0  0  0
  5 11  1  1  0  0  0
  5  4  1  0  0  0  0
  6 12  1  1  0  0  0
 10  4  1  0  0  0  0
 13  1  1  0  0  0  0
 14 13  1  0  0  0  0
 15  5  1  0  0  0  0
 16 15  1  0  0  0  0
 17 18  1  0  0  0  0
 18 23  1  0  0  0  0
 19 18  2  0  0  0  0
 19 20  1  0  0  0  0
 20 21  2  0  0  0  0
 21 22  1  0  0  0  0
 22 25  1  0  0  0  0
 23 22  2  0  0  0  0
 24 19  1  0  0  0  0
 26 27  1  0  0  0  0
 26 20  1  0  0  0  0
 26 28  1  0  0  0  0
 27 28  1  0  0  0  0
 27 30  1  0  0  0  0
 28 33  1  0  0  0  0
 29 26  1  0  0  0  0
 31 27  1  0  0  0  0
 32 28  1  0  0  0  0
 34  6  1  0  0  0  0
 35 34  1  1  0  0  0
 35 36  1  0  0  0  0
 36 37  1  0  0  0  0
 36 38  1  0  0  0  0
 39 38  1  0  0  0  0
 40 38  1  0  0  0  0
 41 35  1  0  0  0  0
 41 40  1  0  0  0  0
 42 41  1  0  0  0  0
M  END
>  <minimizedAffinity>
-5.91609812

>  <minimizedRMSD>
0.570355773

$$$$
