
 OpenBabel03252509043D

 47 49  0  0  1  0  0  0  0  0999 V2000
   46.8940   34.4510   43.2920 N   0  0  0  0  0  0  0  0  0  0  0  0
   46.5770   34.9190   41.9990 C   0  0  0  0  0  0  0  0  0  0  0  0
   45.1350   34.6980   41.5770 C   0  0  0  0  0  0  0  0  0  0  0  0
   44.1350   34.7860   42.7010 C   0  0  0  0  0  0  0  0  0  0  0  0
   44.8030   35.1710   44.0090 C   0  0  0  0  0  0  0  0  0  0  0  0
   45.9180   34.0660   44.1860 C   0  0  2  0  0  0  0  0  0  0  0  0
   46.7190   36.0300   41.9990 H   0  0  0  0  0  0  0  0  0  0  0  0
   47.1980   34.5500   41.1720 H   0  0  0  0  0  0  0  0  0  0  0  0
   44.9250   35.4030   40.7590 H   0  0  0  0  0  0  0  0  0  0  0  0
   45.0810   33.6710   41.1460 H   0  0  0  0  0  0  0  0  0  0  0  0
   43.3410   35.5050   42.4220 H   0  0  0  0  0  0  0  0  0  0  0  0
   43.6140   33.8230   42.8870 H   0  0  0  0  0  0  0  0  0  0  0  0
   44.0930   35.0200   44.8290 H   0  0  0  0  0  0  0  0  0  0  0  0
   45.2890   36.1490   43.9620 H   0  0  0  0  0  0  0  0  0  0  0  0
   45.3910   33.1080   43.9970 H   0  0  0  0  0  0  0  0  0  0  0  0
   48.1900   33.8340   43.3870 C   0  0  0  0  0  0  0  0  0  0  0  0
   48.5290   33.8820   44.4510 H   0  0  0  0  0  0  0  0  0  0  0  0
   48.9040   34.4160   42.7580 H   0  0  0  0  0  0  0  0  0  0  0  0
   48.0860   32.4040   42.9630 C   0  0  0  0  0  0  0  0  0  0  0  0
   48.2350   31.7270   43.8000 H   0  0  0  0  0  0  0  0  0  0  0  0
   47.0880   32.1910   42.5340 H   0  0  0  0  0  0  0  0  0  0  0  0
   51.3880   31.9620   41.2090 C   0  0  0  0  0  0  0  0  0  0  0  0
   50.4150   32.2120   42.2030 C   0  0  0  0  0  0  0  0  0  0  0  0
   49.0900   32.1350   41.8970 C   0  0  0  0  0  0  0  0  0  0  0  0
   48.7630   31.8190   40.6360 N   0  0  0  0  0  0  0  0  0  0  0  0
   49.6680   31.5800   39.6870 C   0  0  0  0  0  0  0  0  0  0  0  0
   50.9820   31.6480   39.9560 N   0  0  0  0  0  0  0  0  0  0  0  0
   52.4380   32.0180   41.4360 H   0  0  0  0  0  0  0  0  0  0  0  0
   50.7240   32.4660   43.2190 H   0  0  0  0  0  0  0  0  0  0  0  0
   49.3000   31.3330   38.7020 H   0  0  0  0  0  0  0  0  0  0  0  0
   46.2850   34.2640   45.4980 O   0  0  0  0  0  0  0  0  0  0  0  0
   45.5080   31.7180   45.6580 O   0  0  0  0  0  0  0  0  0  0  0  0
   46.0490   32.9180   46.4630 P   0  0  2  0  0  0  0  0  0  0  0  0
   44.7570   33.3150   47.5240 O   0  0  0  0  0  0  0  0  0  0  0  0
   45.0910   33.9180   48.2380 H   0  0  0  0  0  0  0  0  0  0  0  0
   47.3470   32.4960   47.3990 O   0  0  0  0  0  0  0  0  0  0  0  0
   47.7870   31.2280   47.0770 C   0  0  0  0  0  0  0  0  0  0  0  0
   47.1970   30.7500   46.2590 H   0  0  0  0  0  0  0  0  0  0  0  0
   48.8340   31.2880   46.7240 H   0  0  0  0  0  0  0  0  0  0  0  0
   47.7300   30.2700   48.2410 C   0  0  1  0  0  3  0  0  0  0  0  0
   48.5940   29.0490   48.0030 C   0  0  0  0  0  3  0  0  0  0  0  0
   48.2370   28.1760   48.5810 H   0  0  0  0  0  0  0  0  0  0  0  0
   49.9330   29.4910   48.5860 C   0  0  0  0  0  3  0  0  0  0  0  0
   50.7690   29.2900   47.8680 H   0  0  0  0  0  0  0  0  0  0  0  0
   49.8050   30.8540   48.8500 O   0  0  0  0  0  0  0  0  0  0  0  0
   48.5180   30.9190   49.3870 C   0  0  0  0  0  3  0  0  0  0  0  0
   48.5340   30.2280   50.2730 H   0  0  0  0  0  0  0  0  0  0  0  0
  1 16  1  0  0  0  0
  1  6  1  0  0  0  0
  2  7  1  0  0  0  0
  2  1  1  0  0  0  0
  3  2  1  0  0  0  0
  3  4  1  0  0  0  0
  4 12  1  0  0  0  0
  4  5  1  0  0  0  0
  5  6  1  0  0  0  0
  5 13  1  0  0  0  0
  6 15  1  6  0  0  0
  6 31  1  0  0  0  0
  8  2  1  0  0  0  0
  9  3  1  0  0  0  0
 10  3  1  0  0  0  0
 11  4  1  0  0  0  0
 14  5  1  0  0  0  0
 16 17  1  0  0  0  0
 18 16  1  0  0  0  0
 19 16  1  0  0  0  0
 19 20  1  0  0  0  0
 21 19  1  0  0  0  0
 22 28  1  0  0  0  0
 22 23  1  0  0  0  0
 23 29  1  0  0  0  0
 24 23  2  0  0  0  0
 24 19  1  0  0  0  0
 25 24  1  0  0  0  0
 26 27  1  0  0  0  0
 26 25  2  0  0  0  0
 27 22  2  0  0  0  0
 30 26  1  0  0  0  0
 31 33  1  0  0  0  0
 33 32  2  6  0  0  0
 33 36  1  0  0  0  0
 33 34  1  0  0  0  0
 34 35  1  0  0  0  0
 37 36  1  0  0  0  0
 38 37  1  0  0  0  0
 39 37  1  0  0  0  0
 40 37  1  6  0  0  0
 40 46  1  0  0  0  0
 41 40  1  0  0  0  0
 41 42  1  0  0  0  0
 41 43  1  0  0  0  0
 43 45  1  0  0  0  0
 44 43  1  0  0  0  0
 45 46  1  0  0  0  0
 46 47  1  0  0  0  0
M  END
>  <minimizedAffinity>
-4.57058859

>  <minimizedRMSD>
2.73305845

$$$$
