
 OpenBabel03252504233D

 31 34  0  0  1  0  0  0  0  0999 V2000
   39.0430   26.8190   42.7130 C   0  0  0  0  0  0  0  0  0  0  0  0
   38.2450   27.4310   43.6790 C   0  0  0  0  0  0  0  0  0  0  0  0
   37.8990   28.7950   43.5000 C   0  0  0  0  0  0  0  0  0  0  0  0
   38.3750   29.4230   42.3840 N   0  0  0  0  0  0  0  0  0  0  0  0
   39.1470   28.7810   41.4740 C   0  0  0  0  0  0  0  0  0  0  0  0
   39.4780   27.5010   41.6320 N   0  0  0  0  0  0  0  0  0  0  0  0
   39.5950   29.5290   40.3320 N   0  0  0  0  0  0  0  0  0  0  0  0
   40.8560   29.5330   39.8350 C   0  0  0  0  0  0  0  0  0  0  0  0
   40.8750   30.3650   38.7550 N   0  0  0  0  0  0  0  0  0  0  0  0
   39.6320   30.8460   38.6230 C   0  0  0  0  0  0  0  0  0  0  0  0
   39.0340   31.7140   37.7400 C   0  0  0  0  0  0  0  0  0  0  0  0
   37.7460   32.0460   37.8170 N   0  0  0  0  0  0  0  0  0  0  0  0
   36.9400   31.5500   38.7690 C   0  0  0  0  0  0  0  0  0  0  0  0
   37.5260   30.7020   39.6320 N   0  0  0  0  0  0  0  0  0  0  0  0
   38.8070   30.3330   39.6050 C   0  0  0  0  0  0  0  0  0  0  0  0
   37.8570   26.9640   44.5690 H   0  0  0  0  0  0  0  0  0  0  0  0
   37.2830   29.2960   44.2310 H   0  0  0  0  0  0  0  0  0  0  0  0
   41.6690   28.9620   40.2520 H   0  0  0  0  0  0  0  0  0  0  0  0
   35.9010   31.8370   38.8060 H   0  0  0  0  0  0  0  0  0  0  0  0
   39.7600   32.3190   36.6800 N   0  0  0  0  0  0  0  0  0  0  0  0
   39.5620   32.3210   35.6730 H   0  0  0  0  0  0  0  0  0  0  0  0
   40.5990   32.8110   37.0640 H   0  0  0  0  0  0  0  0  0  0  0  0
   39.4380   25.0900   43.0150 S   0  0  0  0  0  0  0  0  0  0  0  0
   38.3470   23.9940   42.1000 C   0  0  2  0  0  3  0  0  0  0  0  0
   38.7580   23.7950   40.6550 C   0  0  0  0  0  3  0  0  0  0  0  0
   39.1250   24.7450   40.2630 H   0  0  0  0  0  0  0  0  0  0  0  0
   37.4260   23.4500   40.0280 C   0  0  0  0  0  3  0  0  0  0  0  0
   37.3850   22.3410   39.9820 H   0  0  0  0  0  0  0  0  0  0  0  0
   36.4210   23.8500   40.8900 O   0  0  0  0  0  0  0  0  0  0  0  0
   36.9690   24.6200   41.8820 C   0  0  0  0  0  3  0  0  0  0  0  0
   37.1410   25.6320   41.4640 H   0  0  0  0  0  0  0  0  0  0  0  0
  1 23  1  0  0  0  0
  1  2  1  0  0  0  0
  2 16  1  0  0  0  0
  3  2  2  0  0  0  0
  3 17  1  0  0  0  0
  4  3  1  0  0  0  0
  5  6  1  0  0  0  0
  5  4  2  0  0  0  0
  6  1  2  0  0  0  0
  7  5  1  0  0  0  0
  8 18  1  0  0  0  0
  8  7  1  0  0  0  0
  9  8  2  0  0  0  0
 10  9  1  0  0  0  0
 10 15  1  0  0  0  0
 11 12  1  0  0  0  0
 11 10  2  0  0  0  0
 12 13  2  0  0  0  0
 13 19  1  0  0  0  0
 13 14  1  0  0  0  0
 15 14  2  0  0  0  0
 15  7  1  0  0  0  0
 20 22  1  0  0  0  0
 20 11  1  0  0  0  0
 21 20  1  0  0  0  0
 24 23  1  6  0  0  0
 25 24  1  0  0  0  0
 26 25  1  0  0  0  0
 27 25  1  0  0  0  0
 27 29  1  0  0  0  0
 28 27  1  0  0  0  0
 29 30  1  0  0  0  0
 30 24  1  0  0  0  0
 31 30  1  0  0  0  0
M  END
>  <minimizedAffinity>
-5.67941475

$$$$

 OpenBabel03252504233D

 31 34  0  0  1  0  0  0  0  0999 V2000
   37.1910   25.4340   40.9250 C   0  0  0  0  0  0  0  0  0  0  0  0
   36.7240   24.8720   39.7390 C   0  0  0  0  0  0  0  0  0  0  0  0
   36.2070   25.7390   38.7420 C   0  0  0  0  0  0  0  0  0  0  0  0
   36.2010   27.0780   39.0140 N   0  0  0  0  0  0  0  0  0  0  0  0
   36.6690   27.5740   40.1850 C   0  0  0  0  0  0  0  0  0  0  0  0
   37.1570   26.7690   41.1280 N   0  0  0  0  0  0  0  0  0  0  0  0
   36.6220   28.9970   40.3750 N   0  0  0  0  0  0  0  0  0  0  0  0
   36.1940   29.6320   41.4930 C   0  0  0  0  0  0  0  0  0  0  0  0
   36.3020   30.9740   41.2770 N   0  0  0  0  0  0  0  0  0  0  0  0
   36.7910   31.1210   40.0390 C   0  0  0  0  0  0  0  0  0  0  0  0
   37.1140   32.2120   39.2660 C   0  0  0  0  0  0  0  0  0  0  0  0
   37.5980   32.0990   38.0290 N   0  0  0  0  0  0  0  0  0  0  0  0
   37.8040   30.9040   37.4530 C   0  0  0  0  0  0  0  0  0  0  0  0
   37.4880   29.8400   38.2100 N   0  0  0  0  0  0  0  0  0  0  0  0
   37.0010   29.8900   39.4500 C   0  0  0  0  0  0  0  0  0  0  0  0
   36.7130   23.8230   39.4960 H   0  0  0  0  0  0  0  0  0  0  0  0
   35.8370   25.3340   37.8120 H   0  0  0  0  0  0  0  0  0  0  0  0
   35.8380   29.1240   42.3750 H   0  0  0  0  0  0  0  0  0  0  0  0
   38.1970   30.8450   36.4490 H   0  0  0  0  0  0  0  0  0  0  0  0
   36.9500   33.5400   39.7400 N   0  0  0  0  0  0  0  0  0  0  0  0
   37.6350   34.3010   39.7950 H   0  0  0  0  0  0  0  0  0  0  0  0
   35.9640   33.6790   40.0600 H   0  0  0  0  0  0  0  0  0  0  0  0
   37.8290   24.2680   42.1380 S   0  0  0  0  0  0  0  0  0  0  0  0
   39.5590   24.5780   42.5060 C   0  0  2  0  0  3  0  0  0  0  0  0
   39.7790   25.7200   43.4770 C   0  0  0  0  0  3  0  0  0  0  0  0
   39.0590   26.5100   43.2550 H   0  0  0  0  0  0  0  0  0  0  0  0
   41.1730   26.1580   43.0880 C   0  0  0  0  0  3  0  0  0  0  0  0
   41.8640   25.6580   43.7990 H   0  0  0  0  0  0  0  0  0  0  0  0
   41.4560   25.6490   41.8330 O   0  0  0  0  0  0  0  0  0  0  0  0
   40.3050   25.1370   41.2940 C   0  0  0  0  0  3  0  0  0  0  0  0
   39.7040   25.9890   40.9150 H   0  0  0  0  0  0  0  0  0  0  0  0
  1  6  1  0  0  0  0
  1 23  1  0  0  0  0
  2  1  2  0  0  0  0
  3  4  2  0  0  0  0
  3  2  1  0  0  0  0
  4  5  1  0  0  0  0
  5  7  1  0  0  0  0
  5  6  2  0  0  0  0
  7  8  1  0  0  0  0
  8 18  1  0  0  0  0
  9  8  2  0  0  0  0
 10  9  1  0  0  0  0
 11 20  1  0  0  0  0
 11 10  2  0  0  0  0
 12 11  1  0  0  0  0
 13 12  2  0  0  0  0
 13 14  1  0  0  0  0
 14 15  2  0  0  0  0
 15 10  1  0  0  0  0
 15  7  1  0  0  0  0
 16  2  1  0  0  0  0
 17  3  1  0  0  0  0
 19 13  1  0  0  0  0
 20 21  1  0  0  0  0
 20 22  1  0  0  0  0
 24 23  1  6  0  0  0
 24 25  1  0  0  0  0
 26 25  1  0  0  0  0
 27 25  1  0  0  0  0
 27 28  1  0  0  0  0
 29 27  1  0  0  0  0
 30 29  1  0  0  0  0
 30 24  1  0  0  0  0
 31 30  1  0  0  0  0
M  END
>  <minimizedAffinity>
-5.50480032

$$$$

 OpenBabel03252504233D

 31 34  0  0  1  0  0  0  0  0999 V2000
   37.2250   30.9750   39.7020 C   0  0  0  0  0  0  0  0  0  0  0  0
   36.7510   30.6090   38.4430 C   0  0  0  0  0  0  0  0  0  0  0  0
   37.4970   31.0060   37.3030 C   0  0  0  0  0  0  0  0  0  0  0  0
   38.6380   31.7260   37.5170 N   0  0  0  0  0  0  0  0  0  0  0  0
   39.0550   32.0550   38.7640 C   0  0  0  0  0  0  0  0  0  0  0  0
   38.3630   31.6880   39.8410 N   0  0  0  0  0  0  0  0  0  0  0  0
   40.2690   32.8130   38.8840 N   0  0  0  0  0  0  0  0  0  0  0  0
   40.4510   33.8950   39.6790 C   0  0  0  0  0  0  0  0  0  0  0  0
   41.7330   34.3280   39.5090 N   0  0  0  0  0  0  0  0  0  0  0  0
   42.2970   33.5020   38.6170 C   0  0  0  0  0  0  0  0  0  0  0  0
   43.5460   33.4240   38.0480 C   0  0  0  0  0  0  0  0  0  0  0  0
   43.8750   32.4860   37.1600 N   0  0  0  0  0  0  0  0  0  0  0  0
   43.0020   31.5480   36.7610 C   0  0  0  0  0  0  0  0  0  0  0  0
   41.7820   31.6260   37.3180 N   0  0  0  0  0  0  0  0  0  0  0  0
   41.3950   32.5390   38.2090 C   0  0  0  0  0  0  0  0  0  0  0  0
   35.8570   30.0450   38.2420 H   0  0  0  0  0  0  0  0  0  0  0  0
   37.1570   30.7380   36.3140 H   0  0  0  0  0  0  0  0  0  0  0  0
   39.6880   34.3070   40.3190 H   0  0  0  0  0  0  0  0  0  0  0  0
   43.2980   30.8010   36.0410 H   0  0  0  0  0  0  0  0  0  0  0  0
   44.5740   34.3480   38.3720 N   0  0  0  0  0  0  0  0  0  0  0  0
   45.5250   34.1710   38.7120 H   0  0  0  0  0  0  0  0  0  0  0  0
   44.2320   35.3240   38.2140 H   0  0  0  0  0  0  0  0  0  0  0  0
   36.2220   30.4350   41.0950 S   0  0  0  0  0  0  0  0  0  0  0  0
   36.9850   29.0620   41.9650 C   0  0  2  0  0  3  0  0  0  0  0  0
   38.1370   29.4730   42.8590 C   0  0  0  0  0  3  0  0  0  0  0  0
   38.7040   30.2590   42.3570 H   0  0  0  0  0  0  0  0  0  0  0  0
   38.9380   28.1910   42.8960 C   0  0  0  0  0  3  0  0  0  0  0  0
   38.6380   27.6670   43.8280 H   0  0  0  0  0  0  0  0  0  0  0  0
   38.5330   27.3930   41.8420 O   0  0  0  0  0  0  0  0  0  0  0  0
   37.7330   28.1310   41.0090 C   0  0  0  0  0  3  0  0  0  0  0  0
   38.3930   28.7730   40.3920 H   0  0  0  0  0  0  0  0  0  0  0  0
  1  6  1  0  0  0  0
  1 23  1  0  0  0  0
  2  1  2  0  0  0  0
  3  4  2  0  0  0  0
  3  2  1  0  0  0  0
  4  5  1  0  0  0  0
  5  7  1  0  0  0  0
  5  6  2  0  0  0  0
  7  8  1  0  0  0  0
  8 18  1  0  0  0  0
  9  8  2  0  0  0  0
 10  9  1  0  0  0  0
 11 20  1  0  0  0  0
 11 10  2  0  0  0  0
 12 11  1  0  0  0  0
 13 12  2  0  0  0  0
 13 14  1  0  0  0  0
 14 15  2  0  0  0  0
 15 10  1  0  0  0  0
 15  7  1  0  0  0  0
 16  2  1  0  0  0  0
 17  3  1  0  0  0  0
 19 13  1  0  0  0  0
 20 21  1  0  0  0  0
 22 20  1  0  0  0  0
 24 23  1  6  0  0  0
 24 25  1  0  0  0  0
 25 27  1  0  0  0  0
 26 25  1  0  0  0  0
 27 28  1  0  0  0  0
 29 27  1  0  0  0  0
 30 29  1  0  0  0  0
 30 24  1  0  0  0  0
 31 30  1  0  0  0  0
M  END
>  <minimizedAffinity>
-5.48866463

$$$$

 OpenBabel03252504233D

 31 34  0  0  1  0  0  0  0  0999 V2000
   38.5110   26.2910   42.4270 C   0  0  0  0  0  0  0  0  0  0  0  0
   37.1750   26.2810   42.8270 C   0  0  0  0  0  0  0  0  0  0  0  0
   36.5160   27.5260   42.9970 C   0  0  0  0  0  0  0  0  0  0  0  0
   37.2390   28.6590   42.7570 N   0  0  0  0  0  0  0  0  0  0  0  0
   38.5370   28.6130   42.3690 C   0  0  0  0  0  0  0  0  0  0  0  0
   39.1660   27.4510   42.2060 N   0  0  0  0  0  0  0  0  0  0  0  0
   39.2100   29.8610   42.1400 N   0  0  0  0  0  0  0  0  0  0  0  0
   40.4500   30.1830   42.5810 C   0  0  0  0  0  0  0  0  0  0  0  0
   40.7270   31.4500   42.1590 N   0  0  0  0  0  0  0  0  0  0  0  0
   39.6520   31.8660   41.4750 C   0  0  0  0  0  0  0  0  0  0  0  0
   39.3330   33.0310   40.8190 C   0  0  0  0  0  0  0  0  0  0  0  0
   38.1680   33.2100   40.1960 N   0  0  0  0  0  0  0  0  0  0  0  0
   37.2240   32.2570   40.1680 C   0  0  0  0  0  0  0  0  0  0  0  0
   37.5380   31.1190   40.8100 N   0  0  0  0  0  0  0  0  0  0  0  0
   38.6840   30.8820   41.4490 C   0  0  0  0  0  0  0  0  0  0  0  0
   36.5790   25.4070   43.0250 H   0  0  0  0  0  0  0  0  0  0  0  0
   35.4810   27.5510   43.3060 H   0  0  0  0  0  0  0  0  0  0  0  0
   41.0740   29.5220   43.1600 H   0  0  0  0  0  0  0  0  0  0  0  0
   36.2900   32.4310   39.6550 H   0  0  0  0  0  0  0  0  0  0  0  0
   40.2310   34.1290   40.7640 N   0  0  0  0  0  0  0  0  0  0  0  0
   40.5930   34.6340   39.9490 H   0  0  0  0  0  0  0  0  0  0  0  0
   40.5170   34.3980   41.7340 H   0  0  0  0  0  0  0  0  0  0  0  0
   39.2750   24.6730   42.2360 S   0  0  0  0  0  0  0  0  0  0  0  0
   38.9680   23.9880   40.6030 C   0  0  2  0  0  3  0  0  0  0  0  0
   38.4330   24.9990   39.6100 C   0  0  0  0  0  3  0  0  0  0  0  0
   37.7350   25.6600   40.1270 H   0  0  0  0  0  0  0  0  0  0  0  0
   37.6870   24.0920   38.6580 C   0  0  0  0  0  3  0  0  0  0  0  0
   38.3790   23.8960   37.8120 H   0  0  0  0  0  0  0  0  0  0  0  0
   37.4740   22.8790   39.2870 O   0  0  0  0  0  0  0  0  0  0  0  0
   37.7960   23.0050   40.6130 C   0  0  0  0  0  3  0  0  0  0  0  0
   36.9530   23.5200   41.1160 H   0  0  0  0  0  0  0  0  0  0  0  0
  1  2  1  0  0  0  0
  2  3  2  0  0  0  0
  2 16  1  0  0  0  0
  3 17  1  0  0  0  0
  4  3  1  0  0  0  0
  5  4  2  0  0  0  0
  6  5  1  0  0  0  0
  6  1  2  0  0  0  0
  7  5  1  0  0  0  0
  7  8  1  0  0  0  0
  8 18  1  0  0  0  0
  9  8  2  0  0  0  0
 10  9  1  0  0  0  0
 11 10  2  0  0  0  0
 12 11  1  0  0  0  0
 13 12  2  0  0  0  0
 13 14  1  0  0  0  0
 14 15  2  0  0  0  0
 15 10  1  0  0  0  0
 15  7  1  0  0  0  0
 19 13  1  0  0  0  0
 20 11  1  0  0  0  0
 20 22  1  0  0  0  0
 21 20  1  0  0  0  0
 23  1  1  0  0  0  0
 24 30  1  0  0  0  0
 24 23  1  1  0  0  0
 25 26  1  0  0  0  0
 25 24  1  0  0  0  0
 27 29  1  0  0  0  0
 27 25  1  0  0  0  0
 28 27  1  0  0  0  0
 29 30  1  0  0  0  0
 30 31  1  0  0  0  0
M  END
>  <minimizedAffinity>
-5.29253387

$$$$

 OpenBabel03252504233D

 31 34  0  0  1  0  0  0  0  0999 V2000
   37.3370   30.6000   39.1910 C   0  0  0  0  0  0  0  0  0  0  0  0
   36.7620   30.1530   38.0020 C   0  0  0  0  0  0  0  0  0  0  0  0
   36.8400   28.7690   37.6980 C   0  0  0  0  0  0  0  0  0  0  0  0
   37.4780   27.9620   38.5970 N   0  0  0  0  0  0  0  0  0  0  0  0
   38.0200   28.4490   39.7400 C   0  0  0  0  0  0  0  0  0  0  0  0
   37.9530   29.7450   40.0360 N   0  0  0  0  0  0  0  0  0  0  0  0
   38.6680   27.5180   40.6210 N   0  0  0  0  0  0  0  0  0  0  0  0
   39.8700   27.7010   41.2190 C   0  0  0  0  0  0  0  0  0  0  0  0
   40.1350   26.5940   41.9710 N   0  0  0  0  0  0  0  0  0  0  0  0
   39.0920   25.7690   41.8110 C   0  0  0  0  0  0  0  0  0  0  0  0
   38.7790   24.5230   42.3030 C   0  0  0  0  0  0  0  0  0  0  0  0
   37.6490   23.8890   41.9900 N   0  0  0  0  0  0  0  0  0  0  0  0
   36.7350   24.4290   41.1690 C   0  0  0  0  0  0  0  0  0  0  0  0
   37.0430   25.6470   40.6900 N   0  0  0  0  0  0  0  0  0  0  0  0
   38.1540   26.3280   40.9660 C   0  0  0  0  0  0  0  0  0  0  0  0
   36.2550   30.7630   37.2750 H   0  0  0  0  0  0  0  0  0  0  0  0
   36.4050   28.3920   36.7850 H   0  0  0  0  0  0  0  0  0  0  0  0
   40.4760   28.5830   41.0940 H   0  0  0  0  0  0  0  0  0  0  0  0
   35.8290   23.8910   40.9340 H   0  0  0  0  0  0  0  0  0  0  0  0
   39.6490   23.8260   43.1820 N   0  0  0  0  0  0  0  0  0  0  0  0
   39.4580   23.4300   44.1090 H   0  0  0  0  0  0  0  0  0  0  0  0
   40.5980   23.7490   42.7490 H   0  0  0  0  0  0  0  0  0  0  0  0
   37.1970   32.3670   39.5030 S   0  0  0  0  0  0  0  0  0  0  0  0
   38.8120   33.1440   39.6320 C   0  0  2  0  0  3  0  0  0  0  0  0
   39.8570   32.5290   38.7230 C   0  0  0  0  0  3  0  0  0  0  0  0
   39.7080   31.4490   38.7020 H   0  0  0  0  0  0  0  0  0  0  0  0
   41.1220   32.8700   39.4770 C   0  0  0  0  0  3  0  0  0  0  0  0
   41.5210   33.7950   39.0110 H   0  0  0  0  0  0  0  0  0  0  0  0
   40.7820   33.1940   40.7780 O   0  0  0  0  0  0  0  0  0  0  0  0
   39.4670   32.8670   40.9850 C   0  0  0  0  0  3  0  0  0  0  0  0
   39.4150   31.7720   41.1460 H   0  0  0  0  0  0  0  0  0  0  0  0
  1 23  1  0  0  0  0
  1  6  1  0  0  0  0
  2  1  2  0  0  0  0
  3  2  1  0  0  0  0
  3  4  2  0  0  0  0
  4  5  1  0  0  0  0
  5  6  2  0  0  0  0
  5  7  1  0  0  0  0
  7 15  1  0  0  0  0
  7  8  1  0  0  0  0
  8  9  2  0  0  0  0
 10  9  1  0  0  0  0
 10 11  1  0  0  0  0
 11 20  1  0  0  0  0
 12 11  2  0  0  0  0
 13 12  1  0  0  0  0
 14 15  1  0  0  0  0
 14 13  2  0  0  0  0
 15 10  2  0  0  0  0
 16  2  1  0  0  0  0
 17  3  1  0  0  0  0
 18  8  1  0  0  0  0
 19 13  1  0  0  0  0
 20 21  1  0  0  0  0
 22 20  1  0  0  0  0
 24 23  1  1  0  0  0
 24 30  1  0  0  0  0
 25 27  1  0  0  0  0
 25 24  1  0  0  0  0
 26 25  1  0  0  0  0
 27 29  1  0  0  0  0
 28 27  1  0  0  0  0
 29 30  1  0  0  0  0
 30 31  1  0  0  0  0
M  END
>  <minimizedAffinity>
-5.09540367

$$$$

 OpenBabel03252504233D

 31 34  0  0  1  0  0  0  0  0999 V2000
   43.2230   32.6940   39.1380 C   0  0  0  0  0  0  0  0  0  0  0  0
   43.9210   32.7580   40.3430 C   0  0  0  0  0  0  0  0  0  0  0  0
   43.1880   32.6340   41.5510 C   0  0  0  0  0  0  0  0  0  0  0  0
   41.8360   32.4600   41.4520 N   0  0  0  0  0  0  0  0  0  0  0  0
   41.2070   32.4040   40.2540 C   0  0  0  0  0  0  0  0  0  0  0  0
   41.8840   32.5180   39.1130 N   0  0  0  0  0  0  0  0  0  0  0  0
   39.7820   32.2160   40.2560 N   0  0  0  0  0  0  0  0  0  0  0  0
   38.8920   32.9070   39.5040 C   0  0  0  0  0  0  0  0  0  0  0  0
   37.6460   32.4360   39.7940 N   0  0  0  0  0  0  0  0  0  0  0  0
   37.8080   31.4740   40.7120 C   0  0  0  0  0  0  0  0  0  0  0  0
   36.9430   30.6430   41.3840 C   0  0  0  0  0  0  0  0  0  0  0  0
   37.3560   29.7420   42.2750 N   0  0  0  0  0  0  0  0  0  0  0  0
   38.6550   29.5850   42.5760 C   0  0  0  0  0  0  0  0  0  0  0  0
   39.4990   30.3990   41.9180 N   0  0  0  0  0  0  0  0  0  0  0  0
   39.1450   31.3160   41.0190 C   0  0  0  0  0  0  0  0  0  0  0  0
   44.9830   32.8960   40.4540 H   0  0  0  0  0  0  0  0  0  0  0  0
   43.7000   32.6790   42.5010 H   0  0  0  0  0  0  0  0  0  0  0  0
   39.1670   33.6850   38.8100 H   0  0  0  0  0  0  0  0  0  0  0  0
   38.9590   28.8470   43.3030 H   0  0  0  0  0  0  0  0  0  0  0  0
   35.5400   30.6940   41.1710 N   0  0  0  0  0  0  0  0  0  0  0  0
   34.8940   29.9410   40.9090 H   0  0  0  0  0  0  0  0  0  0  0  0
   35.1970   31.6700   41.3200 H   0  0  0  0  0  0  0  0  0  0  0  0
   44.2250   32.8600   37.6520 S   0  0  0  0  0  0  0  0  0  0  0  0
   44.4450   31.2810   36.8240 C   0  0  2  0  0  3  0  0  0  0  0  0
   43.1970   30.7810   36.1280 C   0  0  0  0  0  3  0  0  0  0  0  0
   42.3310   31.0200   36.7480 H   0  0  0  0  0  0  0  0  0  0  0  0
   43.4480   29.2900   36.1330 C   0  0  0  0  0  3  0  0  0  0  0  0
   43.8830   29.0460   35.1410 H   0  0  0  0  0  0  0  0  0  0  0  0
   44.4250   29.0160   37.0730 O   0  0  0  0  0  0  0  0  0  0  0  0
   44.6450   30.1410   37.8240 C   0  0  0  0  0  3  0  0  0  0  0  0
   43.8230   30.2180   38.5630 H   0  0  0  0  0  0  0  0  0  0  0  0
  1  2  1  0  0  0  0
  2 16  1  0  0  0  0
  2  3  2  0  0  0  0
  3 17  1  0  0  0  0
  4  3  1  0  0  0  0
  5  7  1  0  0  0  0
  5  4  2  0  0  0  0
  6  1  2  0  0  0  0
  6  5  1  0  0  0  0
  7 15  1  0  0  0  0
  8  9  2  0  0  0  0
  8  7  1  0  0  0  0
  9 10  1  0  0  0  0
 10 15  2  0  0  0  0
 10 11  1  0  0  0  0
 11 12  2  0  0  0  0
 12 13  1  0  0  0  0
 13 19  1  0  0  0  0
 14 13  2  0  0  0  0
 15 14  1  0  0  0  0
 18  8  1  0  0  0  0
 20 22  1  0  0  0  0
 20 11  1  0  0  0  0
 21 20  1  0  0  0  0
 23  1  1  0  0  0  0
 24 23  1  1  0  0  0
 24 30  1  0  0  0  0
 25 27  1  0  0  0  0
 25 26  1  0  0  0  0
 25 24  1  0  0  0  0
 27 29  1  0  0  0  0
 28 27  1  0  0  0  0
 29 30  1  0  0  0  0
 30 31  1  0  0  0  0
M  END
>  <minimizedAffinity>
-5.07494211

$$$$

 OpenBabel03252504233D

 31 34  0  0  1  0  0  0  0  0999 V2000
   33.4420   28.2500   36.7580 C   0  0  0  0  0  0  0  0  0  0  0  0
   34.1900   27.3760   35.9720 C   0  0  0  0  0  0  0  0  0  0  0  0
   35.4810   27.0000   36.4270 C   0  0  0  0  0  0  0  0  0  0  0  0
   35.9070   27.5250   37.6140 N   0  0  0  0  0  0  0  0  0  0  0  0
   35.1380   28.3710   38.3410 C   0  0  0  0  0  0  0  0  0  0  0  0
   33.9260   28.7310   37.9240 N   0  0  0  0  0  0  0  0  0  0  0  0
   35.6760   28.8670   39.5770 N   0  0  0  0  0  0  0  0  0  0  0  0
   35.6390   30.1560   39.9960 C   0  0  0  0  0  0  0  0  0  0  0  0
   36.2530   30.2170   41.2110 N   0  0  0  0  0  0  0  0  0  0  0  0
   36.6480   28.9700   41.5010 C   0  0  0  0  0  0  0  0  0  0  0  0
   37.3080   28.4030   42.5660 C   0  0  0  0  0  0  0  0  0  0  0  0
   37.5940   27.1020   42.6250 N   0  0  0  0  0  0  0  0  0  0  0  0
   37.2520   26.2540   41.6420 C   0  0  0  0  0  0  0  0  0  0  0  0
   36.6070   26.8110   40.6020 N   0  0  0  0  0  0  0  0  0  0  0  0
   36.2950   28.1010   40.4870 C   0  0  0  0  0  0  0  0  0  0  0  0
   33.8840   26.9480   35.0330 H   0  0  0  0  0  0  0  0  0  0  0  0
   36.0840   26.3240   35.8400 H   0  0  0  0  0  0  0  0  0  0  0  0
   35.1910   30.9590   39.4330 H   0  0  0  0  0  0  0  0  0  0  0  0
   37.4970   25.2060   41.7190 H   0  0  0  0  0  0  0  0  0  0  0  0
   37.7320   29.1740   43.6800 N   0  0  0  0  0  0  0  0  0  0  0  0
   37.5360   29.0400   44.6770 H   0  0  0  0  0  0  0  0  0  0  0  0
   38.3230   29.9720   43.3490 H   0  0  0  0  0  0  0  0  0  0  0  0
   31.8190   28.6790   36.1110 S   0  0  0  0  0  0  0  0  0  0  0  0
   31.2730   30.2840   36.7070 C   0  0  2  0  0  3  0  0  0  0  0  0
   30.5630   30.2260   38.0440 C   0  0  0  0  0  3  0  0  0  0  0  0
   29.9400   29.3310   38.0690 H   0  0  0  0  0  0  0  0  0  0  0  0
   29.6970   31.4630   37.9570 C   0  0  0  0  0  3  0  0  0  0  0  0
   30.2510   32.2660   38.4890 H   0  0  0  0  0  0  0  0  0  0  0  0
   29.6170   31.8470   36.6310 O   0  0  0  0  0  0  0  0  0  0  0  0
   30.1420   30.8520   35.8490 C   0  0  0  0  0  3  0  0  0  0  0  0
   29.3780   30.0550   35.7620 H   0  0  0  0  0  0  0  0  0  0  0  0
  1  6  1  0  0  0  0
  2  3  1  0  0  0  0
  2  1  2  0  0  0  0
  3  4  2  0  0  0  0
  4  5  1  0  0  0  0
  5  7  1  0  0  0  0
  6  5  2  0  0  0  0
  7  8  1  0  0  0  0
  7 15  1  0  0  0  0
  8  9  2  0  0  0  0
  9 10  1  0  0  0  0
 10 11  1  0  0  0  0
 11 12  2  0  0  0  0
 11 20  1  0  0  0  0
 13 19  1  0  0  0  0
 13 12  1  0  0  0  0
 14 13  2  0  0  0  0
 15 14  1  0  0  0  0
 15 10  2  0  0  0  0
 16  2  1  0  0  0  0
 17  3  1  0  0  0  0
 18  8  1  0  0  0  0
 20 21  1  0  0  0  0
 22 20  1  0  0  0  0
 23  1  1  0  0  0  0
 24 23  1  6  0  0  0
 24 25  1  0  0  0  0
 25 26  1  0  0  0  0
 27 25  1  0  0  0  0
 27 28  1  0  0  0  0
 29 27  1  0  0  0  0
 30 29  1  0  0  0  0
 30 24  1  0  0  0  0
 31 30  1  0  0  0  0
M  END
>  <minimizedAffinity>
-5.06366539

$$$$

 OpenBabel03252504233D

 31 34  0  0  1  0  0  0  0  0999 V2000
   38.6870   29.4480   41.6850 C   0  0  0  0  0  0  0  0  0  0  0  0
   38.5620   29.1630   43.0440 C   0  0  0  0  0  0  0  0  0  0  0  0
   37.8480   27.9970   43.4220 C   0  0  0  0  0  0  0  0  0  0  0  0
   37.3280   27.2250   42.4220 N   0  0  0  0  0  0  0  0  0  0  0  0
   37.4800   27.5470   41.1150 C   0  0  0  0  0  0  0  0  0  0  0  0
   38.1470   28.6390   40.7480 N   0  0  0  0  0  0  0  0  0  0  0  0
   36.8960   26.6700   40.1390 N   0  0  0  0  0  0  0  0  0  0  0  0
   36.1710   27.0560   39.0610 C   0  0  0  0  0  0  0  0  0  0  0  0
   35.7960   25.9320   38.3860 N   0  0  0  0  0  0  0  0  0  0  0  0
   36.3000   24.8940   39.0670 C   0  0  0  0  0  0  0  0  0  0  0  0
   36.2630   23.5310   38.8910 C   0  0  0  0  0  0  0  0  0  0  0  0
   36.8580   22.6810   39.7270 N   0  0  0  0  0  0  0  0  0  0  0  0
   37.5370   23.1030   40.8050 C   0  0  0  0  0  0  0  0  0  0  0  0
   37.5710   24.4360   40.9760 N   0  0  0  0  0  0  0  0  0  0  0  0
   36.9970   25.3330   40.1750 C   0  0  0  0  0  0  0  0  0  0  0  0
   38.9580   29.7510   43.8540 H   0  0  0  0  0  0  0  0  0  0  0  0
   37.7340   27.7490   44.4670 H   0  0  0  0  0  0  0  0  0  0  0  0
   35.9540   28.0840   38.8190 H   0  0  0  0  0  0  0  0  0  0  0  0
   38.0080   22.3900   41.4650 H   0  0  0  0  0  0  0  0  0  0  0  0
   35.5820   22.9370   37.7960 N   0  0  0  0  0  0  0  0  0  0  0  0
   35.9320   22.2790   37.0910 H   0  0  0  0  0  0  0  0  0  0  0  0
   34.5910   23.2700   37.7770 H   0  0  0  0  0  0  0  0  0  0  0  0
   39.6040   30.9450   41.2880 S   0  0  0  0  0  0  0  0  0  0  0  0
   38.5050   32.3420   41.0250 C   0  0  2  0  0  3  0  0  0  0  0  0
   37.4950   32.1210   39.9180 C   0  0  0  0  0  3  0  0  0  0  0  0
   37.9810   31.5750   39.1070 H   0  0  0  0  0  0  0  0  0  0  0  0
   37.2200   33.5470   39.4980 C   0  0  0  0  0  3  0  0  0  0  0  0
   36.2970   33.8540   40.0330 H   0  0  0  0  0  0  0  0  0  0  0  0
   38.2420   34.3470   39.9750 O   0  0  0  0  0  0  0  0  0  0  0  0
   39.2490   33.5460   40.4460 C   0  0  0  0  0  3  0  0  0  0  0  0
   39.8210   33.1760   39.5710 H   0  0  0  0  0  0  0  0  0  0  0  0
  1  2  1  0  0  0  0
  2  3  2  0  0  0  0
  2 16  1  0  0  0  0
  3 17  1  0  0  0  0
  4  3  1  0  0  0  0
  5  4  2  0  0  0  0
  6  5  1  0  0  0  0
  6  1  2  0  0  0  0
  7 15  1  0  0  0  0
  7  5  1  0  0  0  0
  8  7  1  0  0  0  0
  9  8  2  0  0  0  0
  9 10  1  0  0  0  0
 10 15  1  0  0  0  0
 11 10  2  0  0  0  0
 11 12  1  0  0  0  0
 12 13  2  0  0  0  0
 13 14  1  0  0  0  0
 13 19  1  0  0  0  0
 15 14  2  0  0  0  0
 18  8  1  0  0  0  0
 20 11  1  0  0  0  0
 21 20  1  0  0  0  0
 22 20  1  0  0  0  0
 23  1  1  0  0  0  0
 24 23  1  6  0  0  0
 25 24  1  0  0  0  0
 26 25  1  0  0  0  0
 27 25  1  0  0  0  0
 27 29  1  0  0  0  0
 27 28  1  0  0  0  0
 29 30  1  0  0  0  0
 30 24  1  0  0  0  0
 31 30  1  0  0  0  0
M  END
>  <minimizedAffinity>
-5.0370307

$$$$

 OpenBabel03252504233D

 31 34  0  0  1  0  0  0  0  0999 V2000
   37.2330   26.9440   38.2020 C   0  0  0  0  0  0  0  0  0  0  0  0
   37.9800   26.8870   37.0270 C   0  0  0  0  0  0  0  0  0  0  0  0
   38.6600   28.0590   36.6050 C   0  0  0  0  0  0  0  0  0  0  0  0
   38.5350   29.1740   37.3850 N   0  0  0  0  0  0  0  0  0  0  0  0
   37.7960   29.1750   38.5200 C   0  0  0  0  0  0  0  0  0  0  0  0
   37.1540   28.0810   38.9260 N   0  0  0  0  0  0  0  0  0  0  0  0
   37.7290   30.3970   39.2720 N   0  0  0  0  0  0  0  0  0  0  0  0
   36.6040   30.9460   39.7920 C   0  0  0  0  0  0  0  0  0  0  0  0
   36.9580   32.0980   40.4290 N   0  0  0  0  0  0  0  0  0  0  0  0
   38.2840   32.2230   40.2800 C   0  0  0  0  0  0  0  0  0  0  0  0
   39.2040   33.1590   40.6890 C   0  0  0  0  0  0  0  0  0  0  0  0
   40.5040   33.0600   40.4100 N   0  0  0  0  0  0  0  0  0  0  0  0
   41.0030   32.0320   39.7060 C   0  0  0  0  0  0  0  0  0  0  0  0
   40.1010   31.1180   39.3070 N   0  0  0  0  0  0  0  0  0  0  0  0
   38.7930   31.1640   39.5550 C   0  0  0  0  0  0  0  0  0  0  0  0
   38.0960   26.0260   36.3910 H   0  0  0  0  0  0  0  0  0  0  0  0
   39.2460   28.0460   35.6990 H   0  0  0  0  0  0  0  0  0  0  0  0
   35.6230   30.5110   39.6960 H   0  0  0  0  0  0  0  0  0  0  0  0
   42.0600   31.9790   39.4960 H   0  0  0  0  0  0  0  0  0  0  0  0
   38.8250   34.3020   41.4420 N   0  0  0  0  0  0  0  0  0  0  0  0
   39.1810   34.6350   42.3440 H   0  0  0  0  0  0  0  0  0  0  0  0
   38.0730   34.8210   40.9350 H   0  0  0  0  0  0  0  0  0  0  0  0
   36.4010   25.4180   38.6680 S   0  0  0  0  0  0  0  0  0  0  0  0
   37.3560   24.4860   39.8710 C   0  0  2  0  0  3  0  0  0  0  0  0
   36.7210   24.4410   41.2460 C   0  0  0  0  0  3  0  0  0  0  0  0
   36.2730   25.4140   41.4550 H   0  0  0  0  0  0  0  0  0  0  0  0
   37.9420   24.2310   42.1140 C   0  0  0  0  0  3  0  0  0  0  0  0
   38.0020   23.1380   42.3030 H   0  0  0  0  0  0  0  0  0  0  0  0
   39.0630   24.5700   41.3790 O   0  0  0  0  0  0  0  0  0  0  0  0
   38.6650   25.1930   40.2250 C   0  0  0  0  0  3  0  0  0  0  0  0
   38.4020   26.2390   40.4830 H   0  0  0  0  0  0  0  0  0  0  0  0
  1 23  1  0  0  0  0
  1  6  1  0  0  0  0
  2  1  2  0  0  0  0
  3  2  1  0  0  0  0
  3  4  2  0  0  0  0
  4  5  1  0  0  0  0
  5  6  2  0  0  0  0
  5  7  1  0  0  0  0
  7 15  1  0  0  0  0
  7  8  1  0  0  0  0
  8  9  2  0  0  0  0
 10  9  1  0  0  0  0
 10 11  1  0  0  0  0
 11 20  1  0  0  0  0
 12 11  2  0  0  0  0
 13 12  1  0  0  0  0
 14 15  1  0  0  0  0
 14 13  2  0  0  0  0
 15 10  2  0  0  0  0
 16  2  1  0  0  0  0
 17  3  1  0  0  0  0
 18  8  1  0  0  0  0
 19 13  1  0  0  0  0
 20 21  1  0  0  0  0
 22 20  1  0  0  0  0
 24 23  1  6  0  0  0
 24 30  1  0  0  0  0
 24 25  1  0  0  0  0
 25 26  1  0  0  0  0
 25 27  1  0  0  0  0
 27 28  1  0  0  0  0
 29 27  1  0  0  0  0
 30 31  1  0  0  0  0
 30 29  1  0  0  0  0
M  END
>  <minimizedAffinity>
-5.01509476

$$$$
