
 OpenBabel03242510493D

 38 40  0  0  1  0  0  0  0  0999 V2000
   39.1810   30.7050   40.8950 C   0  0  1  0  0  0  0  0  0  0  0  0
   39.1520   31.9780   40.1470 C   0  0  2  0  0  0  0  0  0  0  0  0
   37.9750   32.7340   40.4550 O   0  0  0  0  0  0  0  0  0  0  0  0
   36.9260   32.0290   39.8560 C   0  0  0  0  0  0  0  0  0  0  0  0
   36.6600   30.7480   40.6230 C   0  0  1  0  0  0  0  0  0  0  0  0
   37.8300   30.3580   41.4900 C   0  0  1  0  0  0  0  0  0  0  0  0
   39.8910   30.7430   41.7620 H   0  0  0  0  0  0  0  0  0  0  0  0
   39.9590   32.6760   40.4900 H   0  0  0  0  0  0  0  0  0  0  0  0
   37.2030   31.6870   38.8160 H   0  0  0  0  0  0  0  0  0  0  0  0
   36.0270   32.6650   39.8140 H   0  0  0  0  0  0  0  0  0  0  0  0
   36.3480   29.9200   39.9580 H   0  0  0  0  0  0  0  0  0  0  0  0
   37.7390   30.7490   42.5200 H   0  0  0  0  0  0  0  0  0  0  0  0
   39.6480   29.6490   40.0860 O   0  0  0  0  0  0  0  0  0  0  0  0
   38.9220   29.1640   39.6450 H   0  0  0  0  0  0  0  0  0  0  0  0
   35.5680   31.0330   41.4640 O   0  0  0  0  0  0  0  0  0  0  0  0
   35.9210   31.2730   42.3540 H   0  0  0  0  0  0  0  0  0  0  0  0
   39.1890   31.8690   38.7300 O   0  0  0  0  0  0  0  0  0  0  0  0
   42.1710   31.0220   36.9310 C   0  0  0  0  0  0  0  0  0  0  0  0
   42.8990   32.2210   36.9120 C   0  0  0  0  0  0  0  0  0  0  0  0
   42.3380   33.3380   37.5390 C   0  0  0  0  0  0  0  0  0  0  0  0
   41.1230   33.2020   38.1300 N   0  0  0  0  0  0  0  0  0  0  0  0
   40.4450   32.0570   38.1380 C   0  0  0  0  0  0  0  0  0  0  0  0
   40.9630   30.9540   37.5380 N   0  0  0  0  0  0  0  0  0  0  0  0
   43.8660   32.2640   36.4220 H   0  0  0  0  0  0  0  0  0  0  0  0
   42.8700   34.2650   37.5400 H   0  0  0  0  0  0  0  0  0  0  0  0
   42.7790   29.8300   36.2530 C   0  0  0  0  0  0  0  0  0  0  0  0
   43.2240   30.1400   35.0050 F   0  0  0  0  0  0  0  0  0  0  0  0
   43.7870   29.3370   37.0680 F   0  0  0  0  0  0  0  0  0  0  0  0
   41.8170   28.7960   36.2080 F   0  0  0  0  0  0  0  0  0  0  0  0
   37.7790   28.9570   41.6330 O   0  0  0  0  0  0  0  0  0  0  0  0
   37.6820   28.5750   42.9510 C   0  0  2  0  0  3  0  0  0  0  0  0
   38.8540   27.6580   43.2510 C   0  0  0  0  0  3  0  0  0  0  0  0
   39.8260   28.0690   42.9440 H   0  0  0  0  0  0  0  0  0  0  0  0
   38.4160   26.4640   42.4110 C   0  0  0  0  0  3  0  0  0  0  0  0
   39.0010   25.5690   42.6210 H   0  0  0  0  0  0  0  0  0  0  0  0
   37.0920   26.3110   42.7880 O   0  0  0  0  0  0  0  0  0  0  0  0
   36.5570   27.5560   43.0500 C   0  0  0  0  0  3  0  0  0  0  0  0
   36.1830   27.5360   44.1160 H   0  0  0  0  0  0  0  0  0  0  0  0
  1  6  1  0  0  0  0
  1  7  1  1  0  0  0
  2  3  1  0  0  0  0
  2  8  1  1  0  0  0
  2  1  1  0  0  0  0
  4  3  1  0  0  0  0
  4  5  1  0  0  0  0
  5 11  1  6  0  0  0
  5 15  1  0  0  0  0
  5  6  1  0  0  0  0
  6 30  1  0  0  0  0
  6 12  1  1  0  0  0
  9  4  1  0  0  0  0
 10  4  1  0  0  0  0
 13  1  1  0  0  0  0
 14 13  1  0  0  0  0
 15 16  1  0  0  0  0
 17  2  1  0  0  0  0
 18 23  1  0  0  0  0
 19 18  2  0  0  0  0
 19 20  1  0  0  0  0
 20 25  1  0  0  0  0
 20 21  2  0  0  0  0
 21 22  1  0  0  0  0
 22 17  1  0  0  0  0
 23 22  2  0  0  0  0
 24 19  1  0  0  0  0
 26 18  1  0  0  0  0
 26 28  1  0  0  0  0
 27 26  1  0  0  0  0
 29 26  1  0  0  0  0
 31 30  1  6  0  0  0
 31 37  1  0  0  0  0
 31 32  1  0  0  0  0
 33 32  1  0  0  0  0
 34 35  1  0  0  0  0
 34 36  1  0  0  0  0
 34 32  1  0  0  0  0
 36 37  1  0  0  0  0
 37 38  1  0  0  0  0
M  END
>  <minimizedAffinity>
-5.95343494

$$$$

 OpenBabel03242510493D

 38 40  0  0  1  0  0  0  0  0999 V2000
   40.0240   30.4150   39.6430 C   0  0  1  0  0  0  0  0  0  0  0  0
   38.9120   29.4790   39.3820 C   0  0  2  0  0  0  0  0  0  0  0  0
   38.5080   29.5240   38.0080 O   0  0  0  0  0  0  0  0  0  0  0  0
   37.8760   30.7630   37.8580 C   0  0  0  0  0  0  0  0  0  0  0  0
   38.9070   31.8760   37.8970 C   0  0  1  0  0  0  0  0  0  0  0  0
   40.2010   31.4230   38.5240 C   0  0  1  0  0  0  0  0  0  0  0  0
   41.0090   29.8850   39.7280 H   0  0  0  0  0  0  0  0  0  0  0  0
   39.2410   28.4120   39.4800 H   0  0  0  0  0  0  0  0  0  0  0  0
   37.1890   30.9810   38.7280 H   0  0  0  0  0  0  0  0  0  0  0  0
   37.3060   30.7790   36.9160 H   0  0  0  0  0  0  0  0  0  0  0  0
   38.5150   32.7920   38.3800 H   0  0  0  0  0  0  0  0  0  0  0  0
   40.9260   31.0590   37.7740 H   0  0  0  0  0  0  0  0  0  0  0  0
   39.8550   31.0740   40.8780 O   0  0  0  0  0  0  0  0  0  0  0  0
   39.3950   31.9320   40.7860 H   0  0  0  0  0  0  0  0  0  0  0  0
   39.1620   32.2000   36.5520 O   0  0  0  0  0  0  0  0  0  0  0  0
   39.9720   31.7120   36.2670 H   0  0  0  0  0  0  0  0  0  0  0  0
   37.7320   29.6850   40.1450 O   0  0  0  0  0  0  0  0  0  0  0  0
   37.4520   26.7440   42.1740 C   0  0  0  0  0  0  0  0  0  0  0  0
   37.4120   27.2460   43.4830 C   0  0  0  0  0  0  0  0  0  0  0  0
   37.4810   28.6320   43.6550 C   0  0  0  0  0  0  0  0  0  0  0  0
   37.5840   29.4140   42.5500 N   0  0  0  0  0  0  0  0  0  0  0  0
   37.6220   28.9210   41.3140 C   0  0  0  0  0  0  0  0  0  0  0  0
   37.5560   27.5780   41.1130 N   0  0  0  0  0  0  0  0  0  0  0  0
   37.3280   26.5670   44.3250 H   0  0  0  0  0  0  0  0  0  0  0  0
   37.4510   29.0420   44.6410 H   0  0  0  0  0  0  0  0  0  0  0  0
   37.3810   25.2550   41.9990 C   0  0  0  0  0  0  0  0  0  0  0  0
   36.2920   24.7310   42.6250 F   0  0  0  0  0  0  0  0  0  0  0  0
   37.3950   24.9800   40.6400 F   0  0  0  0  0  0  0  0  0  0  0  0
   38.5750   24.6840   42.4920 F   0  0  0  0  0  0  0  0  0  0  0  0
   40.8050   32.5690   39.0800 O   0  0  0  0  0  0  0  0  0  0  0  0
   42.1740   32.5460   38.9520 C   0  0  2  0  0  3  0  0  0  0  0  0
   42.6990   33.9030   39.3820 C   0  0  0  0  0  3  0  0  0  0  0  0
   42.3170   34.2360   40.3580 H   0  0  0  0  0  0  0  0  0  0  0  0
   42.1600   34.7240   38.2160 C   0  0  0  0  0  3  0  0  0  0  0  0
   42.5840   35.7260   38.1790 H   0  0  0  0  0  0  0  0  0  0  0  0
   42.5440   33.9650   37.1220 O   0  0  0  0  0  0  0  0  0  0  0  0
   42.4960   32.6290   37.4690 C   0  0  0  0  0  3  0  0  0  0  0  0
   43.5310   32.2090   37.3010 H   0  0  0  0  0  0  0  0  0  0  0  0
  1  7  1  1  0  0  0
  1 13  1  0  0  0  0
  2  8  1  1  0  0  0
  2  1  1  0  0  0  0
  2 17  1  0  0  0  0
  3  2  1  0  0  0  0
  4  5  1  0  0  0  0
  4  3  1  0  0  0  0
  4  9  1  0  0  0  0
  5 11  1  1  0  0  0
  5  6  1  0  0  0  0
  6 12  1  6  0  0  0
  6 30  1  0  0  0  0
  6  1  1  0  0  0  0
 10  4  1  0  0  0  0
 14 13  1  0  0  0  0
 15  5  1  0  0  0  0
 16 15  1  0  0  0  0
 17 22  1  0  0  0  0
 18 19  1  0  0  0  0
 19 20  2  0  0  0  0
 19 24  1  0  0  0  0
 20 25  1  0  0  0  0
 21 20  1  0  0  0  0
 22 21  2  0  0  0  0
 23 22  1  0  0  0  0
 23 18  2  0  0  0  0
 26 18  1  0  0  0  0
 26 29  1  0  0  0  0
 26 27  1  0  0  0  0
 28 26  1  0  0  0  0
 31 30  1  6  0  0  0
 31 32  1  0  0  0  0
 32 33  1  0  0  0  0
 34 32  1  0  0  0  0
 35 34  1  0  0  0  0
 36 37  1  0  0  0  0
 36 34  1  0  0  0  0
 37 31  1  0  0  0  0
 38 37  1  0  0  0  0
M  END
>  <minimizedAffinity>
-5.74614668

$$$$

 OpenBabel03242510493D

 38 40  0  0  1  0  0  0  0  0999 V2000
   39.4720   30.7070   41.5350 C   0  0  1  0  0  0  0  0  0  0  0  0
   39.5700   32.0250   40.8770 C   0  0  2  0  0  0  0  0  0  0  0  0
   38.3480   32.7610   41.0040 O   0  0  0  0  0  0  0  0  0  0  0  0
   37.4380   32.0980   40.1740 C   0  0  0  0  0  0  0  0  0  0  0  0
   37.0470   30.7700   40.7950 C   0  0  1  0  0  0  0  0  0  0  0  0
   38.0370   30.3240   41.8410 C   0  0  1  0  0  0  0  0  0  0  0  0
   40.0040   30.6890   42.5210 H   0  0  0  0  0  0  0  0  0  0  0  0
   40.2900   32.6990   41.4100 H   0  0  0  0  0  0  0  0  0  0  0  0
   37.9110   31.8220   39.1860 H   0  0  0  0  0  0  0  0  0  0  0  0
   36.5560   32.7350   40.0030 H   0  0  0  0  0  0  0  0  0  0  0  0
   36.8750   29.9860   40.0310 H   0  0  0  0  0  0  0  0  0  0  0  0
   37.7480   30.6480   42.8570 H   0  0  0  0  0  0  0  0  0  0  0  0
   40.0950   29.7050   40.7630 O   0  0  0  0  0  0  0  0  0  0  0  0
   39.4710   29.2500   40.1630 H   0  0  0  0  0  0  0  0  0  0  0  0
   35.8130   31.0010   41.4300 O   0  0  0  0  0  0  0  0  0  0  0  0
   35.9880   31.1830   42.3840 H   0  0  0  0  0  0  0  0  0  0  0  0
   39.8750   32.0080   39.4890 O   0  0  0  0  0  0  0  0  0  0  0  0
   43.1560   33.4140   39.8080 C   0  0  0  0  0  0  0  0  0  0  0  0
   43.3800   34.0210   38.5640 C   0  0  0  0  0  0  0  0  0  0  0  0
   42.3670   33.9380   37.6030 C   0  0  0  0  0  0  0  0  0  0  0  0
   41.2260   33.2760   37.9250 N   0  0  0  0  0  0  0  0  0  0  0  0
   41.0300   32.7040   39.1110 C   0  0  0  0  0  0  0  0  0  0  0  0
   41.9950   32.7680   40.0660 N   0  0  0  0  0  0  0  0  0  0  0  0
   44.3140   34.5360   38.3680 H   0  0  0  0  0  0  0  0  0  0  0  0
   42.5100   34.3920   36.6460 H   0  0  0  0  0  0  0  0  0  0  0  0
   44.2490   33.5050   40.8320 C   0  0  0  0  0  0  0  0  0  0  0  0
   43.7570   33.4050   42.0970 F   0  0  0  0  0  0  0  0  0  0  0  0
   45.1880   32.5240   40.5490 F   0  0  0  0  0  0  0  0  0  0  0  0
   44.9390   34.7240   40.6500 F   0  0  0  0  0  0  0  0  0  0  0  0
   37.9750   28.9160   41.8830 O   0  0  0  0  0  0  0  0  0  0  0  0
   37.7720   28.4450   43.1590 C   0  0  2  0  0  3  0  0  0  0  0  0
   38.8300   27.3930   43.4340 C   0  0  0  0  0  3  0  0  0  0  0  0
   39.8530   27.7240   43.2060 H   0  0  0  0  0  0  0  0  0  0  0  0
   38.3210   26.3180   42.4800 C   0  0  0  0  0  3  0  0  0  0  0  0
   38.8020   25.3550   42.6420 H   0  0  0  0  0  0  0  0  0  0  0  0
   36.9700   26.2740   42.7840 O   0  0  0  0  0  0  0  0  0  0  0  0
   36.5480   27.5440   43.1230 C   0  0  0  0  0  3  0  0  0  0  0  0
   36.1190   27.4790   44.1660 H   0  0  0  0  0  0  0  0  0  0  0  0
  1  6  1  0  0  0  0
  1  7  1  1  0  0  0
  2  3  1  0  0  0  0
  2  8  1  1  0  0  0
  2  1  1  0  0  0  0
  4  5  1  0  0  0  0
  4  3  1  0  0  0  0
  5 11  1  6  0  0  0
  5 15  1  0  0  0  0
  5  6  1  0  0  0  0
  6 30  1  0  0  0  0
  6 12  1  1  0  0  0
  9  4  1  0  0  0  0
 10  4  1  0  0  0  0
 13  1  1  0  0  0  0
 14 13  1  0  0  0  0
 15 16  1  0  0  0  0
 17  2  1  0  0  0  0
 18 23  1  0  0  0  0
 18 26  1  0  0  0  0
 19 18  2  0  0  0  0
 20 21  2  0  0  0  0
 20 19  1  0  0  0  0
 21 22  1  0  0  0  0
 22 17  1  0  0  0  0
 22 23  2  0  0  0  0
 24 19  1  0  0  0  0
 25 20  1  0  0  0  0
 26 27  1  0  0  0  0
 28 26  1  0  0  0  0
 29 26  1  0  0  0  0
 31 30  1  6  0  0  0
 31 32  1  0  0  0  0
 33 32  1  0  0  0  0
 34 35  1  0  0  0  0
 34 36  1  0  0  0  0
 34 32  1  0  0  0  0
 36 37  1  0  0  0  0
 37 31  1  0  0  0  0
 37 38  1  0  0  0  0
M  END
>  <minimizedAffinity>
-5.67138338

$$$$

 OpenBabel03242510493D

 38 40  0  0  1  0  0  0  0  0999 V2000
   39.8560   30.8460   39.3590 C   0  0  1  0  0  0  0  0  0  0  0  0
   38.6610   30.6490   40.2030 C   0  0  2  0  0  0  0  0  0  0  0  0
   37.8070   31.7980   40.1700 O   0  0  0  0  0  0  0  0  0  0  0  0
   38.4980   32.7820   40.8850 C   0  0  0  0  0  0  0  0  0  0  0  0
   39.6810   33.2740   40.0730 C   0  0  1  0  0  0  0  0  0  0  0  0
   40.0590   32.3020   38.9840 C   0  0  1  0  0  0  0  0  0  0  0  0
   39.7800   30.2940   38.3860 H   0  0  0  0  0  0  0  0  0  0  0  0
   37.9850   29.8600   39.7810 H   0  0  0  0  0  0  0  0  0  0  0  0
   38.9550   32.3600   41.8280 H   0  0  0  0  0  0  0  0  0  0  0  0
   37.8150   33.6090   41.1370 H   0  0  0  0  0  0  0  0  0  0  0  0
   40.5480   33.5320   40.7120 H   0  0  0  0  0  0  0  0  0  0  0  0
   39.5680   32.5360   38.0230 H   0  0  0  0  0  0  0  0  0  0  0  0
   41.0110   30.3330   39.9830 O   0  0  0  0  0  0  0  0  0  0  0  0
   41.4900   31.0090   40.5030 H   0  0  0  0  0  0  0  0  0  0  0  0
   39.2500   34.4670   39.4650 O   0  0  0  0  0  0  0  0  0  0  0  0
   38.9490   34.2530   38.5490 H   0  0  0  0  0  0  0  0  0  0  0  0
   38.9060   30.3800   41.5770 O   0  0  0  0  0  0  0  0  0  0  0  0
   37.4020   27.1270   41.6310 C   0  0  0  0  0  0  0  0  0  0  0  0
   36.9570   26.9890   42.9540 C   0  0  0  0  0  0  0  0  0  0  0  0
   37.1850   28.0500   43.8360 C   0  0  0  0  0  0  0  0  0  0  0  0
   37.8240   29.1530   43.3660 N   0  0  0  0  0  0  0  0  0  0  0  0
   38.2410   29.2670   42.1070 C   0  0  0  0  0  0  0  0  0  0  0  0
   38.0340   28.2540   41.2250 N   0  0  0  0  0  0  0  0  0  0  0  0
   36.4530   26.0820   43.2680 H   0  0  0  0  0  0  0  0  0  0  0  0
   36.8560   27.9730   44.8500 H   0  0  0  0  0  0  0  0  0  0  0  0
   37.1570   25.9830   40.6930 C   0  0  0  0  0  0  0  0  0  0  0  0
   38.3000   25.6040   40.0580 F   0  0  0  0  0  0  0  0  0  0  0  0
   36.5840   24.9470   41.4160 F   0  0  0  0  0  0  0  0  0  0  0  0
   36.1620   26.3630   39.7650 F   0  0  0  0  0  0  0  0  0  0  0  0
   41.4350   32.4860   38.7370 O   0  0  0  0  0  0  0  0  0  0  0  0
   41.6880   32.7840   37.4180 C   0  0  2  0  0  3  0  0  0  0  0  0
   42.7150   31.7880   36.9110 C   0  0  0  0  0  3  0  0  0  0  0  0
   42.4570   30.7410   37.1220 H   0  0  0  0  0  0  0  0  0  0  0  0
   43.9130   32.2840   37.7140 C   0  0  0  0  0  3  0  0  0  0  0  0
   44.8520   31.8530   37.3710 H   0  0  0  0  0  0  0  0  0  0  0  0
   43.8660   33.6510   37.4950 O   0  0  0  0  0  0  0  0  0  0  0  0
   42.5450   34.0390   37.3890 C   0  0  0  0  0  3  0  0  0  0  0  0
   42.4280   34.5320   36.3800 H   0  0  0  0  0  0  0  0  0  0  0  0
  1  7  1  6  0  0  0
  1 13  1  0  0  0  0
  1  2  1  0  0  0  0
  2  8  1  6  0  0  0
  2 17  1  0  0  0  0
  3  2  1  0  0  0  0
  3  4  1  0  0  0  0
  4 10  1  0  0  0  0
  4  9  1  0  0  0  0
  5 11  1  1  0  0  0
  5  4  1  0  0  0  0
  6 12  1  6  0  0  0
  6  1  1  0  0  0  0
  6  5  1  0  0  0  0
 13 14  1  0  0  0  0
 15  5  1  0  0  0  0
 16 15  1  0  0  0  0
 17 22  1  0  0  0  0
 18 19  1  0  0  0  0
 19 24  1  0  0  0  0
 19 20  2  0  0  0  0
 20 25  1  0  0  0  0
 21 20  1  0  0  0  0
 22 21  2  0  0  0  0
 23 18  2  0  0  0  0
 23 22  1  0  0  0  0
 26 28  1  0  0  0  0
 26 18  1  0  0  0  0
 27 26  1  0  0  0  0
 29 26  1  0  0  0  0
 30  6  1  0  0  0  0
 31 30  1  1  0  0  0
 32 33  1  0  0  0  0
 32 31  1  0  0  0  0
 32 34  1  0  0  0  0
 35 34  1  0  0  0  0
 36 34  1  0  0  0  0
 37 31  1  0  0  0  0
 37 36  1  0  0  0  0
 38 37  1  0  0  0  0
M  END
>  <minimizedAffinity>
-5.53474665

$$$$

 OpenBabel03242510493D

 38 40  0  0  1  0  0  0  0  0999 V2000
   39.5230   31.1580   39.4990 C   0  0  1  0  0  0  0  0  0  0  0  0
   38.1810   30.8640   38.9560 C   0  0  2  0  0  0  0  0  0  0  0  0
   37.5790   32.0370   38.3960 O   0  0  0  0  0  0  0  0  0  0  0  0
   37.2680   32.8430   39.4970 C   0  0  0  0  0  0  0  0  0  0  0  0
   38.5400   33.4210   40.0880 C   0  0  1  0  0  0  0  0  0  0  0  0
   39.7620   32.6470   39.6620 C   0  0  1  0  0  0  0  0  0  0  0  0
   40.3400   30.7950   38.8220 H   0  0  0  0  0  0  0  0  0  0  0  0
   38.2390   30.1950   38.0580 H   0  0  0  0  0  0  0  0  0  0  0  0
   36.8140   32.2370   40.3340 H   0  0  0  0  0  0  0  0  0  0  0  0
   36.5720   33.6400   39.1890 H   0  0  0  0  0  0  0  0  0  0  0  0
   38.4810   33.5210   41.1890 H   0  0  0  0  0  0  0  0  0  0  0  0
   40.2350   33.0730   38.7590 H   0  0  0  0  0  0  0  0  0  0  0  0
   39.7360   30.4890   40.7210 O   0  0  0  0  0  0  0  0  0  0  0  0
   39.5000   31.0380   41.4970 H   0  0  0  0  0  0  0  0  0  0  0  0
   38.6420   34.7230   39.5640 O   0  0  0  0  0  0  0  0  0  0  0  0
   39.2420   34.6920   38.7800 H   0  0  0  0  0  0  0  0  0  0  0  0
   37.2370   30.3400   39.8790 O   0  0  0  0  0  0  0  0  0  0  0  0
   37.0290   27.0730   41.3380 C   0  0  0  0  0  0  0  0  0  0  0  0
   36.9480   26.2180   40.2280 C   0  0  0  0  0  0  0  0  0  0  0  0
   36.9690   26.7950   38.9550 C   0  0  0  0  0  0  0  0  0  0  0  0
   37.0650   28.1470   38.8610 N   0  0  0  0  0  0  0  0  0  0  0  0
   37.1400   28.9430   39.9240 C   0  0  0  0  0  0  0  0  0  0  0  0
   37.1240   28.4130   41.1760 N   0  0  0  0  0  0  0  0  0  0  0  0
   36.8730   25.1450   40.3700 H   0  0  0  0  0  0  0  0  0  0  0  0
   36.9090   26.1680   38.0910 H   0  0  0  0  0  0  0  0  0  0  0  0
   37.0030   26.4450   42.7000 C   0  0  0  0  0  0  0  0  0  0  0  0
   36.2120   27.1470   43.5570 F   0  0  0  0  0  0  0  0  0  0  0  0
   36.5950   25.1270   42.5610 F   0  0  0  0  0  0  0  0  0  0  0  0
   38.3270   26.3600   43.1850 F   0  0  0  0  0  0  0  0  0  0  0  0
   40.7220   32.8110   40.6810 O   0  0  0  0  0  0  0  0  0  0  0  0
   41.9380   33.2210   40.1850 C   0  0  2  0  0  3  0  0  0  0  0  0
   42.9930   32.2640   40.7070 C   0  0  0  0  0  3  0  0  0  0  0  0
   42.7460   31.2040   40.5480 H   0  0  0  0  0  0  0  0  0  0  0  0
   42.9530   32.6750   42.1740 C   0  0  0  0  0  3  0  0  0  0  0  0
   43.7860   32.2670   42.7450 H   0  0  0  0  0  0  0  0  0  0  0  0
   43.0160   34.0570   42.0920 O   0  0  0  0  0  0  0  0  0  0  0  0
   42.3490   34.4660   40.9550 C   0  0  0  0  0  3  0  0  0  0  0  0
   43.0910   35.0460   40.3300 H   0  0  0  0  0  0  0  0  0  0  0  0
  1  7  1  6  0  0  0
  1  6  1  0  0  0  0
  1 13  1  0  0  0  0
  2  8  1  6  0  0  0
  2  1  1  0  0  0  0
  2 17  1  0  0  0  0
  3  2  1  0  0  0  0
  3  4  1  0  0  0  0
  4  5  1  0  0  0  0
  4  9  1  0  0  0  0
  5 11  1  1  0  0  0
  6 12  1  6  0  0  0
  6  5  1  0  0  0  0
  6 30  1  0  0  0  0
 10  4  1  0  0  0  0
 13 14  1  0  0  0  0
 15  5  1  0  0  0  0
 16 15  1  0  0  0  0
 17 22  1  0  0  0  0
 18 26  1  0  0  0  0
 19 24  1  0  0  0  0
 19 18  2  0  0  0  0
 20 19  1  0  0  0  0
 21 20  2  0  0  0  0
 21 22  1  0  0  0  0
 22 23  2  0  0  0  0
 23 18  1  0  0  0  0
 25 20  1  0  0  0  0
 26 29  1  0  0  0  0
 26 27  1  0  0  0  0
 28 26  1  0  0  0  0
 31 30  1  1  0  0  0
 31 32  1  0  0  0  0
 31 37  1  0  0  0  0
 32 34  1  0  0  0  0
 33 32  1  0  0  0  0
 34 35  1  0  0  0  0
 36 34  1  0  0  0  0
 37 36  1  0  0  0  0
 38 37  1  0  0  0  0
M  END
>  <minimizedAffinity>
-5.52308416

$$$$

 OpenBabel03242510493D

 38 40  0  0  1  0  0  0  0  0999 V2000
   39.9200   31.0720   39.6850 C   0  0  1  0  0  0  0  0  0  0  0  0
   38.7760   31.0720   40.6180 C   0  0  2  0  0  0  0  0  0  0  0  0
   38.0130   32.2800   40.5050 O   0  0  0  0  0  0  0  0  0  0  0  0
   38.8280   33.2740   41.0570 C   0  0  0  0  0  0  0  0  0  0  0  0
   39.9860   33.5700   40.1230 C   0  0  1  0  0  0  0  0  0  0  0  0
   40.2100   32.4550   39.1330 C   0  0  1  0  0  0  0  0  0  0  0  0
   39.7330   30.4250   38.7890 H   0  0  0  0  0  0  0  0  0  0  0  0
   38.0130   30.3020   40.3320 H   0  0  0  0  0  0  0  0  0  0  0  0
   39.3160   32.9210   42.0120 H   0  0  0  0  0  0  0  0  0  0  0  0
   38.2310   34.1790   41.2530 H   0  0  0  0  0  0  0  0  0  0  0  0
   40.9130   33.8220   40.6730 H   0  0  0  0  0  0  0  0  0  0  0  0
   39.6710   32.6230   38.1820 H   0  0  0  0  0  0  0  0  0  0  0  0
   41.0730   30.5340   40.2920 O   0  0  0  0  0  0  0  0  0  0  0  0
   41.6380   31.2200   40.7010 H   0  0  0  0  0  0  0  0  0  0  0  0
   39.6080   34.7210   39.4080 O   0  0  0  0  0  0  0  0  0  0  0  0
   39.2270   34.4340   38.5430 H   0  0  0  0  0  0  0  0  0  0  0  0
   39.0950   30.9370   41.9960 O   0  0  0  0  0  0  0  0  0  0  0  0
   39.6250   27.6090   43.2150 C   0  0  0  0  0  0  0  0  0  0  0  0
   38.3630   27.2240   43.6900 C   0  0  0  0  0  0  0  0  0  0  0  0
   37.3140   28.1420   43.5800 C   0  0  0  0  0  0  0  0  0  0  0  0
   37.5730   29.3520   43.0210 N   0  0  0  0  0  0  0  0  0  0  0  0
   38.7780   29.7020   42.5760 C   0  0  0  0  0  0  0  0  0  0  0  0
   39.8170   28.8320   42.6670 N   0  0  0  0  0  0  0  0  0  0  0  0
   38.2200   26.2410   44.1270 H   0  0  0  0  0  0  0  0  0  0  0  0
   36.3410   27.8760   43.9340 H   0  0  0  0  0  0  0  0  0  0  0  0
   40.7450   26.6180   43.3400 C   0  0  0  0  0  0  0  0  0  0  0  0
   41.7850   27.1300   44.0550 F   0  0  0  0  0  0  0  0  0  0  0  0
   40.2350   25.4580   43.9030 F   0  0  0  0  0  0  0  0  0  0  0  0
   41.1590   26.2360   42.0450 F   0  0  0  0  0  0  0  0  0  0  0  0
   41.5750   32.4920   38.7820 O   0  0  0  0  0  0  0  0  0  0  0  0
   41.7580   32.7320   37.4400 C   0  0  2  0  0  3  0  0  0  0  0  0
   42.7690   31.7230   36.9270 C   0  0  0  0  0  3  0  0  0  0  0  0
   42.5320   30.6840   37.1980 H   0  0  0  0  0  0  0  0  0  0  0  0
   44.0000   32.2650   37.6440 C   0  0  0  0  0  3  0  0  0  0  0  0
   44.9250   31.8260   37.2740 H   0  0  0  0  0  0  0  0  0  0  0  0
   43.9270   33.6200   37.3670 O   0  0  0  0  0  0  0  0  0  0  0  0
   42.5990   33.9920   37.3110 C   0  0  0  0  0  3  0  0  0  0  0  0
   42.4250   34.4370   36.2880 H   0  0  0  0  0  0  0  0  0  0  0  0
  1  7  1  6  0  0  0
  1 13  1  0  0  0  0
  1  2  1  0  0  0  0
  2  8  1  6  0  0  0
  2 17  1  0  0  0  0
  3  2  1  0  0  0  0
  3  4  1  0  0  0  0
  4 10  1  0  0  0  0
  4  9  1  0  0  0  0
  5 11  1  1  0  0  0
  5  4  1  0  0  0  0
  6 12  1  6  0  0  0
  6  1  1  0  0  0  0
  6  5  1  0  0  0  0
 13 14  1  0  0  0  0
 15  5  1  0  0  0  0
 16 15  1  0  0  0  0
 17 22  1  0  0  0  0
 18 26  1  0  0  0  0
 18 19  1  0  0  0  0
 19 24  1  0  0  0  0
 20 19  2  0  0  0  0
 20 25  1  0  0  0  0
 21 20  1  0  0  0  0
 22 23  1  0  0  0  0
 22 21  2  0  0  0  0
 23 18  2  0  0  0  0
 26 28  1  0  0  0  0
 26 27  1  0  0  0  0
 29 26  1  0  0  0  0
 30  6  1  0  0  0  0
 31 30  1  1  0  0  0
 32 33  1  0  0  0  0
 32 31  1  0  0  0  0
 32 34  1  0  0  0  0
 35 34  1  0  0  0  0
 36 34  1  0  0  0  0
 37 36  1  0  0  0  0
 37 31  1  0  0  0  0
 38 37  1  0  0  0  0
M  END
>  <minimizedAffinity>
-5.4565239

$$$$

 OpenBabel03242510493D

 38 40  0  0  1  0  0  0  0  0999 V2000
   39.1890   30.8070   39.2350 C   0  0  1  0  0  0  0  0  0  0  0  0
   37.9890   29.9520   39.1270 C   0  0  2  0  0  0  0  0  0  0  0  0
   36.8060   30.7390   38.9500 O   0  0  0  0  0  0  0  0  0  0  0  0
   36.5980   31.3630   40.1850 C   0  0  0  0  0  0  0  0  0  0  0  0
   37.6400   32.4450   40.3980 C   0  0  1  0  0  0  0  0  0  0  0  0
   38.8370   32.2580   39.5000 C   0  0  1  0  0  0  0  0  0  0  0  0
   39.7890   30.8110   38.2880 H   0  0  0  0  0  0  0  0  0  0  0  0
   37.9970   29.3500   38.1820 H   0  0  0  0  0  0  0  0  0  0  0  0
   36.7570   30.6430   41.0400 H   0  0  0  0  0  0  0  0  0  0  0  0
   35.5780   31.7770   40.2260 H   0  0  0  0  0  0  0  0  0  0  0  0
   37.9350   32.5380   41.4610 H   0  0  0  0  0  0  0  0  0  0  0  0
   38.7450   32.8230   38.5540 H   0  0  0  0  0  0  0  0  0  0  0  0
   40.0700   30.3250   40.2250 O   0  0  0  0  0  0  0  0  0  0  0  0
   39.9180   30.7400   41.0980 H   0  0  0  0  0  0  0  0  0  0  0  0
   37.0090   33.6510   40.0400 O   0  0  0  0  0  0  0  0  0  0  0  0
   37.2530   33.8600   39.1060 H   0  0  0  0  0  0  0  0  0  0  0  0
   37.7310   29.0980   40.2330 O   0  0  0  0  0  0  0  0  0  0  0  0
   37.2360   25.5860   40.7440 C   0  0  0  0  0  0  0  0  0  0  0  0
   36.7830   25.1290   39.4970 C   0  0  0  0  0  0  0  0  0  0  0  0
   36.6520   26.0640   38.4660 C   0  0  0  0  0  0  0  0  0  0  0  0
   36.9680   27.3590   38.7260 N   0  0  0  0  0  0  0  0  0  0  0  0
   37.3960   27.7760   39.9150 C   0  0  0  0  0  0  0  0  0  0  0  0
   37.5350   26.8920   40.9380 N   0  0  0  0  0  0  0  0  0  0  0  0
   36.5460   24.0810   39.3530 H   0  0  0  0  0  0  0  0  0  0  0  0
   36.3090   25.7450   37.5050 H   0  0  0  0  0  0  0  0  0  0  0  0
   37.3700   24.5760   41.8460 C   0  0  0  0  0  0  0  0  0  0  0  0
   36.3580   24.6870   42.7490 F   0  0  0  0  0  0  0  0  0  0  0  0
   37.4330   23.3160   41.2710 F   0  0  0  0  0  0  0  0  0  0  0  0
   38.6270   24.7490   42.4670 F   0  0  0  0  0  0  0  0  0  0  0  0
   39.9350   32.8440   40.1620 O   0  0  0  0  0  0  0  0  0  0  0  0
   40.3750   33.9820   39.5260 C   0  0  2  0  0  3  0  0  0  0  0  0
   41.3930   33.5590   38.4820 C   0  0  0  0  0  3  0  0  0  0  0  0
   41.0420   32.7510   37.8250 H   0  0  0  0  0  0  0  0  0  0  0  0
   42.5060   33.1230   39.4270 C   0  0  0  0  0  3  0  0  0  0  0  0
   43.4520   32.9620   38.9120 H   0  0  0  0  0  0  0  0  0  0  0  0
   42.5760   34.1900   40.3090 O   0  0  0  0  0  0  0  0  0  0  0  0
   41.3080   34.7080   40.4820 C   0  0  0  0  0  3  0  0  0  0  0  0
   41.3550   35.7960   40.1820 H   0  0  0  0  0  0  0  0  0  0  0  0
  1  7  1  6  0  0  0
  1  6  1  0  0  0  0
  1 13  1  0  0  0  0
  2  8  1  6  0  0  0
  2  1  1  0  0  0  0
  2 17  1  0  0  0  0
  3  2  1  0  0  0  0
  3  4  1  0  0  0  0
  4 10  1  0  0  0  0
  4  5  1  0  0  0  0
  4  9  1  0  0  0  0
  5 11  1  1  0  0  0
  6 12  1  6  0  0  0
  6 30  1  0  0  0  0
  6  5  1  0  0  0  0
 13 14  1  0  0  0  0
 15  5  1  0  0  0  0
 16 15  1  0  0  0  0
 18 23  1  0  0  0  0
 18 26  1  0  0  0  0
 19 18  2  0  0  0  0
 20 21  2  0  0  0  0
 20 19  1  0  0  0  0
 21 22  1  0  0  0  0
 22 17  1  0  0  0  0
 22 23  2  0  0  0  0
 24 19  1  0  0  0  0
 25 20  1  0  0  0  0
 26 29  1  0  0  0  0
 26 27  1  0  0  0  0
 28 26  1  0  0  0  0
 31 30  1  1  0  0  0
 31 37  1  0  0  0  0
 32 34  1  0  0  0  0
 32 31  1  0  0  0  0
 33 32  1  0  0  0  0
 34 36  1  0  0  0  0
 35 34  1  0  0  0  0
 36 37  1  0  0  0  0
 38 37  1  0  0  0  0
M  END
>  <minimizedAffinity>
-5.45649624

$$$$

 OpenBabel03242510493D

 38 40  0  0  1  0  0  0  0  0999 V2000
   37.9990   28.8320   39.5210 C   0  0  1  0  0  0  0  0  0  0  0  0
   37.1590   27.6700   39.8740 C   0  0  2  0  0  0  0  0  0  0  0  0
   35.8440   28.0800   40.2650 O   0  0  0  0  0  0  0  0  0  0  0  0
   36.0120   28.6960   41.5100 C   0  0  0  0  0  0  0  0  0  0  0  0
   36.6970   30.0380   41.3320 C   0  0  1  0  0  0  0  0  0  0  0  0
   37.4010   30.1390   40.0030 C   0  0  1  0  0  0  0  0  0  0  0  0
   38.1140   28.9460   38.4110 H   0  0  0  0  0  0  0  0  0  0  0  0
   36.9350   27.0360   38.9770 H   0  0  0  0  0  0  0  0  0  0  0  0
   36.7130   28.1040   42.1690 H   0  0  0  0  0  0  0  0  0  0  0  0
   35.0350   28.8080   42.0050 H   0  0  0  0  0  0  0  0  0  0  0  0
   37.3740   30.2770   42.1750 H   0  0  0  0  0  0  0  0  0  0  0  0
   36.7640   30.5960   39.2230 H   0  0  0  0  0  0  0  0  0  0  0  0
   39.3120   28.6800   40.0110 O   0  0  0  0  0  0  0  0  0  0  0  0
   39.4340   29.0890   40.8920 H   0  0  0  0  0  0  0  0  0  0  0  0
   35.6640   30.9940   41.3540 O   0  0  0  0  0  0  0  0  0  0  0  0
   35.4210   31.2040   40.4200 H   0  0  0  0  0  0  0  0  0  0  0  0
   37.6440   26.8490   40.9280 O   0  0  0  0  0  0  0  0  0  0  0  0
   36.3420   23.6750   39.8900 C   0  0  0  0  0  0  0  0  0  0  0  0
   37.4060   22.7890   40.1150 C   0  0  0  0  0  0  0  0  0  0  0  0
   38.5930   23.3120   40.6390 C   0  0  0  0  0  0  0  0  0  0  0  0
   38.6510   24.6430   40.9000 N   0  0  0  0  0  0  0  0  0  0  0  0
   37.6310   25.4700   40.6790 C   0  0  0  0  0  0  0  0  0  0  0  0
   36.4640   24.9930   40.1720 N   0  0  0  0  0  0  0  0  0  0  0  0
   37.2970   21.7350   39.8860 H   0  0  0  0  0  0  0  0  0  0  0  0
   39.4200   22.6610   40.8210 H   0  0  0  0  0  0  0  0  0  0  0  0
   35.0740   23.1060   39.3250 C   0  0  0  0  0  0  0  0  0  0  0  0
   35.2880   21.8970   38.7370 F   0  0  0  0  0  0  0  0  0  0  0  0
   34.1370   23.0400   40.3460 F   0  0  0  0  0  0  0  0  0  0  0  0
   34.5340   24.0310   38.4040 F   0  0  0  0  0  0  0  0  0  0  0  0
   38.4630   31.0510   40.1750 O   0  0  0  0  0  0  0  0  0  0  0  0
   38.6330   31.8610   39.0760 C   0  0  2  0  0  3  0  0  0  0  0  0
   39.4980   33.0340   39.5000 C   0  0  0  0  0  3  0  0  0  0  0  0
   40.4190   32.7380   40.0220 H   0  0  0  0  0  0  0  0  0  0  0  0
   38.4910   33.7290   40.4090 C   0  0  0  0  0  3  0  0  0  0  0  0
   38.8030   34.7340   40.6870 H   0  0  0  0  0  0  0  0  0  0  0  0
   37.3500   33.7460   39.6220 O   0  0  0  0  0  0  0  0  0  0  0  0
   37.3260   32.6030   38.8490 C   0  0  0  0  0  3  0  0  0  0  0  0
   37.2850   32.9370   37.7700 H   0  0  0  0  0  0  0  0  0  0  0  0
  1  7  1  6  0  0  0
  1  2  1  0  0  0  0
  1  6  1  0  0  0  0
  1 13  1  0  0  0  0
  2  8  1  6  0  0  0
  2  3  1  0  0  0  0
  2 17  1  0  0  0  0
  3  4  1  0  0  0  0
  4 10  1  0  0  0  0
  4  9  1  0  0  0  0
  5 15  1  0  0  0  0
  5  4  1  0  0  0  0
  5 11  1  1  0  0  0
  6 12  1  6  0  0  0
  6 30  1  0  0  0  0
  6  5  1  0  0  0  0
 13 14  1  0  0  0  0
 16 15  1  0  0  0  0
 18 19  2  0  0  0  0
 18 23  1  0  0  0  0
 19 20  1  0  0  0  0
 20 25  1  0  0  0  0
 20 21  2  0  0  0  0
 22 21  1  0  0  0  0
 22 17  1  0  0  0  0
 23 22  2  0  0  0  0
 24 19  1  0  0  0  0
 26 18  1  0  0  0  0
 26 28  1  0  0  0  0
 27 26  1  0  0  0  0
 29 26  1  0  0  0  0
 31 32  1  0  0  0  0
 31 30  1  1  0  0  0
 32 33  1  0  0  0  0
 32 34  1  0  0  0  0
 34 35  1  0  0  0  0
 36 34  1  0  0  0  0
 37 31  1  0  0  0  0
 37 36  1  0  0  0  0
 38 37  1  0  0  0  0
M  END
>  <minimizedAffinity>
-5.41548443

$$$$

 OpenBabel03242510493D

 38 40  0  0  1  0  0  0  0  0999 V2000
   40.4550   31.4550   40.5130 C   0  0  1  0  0  0  0  0  0  0  0  0
   39.8660   30.6900   41.6300 C   0  0  2  0  0  0  0  0  0  0  0  0
   40.2430   31.2450   42.8950 O   0  0  0  0  0  0  0  0  0  0  0  0
   41.6020   30.9430   43.0320 C   0  0  0  0  0  0  0  0  0  0  0  0
   42.4180   31.7990   42.0820 C   0  0  1  0  0  0  0  0  0  0  0  0
   41.5730   32.3710   40.9720 C   0  0  1  0  0  0  0  0  0  0  0  0
   39.7030   32.1230   40.0180 H   0  0  0  0  0  0  0  0  0  0  0  0
   38.7510   30.8020   41.6630 H   0  0  0  0  0  0  0  0  0  0  0  0
   41.8200   29.8810   42.7170 H   0  0  0  0  0  0  0  0  0  0  0  0
   41.9140   31.0970   44.0770 H   0  0  0  0  0  0  0  0  0  0  0  0
   43.3020   31.2610   41.6890 H   0  0  0  0  0  0  0  0  0  0  0  0
   41.1850   33.3780   41.2160 H   0  0  0  0  0  0  0  0  0  0  0  0
   40.9110   30.5970   39.4920 O   0  0  0  0  0  0  0  0  0  0  0  0
   41.8560   30.3630   39.5910 H   0  0  0  0  0  0  0  0  0  0  0  0
   42.9020   32.8680   42.8600 O   0  0  0  0  0  0  0  0  0  0  0  0
   42.2960   33.6370   42.7350 H   0  0  0  0  0  0  0  0  0  0  0  0
   40.2070   29.3110   41.6890 O   0  0  0  0  0  0  0  0  0  0  0  0
   38.5590   26.1880   42.3020 C   0  0  0  0  0  0  0  0  0  0  0  0
   37.2200   26.5530   42.5060 C   0  0  0  0  0  0  0  0  0  0  0  0
   36.8920   27.9100   42.4250 C   0  0  0  0  0  0  0  0  0  0  0  0
   37.8840   28.7980   42.1550 N   0  0  0  0  0  0  0  0  0  0  0  0
   39.1500   28.4350   41.9650 C   0  0  0  0  0  0  0  0  0  0  0  0
   39.5010   27.1240   42.0370 N   0  0  0  0  0  0  0  0  0  0  0  0
   36.4740   25.7950   42.7170 H   0  0  0  0  0  0  0  0  0  0  0  0
   35.8790   28.2180   42.5740 H   0  0  0  0  0  0  0  0  0  0  0  0
   38.9030   24.7310   42.3940 C   0  0  0  0  0  0  0  0  0  0  0  0
   39.6190   24.3180   41.3130 F   0  0  0  0  0  0  0  0  0  0  0  0
   39.5780   24.5210   43.5880 F   0  0  0  0  0  0  0  0  0  0  0  0
   37.7070   23.9910   42.5250 F   0  0  0  0  0  0  0  0  0  0  0  0
   42.4310   32.5750   39.8730 O   0  0  0  0  0  0  0  0  0  0  0  0
   42.7030   33.9080   39.6680 C   0  0  2  0  0  3  0  0  0  0  0  0
   41.6780   34.4390   38.6830 C   0  0  0  0  0  3  0  0  0  0  0  0
   40.6390   34.2000   38.9540 H   0  0  0  0  0  0  0  0  0  0  0  0
   42.1600   33.6940   37.4440 C   0  0  0  0  0  3  0  0  0  0  0  0
   41.7040   34.0680   36.5280 H   0  0  0  0  0  0  0  0  0  0  0  0
   43.5240   33.9330   37.4710 O   0  0  0  0  0  0  0  0  0  0  0  0
   43.9390   33.9920   38.7870 C   0  0  0  0  0  3  0  0  0  0  0  0
   44.4180   35.0040   38.9350 H   0  0  0  0  0  0  0  0  0  0  0  0
  1  7  1  6  0  0  0
  1  6  1  0  0  0  0
  1  2  1  0  0  0  0
  2  8  1  6  0  0  0
  2 17  1  0  0  0  0
  2  3  1  0  0  0  0
  3  4  1  0  0  0  0
  4 10  1  0  0  0  0
  5 11  1  6  0  0  0
  5 15  1  0  0  0  0
  5  4  1  0  0  0  0
  6 12  1  1  0  0  0
  6  5  1  0  0  0  0
  9  4  1  0  0  0  0
 13 14  1  0  0  0  0
 13  1  1  0  0  0  0
 16 15  1  0  0  0  0
 17 22  1  0  0  0  0
 18 26  1  0  0  0  0
 18 19  1  0  0  0  0
 19 24  1  0  0  0  0
 20 19  2  0  0  0  0
 20 25  1  0  0  0  0
 21 20  1  0  0  0  0
 22 23  1  0  0  0  0
 22 21  2  0  0  0  0
 23 18  2  0  0  0  0
 26 29  1  0  0  0  0
 26 28  1  0  0  0  0
 27 26  1  0  0  0  0
 30  6  1  0  0  0  0
 31 30  1  6  0  0  0
 32 33  1  0  0  0  0
 32 31  1  0  0  0  0
 34 36  1  0  0  0  0
 34 32  1  0  0  0  0
 35 34  1  0  0  0  0
 36 37  1  0  0  0  0
 37 38  1  0  0  0  0
 37 31  1  0  0  0  0
M  END
>  <minimizedAffinity>
-5.31768179

$$$$
