
 OpenBabel03252501093D

 39 42  0  0  1  0  0  0  0  0999 V2000
   35.0630   28.8100   40.3420 O   0  0  0  0  0  0  0  0  0  0  0  0
   36.2600   29.5480   40.9430 P   0  0  2  0  0  0  0  0  0  0  0  0
   35.6850   31.1020   41.3080 O   0  0  0  0  0  0  0  0  0  0  0  0
   36.3120   31.5160   41.9250 H   0  0  0  0  0  0  0  0  0  0  0  0
   37.5690   29.5120   39.9670 O   0  0  0  0  0  0  0  0  0  0  0  0
   37.5840   30.6830   37.8480 C   0  0  1  0  0  0  0  0  0  0  0  0
   38.5770   29.6150   37.6770 C   0  0  0  0  0  0  0  0  0  0  0  0
   37.3820   29.4650   38.6350 C   0  0  1  0  0  0  0  0  0  0  0  0
   36.8890   30.9170   37.0180 H   0  0  0  0  0  0  0  0  0  0  0  0
   38.6010   29.0070   36.7570 H   0  0  0  0  0  0  0  0  0  0  0  0
   39.5390   29.6240   38.2360 H   0  0  0  0  0  0  0  0  0  0  0  0
   36.7080   28.6600   38.2850 H   0  0  0  0  0  0  0  0  0  0  0  0
   39.8860   33.2100   39.4840 C   0  0  0  0  0  0  0  0  0  0  0  0
   39.4560   32.0970   38.7690 C   0  0  0  0  0  0  0  0  0  0  0  0
   38.0740   31.8860   38.6040 C   0  0  0  0  0  0  0  0  0  0  0  0
   37.2000   32.7740   39.1450 N   0  0  0  0  0  0  0  0  0  0  0  0
   37.6480   33.8540   39.8380 C   0  0  0  0  0  0  0  0  0  0  0  0
   38.9820   34.0720   40.0080 N   0  0  0  0  0  0  0  0  0  0  0  0
   40.9530   33.3470   39.5940 H   0  0  0  0  0  0  0  0  0  0  0  0
   40.1750   31.4300   38.3640 H   0  0  0  0  0  0  0  0  0  0  0  0
   36.8680   34.4750   40.2130 H   0  0  0  0  0  0  0  0  0  0  0  0
   36.5610   28.7690   42.4000 O   0  0  0  0  0  0  0  0  0  0  0  0
   37.5500   27.8200   42.5850 C   0  0  0  0  0  0  0  0  0  0  0  0
   38.8210   27.9910   43.1010 C   0  0  0  0  0  0  0  0  0  0  0  0
   39.6800   26.9470   43.2180 C   0  0  0  0  0  0  0  0  0  0  0  0
   39.3120   25.6830   42.8260 C   0  0  0  0  0  0  0  0  0  0  0  0
   38.0220   25.5410   42.3100 C   0  0  0  0  0  0  0  0  0  0  0  0
   37.1720   26.6000   42.1990 N   0  0  0  0  0  0  0  0  0  0  0  0
   39.0460   29.0150   43.3900 H   0  0  0  0  0  0  0  0  0  0  0  0
   40.6590   27.1820   43.6350 H   0  0  0  0  0  0  0  0  0  0  0  0
   39.9960   24.8570   42.9210 H   0  0  0  0  0  0  0  0  0  0  0  0
   37.5980   24.1740   41.8770 C   0  0  2  0  0  3  0  0  0  0  0  0
   38.6760   23.4640   41.0830 C   0  0  0  0  0  3  0  0  0  0  0  0
   39.3510   22.8540   41.6860 H   0  0  0  0  0  0  0  0  0  0  0  0
   37.9070   22.7000   40.0270 C   0  0  0  0  0  3  0  0  0  0  0  0
   37.9430   21.6250   40.3740 H   0  0  0  0  0  0  0  0  0  0  0  0
   36.6270   23.1900   39.9850 O   0  0  0  0  0  0  0  0  0  0  0  0
   36.5030   24.2590   40.8350 C   0  0  0  0  0  3  0  0  0  0  0  0
   35.4900   24.1680   41.3030 H   0  0  0  0  0  0  0  0  0  0  0  0
  2  1  2  6  0  0  0
  2  3  1  0  0  0  0
  2 22  1  0  0  0  0
  3  4  1  0  0  0  0
  5  2  1  0  0  0  0
  6  9  1  6  0  0  0
  6 15  1  0  0  0  0
  6  8  1  0  0  0  0
  7  6  1  0  0  0  0
  7 11  1  0  0  0  0
  7  8  1  0  0  0  0
  8 12  1  6  0  0  0
  8  5  1  0  0  0  0
 10  7  1  0  0  0  0
 13 19  1  0  0  0  0
 13 18  1  0  0  0  0
 14 13  2  0  0  0  0
 15 14  1  0  0  0  0
 15 16  2  0  0  0  0
 16 17  1  0  0  0  0
 17 18  2  0  0  0  0
 17 21  1  0  0  0  0
 20 14  1  0  0  0  0
 22 23  1  0  0  0  0
 23 24  1  0  0  0  0
 24 25  2  0  0  0  0
 24 29  1  0  0  0  0
 25 30  1  0  0  0  0
 26 31  1  0  0  0  0
 26 25  1  0  0  0  0
 27 26  2  0  0  0  0
 28 27  1  0  0  0  0
 28 23  2  0  0  0  0
 32 27  1  6  0  0  0
 33 34  1  0  0  0  0
 33 32  1  0  0  0  0
 35 36  1  0  0  0  0
 35 33  1  0  0  0  0
 37 35  1  0  0  0  0
 37 38  1  0  0  0  0
 38 39  1  0  0  0  0
 38 32  1  0  0  0  0
M  END
>  <minimizedAffinity>
-6.00400734

$$$$

 OpenBabel03252501093D

 39 42  0  0  1  0  0  0  0  0999 V2000
   34.8080   29.0080   40.2710 O   0  0  0  0  0  0  0  0  0  0  0  0
   36.1410   29.5280   40.8120 P   0  0  2  0  0  0  0  0  0  0  0  0
   35.7980   31.0690   41.4330 O   0  0  0  0  0  0  0  0  0  0  0  0
   36.5310   31.3260   42.0170 H   0  0  0  0  0  0  0  0  0  0  0  0
   37.3270   29.4890   39.6890 O   0  0  0  0  0  0  0  0  0  0  0  0
   37.2450   30.8490   37.6880 C   0  0  1  0  0  0  0  0  0  0  0  0
   38.0840   29.7040   37.3110 C   0  0  0  0  0  0  0  0  0  0  0  0
   36.9910   29.5900   38.3890 C   0  0  1  0  0  0  0  0  0  0  0  0
   36.4950   31.2330   36.9690 H   0  0  0  0  0  0  0  0  0  0  0  0
   37.9370   29.1870   36.3480 H   0  0  0  0  0  0  0  0  0  0  0  0
   39.0960   29.5580   37.7510 H   0  0  0  0  0  0  0  0  0  0  0  0
   36.1950   28.8970   38.0570 H   0  0  0  0  0  0  0  0  0  0  0  0
   39.9880   32.9840   39.1990 C   0  0  0  0  0  0  0  0  0  0  0  0
   39.3560   31.9960   38.4500 C   0  0  0  0  0  0  0  0  0  0  0  0
   37.9500   31.9170   38.4770 C   0  0  0  0  0  0  0  0  0  0  0  0
   37.2510   32.8040   39.2300 N   0  0  0  0  0  0  0  0  0  0  0  0
   37.8950   33.7610   39.9520 C   0  0  0  0  0  0  0  0  0  0  0  0
   39.2540   33.8500   39.9380 N   0  0  0  0  0  0  0  0  0  0  0  0
   41.0680   33.0220   39.1600 H   0  0  0  0  0  0  0  0  0  0  0  0
   39.9430   31.3240   37.8770 H   0  0  0  0  0  0  0  0  0  0  0  0
   37.2390   34.3950   40.5010 H   0  0  0  0  0  0  0  0  0  0  0  0
   36.4980   28.5290   42.1130 O   0  0  0  0  0  0  0  0  0  0  0  0
   37.1460   27.3130   42.0050 C   0  0  0  0  0  0  0  0  0  0  0  0
   36.7970   26.2150   41.2400 C   0  0  0  0  0  0  0  0  0  0  0  0
   37.5470   25.0840   41.2450 C   0  0  0  0  0  0  0  0  0  0  0  0
   38.6830   24.9950   42.0140 C   0  0  0  0  0  0  0  0  0  0  0  0
   39.0110   26.1180   42.7750 C   0  0  0  0  0  0  0  0  0  0  0  0
   38.2460   27.2460   42.7590 N   0  0  0  0  0  0  0  0  0  0  0  0
   35.8890   26.3540   40.6580 H   0  0  0  0  0  0  0  0  0  0  0  0
   37.1900   24.2740   40.6110 H   0  0  0  0  0  0  0  0  0  0  0  0
   39.2760   24.0960   42.0150 H   0  0  0  0  0  0  0  0  0  0  0  0
   40.2420   26.0450   43.6200 C   0  0  2  0  0  3  0  0  0  0  0  0
   40.9930   27.3620   43.6530 C   0  0  0  0  0  3  0  0  0  0  0  0
   40.7040   28.0250   44.4700 H   0  0  0  0  0  0  0  0  0  0  0  0
   42.4500   26.9500   43.6590 C   0  0  0  0  0  3  0  0  0  0  0  0
   42.7890   27.1290   44.7220 H   0  0  0  0  0  0  0  0  0  0  0  0
   42.5270   25.6280   43.3050 O   0  0  0  0  0  0  0  0  0  0  0  0
   41.2820   25.1540   42.9740 C   0  0  0  0  0  3  0  0  0  0  0  0
   41.2280   24.1120   43.3780 H   0  0  0  0  0  0  0  0  0  0  0  0
  2  1  2  6  0  0  0
  2  3  1  0  0  0  0
  2 22  1  0  0  0  0
  3  4  1  0  0  0  0
  5  2  1  0  0  0  0
  6  9  1  6  0  0  0
  6  8  1  0  0  0  0
  6 15  1  0  0  0  0
  7  6  1  0  0  0  0
  7 11  1  0  0  0  0
  7  8  1  0  0  0  0
  8 12  1  6  0  0  0
  8  5  1  0  0  0  0
 10  7  1  0  0  0  0
 13 18  1  0  0  0  0
 14 15  1  0  0  0  0
 14 13  2  0  0  0  0
 15 16  2  0  0  0  0
 16 17  1  0  0  0  0
 17 21  1  0  0  0  0
 18 17  2  0  0  0  0
 19 13  1  0  0  0  0
 20 14  1  0  0  0  0
 23 22  1  0  0  0  0
 23 28  1  0  0  0  0
 24 25  1  0  0  0  0
 24 23  2  0  0  0  0
 25 26  2  0  0  0  0
 26 31  1  0  0  0  0
 26 27  1  0  0  0  0
 28 27  2  0  0  0  0
 29 24  1  0  0  0  0
 30 25  1  0  0  0  0
 32 27  1  6  0  0  0
 32 33  1  0  0  0  0
 33 35  1  0  0  0  0
 33 34  1  0  0  0  0
 35 36  1  0  0  0  0
 37 35  1  0  0  0  0
 38 37  1  0  0  0  0
 38 39  1  0  0  0  0
 38 32  1  0  0  0  0
M  END
>  <minimizedAffinity>
-5.9204073

$$$$

 OpenBabel03252501093D

 39 42  0  0  1  0  0  0  0  0999 V2000
   36.5140   30.0910   39.1540 O   0  0  0  0  0  0  0  0  0  0  0  0
   35.8630   29.6000   40.4480 P   0  0  2  0  0  0  0  0  0  0  0  0
   35.6420   30.9940   41.3900 O   0  0  0  0  0  0  0  0  0  0  0  0
   35.0020   30.7840   42.0900 H   0  0  0  0  0  0  0  0  0  0  0  0
   36.7250   28.4140   41.1680 O   0  0  0  0  0  0  0  0  0  0  0  0
   37.3800   27.2470   43.1850 C   0  0  1  0  0  0  0  0  0  0  0  0
   38.2640   28.4180   43.1430 C   0  0  0  0  0  0  0  0  0  0  0  0
   36.8630   28.4370   42.5070 C   0  0  1  0  0  0  0  0  0  0  0  0
   36.9370   26.9340   44.1510 H   0  0  0  0  0  0  0  0  0  0  0  0
   38.4460   29.0230   44.0480 H   0  0  0  0  0  0  0  0  0  0  0  0
   39.0570   28.5190   42.3690 H   0  0  0  0  0  0  0  0  0  0  0  0
   36.2120   29.1600   43.0330 H   0  0  0  0  0  0  0  0  0  0  0  0
   37.3400   23.9710   41.2790 C   0  0  0  0  0  0  0  0  0  0  0  0
   36.9270   25.0210   42.0940 C   0  0  0  0  0  0  0  0  0  0  0  0
   37.7980   26.1080   42.2980 C   0  0  0  0  0  0  0  0  0  0  0  0
   39.0150   26.1030   41.6950 N   0  0  0  0  0  0  0  0  0  0  0  0
   39.3940   25.0640   40.9040 C   0  0  0  0  0  0  0  0  0  0  0  0
   38.5630   24.0040   40.6970 N   0  0  0  0  0  0  0  0  0  0  0  0
   36.6510   23.1500   41.1400 H   0  0  0  0  0  0  0  0  0  0  0  0
   35.9670   24.9810   42.5430 H   0  0  0  0  0  0  0  0  0  0  0  0
   40.3680   25.1750   40.4890 H   0  0  0  0  0  0  0  0  0  0  0  0
   34.3420   29.0590   39.9880 O   0  0  0  0  0  0  0  0  0  0  0  0
   33.9520   28.8590   38.6760 C   0  0  0  0  0  0  0  0  0  0  0  0
   34.6100   28.1620   37.6790 C   0  0  0  0  0  0  0  0  0  0  0  0
   34.0870   28.0570   36.4300 C   0  0  0  0  0  0  0  0  0  0  0  0
   32.8830   28.6420   36.1180 C   0  0  0  0  0  0  0  0  0  0  0  0
   32.2420   29.3370   37.1450 C   0  0  0  0  0  0  0  0  0  0  0  0
   32.7810   29.4330   38.3930 N   0  0  0  0  0  0  0  0  0  0  0  0
   35.5540   27.7260   37.9930 H   0  0  0  0  0  0  0  0  0  0  0  0
   34.6790   27.4900   35.7130 H   0  0  0  0  0  0  0  0  0  0  0  0
   32.4720   28.5560   35.1260 H   0  0  0  0  0  0  0  0  0  0  0  0
   30.9310   29.9820   36.8300 C   0  0  2  0  0  3  0  0  0  0  0  0
   31.0890   31.1970   35.9370 C   0  0  0  0  0  3  0  0  0  0  0  0
   31.0230   30.9830   34.8690 H   0  0  0  0  0  0  0  0  0  0  0  0
   30.0480   32.1660   36.4530 C   0  0  0  0  0  3  0  0  0  0  0  0
   29.2270   32.1370   35.6780 H   0  0  0  0  0  0  0  0  0  0  0  0
   29.6200   31.7290   37.6800 O   0  0  0  0  0  0  0  0  0  0  0  0
   30.3410   30.6270   38.0660 C   0  0  0  0  0  3  0  0  0  0  0  0
   29.6140   29.9420   38.5720 H   0  0  0  0  0  0  0  0  0  0  0  0
  2  1  2  6  0  0  0
  2  5  1  0  0  0  0
  2  3  1  0  0  0  0
  3  4  1  0  0  0  0
  5  8  1  0  0  0  0
  6  9  1  1  0  0  0
  7  6  1  0  0  0  0
  7 10  1  0  0  0  0
  8 12  1  1  0  0  0
  8  7  1  0  0  0  0
  8  6  1  0  0  0  0
 11  7  1  0  0  0  0
 13 14  1  0  0  0  0
 14 15  2  0  0  0  0
 14 20  1  0  0  0  0
 15  6  1  0  0  0  0
 16 15  1  0  0  0  0
 17 16  2  0  0  0  0
 18 17  1  0  0  0  0
 18 13  2  0  0  0  0
 19 13  1  0  0  0  0
 21 17  1  0  0  0  0
 22  2  1  0  0  0  0
 23 22  1  0  0  0  0
 24 29  1  0  0  0  0
 24 23  2  0  0  0  0
 25 24  1  0  0  0  0
 26 25  2  0  0  0  0
 26 27  1  0  0  0  0
 27 28  2  0  0  0  0
 28 23  1  0  0  0  0
 30 25  1  0  0  0  0
 31 26  1  0  0  0  0
 32 27  1  1  0  0  0
 32 38  1  0  0  0  0
 33 35  1  0  0  0  0
 33 32  1  0  0  0  0
 34 33  1  0  0  0  0
 35 37  1  0  0  0  0
 36 35  1  0  0  0  0
 37 38  1  0  0  0  0
 38 39  1  0  0  0  0
M  END
>  <minimizedAffinity>
-5.91891956

$$$$

 OpenBabel03252501093D

 39 42  0  0  1  0  0  0  0  0999 V2000
   35.6860   28.4440   41.2280 O   0  0  0  0  0  0  0  0  0  0  0  0
   36.6020   29.6670   41.2870 P   0  0  2  0  0  0  0  0  0  0  0  0
   35.5570   31.0000   41.3880 O   0  0  0  0  0  0  0  0  0  0  0  0
   36.0740   31.7640   41.6930 H   0  0  0  0  0  0  0  0  0  0  0  0
   37.6580   29.7150   40.0410 O   0  0  0  0  0  0  0  0  0  0  0  0
   37.3850   31.0770   38.0580 C   0  0  1  0  0  0  0  0  0  0  0  0
   38.1390   29.9070   37.5910 C   0  0  0  0  0  0  0  0  0  0  0  0
   37.1760   29.8260   38.7890 C   0  0  1  0  0  0  0  0  0  0  0  0
   36.5680   31.4840   37.4300 H   0  0  0  0  0  0  0  0  0  0  0  0
   37.8660   29.3950   36.6530 H   0  0  0  0  0  0  0  0  0  0  0  0
   39.1900   29.7310   37.9100 H   0  0  0  0  0  0  0  0  0  0  0  0
   36.3260   29.1580   38.5530 H   0  0  0  0  0  0  0  0  0  0  0  0
   38.3560   34.0970   40.1320 C   0  0  0  0  0  0  0  0  0  0  0  0
   37.5740   33.1320   39.5060 C   0  0  0  0  0  0  0  0  0  0  0  0
   38.2090   32.1230   38.7560 C   0  0  0  0  0  0  0  0  0  0  0  0
   39.5630   32.1180   38.6660 N   0  0  0  0  0  0  0  0  0  0  0  0
   40.3040   33.0740   39.2900 C   0  0  0  0  0  0  0  0  0  0  0  0
   39.7050   34.0570   40.0180 N   0  0  0  0  0  0  0  0  0  0  0  0
   37.8420   34.8590   40.7010 H   0  0  0  0  0  0  0  0  0  0  0  0
   36.5190   33.1750   39.6040 H   0  0  0  0  0  0  0  0  0  0  0  0
   41.3530   32.9640   39.1450 H   0  0  0  0  0  0  0  0  0  0  0  0
   37.3980   29.5400   42.7590 O   0  0  0  0  0  0  0  0  0  0  0  0
   38.4610   28.6880   42.9980 C   0  0  0  0  0  0  0  0  0  0  0  0
   38.4310   27.3700   43.4170 C   0  0  0  0  0  0  0  0  0  0  0  0
   39.5750   26.6650   43.6060 C   0  0  0  0  0  0  0  0  0  0  0  0
   40.8030   27.2400   43.3870 C   0  0  0  0  0  0  0  0  0  0  0  0
   40.8020   28.5710   42.9640 C   0  0  0  0  0  0  0  0  0  0  0  0
   39.6450   29.2650   42.7790 N   0  0  0  0  0  0  0  0  0  0  0  0
   37.4290   26.9790   43.5710 H   0  0  0  0  0  0  0  0  0  0  0  0
   39.4480   25.6350   43.9380 H   0  0  0  0  0  0  0  0  0  0  0  0
   41.7080   26.6770   43.5380 H   0  0  0  0  0  0  0  0  0  0  0  0
   42.1270   29.2190   42.7180 C   0  0  2  0  0  3  0  0  0  0  0  0
   41.9930   30.6970   42.4080 C   0  0  0  0  0  3  0  0  0  0  0  0
   42.0520   31.3480   43.2810 H   0  0  0  0  0  0  0  0  0  0  0  0
   43.0570   30.9460   41.3600 C   0  0  0  0  0  3  0  0  0  0  0  0
   43.8750   31.4930   41.9150 H   0  0  0  0  0  0  0  0  0  0  0  0
   43.4770   29.7350   40.8740 O   0  0  0  0  0  0  0  0  0  0  0  0
   42.7340   28.7220   41.4240 C   0  0  0  0  0  3  0  0  0  0  0  0
   43.4460   27.8780   41.6080 H   0  0  0  0  0  0  0  0  0  0  0  0
  2  1  2  6  0  0  0
  2  3  1  0  0  0  0
  2 22  1  0  0  0  0
  3  4  1  0  0  0  0
  5  2  1  0  0  0  0
  6  9  1  6  0  0  0
  6 15  1  0  0  0  0
  6  8  1  0  0  0  0
  7 11  1  0  0  0  0
  7  6  1  0  0  0  0
  7  8  1  0  0  0  0
  8 12  1  6  0  0  0
  8  5  1  0  0  0  0
 10  7  1  0  0  0  0
 13 19  1  0  0  0  0
 14 20  1  0  0  0  0
 14 13  2  0  0  0  0
 15 14  1  0  0  0  0
 16 15  2  0  0  0  0
 16 17  1  0  0  0  0
 17 18  2  0  0  0  0
 18 13  1  0  0  0  0
 21 17  1  0  0  0  0
 22 23  1  0  0  0  0
 23 24  1  0  0  0  0
 24 29  1  0  0  0  0
 24 25  2  0  0  0  0
 25 30  1  0  0  0  0
 26 31  1  0  0  0  0
 26 25  1  0  0  0  0
 27 26  2  0  0  0  0
 28 27  1  0  0  0  0
 28 23  2  0  0  0  0
 32 27  1  6  0  0  0
 33 32  1  0  0  0  0
 33 34  1  0  0  0  0
 35 36  1  0  0  0  0
 35 33  1  0  0  0  0
 37 35  1  0  0  0  0
 37 38  1  0  0  0  0
 38 39  1  0  0  0  0
 38 32  1  0  0  0  0
M  END
>  <minimizedAffinity>
-5.75250673

$$$$

 OpenBabel03252501093D

 39 42  0  0  1  0  0  0  0  0999 V2000
   37.3090   28.4290   40.2160 O   0  0  0  0  0  0  0  0  0  0  0  0
   36.9330   29.0530   41.5610 P   0  0  2  0  0  0  0  0  0  0  0  0
   35.4520   29.8340   41.2900 O   0  0  0  0  0  0  0  0  0  0  0  0
   35.0440   30.0120   42.1540 H   0  0  0  0  0  0  0  0  0  0  0  0
   38.1150   30.0120   42.1550 O   0  0  0  0  0  0  0  0  0  0  0  0
   39.9360   30.7500   40.7410 C   0  0  1  0  0  0  0  0  0  0  0  0
   40.4820   30.8280   42.1020 C   0  0  0  0  0  0  0  0  0  0  0  0
   39.3770   29.8240   41.7270 C   0  0  1  0  0  0  0  0  0  0  0  0
   40.5700   30.3580   39.9220 H   0  0  0  0  0  0  0  0  0  0  0  0
   41.4920   30.4470   42.3290 H   0  0  0  0  0  0  0  0  0  0  0  0
   40.1090   31.5780   42.8340 H   0  0  0  0  0  0  0  0  0  0  0  0
   39.7530   28.7870   41.8190 H   0  0  0  0  0  0  0  0  0  0  0  0
   37.3150   32.8310   38.9620 C   0  0  0  0  0  0  0  0  0  0  0  0
   38.1060   31.7440   39.3210 C   0  0  0  0  0  0  0  0  0  0  0  0
   39.0590   31.9050   40.3450 C   0  0  0  0  0  0  0  0  0  0  0  0
   39.1780   33.1130   40.9540 N   0  0  0  0  0  0  0  0  0  0  0  0
   38.3910   34.1580   40.5840 C   0  0  0  0  0  0  0  0  0  0  0  0
   37.4650   34.0190   39.5950 N   0  0  0  0  0  0  0  0  0  0  0  0
   36.5920   32.6790   38.1730 H   0  0  0  0  0  0  0  0  0  0  0  0
   37.9770   30.8200   38.8170 H   0  0  0  0  0  0  0  0  0  0  0  0
   38.5790   35.0500   41.1340 H   0  0  0  0  0  0  0  0  0  0  0  0
   36.6360   27.7490   42.5740 O   0  0  0  0  0  0  0  0  0  0  0  0
   37.3610   26.5710   42.5600 C   0  0  0  0  0  0  0  0  0  0  0  0
   36.9700   25.3250   42.1080 C   0  0  0  0  0  0  0  0  0  0  0  0
   37.8100   24.2590   42.1650 C   0  0  0  0  0  0  0  0  0  0  0  0
   39.0800   24.3880   42.6740 C   0  0  0  0  0  0  0  0  0  0  0  0
   39.4460   25.6590   43.1210 C   0  0  0  0  0  0  0  0  0  0  0  0
   38.5910   26.7180   43.0580 N   0  0  0  0  0  0  0  0  0  0  0  0
   35.9560   25.2940   41.7190 H   0  0  0  0  0  0  0  0  0  0  0  0
   37.4110   23.3190   41.7860 H   0  0  0  0  0  0  0  0  0  0  0  0
   39.7430   23.5410   42.7160 H   0  0  0  0  0  0  0  0  0  0  0  0
   40.8230   25.8240   43.6800 C   0  0  2  0  0  3  0  0  0  0  0  0
   41.2860   27.2680   43.6470 C   0  0  0  0  0  3  0  0  0  0  0  0
   41.0580   27.8350   44.5510 H   0  0  0  0  0  0  0  0  0  0  0  0
   42.7590   27.1700   43.3150 C   0  0  0  0  0  3  0  0  0  0  0  0
   43.2830   27.3900   44.2920 H   0  0  0  0  0  0  0  0  0  0  0  0
   43.0180   25.9030   42.8600 O   0  0  0  0  0  0  0  0  0  0  0  0
   41.8510   25.1880   42.7680 C   0  0  0  0  0  3  0  0  0  0  0  0
   42.0970   24.1470   43.0990 H   0  0  0  0  0  0  0  0  0  0  0  0
  2  1  2  6  0  0  0
  2  5  1  0  0  0  0
  2 22  1  0  0  0  0
  3  2  1  0  0  0  0
  3  4  1  0  0  0  0
  6  9  1  6  0  0  0
  6  8  1  0  0  0  0
  6  7  1  0  0  0  0
  7 10  1  0  0  0  0
  7 11  1  0  0  0  0
  8 12  1  6  0  0  0
  8  7  1  0  0  0  0
  8  5  1  0  0  0  0
 13 14  2  0  0  0  0
 13 18  1  0  0  0  0
 14 15  1  0  0  0  0
 15  6  1  0  0  0  0
 15 16  2  0  0  0  0
 17 16  1  0  0  0  0
 17 21  1  0  0  0  0
 18 17  2  0  0  0  0
 19 13  1  0  0  0  0
 20 14  1  0  0  0  0
 23 22  1  0  0  0  0
 23 28  1  0  0  0  0
 24 25  1  0  0  0  0
 24 23  2  0  0  0  0
 25 26  2  0  0  0  0
 26 31  1  0  0  0  0
 26 27  1  0  0  0  0
 28 27  2  0  0  0  0
 29 24  1  0  0  0  0
 30 25  1  0  0  0  0
 32 27  1  6  0  0  0
 33 32  1  0  0  0  0
 33 34  1  0  0  0  0
 35 33  1  0  0  0  0
 35 36  1  0  0  0  0
 37 35  1  0  0  0  0
 38 37  1  0  0  0  0
 38 39  1  0  0  0  0
 38 32  1  0  0  0  0
M  END
>  <minimizedAffinity>
-5.6907382

$$$$

 OpenBabel03252501093D

 39 42  0  0  1  0  0  0  0  0999 V2000
   36.1350   28.9370   40.0800 O   0  0  0  0  0  0  0  0  0  0  0  0
   36.8020   29.8560   41.1030 P   0  0  2  0  0  0  0  0  0  0  0  0
   35.6660   31.0790   41.4090 O   0  0  0  0  0  0  0  0  0  0  0  0
   35.9230   31.5280   42.2320 H   0  0  0  0  0  0  0  0  0  0  0  0
   38.2640   30.3880   40.6040 O   0  0  0  0  0  0  0  0  0  0  0  0
   39.9870   30.4210   38.9040 C   0  0  1  0  0  0  0  0  0  0  0  0
   40.2960   29.2310   39.7080 C   0  0  0  0  0  0  0  0  0  0  0  0
   38.8600   29.7660   39.5700 C   0  0  1  0  0  0  0  0  0  0  0  0
   40.0740   30.3690   37.8010 H   0  0  0  0  0  0  0  0  0  0  0  0
   40.5570   28.2740   39.2250 H   0  0  0  0  0  0  0  0  0  0  0  0
   40.6560   29.3190   40.7570 H   0  0  0  0  0  0  0  0  0  0  0  0
   38.2260   29.0310   39.0370 H   0  0  0  0  0  0  0  0  0  0  0  0
   41.8550   32.9460   41.0260 C   0  0  0  0  0  0  0  0  0  0  0  0
   41.4580   31.7300   40.4770 C   0  0  0  0  0  0  0  0  0  0  0  0
   40.4430   31.7230   39.5010 C   0  0  0  0  0  0  0  0  0  0  0  0
   39.8820   32.8990   39.1210 N   0  0  0  0  0  0  0  0  0  0  0  0
   40.2900   34.0730   39.6730 C   0  0  0  0  0  0  0  0  0  0  0  0
   41.2690   34.0980   40.6200 N   0  0  0  0  0  0  0  0  0  0  0  0
   42.6360   32.9210   41.7730 H   0  0  0  0  0  0  0  0  0  0  0  0
   41.9250   30.8360   40.8050 H   0  0  0  0  0  0  0  0  0  0  0  0
   39.7750   34.9250   39.2940 H   0  0  0  0  0  0  0  0  0  0  0  0
   36.9310   28.9300   42.4970 O   0  0  0  0  0  0  0  0  0  0  0  0
   37.9010   27.9660   42.7040 C   0  0  0  0  0  0  0  0  0  0  0  0
   39.1830   28.1280   43.1940 C   0  0  0  0  0  0  0  0  0  0  0  0
   40.0210   27.0690   43.3390 C   0  0  0  0  0  0  0  0  0  0  0  0
   39.6180   25.8000   43.0020 C   0  0  0  0  0  0  0  0  0  0  0  0
   38.3180   25.6680   42.5110 C   0  0  0  0  0  0  0  0  0  0  0  0
   37.4900   26.7410   42.3710 N   0  0  0  0  0  0  0  0  0  0  0  0
   39.4360   29.1560   43.4410 H   0  0  0  0  0  0  0  0  0  0  0  0
   41.0110   27.2970   43.7320 H   0  0  0  0  0  0  0  0  0  0  0  0
   40.2850   24.9630   43.1190 H   0  0  0  0  0  0  0  0  0  0  0  0
   37.8560   24.2960   42.1370 C   0  0  2  0  0  3  0  0  0  0  0  0
   38.7990   23.6190   41.1610 C   0  0  0  0  0  3  0  0  0  0  0  0
   39.5800   23.0200   41.6320 H   0  0  0  0  0  0  0  0  0  0  0  0
   37.8780   22.8480   40.2410 C   0  0  0  0  0  3  0  0  0  0  0  0
   37.9970   21.7710   40.5620 H   0  0  0  0  0  0  0  0  0  0  0  0
   36.6000   23.3070   40.4230 O   0  0  0  0  0  0  0  0  0  0  0  0
   36.5980   24.3650   41.2970 C   0  0  0  0  0  3  0  0  0  0  0  0
   35.6820   24.2440   41.9300 H   0  0  0  0  0  0  0  0  0  0  0  0
  2  1  2  6  0  0  0
  2  3  1  0  0  0  0
  2 22  1  0  0  0  0
  3  4  1  0  0  0  0
  5  2  1  0  0  0  0
  6  9  1  6  0  0  0
  6 15  1  0  0  0  0
  6  8  1  0  0  0  0
  6  7  1  0  0  0  0
  7 11  1  0  0  0  0
  8 12  1  6  0  0  0
  8  7  1  0  0  0  0
  8  5  1  0  0  0  0
 10  7  1  0  0  0  0
 13 19  1  0  0  0  0
 14 20  1  0  0  0  0
 14 13  2  0  0  0  0
 15 14  1  0  0  0  0
 16 15  2  0  0  0  0
 16 17  1  0  0  0  0
 17 18  2  0  0  0  0
 18 13  1  0  0  0  0
 21 17  1  0  0  0  0
 22 23  1  0  0  0  0
 23 24  1  0  0  0  0
 24 25  2  0  0  0  0
 24 29  1  0  0  0  0
 25 30  1  0  0  0  0
 26 31  1  0  0  0  0
 26 25  1  0  0  0  0
 27 26  2  0  0  0  0
 28 27  1  0  0  0  0
 28 23  2  0  0  0  0
 32 27  1  6  0  0  0
 33 34  1  0  0  0  0
 33 32  1  0  0  0  0
 35 37  1  0  0  0  0
 35 36  1  0  0  0  0
 35 33  1  0  0  0  0
 37 38  1  0  0  0  0
 38 39  1  0  0  0  0
 38 32  1  0  0  0  0
M  END
>  <minimizedAffinity>
-5.60761261

$$$$

 OpenBabel03252501093D

 39 42  0  0  1  0  0  0  0  0999 V2000
   36.8420   30.1510   39.3690 O   0  0  0  0  0  0  0  0  0  0  0  0
   36.1180   29.7570   40.6580 P   0  0  2  0  0  0  0  0  0  0  0  0
   35.6380   31.2240   41.3630 O   0  0  0  0  0  0  0  0  0  0  0  0
   34.9560   31.0280   42.0270 H   0  0  0  0  0  0  0  0  0  0  0  0
   37.0300   28.8000   41.6180 O   0  0  0  0  0  0  0  0  0  0  0  0
   37.3130   26.6160   42.6210 C   0  0  1  0  0  0  0  0  0  0  0  0
   36.6900   27.4210   43.6790 C   0  0  0  0  0  0  0  0  0  0  0  0
   36.4600   27.7230   42.1880 C   0  0  1  0  0  0  0  0  0  0  0  0
   36.9760   25.5730   42.4620 H   0  0  0  0  0  0  0  0  0  0  0  0
   35.8540   27.0210   44.2770 H   0  0  0  0  0  0  0  0  0  0  0  0
   37.2400   28.2510   44.1760 H   0  0  0  0  0  0  0  0  0  0  0  0
   35.3980   27.5600   41.9230 H   0  0  0  0  0  0  0  0  0  0  0  0
   40.9200   27.5140   43.3610 C   0  0  0  0  0  0  0  0  0  0  0  0
   39.5530   27.3220   43.5360 C   0  0  0  0  0  0  0  0  0  0  0  0
   38.7950   26.8190   42.4620 C   0  0  0  0  0  0  0  0  0  0  0  0
   39.4150   26.5370   41.2880 N   0  0  0  0  0  0  0  0  0  0  0  0
   40.7530   26.7340   41.1450 C   0  0  0  0  0  0  0  0  0  0  0  0
   41.5020   27.2200   42.1740 N   0  0  0  0  0  0  0  0  0  0  0  0
   41.4780   27.9010   44.2030 H   0  0  0  0  0  0  0  0  0  0  0  0
   39.1120   27.5560   44.4720 H   0  0  0  0  0  0  0  0  0  0  0  0
   41.1220   26.4770   40.1800 H   0  0  0  0  0  0  0  0  0  0  0  0
   34.7280   28.9660   40.1480 O   0  0  0  0  0  0  0  0  0  0  0  0
   34.3990   28.7480   38.8220 C   0  0  0  0  0  0  0  0  0  0  0  0
   35.1220   28.0710   37.8570 C   0  0  0  0  0  0  0  0  0  0  0  0
   34.6550   27.9440   36.5880 C   0  0  0  0  0  0  0  0  0  0  0  0
   33.4460   28.4840   36.2240 C   0  0  0  0  0  0  0  0  0  0  0  0
   32.7390   29.1600   37.2200 C   0  0  0  0  0  0  0  0  0  0  0  0
   33.2220   29.2800   38.4880 N   0  0  0  0  0  0  0  0  0  0  0  0
   36.0670   27.6700   38.2120 H   0  0  0  0  0  0  0  0  0  0  0  0
   35.2960   27.3950   35.9000 H   0  0  0  0  0  0  0  0  0  0  0  0
   33.0790   28.3800   35.2170 H   0  0  0  0  0  0  0  0  0  0  0  0
   31.4200   29.7580   36.8480 C   0  0  2  0  0  3  0  0  0  0  0  0
   30.5980   30.1370   38.0650 C   0  0  0  0  0  3  0  0  0  0  0  0
   30.7490   31.1620   38.4080 H   0  0  0  0  0  0  0  0  0  0  0  0
   29.1770   29.8080   37.6610 C   0  0  0  0  0  3  0  0  0  0  0  0
   28.7020   30.8130   37.4600 H   0  0  0  0  0  0  0  0  0  0  0  0
   29.2180   29.0180   36.5410 O   0  0  0  0  0  0  0  0  0  0  0  0
   30.5170   28.7150   36.2230 C   0  0  0  0  0  3  0  0  0  0  0  0
   30.5790   28.7430   35.1060 H   0  0  0  0  0  0  0  0  0  0  0  0
  2  1  2  6  0  0  0
  2  3  1  0  0  0  0
  2  5  1  0  0  0  0
  3  4  1  0  0  0  0
  5  8  1  0  0  0  0
  6  9  1  6  0  0  0
  6  7  1  0  0  0  0
  7 11  1  0  0  0  0
  7 10  1  0  0  0  0
  8 12  1  6  0  0  0
  8  6  1  0  0  0  0
  8  7  1  0  0  0  0
 13 14  1  0  0  0  0
 13 19  1  0  0  0  0
 14 20  1  0  0  0  0
 15  6  1  0  0  0  0
 15 14  2  0  0  0  0
 16 15  1  0  0  0  0
 17 16  2  0  0  0  0
 17 18  1  0  0  0  0
 18 13  2  0  0  0  0
 21 17  1  0  0  0  0
 22  2  1  0  0  0  0
 23 22  1  0  0  0  0
 24 29  1  0  0  0  0
 24 23  2  0  0  0  0
 25 24  1  0  0  0  0
 26 25  2  0  0  0  0
 26 27  1  0  0  0  0
 27 28  2  0  0  0  0
 28 23  1  0  0  0  0
 30 25  1  0  0  0  0
 31 26  1  0  0  0  0
 32 27  1  1  0  0  0
 32 33  1  0  0  0  0
 33 34  1  0  0  0  0
 35 33  1  0  0  0  0
 36 35  1  0  0  0  0
 37 35  1  0  0  0  0
 38 37  1  0  0  0  0
 38 32  1  0  0  0  0
 39 38  1  0  0  0  0
M  END
>  <minimizedAffinity>
-5.55687952

$$$$

 OpenBabel03252501093D

 39 42  0  0  1  0  0  0  0  0999 V2000
   34.9140   29.0810   39.3820 O   0  0  0  0  0  0  0  0  0  0  0  0
   36.3580   29.3400   39.8170 P   0  0  2  0  0  0  0  0  0  0  0  0
   37.2430   29.4460   38.3740 O   0  0  0  0  0  0  0  0  0  0  0  0
   38.0950   29.8690   38.5750 H   0  0  0  0  0  0  0  0  0  0  0  0
   36.9010   28.2200   40.8750 O   0  0  0  0  0  0  0  0  0  0  0  0
   36.9720   27.3070   43.1150 C   0  0  1  0  0  0  0  0  0  0  0  0
   37.7940   28.5210   43.1950 C   0  0  0  0  0  0  0  0  0  0  0  0
   36.6410   28.3870   42.1850 C   0  0  1  0  0  0  0  0  0  0  0  0
   36.2750   27.0680   43.9420 H   0  0  0  0  0  0  0  0  0  0  0  0
   37.6850   29.2250   44.0370 H   0  0  0  0  0  0  0  0  0  0  0  0
   38.7760   28.5910   42.6740 H   0  0  0  0  0  0  0  0  0  0  0  0
   35.8430   29.1190   42.4140 H   0  0  0  0  0  0  0  0  0  0  0  0
   37.5700   23.9260   41.5100 C   0  0  0  0  0  0  0  0  0  0  0  0
   36.9060   25.0280   42.0410 C   0  0  0  0  0  0  0  0  0  0  0  0
   37.6650   26.1120   42.5240 C   0  0  0  0  0  0  0  0  0  0  0  0
   39.0200   26.0530   42.4570 N   0  0  0  0  0  0  0  0  0  0  0  0
   39.6430   24.9640   41.9320 C   0  0  0  0  0  0  0  0  0  0  0  0
   38.9230   23.9070   41.4620 N   0  0  0  0  0  0  0  0  0  0  0  0
   36.9620   23.1090   41.1470 H   0  0  0  0  0  0  0  0  0  0  0  0
   35.8460   25.0290   42.0730 H   0  0  0  0  0  0  0  0  0  0  0  0
   40.7050   25.0360   41.9350 H   0  0  0  0  0  0  0  0  0  0  0  0
   36.3320   30.8710   40.5040 O   0  0  0  0  0  0  0  0  0  0  0  0
   37.3700   31.7810   40.4160 C   0  0  0  0  0  0  0  0  0  0  0  0
   37.3290   33.0940   39.9820 C   0  0  0  0  0  0  0  0  0  0  0  0
   38.4470   33.8620   39.9550 C   0  0  0  0  0  0  0  0  0  0  0  0
   39.6600   33.3580   40.3610 C   0  0  0  0  0  0  0  0  0  0  0  0
   39.6700   32.0310   40.7950 C   0  0  0  0  0  0  0  0  0  0  0  0
   38.5380   31.2730   40.8150 N   0  0  0  0  0  0  0  0  0  0  0  0
   36.3410   33.4270   39.6760 H   0  0  0  0  0  0  0  0  0  0  0  0
   38.3150   34.8820   39.5970 H   0  0  0  0  0  0  0  0  0  0  0  0
   40.5440   33.9710   40.3390 H   0  0  0  0  0  0  0  0  0  0  0  0
   40.9770   31.4590   41.2410 C   0  0  2  0  0  3  0  0  0  0  0  0
   40.9160   30.9300   42.6610 C   0  0  0  0  0  3  0  0  0  0  0  0
   40.6470   29.8750   42.7370 H   0  0  0  0  0  0  0  0  0  0  0  0
   42.2700   31.2810   43.2380 C   0  0  0  0  0  3  0  0  0  0  0  0
   42.8280   30.2980   43.2670 H   0  0  0  0  0  0  0  0  0  0  0  0
   42.8700   32.1950   42.4110 O   0  0  0  0  0  0  0  0  0  0  0  0
   42.0120   32.5530   41.4020 C   0  0  0  0  0  3  0  0  0  0  0  0
   42.6400   32.6540   40.4800 H   0  0  0  0  0  0  0  0  0  0  0  0
  2  1  2  6  0  0  0
  2 22  1  0  0  0  0
  2  5  1  0  0  0  0
  3  4  1  0  0  0  0
  3  2  1  0  0  0  0
  5  8  1  0  0  0  0
  6  7  1  0  0  0  0
  6  9  1  1  0  0  0
  7 10  1  0  0  0  0
  8 12  1  1  0  0  0
  8  6  1  0  0  0  0
  8  7  1  0  0  0  0
 11  7  1  0  0  0  0
 13 14  1  0  0  0  0
 14 20  1  0  0  0  0
 14 15  2  0  0  0  0
 15  6  1  0  0  0  0
 16 15  1  0  0  0  0
 17 21  1  0  0  0  0
 17 16  2  0  0  0  0
 18 13  2  0  0  0  0
 18 17  1  0  0  0  0
 19 13  1  0  0  0  0
 23 22  1  0  0  0  0
 23 28  1  0  0  0  0
 24 23  2  0  0  0  0
 25 24  1  0  0  0  0
 25 26  2  0  0  0  0
 26 27  1  0  0  0  0
 27 28  2  0  0  0  0
 29 24  1  0  0  0  0
 30 25  1  0  0  0  0
 31 26  1  0  0  0  0
 32 27  1  1  0  0  0
 32 38  1  0  0  0  0
 32 33  1  0  0  0  0
 33 34  1  0  0  0  0
 33 35  1  0  0  0  0
 35 36  1  0  0  0  0
 37 35  1  0  0  0  0
 38 37  1  0  0  0  0
 39 38  1  0  0  0  0
M  END
>  <minimizedAffinity>
-5.510396

$$$$

 OpenBabel03252501093D

 39 42  0  0  1  0  0  0  0  0999 V2000
   38.3520   28.6180   38.4540 O   0  0  0  0  0  0  0  0  0  0  0  0
   37.2350   29.6610   38.5260 P   0  0  2  0  0  0  0  0  0  0  0  0
   36.3560   29.4690   37.0880 O   0  0  0  0  0  0  0  0  0  0  0  0
   35.4970   29.9090   37.2010 H   0  0  0  0  0  0  0  0  0  0  0  0
   37.8070   31.1690   38.7850 O   0  0  0  0  0  0  0  0  0  0  0  0
   37.7250   32.8300   40.5450 C   0  0  1  0  0  0  0  0  0  0  0  0
   37.2520   33.5440   39.3520 C   0  0  0  0  0  0  0  0  0  0  0  0
   37.0670   32.0250   39.5140 C   0  0  1  0  0  0  0  0  0  0  0  0
   37.2170   32.9950   41.5150 H   0  0  0  0  0  0  0  0  0  0  0  0
   36.3640   34.1970   39.3980 H   0  0  0  0  0  0  0  0  0  0  0  0
   37.9370   33.7760   38.5060 H   0  0  0  0  0  0  0  0  0  0  0  0
   35.9910   31.7750   39.5810 H   0  0  0  0  0  0  0  0  0  0  0  0
   41.1590   31.6120   41.5880 C   0  0  0  0  0  0  0  0  0  0  0  0
   39.7750   31.7180   41.5020 C   0  0  0  0  0  0  0  0  0  0  0  0
   39.2190   32.6860   40.6440 C   0  0  0  0  0  0  0  0  0  0  0  0
   40.0460   33.4870   39.9250 N   0  0  0  0  0  0  0  0  0  0  0  0
   41.3960   33.3610   40.0280 C   0  0  0  0  0  0  0  0  0  0  0  0
   41.9500   32.4300   40.8540 N   0  0  0  0  0  0  0  0  0  0  0  0
   41.5580   30.8600   42.2540 H   0  0  0  0  0  0  0  0  0  0  0  0
   39.1670   31.0700   42.0830 H   0  0  0  0  0  0  0  0  0  0  0  0
   41.9370   34.0440   39.4160 H   0  0  0  0  0  0  0  0  0  0  0  0
   36.2520   29.1530   39.7880 O   0  0  0  0  0  0  0  0  0  0  0  0
   36.7220   28.6180   40.9740 C   0  0  0  0  0  0  0  0  0  0  0  0
   37.1590   29.2830   42.1050 C   0  0  0  0  0  0  0  0  0  0  0  0
   37.5930   28.6040   43.1970 C   0  0  0  0  0  0  0  0  0  0  0  0
   37.6110   27.2300   43.2130 C   0  0  0  0  0  0  0  0  0  0  0  0
   37.1630   26.5870   42.0580 C   0  0  0  0  0  0  0  0  0  0  0  0
   36.7310   27.2830   40.9690 N   0  0  0  0  0  0  0  0  0  0  0  0
   37.1180   30.3660   42.0240 H   0  0  0  0  0  0  0  0  0  0  0  0
   37.9180   29.2150   44.0380 H   0  0  0  0  0  0  0  0  0  0  0  0
   37.9560   26.6960   44.0820 H   0  0  0  0  0  0  0  0  0  0  0  0
   37.1730   25.0920   42.0510 C   0  0  2  0  0  3  0  0  0  0  0  0
   38.5780   24.5290   41.9640 C   0  0  0  0  0  3  0  0  0  0  0  0
   39.0470   24.3360   42.9300 H   0  0  0  0  0  0  0  0  0  0  0  0
   38.4270   23.3090   41.0800 C   0  0  0  0  0  3  0  0  0  0  0  0
   38.4960   22.4350   41.7930 H   0  0  0  0  0  0  0  0  0  0  0  0
   37.2090   23.3760   40.4550 O   0  0  0  0  0  0  0  0  0  0  0  0
   36.5850   24.5590   40.7610 C   0  0  0  0  0  3  0  0  0  0  0  0
   35.4990   24.3160   40.8820 H   0  0  0  0  0  0  0  0  0  0  0  0
  2  1  2  6  0  0  0
  2  5  1  0  0  0  0
  2 22  1  0  0  0  0
  3  4  1  0  0  0  0
  3  2  1  0  0  0  0
  5  8  1  0  0  0  0
  6 15  1  0  0  0  0
  6  9  1  1  0  0  0
  7 10  1  0  0  0  0
  7  8  1  0  0  0  0
  7  6  1  0  0  0  0
  8 12  1  1  0  0  0
  8  6  1  0  0  0  0
 11  7  1  0  0  0  0
 13 19  1  0  0  0  0
 14 13  1  0  0  0  0
 14 20  1  0  0  0  0
 15 14  2  0  0  0  0
 16 17  2  0  0  0  0
 16 15  1  0  0  0  0
 17 18  1  0  0  0  0
 18 13  2  0  0  0  0
 21 17  1  0  0  0  0
 22 23  1  0  0  0  0
 23 24  1  0  0  0  0
 24 25  2  0  0  0  0
 25 26  1  0  0  0  0
 25 30  1  0  0  0  0
 26 31  1  0  0  0  0
 27 26  2  0  0  0  0
 28 23  2  0  0  0  0
 28 27  1  0  0  0  0
 29 24  1  0  0  0  0
 32 27  1  6  0  0  0
 33 32  1  0  0  0  0
 33 34  1  0  0  0  0
 35 36  1  0  0  0  0
 35 33  1  0  0  0  0
 37 38  1  0  0  0  0
 37 35  1  0  0  0  0
 38 39  1  0  0  0  0
 38 32  1  0  0  0  0
M  END
>  <minimizedAffinity>
-5.32901907

$$$$
