
 OpenBabel03242515263D

 30 32  0  0  1  0  0  0  0  0999 V2000
   44.8980   35.1200   45.1760 C   0  0  0  0  0  0  0  0  0  0  0  0
   45.7330   34.8010   44.0960 C   0  0  0  0  0  0  0  0  0  0  0  0
   46.5230   33.6810   44.2260 C   0  0  0  0  0  0  0  0  0  0  0  0
   46.4630   32.9580   45.3510 N   0  0  0  0  0  0  0  0  0  0  0  0
   45.6380   33.2950   46.3850 C   0  0  0  0  0  0  0  0  0  0  0  0
   44.8460   34.3750   46.3170 N   0  0  0  0  0  0  0  0  0  0  0  0
   44.2490   35.9870   45.1460 H   0  0  0  0  0  0  0  0  0  0  0  0
   47.1590   33.4540   43.3820 H   0  0  0  0  0  0  0  0  0  0  0  0
   45.7740   32.3170   47.5100 C   0  0  2  0  0  0  0  0  0  0  0  0
   47.1770   32.3430   48.0710 C   0  0  0  0  0  0  0  0  0  0  0  0
   47.9190   32.6690   47.3300 H   0  0  0  0  0  0  0  0  0  0  0  0
   47.3540   30.9160   48.5180 C   0  0  0  0  0  0  0  0  0  0  0  0
   47.6100   30.9290   49.5790 H   0  0  0  0  0  0  0  0  0  0  0  0
   46.1890   30.2390   48.1900 O   0  0  0  0  0  0  0  0  0  0  0  0
   45.6750   30.8920   47.0450 C   0  0  0  0  0  0  0  0  0  0  0  0
   46.3520   30.6320   46.2220 H   0  0  0  0  0  0  0  0  0  0  0  0
   45.6610   35.7140   42.9480 C   0  0  0  0  0  0  0  0  0  0  0  0
   46.7130   35.7690   42.5440 H   0  0  0  0  0  0  0  0  0  0  0  0
   45.4200   36.7270   43.2510 H   0  0  0  0  0  0  0  0  0  0  0  0
   44.7910   35.1340   41.9510 N   0  0  0  0  0  0  0  0  0  0  0  0
   43.4600   35.2450   42.0710 C   0  0  0  0  0  0  0  0  0  0  0  0
   42.6740   34.6670   41.0820 C   0  0  0  0  0  0  0  0  0  0  0  0
   43.2280   34.0060   40.0180 C   0  0  0  0  0  0  0  0  0  0  0  0
   42.4840   33.5010   39.1500 O   0  0  0  0  0  0  0  0  0  0  0  0
   44.5670   33.9160   39.9330 N   0  0  0  0  0  0  0  0  0  0  0  0
   45.3570   34.4730   40.8880 C   0  0  0  0  0  0  0  0  0  0  0  0
   46.6090   34.3530   40.7490 O   0  0  0  0  0  0  0  0  0  0  0  0
   43.0550   35.7760   42.9280 H   0  0  0  0  0  0  0  0  0  0  0  0
   41.6080   34.7880   41.2310 H   0  0  0  0  0  0  0  0  0  0  0  0
   44.9300   33.4060   39.1080 H   0  0  0  0  0  0  0  0  0  0  0  0
  1  6  1  0  0  0  0
  2  3  1  0  0  0  0
  2  1  2  0  0  0  0
  3  4  2  0  0  0  0
  4  5  1  0  0  0  0
  6  5  2  0  0  0  0
  7  1  1  0  0  0  0
  8  3  1  0  0  0  0
  9  5  1  6  0  0  0
  9 10  1  0  0  0  0
 10 12  1  0  0  0  0
 11 10  1  0  0  0  0
 12 13  1  0  0  0  0
 14 12  1  0  0  0  0
 15  9  1  0  0  0  0
 15 14  1  0  0  0  0
 16 15  1  0  0  0  0
 17 19  1  0  0  0  0
 17  2  1  0  0  0  0
 18 17  1  0  0  0  0
 20 21  1  0  0  0  0
 20 17  1  0  0  0  0
 21 28  1  0  0  0  0
 22 29  1  0  0  0  0
 22 21  2  0  0  0  0
 23 22  1  0  0  0  0
 24 23  2  0  0  0  0
 25 23  1  0  0  0  0
 25 26  1  0  0  0  0
 26 20  1  0  0  0  0
 27 26  2  0  0  0  0
 30 25  1  0  0  0  0
M  END
>  <minimizedAffinity>
-5.32155037

>  <minimizedRMSD>
2.49907041

$$$$
