
 OpenBabel03242515583D

 36 39  0  0  1  0  0  0  0  0999 V2000
   36.9640   26.5560   39.7950 C   0  0  0  0  0  0  0  0  0  0  0  0
   36.8310   25.1460   39.9290 C   0  0  0  0  0  0  0  0  0  0  0  0
   36.8310   24.4920   41.1370 C   0  0  0  0  0  0  0  0  0  0  0  0
   36.9610   25.1840   42.2840 C   0  0  0  0  0  0  0  0  0  0  0  0
   37.0960   26.5660   42.2130 C   0  0  0  0  0  0  0  0  0  0  0  0
   37.2320   27.2290   43.4020 C   0  0  0  0  0  0  0  0  0  0  0  0
   37.3790   28.6000   43.4010 C   0  0  0  0  0  0  0  0  0  0  0  0
   37.3810   29.2400   42.1630 C   0  0  0  0  0  0  0  0  0  0  0  0
   37.2400   28.4990   41.0450 C   0  0  0  0  0  0  0  0  0  0  0  0
   37.0930   27.1820   40.9960 C   0  0  0  0  0  0  0  0  0  0  0  0
   36.7240   24.5490   39.0380 H   0  0  0  0  0  0  0  0  0  0  0  0
   36.7250   23.4160   41.1520 H   0  0  0  0  0  0  0  0  0  0  0  0
   36.9570   24.6430   43.2200 H   0  0  0  0  0  0  0  0  0  0  0  0
   37.2200   26.6360   44.3460 H   0  0  0  0  0  0  0  0  0  0  0  0
   37.4750   28.9980   44.4300 H   0  0  0  0  0  0  0  0  0  0  0  0
   37.5220   30.2640   42.4750 H   0  0  0  0  0  0  0  0  0  0  0  0
   38.3010   27.7280   36.6700 C   0  0  0  0  0  0  0  0  0  0  0  0
   37.1470   28.2630   36.0220 C   0  0  0  0  0  0  0  0  0  0  0  0
   35.8840   28.2340   36.6800 C   0  0  0  0  0  0  0  0  0  0  0  0
   35.8550   27.6890   37.9050 N   0  0  0  0  0  0  0  0  0  0  0  0
   36.9020   27.1970   38.5070 C   0  0  0  0  0  0  0  0  0  0  0  0
   38.1170   27.2230   37.8790 N   0  0  0  0  0  0  0  0  0  0  0  0
   39.2430   27.7630   36.1490 H   0  0  0  0  0  0  0  0  0  0  0  0
   35.1520   28.6620   36.0580 H   0  0  0  0  0  0  0  0  0  0  0  0
   37.3540   28.7990   34.7210 N   0  0  0  0  0  0  0  0  0  0  0  0
   37.1820   28.2060   33.8680 H   0  0  0  0  0  0  0  0  0  0  0  0
   37.6810   29.8000   34.6590 H   0  0  0  0  0  0  0  0  0  0  0  0
   37.2880   29.3870   40.0080 O   0  0  0  0  0  0  0  0  0  0  0  0
   37.8480   30.6850   40.0770 C   0  0  2  0  0  3  0  0  0  0  0  0
   36.9910   31.8270   39.6550 C   0  0  0  0  0  3  0  0  0  0  0  0
   36.3000   32.2360   40.3770 H   0  0  0  0  0  0  0  0  0  0  0  0
   38.1340   32.8810   39.5240 C   0  0  0  0  0  3  0  0  0  0  0  0
   37.8180   33.7400   38.9460 H   0  0  0  0  0  0  0  0  0  0  0  0
   39.1450   32.1940   38.8700 O   0  0  0  0  0  0  0  0  0  0  0  0
   38.9500   30.8290   39.0040 C   0  0  0  0  0  3  0  0  0  0  0  0
   39.9000   30.3730   39.3230 H   0  0  0  0  0  0  0  0  0  0  0  0
  1  2  2  0  0  0  0
  1 10  1  0  0  0  0
  2  3  1  0  0  0  0
  3 12  1  0  0  0  0
  3  4  2  0  0  0  0
  4 13  1  0  0  0  0
  5  4  1  0  0  0  0
  5  6  1  0  0  0  0
  6 14  1  0  0  0  0
  7  6  2  0  0  0  0
  7 15  1  0  0  0  0
  8 16  1  0  0  0  0
  8  7  1  0  0  0  0
  9  8  2  0  0  0  0
 10  9  1  0  0  0  0
 10  5  2  0  0  0  0
 11  2  1  0  0  0  0
 17 22  1  0  0  0  0
 18 17  2  0  0  0  0
 18 19  1  0  0  0  0
 19 20  2  0  0  0  0
 20 21  1  0  0  0  0
 21  1  1  0  0  0  0
 22 21  2  0  0  0  0
 23 17  1  0  0  0  0
 24 19  1  0  0  0  0
 25 18  1  0  0  0  0
 26 25  1  0  0  0  0
 27 25  1  0  0  0  0
 28  9  1  0  0  0  0
 29 28  1  6  0  0  0
 30 29  1  0  0  0  0
 30 31  1  0  0  0  0
 32 30  1  0  0  0  0
 33 32  1  0  0  0  0
 34 35  1  0  0  0  0
 34 32  1  0  0  0  0
 35 36  1  0  0  0  0
 35 29  1  0  0  0  0
M  END
>  <minimizedAffinity>
-6.0116744

$$$$

 OpenBabel03242515583D

 36 39  0  0  1  0  0  0  0  0999 V2000
   37.7700   29.1550   41.1090 C   0  0  0  0  0  0  0  0  0  0  0  0
   38.0250   29.5850   42.4410 C   0  0  0  0  0  0  0  0  0  0  0  0
   37.9500   28.7570   43.5350 C   0  0  0  0  0  0  0  0  0  0  0  0
   37.6190   27.4610   43.3850 C   0  0  0  0  0  0  0  0  0  0  0  0
   37.3590   26.9870   42.1050 C   0  0  0  0  0  0  0  0  0  0  0  0
   37.0220   25.6650   41.9990 C   0  0  0  0  0  0  0  0  0  0  0  0
   36.7420   25.1340   40.7580 C   0  0  0  0  0  0  0  0  0  0  0  0
   36.8200   25.9940   39.6640 C   0  0  0  0  0  0  0  0  0  0  0  0
   37.1610   27.2820   39.8690 C   0  0  0  0  0  0  0  0  0  0  0  0
   37.4420   27.8370   41.0410 C   0  0  0  0  0  0  0  0  0  0  0  0
   38.2930   30.6150   42.6100 H   0  0  0  0  0  0  0  0  0  0  0  0
   38.1580   29.1620   44.5150 H   0  0  0  0  0  0  0  0  0  0  0  0
   37.5690   26.8340   44.2640 H   0  0  0  0  0  0  0  0  0  0  0  0
   36.9820   25.0500   42.9280 H   0  0  0  0  0  0  0  0  0  0  0  0
   36.4880   24.0580   40.8260 H   0  0  0  0  0  0  0  0  0  0  0  0
   36.5430   25.3180   38.8670 H   0  0  0  0  0  0  0  0  0  0  0  0
   39.4870   30.6200   38.3100 C   0  0  0  0  0  0  0  0  0  0  0  0
   38.5160   31.5330   37.7950 C   0  0  0  0  0  0  0  0  0  0  0  0
   37.2480   31.6570   38.4340 C   0  0  0  0  0  0  0  0  0  0  0  0
   37.0380   30.8880   39.5120 N   0  0  0  0  0  0  0  0  0  0  0  0
   37.9170   30.0510   39.9900 C   0  0  0  0  0  0  0  0  0  0  0  0
   39.1350   29.9280   39.3810 N   0  0  0  0  0  0  0  0  0  0  0  0
   40.4370   30.5470   37.8060 H   0  0  0  0  0  0  0  0  0  0  0  0
   36.6630   32.3640   37.9200 H   0  0  0  0  0  0  0  0  0  0  0  0
   38.9010   32.2690   36.6410 N   0  0  0  0  0  0  0  0  0  0  0  0
   38.6400   31.9250   35.6800 H   0  0  0  0  0  0  0  0  0  0  0  0
   39.4480   33.1570   36.7960 H   0  0  0  0  0  0  0  0  0  0  0  0
   37.1470   27.8670   38.6350 O   0  0  0  0  0  0  0  0  0  0  0  0
   36.0530   27.8410   37.7380 C   0  0  2  0  0  3  0  0  0  0  0  0
   36.1440   28.6910   36.5190 C   0  0  0  0  0  3  0  0  0  0  0  0
   36.6750   28.2960   35.6650 H   0  0  0  0  0  0  0  0  0  0  0  0
   34.6320   28.6300   36.1360 C   0  0  0  0  0  3  0  0  0  0  0  0
   34.3690   29.4110   35.4330 H   0  0  0  0  0  0  0  0  0  0  0  0
   33.9760   28.8150   37.3430 O   0  0  0  0  0  0  0  0  0  0  0  0
   34.8330   28.5260   38.3930 C   0  0  0  0  0  3  0  0  0  0  0  0
   34.3090   27.8570   39.0930 H   0  0  0  0  0  0  0  0  0  0  0  0
  1  2  1  0  0  0  0
  2 11  1  0  0  0  0
  2  3  2  0  0  0  0
  3 12  1  0  0  0  0
  4  3  1  0  0  0  0
  4 13  1  0  0  0  0
  5  4  2  0  0  0  0
  6  5  1  0  0  0  0
  6 14  1  0  0  0  0
  7 15  1  0  0  0  0
  7  6  2  0  0  0  0
  8  9  2  0  0  0  0
  8  7  1  0  0  0  0
  9 10  1  0  0  0  0
 10  1  2  0  0  0  0
 10  5  1  0  0  0  0
 16  8  1  0  0  0  0
 17 22  1  0  0  0  0
 18 17  2  0  0  0  0
 18 19  1  0  0  0  0
 19 20  2  0  0  0  0
 20 21  1  0  0  0  0
 21  1  1  0  0  0  0
 22 21  2  0  0  0  0
 23 17  1  0  0  0  0
 24 19  1  0  0  0  0
 25 27  1  0  0  0  0
 25 18  1  0  0  0  0
 26 25  1  0  0  0  0
 28  9  1  0  0  0  0
 29 35  1  0  0  0  0
 29 28  1  1  0  0  0
 30 29  1  0  0  0  0
 31 30  1  0  0  0  0
 32 30  1  0  0  0  0
 32 34  1  0  0  0  0
 33 32  1  0  0  0  0
 34 35  1  0  0  0  0
 35 36  1  0  0  0  0
M  END
>  <minimizedAffinity>
-5.83734894

$$$$

 OpenBabel03242515583D

 36 39  0  0  1  0  0  0  0  0999 V2000
   37.3810   27.3590   40.8080 C   0  0  0  0  0  0  0  0  0  0  0  0
   36.6920   26.4630   39.9450 C   0  0  0  0  0  0  0  0  0  0  0  0
   36.8210   25.0960   40.0050 C   0  0  0  0  0  0  0  0  0  0  0  0
   37.6340   24.5300   40.9170 C   0  0  0  0  0  0  0  0  0  0  0  0
   38.3330   25.3590   41.7870 C   0  0  0  0  0  0  0  0  0  0  0  0
   39.1510   24.7420   42.6940 C   0  0  0  0  0  0  0  0  0  0  0  0
   39.8810   25.5070   43.5790 C   0  0  0  0  0  0  0  0  0  0  0  0
   39.7370   26.8900   43.4950 C   0  0  0  0  0  0  0  0  0  0  0  0
   38.9050   27.4050   42.5670 C   0  0  0  0  0  0  0  0  0  0  0  0
   38.1820   26.7110   41.6980 C   0  0  0  0  0  0  0  0  0  0  0  0
   36.0310   26.8700   39.1980 H   0  0  0  0  0  0  0  0  0  0  0  0
   36.2620   24.4850   39.3110 H   0  0  0  0  0  0  0  0  0  0  0  0
   37.7140   23.4520   40.9420 H   0  0  0  0  0  0  0  0  0  0  0  0
   39.2060   23.6280   42.6890 H   0  0  0  0  0  0  0  0  0  0  0  0
   40.4930   24.8740   44.2510 H   0  0  0  0  0  0  0  0  0  0  0  0
   40.4170   27.2030   44.2750 H   0  0  0  0  0  0  0  0  0  0  0  0
   37.8660   30.6660   39.4840 C   0  0  0  0  0  0  0  0  0  0  0  0
   36.9660   31.4480   40.2700 C   0  0  0  0  0  0  0  0  0  0  0  0
   36.1860   30.8260   41.2880 C   0  0  0  0  0  0  0  0  0  0  0  0
   36.3500   29.5060   41.4510 N   0  0  0  0  0  0  0  0  0  0  0  0
   37.1690   28.7820   40.7390 C   0  0  0  0  0  0  0  0  0  0  0  0
   37.9190   29.3730   39.7610 N   0  0  0  0  0  0  0  0  0  0  0  0
   38.4420   31.1620   38.7210 H   0  0  0  0  0  0  0  0  0  0  0  0
   35.5810   31.5470   41.7570 H   0  0  0  0  0  0  0  0  0  0  0  0
   36.9120   32.8350   39.9630 N   0  0  0  0  0  0  0  0  0  0  0  0
   36.1770   33.2050   39.3050 H   0  0  0  0  0  0  0  0  0  0  0  0
   37.6300   33.4590   40.4180 H   0  0  0  0  0  0  0  0  0  0  0  0
   38.9790   28.7610   42.7200 O   0  0  0  0  0  0  0  0  0  0  0  0
   40.1760   29.5140   42.7030 C   0  0  2  0  0  3  0  0  0  0  0  0
   40.0540   30.9970   42.6500 C   0  0  0  0  0  3  0  0  0  0  0  0
   39.8960   31.5260   43.5790 H   0  0  0  0  0  0  0  0  0  0  0  0
   41.5320   31.2920   42.2460 C   0  0  0  0  0  3  0  0  0  0  0  0
   41.6450   32.2960   41.8570 H   0  0  0  0  0  0  0  0  0  0  0  0
   41.8020   30.3520   41.2630 O   0  0  0  0  0  0  0  0  0  0  0  0
   40.8990   29.3050   41.3540 C   0  0  0  0  0  3  0  0  0  0  0  0
   41.4620   28.3590   41.3290 H   0  0  0  0  0  0  0  0  0  0  0  0
  1 10  1  0  0  0  0
  2  3  1  0  0  0  0
  2  1  2  0  0  0  0
  3  4  2  0  0  0  0
  4 13  1  0  0  0  0
  4  5  1  0  0  0  0
  5  6  1  0  0  0  0
  6  7  2  0  0  0  0
  7 15  1  0  0  0  0
  8  7  1  0  0  0  0
  8 16  1  0  0  0  0
  9 28  1  0  0  0  0
  9  8  2  0  0  0  0
 10  5  2  0  0  0  0
 10  9  1  0  0  0  0
 11  2  1  0  0  0  0
 12  3  1  0  0  0  0
 14  6  1  0  0  0  0
 17 22  2  0  0  0  0
 17 18  1  0  0  0  0
 18 19  2  0  0  0  0
 19 20  1  0  0  0  0
 19 24  1  0  0  0  0
 21  1  1  0  0  0  0
 21 20  2  0  0  0  0
 22 21  1  0  0  0  0
 23 17  1  0  0  0  0
 25 18  1  0  0  0  0
 25 27  1  0  0  0  0
 26 25  1  0  0  0  0
 29 28  1  6  0  0  0
 30 29  1  0  0  0  0
 30 31  1  0  0  0  0
 32 30  1  0  0  0  0
 33 32  1  0  0  0  0
 34 35  1  0  0  0  0
 34 32  1  0  0  0  0
 35 29  1  0  0  0  0
 36 35  1  0  0  0  0
M  END
>  <minimizedAffinity>
-5.8340416

$$$$

 OpenBabel03242515583D

 36 39  0  0  1  0  0  0  0  0999 V2000
   36.4930   27.3840   39.6980 C   0  0  0  0  0  0  0  0  0  0  0  0
   35.8510   26.9270   38.5130 C   0  0  0  0  0  0  0  0  0  0  0  0
   35.7000   25.6000   38.1920 C   0  0  0  0  0  0  0  0  0  0  0  0
   36.1700   24.6440   39.0160 C   0  0  0  0  0  0  0  0  0  0  0  0
   36.8060   25.0330   40.1880 C   0  0  0  0  0  0  0  0  0  0  0  0
   37.2730   24.0300   40.9930 C   0  0  0  0  0  0  0  0  0  0  0  0
   37.9240   24.3480   42.1670 C   0  0  0  0  0  0  0  0  0  0  0  0
   38.0690   25.7010   42.4670 C   0  0  0  0  0  0  0  0  0  0  0  0
   37.5750   26.6180   41.6110 C   0  0  0  0  0  0  0  0  0  0  0  0
   36.9410   26.3600   40.4740 C   0  0  0  0  0  0  0  0  0  0  0  0
   35.4600   27.6560   37.8230 H   0  0  0  0  0  0  0  0  0  0  0  0
   35.2000   25.3360   37.2710 H   0  0  0  0  0  0  0  0  0  0  0  0
   36.0350   23.6080   38.7380 H   0  0  0  0  0  0  0  0  0  0  0  0
   37.1130   22.9740   40.6730 H   0  0  0  0  0  0  0  0  0  0  0  0
   38.2420   23.4390   42.7130 H   0  0  0  0  0  0  0  0  0  0  0  0
   38.6090   25.6340   43.4010 H   0  0  0  0  0  0  0  0  0  0  0  0
   37.7670   30.7290   39.3640 C   0  0  0  0  0  0  0  0  0  0  0  0
   36.9610   31.4600   40.2900 C   0  0  0  0  0  0  0  0  0  0  0  0
   35.9680   30.7840   41.0560 C   0  0  0  0  0  0  0  0  0  0  0  0
   35.8470   29.4640   40.8560 N   0  0  0  0  0  0  0  0  0  0  0  0
   36.5770   28.7870   40.0130 C   0  0  0  0  0  0  0  0  0  0  0  0
   37.5310   29.4310   39.2760 N   0  0  0  0  0  0  0  0  0  0  0  0
   38.5100   31.2660   38.7980 H   0  0  0  0  0  0  0  0  0  0  0  0
   35.4710   31.4750   41.6750 H   0  0  0  0  0  0  0  0  0  0  0  0
   37.2190   32.8560   40.3750 N   0  0  0  0  0  0  0  0  0  0  0  0
   36.6470   33.5370   39.8080 H   0  0  0  0  0  0  0  0  0  0  0  0
   37.9930   33.1650   41.0200 H   0  0  0  0  0  0  0  0  0  0  0  0
   37.8710   27.8320   42.1610 O   0  0  0  0  0  0  0  0  0  0  0  0
   39.1760   28.2870   42.4670 C   0  0  2  0  0  3  0  0  0  0  0  0
   39.3640   29.7500   42.6690 C   0  0  0  0  0  3  0  0  0  0  0  0
   39.1420   30.1600   43.6440 H   0  0  0  0  0  0  0  0  0  0  0  0
   40.9200   29.7560   42.5570 C   0  0  0  0  0  3  0  0  0  0  0  0
   41.3020   30.7540   42.3810 H   0  0  0  0  0  0  0  0  0  0  0  0
   41.1780   28.9330   41.4720 O   0  0  0  0  0  0  0  0  0  0  0  0
   40.0840   28.1170   41.2290 C   0  0  0  0  0  3  0  0  0  0  0  0
   40.4420   27.0830   41.1170 H   0  0  0  0  0  0  0  0  0  0  0  0
  1 21  1  0  0  0  0
  1 10  1  0  0  0  0
  2  1  2  0  0  0  0
  3  2  1  0  0  0  0
  3  4  2  0  0  0  0
  4  5  1  0  0  0  0
  5 10  2  0  0  0  0
  5  6  1  0  0  0  0
  6  7  2  0  0  0  0
  7  8  1  0  0  0  0
  7 15  1  0  0  0  0
  8 16  1  0  0  0  0
  9 28  1  0  0  0  0
  9  8  2  0  0  0  0
 10  9  1  0  0  0  0
 11  2  1  0  0  0  0
 12  3  1  0  0  0  0
 13  4  1  0  0  0  0
 14  6  1  0  0  0  0
 17 18  1  0  0  0  0
 18 25  1  0  0  0  0
 18 19  2  0  0  0  0
 19 24  1  0  0  0  0
 20 19  1  0  0  0  0
 21 20  2  0  0  0  0
 22 17  2  0  0  0  0
 22 21  1  0  0  0  0
 23 17  1  0  0  0  0
 25 27  1  0  0  0  0
 26 25  1  0  0  0  0
 29 28  1  6  0  0  0
 29 30  1  0  0  0  0
 30 31  1  0  0  0  0
 32 30  1  0  0  0  0
 33 32  1  0  0  0  0
 34 32  1  0  0  0  0
 35 34  1  0  0  0  0
 35 29  1  0  0  0  0
 36 35  1  0  0  0  0
M  END
>  <minimizedAffinity>
-5.77129793

$$$$

 OpenBabel03242515583D

 36 39  0  0  1  0  0  0  0  0999 V2000
   39.8620   29.5980   41.2320 C   0  0  0  0  0  0  0  0  0  0  0  0
   41.1750   29.6190   41.7800 C   0  0  0  0  0  0  0  0  0  0  0  0
   41.5780   28.8190   42.8230 C   0  0  0  0  0  0  0  0  0  0  0  0
   40.7150   27.9540   43.3880 C   0  0  0  0  0  0  0  0  0  0  0  0
   39.4180   27.8930   42.8930 C   0  0  0  0  0  0  0  0  0  0  0  0
   38.5730   27.0040   43.5000 C   0  0  0  0  0  0  0  0  0  0  0  0
   37.2690   26.9000   43.0630 C   0  0  0  0  0  0  0  0  0  0  0  0
   36.8840   27.7240   42.0080 C   0  0  0  0  0  0  0  0  0  0  0  0
   37.7890   28.5690   41.4740 C   0  0  0  0  0  0  0  0  0  0  0  0
   39.0520   28.7020   41.8580 C   0  0  0  0  0  0  0  0  0  0  0  0
   41.9000   30.2960   41.3600 H   0  0  0  0  0  0  0  0  0  0  0  0
   42.5940   28.8970   43.1820 H   0  0  0  0  0  0  0  0  0  0  0  0
   41.0610   27.3370   44.2060 H   0  0  0  0  0  0  0  0  0  0  0  0
   38.9670   26.3840   44.3390 H   0  0  0  0  0  0  0  0  0  0  0  0
   36.7070   26.1430   43.6440 H   0  0  0  0  0  0  0  0  0  0  0  0
   35.8470   27.4350   41.9070 H   0  0  0  0  0  0  0  0  0  0  0  0
   39.6890   30.4380   37.7410 C   0  0  0  0  0  0  0  0  0  0  0  0
   38.9460   31.6580   37.7530 C   0  0  0  0  0  0  0  0  0  0  0  0
   38.5080   32.2110   38.9910 C   0  0  0  0  0  0  0  0  0  0  0  0
   38.8300   31.5330   40.1020 N   0  0  0  0  0  0  0  0  0  0  0  0
   39.5070   30.4180   40.1030 C   0  0  0  0  0  0  0  0  0  0  0  0
   39.9300   29.8830   38.9170 N   0  0  0  0  0  0  0  0  0  0  0  0
   40.0070   30.0420   36.7910 H   0  0  0  0  0  0  0  0  0  0  0  0
   37.9750   33.0990   38.8100 H   0  0  0  0  0  0  0  0  0  0  0  0
   38.6880   32.2440   36.4840 N   0  0  0  0  0  0  0  0  0  0  0  0
   37.7800   32.0520   35.9850 H   0  0  0  0  0  0  0  0  0  0  0  0
   39.4360   32.8670   36.0790 H   0  0  0  0  0  0  0  0  0  0  0  0
   37.1270   29.2380   40.4840 O   0  0  0  0  0  0  0  0  0  0  0  0
   36.1890   28.6560   39.5990 C   0  0  2  0  0  3  0  0  0  0  0  0
   36.3020   28.9970   38.1550 C   0  0  0  0  0  3  0  0  0  0  0  0
   37.0070   28.4380   37.5550 H   0  0  0  0  0  0  0  0  0  0  0  0
   34.8910   28.4840   37.7300 C   0  0  0  0  0  3  0  0  0  0  0  0
   34.5990   28.8790   36.7640 H   0  0  0  0  0  0  0  0  0  0  0  0
   34.0520   28.9560   38.7270 O   0  0  0  0  0  0  0  0  0  0  0  0
   34.7910   29.2600   39.8590 C   0  0  0  0  0  3  0  0  0  0  0  0
   34.2970   28.8010   40.7290 H   0  0  0  0  0  0  0  0  0  0  0  0
  1  2  2  0  0  0  0
  1 10  1  0  0  0  0
  2  3  1  0  0  0  0
  3 12  1  0  0  0  0
  3  4  2  0  0  0  0
  4 13  1  0  0  0  0
  5  4  1  0  0  0  0
  5  6  1  0  0  0  0
  6 14  1  0  0  0  0
  7  6  2  0  0  0  0
  7 15  1  0  0  0  0
  8  7  1  0  0  0  0
  9 10  1  0  0  0  0
  9  8  2  0  0  0  0
 10  5  2  0  0  0  0
 11  2  1  0  0  0  0
 16  8  1  0  0  0  0
 17 18  2  0  0  0  0
 17 22  1  0  0  0  0
 18 19  1  0  0  0  0
 19 20  2  0  0  0  0
 20 21  1  0  0  0  0
 21  1  1  0  0  0  0
 22 21  2  0  0  0  0
 23 17  1  0  0  0  0
 24 19  1  0  0  0  0
 25 18  1  0  0  0  0
 26 25  1  0  0  0  0
 27 25  1  0  0  0  0
 28  9  1  0  0  0  0
 29 35  1  0  0  0  0
 29 28  1  1  0  0  0
 30 29  1  0  0  0  0
 31 30  1  0  0  0  0
 32 30  1  0  0  0  0
 32 34  1  0  0  0  0
 33 32  1  0  0  0  0
 34 35  1  0  0  0  0
 35 36  1  0  0  0  0
M  END
>  <minimizedAffinity>
-5.63126802

$$$$

 OpenBabel03242515583D

 36 39  0  0  1  0  0  0  0  0999 V2000
   38.5930   27.5170   42.0830 C   0  0  0  0  0  0  0  0  0  0  0  0
   39.5670   27.4410   43.1170 C   0  0  0  0  0  0  0  0  0  0  0  0
   39.9900   26.2610   43.6800 C   0  0  0  0  0  0  0  0  0  0  0  0
   39.4820   25.0880   43.2600 C   0  0  0  0  0  0  0  0  0  0  0  0
   38.5260   25.1030   42.2520 C   0  0  0  0  0  0  0  0  0  0  0  0
   38.0320   23.8880   41.8600 C   0  0  0  0  0  0  0  0  0  0  0  0
   37.0730   23.8330   40.8700 C   0  0  0  0  0  0  0  0  0  0  0  0
   36.6560   25.0430   40.3190 C   0  0  0  0  0  0  0  0  0  0  0  0
   37.2020   26.1900   40.7720 C   0  0  0  0  0  0  0  0  0  0  0  0
   38.1270   26.2920   41.7170 C   0  0  0  0  0  0  0  0  0  0  0  0
   40.0030   28.3560   43.4860 H   0  0  0  0  0  0  0  0  0  0  0  0
   40.7350   26.2900   44.4630 H   0  0  0  0  0  0  0  0  0  0  0  0
   39.8350   24.1760   43.7200 H   0  0  0  0  0  0  0  0  0  0  0  0
   38.4220   22.9700   42.3570 H   0  0  0  0  0  0  0  0  0  0  0  0
   36.7700   22.7900   40.6570 H   0  0  0  0  0  0  0  0  0  0  0  0
   35.9200   24.6900   39.6110 H   0  0  0  0  0  0  0  0  0  0  0  0
   36.5690   30.4600   41.6760 C   0  0  0  0  0  0  0  0  0  0  0  0
   37.2740   31.1820   40.6650 C   0  0  0  0  0  0  0  0  0  0  0  0
   38.4630   30.6370   40.1000 C   0  0  0  0  0  0  0  0  0  0  0  0
   38.8600   29.4440   40.5660 N   0  0  0  0  0  0  0  0  0  0  0  0
   38.2250   28.7770   41.4900 C   0  0  0  0  0  0  0  0  0  0  0  0
   37.0820   29.2950   42.0340 N   0  0  0  0  0  0  0  0  0  0  0  0
   35.6720   30.8960   42.0850 H   0  0  0  0  0  0  0  0  0  0  0  0
   38.8480   31.3020   39.3820 H   0  0  0  0  0  0  0  0  0  0  0  0
   36.7160   32.4350   40.2890 N   0  0  0  0  0  0  0  0  0  0  0  0
   37.0610   33.3250   40.7360 H   0  0  0  0  0  0  0  0  0  0  0  0
   35.9580   32.4260   39.5570 H   0  0  0  0  0  0  0  0  0  0  0  0
   36.6010   27.1890   40.0600 O   0  0  0  0  0  0  0  0  0  0  0  0
   36.6830   27.3490   38.6570 C   0  0  2  0  0  3  0  0  0  0  0  0
   35.8830   26.4220   37.8110 C   0  0  0  0  0  3  0  0  0  0  0  0
   34.8440   26.6620   37.6390 H   0  0  0  0  0  0  0  0  0  0  0  0
   36.6120   26.7210   36.4640 C   0  0  0  0  0  3  0  0  0  0  0  0
   36.4110   25.9560   35.7250 H   0  0  0  0  0  0  0  0  0  0  0  0
   37.9550   26.7310   36.8080 O   0  0  0  0  0  0  0  0  0  0  0  0
   38.0890   26.9310   38.1720 C   0  0  0  0  0  3  0  0  0  0  0  0
   38.8360   27.7240   38.3340 H   0  0  0  0  0  0  0  0  0  0  0  0
  1  2  1  0  0  0  0
  2 11  1  0  0  0  0
  2  3  2  0  0  0  0
  3 12  1  0  0  0  0
  4  3  1  0  0  0  0
  4 13  1  0  0  0  0
  5  4  2  0  0  0  0
  6  5  1  0  0  0  0
  6 14  1  0  0  0  0
  7  6  2  0  0  0  0
  8  9  2  0  0  0  0
  8  7  1  0  0  0  0
  9 10  1  0  0  0  0
 10  1  2  0  0  0  0
 10  5  1  0  0  0  0
 15  7  1  0  0  0  0
 16  8  1  0  0  0  0
 17 22  1  0  0  0  0
 17 23  1  0  0  0  0
 18 17  2  0  0  0  0
 19 20  2  0  0  0  0
 19 18  1  0  0  0  0
 20 21  1  0  0  0  0
 21 22  2  0  0  0  0
 21  1  1  0  0  0  0
 24 19  1  0  0  0  0
 25 18  1  0  0  0  0
 25 26  1  0  0  0  0
 27 25  1  0  0  0  0
 28  9  1  0  0  0  0
 29 28  1  1  0  0  0
 30 29  1  0  0  0  0
 31 30  1  0  0  0  0
 32 34  1  0  0  0  0
 32 30  1  0  0  0  0
 33 32  1  0  0  0  0
 34 35  1  0  0  0  0
 35 36  1  0  0  0  0
 35 29  1  0  0  0  0
M  END
>  <minimizedAffinity>
-5.57685661

$$$$

 OpenBabel03242515583D

 36 39  0  0  1  0  0  0  0  0999 V2000
   37.3820   31.5480   39.9190 C   0  0  0  0  0  0  0  0  0  0  0  0
   37.2250   32.9460   39.7110 C   0  0  0  0  0  0  0  0  0  0  0  0
   38.1770   33.8780   40.0470 C   0  0  0  0  0  0  0  0  0  0  0  0
   39.3390   33.4910   40.6060 C   0  0  0  0  0  0  0  0  0  0  0  0
   39.5460   32.1350   40.8320 C   0  0  0  0  0  0  0  0  0  0  0  0
   40.7380   31.7870   41.4070 C   0  0  0  0  0  0  0  0  0  0  0  0
   41.0030   30.4590   41.6680 C   0  0  0  0  0  0  0  0  0  0  0  0
   40.0200   29.5340   41.3230 C   0  0  0  0  0  0  0  0  0  0  0  0
   38.8770   29.9740   40.7600 C   0  0  0  0  0  0  0  0  0  0  0  0
   38.5790   31.2380   40.4880 C   0  0  0  0  0  0  0  0  0  0  0  0
   36.3100   33.3040   39.2670 H   0  0  0  0  0  0  0  0  0  0  0  0
   37.9790   34.9230   39.8570 H   0  0  0  0  0  0  0  0  0  0  0  0
   40.0700   34.2460   40.8580 H   0  0  0  0  0  0  0  0  0  0  0  0
   41.4670   32.5940   41.6510 H   0  0  0  0  0  0  0  0  0  0  0  0
   42.0010   30.3280   42.1290 H   0  0  0  0  0  0  0  0  0  0  0  0
   40.4930   28.6180   41.6490 H   0  0  0  0  0  0  0  0  0  0  0  0
   35.7030   29.4020   37.5730 C   0  0  0  0  0  0  0  0  0  0  0  0
   34.6880   28.7990   38.3780 C   0  0  0  0  0  0  0  0  0  0  0  0
   34.5700   29.1500   39.7540 C   0  0  0  0  0  0  0  0  0  0  0  0
   35.4440   30.0520   40.2230 N   0  0  0  0  0  0  0  0  0  0  0  0
   36.3750   30.6080   39.4980 C   0  0  0  0  0  0  0  0  0  0  0  0
   36.4930   30.2750   38.1770 N   0  0  0  0  0  0  0  0  0  0  0  0
   35.7690   29.1180   36.5360 H   0  0  0  0  0  0  0  0  0  0  0  0
   33.7800   28.6090   40.1880 H   0  0  0  0  0  0  0  0  0  0  0  0
   33.8470   27.8590   37.7210 N   0  0  0  0  0  0  0  0  0  0  0  0
   34.0660   26.8300   37.7650 H   0  0  0  0  0  0  0  0  0  0  0  0
   33.0130   28.2390   37.2010 H   0  0  0  0  0  0  0  0  0  0  0  0
   38.1190   28.8580   40.5460 O   0  0  0  0  0  0  0  0  0  0  0  0
   38.0130   27.7660   41.4390 C   0  0  2  0  0  3  0  0  0  0  0  0
   37.3390   26.5350   40.9430 C   0  0  0  0  0  3  0  0  0  0  0  0
   37.9260   25.8320   40.3700 H   0  0  0  0  0  0  0  0  0  0  0  0
   37.1250   25.8650   42.3360 C   0  0  0  0  0  3  0  0  0  0  0  0
   36.3880   25.0730   42.2870 H   0  0  0  0  0  0  0  0  0  0  0  0
   36.6780   26.9020   43.1390 O   0  0  0  0  0  0  0  0  0  0  0  0
   37.0230   28.1190   42.5710 C   0  0  0  0  0  3  0  0  0  0  0  0
   37.4880   28.7440   43.3480 H   0  0  0  0  0  0  0  0  0  0  0  0
  1 10  1  0  0  0  0
  2  1  2  0  0  0  0
  2  3  1  0  0  0  0
  3  4  2  0  0  0  0
  4  5  1  0  0  0  0
  4 13  1  0  0  0  0
  5  6  1  0  0  0  0
  6 14  1  0  0  0  0
  6  7  2  0  0  0  0
  7 15  1  0  0  0  0
  8 16  1  0  0  0  0
  8  7  1  0  0  0  0
  9  8  2  0  0  0  0
 10  9  1  0  0  0  0
 10  5  2  0  0  0  0
 11  2  1  0  0  0  0
 12  3  1  0  0  0  0
 17 22  2  0  0  0  0
 17 18  1  0  0  0  0
 18 19  2  0  0  0  0
 19 24  1  0  0  0  0
 19 20  1  0  0  0  0
 21  1  1  0  0  0  0
 21 20  2  0  0  0  0
 22 21  1  0  0  0  0
 23 17  1  0  0  0  0
 25 26  1  0  0  0  0
 25 18  1  0  0  0  0
 27 25  1  0  0  0  0
 28  9  1  0  0  0  0
 29 28  1  6  0  0  0
 29 35  1  0  0  0  0
 30 29  1  0  0  0  0
 30 32  1  0  0  0  0
 31 30  1  0  0  0  0
 32 34  1  0  0  0  0
 33 32  1  0  0  0  0
 35 34  1  0  0  0  0
 35 36  1  0  0  0  0
M  END
>  <minimizedAffinity>
-5.4993825

$$$$

 OpenBabel03242515583D

 36 39  0  0  1  0  0  0  0  0999 V2000
   37.5490   30.6220   40.2250 C   0  0  0  0  0  0  0  0  0  0  0  0
   36.4230   30.4690   39.3700 C   0  0  0  0  0  0  0  0  0  0  0  0
   35.4220   29.5520   39.5850 C   0  0  0  0  0  0  0  0  0  0  0  0
   35.4700   28.7330   40.6530 C   0  0  0  0  0  0  0  0  0  0  0  0
   36.5480   28.8380   41.5220 C   0  0  0  0  0  0  0  0  0  0  0  0
   36.5590   27.9830   42.5900 C   0  0  0  0  0  0  0  0  0  0  0  0
   37.6070   28.0290   43.4860 C   0  0  0  0  0  0  0  0  0  0  0  0
   38.6120   28.9630   43.2430 C   0  0  0  0  0  0  0  0  0  0  0  0
   38.5120   29.7640   42.1630 C   0  0  0  0  0  0  0  0  0  0  0  0
   37.5250   29.7580   41.2770 C   0  0  0  0  0  0  0  0  0  0  0  0
   36.3420   31.1030   38.5020 H   0  0  0  0  0  0  0  0  0  0  0  0
   34.6000   29.4990   38.8860 H   0  0  0  0  0  0  0  0  0  0  0  0
   34.6670   28.0230   40.7970 H   0  0  0  0  0  0  0  0  0  0  0  0
   35.7130   27.2660   42.7050 H   0  0  0  0  0  0  0  0  0  0  0  0
   37.4800   27.2850   44.2950 H   0  0  0  0  0  0  0  0  0  0  0  0
   39.2720   28.7560   44.0730 H   0  0  0  0  0  0  0  0  0  0  0  0
   40.4510   32.0300   38.6360 C   0  0  0  0  0  0  0  0  0  0  0  0
   40.5230   33.3310   39.2220 C   0  0  0  0  0  0  0  0  0  0  0  0
   39.5610   33.7260   40.1960 C   0  0  0  0  0  0  0  0  0  0  0  0
   38.6190   32.8260   40.5130 N   0  0  0  0  0  0  0  0  0  0  0  0
   38.5430   31.6360   39.9840 C   0  0  0  0  0  0  0  0  0  0  0  0
   39.4640   31.2520   39.0490 N   0  0  0  0  0  0  0  0  0  0  0  0
   41.1910   31.7580   37.9020 H   0  0  0  0  0  0  0  0  0  0  0  0
   39.7630   34.7090   40.5110 H   0  0  0  0  0  0  0  0  0  0  0  0
   41.5840   34.1610   38.7680 N   0  0  0  0  0  0  0  0  0  0  0  0
   41.4220   34.8540   37.9910 H   0  0  0  0  0  0  0  0  0  0  0  0
   42.5200   34.0490   39.2410 H   0  0  0  0  0  0  0  0  0  0  0  0
   39.6280   30.5530   42.1860 O   0  0  0  0  0  0  0  0  0  0  0  0
   40.9210   30.1170   42.5620 C   0  0  2  0  0  3  0  0  0  0  0  0
   41.9140   31.1590   42.9400 C   0  0  0  0  0  3  0  0  0  0  0  0
   41.8960   31.5330   43.9530 H   0  0  0  0  0  0  0  0  0  0  0  0
   43.1800   30.2520   42.8500 C   0  0  0  0  0  3  0  0  0  0  0  0
   44.0880   30.8410   42.8000 H   0  0  0  0  0  0  0  0  0  0  0  0
   42.9940   29.5360   41.6780 O   0  0  0  0  0  0  0  0  0  0  0  0
   41.6540   29.5520   41.3250 C   0  0  0  0  0  3  0  0  0  0  0  0
   41.3440   28.5220   41.0950 H   0  0  0  0  0  0  0  0  0  0  0  0
  1 10  1  0  0  0  0
  2  3  1  0  0  0  0
  2  1  2  0  0  0  0
  3  4  2  0  0  0  0
  4 13  1  0  0  0  0
  4  5  1  0  0  0  0
  5  6  1  0  0  0  0
  6 14  1  0  0  0  0
  6  7  2  0  0  0  0
  7 15  1  0  0  0  0
  8  7  1  0  0  0  0
  8 16  1  0  0  0  0
  9 28  1  0  0  0  0
  9  8  2  0  0  0  0
 10  5  2  0  0  0  0
 10  9  1  0  0  0  0
 11  2  1  0  0  0  0
 12  3  1  0  0  0  0
 17 22  2  0  0  0  0
 17 18  1  0  0  0  0
 18 19  2  0  0  0  0
 19 24  1  0  0  0  0
 19 20  1  0  0  0  0
 21  1  1  0  0  0  0
 21 20  2  0  0  0  0
 22 21  1  0  0  0  0
 23 17  1  0  0  0  0
 25 18  1  0  0  0  0
 25 27  1  0  0  0  0
 26 25  1  0  0  0  0
 29 28  1  6  0  0  0
 29 30  1  0  0  0  0
 30 31  1  0  0  0  0
 32 30  1  0  0  0  0
 33 32  1  0  0  0  0
 34 32  1  0  0  0  0
 35 34  1  0  0  0  0
 35 29  1  0  0  0  0
 36 35  1  0  0  0  0
M  END
>  <minimizedAffinity>
-5.49816656

$$$$

 OpenBabel03242515583D

 36 39  0  0  1  0  0  0  0  0999 V2000
   39.7400   30.6380   41.5720 C   0  0  0  0  0  0  0  0  0  0  0  0
   41.1410   30.7080   41.8020 C   0  0  0  0  0  0  0  0  0  0  0  0
   41.9120   31.8020   41.4850 C   0  0  0  0  0  0  0  0  0  0  0  0
   41.3490   32.8880   40.9230 C   0  0  0  0  0  0  0  0  0  0  0  0
   39.9820   32.8740   40.6740 C   0  0  0  0  0  0  0  0  0  0  0  0
   39.4540   33.9960   40.0970 C   0  0  0  0  0  0  0  0  0  0  0  0
   38.1050   34.0430   39.8150 C   0  0  0  0  0  0  0  0  0  0  0  0
   37.3460   32.9210   40.1420 C   0  0  0  0  0  0  0  0  0  0  0  0
   37.9580   31.8610   40.7090 C   0  0  0  0  0  0  0  0  0  0  0  0
   39.2490   31.7710   41.0010 C   0  0  0  0  0  0  0  0  0  0  0  0
   41.6360   29.8620   42.2500 H   0  0  0  0  0  0  0  0  0  0  0  0
   42.9720   31.7750   41.6920 H   0  0  0  0  0  0  0  0  0  0  0  0
   41.9800   33.7330   40.6850 H   0  0  0  0  0  0  0  0  0  0  0  0
   40.1360   34.8480   39.8690 H   0  0  0  0  0  0  0  0  0  0  0  0
   37.8210   35.0090   39.3540 H   0  0  0  0  0  0  0  0  0  0  0  0
   36.3720   33.2410   39.8020 H   0  0  0  0  0  0  0  0  0  0  0  0
   38.4330   27.3060   41.2270 C   0  0  0  0  0  0  0  0  0  0  0  0
   37.6970   27.1360   42.4400 C   0  0  0  0  0  0  0  0  0  0  0  0
   37.6370   28.1960   43.3890 C   0  0  0  0  0  0  0  0  0  0  0  0
   38.2940   29.3230   43.0780 N   0  0  0  0  0  0  0  0  0  0  0  0
   38.9700   29.4890   41.9750 C   0  0  0  0  0  0  0  0  0  0  0  0
   39.0310   28.4750   41.0600 N   0  0  0  0  0  0  0  0  0  0  0  0
   38.4620   26.4870   40.5280 H   0  0  0  0  0  0  0  0  0  0  0  0
   37.0620   27.8950   44.2160 H   0  0  0  0  0  0  0  0  0  0  0  0
   37.0630   25.8750   42.6130 N   0  0  0  0  0  0  0  0  0  0  0  0
   37.5420   25.1090   43.1550 H   0  0  0  0  0  0  0  0  0  0  0  0
   36.1090   25.7520   42.1810 H   0  0  0  0  0  0  0  0  0  0  0  0
   36.9760   30.9310   40.9030 O   0  0  0  0  0  0  0  0  0  0  0  0
   36.0800   30.4780   39.9060 C   0  0  2  0  0  3  0  0  0  0  0  0
   35.2470   29.2860   40.2210 C   0  0  0  0  0  3  0  0  0  0  0  0
   34.3330   29.4390   40.7770 H   0  0  0  0  0  0  0  0  0  0  0  0
   34.8000   28.9770   38.7580 C   0  0  0  0  0  3  0  0  0  0  0  0
   34.4080   27.9720   38.6660 H   0  0  0  0  0  0  0  0  0  0  0  0
   35.9630   29.1210   38.0180 O   0  0  0  0  0  0  0  0  0  0  0  0
   36.8800   29.8810   38.7260 C   0  0  0  0  0  3  0  0  0  0  0  0
   37.2740   30.6610   38.0560 H   0  0  0  0  0  0  0  0  0  0  0  0
  1  2  1  0  0  0  0
  1 21  1  0  0  0  0
  2 11  1  0  0  0  0
  3 12  1  0  0  0  0
  3  2  2  0  0  0  0
  4  3  1  0  0  0  0
  5  4  2  0  0  0  0
  5 10  1  0  0  0  0
  6  5  1  0  0  0  0
  7  6  2  0  0  0  0
  7  8  1  0  0  0  0
  8  9  2  0  0  0  0
  9 28  1  0  0  0  0
  9 10  1  0  0  0  0
 10  1  2  0  0  0  0
 13  4  1  0  0  0  0
 14  6  1  0  0  0  0
 15  7  1  0  0  0  0
 16  8  1  0  0  0  0
 17 18  1  0  0  0  0
 18 25  1  0  0  0  0
 18 19  2  0  0  0  0
 19 24  1  0  0  0  0
 20 19  1  0  0  0  0
 21 20  2  0  0  0  0
 22 17  2  0  0  0  0
 22 21  1  0  0  0  0
 23 17  1  0  0  0  0
 25 26  1  0  0  0  0
 27 25  1  0  0  0  0
 29 30  1  0  0  0  0
 29 28  1  1  0  0  0
 30 31  1  0  0  0  0
 32 30  1  0  0  0  0
 33 32  1  0  0  0  0
 34 35  1  0  0  0  0
 34 32  1  0  0  0  0
 35 29  1  0  0  0  0
 36 35  1  0  0  0  0
M  END
>  <minimizedAffinity>
-5.4292469

$$$$
