
 OpenBabel03252500153D

 37 40  0  0  1  0  0  0  0  0999 V2000
   45.5070   32.3180   40.5670 Cl  0  0  0  0  0  0  0  0  0  0  0  0
   46.7920   33.4300   40.2040 C   0  0  0  0  0  0  0  0  0  0  0  0
   47.3740   34.1850   41.1880 C   0  0  0  0  0  0  0  0  0  0  0  0
   48.4030   35.0840   40.9270 C   0  0  0  0  0  0  0  0  0  0  0  0
   48.8050   35.1720   39.6160 C   0  0  0  0  0  0  0  0  0  0  0  0
   48.2270   34.4150   38.6130 C   0  0  0  0  0  0  0  0  0  0  0  0
   47.2310   33.5540   38.8990 C   0  0  0  0  0  0  0  0  0  0  0  0
   48.8580   35.6750   41.6930 H   0  0  0  0  0  0  0  0  0  0  0  0
   49.6020   35.8640   39.4030 H   0  0  0  0  0  0  0  0  0  0  0  0
   48.5590   34.5000   37.5900 H   0  0  0  0  0  0  0  0  0  0  0  0
   46.9070   32.9120   44.6180 C   0  0  0  0  0  0  0  0  0  0  0  0
   45.9650   33.8200   45.1610 C   0  0  0  0  0  0  0  0  0  0  0  0
   45.5100   34.8510   44.3370 C   0  0  0  0  0  0  0  0  0  0  0  0
   45.9970   34.9220   43.0620 N   0  0  0  0  0  0  0  0  0  0  0  0
   46.8940   34.0430   42.5740 C   0  0  0  0  0  0  0  0  0  0  0  0
   47.3350   33.0560   43.3520 N   0  0  0  0  0  0  0  0  0  0  0  0
   47.2400   32.1220   45.2850 H   0  0  0  0  0  0  0  0  0  0  0  0
   45.5630   33.7920   46.1550 H   0  0  0  0  0  0  0  0  0  0  0  0
   44.5170   35.8710   44.7950 C   0  0  0  0  0  0  0  0  0  0  0  0
   44.9730   37.1300   44.5670 F   0  0  0  0  0  0  0  0  0  0  0  0
   43.3420   35.6770   44.0950 F   0  0  0  0  0  0  0  0  0  0  0  0
   44.3040   35.6420   46.1300 F   0  0  0  0  0  0  0  0  0  0  0  0
   46.6040   32.7440   37.8580 C   0  0  0  0  0  0  0  0  0  0  0  0
   45.5950   33.2150   37.0070 C   0  0  0  0  0  0  0  0  0  0  0  0
   45.2370   32.1860   36.1510 C   0  0  0  0  0  0  0  0  0  0  0  0
   46.0620   31.1400   36.5400 C   0  0  0  0  0  0  0  0  0  0  0  0
   46.8500   31.4860   37.5370 O   0  0  0  0  0  0  0  0  0  0  0  0
   45.1720   34.2130   37.0210 H   0  0  0  0  0  0  0  0  0  0  0  0
   44.5130   32.1730   35.3760 H   0  0  0  0  0  0  0  0  0  0  0  0
   46.0920   29.7960   35.9490 C   0  0  1  0  0  3  0  0  0  0  0  0
   47.0480   28.8440   36.6810 C   0  0  0  0  0  3  0  0  0  0  0  0
   46.8340   28.8290   37.7570 H   0  0  0  0  0  0  0  0  0  0  0  0
   46.5140   27.5330   36.0870 C   0  0  0  0  0  3  0  0  0  0  0  0
   46.8640   26.6500   36.6430 H   0  0  0  0  0  0  0  0  0  0  0  0
   45.1420   27.6780   36.0320 O   0  0  0  0  0  0  0  0  0  0  0  0
   44.8190   29.0170   36.0920 C   0  0  0  0  0  3  0  0  0  0  0  0
   44.4150   29.2050   37.1100 H   0  0  0  0  0  0  0  0  0  0  0  0
  2  1  1  0  0  0  0
  2  3  1  0  0  0  0
  3 15  1  0  0  0  0
  4  3  2  0  0  0  0
  4  8  1  0  0  0  0
  5  4  1  0  0  0  0
  6  7  1  0  0  0  0
  6  5  2  0  0  0  0
  7  2  2  0  0  0  0
  9  5  1  0  0  0  0
 10  6  1  0  0  0  0
 11 12  1  0  0  0  0
 11 17  1  0  0  0  0
 12 18  1  0  0  0  0
 13 19  1  0  0  0  0
 13 12  2  0  0  0  0
 14 13  1  0  0  0  0
 15 14  2  0  0  0  0
 15 16  1  0  0  0  0
 16 11  2  0  0  0  0
 19 22  1  0  0  0  0
 20 19  1  0  0  0  0
 21 19  1  0  0  0  0
 23  7  1  0  0  0  0
 24 28  1  0  0  0  0
 24 23  2  0  0  0  0
 25 26  2  0  0  0  0
 25 24  1  0  0  0  0
 26 27  1  0  0  0  0
 27 23  1  0  0  0  0
 29 25  1  0  0  0  0
 30 36  1  0  0  0  0
 30 26  1  1  0  0  0
 30 31  1  0  0  0  0
 31 32  1  0  0  0  0
 33 34  1  0  0  0  0
 33 31  1  0  0  0  0
 35 33  1  0  0  0  0
 35 36  1  0  0  0  0
 36 37  1  0  0  0  0
M  END
>  <minimizedAffinity>
-5.52992582

>  <minimizedRMSD>
0.0539758168

$$$$
