
 OpenBabel03252504333D

 39 41  0  0  1  0  0  0  0  0999 V2000
   42.5190   35.3600   40.5820 O   0  0  0  0  0  0  0  0  0  0  0  0
   41.3270   35.5580   41.1930 C   0  0  0  0  0  0  0  0  0  0  0  0
   40.8050   36.4190   40.6390 H   0  0  0  0  0  0  0  0  0  0  0  0
   41.2920   35.8180   42.2490 H   0  0  0  0  0  0  0  0  0  0  0  0
   40.6150   33.2760   41.6720 C   0  0  0  0  0  0  0  0  0  0  0  0
   40.3330   34.4470   40.9830 C   0  0  0  0  0  0  0  0  0  0  0  0
   39.2100   34.5090   40.2160 C   0  0  0  0  0  0  0  0  0  0  0  0
   38.4580   33.4220   40.1880 N   0  0  0  0  0  0  0  0  0  0  0  0
   38.7040   32.2890   40.8380 C   0  0  0  0  0  0  0  0  0  0  0  0
   39.8420   32.1820   41.6330 N   0  0  0  0  0  0  0  0  0  0  0  0
   41.5000   33.1840   42.2940 H   0  0  0  0  0  0  0  0  0  0  0  0
   39.0240   35.4180   39.7020 H   0  0  0  0  0  0  0  0  0  0  0  0
   37.8560   31.0630   40.8070 C   0  0  1  0  0  3  0  0  0  0  0  0
   37.9630   30.4160   39.4230 C   0  0  0  0  0  3  0  0  0  0  0  0
   38.9430   30.6860   38.9700 H   0  0  0  0  0  0  0  0  0  0  0  0
   37.9500   28.9520   39.8260 C   0  0  0  0  0  3  0  0  0  0  0  0
   36.8980   28.5980   39.9070 H   0  0  0  0  0  0  0  0  0  0  0  0
   38.6190   28.8960   41.0470 O   0  0  0  0  0  0  0  0  0  0  0  0
   38.2870   30.0140   41.7780 C   0  0  0  0  0  3  0  0  0  0  0  0
   37.4470   29.7460   42.4770 H   0  0  0  0  0  0  0  0  0  0  0  0
   43.7880   35.2620   41.1410 C   0  0  0  0  0  3  0  0  0  0  0  0
   43.8620   35.5810   42.4310 C   0  0  0  0  0  3  0  0  0  0  0  0
   45.1220   35.5610   43.2650 C   0  0  0  0  0  0  0  0  0  0  0  0
   45.8960   35.1580   42.5480 H   0  0  0  0  0  0  0  0  0  0  0  0
   45.4180   36.5730   43.5790 H   0  0  0  0  0  0  0  0  0  0  0  0
   44.9480   34.6740   44.2970 O   0  0  0  0  0  0  0  0  0  0  0  0
   45.6780   32.5510   42.8600 O   0  0  0  0  0  0  0  0  0  0  0  0
   45.9720   33.3470   44.1110 P   0  0  1  0  0  0  0  0  0  0  0  0
   47.5890   33.8770   43.9990 O   0  0  0  0  0  0  0  0  0  0  0  0
   47.6520   34.7340   44.4570 H   0  0  0  0  0  0  0  0  0  0  0  0
   45.8770   32.3480   45.4660 O   0  0  0  0  0  0  0  0  0  0  0  0
   46.1590   33.0170   46.6400 C   0  0  0  0  0  0  0  0  0  0  0  0
   46.9720   32.3300   47.6930 C   0  0  0  0  0  0  0  0  0  0  0  0
   45.4700   32.4750   47.8680 C   0  0  0  0  0  0  0  0  0  0  0  0
   46.2410   34.1100   46.5470 H   0  0  0  0  0  0  0  0  0  0  0  0
   47.4140   31.3610   47.4360 H   0  0  0  0  0  0  0  0  0  0  0  0
   47.5930   32.9990   48.3130 H   0  0  0  0  0  0  0  0  0  0  0  0
   45.0830   33.1680   48.6320 H   0  0  0  0  0  0  0  0  0  0  0  0
   44.9450   31.4910   47.7930 H   0  0  0  0  0  0  0  0  0  0  0  0
  1 21  1  0  0  0  0
  1  2  1  0  0  0  0
  2  4  1  0  0  0  0
  3  2  1  0  0  0  0
  5 11  1  0  0  0  0
  6  2  1  0  0  0  0
  6  5  2  0  0  0  0
  7  6  1  0  0  0  0
  8  7  2  0  0  0  0
  8  9  1  0  0  0  0
  9 10  2  0  0  0  0
 10  5  1  0  0  0  0
 12  7  1  0  0  0  0
 13  9  1  6  0  0  0
 13 19  1  0  0  0  0
 14 16  1  0  0  0  0
 14 13  1  0  0  0  0
 15 14  1  0  0  0  0
 16 17  1  0  0  0  0
 16 18  1  0  0  0  0
 18 19  1  0  0  0  0
 19 20  1  0  0  0  0
 21 22  2  0  0  0  0
 22 23  1  0  0  0  0
 23 25  1  0  0  0  0
 23 26  1  0  0  0  0
 24 23  1  0  0  0  0
 28 27  2  6  0  0  0
 28 26  1  0  0  0  0
 28 31  1  0  0  0  0
 29 28  1  0  0  0  0
 29 30  1  0  0  0  0
 31 32  1  0  0  0  0
 32 33  1  0  0  0  0
 32 34  1  0  0  0  0
 33 34  1  0  0  0  0
 33 37  1  0  0  0  0
 34 38  1  0  0  0  0
 35 32  1  0  0  0  0
 36 33  1  0  0  0  0
 39 34  1  0  0  0  0
M  END
>  <minimizedAffinity>
-5.0620451

>  <minimizedRMSD>
0.870475888

$$$$
