
 OpenBabel03242517433D

 21 22  0  0  0  0  0  0  0  0999 V2000
   42.1060   31.8560   41.7150 Cl  0  0  0  0  0  0  0  0  0  0  0  0
   41.4450   33.3590   41.0930 C   0  0  0  0  0  0  0  0  0  0  0  0
   42.2390   34.4410   40.7560 C   0  0  0  0  0  0  0  0  0  0  0  0
   41.6290   35.5960   40.2690 C   0  0  0  0  0  0  0  0  0  0  0  0
   42.3020   36.4200   40.0190 H   0  0  0  0  0  0  0  0  0  0  0  0
   40.2580   35.6630   40.1240 C   0  0  0  0  0  0  0  0  0  0  0  0
   39.8450   36.5990   39.7380 H   0  0  0  0  0  0  0  0  0  0  0  0
   39.4520   34.5870   40.4580 C   0  0  0  0  0  0  0  0  0  0  0  0
   38.3840   34.6980   40.3240 H   0  0  0  0  0  0  0  0  0  0  0  0
   40.0700   33.4480   40.9400 C   0  0  0  0  0  0  0  0  0  0  0  0
   38.9750   32.1390   41.3350 Cl  0  0  0  0  0  0  0  0  0  0  0  0
   43.9960   34.2300   40.9880 S   0  0  0  0  0  0  0  0  0  0  0  0
   44.2140   35.6380   43.3770 C   0  0  0  0  0  0  0  0  0  0  0  0
   44.4490   34.4080   42.7090 C   0  0  0  0  0  0  0  0  0  0  0  0
   45.0300   33.3730   43.4280 C   0  0  0  0  0  0  0  0  0  0  0  0
   45.3530   33.5660   44.7330 N   0  0  0  0  0  0  0  0  0  0  0  0
   45.1150   34.7540   45.3390 C   0  0  0  0  0  0  0  0  0  0  0  0
   44.5580   35.7690   44.6760 N   0  0  0  0  0  0  0  0  0  0  0  0
   43.7650   36.4240   42.8040 H   0  0  0  0  0  0  0  0  0  0  0  0
   45.2090   32.4380   42.9240 H   0  0  0  0  0  0  0  0  0  0  0  0
   45.4160   34.7710   46.3630 H   0  0  0  0  0  0  0  0  0  0  0  0
  2  1  1  0  0  0  0
  3 12  1  0  0  0  0
  3  2  2  0  0  0  0
  4  3  1  0  0  0  0
  5  4  1  0  0  0  0
  6  4  2  0  0  0  0
  6  8  1  0  0  0  0
  7  6  1  0  0  0  0
  8 10  2  0  0  0  0
  9  8  1  0  0  0  0
 10  2  1  0  0  0  0
 10 11  1  0  0  0  0
 12 14  1  0  0  0  0
 13 18  1  0  0  0  0
 14 13  2  0  0  0  0
 14 15  1  0  0  0  0
 15 16  2  0  0  0  0
 16 17  1  0  0  0  0
 17 21  1  0  0  0  0
 18 17  2  0  0  0  0
 19 13  1  0  0  0  0
 20 15  1  0  0  0  0
M  END
>  <minimizedAffinity>
-4.53567982

>  <minimizedRMSD>
0.948061645

$$$$
