
 OpenBabel03242517433D

 21 22  0  0  0  0  0  0  0  0999 V2000
   42.7880   32.0540   41.0380 Cl  0  0  0  0  0  0  0  0  0  0  0  0
   41.8060   33.5010   40.8950 C   0  0  0  0  0  0  0  0  0  0  0  0
   42.3390   34.7750   40.9600 C   0  0  0  0  0  0  0  0  0  0  0  0
   41.4840   35.8700   40.8360 C   0  0  0  0  0  0  0  0  0  0  0  0
   41.9570   36.8530   40.8950 H   0  0  0  0  0  0  0  0  0  0  0  0
   40.1270   35.6890   40.6510 C   0  0  0  0  0  0  0  0  0  0  0  0
   39.5150   36.5880   40.5620 H   0  0  0  0  0  0  0  0  0  0  0  0
   39.5820   34.4170   40.5850 C   0  0  0  0  0  0  0  0  0  0  0  0
   38.5120   34.3370   40.4400 H   0  0  0  0  0  0  0  0  0  0  0  0
   40.4400   33.3420   40.7090 C   0  0  0  0  0  0  0  0  0  0  0  0
   39.6630   31.7740   40.6120 Cl  0  0  0  0  0  0  0  0  0  0  0  0
   44.1050   34.8780   41.2000 S   0  0  0  0  0  0  0  0  0  0  0  0
   44.2860   35.7530   43.8350 C   0  0  0  0  0  0  0  0  0  0  0  0
   44.5350   34.6920   42.9260 C   0  0  0  0  0  0  0  0  0  0  0  0
   45.1140   33.5310   43.4190 C   0  0  0  0  0  0  0  0  0  0  0  0
   45.4200   33.4460   44.7400 N   0  0  0  0  0  0  0  0  0  0  0  0
   45.1670   34.4800   45.5790 C   0  0  0  0  0  0  0  0  0  0  0  0
   44.6130   35.6100   45.1370 N   0  0  0  0  0  0  0  0  0  0  0  0
   43.8390   36.6410   43.4330 H   0  0  0  0  0  0  0  0  0  0  0  0
   45.3050   32.7230   42.7320 H   0  0  0  0  0  0  0  0  0  0  0  0
   45.4550   34.2820   46.5870 H   0  0  0  0  0  0  0  0  0  0  0  0
  2  3  1  0  0  0  0
  2  1  1  0  0  0  0
  3 12  1  0  0  0  0
  4  5  1  0  0  0  0
  4  3  2  0  0  0  0
  6  4  1  0  0  0  0
  7  6  1  0  0  0  0
  8  6  2  0  0  0  0
  8 10  1  0  0  0  0
  9  8  1  0  0  0  0
 10  2  2  0  0  0  0
 11 10  1  0  0  0  0
 12 14  1  0  0  0  0
 13 18  1  0  0  0  0
 14 15  1  0  0  0  0
 14 13  2  0  0  0  0
 15 16  2  0  0  0  0
 16 17  1  0  0  0  0
 17 21  1  0  0  0  0
 18 17  2  0  0  0  0
 19 13  1  0  0  0  0
 20 15  1  0  0  0  0
M  END
>  <minimizedAffinity>
-4.40044403

>  <minimizedRMSD>
0.526671171

$$$$
