
 OpenBabel03252507103D

 38 40  0  0  1  0  0  0  0  0999 V2000
   44.5790   35.9170   44.6820 C   0  0  0  0  0  0  0  0  0  0  0  0
   44.2470   35.6350   43.3420 C   0  0  0  0  0  0  0  0  0  0  0  0
   44.5560   34.3600   42.8750 C   0  0  0  0  0  0  0  0  0  0  0  0
   45.1420   33.4740   43.7000 N   0  0  0  0  0  0  0  0  0  0  0  0
   45.4480   33.7620   44.9700 C   0  0  0  0  0  0  0  0  0  0  0  0
   45.1630   34.9950   45.4640 N   0  0  0  0  0  0  0  0  0  0  0  0
   44.3660   36.8880   45.1100 H   0  0  0  0  0  0  0  0  0  0  0  0
   43.7790   36.4300   42.7780 H   0  0  0  0  0  0  0  0  0  0  0  0
   45.2960   32.5000   47.1330 C   0  0  1  0  0  0  0  0  0  0  0  0
   46.0980   32.8350   45.9120 C   0  0  1  0  0  0  0  0  0  0  0  0
   46.1530   31.4220   45.2800 C   0  0  0  0  0  0  0  0  0  0  0  0
   46.1580   30.5330   46.3110 O   0  0  0  0  0  0  0  0  0  0  0  0
   45.9950   31.2010   47.5190 C   0  0  0  0  0  0  0  0  0  0  0  0
   44.2690   32.2230   46.8020 H   0  0  0  0  0  0  0  0  0  0  0  0
   47.1220   33.1410   46.1880 H   0  0  0  0  0  0  0  0  0  0  0  0
   47.1310   31.3720   44.7520 H   0  0  0  0  0  0  0  0  0  0  0  0
   45.3650   31.3000   44.5350 H   0  0  0  0  0  0  0  0  0  0  0  0
   46.9440   31.4600   47.9990 H   0  0  0  0  0  0  0  0  0  0  0  0
   45.3360   30.5710   48.1570 H   0  0  0  0  0  0  0  0  0  0  0  0
   45.2950   33.4570   48.1020 O   0  0  0  0  0  0  0  0  0  0  0  0
   44.3940   33.4590   48.5530 H   0  0  0  0  0  0  0  0  0  0  0  0
   44.2270   34.0930   41.5560 O   0  0  0  0  0  0  0  0  0  0  0  0
   45.3310   31.8080   40.7480 O   0  0  0  0  0  0  0  0  0  0  0  0
   45.3690   33.3210   40.5290 P   0  0  1  0  0  0  0  0  0  0  0  0
   44.9910   33.7140   38.9540 O   0  0  0  0  0  0  0  0  0  0  0  0
   44.2160   33.1500   38.6660 H   0  0  0  0  0  0  0  0  0  0  0  0
   46.8890   33.8970   40.9890 O   0  0  0  0  0  0  0  0  0  0  0  0
   48.3660   33.3210   38.5550 Cl  0  0  0  0  0  0  0  0  0  0  0  0
   48.7440   32.8160   40.1990 C   0  0  0  0  0  0  0  0  0  0  0  0
   47.9840   33.1320   41.3280 C   0  0  0  0  0  0  0  0  0  0  0  0
   48.3890   32.6760   42.5650 C   0  0  0  0  0  0  0  0  0  0  0  0
   47.7320   32.9750   43.3690 H   0  0  0  0  0  0  0  0  0  0  0  0
   49.5100   31.9220   42.7280 C   0  0  0  0  0  0  0  0  0  0  0  0
   49.7960   31.5830   43.7030 H   0  0  0  0  0  0  0  0  0  0  0  0
   50.2340   31.6320   41.5870 C   0  0  0  0  0  0  0  0  0  0  0  0
   51.1320   31.0300   41.7050 H   0  0  0  0  0  0  0  0  0  0  0  0
   49.9010   32.0470   40.3180 C   0  0  0  0  0  0  0  0  0  0  0  0
   50.8960   31.6170   38.9440 Cl  0  0  0  0  0  0  0  0  0  0  0  0
  1  7  1  0  0  0  0
  1  6  1  0  0  0  0
  2  1  2  0  0  0  0
  3  2  1  0  0  0  0
  3  4  2  0  0  0  0
  4  5  1  0  0  0  0
  5  6  2  0  0  0  0
  5 10  1  0  0  0  0
  8  2  1  0  0  0  0
  9 14  1  6  0  0  0
  9 13  1  0  0  0  0
  9 20  1  0  0  0  0
 10 15  1  1  0  0  0
 10  9  1  0  0  0  0
 11 10  1  0  0  0  0
 11 12  1  0  0  0  0
 12 13  1  0  0  0  0
 13 18  1  0  0  0  0
 13 19  1  0  0  0  0
 16 11  1  0  0  0  0
 17 11  1  0  0  0  0
 20 21  1  0  0  0  0
 22  3  1  0  0  0  0
 24 23  2  1  0  0  0
 24 27  1  0  0  0  0
 24 22  1  0  0  0  0
 25 24  1  0  0  0  0
 26 25  1  0  0  0  0
 27 30  1  0  0  0  0
 28 29  1  0  0  0  0
 29 37  2  0  0  0  0
 29 30  1  0  0  0  0
 30 31  2  0  0  0  0
 31 33  1  0  0  0  0
 31 32  1  0  0  0  0
 33 34  1  0  0  0  0
 35 36  1  0  0  0  0
 35 33  2  0  0  0  0
 37 35  1  0  0  0  0
 38 37  1  0  0  0  0
M  END
>  <minimizedAffinity>
-5.25446749

>  <minimizedRMSD>
2.66456056

$$$$
