
 OpenBabel03242519253D

 42 45  0  0  0  0  0  0  0  0999 V2000
   47.9080   33.8390   42.8740 C   0  0  0  0  0  0  0  0  0  0  0  0
   48.5790   35.0690   42.6600 C   0  0  0  0  0  0  0  0  0  0  0  0
   49.9430   35.0770   42.3400 C   0  0  0  0  0  0  0  0  0  0  0  0
   50.5580   33.8530   42.2530 N   0  0  0  0  0  0  0  0  0  0  0  0
   49.8830   32.6800   42.4670 C   0  0  0  0  0  0  0  0  0  0  0  0
   48.5870   32.6780   42.7700 N   0  0  0  0  0  0  0  0  0  0  0  0
   48.1660   36.0480   42.7100 H   0  0  0  0  0  0  0  0  0  0  0  0
   50.5020   35.9630   42.1670 H   0  0  0  0  0  0  0  0  0  0  0  0
   46.4800   33.9370   43.2110 C   0  0  0  0  0  0  0  0  0  0  0  0
   45.7630   34.9450   42.4330 C   0  0  0  0  0  0  0  0  0  0  0  0
   45.3010   36.1160   43.2190 C   0  0  0  0  0  0  0  0  0  0  0  0
   44.5120   35.7380   44.4620 C   0  0  0  0  0  0  0  0  0  0  0  0
   44.9800   34.4720   45.1240 C   0  0  0  0  0  0  0  0  0  0  0  0
   46.4220   34.1840   44.7300 C   0  0  0  0  0  0  0  0  0  0  0  0
   46.0280   32.9120   43.0820 H   0  0  0  0  0  0  0  0  0  0  0  0
   44.8450   34.4920   41.9550 H   0  0  0  0  0  0  0  0  0  0  0  0
   46.3580   35.3060   41.5920 H   0  0  0  0  0  0  0  0  0  0  0  0
   44.5550   36.6620   42.5700 H   0  0  0  0  0  0  0  0  0  0  0  0
   46.0380   36.8610   43.4990 H   0  0  0  0  0  0  0  0  0  0  0  0
   44.5840   36.5580   45.2160 H   0  0  0  0  0  0  0  0  0  0  0  0
   43.4190   35.6300   44.2470 H   0  0  0  0  0  0  0  0  0  0  0  0
   44.9240   34.5240   46.2200 H   0  0  0  0  0  0  0  0  0  0  0  0
   44.3750   33.6000   44.7530 H   0  0  0  0  0  0  0  0  0  0  0  0
   46.9700   35.1280   44.8980 H   0  0  0  0  0  0  0  0  0  0  0  0
   46.8060   33.3140   45.2640 H   0  0  0  0  0  0  0  0  0  0  0  0
   50.6830   31.4720   42.3420 C   0  0  0  0  0  0  0  0  0  0  0  0
   51.5710   31.4170   41.3230 N   0  0  0  0  0  0  0  0  0  0  0  0
   52.2230   30.2380   41.3590 C   0  0  0  0  0  0  0  0  0  0  0  0
   51.7240   29.5530   42.4230 N   0  0  0  0  0  0  0  0  0  0  0  0
   50.7920   30.3030   43.0160 N   0  0  0  0  0  0  0  0  0  0  0  0
   52.9880   29.9330   40.6580 H   0  0  0  0  0  0  0  0  0  0  0  0
   50.0790   27.4050   41.2840 Cl  0  0  0  0  0  0  0  0  0  0  0  0
   51.4440   27.1510   42.3700 C   0  0  0  0  0  0  0  0  0  0  0  0
   52.1320   28.2540   42.8310 C   0  0  0  0  0  0  0  0  0  0  0  0
   53.1990   28.1010   43.6770 C   0  0  0  0  0  0  0  0  0  0  0  0
   53.7630   28.9350   44.0600 H   0  0  0  0  0  0  0  0  0  0  0  0
   53.5820   26.8210   44.0640 C   0  0  0  0  0  0  0  0  0  0  0  0
   54.4270   26.7190   44.7310 H   0  0  0  0  0  0  0  0  0  0  0  0
   52.8760   25.7130   43.5870 C   0  0  0  0  0  0  0  0  0  0  0  0
   53.1760   24.7220   43.8900 H   0  0  0  0  0  0  0  0  0  0  0  0
   51.8080   25.8710   42.7420 C   0  0  0  0  0  0  0  0  0  0  0  0
   50.8830   24.5080   42.1120 Cl  0  0  0  0  0  0  0  0  0  0  0  0
  1  9  1  0  0  0  0
  2  7  1  0  0  0  0
  2  1  2  0  0  0  0
  3  2  1  0  0  0  0
  4  3  2  0  0  0  0
  4  5  1  0  0  0  0
  5  6  2  0  0  0  0
  6  1  1  0  0  0  0
  8  3  1  0  0  0  0
  9 14  1  0  0  0  0
 10  9  1  0  0  0  0
 10 11  1  0  0  0  0
 11 19  1  0  0  0  0
 11 12  1  0  0  0  0
 12 13  1  0  0  0  0
 12 20  1  0  0  0  0
 13 22  1  0  0  0  0
 14 24  1  0  0  0  0
 14 13  1  0  0  0  0
 14 25  1  0  0  0  0
 15  9  1  0  0  0  0
 16 10  1  0  0  0  0
 17 10  1  0  0  0  0
 18 11  1  0  0  0  0
 21 12  1  0  0  0  0
 23 13  1  0  0  0  0
 26  5  1  0  0  0  0
 26 30  2  0  0  0  0
 27 28  2  0  0  0  0
 27 26  1  0  0  0  0
 28 29  1  0  0  0  0
 29 34  1  0  0  0  0
 29 30  1  0  0  0  0
 31 28  1  0  0  0  0
 32 33  1  0  0  0  0
 33 41  2  0  0  0  0
 33 34  1  0  0  0  0
 34 35  2  0  0  0  0
 35 36  1  0  0  0  0
 35 37  1  0  0  0  0
 37 38  1  0  0  0  0
 39 40  1  0  0  0  0
 39 37  2  0  0  0  0
 41 39  1  0  0  0  0
 42 41  1  0  0  0  0
M  END
>  <minimizedAffinity>
-4.18879223

>  <minimizedRMSD>
0.750258625

$$$$
