
 OpenBabel03242519253D

 42 45  0  0  0  0  0  0  0  0999 V2000
   46.8440   33.6380   42.5360 C   0  0  0  0  0  0  0  0  0  0  0  0
   46.9120   34.7690   41.6870 C   0  0  0  0  0  0  0  0  0  0  0  0
   47.9280   34.8650   40.7270 C   0  0  0  0  0  0  0  0  0  0  0  0
   48.8190   33.8210   40.6720 N   0  0  0  0  0  0  0  0  0  0  0  0
   48.7270   32.7390   41.5090 C   0  0  0  0  0  0  0  0  0  0  0  0
   47.7600   32.6540   42.4180 N   0  0  0  0  0  0  0  0  0  0  0  0
   46.2590   35.6090   41.6740 H   0  0  0  0  0  0  0  0  0  0  0  0
   48.0340   35.6850   40.0600 H   0  0  0  0  0  0  0  0  0  0  0  0
   45.7460   33.6340   43.5140 C   0  0  0  0  0  0  0  0  0  0  0  0
   44.7520   34.6810   43.2830 C   0  0  0  0  0  0  0  0  0  0  0  0
   44.7250   35.7440   44.3170 C   0  0  0  0  0  0  0  0  0  0  0  0
   44.6150   35.2070   45.7350 C   0  0  0  0  0  0  0  0  0  0  0  0
   45.3330   33.9040   45.9540 C   0  0  0  0  0  0  0  0  0  0  0  0
   46.4140   33.7240   44.8990 C   0  0  0  0  0  0  0  0  0  0  0  0
   45.2790   32.6070   43.5010 H   0  0  0  0  0  0  0  0  0  0  0  0
   43.7140   34.2360   43.2460 H   0  0  0  0  0  0  0  0  0  0  0  0
   44.8810   35.1520   42.3060 H   0  0  0  0  0  0  0  0  0  0  0  0
   43.7640   36.3180   44.1610 H   0  0  0  0  0  0  0  0  0  0  0  0
   45.5120   36.4910   44.2980 H   0  0  0  0  0  0  0  0  0  0  0  0
   45.0410   35.9490   46.4510 H   0  0  0  0  0  0  0  0  0  0  0  0
   43.5490   35.0700   46.0490 H   0  0  0  0  0  0  0  0  0  0  0  0
   45.8020   33.8430   46.9450 H   0  0  0  0  0  0  0  0  0  0  0  0
   44.6180   33.0460   45.8180 H   0  0  0  0  0  0  0  0  0  0  0  0
   46.9830   34.6710   44.8920 H   0  0  0  0  0  0  0  0  0  0  0  0
   47.0000   32.8240   45.0890 H   0  0  0  0  0  0  0  0  0  0  0  0
   49.7520   31.7240   41.3240 C   0  0  0  0  0  0  0  0  0  0  0  0
   49.3390   30.4590   41.0830 N   0  0  0  0  0  0  0  0  0  0  0  0
   50.4110   29.6570   40.9360 C   0  0  0  0  0  0  0  0  0  0  0  0
   51.5080   30.4460   41.0920 N   0  0  0  0  0  0  0  0  0  0  0  0
   51.1050   31.6980   41.3270 N   0  0  0  0  0  0  0  0  0  0  0  0
   50.3660   28.5960   40.7350 H   0  0  0  0  0  0  0  0  0  0  0  0
   52.6460   29.7150   43.6980 Cl  0  0  0  0  0  0  0  0  0  0  0  0
   53.5170   29.6310   42.1670 C   0  0  0  0  0  0  0  0  0  0  0  0
   52.8580   30.0050   41.0160 C   0  0  0  0  0  0  0  0  0  0  0  0
   53.4960   29.9540   39.8040 C   0  0  0  0  0  0  0  0  0  0  0  0
   53.0190   30.2380   38.8820 H   0  0  0  0  0  0  0  0  0  0  0  0
   54.8170   29.5200   39.7500 C   0  0  0  0  0  0  0  0  0  0  0  0
   55.3060   29.4870   38.7860 H   0  0  0  0  0  0  0  0  0  0  0  0
   55.4720   29.1440   40.9270 C   0  0  0  0  0  0  0  0  0  0  0  0
   56.4960   28.8080   40.8810 H   0  0  0  0  0  0  0  0  0  0  0  0
   54.8260   29.1970   42.1370 C   0  0  0  0  0  0  0  0  0  0  0  0
   55.6060   28.7330   43.6480 Cl  0  0  0  0  0  0  0  0  0  0  0  0
  1  9  1  0  0  0  0
  2  1  2  0  0  0  0
  3  2  1  0  0  0  0
  4  3  2  0  0  0  0
  4  5  1  0  0  0  0
  5  6  2  0  0  0  0
  6  1  1  0  0  0  0
  7  2  1  0  0  0  0
  8  3  1  0  0  0  0
  9 14  1  0  0  0  0
 10  9  1  0  0  0  0
 10 11  1  0  0  0  0
 11 12  1  0  0  0  0
 12 13  1  0  0  0  0
 12 21  1  0  0  0  0
 12 20  1  0  0  0  0
 13 22  1  0  0  0  0
 14 25  1  0  0  0  0
 14 13  1  0  0  0  0
 15  9  1  0  0  0  0
 16 10  1  0  0  0  0
 17 10  1  0  0  0  0
 18 11  1  0  0  0  0
 19 11  1  0  0  0  0
 23 13  1  0  0  0  0
 24 14  1  0  0  0  0
 26 30  2  0  0  0  0
 26  5  1  0  0  0  0
 27 26  1  0  0  0  0
 28 27  2  0  0  0  0
 28 29  1  0  0  0  0
 29 30  1  0  0  0  0
 31 28  1  0  0  0  0
 33 32  1  0  0  0  0
 34 29  1  0  0  0  0
 34 33  2  0  0  0  0
 35 34  1  0  0  0  0
 36 35  1  0  0  0  0
 37 35  2  0  0  0  0
 37 39  1  0  0  0  0
 38 37  1  0  0  0  0
 39 41  2  0  0  0  0
 40 39  1  0  0  0  0
 41 33  1  0  0  0  0
 41 42  1  0  0  0  0
M  END
>  <minimizedAffinity>
-4.58081675

>  <minimizedRMSD>
2.90476751

$$$$
