
 OpenBabel03242519253D

 42 45  0  0  0  0  0  0  0  0999 V2000
   47.9180   33.8010   42.8890 C   0  0  0  0  0  0  0  0  0  0  0  0
   48.5880   35.0250   42.6390 C   0  0  0  0  0  0  0  0  0  0  0  0
   49.9530   35.0260   42.3240 C   0  0  0  0  0  0  0  0  0  0  0  0
   50.5710   33.8000   42.2760 N   0  0  0  0  0  0  0  0  0  0  0  0
   49.8960   32.6330   42.5230 C   0  0  0  0  0  0  0  0  0  0  0  0
   48.6000   32.6390   42.8210 N   0  0  0  0  0  0  0  0  0  0  0  0
   48.1740   36.0050   42.6590 H   0  0  0  0  0  0  0  0  0  0  0  0
   50.5120   35.9060   42.1260 H   0  0  0  0  0  0  0  0  0  0  0  0
   46.4890   33.9070   43.2180 C   0  0  0  0  0  0  0  0  0  0  0  0
   45.7770   34.9060   42.4230 C   0  0  0  0  0  0  0  0  0  0  0  0
   45.3150   36.0890   43.1900 C   0  0  0  0  0  0  0  0  0  0  0  0
   44.5200   35.7300   44.4350 C   0  0  0  0  0  0  0  0  0  0  0  0
   44.9820   34.4710   45.1160 C   0  0  0  0  0  0  0  0  0  0  0  0
   46.4240   34.1740   44.7330 C   0  0  0  0  0  0  0  0  0  0  0  0
   46.0350   32.8810   43.1010 H   0  0  0  0  0  0  0  0  0  0  0  0
   44.8610   34.4490   41.9470 H   0  0  0  0  0  0  0  0  0  0  0  0
   46.3770   35.2540   41.5800 H   0  0  0  0  0  0  0  0  0  0  0  0
   44.5740   36.6280   42.5310 H   0  0  0  0  0  0  0  0  0  0  0  0
   46.0530   36.8360   43.4640 H   0  0  0  0  0  0  0  0  0  0  0  0
   44.5900   36.5590   45.1780 H   0  0  0  0  0  0  0  0  0  0  0  0
   43.4270   35.6210   44.2160 H   0  0  0  0  0  0  0  0  0  0  0  0
   44.9210   34.5390   46.2110 H   0  0  0  0  0  0  0  0  0  0  0  0
   44.3760   33.5960   44.7550 H   0  0  0  0  0  0  0  0  0  0  0  0
   46.9740   35.1200   44.8900 H   0  0  0  0  0  0  0  0  0  0  0  0
   46.8040   33.3110   45.2810 H   0  0  0  0  0  0  0  0  0  0  0  0
   50.6980   31.4230   42.4370 C   0  0  0  0  0  0  0  0  0  0  0  0
   51.5210   31.2970   41.3710 N   0  0  0  0  0  0  0  0  0  0  0  0
   52.1850   30.1270   41.4520 C   0  0  0  0  0  0  0  0  0  0  0  0
   51.7600   29.5200   42.5930 N   0  0  0  0  0  0  0  0  0  0  0  0
   50.8600   30.3080   43.1870 N   0  0  0  0  0  0  0  0  0  0  0  0
   52.9070   29.7750   40.7290 H   0  0  0  0  0  0  0  0  0  0  0  0
   53.9000   29.7160   44.5940 Cl  0  0  0  0  0  0  0  0  0  0  0  0
   53.2080   28.2010   44.0130 C   0  0  0  0  0  0  0  0  0  0  0  0
   52.2060   28.2570   43.0690 C   0  0  0  0  0  0  0  0  0  0  0  0
   51.6400   27.1040   42.5900 C   0  0  0  0  0  0  0  0  0  0  0  0
   50.8550   27.1020   41.8530 H   0  0  0  0  0  0  0  0  0  0  0  0
   52.0890   25.8770   43.0680 C   0  0  0  0  0  0  0  0  0  0  0  0
   51.6320   24.9780   42.6800 H   0  0  0  0  0  0  0  0  0  0  0  0
   53.1080   25.8380   44.0270 C   0  0  0  0  0  0  0  0  0  0  0  0
   53.4530   24.8850   44.3940 H   0  0  0  0  0  0  0  0  0  0  0  0
   53.6700   26.9960   44.5010 C   0  0  0  0  0  0  0  0  0  0  0  0
   54.9550   27.0000   45.7070 Cl  0  0  0  0  0  0  0  0  0  0  0  0
  1  9  1  0  0  0  0
  2  7  1  0  0  0  0
  2  1  2  0  0  0  0
  3  2  1  0  0  0  0
  4  3  2  0  0  0  0
  4  5  1  0  0  0  0
  5  6  2  0  0  0  0
  6  1  1  0  0  0  0
  8  3  1  0  0  0  0
  9 14  1  0  0  0  0
 10 11  1  0  0  0  0
 10  9  1  0  0  0  0
 11 19  1  0  0  0  0
 11 12  1  0  0  0  0
 12 13  1  0  0  0  0
 12 20  1  0  0  0  0
 13 22  1  0  0  0  0
 14 24  1  0  0  0  0
 14 13  1  0  0  0  0
 14 25  1  0  0  0  0
 15  9  1  0  0  0  0
 16 10  1  0  0  0  0
 17 10  1  0  0  0  0
 18 11  1  0  0  0  0
 21 12  1  0  0  0  0
 23 13  1  0  0  0  0
 26  5  1  0  0  0  0
 26 30  2  0  0  0  0
 27 28  2  0  0  0  0
 27 26  1  0  0  0  0
 28 29  1  0  0  0  0
 29 34  1  0  0  0  0
 29 30  1  0  0  0  0
 31 28  1  0  0  0  0
 33 41  1  0  0  0  0
 33 32  1  0  0  0  0
 34 33  2  0  0  0  0
 35 37  2  0  0  0  0
 35 34  1  0  0  0  0
 36 35  1  0  0  0  0
 37 39  1  0  0  0  0
 38 37  1  0  0  0  0
 39 40  1  0  0  0  0
 39 41  2  0  0  0  0
 41 42  1  0  0  0  0
M  END
>  <minimizedAffinity>
-4.33106852

>  <minimizedRMSD>
1.4483006

$$$$
