
 OpenBabel03242521173D

 40 42  0  0  0  0  0  0  0  0999 V2000
   46.5410   32.7020   46.5180 C   0  0  0  0  0  0  0  0  0  0  0  0
   47.3910   33.2180   47.0400 H   0  0  0  0  0  0  0  0  0  0  0  0
   46.9960   31.8640   45.9660 H   0  0  0  0  0  0  0  0  0  0  0  0
   44.5820   35.4800   44.9500 C   0  0  0  0  0  0  0  0  0  0  0  0
   45.1580   35.5040   43.6620 C   0  0  0  0  0  0  0  0  0  0  0  0
   46.1620   34.5860   43.4160 C   0  0  0  0  0  0  0  0  0  0  0  0
   46.5500   33.7060   44.4120 N   0  0  0  0  0  0  0  0  0  0  0  0
   45.9530   33.7390   45.6240 C   0  0  0  0  0  0  0  0  0  0  0  0
   44.9670   34.6190   45.9110 N   0  0  0  0  0  0  0  0  0  0  0  0
   43.7920   36.1820   45.1830 H   0  0  0  0  0  0  0  0  0  0  0  0
   44.8370   36.1920   42.9200 H   0  0  0  0  0  0  0  0  0  0  0  0
   46.7650   34.5830   42.1250 N   0  0  0  0  0  0  0  0  0  0  0  0
   47.9560   35.2060   41.9750 C   0  0  0  0  0  0  0  0  0  0  0  0
   48.5530   35.2090   40.7210 C   0  0  0  0  0  0  0  0  0  0  0  0
   47.9170   34.5860   39.6920 C   0  0  0  0  0  0  0  0  0  0  0  0
   48.4860   34.6050   38.5540 O   0  0  0  0  0  0  0  0  0  0  0  0
   46.7380   33.9690   39.8370 N   0  0  0  0  0  0  0  0  0  0  0  0
   46.1950   33.9910   41.0750 C   0  0  0  0  0  0  0  0  0  0  0  0
   45.0950   33.4410   41.3060 O   0  0  0  0  0  0  0  0  0  0  0  0
   48.4700   35.7040   42.7900 H   0  0  0  0  0  0  0  0  0  0  0  0
   49.5000   35.6940   40.5660 H   0  0  0  0  0  0  0  0  0  0  0  0
   46.2370   33.4890   39.0630 H   0  0  0  0  0  0  0  0  0  0  0  0
   45.5380   32.2660   47.5640 C   0  0  0  0  0  0  0  0  0  0  0  0
   45.9960   32.2320   48.5520 H   0  0  0  0  0  0  0  0  0  0  0  0
   44.6660   32.9810   47.5420 H   0  0  0  0  0  0  0  0  0  0  0  0
   45.6980   29.8330   47.5650 C   0  0  0  0  0  0  0  0  0  0  0  0
   46.8080   29.9710   48.1180 O   0  0  0  0  0  0  0  0  0  0  0  0
   45.0030   30.9820   47.1810 N   0  0  0  0  0  0  0  0  0  0  0  0
   44.1230   30.8900   46.6300 H   0  0  0  0  0  0  0  0  0  0  0  0
   45.9390   28.9500   44.7470 Cl  0  0  0  0  0  0  0  0  0  0  0  0
   45.2790   27.9790   46.0590 C   0  0  0  0  0  0  0  0  0  0  0  0
   45.2030   28.4750   47.3590 C   0  0  0  0  0  0  0  0  0  0  0  0
   44.6780   27.6820   48.3570 C   0  0  0  0  0  0  0  0  0  0  0  0
   44.6260   28.0790   49.3600 H   0  0  0  0  0  0  0  0  0  0  0  0
   44.2480   26.4180   48.0210 C   0  0  0  0  0  0  0  0  0  0  0  0
   43.8400   25.8220   48.8440 H   0  0  0  0  0  0  0  0  0  0  0  0
   44.2960   25.8680   46.7570 C   0  0  0  0  0  0  0  0  0  0  0  0
   43.9460   24.8680   46.5370 H   0  0  0  0  0  0  0  0  0  0  0  0
   44.8340   26.7020   45.7730 C   0  0  0  0  0  0  0  0  0  0  0  0
   44.9420   26.1020   44.1190 Cl  0  0  0  0  0  0  0  0  0  0  0  0
  1  2  1  0  0  0  0
  1 23  1  0  0  0  0
  3  1  1  0  0  0  0
  4 10  1  0  0  0  0
  4  9  1  0  0  0  0
  5  4  2  0  0  0  0
  6  5  1  0  0  0  0
  6  7  2  0  0  0  0
  7  8  1  0  0  0  0
  8  9  2  0  0  0  0
  8  1  1  0  0  0  0
 11  5  1  0  0  0  0
 12  6  1  0  0  0  0
 13 12  1  0  0  0  0
 13 20  1  0  0  0  0
 14 13  2  0  0  0  0
 15 17  1  0  0  0  0
 15 14  1  0  0  0  0
 16 15  2  0  0  0  0
 17 18  1  0  0  0  0
 18 19  2  0  0  0  0
 18 12  1  0  0  0  0
 21 14  1  0  0  0  0
 22 17  1  0  0  0  0
 23 24  1  0  0  0  0
 25 23  1  0  0  0  0
 26 27  2  0  0  0  0
 28 23  1  0  0  0  0
 28 26  1  0  0  0  0
 29 28  1  0  0  0  0
 30 31  1  0  0  0  0
 31 32  1  0  0  0  0
 32 26  1  0  0  0  0
 32 33  2  0  0  0  0
 33 34  1  0  0  0  0
 35 33  1  0  0  0  0
 35 36  1  0  0  0  0
 37 35  2  0  0  0  0
 38 37  1  0  0  0  0
 39 31  2  0  0  0  0
 39 37  1  0  0  0  0
 40 39  1  0  0  0  0
M  END
>  <minimizedAffinity>
-6.29362249

>  <minimizedRMSD>
1.69131124

$$$$
