
 OpenBabel03242510223D

 40 43  0  0  1  0  0  0  0  0999 V2000
   48.0410   33.2180   43.1130 N   0  0  0  0  0  0  0  0  0  0  0  0
   49.2200   33.2830   42.3740 C   0  0  0  0  0  0  0  0  0  0  0  0
   50.3750   32.8580   42.6370 O   0  0  0  0  0  0  0  0  0  0  0  0
   47.5040   34.1130   43.0730 H   0  0  0  0  0  0  0  0  0  0  0  0
   46.2640   32.0660   44.3800 C   0  0  1  0  0  0  0  0  0  0  0  0
   46.4050   31.3550   43.1880 C   0  0  0  0  0  0  0  0  0  0  0  0
   47.6390   32.0600   43.8280 C   0  0  1  0  0  0  0  0  0  0  0  0
   46.0810   31.5710   45.3740 H   0  0  0  0  0  0  0  0  0  0  0  0
   46.4080   30.2210   43.2320 H   0  0  0  0  0  0  0  0  0  0  0  0
   46.1270   31.6770   42.1680 H   0  0  0  0  0  0  0  0  0  0  0  0
   48.4020   31.3030   44.1090 H   0  0  0  0  0  0  0  0  0  0  0  0
   45.0300   33.9790   43.1210 C   0  0  0  0  0  0  0  0  0  0  0  0
   45.5360   33.4160   44.3390 C   0  0  0  0  0  0  0  0  0  0  0  0
   45.3650   34.1490   45.4960 C   0  0  0  0  0  0  0  0  0  0  0  0
   44.7400   35.3450   45.4300 N   0  0  0  0  0  0  0  0  0  0  0  0
   44.2670   35.8650   44.2700 C   0  0  0  0  0  0  0  0  0  0  0  0
   44.4220   35.1490   43.0760 N   0  0  0  0  0  0  0  0  0  0  0  0
   45.1410   33.4030   42.2230 H   0  0  0  0  0  0  0  0  0  0  0  0
   45.7210   33.7830   46.4430 H   0  0  0  0  0  0  0  0  0  0  0  0
   43.7660   36.8240   44.2180 H   0  0  0  0  0  0  0  0  0  0  0  0
   49.2090   33.9550   41.0140 C   0  0  2  0  0  0  0  0  0  0  0  0
   48.5750   35.3930   40.9530 C   0  0  0  0  0  0  0  0  0  0  0  0
   47.9510   34.2050   40.2980 C   0  0  1  0  0  0  0  0  0  0  0  0
   50.1540   33.9570   40.4360 H   0  0  0  0  0  0  0  0  0  0  0  0
   48.1440   35.7220   41.9290 H   0  0  0  0  0  0  0  0  0  0  0  0
   49.0240   36.1250   40.2920 H   0  0  0  0  0  0  0  0  0  0  0  0
   47.0400   33.7300   40.7180 H   0  0  0  0  0  0  0  0  0  0  0  0
   47.9860   34.1380   38.7880 C   0  0  0  0  0  0  0  0  0  0  0  0
   48.6520   34.9550   38.1670 O   0  0  0  0  0  0  0  0  0  0  0  0
   49.6000   31.7010   38.2270 Cl  0  0  0  0  0  0  0  0  0  0  0  0
   47.9270   31.9630   37.7450 C   0  0  0  0  0  0  0  0  0  0  0  0
   47.2480   33.1240   38.0440 C   0  0  0  0  0  0  0  0  0  0  0  0
   45.9460   33.2030   37.6090 C   0  0  0  0  0  0  0  0  0  0  0  0
   45.4140   34.1100   37.8430 H   0  0  0  0  0  0  0  0  0  0  0  0
   45.3430   32.1790   36.9090 C   0  0  0  0  0  0  0  0  0  0  0  0
   44.2980   32.3520   36.6120 H   0  0  0  0  0  0  0  0  0  0  0  0
   46.0180   31.0140   36.6070 C   0  0  0  0  0  0  0  0  0  0  0  0
   45.5160   30.2350   36.0590 H   0  0  0  0  0  0  0  0  0  0  0  0
   47.3250   30.9170   37.0340 C   0  0  0  0  0  0  0  0  0  0  0  0
   48.2120   29.4510   36.6670 Cl  0  0  0  0  0  0  0  0  0  0  0  0
  1  7  1  0  0  0  0
  2  3  2  0  0  0  0
  2  1  1  0  0  0  0
  4  1  1  0  0  0  0
  5  8  1  1  0  0  0
  6  9  1  0  0  0  0
  6  7  1  0  0  0  0
  6  5  1  0  0  0  0
  7 11  1  1  0  0  0
  7  5  1  0  0  0  0
 10  6  1  0  0  0  0
 12 13  1  0  0  0  0
 13  5  1  0  0  0  0
 13 14  2  0  0  0  0
 14 19  1  0  0  0  0
 15 14  1  0  0  0  0
 16 15  2  0  0  0  0
 17 12  2  0  0  0  0
 17 16  1  0  0  0  0
 18 12  1  0  0  0  0
 20 16  1  0  0  0  0
 21 24  1  6  0  0  0
 21  2  1  0  0  0  0
 22 21  1  0  0  0  0
 22 25  1  0  0  0  0
 23 27  1  1  0  0  0
 23 22  1  0  0  0  0
 23 21  1  0  0  0  0
 26 22  1  0  0  0  0
 28 23  1  0  0  0  0
 29 28  2  0  0  0  0
 31 32  1  0  0  0  0
 31 30  1  0  0  0  0
 32 28  1  0  0  0  0
 33 34  1  0  0  0  0
 33 32  2  0  0  0  0
 35 33  1  0  0  0  0
 36 35  1  0  0  0  0
 37 35  2  0  0  0  0
 37 39  1  0  0  0  0
 38 37  1  0  0  0  0
 39 31  2  0  0  0  0
 40 39  1  0  0  0  0
M  END
>  <minimizedAffinity>
-4.91864634

>  <minimizedRMSD>
0.601129889

$$$$
