
 OpenBabel03242510223D

 40 43  0  0  1  0  0  0  0  0999 V2000
   48.0460   33.2400   43.1400 N   0  0  0  0  0  0  0  0  0  0  0  0
   49.2250   33.3080   42.4030 C   0  0  0  0  0  0  0  0  0  0  0  0
   50.3860   32.9030   42.6750 O   0  0  0  0  0  0  0  0  0  0  0  0
   47.4980   34.1270   43.0830 H   0  0  0  0  0  0  0  0  0  0  0  0
   46.2860   32.0920   44.4350 C   0  0  1  0  0  0  0  0  0  0  0  0
   46.4280   31.3640   43.2520 C   0  0  0  0  0  0  0  0  0  0  0  0
   47.6580   32.0900   43.8750 C   0  0  1  0  0  0  0  0  0  0  0  0
   46.1130   31.6110   45.4370 H   0  0  0  0  0  0  0  0  0  0  0  0
   46.4410   30.2310   43.3140 H   0  0  0  0  0  0  0  0  0  0  0  0
   46.1420   31.6680   42.2290 H   0  0  0  0  0  0  0  0  0  0  0  0
   48.4300   31.3440   44.1640 H   0  0  0  0  0  0  0  0  0  0  0  0
   45.0500   33.9850   43.1490 C   0  0  0  0  0  0  0  0  0  0  0  0
   45.5460   33.4350   44.3770 C   0  0  0  0  0  0  0  0  0  0  0  0
   45.3540   34.1730   45.5270 C   0  0  0  0  0  0  0  0  0  0  0  0
   44.7180   35.3630   45.4460 N   0  0  0  0  0  0  0  0  0  0  0  0
   44.2540   35.8700   44.2770 C   0  0  0  0  0  0  0  0  0  0  0  0
   44.4310   35.1490   43.0900 N   0  0  0  0  0  0  0  0  0  0  0  0
   45.1770   33.4050   42.2560 H   0  0  0  0  0  0  0  0  0  0  0  0
   45.7020   33.8160   46.4800 H   0  0  0  0  0  0  0  0  0  0  0  0
   43.7440   36.8240   44.2140 H   0  0  0  0  0  0  0  0  0  0  0  0
   49.2090   33.9550   41.0300 C   0  0  2  0  0  0  0  0  0  0  0  0
   48.6010   35.4040   40.9520 C   0  0  0  0  0  0  0  0  0  0  0  0
   47.9450   34.2160   40.3280 C   0  0  1  0  0  0  0  0  0  0  0  0
   50.1460   33.9290   40.4400 H   0  0  0  0  0  0  0  0  0  0  0  0
   48.1890   35.7590   41.9270 H   0  0  0  0  0  0  0  0  0  0  0  0
   49.0540   36.1150   40.2720 H   0  0  0  0  0  0  0  0  0  0  0  0
   47.0320   33.7660   40.7680 H   0  0  0  0  0  0  0  0  0  0  0  0
   47.9590   34.1210   38.8180 C   0  0  0  0  0  0  0  0  0  0  0  0
   48.6120   34.9290   38.1730 O   0  0  0  0  0  0  0  0  0  0  0  0
   49.5930   31.7070   38.2160 Cl  0  0  0  0  0  0  0  0  0  0  0  0
   47.9010   31.9410   37.7880 C   0  0  0  0  0  0  0  0  0  0  0  0
   47.2130   33.0920   38.1040 C   0  0  0  0  0  0  0  0  0  0  0  0
   45.8960   33.1480   37.7120 C   0  0  0  0  0  0  0  0  0  0  0  0
   45.3580   34.0470   37.9590 H   0  0  0  0  0  0  0  0  0  0  0  0
   45.2870   32.1090   37.0370 C   0  0  0  0  0  0  0  0  0  0  0  0
   44.2300   32.2640   36.7750 H   0  0  0  0  0  0  0  0  0  0  0  0
   45.9710   30.9540   36.7190 C   0  0  0  0  0  0  0  0  0  0  0  0
   45.4640   30.1640   36.1910 H   0  0  0  0  0  0  0  0  0  0  0  0
   47.2920   30.8800   37.1040 C   0  0  0  0  0  0  0  0  0  0  0  0
   48.1910   29.4270   36.7140 Cl  0  0  0  0  0  0  0  0  0  0  0  0
  1  7  1  0  0  0  0
  2  3  2  0  0  0  0
  2  1  1  0  0  0  0
  4  1  1  0  0  0  0
  5  8  1  1  0  0  0
  6  9  1  0  0  0  0
  6  7  1  0  0  0  0
  6  5  1  0  0  0  0
  7 11  1  1  0  0  0
  7  5  1  0  0  0  0
 10  6  1  0  0  0  0
 12 13  1  0  0  0  0
 13  5  1  0  0  0  0
 13 14  2  0  0  0  0
 14 19  1  0  0  0  0
 15 14  1  0  0  0  0
 16 15  2  0  0  0  0
 17 12  2  0  0  0  0
 17 16  1  0  0  0  0
 18 12  1  0  0  0  0
 20 16  1  0  0  0  0
 21 24  1  6  0  0  0
 21  2  1  0  0  0  0
 22 21  1  0  0  0  0
 22 25  1  0  0  0  0
 23 27  1  1  0  0  0
 23 22  1  0  0  0  0
 23 21  1  0  0  0  0
 26 22  1  0  0  0  0
 28 23  1  0  0  0  0
 29 28  2  0  0  0  0
 31 32  1  0  0  0  0
 31 30  1  0  0  0  0
 32 28  1  0  0  0  0
 33 34  1  0  0  0  0
 33 32  2  0  0  0  0
 35 33  1  0  0  0  0
 36 35  1  0  0  0  0
 37 35  2  0  0  0  0
 37 39  1  0  0  0  0
 38 37  1  0  0  0  0
 39 31  2  0  0  0  0
 40 39  1  0  0  0  0
M  END
>  <minimizedAffinity>
-4.91549253

>  <minimizedRMSD>
0.480702877

$$$$
