
 OpenBabel03252503323D

 43 45  0  0  1  0  0  0  0  0999 V2000
   45.2230   34.2170   41.7340 C   0  0  0  0  0  0  0  0  0  0  0  0
   46.4410   34.6470   41.1290 C   0  0  0  0  0  0  0  0  0  0  0  0
   47.5250   34.8520   42.0060 C   0  0  0  0  0  0  0  0  0  0  0  0
   47.3320   34.6300   43.3200 N   0  0  0  0  0  0  0  0  0  0  0  0
   46.1540   34.2220   43.8390 C   0  0  0  0  0  0  0  0  0  0  0  0
   45.0940   34.0150   43.0320 N   0  0  0  0  0  0  0  0  0  0  0  0
   44.1880   32.7750   40.2010 C   0  0  0  0  0  0  0  0  0  0  0  0
   45.2550   32.0830   40.3260 O   0  0  0  0  0  0  0  0  0  0  0  0
   44.0700   33.9860   40.9100 N   0  0  0  0  0  0  0  0  0  0  0  0
   43.1820   32.2620   39.3440 N   0  0  0  0  0  0  0  0  0  0  0  0
   43.5110   31.1690   38.4100 C   0  0  0  0  0  0  0  0  0  0  0  0
   42.5910   31.4440   37.2620 C   0  0  0  0  0  0  0  0  0  0  0  0
   41.7330   32.6040   37.6780 C   0  0  0  0  0  0  0  0  0  0  0  0
   41.7930   32.5830   39.1870 C   0  0  1  0  0  0  0  0  0  0  0  0
   46.4650   34.7880   40.0710 H   0  0  0  0  0  0  0  0  0  0  0  0
   46.0810   34.0640   44.9190 H   0  0  0  0  0  0  0  0  0  0  0  0
   43.2210   34.5790   40.7940 H   0  0  0  0  0  0  0  0  0  0  0  0
   44.5660   31.1440   38.1450 H   0  0  0  0  0  0  0  0  0  0  0  0
   43.1530   30.2320   38.9250 H   0  0  0  0  0  0  0  0  0  0  0  0
   41.9250   30.5870   37.0580 H   0  0  0  0  0  0  0  0  0  0  0  0
   43.1560   31.6310   36.3290 H   0  0  0  0  0  0  0  0  0  0  0  0
   42.4380   33.4840   37.4640 H   0  0  0  0  0  0  0  0  0  0  0  0
   40.8800   32.8550   37.1360 H   0  0  0  0  0  0  0  0  0  0  0  0
   41.4270   33.5530   39.5000 H   0  0  0  0  0  0  0  0  0  0  0  0
   39.6040   31.2700   39.4870 C   0  0  0  0  0  0  0  0  0  0  0  0
   39.2700   31.8820   38.4610 O   0  0  0  0  0  0  0  0  0  0  0  0
   40.9850   31.5480   39.8190 N   0  0  0  0  0  0  0  0  0  0  0  0
   41.4610   30.9660   40.5780 H   0  0  0  0  0  0  0  0  0  0  0  0
   40.5640   28.4310   39.4380 Cl  0  0  0  0  0  0  0  0  0  0  0  0
   39.2130   29.0380   40.3780 C   0  0  0  0  0  0  0  0  0  0  0  0
   38.8510   30.3880   40.3240 C   0  0  0  0  0  0  0  0  0  0  0  0
   37.7880   30.8680   41.0630 C   0  0  0  0  0  0  0  0  0  0  0  0
   37.5110   31.9340   41.0130 H   0  0  0  0  0  0  0  0  0  0  0  0
   37.0640   29.9890   41.8750 C   0  0  0  0  0  0  0  0  0  0  0  0
   36.2200   30.3760   42.4600 H   0  0  0  0  0  0  0  0  0  0  0  0
   37.4380   28.6440   41.9170 C   0  0  0  0  0  0  0  0  0  0  0  0
   36.8720   27.9750   42.5480 H   0  0  0  0  0  0  0  0  0  0  0  0
   38.5120   28.1790   41.1660 C   0  0  0  0  0  0  0  0  0  0  0  0
   38.8890   26.4590   41.3010 Cl  0  0  0  0  0  0  0  0  0  0  0  0
   48.7590   35.2930   41.3590 C   0  0  0  0  0  0  0  0  0  0  0  0
   49.7740   34.4080   41.6950 F   0  0  0  0  0  0  0  0  0  0  0  0
   49.1220   36.5070   41.9600 F   0  0  0  0  0  0  0  0  0  0  0  0
   48.6730   35.3760   40.0010 F   0  0  0  0  0  0  0  0  0  0  0  0
  1  6  1  0  0  0  0
  2  1  2  0  0  0  0
  2  3  1  0  0  0  0
  3  4  2  0  0  0  0
  4  5  1  0  0  0  0
  5 16  1  0  0  0  0
  6  5  2  0  0  0  0
  7  8  2  0  0  0  0
  7  9  1  0  0  0  0
  9  1  1  0  0  0  0
 10  7  1  0  0  0  0
 11 19  1  0  0  0  0
 11 10  1  0  0  0  0
 12 13  1  0  0  0  0
 12 11  1  0  0  0  0
 13 14  1  0  0  0  0
 14 10  1  0  0  0  0
 14 24  1  1  0  0  0
 14 27  1  0  0  0  0
 15  2  1  0  0  0  0
 17  9  1  0  0  0  0
 18 11  1  0  0  0  0
 20 12  1  0  0  0  0
 21 12  1  0  0  0  0
 22 13  1  0  0  0  0
 23 13  1  0  0  0  0
 25 27  1  0  0  0  0
 25 31  1  0  0  0  0
 26 25  2  0  0  0  0
 27 28  1  0  0  0  0
 29 30  1  0  0  0  0
 30 38  1  0  0  0  0
 31 30  2  0  0  0  0
 31 32  1  0  0  0  0
 32 34  2  0  0  0  0
 33 32  1  0  0  0  0
 34 36  1  0  0  0  0
 34 35  1  0  0  0  0
 36 37  1  0  0  0  0
 38 39  1  0  0  0  0
 38 36  2  0  0  0  0
 40 41  1  0  0  0  0
 40 42  1  0  0  0  0
 40  3  1  0  0  0  0
 43 40  1  0  0  0  0
M  END
>  <minimizedAffinity>
-5.82302141

>  <minimizedRMSD>
2.18865252

$$$$
