
 OpenBabel03252507463D

 39 41  0  0  0  0  0  0  0  0999 V2000
   48.4680   33.9800   41.3580 C   0  0  0  0  0  0  0  0  0  0  0  0
   48.8820   32.7040   40.9750 C   0  0  0  0  0  0  0  0  0  0  0  0
   50.1280   32.2230   41.3690 C   0  0  0  0  0  0  0  0  0  0  0  0
   50.9100   33.0380   42.1290 N   0  0  0  0  0  0  0  0  0  0  0  0
   50.4740   34.2730   42.4820 C   0  0  0  0  0  0  0  0  0  0  0  0
   49.2820   34.7070   42.0940 N   0  0  0  0  0  0  0  0  0  0  0  0
   50.4360   31.2340   41.0650 H   0  0  0  0  0  0  0  0  0  0  0  0
   51.1580   34.8660   43.0920 H   0  0  0  0  0  0  0  0  0  0  0  0
   47.1420   34.4110   40.9030 C   0  0  0  0  0  0  0  0  0  0  0  0
   46.6030   33.6440   40.3580 H   0  0  0  0  0  0  0  0  0  0  0  0
   47.3320   35.2320   40.1520 H   0  0  0  0  0  0  0  0  0  0  0  0
   46.3180   35.0360   41.9820 C   0  0  0  0  0  0  0  0  0  0  0  0
   46.5640   34.5630   42.9550 H   0  0  0  0  0  0  0  0  0  0  0  0
   46.5380   36.1220   42.1270 H   0  0  0  0  0  0  0  0  0  0  0  0
   44.8510   34.9640   41.7370 C   0  0  0  0  0  0  0  0  0  0  0  0
   43.9500   35.4360   42.7410 C   0  0  0  0  0  0  0  0  0  0  0  0
   42.2990   35.1380   41.9830 S   0  0  0  0  0  0  0  0  0  0  0  0
   43.1180   34.4190   40.4230 C   0  0  0  0  0  0  0  0  0  0  0  0
   44.2230   34.5090   40.6870 N   0  0  0  0  0  0  0  0  0  0  0  0
   44.2040   35.8610   43.7040 H   0  0  0  0  0  0  0  0  0  0  0  0
   42.3850   33.9520   39.3390 O   0  0  0  0  0  0  0  0  0  0  0  0
   40.4300   34.3790   37.6110 O   0  0  0  0  0  0  0  0  0  0  0  0
   41.5120   35.0830   38.4210 P   0  0  0  0  0  0  0  0  0  0  0  0
   40.7800   36.1700   39.5040 O   0  0  0  0  0  0  0  0  0  0  0  0
   40.2270   35.6930   40.1440 H   0  0  0  0  0  0  0  0  0  0  0  0
   42.5690   35.9510   37.4300 O   0  0  0  0  0  0  0  0  0  0  0  0
   42.8000   35.3960   36.6450 H   0  0  0  0  0  0  0  0  0  0  0  0
   47.8110   31.6620   39.9680 S   0  0  0  0  0  0  0  0  0  0  0  0
   48.5750   29.0550   41.6710 Cl  0  0  0  0  0  0  0  0  0  0  0  0
   46.9240   29.6360   41.7050 C   0  0  0  0  0  0  0  0  0  0  0  0
   46.6330   30.7600   40.9600 C   0  0  0  0  0  0  0  0  0  0  0  0
   45.3460   31.2570   40.9530 C   0  0  0  0  0  0  0  0  0  0  0  0
   45.0140   32.1190   40.4120 H   0  0  0  0  0  0  0  0  0  0  0  0
   44.3340   30.6660   41.6690 C   0  0  0  0  0  0  0  0  0  0  0  0
   43.3030   31.0200   41.6960 H   0  0  0  0  0  0  0  0  0  0  0  0
   44.6130   29.5270   42.4290 C   0  0  0  0  0  0  0  0  0  0  0  0
   43.8440   29.0090   43.0230 H   0  0  0  0  0  0  0  0  0  0  0  0
   45.9040   29.0500   42.4190 C   0  0  0  0  0  0  0  0  0  0  0  0
   46.2850   27.6280   43.3580 Cl  0  0  0  0  0  0  0  0  0  0  0  0
  1  6  1  0  0  0  0
  2  1  2  0  0  0  0
  2  3  1  0  0  0  0
  3  4  2  0  0  0  0
  4  5  1  0  0  0  0
  5  8  1  0  0  0  0
  6  5  2  0  0  0  0
  7  3  1  0  0  0  0
  9  1  1  0  0  0  0
  9 12  1  0  0  0  0
 10  9  1  0  0  0  0
 11  9  1  0  0  0  0
 12 14  1  0  0  0  0
 12 13  1  0  0  0  0
 15 12  1  0  0  0  0
 15 16  2  0  0  0  0
 16 20  1  0  0  0  0
 17 16  1  0  0  0  0
 18 19  2  0  0  0  0
 18 17  1  0  0  0  0
 19 15  1  0  0  0  0
 21 18  1  0  0  0  0
 22 23  2  0  0  0  0
 23 21  1  0  0  0  0
 23 24  1  0  0  0  0
 24 25  1  0  0  0  0
 26 23  1  0  0  0  0
 27 26  1  0  0  0  0
 28 31  1  0  0  0  0
 28  2  1  0  0  0  0
 29 30  1  0  0  0  0
 30 38  1  0  0  0  0
 31 30  2  0  0  0  0
 32 31  1  0  0  0  0
 32 34  2  0  0  0  0
 33 32  1  0  0  0  0
 34 35  1  0  0  0  0
 34 36  1  0  0  0  0
 36 37  1  0  0  0  0
 38 36  2  0  0  0  0
 38 39  1  0  0  0  0
M  END
>  <minimizedAffinity>
-4.35891247

>  <minimizedRMSD>
0.448309094

$$$$
