
 OpenBabel03242510333D

 45 47  0  0  1  0  0  0  0  0999 V2000
   36.5310   30.7070   38.6070 C   0  0  1  0  0  0  0  0  0  0  0  0
   37.1120   30.1670   37.2530 C   0  0  0  0  0  0  0  0  0  0  0  0
   36.0770   29.4150   36.5300 C   0  0  0  0  0  0  0  0  0  0  0  0
   35.8210   28.1450   37.3790 C   0  0  0  0  0  0  0  0  0  0  0  0
   35.3930   28.5990   38.6580 C   0  0  0  0  0  0  0  0  0  0  0  0
   36.2530   29.6580   39.4780 C   0  0  1  0  0  0  0  0  0  0  0  0
   35.6450   31.3290   38.3550 H   0  0  0  0  0  0  0  0  0  0  0  0
   37.9850   29.5390   37.4770 H   0  0  0  0  0  0  0  0  0  0  0  0
   37.3600   31.0800   36.6390 H   0  0  0  0  0  0  0  0  0  0  0  0
   36.4700   29.0750   35.5750 H   0  0  0  0  0  0  0  0  0  0  0  0
   35.0960   29.9250   36.4940 H   0  0  0  0  0  0  0  0  0  0  0  0
   34.9350   27.7020   36.8770 H   0  0  0  0  0  0  0  0  0  0  0  0
   36.6550   27.4560   37.2730 H   0  0  0  0  0  0  0  0  0  0  0  0
   34.6280   29.4290   38.3280 H   0  0  0  0  0  0  0  0  0  0  0  0
   34.6400   28.0990   39.2450 H   0  0  0  0  0  0  0  0  0  0  0  0
   35.5800   29.8110   40.3100 H   0  0  0  0  0  0  0  0  0  0  0  0
   38.6880   33.0260   40.7950 C   0  0  0  0  0  0  0  0  0  0  0  0
   37.6200   32.2740   40.4120 C   0  0  0  0  0  0  0  0  0  0  0  0
   37.6110   31.5580   39.2000 C   0  0  0  0  0  0  0  0  0  0  0  0
   38.7020   31.6660   38.4680 N   0  0  0  0  0  0  0  0  0  0  0  0
   39.7490   32.3940   38.8270 C   0  0  0  0  0  0  0  0  0  0  0  0
   39.7490   33.0880   40.0090 N   0  0  0  0  0  0  0  0  0  0  0  0
   38.5200   33.5110   41.7600 H   0  0  0  0  0  0  0  0  0  0  0  0
   36.6950   32.1500   40.9750 H   0  0  0  0  0  0  0  0  0  0  0  0
   40.6440   32.4900   38.2380 H   0  0  0  0  0  0  0  0  0  0  0  0
   37.4200   28.9180   39.8360 O   0  0  0  0  0  0  0  0  0  0  0  0
   36.9000   28.0400   40.9090 C   0  0  1  0  0  0  0  0  0  0  0  0
   36.0920   27.9400   40.3710 H   0  0  0  0  0  0  0  0  0  0  0  0
   38.9670   26.9710   38.7790 Cl  0  0  0  0  0  0  0  0  0  0  0  0
   38.3300   25.9470   40.0470 C   0  0  0  0  0  0  0  0  0  0  0  0
   37.4620   26.6110   40.9050 C   0  0  0  0  0  0  0  0  0  0  0  0
   37.0050   25.7750   41.9540 C   0  0  0  0  0  0  0  0  0  0  0  0
   36.3110   26.2160   42.6890 H   0  0  0  0  0  0  0  0  0  0  0  0
   37.3190   24.4670   42.1760 C   0  0  0  0  0  0  0  0  0  0  0  0
   36.9110   23.9210   43.0120 H   0  0  0  0  0  0  0  0  0  0  0  0
   38.1840   23.9030   41.2680 C   0  0  0  0  0  0  0  0  0  0  0  0
   38.4980   22.8750   41.3490 H   0  0  0  0  0  0  0  0  0  0  0  0
   38.6840   24.6300   40.2170 C   0  0  0  0  0  0  0  0  0  0  0  0
   39.7870   24.0300   38.9990 Cl  0  0  0  0  0  0  0  0  0  0  0  0
   37.9580   28.3770   41.7630 O   0  0  0  0  0  0  0  0  0  0  0  0
   38.0850   29.2320   42.7390 C   0  0  0  0  0  0  0  0  0  0  0  0
   38.9560   30.0410   42.8550 O   0  0  0  0  0  0  0  0  0  0  0  0
   37.0850   29.1400   43.6790 N   0  0  0  0  0  0  0  0  0  0  0  0
   36.6120   29.0340   44.6110 H   0  0  0  0  0  0  0  0  0  0  0  0
   37.4360   29.0030   44.6590 H   0  0  0  0  0  0  0  0  0  0  0  0
  1  7  1  6  0  0  0
  1 19  1  0  0  0  0
  1  6  1  0  0  0  0
  2  8  1  0  0  0  0
  2  1  1  0  0  0  0
  3  2  1  0  0  0  0
  3  4  1  0  0  0  0
  4  5  1  0  0  0  0
  5 15  1  0  0  0  0
  5  6  1  0  0  0  0
  6 26  1  0  0  0  0
  6 16  1  1  0  0  0
  9  2  1  0  0  0  0
 10  3  1  0  0  0  0
 11  3  1  0  0  0  0
 12  4  1  0  0  0  0
 13  4  1  0  0  0  0
 14  5  1  0  0  0  0
 17 23  1  0  0  0  0
 18 17  1  0  0  0  0
 18 24  1  0  0  0  0
 19 18  2  0  0  0  0
 20 21  2  0  0  0  0
 20 19  1  0  0  0  0
 21 22  1  0  0  0  0
 22 17  2  0  0  0  0
 25 21  1  0  0  0  0
 26 27  1  0  0  0  0
 27 28  1  1  0  0  0
 27 40  1  0  0  0  0
 29 30  1  0  0  0  0
 30 38  2  0  0  0  0
 30 31  1  0  0  0  0
 31 27  1  0  0  0  0
 31 32  2  0  0  0  0
 32 34  1  0  0  0  0
 32 33  1  0  0  0  0
 34 35  1  0  0  0  0
 36 37  1  0  0  0  0
 36 34  2  0  0  0  0
 38 36  1  0  0  0  0
 39 38  1  0  0  0  0
 40 41  1  0  0  0  0
 41 42  2  0  0  0  0
 41 43  1  0  0  0  0
 43 44  1  0  0  0  0
 43 45  1  0  0  0  0
M  END
>  <minimizedAffinity>
-5.78493404

$$$$

 OpenBabel03242510333D

 45 47  0  0  1  0  0  0  0  0999 V2000
   40.0050   30.2710   40.5340 C   0  0  1  0  0  0  0  0  0  0  0  0
   40.2230   30.7500   42.0130 C   0  0  0  0  0  0  0  0  0  0  0  0
   41.3100   29.9800   42.6320 C   0  0  0  0  0  0  0  0  0  0  0  0
   40.7670   28.5350   42.7670 C   0  0  0  0  0  0  0  0  0  0  0  0
   40.4540   28.1020   41.4480 C   0  0  0  0  0  0  0  0  0  0  0  0
   39.5100   28.9700   40.5060 C   0  0  1  0  0  0  0  0  0  0  0  0
   40.9740   30.3950   40.0070 H   0  0  0  0  0  0  0  0  0  0  0  0
   39.2780   30.6270   42.5600 H   0  0  0  0  0  0  0  0  0  0  0  0
   40.5650   31.8230   41.9400 H   0  0  0  0  0  0  0  0  0  0  0  0
   41.4850   30.3400   43.6430 H   0  0  0  0  0  0  0  0  0  0  0  0
   42.2070   29.8780   41.9940 H   0  0  0  0  0  0  0  0  0  0  0  0
   41.6700   27.9750   43.0890 H   0  0  0  0  0  0  0  0  0  0  0  0
   40.0320   28.4910   43.5670 H   0  0  0  0  0  0  0  0  0  0  0  0
   41.4150   28.4760   40.8830 H   0  0  0  0  0  0  0  0  0  0  0  0
   40.6080   27.0920   41.1020 H   0  0  0  0  0  0  0  0  0  0  0  0
   39.5900   28.3820   39.6020 H   0  0  0  0  0  0  0  0  0  0  0  0
   37.4650   32.1170   38.3080 C   0  0  0  0  0  0  0  0  0  0  0  0
   38.3750   31.1780   38.6850 C   0  0  0  0  0  0  0  0  0  0  0  0
   38.9770   31.1940   39.9570 C   0  0  0  0  0  0  0  0  0  0  0  0
   38.5990   32.1750   40.7520 N   0  0  0  0  0  0  0  0  0  0  0  0
   37.7140   33.0970   40.3990 C   0  0  0  0  0  0  0  0  0  0  0  0
   37.1330   33.0730   39.1580 N   0  0  0  0  0  0  0  0  0  0  0  0
   37.1040   31.9490   37.2900 H   0  0  0  0  0  0  0  0  0  0  0  0
   38.7240   30.3480   38.0710 H   0  0  0  0  0  0  0  0  0  0  0  0
   37.3980   33.9020   41.0390 H   0  0  0  0  0  0  0  0  0  0  0  0
   38.2330   28.8540   41.1330 O   0  0  0  0  0  0  0  0  0  0  0  0
   37.4430   28.1750   40.0830 C   0  0  1  0  0  0  0  0  0  0  0  0
   38.2740   28.0910   39.5780 H   0  0  0  0  0  0  0  0  0  0  0  0
   36.3020   26.1700   37.9310 Cl  0  0  0  0  0  0  0  0  0  0  0  0
   36.5620   25.6930   39.5940 C   0  0  0  0  0  0  0  0  0  0  0  0
   37.1030   26.7060   40.3770 C   0  0  0  0  0  0  0  0  0  0  0  0
   37.3560   26.2770   41.7040 C   0  0  0  0  0  0  0  0  0  0  0  0
   37.7890   27.0140   42.4020 H   0  0  0  0  0  0  0  0  0  0  0  0
   37.1270   25.0460   42.2410 C   0  0  0  0  0  0  0  0  0  0  0  0
   37.3590   24.8260   43.2720 H   0  0  0  0  0  0  0  0  0  0  0  0
   36.5870   24.1160   41.3840 C   0  0  0  0  0  0  0  0  0  0  0  0
   36.3660   23.1110   41.7050 H   0  0  0  0  0  0  0  0  0  0  0  0
   36.3080   24.4330   40.0790 C   0  0  0  0  0  0  0  0  0  0  0  0
   35.6230   23.3440   38.8920 Cl  0  0  0  0  0  0  0  0  0  0  0  0
   36.2350   28.5050   40.7090 O   0  0  0  0  0  0  0  0  0  0  0  0
   35.3230   29.4080   40.4780 C   0  0  0  0  0  0  0  0  0  0  0  0
   34.3310   29.2530   39.8310 O   0  0  0  0  0  0  0  0  0  0  0  0
   35.5930   30.6210   41.0680 N   0  0  0  0  0  0  0  0  0  0  0  0
   35.7560   31.6530   41.1750 H   0  0  0  0  0  0  0  0  0  0  0  0
   35.5930   31.4280   40.3970 H   0  0  0  0  0  0  0  0  0  0  0  0
  1  7  1  6  0  0  0
  1  2  1  0  0  0  0
  2  8  1  0  0  0  0
  2  3  1  0  0  0  0
  3  4  1  0  0  0  0
  3 10  1  0  0  0  0
  4 12  1  0  0  0  0
  4 13  1  0  0  0  0
  5  4  1  0  0  0  0
  6 16  1  6  0  0  0
  6  1  1  0  0  0  0
  6 26  1  0  0  0  0
  6  5  1  0  0  0  0
  9  2  1  0  0  0  0
 11  3  1  0  0  0  0
 14  5  1  0  0  0  0
 15  5  1  0  0  0  0
 17 18  2  0  0  0  0
 17 22  1  0  0  0  0
 18 19  1  0  0  0  0
 19  1  1  0  0  0  0
 19 20  2  0  0  0  0
 21 20  1  0  0  0  0
 21 25  1  0  0  0  0
 22 21  2  0  0  0  0
 23 17  1  0  0  0  0
 24 18  1  0  0  0  0
 27 28  1  6  0  0  0
 27 31  1  0  0  0  0
 27 40  1  0  0  0  0
 27 26  1  0  0  0  0
 29 30  1  0  0  0  0
 30 38  2  0  0  0  0
 30 31  1  0  0  0  0
 31 32  2  0  0  0  0
 32 34  1  0  0  0  0
 32 33  1  0  0  0  0
 34 35  1  0  0  0  0
 36 37  1  0  0  0  0
 36 34  2  0  0  0  0
 38 36  1  0  0  0  0
 39 38  1  0  0  0  0
 41 40  1  0  0  0  0
 41 43  1  0  0  0  0
 42 41  2  0  0  0  0
 43 44  1  0  0  0  0
 45 43  1  0  0  0  0
M  END
>  <minimizedAffinity>
-5.74829817

$$$$

 OpenBabel03242510333D

 45 47  0  0  1  0  0  0  0  0999 V2000
   37.7480   25.4890   42.2090 C   0  0  1  0  0  0  0  0  0  0  0  0
   39.2610   25.0750   42.2410 C   0  0  0  0  0  0  0  0  0  0  0  0
   39.8400   25.3950   43.5520 C   0  0  0  0  0  0  0  0  0  0  0  0
   39.8590   26.9430   43.6270 C   0  0  0  0  0  0  0  0  0  0  0  0
   38.5060   27.3650   43.4930 C   0  0  0  0  0  0  0  0  0  0  0  0
   37.6150   26.8740   42.2700 C   0  0  1  0  0  0  0  0  0  0  0  0
   37.2470   24.9530   43.0430 H   0  0  0  0  0  0  0  0  0  0  0  0
   39.7810   25.6020   41.4290 H   0  0  0  0  0  0  0  0  0  0  0  0
   39.2740   23.9520   42.1280 H   0  0  0  0  0  0  0  0  0  0  0  0
   40.8770   25.0720   43.5840 H   0  0  0  0  0  0  0  0  0  0  0  0
   39.2120   25.0860   44.4070 H   0  0  0  0  0  0  0  0  0  0  0  0
   40.1530   27.1230   44.6830 H   0  0  0  0  0  0  0  0  0  0  0  0
   40.6400   27.3340   42.9810 H   0  0  0  0  0  0  0  0  0  0  0  0
   37.9860   26.6000   44.2200 H   0  0  0  0  0  0  0  0  0  0  0  0
   38.0880   28.2020   44.0300 H   0  0  0  0  0  0  0  0  0  0  0  0
   36.6710   27.3120   42.5640 H   0  0  0  0  0  0  0  0  0  0  0  0
   36.0540   25.1000   38.7740 C   0  0  0  0  0  0  0  0  0  0  0  0
   36.4770   25.7020   39.9210 C   0  0  0  0  0  0  0  0  0  0  0  0
   37.2230   25.0080   40.8920 C   0  0  0  0  0  0  0  0  0  0  0  0
   37.4830   23.7460   40.6150 N   0  0  0  0  0  0  0  0  0  0  0  0
   37.0780   23.1470   39.5050 C   0  0  0  0  0  0  0  0  0  0  0  0
   36.3510   23.8300   38.5640 N   0  0  0  0  0  0  0  0  0  0  0  0
   35.4890   25.7870   38.1390 H   0  0  0  0  0  0  0  0  0  0  0  0
   36.2910   26.7380   40.2010 H   0  0  0  0  0  0  0  0  0  0  0  0
   37.2840   22.1180   39.2680 H   0  0  0  0  0  0  0  0  0  0  0  0
   38.2100   27.5320   41.1520 O   0  0  0  0  0  0  0  0  0  0  0  0
   38.1590   28.9490   41.5770 C   0  0  1  0  0  0  0  0  0  0  0  0
   38.7510   28.7010   42.3120 H   0  0  0  0  0  0  0  0  0  0  0  0
   40.0200   31.1460   42.8640 Cl  0  0  0  0  0  0  0  0  0  0  0  0
   39.8910   30.9430   41.1310 C   0  0  0  0  0  0  0  0  0  0  0  0
   39.0490   29.9000   40.7640 C   0  0  0  0  0  0  0  0  0  0  0  0
   39.0050   29.7210   39.3580 C   0  0  0  0  0  0  0  0  0  0  0  0
   38.3630   28.9120   38.9690 H   0  0  0  0  0  0  0  0  0  0  0  0
   39.6680   30.4350   38.4040 C   0  0  0  0  0  0  0  0  0  0  0  0
   39.5610   30.2120   37.3540 H   0  0  0  0  0  0  0  0  0  0  0  0
   40.4720   31.4470   38.8730 C   0  0  0  0  0  0  0  0  0  0  0  0
   41.0410   32.0730   38.2050 H   0  0  0  0  0  0  0  0  0  0  0  0
   40.5840   31.6990   40.2170 C   0  0  0  0  0  0  0  0  0  0  0  0
   41.5710   32.9520   40.9380 Cl  0  0  0  0  0  0  0  0  0  0  0  0
   37.1390   29.2370   40.6620 O   0  0  0  0  0  0  0  0  0  0  0  0
   35.8960   29.6080   40.7950 C   0  0  0  0  0  0  0  0  0  0  0  0
   34.9340   28.9440   40.5450 O   0  0  0  0  0  0  0  0  0  0  0  0
   35.7560   30.8900   41.2750 N   0  0  0  0  0  0  0  0  0  0  0  0
   35.4520   31.8930   41.3390 H   0  0  0  0  0  0  0  0  0  0  0  0
   35.1640   31.5080   40.6670 H   0  0  0  0  0  0  0  0  0  0  0  0
  1  2  1  0  0  0  0
  1  6  1  0  0  0  0
  1  7  1  1  0  0  0
  2  3  1  0  0  0  0
  3 10  1  0  0  0  0
  3  4  1  0  0  0  0
  3 11  1  0  0  0  0
  4 12  1  0  0  0  0
  5  4  1  0  0  0  0
  5 15  1  0  0  0  0
  5 14  1  0  0  0  0
  6 16  1  1  0  0  0
  6  5  1  0  0  0  0
  8  2  1  0  0  0  0
  9  2  1  0  0  0  0
 13  4  1  0  0  0  0
 17 18  1  0  0  0  0
 18 24  1  0  0  0  0
 18 19  2  0  0  0  0
 19  1  1  0  0  0  0
 20 19  1  0  0  0  0
 21 20  2  0  0  0  0
 22 17  2  0  0  0  0
 22 21  1  0  0  0  0
 23 17  1  0  0  0  0
 25 21  1  0  0  0  0
 26 27  1  0  0  0  0
 26  6  1  0  0  0  0
 27 28  1  1  0  0  0
 30 29  1  0  0  0  0
 31 30  1  0  0  0  0
 31 27  1  0  0  0  0
 32 31  2  0  0  0  0
 33 32  1  0  0  0  0
 34 36  2  0  0  0  0
 34 32  1  0  0  0  0
 35 34  1  0  0  0  0
 36 38  1  0  0  0  0
 37 36  1  0  0  0  0
 38 39  1  0  0  0  0
 38 30  2  0  0  0  0
 40 41  1  0  0  0  0
 40 27  1  0  0  0  0
 41 43  1  0  0  0  0
 42 41  2  0  0  0  0
 43 44  1  0  0  0  0
 45 43  1  0  0  0  0
M  END
>  <minimizedAffinity>
-5.7278738

$$$$

 OpenBabel03242510333D

 45 47  0  0  1  0  0  0  0  0999 V2000
   36.7570   31.2590   39.9000 C   0  0  1  0  0  0  0  0  0  0  0  0
   36.7280   30.3970   38.5890 C   0  0  0  0  0  0  0  0  0  0  0  0
   35.5230   29.5580   38.5690 C   0  0  0  0  0  0  0  0  0  0  0  0
   35.7200   28.5270   39.7090 C   0  0  0  0  0  0  0  0  0  0  0  0
   35.8590   29.2800   40.9090 C   0  0  0  0  0  0  0  0  0  0  0  0
   36.9330   30.4500   41.0180 C   0  0  1  0  0  0  0  0  0  0  0  0
   35.8190   31.8540   39.9180 H   0  0  0  0  0  0  0  0  0  0  0  0
   37.6440   29.7910   38.5530 H   0  0  0  0  0  0  0  0  0  0  0  0
   36.6440   31.1340   37.7390 H   0  0  0  0  0  0  0  0  0  0  0  0
   35.4860   28.9910   37.6430 H   0  0  0  0  0  0  0  0  0  0  0  0
   34.5970   30.0970   38.8420 H   0  0  0  0  0  0  0  0  0  0  0  0
   34.7280   28.0300   39.7500 H   0  0  0  0  0  0  0  0  0  0  0  0
   36.4620   27.7890   39.4150 H   0  0  0  0  0  0  0  0  0  0  0  0
   34.9860   30.0540   40.7600 H   0  0  0  0  0  0  0  0  0  0  0  0
   35.4570   28.9650   41.8580 H   0  0  0  0  0  0  0  0  0  0  0  0
   36.6740   30.8220   42.0000 H   0  0  0  0  0  0  0  0  0  0  0  0
   40.1090   32.9220   38.9920 C   0  0  0  0  0  0  0  0  0  0  0  0
   39.1030   32.0050   38.9810 C   0  0  0  0  0  0  0  0  0  0  0  0
   37.9430   32.1630   39.7640 C   0  0  0  0  0  0  0  0  0  0  0  0
   37.9010   33.2550   40.5020 N   0  0  0  0  0  0  0  0  0  0  0  0
   38.8720   34.1560   40.5230 C   0  0  0  0  0  0  0  0  0  0  0  0
   39.9980   33.9930   39.7570 N   0  0  0  0  0  0  0  0  0  0  0  0
   40.9270   32.6360   38.3270 H   0  0  0  0  0  0  0  0  0  0  0  0
   39.0850   31.0870   38.3940 H   0  0  0  0  0  0  0  0  0  0  0  0
   38.8490   35.0500   41.1210 H   0  0  0  0  0  0  0  0  0  0  0  0
   38.1760   29.7490   41.0000 O   0  0  0  0  0  0  0  0  0  0  0  0
   38.0790   28.9330   42.2300 C   0  0  1  0  0  0  0  0  0  0  0  0
   37.1840   28.6800   41.9360 H   0  0  0  0  0  0  0  0  0  0  0  0
   39.0590   27.5730   39.5580 Cl  0  0  0  0  0  0  0  0  0  0  0  0
   39.2870   26.8170   41.1190 C   0  0  0  0  0  0  0  0  0  0  0  0
   38.8200   27.5890   42.1760 C   0  0  0  0  0  0  0  0  0  0  0  0
   39.0680   26.9790   43.4310 C   0  0  0  0  0  0  0  0  0  0  0  0
   38.7340   27.5200   44.3330 H   0  0  0  0  0  0  0  0  0  0  0  0
   39.6790   25.7850   43.6730 C   0  0  0  0  0  0  0  0  0  0  0  0
   39.8170   25.4130   44.6770 H   0  0  0  0  0  0  0  0  0  0  0  0
   40.1010   25.0990   42.5600 C   0  0  0  0  0  0  0  0  0  0  0  0
   40.5960   24.1440   42.6370 H   0  0  0  0  0  0  0  0  0  0  0  0
   39.9100   25.6050   41.2990 C   0  0  0  0  0  0  0  0  0  0  0  0
   40.4000   24.8320   39.8070 Cl  0  0  0  0  0  0  0  0  0  0  0  0
   39.2600   29.4810   42.7450 O   0  0  0  0  0  0  0  0  0  0  0  0
   40.1680   30.2760   42.2520 C   0  0  0  0  0  0  0  0  0  0  0  0
   41.0980   29.9470   41.5770 O   0  0  0  0  0  0  0  0  0  0  0  0
   39.9710   31.5990   42.5740 N   0  0  0  0  0  0  0  0  0  0  0  0
   40.1590   32.5650   42.9400 H   0  0  0  0  0  0  0  0  0  0  0  0
   40.7980   32.0510   43.0350 H   0  0  0  0  0  0  0  0  0  0  0  0
  1  7  1  1  0  0  0
  1  6  1  0  0  0  0
  2  1  1  0  0  0  0
  3  2  1  0  0  0  0
  3 11  1  0  0  0  0
  3  4  1  0  0  0  0
  4 12  1  0  0  0  0
  4  5  1  0  0  0  0
  5  6  1  0  0  0  0
  5 15  1  0  0  0  0
  6 16  1  1  0  0  0
  8  2  1  0  0  0  0
  9  2  1  0  0  0  0
 10  3  1  0  0  0  0
 13  4  1  0  0  0  0
 14  5  1  0  0  0  0
 17 22  1  0  0  0  0
 18 17  2  0  0  0  0
 18 19  1  0  0  0  0
 19  1  1  0  0  0  0
 19 20  2  0  0  0  0
 20 21  1  0  0  0  0
 21 25  1  0  0  0  0
 22 21  2  0  0  0  0
 23 17  1  0  0  0  0
 24 18  1  0  0  0  0
 26  6  1  0  0  0  0
 26 27  1  0  0  0  0
 27 28  1  1  0  0  0
 27 40  1  0  0  0  0
 29 30  1  0  0  0  0
 30 38  2  0  0  0  0
 30 31  1  0  0  0  0
 31 27  1  0  0  0  0
 31 32  2  0  0  0  0
 32 34  1  0  0  0  0
 32 33  1  0  0  0  0
 34 35  1  0  0  0  0
 36 37  1  0  0  0  0
 36 34  2  0  0  0  0
 38 36  1  0  0  0  0
 39 38  1  0  0  0  0
 41 43  1  0  0  0  0
 41 40  1  0  0  0  0
 42 41  2  0  0  0  0
 43 44  1  0  0  0  0
 43 45  1  0  0  0  0
M  END
>  <minimizedAffinity>
-5.61537409

$$$$

 OpenBabel03242510333D

 45 47  0  0  1  0  0  0  0  0999 V2000
   39.7640   31.2260   37.7290 C   0  0  1  0  0  0  0  0  0  0  0  0
   41.2930   31.0170   38.0130 C   0  0  0  0  0  0  0  0  0  0  0  0
   41.8570   30.0690   37.0440 C   0  0  0  0  0  0  0  0  0  0  0  0
   41.2080   28.7020   37.3800 C   0  0  0  0  0  0  0  0  0  0  0  0
   39.8040   28.8810   37.2380 C   0  0  0  0  0  0  0  0  0  0  0  0
   39.0500   30.0610   37.9940 C   0  0  1  0  0  0  0  0  0  0  0  0
   39.6740   31.5790   36.6800 H   0  0  0  0  0  0  0  0  0  0  0  0
   41.4070   30.6580   39.0450 H   0  0  0  0  0  0  0  0  0  0  0  0
   41.7780   32.0200   37.8300 H   0  0  0  0  0  0  0  0  0  0  0  0
   42.9230   29.9560   37.2190 H   0  0  0  0  0  0  0  0  0  0  0  0
   41.5570   30.2660   35.9980 H   0  0  0  0  0  0  0  0  0  0  0  0
   41.5440   28.0690   36.5320 H   0  0  0  0  0  0  0  0  0  0  0  0
   41.6380   28.3060   38.2960 H   0  0  0  0  0  0  0  0  0  0  0  0
   39.7810   29.4760   36.2230 H   0  0  0  0  0  0  0  0  0  0  0  0
   39.1450   28.1250   36.8420 H   0  0  0  0  0  0  0  0  0  0  0  0
   38.0630   29.9250   37.5750 H   0  0  0  0  0  0  0  0  0  0  0  0
   39.5140   34.0360   40.3490 C   0  0  0  0  0  0  0  0  0  0  0  0
   40.0870   33.1190   39.5220 C   0  0  0  0  0  0  0  0  0  0  0  0
   39.3180   32.2950   38.6780 C   0  0  0  0  0  0  0  0  0  0  0  0
   38.0130   32.4740   38.7440 N   0  0  0  0  0  0  0  0  0  0  0  0
   37.4410   33.3620   39.5450 C   0  0  0  0  0  0  0  0  0  0  0  0
   38.1990   34.1590   40.3630 N   0  0  0  0  0  0  0  0  0  0  0  0
   40.2610   34.5830   40.9300 H   0  0  0  0  0  0  0  0  0  0  0  0
   41.1560   32.9290   39.4270 H   0  0  0  0  0  0  0  0  0  0  0  0
   36.3790   33.5160   39.6080 H   0  0  0  0  0  0  0  0  0  0  0  0
   39.1300   29.6680   39.3650 O   0  0  0  0  0  0  0  0  0  0  0  0
   38.0050   28.7120   39.4680 C   0  0  1  0  0  0  0  0  0  0  0  0
   38.4400   28.1950   38.7640 H   0  0  0  0  0  0  0  0  0  0  0  0
   36.4330   25.9810   39.6260 Cl  0  0  0  0  0  0  0  0  0  0  0  0
   37.4490   26.5420   40.9360 C   0  0  0  0  0  0  0  0  0  0  0  0
   38.0820   27.7480   40.6610 C   0  0  0  0  0  0  0  0  0  0  0  0
   38.9410   28.1510   41.7140 C   0  0  0  0  0  0  0  0  0  0  0  0
   39.4920   29.0990   41.5850 H   0  0  0  0  0  0  0  0  0  0  0  0
   39.1790   27.5060   42.8910 C   0  0  0  0  0  0  0  0  0  0  0  0
   39.8580   27.9050   43.6280 H   0  0  0  0  0  0  0  0  0  0  0  0
   38.5000   26.3230   43.0660 C   0  0  0  0  0  0  0  0  0  0  0  0
   38.6140   25.7330   43.9610 H   0  0  0  0  0  0  0  0  0  0  0  0
   37.6470   25.8460   42.1040 C   0  0  0  0  0  0  0  0  0  0  0  0
   36.7270   24.3600   42.2070 Cl  0  0  0  0  0  0  0  0  0  0  0  0
   37.2850   29.5750   40.3050 O   0  0  0  0  0  0  0  0  0  0  0  0
   36.0260   29.9020   40.3840 C   0  0  0  0  0  0  0  0  0  0  0  0
   35.1370   29.4340   39.7380 O   0  0  0  0  0  0  0  0  0  0  0  0
   35.7720   30.8760   41.3220 N   0  0  0  0  0  0  0  0  0  0  0  0
   35.4300   31.7740   41.7460 H   0  0  0  0  0  0  0  0  0  0  0  0
   35.2630   31.7100   40.9400 H   0  0  0  0  0  0  0  0  0  0  0  0
  1  7  1  6  0  0  0
  1  6  1  0  0  0  0
  1  2  1  0  0  0  0
  1 19  1  0  0  0  0
  2  8  1  0  0  0  0
  3 10  1  0  0  0  0
  3  4  1  0  0  0  0
  3  2  1  0  0  0  0
  4 13  1  0  0  0  0
  5  4  1  0  0  0  0
  5  6  1  0  0  0  0
  6 16  1  6  0  0  0
  6 26  1  0  0  0  0
  9  2  1  0  0  0  0
 11  3  1  0  0  0  0
 12  4  1  0  0  0  0
 14  5  1  0  0  0  0
 15  5  1  0  0  0  0
 17 22  1  0  0  0  0
 17 23  1  0  0  0  0
 18 17  2  0  0  0  0
 19 20  2  0  0  0  0
 19 18  1  0  0  0  0
 20 21  1  0  0  0  0
 21 25  1  0  0  0  0
 21 22  2  0  0  0  0
 24 18  1  0  0  0  0
 26 27  1  0  0  0  0
 27 28  1  6  0  0  0
 27 40  1  0  0  0  0
 27 31  1  0  0  0  0
 29 30  1  0  0  0  0
 30 38  1  0  0  0  0
 31 30  2  0  0  0  0
 31 32  1  0  0  0  0
 32 34  2  0  0  0  0
 33 32  1  0  0  0  0
 34 36  1  0  0  0  0
 34 35  1  0  0  0  0
 36 37  1  0  0  0  0
 38 39  1  0  0  0  0
 38 36  2  0  0  0  0
 40 41  1  0  0  0  0
 41 43  1  0  0  0  0
 42 41  2  0  0  0  0
 43 44  1  0  0  0  0
 45 43  1  0  0  0  0
M  END
>  <minimizedAffinity>
-5.60039473

$$$$

 OpenBabel03242510333D

 45 47  0  0  1  0  0  0  0  0999 V2000
   37.2040   28.2930   41.9330 C   0  0  1  0  0  0  0  0  0  0  0  0
   37.9940   26.9370   41.9800 C   0  0  0  0  0  0  0  0  0  0  0  0
   38.7580   26.8470   43.2320 C   0  0  0  0  0  0  0  0  0  0  0  0
   39.8570   27.9350   43.1230 C   0  0  0  0  0  0  0  0  0  0  0  0
   39.1760   29.1750   42.9700 C   0  0  0  0  0  0  0  0  0  0  0  0
   38.0800   29.3700   41.8330 C   0  0  1  0  0  0  0  0  0  0  0  0
   36.5570   28.3230   42.8350 H   0  0  0  0  0  0  0  0  0  0  0  0
   38.6510   26.8890   41.1010 H   0  0  0  0  0  0  0  0  0  0  0  0
   37.2100   26.1260   42.0010 H   0  0  0  0  0  0  0  0  0  0  0  0
   39.2720   25.8910   43.2790 H   0  0  0  0  0  0  0  0  0  0  0  0
   38.1790   27.1290   44.1310 H   0  0  0  0  0  0  0  0  0  0  0  0
   40.2950   27.9270   44.1430 H   0  0  0  0  0  0  0  0  0  0  0  0
   40.6200   27.6170   42.4190 H   0  0  0  0  0  0  0  0  0  0  0  0
   38.3450   29.0490   43.7920 H   0  0  0  0  0  0  0  0  0  0  0  0
   39.5150   30.0980   43.4130 H   0  0  0  0  0  0  0  0  0  0  0  0
   37.7440   30.3640   42.0930 H   0  0  0  0  0  0  0  0  0  0  0  0
   35.6370   27.4660   38.5160 C   0  0  0  0  0  0  0  0  0  0  0  0
   36.4760   27.3720   39.5830 C   0  0  0  0  0  0  0  0  0  0  0  0
   36.3670   28.2310   40.6940 C   0  0  0  0  0  0  0  0  0  0  0  0
   35.4000   29.1250   40.6270 N   0  0  0  0  0  0  0  0  0  0  0  0
   34.5760   29.2280   39.5950 C   0  0  0  0  0  0  0  0  0  0  0  0
   34.6900   28.3880   38.5180 N   0  0  0  0  0  0  0  0  0  0  0  0
   35.8690   26.7230   37.7490 H   0  0  0  0  0  0  0  0  0  0  0  0
   37.2900   26.6560   39.6910 H   0  0  0  0  0  0  0  0  0  0  0  0
   33.7840   29.9540   39.5300 H   0  0  0  0  0  0  0  0  0  0  0  0
   38.8520   29.3400   40.6320 O   0  0  0  0  0  0  0  0  0  0  0  0
   39.2140   30.7660   40.4730 C   0  0  1  0  0  0  0  0  0  0  0  0
   39.8310   30.6440   41.2190 H   0  0  0  0  0  0  0  0  0  0  0  0
   40.4320   33.6160   39.8880 Cl  0  0  0  0  0  0  0  0  0  0  0  0
   40.7770   32.2360   38.8700 C   0  0  0  0  0  0  0  0  0  0  0  0
   40.1760   31.0640   39.3140 C   0  0  0  0  0  0  0  0  0  0  0  0
   40.5170   29.9510   38.5050 C   0  0  0  0  0  0  0  0  0  0  0  0
   40.0880   28.9720   38.7810 H   0  0  0  0  0  0  0  0  0  0  0  0
   41.3230   29.9330   37.4060 C   0  0  0  0  0  0  0  0  0  0  0  0
   41.5160   29.0220   36.8600 H   0  0  0  0  0  0  0  0  0  0  0  0
   41.8650   31.1450   37.0490 C   0  0  0  0  0  0  0  0  0  0  0  0
   42.5160   31.2440   36.1950 H   0  0  0  0  0  0  0  0  0  0  0  0
   41.5980   32.2820   37.7690 C   0  0  0  0  0  0  0  0  0  0  0  0
   42.2240   33.8780   37.4190 Cl  0  0  0  0  0  0  0  0  0  0  0  0
   38.1690   30.9810   39.5660 O   0  0  0  0  0  0  0  0  0  0  0  0
   37.3050   31.9440   39.4060 C   0  0  0  0  0  0  0  0  0  0  0  0
   37.1360   32.5760   38.4060 O   0  0  0  0  0  0  0  0  0  0  0  0
   36.5520   32.1950   40.5290 N   0  0  0  0  0  0  0  0  0  0  0  0
   36.1090   32.7180   41.3260 H   0  0  0  0  0  0  0  0  0  0  0  0
   36.5840   33.1950   40.8470 H   0  0  0  0  0  0  0  0  0  0  0  0
  1  2  1  0  0  0  0
  1  7  1  1  0  0  0
  2  9  1  0  0  0  0
  2  3  1  0  0  0  0
  3 10  1  0  0  0  0
  3 11  1  0  0  0  0
  4  3  1  0  0  0  0
  4 12  1  0  0  0  0
  5  4  1  0  0  0  0
  5 15  1  0  0  0  0
  5 14  1  0  0  0  0
  6  1  1  0  0  0  0
  6 16  1  1  0  0  0
  6  5  1  0  0  0  0
  8  2  1  0  0  0  0
 13  4  1  0  0  0  0
 17 22  2  0  0  0  0
 17 18  1  0  0  0  0
 18 24  1  0  0  0  0
 18 19  2  0  0  0  0
 19  1  1  0  0  0  0
 20 19  1  0  0  0  0
 21 20  2  0  0  0  0
 22 21  1  0  0  0  0
 23 17  1  0  0  0  0
 25 21  1  0  0  0  0
 26  6  1  0  0  0  0
 27 26  1  0  0  0  0
 27 28  1  1  0  0  0
 30 31  1  0  0  0  0
 30 29  1  0  0  0  0
 31 27  1  0  0  0  0
 32 33  1  0  0  0  0
 32 31  2  0  0  0  0
 34 32  1  0  0  0  0
 35 34  1  0  0  0  0
 36 34  2  0  0  0  0
 36 38  1  0  0  0  0
 37 36  1  0  0  0  0
 38 30  2  0  0  0  0
 39 38  1  0  0  0  0
 40 27  1  0  0  0  0
 41 40  1  0  0  0  0
 41 43  1  0  0  0  0
 42 41  2  0  0  0  0
 43 45  1  0  0  0  0
 43 44  1  0  0  0  0
M  END
>  <minimizedAffinity>
-5.58330917

$$$$

 OpenBabel03242510333D

 45 47  0  0  1  0  0  0  0  0999 V2000
   38.9370   30.3240   37.8760 C   0  0  1  0  0  0  0  0  0  0  0  0
   40.3630   29.6960   38.0650 C   0  0  0  0  0  0  0  0  0  0  0  0
   40.6160   28.7040   37.0110 C   0  0  0  0  0  0  0  0  0  0  0  0
   39.6350   27.5390   37.2980 C   0  0  0  0  0  0  0  0  0  0  0  0
   38.3260   28.0950   37.2420 C   0  0  0  0  0  0  0  0  0  0  0  0
   37.9460   29.3750   38.1080 C   0  0  1  0  0  0  0  0  0  0  0  0
   38.9090   30.7630   36.8560 H   0  0  0  0  0  0  0  0  0  0  0  0
   40.4120   29.2450   39.0650 H   0  0  0  0  0  0  0  0  0  0  0  0
   41.0930   30.5430   37.9170 H   0  0  0  0  0  0  0  0  0  0  0  0
   41.6180   28.2990   37.1220 H   0  0  0  0  0  0  0  0  0  0  0  0
   40.3440   29.0490   35.9960 H   0  0  0  0  0  0  0  0  0  0  0  0
   39.7570   26.9020   36.3970 H   0  0  0  0  0  0  0  0  0  0  0  0
   39.9740   26.9770   38.1640 H   0  0  0  0  0  0  0  0  0  0  0  0
   38.4290   28.7470   36.2680 H   0  0  0  0  0  0  0  0  0  0  0  0
   37.4750   27.5730   36.8370 H   0  0  0  0  0  0  0  0  0  0  0  0
   36.9450   29.5380   37.7340 H   0  0  0  0  0  0  0  0  0  0  0  0
   39.4290   32.7120   40.8550 C   0  0  0  0  0  0  0  0  0  0  0  0
   39.6900   31.7000   39.9830 C   0  0  0  0  0  0  0  0  0  0  0  0
   38.8290   31.4020   38.9100 C   0  0  0  0  0  0  0  0  0  0  0  0
   37.7610   32.1680   38.8080 N   0  0  0  0  0  0  0  0  0  0  0  0
   37.4940   33.1560   39.6490 C   0  0  0  0  0  0  0  0  0  0  0  0
   38.3380   33.4390   40.6920 N   0  0  0  0  0  0  0  0  0  0  0  0
   40.2020   32.7980   41.6230 H   0  0  0  0  0  0  0  0  0  0  0  0
   40.5540   31.0370   40.0190 H   0  0  0  0  0  0  0  0  0  0  0  0
   36.6250   33.7880   39.5760 H   0  0  0  0  0  0  0  0  0  0  0  0
   37.9640   28.8770   39.4450 O   0  0  0  0  0  0  0  0  0  0  0  0
   36.6510   28.2020   39.5320 C   0  0  1  0  0  0  0  0  0  0  0  0
   36.7220   28.0410   38.5720 H   0  0  0  0  0  0  0  0  0  0  0  0
   35.8030   25.6420   37.8960 Cl  0  0  0  0  0  0  0  0  0  0  0  0
   36.3290   25.5430   39.5620 C   0  0  0  0  0  0  0  0  0  0  0  0
   36.6930   26.7730   40.0950 C   0  0  0  0  0  0  0  0  0  0  0  0
   37.1680   26.6580   41.4260 C   0  0  0  0  0  0  0  0  0  0  0  0
   37.4840   27.5850   41.9340 H   0  0  0  0  0  0  0  0  0  0  0  0
   37.2870   25.5250   42.1740 C   0  0  0  0  0  0  0  0  0  0  0  0
   37.6640   25.5510   43.1850 H   0  0  0  0  0  0  0  0  0  0  0  0
   36.8970   24.3610   41.5540 C   0  0  0  0  0  0  0  0  0  0  0  0
   36.9500   23.4080   42.0560 H   0  0  0  0  0  0  0  0  0  0  0  0
   36.4250   24.3670   40.2660 C   0  0  0  0  0  0  0  0  0  0  0  0
   35.8990   22.9590   39.3690 Cl  0  0  0  0  0  0  0  0  0  0  0  0
   36.4590   28.6380   40.8490 O   0  0  0  0  0  0  0  0  0  0  0  0
   36.6050   29.7900   41.4420 C   0  0  0  0  0  0  0  0  0  0  0  0
   37.4480   30.0670   42.2410 O   0  0  0  0  0  0  0  0  0  0  0  0
   35.6710   30.7240   41.0570 N   0  0  0  0  0  0  0  0  0  0  0  0
   34.9090   31.4450   41.1230 H   0  0  0  0  0  0  0  0  0  0  0  0
   35.1390   31.1470   41.8580 H   0  0  0  0  0  0  0  0  0  0  0  0
  1  7  1  6  0  0  0
  1  2  1  0  0  0  0
  1  6  1  0  0  0  0
  1 19  1  0  0  0  0
  2  8  1  0  0  0  0
  3 10  1  0  0  0  0
  3  4  1  0  0  0  0
  3  2  1  0  0  0  0
  4 13  1  0  0  0  0
  5  4  1  0  0  0  0
  5  6  1  0  0  0  0
  6 16  1  6  0  0  0
  6 26  1  0  0  0  0
  9  2  1  0  0  0  0
 11  3  1  0  0  0  0
 12  4  1  0  0  0  0
 14  5  1  0  0  0  0
 15  5  1  0  0  0  0
 17 23  1  0  0  0  0
 18 24  1  0  0  0  0
 18 17  2  0  0  0  0
 19 18  1  0  0  0  0
 20 19  2  0  0  0  0
 20 21  1  0  0  0  0
 21 22  2  0  0  0  0
 22 17  1  0  0  0  0
 25 21  1  0  0  0  0
 26 27  1  0  0  0  0
 27 28  1  6  0  0  0
 27 31  1  0  0  0  0
 27 40  1  0  0  0  0
 29 30  1  0  0  0  0
 30 31  2  0  0  0  0
 30 38  1  0  0  0  0
 31 32  1  0  0  0  0
 32 33  1  0  0  0  0
 32 34  2  0  0  0  0
 34 35  1  0  0  0  0
 36 37  1  0  0  0  0
 36 34  1  0  0  0  0
 38 36  2  0  0  0  0
 39 38  1  0  0  0  0
 40 41  1  0  0  0  0
 41 42  2  0  0  0  0
 43 44  1  0  0  0  0
 43 41  1  0  0  0  0
 43 45  1  0  0  0  0
M  END
>  <minimizedAffinity>
-5.51343107

$$$$

 OpenBabel03242510333D

 45 47  0  0  1  0  0  0  0  0999 V2000
   36.2260   30.2200   38.1520 C   0  0  1  0  0  0  0  0  0  0  0  0
   36.8130   29.6260   36.8230 C   0  0  0  0  0  0  0  0  0  0  0  0
   35.8030   28.7910   36.1590 C   0  0  0  0  0  0  0  0  0  0  0  0
   35.6110   27.5620   37.0840 C   0  0  0  0  0  0  0  0  0  0  0  0
   35.1800   28.0720   38.3410 C   0  0  0  0  0  0  0  0  0  0  0  0
   36.0040   29.2120   39.0860 C   0  0  1  0  0  0  0  0  0  0  0  0
   35.3120   30.7880   37.8770 H   0  0  0  0  0  0  0  0  0  0  0  0
   37.7150   29.0500   37.0700 H   0  0  0  0  0  0  0  0  0  0  0  0
   37.0150   30.5120   36.1540 H   0  0  0  0  0  0  0  0  0  0  0  0
   36.1990   28.4130   35.2200 H   0  0  0  0  0  0  0  0  0  0  0  0
   34.8010   29.2560   36.1080 H   0  0  0  0  0  0  0  0  0  0  0  0
   34.7390   27.0550   36.6210 H   0  0  0  0  0  0  0  0  0  0  0  0
   36.4730   26.9050   37.0060 H   0  0  0  0  0  0  0  0  0  0  0  0
   34.3760   28.8490   37.9750 H   0  0  0  0  0  0  0  0  0  0  0  0
   34.4560   27.5760   38.9670 H   0  0  0  0  0  0  0  0  0  0  0  0
   35.3350   29.3850   39.9170 H   0  0  0  0  0  0  0  0  0  0  0  0
   39.4150   32.2750   38.8050 C   0  0  0  0  0  0  0  0  0  0  0  0
   38.5680   31.4100   38.1830 C   0  0  0  0  0  0  0  0  0  0  0  0
   37.2760   31.1480   38.6790 C   0  0  0  0  0  0  0  0  0  0  0  0
   36.9470   31.7960   39.7790 N   0  0  0  0  0  0  0  0  0  0  0  0
   37.7600   32.6410   40.3950 C   0  0  0  0  0  0  0  0  0  0  0  0
   39.0170   32.8900   39.9050 N   0  0  0  0  0  0  0  0  0  0  0  0
   40.3710   32.3540   38.2830 H   0  0  0  0  0  0  0  0  0  0  0  0
   38.7860   30.8480   37.2760 H   0  0  0  0  0  0  0  0  0  0  0  0
   37.5030   33.1750   41.2930 H   0  0  0  0  0  0  0  0  0  0  0  0
   37.2050   28.5430   39.4690 O   0  0  0  0  0  0  0  0  0  0  0  0
   36.7350   27.7020   40.5920 C   0  0  1  0  0  0  0  0  0  0  0  0
   35.9500   27.4980   40.0480 H   0  0  0  0  0  0  0  0  0  0  0  0
   38.7950   26.5900   38.4780 Cl  0  0  0  0  0  0  0  0  0  0  0  0
   38.2960   25.6500   39.8660 C   0  0  0  0  0  0  0  0  0  0  0  0
   37.4110   26.3270   40.6970 C   0  0  0  0  0  0  0  0  0  0  0  0
   37.0670   25.5650   41.8420 C   0  0  0  0  0  0  0  0  0  0  0  0
   36.3690   26.0230   42.5640 H   0  0  0  0  0  0  0  0  0  0  0  0
   37.4950   24.3140   42.1730 C   0  0  0  0  0  0  0  0  0  0  0  0
   37.1660   23.8240   43.0760 H   0  0  0  0  0  0  0  0  0  0  0  0
   38.3650   23.7320   41.2820 C   0  0  0  0  0  0  0  0  0  0  0  0
   38.7650   22.7440   41.4460 H   0  0  0  0  0  0  0  0  0  0  0  0
   38.7620   24.3870   40.1450 C   0  0  0  0  0  0  0  0  0  0  0  0
   39.8610   23.7570   38.9370 Cl  0  0  0  0  0  0  0  0  0  0  0  0
   37.7430   28.1820   41.4370 O   0  0  0  0  0  0  0  0  0  0  0  0
   37.7990   29.1590   42.2990 C   0  0  0  0  0  0  0  0  0  0  0  0
   38.7450   29.4530   42.9660 O   0  0  0  0  0  0  0  0  0  0  0  0
   36.6290   29.8770   42.3890 N   0  0  0  0  0  0  0  0  0  0  0  0
   35.7800   30.3350   42.8060 H   0  0  0  0  0  0  0  0  0  0  0  0
   36.2470   29.9440   43.3640 H   0  0  0  0  0  0  0  0  0  0  0  0
  1  7  1  6  0  0  0
  1 19  1  0  0  0  0
  1  6  1  0  0  0  0
  2  8  1  0  0  0  0
  2  1  1  0  0  0  0
  3  2  1  0  0  0  0
  3  4  1  0  0  0  0
  4  5  1  0  0  0  0
  5 15  1  0  0  0  0
  5  6  1  0  0  0  0
  6 26  1  0  0  0  0
  6 16  1  1  0  0  0
  9  2  1  0  0  0  0
 10  3  1  0  0  0  0
 11  3  1  0  0  0  0
 12  4  1  0  0  0  0
 13  4  1  0  0  0  0
 14  5  1  0  0  0  0
 17 22  1  0  0  0  0
 18 19  1  0  0  0  0
 18 17  2  0  0  0  0
 19 20  2  0  0  0  0
 20 21  1  0  0  0  0
 21 25  1  0  0  0  0
 22 21  2  0  0  0  0
 23 17  1  0  0  0  0
 24 18  1  0  0  0  0
 26 27  1  0  0  0  0
 27 28  1  1  0  0  0
 27 31  1  0  0  0  0
 27 40  1  0  0  0  0
 29 30  1  0  0  0  0
 30 38  2  0  0  0  0
 30 31  1  0  0  0  0
 31 32  2  0  0  0  0
 32 34  1  0  0  0  0
 32 33  1  0  0  0  0
 34 35  1  0  0  0  0
 36 37  1  0  0  0  0
 36 34  2  0  0  0  0
 38 36  1  0  0  0  0
 39 38  1  0  0  0  0
 40 41  1  0  0  0  0
 41 43  1  0  0  0  0
 41 42  2  0  0  0  0
 43 44  1  0  0  0  0
 43 45  1  0  0  0  0
M  END
>  <minimizedAffinity>
-5.38168907

$$$$

 OpenBabel03242510333D

 45 47  0  0  1  0  0  0  0  0999 V2000
   39.0460   28.7920   41.5450 C   0  0  1  0  0  0  0  0  0  0  0  0
   38.3840   29.2200   42.9020 C   0  0  0  0  0  0  0  0  0  0  0  0
   37.7190   28.0660   43.5200 C   0  0  0  0  0  0  0  0  0  0  0  0
   36.5240   27.7330   42.5920 C   0  0  0  0  0  0  0  0  0  0  0  0
   37.0800   27.4420   41.3150 C   0  0  0  0  0  0  0  0  0  0  0  0
   38.0740   28.4620   40.6050 C   0  0  1  0  0  0  0  0  0  0  0  0
   39.7490   27.9630   41.7750 H   0  0  0  0  0  0  0  0  0  0  0  0
   37.6750   30.0350   42.6990 H   0  0  0  0  0  0  0  0  0  0  0  0
   39.2360   29.5240   43.5770 H   0  0  0  0  0  0  0  0  0  0  0  0
   37.2950   28.3560   44.4780 H   0  0  0  0  0  0  0  0  0  0  0  0
   38.3300   27.1450   43.5230 H   0  0  0  0  0  0  0  0  0  0  0  0
   36.1590   26.7730   43.0150 H   0  0  0  0  0  0  0  0  0  0  0  0
   35.7440   28.4800   42.7130 H   0  0  0  0  0  0  0  0  0  0  0  0
   37.9730   26.7490   41.6400 H   0  0  0  0  0  0  0  0  0  0  0  0
   36.6920   26.6810   40.6570 H   0  0  0  0  0  0  0  0  0  0  0  0
   38.3380   27.8660   39.7430 H   0  0  0  0  0  0  0  0  0  0  0  0
   41.2960   31.2950   39.6780 C   0  0  0  0  0  0  0  0  0  0  0  0
   40.6670   30.1220   39.9640 C   0  0  0  0  0  0  0  0  0  0  0  0
   39.7990   29.9930   41.0650 C   0  0  0  0  0  0  0  0  0  0  0  0
   39.6390   31.0810   41.7930 N   0  0  0  0  0  0  0  0  0  0  0  0
   40.2440   32.2290   41.5270 C   0  0  0  0  0  0  0  0  0  0  0  0
   41.0890   32.3450   40.4530 N   0  0  0  0  0  0  0  0  0  0  0  0
   41.9300   31.2120   38.7920 H   0  0  0  0  0  0  0  0  0  0  0  0
   40.7630   29.1960   39.3990 H   0  0  0  0  0  0  0  0  0  0  0  0
   40.1220   33.1220   42.1140 H   0  0  0  0  0  0  0  0  0  0  0  0
   37.2270   29.5650   40.2810 O   0  0  0  0  0  0  0  0  0  0  0  0
   37.3110   29.5820   38.8030 C   0  0  1  0  0  0  0  0  0  0  0  0
   37.7620   28.7190   38.8660 H   0  0  0  0  0  0  0  0  0  0  0  0
   37.1660   28.7920   35.7530 Cl  0  0  0  0  0  0  0  0  0  0  0  0
   35.7350   28.8780   36.7560 C   0  0  0  0  0  0  0  0  0  0  0  0
   36.0110   29.2080   38.0770 C   0  0  0  0  0  0  0  0  0  0  0  0
   34.8420   29.2150   38.8800 C   0  0  0  0  0  0  0  0  0  0  0  0
   34.9620   29.4640   39.9480 H   0  0  0  0  0  0  0  0  0  0  0  0
   33.5620   28.9490   38.4940 C   0  0  0  0  0  0  0  0  0  0  0  0
   32.7410   28.9840   39.1930 H   0  0  0  0  0  0  0  0  0  0  0  0
   33.3970   28.6360   37.1650 C   0  0  0  0  0  0  0  0  0  0  0  0
   32.4270   28.4090   36.7540 H   0  0  0  0  0  0  0  0  0  0  0  0
   34.4660   28.6000   36.3060 C   0  0  0  0  0  0  0  0  0  0  0  0
   34.3880   28.2180   34.6000 Cl  0  0  0  0  0  0  0  0  0  0  0  0
   36.8750   30.9120   38.7460 O   0  0  0  0  0  0  0  0  0  0  0  0
   37.3270   32.0250   39.2520 C   0  0  0  0  0  0  0  0  0  0  0  0
   38.1250   32.7550   38.7440 O   0  0  0  0  0  0  0  0  0  0  0  0
   36.7870   32.3260   40.4820 N   0  0  0  0  0  0  0  0  0  0  0  0
   36.7270   32.5670   41.5020 H   0  0  0  0  0  0  0  0  0  0  0  0
   37.5030   32.4880   41.2320 H   0  0  0  0  0  0  0  0  0  0  0  0
  1  7  1  1  0  0  0
  1  2  1  0  0  0  0
  2  3  1  0  0  0  0
  2  9  1  0  0  0  0
  3 11  1  0  0  0  0
  3 10  1  0  0  0  0
  4 13  1  0  0  0  0
  4 12  1  0  0  0  0
  4  3  1  0  0  0  0
  5 14  1  0  0  0  0
  5  4  1  0  0  0  0
  6 16  1  6  0  0  0
  6  5  1  0  0  0  0
  6  1  1  0  0  0  0
  8  2  1  0  0  0  0
 15  5  1  0  0  0  0
 17 18  2  0  0  0  0
 17 22  1  0  0  0  0
 18 19  1  0  0  0  0
 19  1  1  0  0  0  0
 19 20  2  0  0  0  0
 21 20  1  0  0  0  0
 21 25  1  0  0  0  0
 22 21  2  0  0  0  0
 23 17  1  0  0  0  0
 24 18  1  0  0  0  0
 26  6  1  0  0  0  0
 27 28  1  6  0  0  0
 27 26  1  0  0  0  0
 29 30  1  0  0  0  0
 30 31  1  0  0  0  0
 31 27  1  0  0  0  0
 31 32  2  0  0  0  0
 32 33  1  0  0  0  0
 34 32  1  0  0  0  0
 34 35  1  0  0  0  0
 36 34  2  0  0  0  0
 37 36  1  0  0  0  0
 38 30  2  0  0  0  0
 38 36  1  0  0  0  0
 39 38  1  0  0  0  0
 40 27  1  0  0  0  0
 40 41  1  0  0  0  0
 41 43  1  0  0  0  0
 42 41  2  0  0  0  0
 43 45  1  0  0  0  0
 43 44  1  0  0  0  0
M  END
>  <minimizedAffinity>
-5.36836815

$$$$
