
 OpenBabel03242520193D

 37 39  0  0  0  0  0  0  0  0999 V2000
   40.7210   35.6810   39.6040 C   0  0  0  0  0  0  0  0  0  0  0  0
   40.7740   36.7890   39.5260 H   0  0  0  0  0  0  0  0  0  0  0  0
   40.4290   35.2390   38.6230 H   0  0  0  0  0  0  0  0  0  0  0  0
   43.8440   34.7700   41.5280 C   0  0  0  0  0  0  0  0  0  0  0  0
   42.6070   35.3720   41.1990 C   0  0  0  0  0  0  0  0  0  0  0  0
   42.0210   35.0730   39.9760 C   0  0  0  0  0  0  0  0  0  0  0  0
   42.6920   34.1990   39.1590 N   0  0  0  0  0  0  0  0  0  0  0  0
   43.8790   33.6470   39.5230 C   0  0  0  0  0  0  0  0  0  0  0  0
   44.4480   33.9290   40.6920 N   0  0  0  0  0  0  0  0  0  0  0  0
   42.1700   36.0410   41.9120 H   0  0  0  0  0  0  0  0  0  0  0  0
   44.2880   32.9770   38.7710 H   0  0  0  0  0  0  0  0  0  0  0  0
   44.4630   35.1050   42.8350 C   0  0  0  0  0  0  0  0  0  0  0  0
   46.0040   35.3360   42.7160 C   0  0  0  0  0  0  0  0  0  0  0  0
   45.0470   36.3560   43.1570 C   0  0  0  0  0  0  0  0  0  0  0  0
   44.1600   34.3930   43.6260 H   0  0  0  0  0  0  0  0  0  0  0  0
   46.4270   35.3950   41.6970 H   0  0  0  0  0  0  0  0  0  0  0  0
   46.5870   34.7260   43.4330 H   0  0  0  0  0  0  0  0  0  0  0  0
   44.9220   37.2380   42.4850 H   0  0  0  0  0  0  0  0  0  0  0  0
   45.1220   36.6520   44.2330 H   0  0  0  0  0  0  0  0  0  0  0  0
   39.6520   35.3090   40.5980 C   0  0  0  0  0  0  0  0  0  0  0  0
   40.1290   35.2220   41.5880 H   0  0  0  0  0  0  0  0  0  0  0  0
   38.8730   36.1000   40.6940 H   0  0  0  0  0  0  0  0  0  0  0  0
   39.2600   32.9140   40.9190 C   0  0  0  0  0  0  0  0  0  0  0  0
   40.1110   32.7770   41.8350 O   0  0  0  0  0  0  0  0  0  0  0  0
   38.9420   34.1000   40.2180 N   0  0  0  0  0  0  0  0  0  0  0  0
   38.2370   34.1460   39.4590 H   0  0  0  0  0  0  0  0  0  0  0  0
   39.9970   32.1160   38.1870 Cl  0  0  0  0  0  0  0  0  0  0  0  0
   38.8680   31.2900   39.2590 C   0  0  0  0  0  0  0  0  0  0  0  0
   38.5270   31.6820   40.5570 C   0  0  0  0  0  0  0  0  0  0  0  0
   37.6420   30.9620   41.2890 C   0  0  0  0  0  0  0  0  0  0  0  0
   37.4670   31.3620   42.2580 H   0  0  0  0  0  0  0  0  0  0  0  0
   37.0750   29.8290   40.7370 C   0  0  0  0  0  0  0  0  0  0  0  0
   36.3680   29.2780   41.3590 H   0  0  0  0  0  0  0  0  0  0  0  0
   37.3760   29.3940   39.4560 C   0  0  0  0  0  0  0  0  0  0  0  0
   36.9010   28.4950   39.0700 H   0  0  0  0  0  0  0  0  0  0  0  0
   38.2900   30.1450   38.7130 C   0  0  0  0  0  0  0  0  0  0  0  0
   38.6590   29.5760   37.0880 Cl  0  0  0  0  0  0  0  0  0  0  0  0
  1  6  1  0  0  0  0
  1 20  1  0  0  0  0
  2  1  1  0  0  0  0
  3  1  1  0  0  0  0
  4 12  1  0  0  0  0
  5  4  1  0  0  0  0
  5 10  1  0  0  0  0
  6  5  2  0  0  0  0
  7  8  2  0  0  0  0
  7  6  1  0  0  0  0
  8  9  1  0  0  0  0
  9  4  2  0  0  0  0
 11  8  1  0  0  0  0
 12 14  1  0  0  0  0
 12 15  1  0  0  0  0
 13 12  1  0  0  0  0
 13 14  1  0  0  0  0
 13 17  1  0  0  0  0
 14 19  1  0  0  0  0
 16 13  1  0  0  0  0
 18 14  1  0  0  0  0
 20 22  1  0  0  0  0
 20 21  1  0  0  0  0
 23 24  2  0  0  0  0
 25 20  1  0  0  0  0
 25 23  1  0  0  0  0
 26 25  1  0  0  0  0
 27 28  1  0  0  0  0
 28 29  1  0  0  0  0
 29 23  1  0  0  0  0
 29 30  2  0  0  0  0
 30 31  1  0  0  0  0
 32 30  1  0  0  0  0
 32 33  1  0  0  0  0
 34 32  2  0  0  0  0
 35 34  1  0  0  0  0
 36 28  2  0  0  0  0
 36 34  1  0  0  0  0
 37 36  1  0  0  0  0
M  END
>  <minimizedAffinity>
-5.38939619

>  <minimizedRMSD>
0.717614949

$$$$
