
 OpenBabel03252507463D

 39 41  0  0  0  0  0  0  0  0999 V2000
   48.5170   33.9820   41.3280 C   0  0  0  0  0  0  0  0  0  0  0  0
   48.9240   32.7340   40.8560 C   0  0  0  0  0  0  0  0  0  0  0  0
   50.1610   32.2130   41.2260 C   0  0  0  0  0  0  0  0  0  0  0  0
   50.9420   32.9620   42.0520 N   0  0  0  0  0  0  0  0  0  0  0  0
   50.5130   34.1710   42.4910 C   0  0  0  0  0  0  0  0  0  0  0  0
   49.3290   34.6450   42.1240 N   0  0  0  0  0  0  0  0  0  0  0  0
   50.4630   31.2460   40.8530 H   0  0  0  0  0  0  0  0  0  0  0  0
   51.1950   34.7110   43.1500 H   0  0  0  0  0  0  0  0  0  0  0  0
   47.2000   34.4580   40.8930 C   0  0  0  0  0  0  0  0  0  0  0  0
   46.6570   33.7360   40.2920 H   0  0  0  0  0  0  0  0  0  0  0  0
   47.4050   35.3260   40.2010 H   0  0  0  0  0  0  0  0  0  0  0  0
   46.3730   35.0180   42.0050 C   0  0  0  0  0  0  0  0  0  0  0  0
   46.6180   34.4890   42.9490 H   0  0  0  0  0  0  0  0  0  0  0  0
   46.5920   36.0940   42.2140 H   0  0  0  0  0  0  0  0  0  0  0  0
   44.9060   34.9590   41.7530 C   0  0  0  0  0  0  0  0  0  0  0  0
   44.0060   35.4690   42.7400 C   0  0  0  0  0  0  0  0  0  0  0  0
   42.3560   35.1730   41.9800 S   0  0  0  0  0  0  0  0  0  0  0  0
   43.1740   34.4050   40.4440 C   0  0  0  0  0  0  0  0  0  0  0  0
   44.2780   34.4870   40.7110 N   0  0  0  0  0  0  0  0  0  0  0  0
   44.2610   35.9140   43.6930 H   0  0  0  0  0  0  0  0  0  0  0  0
   42.4400   33.9200   39.3670 O   0  0  0  0  0  0  0  0  0  0  0  0
   40.4770   34.3070   37.6380 O   0  0  0  0  0  0  0  0  0  0  0  0
   41.5450   35.0340   38.4480 P   0  0  0  0  0  0  0  0  0  0  0  0
   40.7900   36.1050   39.5300 O   0  0  0  0  0  0  0  0  0  0  0  0
   40.2470   35.6180   40.1700 H   0  0  0  0  0  0  0  0  0  0  0  0
   42.5850   35.9220   37.4580 O   0  0  0  0  0  0  0  0  0  0  0  0
   42.8280   35.3720   36.6730 H   0  0  0  0  0  0  0  0  0  0  0  0
   47.8540   31.7790   39.7650 S   0  0  0  0  0  0  0  0  0  0  0  0
   45.6750   31.3960   42.0870 Cl  0  0  0  0  0  0  0  0  0  0  0  0
   46.5040   29.9870   41.4600 C   0  0  0  0  0  0  0  0  0  0  0  0
   47.4350   30.1910   40.4610 C   0  0  0  0  0  0  0  0  0  0  0  0
   48.1140   29.1120   39.9340 C   0  0  0  0  0  0  0  0  0  0  0  0
   48.8530   29.1590   39.1600 H   0  0  0  0  0  0  0  0  0  0  0  0
   47.8940   27.8280   40.3730 C   0  0  0  0  0  0  0  0  0  0  0  0
   48.4050   26.9450   39.9890 H   0  0  0  0  0  0  0  0  0  0  0  0
   46.9550   27.6060   41.3830 C   0  0  0  0  0  0  0  0  0  0  0  0
   46.7360   26.6020   41.7760 H   0  0  0  0  0  0  0  0  0  0  0  0
   46.2900   28.6980   41.8930 C   0  0  0  0  0  0  0  0  0  0  0  0
   45.1100   28.4530   43.1560 Cl  0  0  0  0  0  0  0  0  0  0  0  0
  1  6  1  0  0  0  0
  2  3  1  0  0  0  0
  2  1  2  0  0  0  0
  3  4  2  0  0  0  0
  4  5  1  0  0  0  0
  5  8  1  0  0  0  0
  6  5  2  0  0  0  0
  7  3  1  0  0  0  0
  9  1  1  0  0  0  0
  9 12  1  0  0  0  0
 10  9  1  0  0  0  0
 11  9  1  0  0  0  0
 12 14  1  0  0  0  0
 12 13  1  0  0  0  0
 15 12  1  0  0  0  0
 15 16  2  0  0  0  0
 16 20  1  0  0  0  0
 17 16  1  0  0  0  0
 18 19  2  0  0  0  0
 18 17  1  0  0  0  0
 19 15  1  0  0  0  0
 21 18  1  0  0  0  0
 22 23  2  0  0  0  0
 23 21  1  0  0  0  0
 23 24  1  0  0  0  0
 24 25  1  0  0  0  0
 26 23  1  0  0  0  0
 27 26  1  0  0  0  0
 28 31  1  0  0  0  0
 28  2  1  0  0  0  0
 30 38  1  0  0  0  0
 30 29  1  0  0  0  0
 31 30  2  0  0  0  0
 32 34  2  0  0  0  0
 32 31  1  0  0  0  0
 33 32  1  0  0  0  0
 34 36  1  0  0  0  0
 35 34  1  0  0  0  0
 36 37  1  0  0  0  0
 36 38  2  0  0  0  0
 38 39  1  0  0  0  0
M  END
>  <minimizedAffinity>
-4.3433218

>  <minimizedRMSD>
0.882537842

$$$$
