
 OpenBabel03242513053D

 37 40  0  0  0  0  0  0  0  0999 V2000
   45.9100   33.0090   41.7720 C   0  0  0  0  0  0  0  0  0  0  0  0
   47.0050   33.7610   41.3610 C   0  0  0  0  0  0  0  0  0  0  0  0
   48.0220   33.9380   42.2950 C   0  0  0  0  0  0  0  0  0  0  0  0
   47.8760   33.3700   43.5280 N   0  0  0  0  0  0  0  0  0  0  0  0
   46.7960   32.6450   43.8880 C   0  0  0  0  0  0  0  0  0  0  0  0
   45.8060   32.4620   43.0070 N   0  0  0  0  0  0  0  0  0  0  0  0
   45.0460   32.8010   41.1620 H   0  0  0  0  0  0  0  0  0  0  0  0
   47.3360   30.8760   45.5010 C   0  0  0  0  0  0  0  0  0  0  0  0
   46.7360   32.0840   45.2170 C   0  0  0  0  0  0  0  0  0  0  0  0
   46.0430   32.8290   46.1850 C   0  0  0  0  0  0  0  0  0  0  0  0
   45.9420   32.3550   47.4900 C   0  0  0  0  0  0  0  0  0  0  0  0
   45.3740   32.7860   48.6440 N   0  0  0  0  0  0  0  0  0  0  0  0
   45.6330   31.8410   49.6090 C   0  0  0  0  0  0  0  0  0  0  0  0
   46.3590   30.8450   49.0240 N   0  0  0  0  0  0  0  0  0  0  0  0
   46.5510   31.1500   47.7350 C   0  0  0  0  0  0  0  0  0  0  0  0
   47.2420   30.3880   46.8060 C   0  0  0  0  0  0  0  0  0  0  0  0
   47.8660   30.3080   44.7550 H   0  0  0  0  0  0  0  0  0  0  0  0
   45.5740   33.7770   45.9540 H   0  0  0  0  0  0  0  0  0  0  0  0
   44.8420   33.6960   48.7140 H   0  0  0  0  0  0  0  0  0  0  0  0
   45.2800   31.9620   50.6230 H   0  0  0  0  0  0  0  0  0  0  0  0
   47.7020   29.4440   47.0600 H   0  0  0  0  0  0  0  0  0  0  0  0
   49.2240   34.7290   41.9340 C   0  0  0  0  0  0  0  0  0  0  0  0
   48.8820   35.7730   41.0640 F   0  0  0  0  0  0  0  0  0  0  0  0
   49.7650   35.3220   43.0390 F   0  0  0  0  0  0  0  0  0  0  0  0
   50.1270   33.8930   41.3290 F   0  0  0  0  0  0  0  0  0  0  0  0
   47.0590   34.2850   40.1090 O   0  0  0  0  0  0  0  0  0  0  0  0
   44.5430   33.4620   38.6140 Cl  0  0  0  0  0  0  0  0  0  0  0  0
   46.2450   33.0910   38.3000 C   0  0  0  0  0  0  0  0  0  0  0  0
   47.3730   33.4860   39.0260 C   0  0  0  0  0  0  0  0  0  0  0  0
   48.6090   33.0530   38.5990 C   0  0  0  0  0  0  0  0  0  0  0  0
   49.3960   33.4390   39.2610 H   0  0  0  0  0  0  0  0  0  0  0  0
   48.7640   32.2510   37.4910 C   0  0  0  0  0  0  0  0  0  0  0  0
   49.7870   31.9800   37.2620 H   0  0  0  0  0  0  0  0  0  0  0  0
   47.6450   31.8650   36.7810 C   0  0  0  0  0  0  0  0  0  0  0  0
   47.8630   31.2370   35.9260 H   0  0  0  0  0  0  0  0  0  0  0  0
   46.3730   32.2850   37.1810 C   0  0  0  0  0  0  0  0  0  0  0  0
   45.0960   31.7010   36.1660 Cl  0  0  0  0  0  0  0  0  0  0  0  0
  1  6  1  0  0  0  0
  2  1  2  0  0  0  0
  2  3  1  0  0  0  0
  3  4  2  0  0  0  0
  4  5  1  0  0  0  0
  5  9  1  0  0  0  0
  6  5  2  0  0  0  0
  7  1  1  0  0  0  0
  8 16  1  0  0  0  0
  9  8  2  0  0  0  0
  9 10  1  0  0  0  0
 10 11  2  0  0  0  0
 11 15  1  0  0  0  0
 11 12  1  0  0  0  0
 12 19  1  0  0  0  0
 12 13  1  0  0  0  0
 13 20  1  0  0  0  0
 14 13  2  0  0  0  0
 15 14  1  0  0  0  0
 16 21  1  0  0  0  0
 16 15  2  0  0  0  0
 17  8  1  0  0  0  0
 18 10  1  0  0  0  0
 22  3  1  0  0  0  0
 22 24  1  0  0  0  0
 23 22  1  0  0  0  0
 25 22  1  0  0  0  0
 26  2  1  0  0  0  0
 28 27  1  0  0  0  0
 28 29  1  0  0  0  0
 29 26  1  0  0  0  0
 30 29  2  0  0  0  0
 30 31  1  0  0  0  0
 32 30  1  0  0  0  0
 33 32  1  0  0  0  0
 34 36  1  0  0  0  0
 34 32  2  0  0  0  0
 35 34  1  0  0  0  0
 36 28  2  0  0  0  0
 37 36  1  0  0  0  0
M  END
>  <minimizedAffinity>
-6.08705091

>  <minimizedRMSD>
1.98444736

$$$$
