
 OpenBabel03242510333D

 45 47  0  0  1  0  0  0  0  0999 V2000
   44.3930   33.3730   41.6350 C   0  0  1  0  0  0  0  0  0  0  0  0
   43.7300   34.3520   40.6020 C   0  0  0  0  0  0  0  0  0  0  0  0
   43.3930   33.6260   39.3710 C   0  0  0  0  0  0  0  0  0  0  0  0
   44.7520   33.2460   38.7310 C   0  0  0  0  0  0  0  0  0  0  0  0
   45.4330   32.4420   39.6870 C   0  0  0  0  0  0  0  0  0  0  0  0
   45.6390   32.9490   41.1820 C   0  0  1  0  0  0  0  0  0  0  0  0
   43.6710   32.5460   41.8070 H   0  0  0  0  0  0  0  0  0  0  0  0
   44.4300   35.1750   40.4070 H   0  0  0  0  0  0  0  0  0  0  0  0
   42.7620   34.6870   41.0760 H   0  0  0  0  0  0  0  0  0  0  0  0
   42.8990   34.2970   38.6730 H   0  0  0  0  0  0  0  0  0  0  0  0
   42.8900   32.6560   39.5460 H   0  0  0  0  0  0  0  0  0  0  0  0
   44.4410   32.5750   37.9020 H   0  0  0  0  0  0  0  0  0  0  0  0
   45.2160   34.1300   38.3010 H   0  0  0  0  0  0  0  0  0  0  0  0
   44.5520   31.7350   40.0150 H   0  0  0  0  0  0  0  0  0  0  0  0
   46.0490   31.5980   39.4230 H   0  0  0  0  0  0  0  0  0  0  0  0
   46.0900   32.0600   41.5990 H   0  0  0  0  0  0  0  0  0  0  0  0
   44.5930   36.1200   44.3250 C   0  0  0  0  0  0  0  0  0  0  0  0
   44.3470   35.5410   43.1170 C   0  0  0  0  0  0  0  0  0  0  0  0
   44.5780   34.1710   42.8880 C   0  0  0  0  0  0  0  0  0  0  0  0
   45.0450   33.4930   43.9180 N   0  0  0  0  0  0  0  0  0  0  0  0
   45.2890   34.0420   45.0990 C   0  0  0  0  0  0  0  0  0  0  0  0
   45.0610   35.3770   45.3130 N   0  0  0  0  0  0  0  0  0  0  0  0
   44.3570   37.1870   44.3210 H   0  0  0  0  0  0  0  0  0  0  0  0
   43.9630   36.0510   42.2350 H   0  0  0  0  0  0  0  0  0  0  0  0
   45.6700   33.5000   45.9460 H   0  0  0  0  0  0  0  0  0  0  0  0
   46.5650   34.0250   41.0330 O   0  0  0  0  0  0  0  0  0  0  0  0
   47.7850   33.4580   41.6500 C   0  0  1  0  0  0  0  0  0  0  0  0
   47.2080   32.7860   42.0600 H   0  0  0  0  0  0  0  0  0  0  0  0
   48.2400   34.1130   38.5980 Cl  0  0  0  0  0  0  0  0  0  0  0  0
   48.9320   32.6940   39.3540 C   0  0  0  0  0  0  0  0  0  0  0  0
   48.6470   32.6020   40.7100 C   0  0  0  0  0  0  0  0  0  0  0  0
   49.2660   31.4760   41.3090 C   0  0  0  0  0  0  0  0  0  0  0  0
   49.0980   31.3200   42.3890 H   0  0  0  0  0  0  0  0  0  0  0  0
   50.0570   30.5410   40.7120 C   0  0  0  0  0  0  0  0  0  0  0  0
   50.4790   29.7180   41.2670 H   0  0  0  0  0  0  0  0  0  0  0  0
   50.2760   30.7230   39.3660 C   0  0  0  0  0  0  0  0  0  0  0  0
   50.8860   30.0420   38.7950 H   0  0  0  0  0  0  0  0  0  0  0  0
   49.7220   31.7830   38.6940 C   0  0  0  0  0  0  0  0  0  0  0  0
   49.9240   32.1240   36.9900 Cl  0  0  0  0  0  0  0  0  0  0  0  0
   48.5570   34.5530   41.2440 O   0  0  0  0  0  0  0  0  0  0  0  0
   49.2490   35.4500   41.8900 C   0  0  0  0  0  0  0  0  0  0  0  0
   49.3320   36.6080   41.6100 O   0  0  0  0  0  0  0  0  0  0  0  0
   49.9120   34.9450   42.9840 N   0  0  0  0  0  0  0  0  0  0  0  0
   50.6960   34.7110   43.6440 H   0  0  0  0  0  0  0  0  0  0  0  0
   50.9440   35.1370   42.9810 H   0  0  0  0  0  0  0  0  0  0  0  0
  1  7  1  1  0  0  0
  1 19  1  0  0  0  0
  2  9  1  0  0  0  0
  2  1  1  0  0  0  0
  3 11  1  0  0  0  0
  3  2  1  0  0  0  0
  4  3  1  0  0  0  0
  4  5  1  0  0  0  0
  5 14  1  0  0  0  0
  5  6  1  0  0  0  0
  6 16  1  1  0  0  0
  6  1  1  0  0  0  0
  8  2  1  0  0  0  0
 10  3  1  0  0  0  0
 12  4  1  0  0  0  0
 13  4  1  0  0  0  0
 15  5  1  0  0  0  0
 17 22  1  0  0  0  0
 18 17  2  0  0  0  0
 19 18  1  0  0  0  0
 19 20  2  0  0  0  0
 20 21  1  0  0  0  0
 21 22  2  0  0  0  0
 21 25  1  0  0  0  0
 23 17  1  0  0  0  0
 24 18  1  0  0  0  0
 26  6  1  0  0  0  0
 26 27  1  0  0  0  0
 27 28  1  1  0  0  0
 29 30  1  0  0  0  0
 30 31  1  0  0  0  0
 31 32  2  0  0  0  0
 31 27  1  0  0  0  0
 32 33  1  0  0  0  0
 34 35  1  0  0  0  0
 34 32  1  0  0  0  0
 36 34  2  0  0  0  0
 37 36  1  0  0  0  0
 38 30  2  0  0  0  0
 38 36  1  0  0  0  0
 39 38  1  0  0  0  0
 40 27  1  0  0  0  0
 40 41  1  0  0  0  0
 41 43  1  0  0  0  0
 42 41  2  0  0  0  0
 43 44  1  0  0  0  0
 45 43  1  0  0  0  0
M  END
>  <minimizedAffinity>
-5.379457

>  <minimizedRMSD>
0.518106043

$$$$
