
 OpenBabel03242510333D

 45 47  0  0  1  0  0  0  0  0999 V2000
   44.5930   33.2650   41.6270 C   0  0  1  0  0  0  0  0  0  0  0  0
   44.0530   34.2330   40.5160 C   0  0  0  0  0  0  0  0  0  0  0  0
   43.7970   33.4820   39.2800 C   0  0  0  0  0  0  0  0  0  0  0  0
   45.1920   33.0410   38.7690 C   0  0  0  0  0  0  0  0  0  0  0  0
   45.7620   32.2440   39.8020 C   0  0  0  0  0  0  0  0  0  0  0  0
   45.8570   32.7890   41.2940 C   0  0  1  0  0  0  0  0  0  0  0  0
   43.8320   32.4670   41.7590 H   0  0  0  0  0  0  0  0  0  0  0  0
   44.7950   35.0280   40.3590 H   0  0  0  0  0  0  0  0  0  0  0  0
   43.0610   34.6130   40.8950 H   0  0  0  0  0  0  0  0  0  0  0  0
   43.3870   34.1470   38.5240 H   0  0  0  0  0  0  0  0  0  0  0  0
   43.2490   32.5340   39.4370 H   0  0  0  0  0  0  0  0  0  0  0  0
   44.9300   32.3550   37.9360 H   0  0  0  0  0  0  0  0  0  0  0  0
   45.7200   33.8960   38.3570 H   0  0  0  0  0  0  0  0  0  0  0  0
   44.8330   31.5760   40.0720 H   0  0  0  0  0  0  0  0  0  0  0  0
   46.3700   31.3740   39.6140 H   0  0  0  0  0  0  0  0  0  0  0  0
   46.2410   31.8990   41.7720 H   0  0  0  0  0  0  0  0  0  0  0  0
   44.6280   36.0780   44.2550 C   0  0  0  0  0  0  0  0  0  0  0  0
   44.4600   35.4700   43.0480 C   0  0  0  0  0  0  0  0  0  0  0  0
   44.6980   34.0940   42.8700 C   0  0  0  0  0  0  0  0  0  0  0  0
   45.0900   33.4410   43.9450 N   0  0  0  0  0  0  0  0  0  0  0  0
   45.2580   34.0190   45.1260 C   0  0  0  0  0  0  0  0  0  0  0  0
   45.0240   35.3600   45.2910 N   0  0  0  0  0  0  0  0  0  0  0  0
   44.4000   37.1460   44.2080 H   0  0  0  0  0  0  0  0  0  0  0  0
   44.1400   35.9600   42.1290 H   0  0  0  0  0  0  0  0  0  0  0  0
   45.5770   33.4960   46.0100 H   0  0  0  0  0  0  0  0  0  0  0  0
   46.8290   33.8300   41.1960 O   0  0  0  0  0  0  0  0  0  0  0  0
   47.9120   33.3120   42.0600 C   0  0  1  0  0  0  0  0  0  0  0  0
   47.2290   32.7960   42.5270 H   0  0  0  0  0  0  0  0  0  0  0  0
   48.5880   30.5830   43.4910 Cl  0  0  0  0  0  0  0  0  0  0  0  0
   49.2080   30.9740   41.9010 C   0  0  0  0  0  0  0  0  0  0  0  0
   48.7690   32.2040   41.4290 C   0  0  0  0  0  0  0  0  0  0  0  0
   49.2410   32.4710   40.1190 C   0  0  0  0  0  0  0  0  0  0  0  0
   48.9410   33.4270   39.6580 H   0  0  0  0  0  0  0  0  0  0  0  0
   50.0330   31.6830   39.3400 C   0  0  0  0  0  0  0  0  0  0  0  0
   50.3350   31.9860   38.3500 H   0  0  0  0  0  0  0  0  0  0  0  0
   50.4150   30.4870   39.9020 C   0  0  0  0  0  0  0  0  0  0  0  0
   51.0410   29.7870   39.3730 H   0  0  0  0  0  0  0  0  0  0  0  0
   50.0100   30.1350   41.1650 C   0  0  0  0  0  0  0  0  0  0  0  0
   50.4250   28.6480   41.9890 Cl  0  0  0  0  0  0  0  0  0  0  0  0
   48.8350   34.2250   41.5330 O   0  0  0  0  0  0  0  0  0  0  0  0
   49.3870   35.3100   42.0000 C   0  0  0  0  0  0  0  0  0  0  0  0
   49.2400   36.4140   41.5680 O   0  0  0  0  0  0  0  0  0  0  0  0
   50.1960   35.0860   43.0910 N   0  0  0  0  0  0  0  0  0  0  0  0
   51.0460   35.0870   43.7060 H   0  0  0  0  0  0  0  0  0  0  0  0
   51.1730   35.4520   42.9760 H   0  0  0  0  0  0  0  0  0  0  0  0
  1  7  1  1  0  0  0
  1 19  1  0  0  0  0
  2  9  1  0  0  0  0
  2  1  1  0  0  0  0
  3 11  1  0  0  0  0
  3  2  1  0  0  0  0
  4  3  1  0  0  0  0
  4  5  1  0  0  0  0
  5 14  1  0  0  0  0
  5  6  1  0  0  0  0
  6  1  1  0  0  0  0
  6 16  1  1  0  0  0
  8  2  1  0  0  0  0
 10  3  1  0  0  0  0
 12  4  1  0  0  0  0
 13  4  1  0  0  0  0
 15  5  1  0  0  0  0
 17 22  1  0  0  0  0
 18 17  2  0  0  0  0
 19 18  1  0  0  0  0
 19 20  2  0  0  0  0
 20 21  1  0  0  0  0
 21 22  2  0  0  0  0
 21 25  1  0  0  0  0
 23 17  1  0  0  0  0
 24 18  1  0  0  0  0
 26  6  1  0  0  0  0
 26 27  1  0  0  0  0
 27 28  1  1  0  0  0
 30 29  1  0  0  0  0
 31 30  1  0  0  0  0
 31 27  1  0  0  0  0
 32 31  2  0  0  0  0
 33 32  1  0  0  0  0
 34 36  2  0  0  0  0
 34 32  1  0  0  0  0
 35 34  1  0  0  0  0
 36 38  1  0  0  0  0
 37 36  1  0  0  0  0
 38 30  2  0  0  0  0
 38 39  1  0  0  0  0
 40 41  1  0  0  0  0
 40 27  1  0  0  0  0
 41 43  1  0  0  0  0
 42 41  2  0  0  0  0
 43 44  1  0  0  0  0
 45 43  1  0  0  0  0
M  END
>  <minimizedAffinity>
-5.2654624

>  <minimizedRMSD>
0.767747402

$$$$
