
 OpenBabel03242521173D

 40 42  0  0  0  0  0  0  0  0999 V2000
   46.5390   32.7030   46.5190 C   0  0  0  0  0  0  0  0  0  0  0  0
   47.3890   33.2190   47.0410 H   0  0  0  0  0  0  0  0  0  0  0  0
   46.9940   31.8650   45.9670 H   0  0  0  0  0  0  0  0  0  0  0  0
   44.5800   35.4810   44.9500 C   0  0  0  0  0  0  0  0  0  0  0  0
   45.1580   35.5050   43.6620 C   0  0  0  0  0  0  0  0  0  0  0  0
   46.1610   34.5860   43.4160 C   0  0  0  0  0  0  0  0  0  0  0  0
   46.5490   33.7060   44.4130 N   0  0  0  0  0  0  0  0  0  0  0  0
   45.9520   33.7400   45.6240 C   0  0  0  0  0  0  0  0  0  0  0  0
   44.9660   34.6200   45.9110 N   0  0  0  0  0  0  0  0  0  0  0  0
   43.7920   36.1840   45.1830 H   0  0  0  0  0  0  0  0  0  0  0  0
   44.8360   36.1930   42.9200 H   0  0  0  0  0  0  0  0  0  0  0  0
   46.7640   34.5830   42.1260 N   0  0  0  0  0  0  0  0  0  0  0  0
   47.9560   35.2060   41.9760 C   0  0  0  0  0  0  0  0  0  0  0  0
   48.5520   35.2090   40.7220 C   0  0  0  0  0  0  0  0  0  0  0  0
   47.9160   34.5860   39.6930 C   0  0  0  0  0  0  0  0  0  0  0  0
   48.4860   34.6040   38.5540 O   0  0  0  0  0  0  0  0  0  0  0  0
   46.7380   33.9690   39.8370 N   0  0  0  0  0  0  0  0  0  0  0  0
   46.1940   33.9920   41.0750 C   0  0  0  0  0  0  0  0  0  0  0  0
   45.0940   33.4420   41.3060 O   0  0  0  0  0  0  0  0  0  0  0  0
   48.4690   35.7040   42.7910 H   0  0  0  0  0  0  0  0  0  0  0  0
   49.5000   35.6930   40.5680 H   0  0  0  0  0  0  0  0  0  0  0  0
   46.2370   33.4890   39.0640 H   0  0  0  0  0  0  0  0  0  0  0  0
   45.5350   32.2660   47.5640 C   0  0  0  0  0  0  0  0  0  0  0  0
   45.9920   32.2330   48.5520 H   0  0  0  0  0  0  0  0  0  0  0  0
   44.6630   32.9810   47.5410 H   0  0  0  0  0  0  0  0  0  0  0  0
   45.6960   29.8340   47.5650 C   0  0  0  0  0  0  0  0  0  0  0  0
   46.8060   29.9730   48.1190 O   0  0  0  0  0  0  0  0  0  0  0  0
   45.0010   30.9820   47.1800 N   0  0  0  0  0  0  0  0  0  0  0  0
   44.1210   30.8900   46.6290 H   0  0  0  0  0  0  0  0  0  0  0  0
   45.9380   28.9500   44.7480 Cl  0  0  0  0  0  0  0  0  0  0  0  0
   45.2780   27.9790   46.0590 C   0  0  0  0  0  0  0  0  0  0  0  0
   45.2020   28.4760   47.3600 C   0  0  0  0  0  0  0  0  0  0  0  0
   44.6780   27.6810   48.3560 C   0  0  0  0  0  0  0  0  0  0  0  0
   44.6250   28.0790   49.3600 H   0  0  0  0  0  0  0  0  0  0  0  0
   44.2480   26.4180   48.0210 C   0  0  0  0  0  0  0  0  0  0  0  0
   43.8400   25.8220   48.8440 H   0  0  0  0  0  0  0  0  0  0  0  0
   44.2960   25.8680   46.7570 C   0  0  0  0  0  0  0  0  0  0  0  0
   43.9460   24.8680   46.5360 H   0  0  0  0  0  0  0  0  0  0  0  0
   44.8330   26.7020   45.7730 C   0  0  0  0  0  0  0  0  0  0  0  0
   44.9420   26.1030   44.1200 Cl  0  0  0  0  0  0  0  0  0  0  0  0
  1  2  1  0  0  0  0
  1 23  1  0  0  0  0
  3  1  1  0  0  0  0
  4 10  1  0  0  0  0
  4  9  1  0  0  0  0
  5  4  2  0  0  0  0
  6  5  1  0  0  0  0
  6  7  2  0  0  0  0
  7  8  1  0  0  0  0
  8  9  2  0  0  0  0
  8  1  1  0  0  0  0
 11  5  1  0  0  0  0
 12  6  1  0  0  0  0
 13 12  1  0  0  0  0
 13 20  1  0  0  0  0
 14 13  2  0  0  0  0
 15 17  1  0  0  0  0
 15 14  1  0  0  0  0
 16 15  2  0  0  0  0
 17 18  1  0  0  0  0
 18 19  2  0  0  0  0
 18 12  1  0  0  0  0
 21 14  1  0  0  0  0
 22 17  1  0  0  0  0
 23 24  1  0  0  0  0
 25 23  1  0  0  0  0
 26 27  2  0  0  0  0
 28 23  1  0  0  0  0
 28 26  1  0  0  0  0
 29 28  1  0  0  0  0
 30 31  1  0  0  0  0
 31 32  1  0  0  0  0
 32 26  1  0  0  0  0
 32 33  2  0  0  0  0
 33 34  1  0  0  0  0
 35 33  1  0  0  0  0
 35 36  1  0  0  0  0
 37 35  2  0  0  0  0
 38 37  1  0  0  0  0
 39 31  2  0  0  0  0
 39 37  1  0  0  0  0
 40 39  1  0  0  0  0
M  END
>  <minimizedAffinity>
-6.29447985

>  <minimizedRMSD>
1.79874992

$$$$
