
 OpenBabel03242519253D

 42 45  0  0  0  0  0  0  0  0999 V2000
   47.9140   33.7910   42.8870 C   0  0  0  0  0  0  0  0  0  0  0  0
   48.5960   35.0110   42.6560 C   0  0  0  0  0  0  0  0  0  0  0  0
   49.9620   35.0010   42.3420 C   0  0  0  0  0  0  0  0  0  0  0  0
   50.5660   33.7690   42.2780 N   0  0  0  0  0  0  0  0  0  0  0  0
   49.8790   32.6060   42.5070 C   0  0  0  0  0  0  0  0  0  0  0  0
   48.5820   32.6220   42.8040 N   0  0  0  0  0  0  0  0  0  0  0  0
   48.1930   35.9940   42.6890 H   0  0  0  0  0  0  0  0  0  0  0  0
   50.5310   35.8780   42.1580 H   0  0  0  0  0  0  0  0  0  0  0  0
   46.4850   33.9070   43.2160 C   0  0  0  0  0  0  0  0  0  0  0  0
   45.7820   34.9150   42.4230 C   0  0  0  0  0  0  0  0  0  0  0  0
   45.3290   36.0980   43.1930 C   0  0  0  0  0  0  0  0  0  0  0  0
   44.5300   35.7430   44.4370 C   0  0  0  0  0  0  0  0  0  0  0  0
   44.9820   34.4790   45.1150 C   0  0  0  0  0  0  0  0  0  0  0  0
   46.4220   34.1710   44.7310 C   0  0  0  0  0  0  0  0  0  0  0  0
   46.0220   32.8850   43.0950 H   0  0  0  0  0  0  0  0  0  0  0  0
   44.8620   34.4660   41.9450 H   0  0  0  0  0  0  0  0  0  0  0  0
   46.3850   35.2600   41.5810 H   0  0  0  0  0  0  0  0  0  0  0  0
   44.5920   36.6450   42.5350 H   0  0  0  0  0  0  0  0  0  0  0  0
   46.0730   36.8390   43.4700 H   0  0  0  0  0  0  0  0  0  0  0  0
   44.6070   36.5690   45.1820 H   0  0  0  0  0  0  0  0  0  0  0  0
   43.4370   35.6440   44.2170 H   0  0  0  0  0  0  0  0  0  0  0  0
   44.9210   34.5440   46.2100 H   0  0  0  0  0  0  0  0  0  0  0  0
   44.3690   33.6090   44.7510 H   0  0  0  0  0  0  0  0  0  0  0  0
   46.9790   35.1110   44.8920 H   0  0  0  0  0  0  0  0  0  0  0  0
   46.7940   33.3030   45.2770 H   0  0  0  0  0  0  0  0  0  0  0  0
   50.6680   31.3890   42.4040 C   0  0  0  0  0  0  0  0  0  0  0  0
   51.5060   31.2780   41.3490 N   0  0  0  0  0  0  0  0  0  0  0  0
   52.1550   30.0990   41.4120 C   0  0  0  0  0  0  0  0  0  0  0  0
   51.7050   29.4700   42.5320 N   0  0  0  0  0  0  0  0  0  0  0  0
   50.8050   30.2550   43.1300 N   0  0  0  0  0  0  0  0  0  0  0  0
   52.8850   29.7550   40.6920 H   0  0  0  0  0  0  0  0  0  0  0  0
   49.9700   27.2820   41.6290 Cl  0  0  0  0  0  0  0  0  0  0  0  0
   51.4030   27.0720   42.6350 C   0  0  0  0  0  0  0  0  0  0  0  0
   52.1280   28.1910   42.9840 C   0  0  0  0  0  0  0  0  0  0  0  0
   53.2490   28.0740   43.7650 C   0  0  0  0  0  0  0  0  0  0  0  0
   53.8430   28.9210   44.0620 H   0  0  0  0  0  0  0  0  0  0  0  0
   53.6460   26.8130   44.1990 C   0  0  0  0  0  0  0  0  0  0  0  0
   54.5310   26.7390   44.8130 H   0  0  0  0  0  0  0  0  0  0  0  0
   52.9000   25.6880   43.8340 C   0  0  0  0  0  0  0  0  0  0  0  0
   53.2110   24.7120   44.1720 H   0  0  0  0  0  0  0  0  0  0  0  0
   51.7790   25.8120   43.0530 C   0  0  0  0  0  0  0  0  0  0  0  0
   50.8040   24.4260   42.5660 Cl  0  0  0  0  0  0  0  0  0  0  0  0
  1  9  1  0  0  0  0
  2  7  1  0  0  0  0
  2  1  2  0  0  0  0
  3  2  1  0  0  0  0
  4  3  2  0  0  0  0
  4  5  1  0  0  0  0
  5  6  2  0  0  0  0
  6  1  1  0  0  0  0
  8  3  1  0  0  0  0
  9 14  1  0  0  0  0
 10 11  1  0  0  0  0
 10  9  1  0  0  0  0
 11 19  1  0  0  0  0
 11 12  1  0  0  0  0
 12 13  1  0  0  0  0
 12 20  1  0  0  0  0
 13 22  1  0  0  0  0
 14 24  1  0  0  0  0
 14 13  1  0  0  0  0
 14 25  1  0  0  0  0
 15  9  1  0  0  0  0
 16 10  1  0  0  0  0
 17 10  1  0  0  0  0
 18 11  1  0  0  0  0
 21 12  1  0  0  0  0
 23 13  1  0  0  0  0
 26  5  1  0  0  0  0
 26 30  2  0  0  0  0
 27 28  2  0  0  0  0
 27 26  1  0  0  0  0
 28 29  1  0  0  0  0
 29 34  1  0  0  0  0
 29 30  1  0  0  0  0
 31 28  1  0  0  0  0
 32 33  1  0  0  0  0
 33 34  2  0  0  0  0
 33 41  1  0  0  0  0
 34 35  1  0  0  0  0
 35 36  1  0  0  0  0
 35 37  2  0  0  0  0
 37 38  1  0  0  0  0
 39 40  1  0  0  0  0
 39 37  1  0  0  0  0
 41 39  2  0  0  0  0
 42 41  1  0  0  0  0
M  END
>  <minimizedAffinity>
-4.17417002

>  <minimizedRMSD>
1.15850198

$$$$
