
 OpenBabel03252507463D

 39 41  0  0  0  0  0  0  0  0999 V2000
   48.5340   33.8780   41.3130 C   0  0  0  0  0  0  0  0  0  0  0  0
   48.7070   32.5400   40.9570 C   0  0  0  0  0  0  0  0  0  0  0  0
   49.8530   31.8520   41.3490 C   0  0  0  0  0  0  0  0  0  0  0  0
   50.7790   32.5310   42.0790 N   0  0  0  0  0  0  0  0  0  0  0  0
   50.5760   33.8310   42.4070 C   0  0  0  0  0  0  0  0  0  0  0  0
   49.4760   34.4630   42.0210 N   0  0  0  0  0  0  0  0  0  0  0  0
   49.9740   30.8180   41.0660 H   0  0  0  0  0  0  0  0  0  0  0  0
   51.3640   34.3060   42.9950 H   0  0  0  0  0  0  0  0  0  0  0  0
   47.2990   34.5290   40.8620 C   0  0  0  0  0  0  0  0  0  0  0  0
   46.7180   33.9230   40.1750 H   0  0  0  0  0  0  0  0  0  0  0  0
   47.6310   35.4240   40.2600 H   0  0  0  0  0  0  0  0  0  0  0  0
   46.4750   35.0800   41.9800 C   0  0  0  0  0  0  0  0  0  0  0  0
   46.7500   34.5700   42.9270 H   0  0  0  0  0  0  0  0  0  0  0  0
   46.6670   36.1640   42.1730 H   0  0  0  0  0  0  0  0  0  0  0  0
   45.0070   34.9770   41.7540 C   0  0  0  0  0  0  0  0  0  0  0  0
   44.1090   35.4220   42.7740 C   0  0  0  0  0  0  0  0  0  0  0  0
   42.4560   35.0920   42.0350 S   0  0  0  0  0  0  0  0  0  0  0  0
   43.2690   34.4020   40.4600 C   0  0  0  0  0  0  0  0  0  0  0  0
   44.3750   34.5150   40.7090 N   0  0  0  0  0  0  0  0  0  0  0  0
   44.3660   35.8470   43.7350 H   0  0  0  0  0  0  0  0  0  0  0  0
   42.5320   33.9250   39.3820 O   0  0  0  0  0  0  0  0  0  0  0  0
   40.5440   34.3200   37.6840 O   0  0  0  0  0  0  0  0  0  0  0  0
   41.6210   35.0430   38.4840 P   0  0  0  0  0  0  0  0  0  0  0  0
   40.8800   36.1050   39.5850 O   0  0  0  0  0  0  0  0  0  0  0  0
   40.3470   35.6110   40.2290 H   0  0  0  0  0  0  0  0  0  0  0  0
   42.6450   35.9410   37.4850 O   0  0  0  0  0  0  0  0  0  0  0  0
   42.8770   35.3980   36.6930 H   0  0  0  0  0  0  0  0  0  0  0  0
   47.4510   31.6840   39.9880 S   0  0  0  0  0  0  0  0  0  0  0  0
   44.5920   31.0730   38.6720 Cl  0  0  0  0  0  0  0  0  0  0  0  0
   44.7410   31.0750   40.4160 C   0  0  0  0  0  0  0  0  0  0  0  0
   45.9860   31.3420   40.9470 C   0  0  0  0  0  0  0  0  0  0  0  0
   46.1540   31.3550   42.3170 C   0  0  0  0  0  0  0  0  0  0  0  0
   47.0730   31.5510   42.8290 H   0  0  0  0  0  0  0  0  0  0  0  0
   45.1140   31.1090   43.1800 C   0  0  0  0  0  0  0  0  0  0  0  0
   45.1960   31.1080   44.2670 H   0  0  0  0  0  0  0  0  0  0  0  0
   43.8460   30.8370   42.6590 C   0  0  0  0  0  0  0  0  0  0  0  0
   42.9750   30.6320   43.2980 H   0  0  0  0  0  0  0  0  0  0  0  0
   43.7040   30.8290   41.2900 C   0  0  0  0  0  0  0  0  0  0  0  0
   42.1330   30.4920   40.6070 Cl  0  0  0  0  0  0  0  0  0  0  0  0
  1  6  1  0  0  0  0
  2  1  2  0  0  0  0
  2  3  1  0  0  0  0
  3  4  2  0  0  0  0
  4  5  1  0  0  0  0
  5  8  1  0  0  0  0
  6  5  2  0  0  0  0
  7  3  1  0  0  0  0
  9  1  1  0  0  0  0
  9 12  1  0  0  0  0
 10  9  1  0  0  0  0
 11  9  1  0  0  0  0
 12 14  1  0  0  0  0
 12 13  1  0  0  0  0
 15 12  1  0  0  0  0
 15 16  2  0  0  0  0
 16 20  1  0  0  0  0
 17 16  1  0  0  0  0
 18 19  2  0  0  0  0
 18 17  1  0  0  0  0
 19 15  1  0  0  0  0
 21 18  1  0  0  0  0
 22 23  2  0  0  0  0
 23 21  1  0  0  0  0
 23 24  1  0  0  0  0
 24 25  1  0  0  0  0
 26 23  1  0  0  0  0
 27 26  1  0  0  0  0
 28 31  1  0  0  0  0
 28  2  1  0  0  0  0
 29 30  1  0  0  0  0
 30 31  2  0  0  0  0
 30 38  1  0  0  0  0
 31 32  1  0  0  0  0
 32 33  1  0  0  0  0
 32 34  2  0  0  0  0
 34 35  1  0  0  0  0
 36 34  1  0  0  0  0
 36 37  1  0  0  0  0
 38 36  2  0  0  0  0
 39 38  1  0  0  0  0
M  END
>  <minimizedAffinity>
-4.51739359

>  <minimizedRMSD>
1.07038558

$$$$
