
 OpenBabel03242516413D

 34 35  0  0  0  0  0  0  0  0999 V2000
   49.2140   33.5640   42.7430 C   0  0  0  0  0  0  0  0  0  0  0  0
   50.1170   34.0530   42.3430 H   0  0  0  0  0  0  0  0  0  0  0  0
   49.2770   33.6180   43.8510 H   0  0  0  0  0  0  0  0  0  0  0  0
   47.9220   34.1830   42.2820 C   0  0  0  0  0  0  0  0  0  0  0  0
   48.1360   35.2420   41.9910 H   0  0  0  0  0  0  0  0  0  0  0  0
   47.5320   33.7010   41.3700 H   0  0  0  0  0  0  0  0  0  0  0  0
   44.9150   35.0470   44.3740 C   0  0  0  0  0  0  0  0  0  0  0  0
   45.8490   35.0140   43.3150 C   0  0  0  0  0  0  0  0  0  0  0  0
   46.9630   34.2030   43.3970 C   0  0  0  0  0  0  0  0  0  0  0  0
   47.1110   33.4630   44.5090 N   0  0  0  0  0  0  0  0  0  0  0  0
   46.2130   33.4990   45.5190 C   0  0  0  0  0  0  0  0  0  0  0  0
   45.1230   34.2850   45.4550 N   0  0  0  0  0  0  0  0  0  0  0  0
   43.7770   35.8760   44.2920 N   0  0  0  0  0  0  0  0  0  0  0  0
   45.6980   35.6260   42.4280 H   0  0  0  0  0  0  0  0  0  0  0  0
   46.3840   32.8870   46.3820 H   0  0  0  0  0  0  0  0  0  0  0  0
   43.4650   36.7070   44.8310 H   0  0  0  0  0  0  0  0  0  0  0  0
   43.2280   35.4700   43.5030 H   0  0  0  0  0  0  0  0  0  0  0  0
   49.2310   32.2150   42.4220 O   0  0  0  0  0  0  0  0  0  0  0  0
   50.1970   30.4500   40.7650 O   0  0  0  0  0  0  0  0  0  0  0  0
   50.1010   31.9200   40.9900 P   0  0  2  0  0  0  0  0  0  0  0  0
   51.6260   32.6450   41.1960 O   0  0  0  0  0  0  0  0  0  0  0  0
   52.2500   32.0720   41.7110 H   0  0  0  0  0  0  0  0  0  0  0  0
   49.3720   32.7480   39.7190 O   0  0  0  0  0  0  0  0  0  0  0  0
   46.6380   33.3830   38.9780 Cl  0  0  0  0  0  0  0  0  0  0  0  0
   47.9090   32.6400   37.9960 C   0  0  0  0  0  0  0  0  0  0  0  0
   49.2150   32.3600   38.4210 C   0  0  0  0  0  0  0  0  0  0  0  0
   50.0650   31.7770   37.5100 C   0  0  0  0  0  0  0  0  0  0  0  0
   51.0330   31.6000   37.9120 H   0  0  0  0  0  0  0  0  0  0  0  0
   49.6470   31.4790   36.2300 C   0  0  0  0  0  0  0  0  0  0  0  0
   50.4070   31.0140   35.5850 H   0  0  0  0  0  0  0  0  0  0  0  0
   48.3670   31.7450   35.7900 C   0  0  0  0  0  0  0  0  0  0  0  0
   48.0750   31.4980   34.7800 H   0  0  0  0  0  0  0  0  0  0  0  0
   47.5020   32.3300   36.6920 C   0  0  0  0  0  0  0  0  0  0  0  0
   45.8870   32.6510   36.0950 Cl  0  0  0  0  0  0  0  0  0  0  0  0
  1  3  1  0  0  0  0
  2  1  1  0  0  0  0
  4  1  1  0  0  0  0
  4  9  1  0  0  0  0
  5  4  1  0  0  0  0
  6  4  1  0  0  0  0
  7 12  1  0  0  0  0
  8  9  1  0  0  0  0
  8  7  2  0  0  0  0
  9 10  2  0  0  0  0
 10 11  1  0  0  0  0
 11 15  1  0  0  0  0
 12 11  2  0  0  0  0
 13  7  1  0  0  0  0
 13 16  1  0  0  0  0
 14  8  1  0  0  0  0
 17 13  1  0  0  0  0
 18  1  1  0  0  0  0
 20 19  2  6  0  0  0
 20 21  1  0  0  0  0
 20 18  1  0  0  0  0
 21 22  1  0  0  0  0
 23 20  1  0  0  0  0
 25 26  1  0  0  0  0
 25 24  1  0  0  0  0
 26 23  1  0  0  0  0
 27 28  1  0  0  0  0
 27 26  2  0  0  0  0
 29 27  1  0  0  0  0
 30 29  1  0  0  0  0
 31 29  2  0  0  0  0
 31 33  1  0  0  0  0
 32 31  1  0  0  0  0
 33 25  2  0  0  0  0
 34 33  1  0  0  0  0
M  END
>  <minimizedAffinity>
-4.77961493

>  <minimizedRMSD>
1.39498258

$$$$
