
 OpenBabel03242510243D

 40 43  0  0  1  0  0  0  0  0999 V2000
   39.9050   31.8310   39.7960 N   0  0  0  0  0  0  0  0  0  0  0  0
   40.7090   31.5340   40.8930 C   0  0  0  0  0  0  0  0  0  0  0  0
   41.6440   32.1880   41.4250 O   0  0  0  0  0  0  0  0  0  0  0  0
   39.7540   30.9990   39.1840 H   0  0  0  0  0  0  0  0  0  0  0  0
   37.8870   33.2320   39.5500 C   0  0  1  0  0  0  0  0  0  0  0  0
   38.4890   33.6340   40.7430 C   0  0  0  0  0  0  0  0  0  0  0  0
   39.3650   33.1230   39.5600 C   0  0  1  0  0  0  0  0  0  0  0  0
   37.4060   33.9500   38.8300 H   0  0  0  0  0  0  0  0  0  0  0  0
   38.5600   34.7450   40.9650 H   0  0  0  0  0  0  0  0  0  0  0  0
   38.5620   33.0700   41.6900 H   0  0  0  0  0  0  0  0  0  0  0  0
   40.0360   33.9360   39.2090 H   0  0  0  0  0  0  0  0  0  0  0  0
   36.9430   31.1340   38.3360 C   0  0  0  0  0  0  0  0  0  0  0  0
   37.1220   31.9020   39.5340 C   0  0  0  0  0  0  0  0  0  0  0  0
   36.5570   31.4110   40.6930 C   0  0  0  0  0  0  0  0  0  0  0  0
   35.8690   30.2490   40.6480 N   0  0  0  0  0  0  0  0  0  0  0  0
   35.7080   29.5340   39.5080 C   0  0  0  0  0  0  0  0  0  0  0  0
   36.2680   30.0010   38.3120 N   0  0  0  0  0  0  0  0  0  0  0  0
   37.3990   31.5000   37.4370 H   0  0  0  0  0  0  0  0  0  0  0  0
   36.6550   31.9400   41.6250 H   0  0  0  0  0  0  0  0  0  0  0  0
   35.1570   28.6020   39.4730 H   0  0  0  0  0  0  0  0  0  0  0  0
   40.4980   30.2290   41.6390 C   0  0  2  0  0  0  0  0  0  0  0  0
   40.6160   28.9140   40.7850 C   0  0  0  0  0  0  0  0  0  0  0  0
   39.3270   29.3820   41.3740 C   0  0  1  0  0  0  0  0  0  0  0  0
   41.0480   30.0870   42.5900 H   0  0  0  0  0  0  0  0  0  0  0  0
   40.7810   29.1100   39.6980 H   0  0  0  0  0  0  0  0  0  0  0  0
   41.0650   28.0400   41.2450 H   0  0  0  0  0  0  0  0  0  0  0  0
   38.5310   29.8230   40.7400 H   0  0  0  0  0  0  0  0  0  0  0  0
   38.7620   28.5980   42.5370 C   0  0  0  0  0  0  0  0  0  0  0  0
   37.9960   29.1500   43.3160 O   0  0  0  0  0  0  0  0  0  0  0  0
   36.9560   26.7170   41.1000 Cl  0  0  0  0  0  0  0  0  0  0  0  0
   38.3110   26.2640   42.1280 C   0  0  0  0  0  0  0  0  0  0  0  0
   39.1020   27.1980   42.7610 C   0  0  0  0  0  0  0  0  0  0  0  0
   40.1280   26.7100   43.5370 C   0  0  0  0  0  0  0  0  0  0  0  0
   40.7460   27.4420   44.0310 H   0  0  0  0  0  0  0  0  0  0  0  0
   40.3600   25.3590   43.6800 C   0  0  0  0  0  0  0  0  0  0  0  0
   41.2090   25.0850   44.3240 H   0  0  0  0  0  0  0  0  0  0  0  0
   39.5740   24.4180   43.0480 C   0  0  0  0  0  0  0  0  0  0  0  0
   39.7840   23.3710   43.1820 H   0  0  0  0  0  0  0  0  0  0  0  0
   38.5390   24.8870   42.2670 C   0  0  0  0  0  0  0  0  0  0  0  0
   37.5180   23.7200   41.4510 Cl  0  0  0  0  0  0  0  0  0  0  0  0
  1  2  1  0  0  0  0
  2  3  2  0  0  0  0
  2 21  1  0  0  0  0
  4  1  1  0  0  0  0
  5  8  1  6  0  0  0
  5  7  1  0  0  0  0
  5  6  1  0  0  0  0
  6  9  1  0  0  0  0
  6 10  1  0  0  0  0
  7 11  1  6  0  0  0
  7  1  1  0  0  0  0
  7  6  1  0  0  0  0
 12 13  1  0  0  0  0
 13  5  1  0  0  0  0
 13 14  2  0  0  0  0
 14 19  1  0  0  0  0
 15 14  1  0  0  0  0
 16 15  2  0  0  0  0
 17 12  2  0  0  0  0
 17 16  1  0  0  0  0
 18 12  1  0  0  0  0
 20 16  1  0  0  0  0
 21 24  1  1  0  0  0
 22 26  1  0  0  0  0
 22 23  1  0  0  0  0
 22 21  1  0  0  0  0
 23 27  1  6  0  0  0
 23 21  1  0  0  0  0
 23 28  1  0  0  0  0
 25 22  1  0  0  0  0
 28 32  1  0  0  0  0
 28 29  2  0  0  0  0
 30 31  1  0  0  0  0
 31 39  2  0  0  0  0
 31 32  1  0  0  0  0
 32 33  2  0  0  0  0
 33 35  1  0  0  0  0
 33 34  1  0  0  0  0
 35 36  1  0  0  0  0
 37 38  1  0  0  0  0
 37 35  2  0  0  0  0
 39 37  1  0  0  0  0
 40 39  1  0  0  0  0
M  END
>  <minimizedAffinity>
-5.83795166

$$$$

 OpenBabel03242510243D

 40 43  0  0  1  0  0  0  0  0999 V2000
   37.7100   29.7340   39.8270 N   0  0  0  0  0  0  0  0  0  0  0  0
   37.0830   29.7690   41.0700 C   0  0  0  0  0  0  0  0  0  0  0  0
   36.2150   30.5590   41.5270 O   0  0  0  0  0  0  0  0  0  0  0  0
   38.7300   29.5260   39.9090 H   0  0  0  0  0  0  0  0  0  0  0  0
   37.3110   31.2310   37.9060 C   0  0  1  0  0  0  0  0  0  0  0  0
   37.9850   30.1210   37.3930 C   0  0  0  0  0  0  0  0  0  0  0  0
   37.0210   29.9570   38.6060 C   0  0  1  0  0  0  0  0  0  0  0  0
   36.4730   31.7480   37.3610 H   0  0  0  0  0  0  0  0  0  0  0  0
   37.6250   29.6750   36.4140 H   0  0  0  0  0  0  0  0  0  0  0  0
   39.0390   29.8310   37.5570 H   0  0  0  0  0  0  0  0  0  0  0  0
   36.1760   29.2910   38.3290 H   0  0  0  0  0  0  0  0  0  0  0  0
   39.5490   32.2810   38.7140 C   0  0  0  0  0  0  0  0  0  0  0  0
   38.1150   32.2630   38.7070 C   0  0  0  0  0  0  0  0  0  0  0  0
   37.4640   33.2080   39.4740 C   0  0  0  0  0  0  0  0  0  0  0  0
   38.1960   34.0920   40.1870 N   0  0  0  0  0  0  0  0  0  0  0  0
   39.5520   34.0970   40.1850 C   0  0  0  0  0  0  0  0  0  0  0  0
   40.2460   33.1530   39.4170 N   0  0  0  0  0  0  0  0  0  0  0  0
   40.0600   31.5630   38.1030 H   0  0  0  0  0  0  0  0  0  0  0  0
   36.3900   33.2480   39.5100 H   0  0  0  0  0  0  0  0  0  0  0  0
   40.1360   34.8070   40.7570 H   0  0  0  0  0  0  0  0  0  0  0  0
   37.4340   28.7230   42.1110 C   0  0  2  0  0  0  0  0  0  0  0  0
   38.4600   29.1620   43.2190 C   0  0  0  0  0  0  0  0  0  0  0  0
   38.7800   28.1390   42.1790 C   0  0  1  0  0  0  0  0  0  0  0  0
   36.5980   28.1800   42.5950 H   0  0  0  0  0  0  0  0  0  0  0  0
   38.8610   30.1920   43.0610 H   0  0  0  0  0  0  0  0  0  0  0  0
   38.3180   28.7930   44.2280 H   0  0  0  0  0  0  0  0  0  0  0  0
   39.4630   28.3710   41.3360 H   0  0  0  0  0  0  0  0  0  0  0  0
   38.8900   26.6980   42.6240 C   0  0  0  0  0  0  0  0  0  0  0  0
   39.4880   26.4340   43.6580 O   0  0  0  0  0  0  0  0  0  0  0  0
   40.7440   25.5840   40.5780 Cl  0  0  0  0  0  0  0  0  0  0  0  0
   39.0990   25.0370   40.8860 C   0  0  0  0  0  0  0  0  0  0  0  0
   38.3020   25.6080   41.8550 C   0  0  0  0  0  0  0  0  0  0  0  0
   37.0360   25.0870   41.9930 C   0  0  0  0  0  0  0  0  0  0  0  0
   36.4140   25.5330   42.7520 H   0  0  0  0  0  0  0  0  0  0  0  0
   36.5800   24.0490   41.2080 C   0  0  0  0  0  0  0  0  0  0  0  0
   35.5510   23.7140   41.4080 H   0  0  0  0  0  0  0  0  0  0  0  0
   37.3730   23.4730   40.2380 C   0  0  0  0  0  0  0  0  0  0  0  0
   36.9840   22.6650   39.6430 H   0  0  0  0  0  0  0  0  0  0  0  0
   38.6450   23.9820   40.0830 C   0  0  0  0  0  0  0  0  0  0  0  0
   39.6790   23.2750   38.8580 Cl  0  0  0  0  0  0  0  0  0  0  0  0
  1  4  1  0  0  0  0
  1  2  1  0  0  0  0
  2  3  2  0  0  0  0
  2 21  1  0  0  0  0
  5  8  1  6  0  0  0
  5  7  1  0  0  0  0
  5 13  1  0  0  0  0
  6 10  1  0  0  0  0
  6  5  1  0  0  0  0
  6  7  1  0  0  0  0
  7 11  1  6  0  0  0
  7  1  1  0  0  0  0
  9  6  1  0  0  0  0
 12 17  1  0  0  0  0
 13 12  2  0  0  0  0
 13 14  1  0  0  0  0
 14 19  1  0  0  0  0
 14 15  2  0  0  0  0
 16 15  1  0  0  0  0
 16 20  1  0  0  0  0
 17 16  2  0  0  0  0
 18 12  1  0  0  0  0
 21 23  1  0  0  0  0
 21 24  1  1  0  0  0
 21 22  1  0  0  0  0
 22 26  1  0  0  0  0
 23 27  1  6  0  0  0
 23 28  1  0  0  0  0
 23 22  1  0  0  0  0
 25 22  1  0  0  0  0
 28 29  2  0  0  0  0
 30 31  1  0  0  0  0
 31 32  1  0  0  0  0
 32 33  2  0  0  0  0
 32 28  1  0  0  0  0
 33 34  1  0  0  0  0
 35 36  1  0  0  0  0
 35 33  1  0  0  0  0
 37 35  2  0  0  0  0
 38 37  1  0  0  0  0
 39 37  1  0  0  0  0
 39 31  2  0  0  0  0
 40 39  1  0  0  0  0
M  END
>  <minimizedAffinity>
-5.78094435

$$$$

 OpenBabel03242510243D

 40 43  0  0  1  0  0  0  0  0999 V2000
   36.8040   30.0040   39.8910 N   0  0  0  0  0  0  0  0  0  0  0  0
   36.0350   29.1430   40.6710 C   0  0  0  0  0  0  0  0  0  0  0  0
   34.7910   28.9490   40.6930 O   0  0  0  0  0  0  0  0  0  0  0  0
   37.5540   30.4710   40.4470 H   0  0  0  0  0  0  0  0  0  0  0  0
   37.3520   31.2850   37.8540 C   0  0  1  0  0  0  0  0  0  0  0  0
   37.8590   30.0020   37.6470 C   0  0  0  0  0  0  0  0  0  0  0  0
   36.5740   30.2040   38.5050 C   0  0  1  0  0  0  0  0  0  0  0  0
   36.8580   31.8910   37.0440 H   0  0  0  0  0  0  0  0  0  0  0  0
   37.7030   29.5170   36.6330 H   0  0  0  0  0  0  0  0  0  0  0  0
   38.7180   29.5210   38.1490 H   0  0  0  0  0  0  0  0  0  0  0  0
   35.7120   29.6990   38.0180 H   0  0  0  0  0  0  0  0  0  0  0  0
   37.4730   33.3190   39.4710 C   0  0  0  0  0  0  0  0  0  0  0  0
   38.1110   32.2220   38.8020 C   0  0  0  0  0  0  0  0  0  0  0  0
   39.4610   32.0420   39.0250 C   0  0  0  0  0  0  0  0  0  0  0  0
   40.1120   32.8940   39.8470 N   0  0  0  0  0  0  0  0  0  0  0  0
   39.4950   33.9270   40.4720 C   0  0  0  0  0  0  0  0  0  0  0  0
   38.1250   34.1410   40.2710 N   0  0  0  0  0  0  0  0  0  0  0  0
   36.4200   33.4500   39.3190 H   0  0  0  0  0  0  0  0  0  0  0  0
   39.9980   31.2380   38.5530 H   0  0  0  0  0  0  0  0  0  0  0  0
   40.0180   34.6090   41.1320 H   0  0  0  0  0  0  0  0  0  0  0  0
   36.7200   28.2490   41.6880 C   0  0  2  0  0  0  0  0  0  0  0  0
   37.3700   28.9740   42.9240 C   0  0  0  0  0  0  0  0  0  0  0  0
   38.1770   28.2840   41.8740 C   0  0  1  0  0  0  0  0  0  0  0  0
   36.1630   27.3620   42.0480 H   0  0  0  0  0  0  0  0  0  0  0  0
   37.3000   30.0860   42.8650 H   0  0  0  0  0  0  0  0  0  0  0  0
   37.3220   28.4850   43.8900 H   0  0  0  0  0  0  0  0  0  0  0  0
   38.7570   28.8600   41.1240 H   0  0  0  0  0  0  0  0  0  0  0  0
   38.8590   26.9890   42.2510 C   0  0  0  0  0  0  0  0  0  0  0  0
   39.1450   26.7820   43.4230 O   0  0  0  0  0  0  0  0  0  0  0  0
   36.9200   24.7300   42.2080 Cl  0  0  0  0  0  0  0  0  0  0  0  0
   38.3370   24.8930   41.1770 C   0  0  0  0  0  0  0  0  0  0  0  0
   39.1880   25.9730   41.2590 C   0  0  0  0  0  0  0  0  0  0  0  0
   40.2600   25.9780   40.3950 C   0  0  0  0  0  0  0  0  0  0  0  0
   40.9250   26.8240   40.4600 H   0  0  0  0  0  0  0  0  0  0  0  0
   40.4780   24.9600   39.4910 C   0  0  0  0  0  0  0  0  0  0  0  0
   41.3660   25.0700   38.8510 H   0  0  0  0  0  0  0  0  0  0  0  0
   39.6290   23.8760   39.4030 C   0  0  0  0  0  0  0  0  0  0  0  0
   39.8290   23.1000   38.6860 H   0  0  0  0  0  0  0  0  0  0  0  0
   38.5500   23.8530   40.2610 C   0  0  0  0  0  0  0  0  0  0  0  0
   37.4510   22.4910   40.1770 Cl  0  0  0  0  0  0  0  0  0  0  0  0
  1  4  1  0  0  0  0
  1  2  1  0  0  0  0
  2  3  2  0  0  0  0
  2 21  1  0  0  0  0
  5  8  1  6  0  0  0
  5  7  1  0  0  0  0
  5 13  1  0  0  0  0
  6  5  1  0  0  0  0
  6 10  1  0  0  0  0
  6  7  1  0  0  0  0
  7 11  1  6  0  0  0
  7  1  1  0  0  0  0
  9  6  1  0  0  0  0
 12 17  1  0  0  0  0
 13 14  1  0  0  0  0
 13 12  2  0  0  0  0
 14 15  2  0  0  0  0
 15 16  1  0  0  0  0
 16 20  1  0  0  0  0
 17 16  2  0  0  0  0
 18 12  1  0  0  0  0
 19 14  1  0  0  0  0
 21 23  1  0  0  0  0
 21 24  1  1  0  0  0
 21 22  1  0  0  0  0
 22 26  1  0  0  0  0
 23 27  1  6  0  0  0
 23 28  1  0  0  0  0
 23 22  1  0  0  0  0
 25 22  1  0  0  0  0
 28 29  2  0  0  0  0
 31 32  1  0  0  0  0
 31 30  1  0  0  0  0
 32 28  1  0  0  0  0
 33 34  1  0  0  0  0
 33 32  2  0  0  0  0
 35 33  1  0  0  0  0
 36 35  1  0  0  0  0
 37 35  2  0  0  0  0
 37 39  1  0  0  0  0
 38 37  1  0  0  0  0
 39 31  2  0  0  0  0
 40 39  1  0  0  0  0
M  END
>  <minimizedAffinity>
-5.52182531

$$$$

 OpenBabel03242510243D

 40 43  0  0  1  0  0  0  0  0999 V2000
   39.0100   31.5760   41.1140 N   0  0  0  0  0  0  0  0  0  0  0  0
   39.5750   30.9320   42.2120 C   0  0  0  0  0  0  0  0  0  0  0  0
   40.5610   31.2480   42.9290 O   0  0  0  0  0  0  0  0  0  0  0  0
   38.7500   30.9050   40.3570 H   0  0  0  0  0  0  0  0  0  0  0  0
   39.5140   33.6970   39.9560 C   0  0  1  0  0  0  0  0  0  0  0  0
   38.1620   33.4440   39.7210 C   0  0  0  0  0  0  0  0  0  0  0  0
   38.8220   32.9820   41.0540 C   0  0  1  0  0  0  0  0  0  0  0  0
   39.9230   34.7260   40.1570 H   0  0  0  0  0  0  0  0  0  0  0  0
   37.4290   34.3060   39.8070 H   0  0  0  0  0  0  0  0  0  0  0  0
   37.7180   32.6530   39.0890 H   0  0  0  0  0  0  0  0  0  0  0  0
   38.3450   33.5030   41.9120 H   0  0  0  0  0  0  0  0  0  0  0  0
   41.8990   32.7080   39.6410 C   0  0  0  0  0  0  0  0  0  0  0  0
   40.5520   32.8770   39.1780 C   0  0  0  0  0  0  0  0  0  0  0  0
   40.2140   32.2860   37.9780 C   0  0  0  0  0  0  0  0  0  0  0  0
   41.1530   31.5880   37.3020 N   0  0  0  0  0  0  0  0  0  0  0  0
   42.4230   31.4370   37.7520 C   0  0  0  0  0  0  0  0  0  0  0  0
   42.8020   32.0220   38.9670 N   0  0  0  0  0  0  0  0  0  0  0  0
   42.1610   33.1460   40.5840 H   0  0  0  0  0  0  0  0  0  0  0  0
   39.2200   32.3760   37.5760 H   0  0  0  0  0  0  0  0  0  0  0  0
   43.1750   30.8760   37.2090 H   0  0  0  0  0  0  0  0  0  0  0  0
   38.9710   29.6290   42.7020 C   0  0  2  0  0  0  0  0  0  0  0  0
   39.8790   28.3510   42.5730 C   0  0  0  0  0  0  0  0  0  0  0  0
   38.6370   28.5460   41.7670 C   0  0  1  0  0  0  0  0  0  0  0  0
   38.4950   29.6290   43.7020 H   0  0  0  0  0  0  0  0  0  0  0  0
   40.8520   28.5550   42.0670 H   0  0  0  0  0  0  0  0  0  0  0  0
   39.8290   27.6040   43.3570 H   0  0  0  0  0  0  0  0  0  0  0  0
   38.6860   28.7930   40.6870 H   0  0  0  0  0  0  0  0  0  0  0  0
   37.4400   27.6850   42.1030 C   0  0  0  0  0  0  0  0  0  0  0  0
   36.5760   28.1250   42.8480 O   0  0  0  0  0  0  0  0  0  0  0  0
   36.2350   27.6550   39.3800 Cl  0  0  0  0  0  0  0  0  0  0  0  0
   36.7310   26.2410   40.3040 C   0  0  0  0  0  0  0  0  0  0  0  0
   37.2830   26.3400   41.5630 C   0  0  0  0  0  0  0  0  0  0  0  0
   37.6270   25.1570   42.1770 C   0  0  0  0  0  0  0  0  0  0  0  0
   38.0590   25.2350   43.1610 H   0  0  0  0  0  0  0  0  0  0  0  0
   37.4330   23.9330   41.5720 C   0  0  0  0  0  0  0  0  0  0  0  0
   37.7460   23.0550   42.1570 H   0  0  0  0  0  0  0  0  0  0  0  0
   36.8820   23.8280   40.3120 C   0  0  0  0  0  0  0  0  0  0  0  0
   36.7450   22.8560   39.8700 H   0  0  0  0  0  0  0  0  0  0  0  0
   36.5300   25.0020   39.6800 C   0  0  0  0  0  0  0  0  0  0  0  0
   35.8260   24.9060   38.0790 Cl  0  0  0  0  0  0  0  0  0  0  0  0
  1  2  1  0  0  0  0
  2 21  1  0  0  0  0
  2  3  2  0  0  0  0
  4  1  1  0  0  0  0
  5  8  1  1  0  0  0
  5  7  1  0  0  0  0
  6  9  1  0  0  0  0
  6  5  1  0  0  0  0
  6  7  1  0  0  0  0
  7  1  1  0  0  0  0
  7 11  1  1  0  0  0
 10  6  1  0  0  0  0
 12 18  1  0  0  0  0
 13 12  1  0  0  0  0
 13  5  1  0  0  0  0
 14 13  2  0  0  0  0
 15 16  2  0  0  0  0
 15 14  1  0  0  0  0
 16 17  1  0  0  0  0
 17 12  2  0  0  0  0
 19 14  1  0  0  0  0
 20 16  1  0  0  0  0
 21 24  1  1  0  0  0
 22 21  1  0  0  0  0
 22 26  1  0  0  0  0
 23 27  1  6  0  0  0
 23 28  1  0  0  0  0
 23 22  1  0  0  0  0
 23 21  1  0  0  0  0
 25 22  1  0  0  0  0
 28 29  2  0  0  0  0
 30 31  1  0  0  0  0
 31 32  1  0  0  0  0
 32 28  1  0  0  0  0
 32 33  2  0  0  0  0
 33 34  1  0  0  0  0
 35 36  1  0  0  0  0
 35 33  1  0  0  0  0
 37 35  2  0  0  0  0
 38 37  1  0  0  0  0
 39 31  2  0  0  0  0
 39 37  1  0  0  0  0
 40 39  1  0  0  0  0
M  END
>  <minimizedAffinity>
-5.47054386

$$$$

 OpenBabel03242510243D

 40 43  0  0  1  0  0  0  0  0999 V2000
   39.3510   30.0690   37.5150 N   0  0  0  0  0  0  0  0  0  0  0  0
   38.5360   29.0010   37.1520 C   0  0  0  0  0  0  0  0  0  0  0  0
   38.6600   28.1530   36.2290 O   0  0  0  0  0  0  0  0  0  0  0  0
   38.7970   30.9220   37.7530 H   0  0  0  0  0  0  0  0  0  0  0  0
   41.4510   30.7390   38.6270 C   0  0  1  0  0  0  0  0  0  0  0  0
   41.3020   29.3750   38.8800 C   0  0  0  0  0  0  0  0  0  0  0  0
   40.7680   29.9850   37.5500 C   0  0  1  0  0  0  0  0  0  0  0  0
   42.4440   31.2190   38.4020 H   0  0  0  0  0  0  0  0  0  0  0  0
   42.2130   28.7050   38.7850 H   0  0  0  0  0  0  0  0  0  0  0  0
   40.5580   28.8830   39.5320 H   0  0  0  0  0  0  0  0  0  0  0  0
   41.3060   29.5370   36.6870 H   0  0  0  0  0  0  0  0  0  0  0  0
   39.8090   31.3260   40.5570 C   0  0  0  0  0  0  0  0  0  0  0  0
   40.5730   31.7240   39.4100 C   0  0  0  0  0  0  0  0  0  0  0  0
   40.4770   33.0410   39.0080 C   0  0  0  0  0  0  0  0  0  0  0  0
   39.6800   33.8830   39.7020 N   0  0  0  0  0  0  0  0  0  0  0  0
   38.9630   33.4930   40.7850 C   0  0  0  0  0  0  0  0  0  0  0  0
   39.0360   32.1640   41.2210 N   0  0  0  0  0  0  0  0  0  0  0  0
   39.8970   30.3100   40.8860 H   0  0  0  0  0  0  0  0  0  0  0  0
   41.0250   33.4020   38.1560 H   0  0  0  0  0  0  0  0  0  0  0  0
   38.3250   34.1690   41.3400 H   0  0  0  0  0  0  0  0  0  0  0  0
   37.2670   28.7310   37.9390 C   0  0  2  0  0  0  0  0  0  0  0  0
   36.0670   29.7140   37.6810 C   0  0  0  0  0  0  0  0  0  0  0  0
   36.8050   29.6610   38.9780 C   0  0  1  0  0  0  0  0  0  0  0  0
   36.8820   27.6930   37.9500 H   0  0  0  0  0  0  0  0  0  0  0  0
   36.3240   30.5450   36.9810 H   0  0  0  0  0  0  0  0  0  0  0  0
   35.0610   29.3090   37.6840 H   0  0  0  0  0  0  0  0  0  0  0  0
   37.5100   30.4660   39.2710 H   0  0  0  0  0  0  0  0  0  0  0  0
   36.0860   29.0690   40.1690 C   0  0  0  0  0  0  0  0  0  0  0  0
   34.8630   29.0290   40.1730 O   0  0  0  0  0  0  0  0  0  0  0  0
   36.5280   26.1280   40.0160 Cl  0  0  0  0  0  0  0  0  0  0  0  0
   37.0530   27.1840   41.3230 C   0  0  0  0  0  0  0  0  0  0  0  0
   36.8090   28.5400   41.3200 C   0  0  0  0  0  0  0  0  0  0  0  0
   37.2720   29.2500   42.4030 C   0  0  0  0  0  0  0  0  0  0  0  0
   37.0810   30.3110   42.3990 H   0  0  0  0  0  0  0  0  0  0  0  0
   37.9470   28.6460   43.4430 C   0  0  0  0  0  0  0  0  0  0  0  0
   38.2710   29.3130   44.2550 H   0  0  0  0  0  0  0  0  0  0  0  0
   38.1960   27.2890   43.4520 C   0  0  0  0  0  0  0  0  0  0  0  0
   38.7260   26.8500   44.2800 H   0  0  0  0  0  0  0  0  0  0  0  0
   37.7390   26.5590   42.3750 C   0  0  0  0  0  0  0  0  0  0  0  0
   38.0370   24.8330   42.3540 Cl  0  0  0  0  0  0  0  0  0  0  0  0
  1  7  1  0  0  0  0
  1  4  1  0  0  0  0
  2  1  1  0  0  0  0
  2 21  1  0  0  0  0
  3  2  2  0  0  0  0
  5  8  1  6  0  0  0
  5  6  1  0  0  0  0
  5 13  1  0  0  0  0
  6 10  1  0  0  0  0
  7 11  1  6  0  0  0
  7  5  1  0  0  0  0
  7  6  1  0  0  0  0
  9  6  1  0  0  0  0
 12 18  1  0  0  0  0
 12 17  1  0  0  0  0
 13 12  2  0  0  0  0
 14 13  1  0  0  0  0
 14 15  2  0  0  0  0
 15 16  1  0  0  0  0
 16 17  2  0  0  0  0
 16 20  1  0  0  0  0
 19 14  1  0  0  0  0
 21 24  1  1  0  0  0
 21 23  1  0  0  0  0
 22 26  1  0  0  0  0
 22 21  1  0  0  0  0
 22 23  1  0  0  0  0
 23 27  1  1  0  0  0
 23 28  1  0  0  0  0
 25 22  1  0  0  0  0
 28 29  2  0  0  0  0
 28 32  1  0  0  0  0
 30 31  1  0  0  0  0
 31 39  1  0  0  0  0
 32 31  2  0  0  0  0
 32 33  1  0  0  0  0
 33 35  2  0  0  0  0
 34 33  1  0  0  0  0
 35 37  1  0  0  0  0
 35 36  1  0  0  0  0
 37 38  1  0  0  0  0
 39 37  2  0  0  0  0
 40 39  1  0  0  0  0
M  END
>  <minimizedAffinity>
-5.44000959

$$$$

 OpenBabel03242510243D

 40 43  0  0  1  0  0  0  0  0999 V2000
   40.1040   31.4570   38.4790 N   0  0  0  0  0  0  0  0  0  0  0  0
   38.7820   31.5310   38.9110 C   0  0  0  0  0  0  0  0  0  0  0  0
   38.0130   32.5220   39.0300 O   0  0  0  0  0  0  0  0  0  0  0  0
   40.6720   30.8080   39.0650 H   0  0  0  0  0  0  0  0  0  0  0  0
   41.8470   32.9560   37.5810 C   0  0  1  0  0  0  0  0  0  0  0  0
   42.0190   31.7340   36.9280 C   0  0  0  0  0  0  0  0  0  0  0  0
   40.5960   32.1910   37.3680 C   0  0  1  0  0  0  0  0  0  0  0  0
   41.9640   33.9500   37.0670 H   0  0  0  0  0  0  0  0  0  0  0  0
   42.2170   31.7420   35.8110 H   0  0  0  0  0  0  0  0  0  0  0  0
   42.3860   30.7830   37.3540 H   0  0  0  0  0  0  0  0  0  0  0  0
   39.9490   32.3220   36.4730 H   0  0  0  0  0  0  0  0  0  0  0  0
   43.2310   32.1410   39.6270 C   0  0  0  0  0  0  0  0  0  0  0  0
   42.3150   33.0740   39.0370 C   0  0  0  0  0  0  0  0  0  0  0  0
   41.8400   34.0920   39.8400 C   0  0  0  0  0  0  0  0  0  0  0  0
   42.2510   34.1610   41.1250 N   0  0  0  0  0  0  0  0  0  0  0  0
   43.1170   33.2710   41.6690 C   0  0  0  0  0  0  0  0  0  0  0  0
   43.6210   32.2260   40.8840 N   0  0  0  0  0  0  0  0  0  0  0  0
   43.6200   31.3620   39.0020 H   0  0  0  0  0  0  0  0  0  0  0  0
   41.1520   34.8240   39.4570 H   0  0  0  0  0  0  0  0  0  0  0  0
   43.4460   33.3280   42.7000 H   0  0  0  0  0  0  0  0  0  0  0  0
   38.0630   30.2610   39.3270 C   0  0  2  0  0  0  0  0  0  0  0  0
   37.2890   29.4980   38.1900 C   0  0  0  0  0  0  0  0  0  0  0  0
   36.5960   30.1820   39.3220 C   0  0  1  0  0  0  0  0  0  0  0  0
   38.6300   29.5250   39.9290 H   0  0  0  0  0  0  0  0  0  0  0  0
   37.3120   30.0320   37.2100 H   0  0  0  0  0  0  0  0  0  0  0  0
   37.2850   28.4140   38.2100 H   0  0  0  0  0  0  0  0  0  0  0  0
   36.0490   31.1350   39.1710 H   0  0  0  0  0  0  0  0  0  0  0  0
   35.9460   29.3120   40.3750 C   0  0  0  0  0  0  0  0  0  0  0  0
   34.7350   29.1390   40.3450 O   0  0  0  0  0  0  0  0  0  0  0  0
   36.4750   26.4310   39.8390 Cl  0  0  0  0  0  0  0  0  0  0  0  0
   37.0070   27.3320   41.2550 C   0  0  0  0  0  0  0  0  0  0  0  0
   36.7200   28.6680   41.4290 C   0  0  0  0  0  0  0  0  0  0  0  0
   37.1950   29.2530   42.5810 C   0  0  0  0  0  0  0  0  0  0  0  0
   36.9710   30.2990   42.7160 H   0  0  0  0  0  0  0  0  0  0  0  0
   37.9210   28.5470   43.5160 C   0  0  0  0  0  0  0  0  0  0  0  0
   38.2500   29.1180   44.3980 H   0  0  0  0  0  0  0  0  0  0  0  0
   38.2130   27.2100   43.3480 C   0  0  0  0  0  0  0  0  0  0  0  0
   38.7820   26.6900   44.0980 H   0  0  0  0  0  0  0  0  0  0  0  0
   37.7450   26.6050   42.2000 C   0  0  0  0  0  0  0  0  0  0  0  0
   38.0950   24.9070   41.9530 Cl  0  0  0  0  0  0  0  0  0  0  0  0
  1  2  1  0  0  0  0
  1  4  1  0  0  0  0
  2  3  2  0  0  0  0
  2 21  1  0  0  0  0
  5  8  1  6  0  0  0
  5 13  1  0  0  0  0
  6 10  1  0  0  0  0
  6  7  1  0  0  0  0
  6  5  1  0  0  0  0
  7 11  1  6  0  0  0
  7  5  1  0  0  0  0
  7  1  1  0  0  0  0
  9  6  1  0  0  0  0
 12 17  1  0  0  0  0
 13 12  2  0  0  0  0
 13 14  1  0  0  0  0
 14 15  2  0  0  0  0
 15 16  1  0  0  0  0
 16 20  1  0  0  0  0
 17 16  2  0  0  0  0
 18 12  1  0  0  0  0
 19 14  1  0  0  0  0
 21 24  1  1  0  0  0
 22 26  1  0  0  0  0
 22 23  1  0  0  0  0
 22 21  1  0  0  0  0
 23 27  1  6  0  0  0
 23 21  1  0  0  0  0
 23 28  1  0  0  0  0
 25 22  1  0  0  0  0
 28 32  1  0  0  0  0
 29 28  2  0  0  0  0
 30 31  1  0  0  0  0
 31 32  2  0  0  0  0
 31 39  1  0  0  0  0
 32 33  1  0  0  0  0
 33 34  1  0  0  0  0
 33 35  2  0  0  0  0
 35 36  1  0  0  0  0
 37 35  1  0  0  0  0
 37 38  1  0  0  0  0
 39 37  2  0  0  0  0
 40 39  1  0  0  0  0
M  END
>  <minimizedAffinity>
-5.36306095

$$$$

 OpenBabel03242510243D

 40 43  0  0  1  0  0  0  0  0999 V2000
   37.8900   30.4350   40.4690 N   0  0  0  0  0  0  0  0  0  0  0  0
   37.6860   29.4930   41.4740 C   0  0  0  0  0  0  0  0  0  0  0  0
   37.3180   29.6370   42.6690 O   0  0  0  0  0  0  0  0  0  0  0  0
   38.7500   30.2350   39.9130 H   0  0  0  0  0  0  0  0  0  0  0  0
   37.6220   32.7580   39.6780 C   0  0  1  0  0  0  0  0  0  0  0  0
   36.9520   31.9580   38.7510 C   0  0  0  0  0  0  0  0  0  0  0  0
   37.0160   31.5320   40.2480 C   0  0  1  0  0  0  0  0  0  0  0  0
   37.2370   33.7580   40.0210 H   0  0  0  0  0  0  0  0  0  0  0  0
   35.9360   32.2990   38.3790 H   0  0  0  0  0  0  0  0  0  0  0  0
   37.3890   31.2560   38.0190 H   0  0  0  0  0  0  0  0  0  0  0  0
   35.9910   31.5040   40.6770 H   0  0  0  0  0  0  0  0  0  0  0  0
   39.9030   32.3170   38.5090 C   0  0  0  0  0  0  0  0  0  0  0  0
   39.1550   32.7860   39.6390 C   0  0  0  0  0  0  0  0  0  0  0  0
   39.8700   33.2550   40.7230 C   0  0  0  0  0  0  0  0  0  0  0  0
   41.2200   33.2490   40.6720 N   0  0  0  0  0  0  0  0  0  0  0  0
   41.9140   32.8010   39.5970 C   0  0  0  0  0  0  0  0  0  0  0  0
   41.2220   32.3200   38.4780 N   0  0  0  0  0  0  0  0  0  0  0  0
   39.3530   31.9730   37.6560 H   0  0  0  0  0  0  0  0  0  0  0  0
   39.3680   33.6210   41.6020 H   0  0  0  0  0  0  0  0  0  0  0  0
   42.9970   32.7980   39.5570 H   0  0  0  0  0  0  0  0  0  0  0  0
   37.9180   28.0230   41.1740 C   0  0  2  0  0  0  0  0  0  0  0  0
   36.7210   27.2550   40.5020 C   0  0  0  0  0  0  0  0  0  0  0  0
   37.1830   26.9750   41.8940 C   0  0  1  0  0  0  0  0  0  0  0  0
   38.8560   27.7480   40.6530 H   0  0  0  0  0  0  0  0  0  0  0  0
   35.8070   27.8840   40.3860 H   0  0  0  0  0  0  0  0  0  0  0  0
   36.9480   26.4980   39.7600 H   0  0  0  0  0  0  0  0  0  0  0  0
   36.5900   27.3010   42.7730 H   0  0  0  0  0  0  0  0  0  0  0  0
   37.9050   25.6700   42.1450 C   0  0  0  0  0  0  0  0  0  0  0  0
   37.2680   24.6250   42.1540 O   0  0  0  0  0  0  0  0  0  0  0  0
   39.4590   25.0290   39.6880 Cl  0  0  0  0  0  0  0  0  0  0  0  0
   40.1330   25.3250   41.2880 C   0  0  0  0  0  0  0  0  0  0  0  0
   39.3430   25.6170   42.3780 C   0  0  0  0  0  0  0  0  0  0  0  0
   39.9960   25.8260   43.5710 C   0  0  0  0  0  0  0  0  0  0  0  0
   39.3770   26.0550   44.4230 H   0  0  0  0  0  0  0  0  0  0  0  0
   41.3680   25.7510   43.6790 C   0  0  0  0  0  0  0  0  0  0  0  0
   41.7800   25.9370   44.6820 H   0  0  0  0  0  0  0  0  0  0  0  0
   42.1650   25.4600   42.5910 C   0  0  0  0  0  0  0  0  0  0  0  0
   43.2330   25.4100   42.7120 H   0  0  0  0  0  0  0  0  0  0  0  0
   41.5290   25.2460   41.3870 C   0  0  0  0  0  0  0  0  0  0  0  0
   42.5110   24.8740   39.9840 Cl  0  0  0  0  0  0  0  0  0  0  0  0
  1  2  1  0  0  0  0
  2  3  2  0  0  0  0
  4  1  1  0  0  0  0
  5  8  1  1  0  0  0
  5  7  1  0  0  0  0
  6  5  1  0  0  0  0
  6  7  1  0  0  0  0
  7  1  1  0  0  0  0
  7 11  1  1  0  0  0
  9  6  1  0  0  0  0
 10  6  1  0  0  0  0
 12 13  1  0  0  0  0
 13  5  1  0  0  0  0
 13 14  2  0  0  0  0
 14 19  1  0  0  0  0
 15 14  1  0  0  0  0
 16 15  2  0  0  0  0
 17 12  2  0  0  0  0
 17 16  1  0  0  0  0
 18 12  1  0  0  0  0
 20 16  1  0  0  0  0
 21 24  1  6  0  0  0
 21  2  1  0  0  0  0
 21 23  1  0  0  0  0
 22 21  1  0  0  0  0
 22 23  1  0  0  0  0
 23 28  1  0  0  0  0
 23 27  1  1  0  0  0
 25 22  1  0  0  0  0
 26 22  1  0  0  0  0
 28 29  2  0  0  0  0
 28 32  1  0  0  0  0
 30 31  1  0  0  0  0
 31 39  2  0  0  0  0
 31 32  1  0  0  0  0
 32 33  2  0  0  0  0
 33 35  1  0  0  0  0
 33 34  1  0  0  0  0
 35 36  1  0  0  0  0
 37 38  1  0  0  0  0
 37 35  2  0  0  0  0
 39 37  1  0  0  0  0
 40 39  1  0  0  0  0
M  END
>  <minimizedAffinity>
-5.32450008

$$$$

 OpenBabel03242510243D

 40 43  0  0  1  0  0  0  0  0999 V2000
   39.6180   31.4350   39.1150 N   0  0  0  0  0  0  0  0  0  0  0  0
   40.8520   31.5500   39.7500 C   0  0  0  0  0  0  0  0  0  0  0  0
   41.7670   32.4040   39.6140 O   0  0  0  0  0  0  0  0  0  0  0  0
   39.3990   30.4460   38.8610 H   0  0  0  0  0  0  0  0  0  0  0  0
   37.3160   32.2940   38.8790 C   0  0  1  0  0  0  0  0  0  0  0  0
   37.8230   32.8730   40.0430 C   0  0  0  0  0  0  0  0  0  0  0  0
   38.7760   32.5470   38.8540 C   0  0  1  0  0  0  0  0  0  0  0  0
   36.6610   32.8470   38.1510 H   0  0  0  0  0  0  0  0  0  0  0  0
   37.6250   33.9750   40.2290 H   0  0  0  0  0  0  0  0  0  0  0  0
   38.0480   32.3790   41.0050 H   0  0  0  0  0  0  0  0  0  0  0  0
   39.2220   33.4860   38.4600 H   0  0  0  0  0  0  0  0  0  0  0  0
   36.6500   30.0540   37.7360 C   0  0  0  0  0  0  0  0  0  0  0  0
   36.8970   30.8180   38.9250 C   0  0  0  0  0  0  0  0  0  0  0  0
   36.7250   30.1810   40.1370 C   0  0  0  0  0  0  0  0  0  0  0  0
   36.3350   28.8880   40.1500 N   0  0  0  0  0  0  0  0  0  0  0  0
   36.1040   28.1780   39.0180 C   0  0  0  0  0  0  0  0  0  0  0  0
   36.2700   28.7910   37.7690 N   0  0  0  0  0  0  0  0  0  0  0  0
   36.8040   30.5380   36.7920 H   0  0  0  0  0  0  0  0  0  0  0  0
   36.8950   30.6990   41.0640 H   0  0  0  0  0  0  0  0  0  0  0  0
   35.7920   27.1400   39.0300 H   0  0  0  0  0  0  0  0  0  0  0  0
   41.2490   30.5250   40.7970 C   0  0  2  0  0  0  0  0  0  0  0  0
   42.1300   29.3230   40.2930 C   0  0  0  0  0  0  0  0  0  0  0  0
   40.7210   29.1540   40.7580 C   0  0  1  0  0  0  0  0  0  0  0  0
   41.6700   30.9020   41.7490 H   0  0  0  0  0  0  0  0  0  0  0  0
   42.3050   29.3400   39.1910 H   0  0  0  0  0  0  0  0  0  0  0  0
   42.9010   28.9400   40.9520 H   0  0  0  0  0  0  0  0  0  0  0  0
   39.8980   28.9610   40.0390 H   0  0  0  0  0  0  0  0  0  0  0  0
   40.4970   28.4590   42.0820 C   0  0  0  0  0  0  0  0  0  0  0  0
   41.4580   28.2060   42.7950 O   0  0  0  0  0  0  0  0  0  0  0  0
   39.6950   25.7310   41.2000 Cl  0  0  0  0  0  0  0  0  0  0  0  0
   38.7210   26.8300   42.1710 C   0  0  0  0  0  0  0  0  0  0  0  0
   39.1650   28.0810   42.5390 C   0  0  0  0  0  0  0  0  0  0  0  0
   38.3050   28.8400   43.2980 C   0  0  0  0  0  0  0  0  0  0  0  0
   38.6540   29.8180   43.5860 H   0  0  0  0  0  0  0  0  0  0  0  0
   37.0610   28.3810   43.6760 C   0  0  0  0  0  0  0  0  0  0  0  0
   36.4590   29.0740   44.2820 H   0  0  0  0  0  0  0  0  0  0  0  0
   36.6090   27.1300   43.3120 C   0  0  0  0  0  0  0  0  0  0  0  0
   35.6330   26.8040   43.6240 H   0  0  0  0  0  0  0  0  0  0  0  0
   37.4570   26.3540   42.5490 C   0  0  0  0  0  0  0  0  0  0  0  0
   36.9160   24.7590   42.0680 Cl  0  0  0  0  0  0  0  0  0  0  0  0
  1  2  1  0  0  0  0
  2 21  1  0  0  0  0
  3  2  2  0  0  0  0
  4  1  1  0  0  0  0
  5  8  1  6  0  0  0
  5 13  1  0  0  0  0
  5  6  1  0  0  0  0
  6  9  1  0  0  0  0
  6 10  1  0  0  0  0
  7 11  1  6  0  0  0
  7  5  1  0  0  0  0
  7  1  1  0  0  0  0
  7  6  1  0  0  0  0
 12 17  2  0  0  0  0
 12 13  1  0  0  0  0
 13 14  2  0  0  0  0
 14 15  1  0  0  0  0
 14 19  1  0  0  0  0
 16 20  1  0  0  0  0
 16 15  2  0  0  0  0
 17 16  1  0  0  0  0
 18 12  1  0  0  0  0
 21 24  1  1  0  0  0
 22 23  1  0  0  0  0
 22 21  1  0  0  0  0
 22 26  1  0  0  0  0
 23 27  1  6  0  0  0
 23 21  1  0  0  0  0
 23 28  1  0  0  0  0
 25 22  1  0  0  0  0
 28 32  1  0  0  0  0
 28 29  2  0  0  0  0
 30 31  1  0  0  0  0
 31 32  2  0  0  0  0
 31 39  1  0  0  0  0
 32 33  1  0  0  0  0
 33 34  1  0  0  0  0
 33 35  2  0  0  0  0
 35 36  1  0  0  0  0
 37 38  1  0  0  0  0
 37 35  1  0  0  0  0
 39 37  2  0  0  0  0
 40 39  1  0  0  0  0
M  END
>  <minimizedAffinity>
-5.28923845

$$$$

 OpenBabel03242510243D

 40 43  0  0  1  0  0  0  0  0999 V2000
   40.3400   31.6810   40.9760 N   0  0  0  0  0  0  0  0  0  0  0  0
   41.3530   31.4680   41.9080 C   0  0  0  0  0  0  0  0  0  0  0  0
   42.2180   32.2550   42.3720 O   0  0  0  0  0  0  0  0  0  0  0  0
   40.2550   30.8890   40.3020 H   0  0  0  0  0  0  0  0  0  0  0  0
   39.7350   33.7830   39.8320 C   0  0  1  0  0  0  0  0  0  0  0  0
   38.6280   32.9420   39.7000 C   0  0  0  0  0  0  0  0  0  0  0  0
   39.5330   32.8490   40.9650 C   0  0  1  0  0  0  0  0  0  0  0  0
   39.6490   34.8880   40.0240 H   0  0  0  0  0  0  0  0  0  0  0  0
   37.5940   33.3810   39.8650 H   0  0  0  0  0  0  0  0  0  0  0  0
   38.5390   32.0270   39.0880 H   0  0  0  0  0  0  0  0  0  0  0  0
   38.9440   33.1110   41.8700 H   0  0  0  0  0  0  0  0  0  0  0  0
   40.9140   32.6410   37.8140 C   0  0  0  0  0  0  0  0  0  0  0  0
   40.9630   33.5090   38.9550 C   0  0  0  0  0  0  0  0  0  0  0  0
   42.1780   34.0890   39.2600 C   0  0  0  0  0  0  0  0  0  0  0  0
   43.2500   33.8140   38.4840 N   0  0  0  0  0  0  0  0  0  0  0  0
   43.1880   32.9910   37.4090 C   0  0  0  0  0  0  0  0  0  0  0  0
   41.9710   32.3850   37.0680 N   0  0  0  0  0  0  0  0  0  0  0  0
   39.9670   32.2060   37.5600 H   0  0  0  0  0  0  0  0  0  0  0  0
   42.2810   34.7500   40.1020 H   0  0  0  0  0  0  0  0  0  0  0  0
   44.0480   32.7720   36.7870 H   0  0  0  0  0  0  0  0  0  0  0  0
   41.5170   30.0910   42.5250 C   0  0  2  0  0  0  0  0  0  0  0  0
   42.3600   29.0540   41.6960 C   0  0  0  0  0  0  0  0  0  0  0  0
   40.8920   28.9070   41.9220 C   0  0  1  0  0  0  0  0  0  0  0  0
   41.8320   30.0400   43.5860 H   0  0  0  0  0  0  0  0  0  0  0  0
   42.6860   29.4490   40.7040 H   0  0  0  0  0  0  0  0  0  0  0  0
   43.0000   28.3640   42.2340 H   0  0  0  0  0  0  0  0  0  0  0  0
   40.1630   29.0940   41.1070 H   0  0  0  0  0  0  0  0  0  0  0  0
   40.4330   27.8120   42.8580 C   0  0  0  0  0  0  0  0  0  0  0  0
   41.2560   27.2380   43.5580 O   0  0  0  0  0  0  0  0  0  0  0  0
   39.8120   25.3400   41.3200 Cl  0  0  0  0  0  0  0  0  0  0  0  0
   38.6650   26.2800   42.2690 C   0  0  0  0  0  0  0  0  0  0  0  0
   39.0330   27.4170   42.9550 C   0  0  0  0  0  0  0  0  0  0  0  0
   38.0390   28.0590   43.6570 C   0  0  0  0  0  0  0  0  0  0  0  0
   38.3280   28.9480   44.1940 H   0  0  0  0  0  0  0  0  0  0  0  0
   36.7400   27.5960   43.6800 C   0  0  0  0  0  0  0  0  0  0  0  0
   36.0310   28.1890   44.2750 H   0  0  0  0  0  0  0  0  0  0  0  0
   36.3660   26.4570   42.9960 C   0  0  0  0  0  0  0  0  0  0  0  0
   35.3430   26.1250   43.0360 H   0  0  0  0  0  0  0  0  0  0  0  0
   37.3480   25.8000   42.2850 C   0  0  0  0  0  0  0  0  0  0  0  0
   36.9070   24.3520   41.4040 Cl  0  0  0  0  0  0  0  0  0  0  0  0
  1  2  1  0  0  0  0
  2  3  2  0  0  0  0
  2 21  1  0  0  0  0
  4  1  1  0  0  0  0
  5  8  1  1  0  0  0
  5  7  1  0  0  0  0
  6  5  1  0  0  0  0
  6  9  1  0  0  0  0
  6  7  1  0  0  0  0
  7  1  1  0  0  0  0
  7 11  1  1  0  0  0
 10  6  1  0  0  0  0
 12 13  1  0  0  0  0
 13 14  2  0  0  0  0
 13  5  1  0  0  0  0
 14 19  1  0  0  0  0
 15 14  1  0  0  0  0
 16 15  2  0  0  0  0
 17 16  1  0  0  0  0
 17 12  2  0  0  0  0
 18 12  1  0  0  0  0
 20 16  1  0  0  0  0
 21 24  1  1  0  0  0
 22 23  1  0  0  0  0
 22 26  1  0  0  0  0
 22 21  1  0  0  0  0
 23 27  1  6  0  0  0
 23 21  1  0  0  0  0
 23 28  1  0  0  0  0
 25 22  1  0  0  0  0
 28 32  1  0  0  0  0
 28 29  2  0  0  0  0
 30 31  1  0  0  0  0
 31 39  2  0  0  0  0
 31 32  1  0  0  0  0
 32 33  2  0  0  0  0
 33 35  1  0  0  0  0
 33 34  1  0  0  0  0
 35 36  1  0  0  0  0
 37 38  1  0  0  0  0
 37 35  2  0  0  0  0
 39 37  1  0  0  0  0
 40 39  1  0  0  0  0
M  END
>  <minimizedAffinity>
-5.26727676

$$$$
