
 OpenBabel03242510223D

 40 43  0  0  1  0  0  0  0  0999 V2000
   48.0420   33.1010   43.2200 N   0  0  0  0  0  0  0  0  0  0  0  0
   49.1820   33.0760   42.4210 C   0  0  0  0  0  0  0  0  0  0  0  0
   50.2890   32.5000   42.5910 O   0  0  0  0  0  0  0  0  0  0  0  0
   47.6170   34.0530   43.2680 H   0  0  0  0  0  0  0  0  0  0  0  0
   46.1180   32.0010   44.3080 C   0  0  1  0  0  0  0  0  0  0  0  0
   46.3440   31.2960   43.1260 C   0  0  0  0  0  0  0  0  0  0  0  0
   47.5370   31.9510   43.8830 C   0  0  1  0  0  0  0  0  0  0  0  0
   45.8290   31.5050   45.2760 H   0  0  0  0  0  0  0  0  0  0  0  0
   46.3030   30.1620   43.1570 H   0  0  0  0  0  0  0  0  0  0  0  0
   46.1710   31.6350   42.0890 H   0  0  0  0  0  0  0  0  0  0  0  0
   48.2450   31.1650   44.2230 H   0  0  0  0  0  0  0  0  0  0  0  0
   44.9070   33.8880   42.9890 C   0  0  0  0  0  0  0  0  0  0  0  0
   45.4440   33.3760   44.2170 C   0  0  0  0  0  0  0  0  0  0  0  0
   45.3540   34.1820   45.3340 C   0  0  0  0  0  0  0  0  0  0  0  0
   44.7750   35.3980   45.2220 N   0  0  0  0  0  0  0  0  0  0  0  0
   44.2720   35.8680   44.0540 C   0  0  0  0  0  0  0  0  0  0  0  0
   44.3450   35.0780   42.9000 N   0  0  0  0  0  0  0  0  0  0  0  0
   44.9550   33.2570   42.1240 H   0  0  0  0  0  0  0  0  0  0  0  0
   45.7370   33.8560   46.2850 H   0  0  0  0  0  0  0  0  0  0  0  0
   43.8070   36.8430   43.9660 H   0  0  0  0  0  0  0  0  0  0  0  0
   49.1870   33.8370   41.1090 C   0  0  2  0  0  0  0  0  0  0  0  0
   48.5410   35.2710   41.1340 C   0  0  0  0  0  0  0  0  0  0  0  0
   47.9380   34.1250   40.3910 C   0  0  1  0  0  0  0  0  0  0  0  0
   50.1410   33.8860   40.5480 H   0  0  0  0  0  0  0  0  0  0  0  0
   48.0920   35.5310   42.1220 H   0  0  0  0  0  0  0  0  0  0  0  0
   48.9930   36.0490   40.5300 H   0  0  0  0  0  0  0  0  0  0  0  0
   47.0260   33.6150   40.7630 H   0  0  0  0  0  0  0  0  0  0  0  0
   47.9980   34.1590   38.8800 C   0  0  0  0  0  0  0  0  0  0  0  0
   48.6470   35.0350   38.3260 O   0  0  0  0  0  0  0  0  0  0  0  0
   49.7870   31.9900   37.9020 Cl  0  0  0  0  0  0  0  0  0  0  0  0
   48.0650   32.1360   37.5670 C   0  0  0  0  0  0  0  0  0  0  0  0
   47.3040   33.1740   38.0590 C   0  0  0  0  0  0  0  0  0  0  0  0
   45.9700   33.1700   37.7230 C   0  0  0  0  0  0  0  0  0  0  0  0
   45.3750   33.9820   38.1080 H   0  0  0  0  0  0  0  0  0  0  0  0
   45.4150   32.1840   36.9350 C   0  0  0  0  0  0  0  0  0  0  0  0
   44.3380   32.2850   36.7310 H   0  0  0  0  0  0  0  0  0  0  0  0
   46.1710   31.1430   36.4400 C   0  0  0  0  0  0  0  0  0  0  0  0
   45.7050   30.3900   35.8280 H   0  0  0  0  0  0  0  0  0  0  0  0
   47.5110   31.1290   36.7660 C   0  0  0  0  0  0  0  0  0  0  0  0
   48.5010   29.8200   36.1530 Cl  0  0  0  0  0  0  0  0  0  0  0  0
  1  4  1  0  0  0  0
  1  7  1  0  0  0  0
  2  3  2  0  0  0  0
  2  1  1  0  0  0  0
  5  8  1  1  0  0  0
  6  9  1  0  0  0  0
  6  7  1  0  0  0  0
  6  5  1  0  0  0  0
  7 11  1  1  0  0  0
  7  5  1  0  0  0  0
 10  6  1  0  0  0  0
 12 13  1  0  0  0  0
 13  5  1  0  0  0  0
 13 14  2  0  0  0  0
 14 19  1  0  0  0  0
 15 14  1  0  0  0  0
 16 15  2  0  0  0  0
 17 12  2  0  0  0  0
 17 16  1  0  0  0  0
 18 12  1  0  0  0  0
 20 16  1  0  0  0  0
 21 24  1  6  0  0  0
 21 22  1  0  0  0  0
 21  2  1  0  0  0  0
 22 25  1  0  0  0  0
 23 27  1  1  0  0  0
 23 21  1  0  0  0  0
 23 22  1  0  0  0  0
 26 22  1  0  0  0  0
 28 23  1  0  0  0  0
 29 28  2  0  0  0  0
 31 30  1  0  0  0  0
 31 32  1  0  0  0  0
 32 28  1  0  0  0  0
 33 32  2  0  0  0  0
 33 34  1  0  0  0  0
 35 33  1  0  0  0  0
 36 35  1  0  0  0  0
 37 39  1  0  0  0  0
 37 35  2  0  0  0  0
 38 37  1  0  0  0  0
 39 31  2  0  0  0  0
 40 39  1  0  0  0  0
M  END
>  <minimizedAffinity>
-4.86765289

>  <minimizedRMSD>
1.11170042

$$$$
