
 OpenBabel03242521173D

 40 42  0  0  0  0  0  0  0  0999 V2000
   46.4900   32.6890   46.5440 C   0  0  0  0  0  0  0  0  0  0  0  0
   47.3880   33.1720   47.0160 H   0  0  0  0  0  0  0  0  0  0  0  0
   46.8770   31.8170   45.9930 H   0  0  0  0  0  0  0  0  0  0  0  0
   44.5700   35.4980   44.9820 C   0  0  0  0  0  0  0  0  0  0  0  0
   45.1410   35.5100   43.6910 C   0  0  0  0  0  0  0  0  0  0  0  0
   46.1270   34.5740   43.4410 C   0  0  0  0  0  0  0  0  0  0  0  0
   46.5060   33.6890   44.4370 N   0  0  0  0  0  0  0  0  0  0  0  0
   45.9160   33.7350   45.6520 C   0  0  0  0  0  0  0  0  0  0  0  0
   44.9460   34.6320   45.9420 N   0  0  0  0  0  0  0  0  0  0  0  0
   43.7950   36.2140   45.2190 H   0  0  0  0  0  0  0  0  0  0  0  0
   44.8270   36.2030   42.9500 H   0  0  0  0  0  0  0  0  0  0  0  0
   46.7230   34.5600   42.1480 N   0  0  0  0  0  0  0  0  0  0  0  0
   47.9240   35.1630   41.9900 C   0  0  0  0  0  0  0  0  0  0  0  0
   48.5140   35.1540   40.7330 C   0  0  0  0  0  0  0  0  0  0  0  0
   47.8630   34.5400   39.7090 C   0  0  0  0  0  0  0  0  0  0  0  0
   48.4260   34.5470   38.5670 O   0  0  0  0  0  0  0  0  0  0  0  0
   46.6750   33.9430   39.8600 N   0  0  0  0  0  0  0  0  0  0  0  0
   46.1380   33.9760   41.1010 C   0  0  0  0  0  0  0  0  0  0  0  0
   45.0300   33.4440   41.3390 O   0  0  0  0  0  0  0  0  0  0  0  0
   48.4500   35.6530   42.8020 H   0  0  0  0  0  0  0  0  0  0  0  0
   49.4680   35.6230   40.5730 H   0  0  0  0  0  0  0  0  0  0  0  0
   46.1620   33.4700   39.0900 H   0  0  0  0  0  0  0  0  0  0  0  0
   45.5140   32.3270   47.6440 C   0  0  0  0  0  0  0  0  0  0  0  0
   46.0240   32.2410   48.6020 H   0  0  0  0  0  0  0  0  0  0  0  0
   44.7090   33.1170   47.6790 H   0  0  0  0  0  0  0  0  0  0  0  0
   45.5220   29.8950   47.4820 C   0  0  0  0  0  0  0  0  0  0  0  0
   46.7120   29.9390   47.8540 O   0  0  0  0  0  0  0  0  0  0  0  0
   44.8470   31.1010   47.2810 N   0  0  0  0  0  0  0  0  0  0  0  0
   43.8870   31.0910   46.8760 H   0  0  0  0  0  0  0  0  0  0  0  0
   44.7200   29.4240   44.6690 Cl  0  0  0  0  0  0  0  0  0  0  0  0
   44.5100   28.2750   45.9870 C   0  0  0  0  0  0  0  0  0  0  0  0
   44.9180   28.5810   47.2840 C   0  0  0  0  0  0  0  0  0  0  0  0
   44.7340   27.6530   48.2860 C   0  0  0  0  0  0  0  0  0  0  0  0
   45.0540   27.9030   49.2870 H   0  0  0  0  0  0  0  0  0  0  0  0
   44.1510   26.4510   47.9580 C   0  0  0  0  0  0  0  0  0  0  0  0
   44.0240   25.7430   48.7840 H   0  0  0  0  0  0  0  0  0  0  0  0
   43.7270   26.0880   46.6970 C   0  0  0  0  0  0  0  0  0  0  0  0
   43.2710   25.1290   46.4820 H   0  0  0  0  0  0  0  0  0  0  0  0
   43.9290   27.0540   45.7070 C   0  0  0  0  0  0  0  0  0  0  0  0
   43.4240   26.6960   44.0570 Cl  0  0  0  0  0  0  0  0  0  0  0  0
  1  2  1  0  0  0  0
  1 23  1  0  0  0  0
  3  1  1  0  0  0  0
  4 10  1  0  0  0  0
  4  9  1  0  0  0  0
  5  4  2  0  0  0  0
  6  5  1  0  0  0  0
  6  7  2  0  0  0  0
  7  8  1  0  0  0  0
  8  9  2  0  0  0  0
  8  1  1  0  0  0  0
 11  5  1  0  0  0  0
 12  6  1  0  0  0  0
 13 12  1  0  0  0  0
 13 20  1  0  0  0  0
 14 13  2  0  0  0  0
 15 17  1  0  0  0  0
 15 14  1  0  0  0  0
 16 15  2  0  0  0  0
 17 18  1  0  0  0  0
 18 19  2  0  0  0  0
 18 12  1  0  0  0  0
 21 14  1  0  0  0  0
 22 17  1  0  0  0  0
 23 25  1  0  0  0  0
 23 24  1  0  0  0  0
 26 27  2  0  0  0  0
 28 26  1  0  0  0  0
 28 23  1  0  0  0  0
 29 28  1  0  0  0  0
 30 31  1  0  0  0  0
 31 32  1  0  0  0  0
 32 26  1  0  0  0  0
 32 33  2  0  0  0  0
 33 34  1  0  0  0  0
 35 33  1  0  0  0  0
 35 36  1  0  0  0  0
 37 35  2  0  0  0  0
 38 37  1  0  0  0  0
 39 31  2  0  0  0  0
 39 37  1  0  0  0  0
 40 39  1  0  0  0  0
M  END
>  <minimizedAffinity>
-6.53039312

>  <minimizedRMSD>
1.61065447

$$$$
