
 OpenBabel03242517433D

 21 22  0  0  0  0  0  0  0  0999 V2000
   40.6400   36.2800   40.9370 Cl  0  0  0  0  0  0  0  0  0  0  0  0
   41.1010   34.6110   40.6460 C   0  0  0  0  0  0  0  0  0  0  0  0
   42.3940   34.1530   40.8210 C   0  0  0  0  0  0  0  0  0  0  0  0
   42.6720   32.8100   40.5670 C   0  0  0  0  0  0  0  0  0  0  0  0
   43.7090   32.5000   40.7210 H   0  0  0  0  0  0  0  0  0  0  0  0
   41.6770   31.9500   40.1470 C   0  0  0  0  0  0  0  0  0  0  0  0
   41.9630   30.9120   39.9660 H   0  0  0  0  0  0  0  0  0  0  0  0
   40.3780   32.3980   39.9680 C   0  0  0  0  0  0  0  0  0  0  0  0
   39.6390   31.6780   39.6380 H   0  0  0  0  0  0  0  0  0  0  0  0
   40.1170   33.7310   40.2250 C   0  0  0  0  0  0  0  0  0  0  0  0
   38.4490   34.2060   39.9720 Cl  0  0  0  0  0  0  0  0  0  0  0  0
   43.5910   35.3600   41.3660 S   0  0  0  0  0  0  0  0  0  0  0  0
   44.1780   35.8150   44.0470 C   0  0  0  0  0  0  0  0  0  0  0  0
   44.2820   34.9150   42.9550 C   0  0  0  0  0  0  0  0  0  0  0  0
   44.9270   33.7040   43.1640 C   0  0  0  0  0  0  0  0  0  0  0  0
   45.4320   33.4200   44.3920 N   0  0  0  0  0  0  0  0  0  0  0  0
   45.3150   34.3040   45.4130 C   0  0  0  0  0  0  0  0  0  0  0  0
   44.7010   35.4760   45.2450 N   0  0  0  0  0  0  0  0  0  0  0  0
   43.6770   36.7440   43.8640 H   0  0  0  0  0  0  0  0  0  0  0  0
   45.0080   33.0180   42.3370 H   0  0  0  0  0  0  0  0  0  0  0  0
   45.7540   33.9560   46.3210 H   0  0  0  0  0  0  0  0  0  0  0  0
  2  3  1  0  0  0  0
  2  1  1  0  0  0  0
  3 12  1  0  0  0  0
  4  5  1  0  0  0  0
  4  3  2  0  0  0  0
  6  4  1  0  0  0  0
  7  6  1  0  0  0  0
  8  6  2  0  0  0  0
  8 10  1  0  0  0  0
  9  8  1  0  0  0  0
 10  2  2  0  0  0  0
 11 10  1  0  0  0  0
 12 14  1  0  0  0  0
 13 18  1  0  0  0  0
 14 15  1  0  0  0  0
 14 13  2  0  0  0  0
 15 16  2  0  0  0  0
 16 17  1  0  0  0  0
 17 21  1  0  0  0  0
 18 17  2  0  0  0  0
 19 13  1  0  0  0  0
 20 15  1  0  0  0  0
M  END
>  <minimizedAffinity>
-4.41860628

>  <minimizedRMSD>
1.38017917

$$$$
