
 OpenBabel03242510333D

 45 47  0  0  1  0  0  0  0  0999 V2000
   44.3810   33.4300   41.5980 C   0  0  1  0  0  0  0  0  0  0  0  0
   43.7300   34.3870   40.5370 C   0  0  0  0  0  0  0  0  0  0  0  0
   43.3910   33.6310   39.3240 C   0  0  0  0  0  0  0  0  0  0  0  0
   44.7490   33.2230   38.6990 C   0  0  0  0  0  0  0  0  0  0  0  0
   45.4190   32.4390   39.6790 C   0  0  0  0  0  0  0  0  0  0  0  0
   45.6240   32.9830   41.1610 C   0  0  1  0  0  0  0  0  0  0  0  0
   43.6520   32.6140   41.7890 H   0  0  0  0  0  0  0  0  0  0  0  0
   44.4380   35.1990   40.3230 H   0  0  0  0  0  0  0  0  0  0  0  0
   42.7630   34.7430   40.9980 H   0  0  0  0  0  0  0  0  0  0  0  0
   42.9050   34.2870   38.6070 H   0  0  0  0  0  0  0  0  0  0  0  0
   42.8790   32.6710   39.5230 H   0  0  0  0  0  0  0  0  0  0  0  0
   44.4350   32.5320   37.8880 H   0  0  0  0  0  0  0  0  0  0  0  0
   45.2220   34.0910   38.2480 H   0  0  0  0  0  0  0  0  0  0  0  0
   44.5310   31.7480   40.0230 H   0  0  0  0  0  0  0  0  0  0  0  0
   46.0300   31.5830   39.4400 H   0  0  0  0  0  0  0  0  0  0  0  0
   46.0670   32.1020   41.6030 H   0  0  0  0  0  0  0  0  0  0  0  0
   44.6180   36.2500   44.2080 C   0  0  0  0  0  0  0  0  0  0  0  0
   44.3750   35.6430   43.0140 C   0  0  0  0  0  0  0  0  0  0  0  0
   44.5680   34.2600   42.8300 C   0  0  0  0  0  0  0  0  0  0  0  0
   44.9960   33.6000   43.8880 N   0  0  0  0  0  0  0  0  0  0  0  0
   45.2370   34.1770   45.0560 C   0  0  0  0  0  0  0  0  0  0  0  0
   45.0460   35.5240   45.2260 N   0  0  0  0  0  0  0  0  0  0  0  0
   44.4150   37.3230   44.1680 H   0  0  0  0  0  0  0  0  0  0  0  0
   44.0230   36.1370   42.1100 H   0  0  0  0  0  0  0  0  0  0  0  0
   45.5870   33.6490   45.9260 H   0  0  0  0  0  0  0  0  0  0  0  0
   46.5600   34.0470   40.9860 O   0  0  0  0  0  0  0  0  0  0  0  0
   47.7610   33.5030   41.6590 C   0  0  1  0  0  0  0  0  0  0  0  0
   47.1740   32.8400   42.0680 H   0  0  0  0  0  0  0  0  0  0  0  0
   48.2720   34.0470   38.5940 Cl  0  0  0  0  0  0  0  0  0  0  0  0
   48.9710   32.6710   39.4200 C   0  0  0  0  0  0  0  0  0  0  0  0
   48.6570   32.6260   40.7720 C   0  0  0  0  0  0  0  0  0  0  0  0
   49.2810   31.5350   41.4280 C   0  0  0  0  0  0  0  0  0  0  0  0
   49.0910   31.4170   42.5090 H   0  0  0  0  0  0  0  0  0  0  0  0
   50.0990   30.5910   40.8840 C   0  0  0  0  0  0  0  0  0  0  0  0
   50.5230   29.7970   41.4800 H   0  0  0  0  0  0  0  0  0  0  0  0
   50.3450   30.7230   39.5380 C   0  0  0  0  0  0  0  0  0  0  0  0
   50.9780   30.0320   39.0070 H   0  0  0  0  0  0  0  0  0  0  0  0
   49.7900   31.7480   38.8140 C   0  0  0  0  0  0  0  0  0  0  0  0
   50.0230   32.0260   37.1010 Cl  0  0  0  0  0  0  0  0  0  0  0  0
   48.5430   34.5900   41.2490 O   0  0  0  0  0  0  0  0  0  0  0  0
   49.2480   35.4790   41.8900 C   0  0  0  0  0  0  0  0  0  0  0  0
   49.3420   36.6370   41.6110 O   0  0  0  0  0  0  0  0  0  0  0  0
   49.9130   34.9660   42.9800 N   0  0  0  0  0  0  0  0  0  0  0  0
   50.6990   34.7230   43.6340 H   0  0  0  0  0  0  0  0  0  0  0  0
   50.9470   35.1470   42.9700 H   0  0  0  0  0  0  0  0  0  0  0  0
  1  7  1  1  0  0  0
  1 19  1  0  0  0  0
  2  9  1  0  0  0  0
  2  1  1  0  0  0  0
  3 11  1  0  0  0  0
  3  2  1  0  0  0  0
  4  3  1  0  0  0  0
  4  5  1  0  0  0  0
  5 14  1  0  0  0  0
  5  6  1  0  0  0  0
  6  1  1  0  0  0  0
  6 16  1  1  0  0  0
  8  2  1  0  0  0  0
 10  3  1  0  0  0  0
 12  4  1  0  0  0  0
 13  4  1  0  0  0  0
 15  5  1  0  0  0  0
 17 22  1  0  0  0  0
 18 17  2  0  0  0  0
 19 18  1  0  0  0  0
 19 20  2  0  0  0  0
 20 21  1  0  0  0  0
 21 22  2  0  0  0  0
 21 25  1  0  0  0  0
 23 17  1  0  0  0  0
 24 18  1  0  0  0  0
 26  6  1  0  0  0  0
 26 27  1  0  0  0  0
 27 28  1  1  0  0  0
 29 30  1  0  0  0  0
 30 31  1  0  0  0  0
 31 32  2  0  0  0  0
 31 27  1  0  0  0  0
 32 33  1  0  0  0  0
 34 32  1  0  0  0  0
 34 35  1  0  0  0  0
 36 34  2  0  0  0  0
 37 36  1  0  0  0  0
 38 30  2  0  0  0  0
 38 36  1  0  0  0  0
 39 38  1  0  0  0  0
 40 27  1  0  0  0  0
 40 41  1  0  0  0  0
 41 43  1  0  0  0  0
 42 41  2  0  0  0  0
 43 44  1  0  0  0  0
 45 43  1  0  0  0  0
M  END
>  <minimizedAffinity>
-5.35311699

>  <minimizedRMSD>
0.605694294

$$$$
