
 OpenBabel03242519253D

 42 45  0  0  0  0  0  0  0  0999 V2000
   47.8740   33.8790   42.8910 C   0  0  0  0  0  0  0  0  0  0  0  0
   48.5320   35.1040   42.6200 C   0  0  0  0  0  0  0  0  0  0  0  0
   49.8940   35.1100   42.2910 C   0  0  0  0  0  0  0  0  0  0  0  0
   50.5190   33.8880   42.2510 N   0  0  0  0  0  0  0  0  0  0  0  0
   49.8550   32.7190   42.5180 C   0  0  0  0  0  0  0  0  0  0  0  0
   48.5620   32.7200   42.8300 N   0  0  0  0  0  0  0  0  0  0  0  0
   48.1120   36.0810   42.6320 H   0  0  0  0  0  0  0  0  0  0  0  0
   50.4450   35.9920   42.0770 H   0  0  0  0  0  0  0  0  0  0  0  0
   46.4470   33.9790   43.2330 C   0  0  0  0  0  0  0  0  0  0  0  0
   45.7310   34.9970   42.4680 C   0  0  0  0  0  0  0  0  0  0  0  0
   45.2760   36.1620   43.2660 C   0  0  0  0  0  0  0  0  0  0  0  0
   44.4900   35.7750   44.5080 C   0  0  0  0  0  0  0  0  0  0  0  0
   44.9560   34.5010   45.1560 C   0  0  0  0  0  0  0  0  0  0  0  0
   46.3940   34.2110   44.7540 C   0  0  0  0  0  0  0  0  0  0  0  0
   45.9900   32.9570   43.0960 H   0  0  0  0  0  0  0  0  0  0  0  0
   44.8100   34.5520   41.9880 H   0  0  0  0  0  0  0  0  0  0  0  0
   46.3250   35.3640   41.6280 H   0  0  0  0  0  0  0  0  0  0  0  0
   44.5300   36.7170   42.6250 H   0  0  0  0  0  0  0  0  0  0  0  0
   46.0170   36.9020   43.5510 H   0  0  0  0  0  0  0  0  0  0  0  0
   44.5680   36.5870   45.2690 H   0  0  0  0  0  0  0  0  0  0  0  0
   43.3950   35.6740   44.2950 H   0  0  0  0  0  0  0  0  0  0  0  0
   44.9030   34.5430   46.2530 H   0  0  0  0  0  0  0  0  0  0  0  0
   44.3460   33.6350   44.7790 H   0  0  0  0  0  0  0  0  0  0  0  0
   46.9470   35.1510   44.9300 H   0  0  0  0  0  0  0  0  0  0  0  0
   46.7770   33.3350   45.2790 H   0  0  0  0  0  0  0  0  0  0  0  0
   50.6650   31.5140   42.4380 C   0  0  0  0  0  0  0  0  0  0  0  0
   51.5310   31.4140   41.4040 N   0  0  0  0  0  0  0  0  0  0  0  0
   52.1950   30.2450   41.4870 C   0  0  0  0  0  0  0  0  0  0  0  0
   51.7260   29.6110   42.5960 N   0  0  0  0  0  0  0  0  0  0  0  0
   50.8000   30.3830   43.1700 N   0  0  0  0  0  0  0  0  0  0  0  0
   52.9480   29.9110   40.7860 H   0  0  0  0  0  0  0  0  0  0  0  0
   53.7940   29.7710   44.6720 Cl  0  0  0  0  0  0  0  0  0  0  0  0
   53.1260   28.2660   44.0400 C   0  0  0  0  0  0  0  0  0  0  0  0
   52.1570   28.3390   43.0620 C   0  0  0  0  0  0  0  0  0  0  0  0
   51.6100   27.1940   42.5420 C   0  0  0  0  0  0  0  0  0  0  0  0
   50.8510   27.2070   41.7780 H   0  0  0  0  0  0  0  0  0  0  0  0
   52.0460   25.9600   43.0120 C   0  0  0  0  0  0  0  0  0  0  0  0
   51.6040   25.0680   42.5910 H   0  0  0  0  0  0  0  0  0  0  0  0
   53.0290   25.9030   44.0040 C   0  0  0  0  0  0  0  0  0  0  0  0
   53.3630   24.9430   44.3660 H   0  0  0  0  0  0  0  0  0  0  0  0
   53.5720   27.0520   44.5210 C   0  0  0  0  0  0  0  0  0  0  0  0
   54.8150   27.0360   45.7710 Cl  0  0  0  0  0  0  0  0  0  0  0  0
  1  9  1  0  0  0  0
  2  7  1  0  0  0  0
  2  1  2  0  0  0  0
  3  2  1  0  0  0  0
  4  3  2  0  0  0  0
  4  5  1  0  0  0  0
  5  6  2  0  0  0  0
  6  1  1  0  0  0  0
  8  3  1  0  0  0  0
  9 14  1  0  0  0  0
 10  9  1  0  0  0  0
 10 11  1  0  0  0  0
 11 19  1  0  0  0  0
 11 12  1  0  0  0  0
 12 13  1  0  0  0  0
 12 20  1  0  0  0  0
 13 22  1  0  0  0  0
 14 24  1  0  0  0  0
 14 13  1  0  0  0  0
 14 25  1  0  0  0  0
 15  9  1  0  0  0  0
 16 10  1  0  0  0  0
 17 10  1  0  0  0  0
 18 11  1  0  0  0  0
 21 12  1  0  0  0  0
 23 13  1  0  0  0  0
 26  5  1  0  0  0  0
 26 30  2  0  0  0  0
 27 28  2  0  0  0  0
 27 26  1  0  0  0  0
 28 29  1  0  0  0  0
 29 34  1  0  0  0  0
 29 30  1  0  0  0  0
 31 28  1  0  0  0  0
 33 41  1  0  0  0  0
 33 32  1  0  0  0  0
 34 33  2  0  0  0  0
 35 37  2  0  0  0  0
 35 34  1  0  0  0  0
 36 35  1  0  0  0  0
 37 39  1  0  0  0  0
 38 37  1  0  0  0  0
 39 40  1  0  0  0  0
 39 41  2  0  0  0  0
 41 42  1  0  0  0  0
M  END
>  <minimizedAffinity>
-4.35123444

>  <minimizedRMSD>
1.44807291

$$$$
