
 OpenBabel03242517433D

 21 22  0  0  0  0  0  0  0  0999 V2000
   37.6170   26.5410   39.5890 Cl  0  0  0  0  0  0  0  0  0  0  0  0
   37.6080   27.4190   41.1090 C   0  0  0  0  0  0  0  0  0  0  0  0
   37.9050   28.7670   41.1940 C   0  0  0  0  0  0  0  0  0  0  0  0
   37.8740   29.3870   42.4430 C   0  0  0  0  0  0  0  0  0  0  0  0
   38.1170   30.4520   42.4540 H   0  0  0  0  0  0  0  0  0  0  0  0
   37.5520   28.6680   43.5780 C   0  0  0  0  0  0  0  0  0  0  0  0
   37.5460   29.2140   44.5240 H   0  0  0  0  0  0  0  0  0  0  0  0
   37.2520   27.3180   43.5050 C   0  0  0  0  0  0  0  0  0  0  0  0
   37.0070   26.8080   44.4280 H   0  0  0  0  0  0  0  0  0  0  0  0
   37.2870   26.7180   42.2610 C   0  0  0  0  0  0  0  0  0  0  0  0
   36.8940   25.0110   42.2650 Cl  0  0  0  0  0  0  0  0  0  0  0  0
   38.3070   29.5840   39.6570 S   0  0  0  0  0  0  0  0  0  0  0  0
   37.2860   32.1680   39.5330 C   0  0  0  0  0  0  0  0  0  0  0  0
   38.4000   31.3570   39.8710 C   0  0  0  0  0  0  0  0  0  0  0  0
   39.5380   31.9800   40.3630 C   0  0  0  0  0  0  0  0  0  0  0  0
   39.5510   33.3310   40.5030 N   0  0  0  0  0  0  0  0  0  0  0  0
   38.4690   34.0750   40.1700 C   0  0  0  0  0  0  0  0  0  0  0  0
   37.3590   33.5070   39.6940 N   0  0  0  0  0  0  0  0  0  0  0  0
   36.4170   31.6670   39.1550 H   0  0  0  0  0  0  0  0  0  0  0  0
   40.3860   31.3670   40.6210 H   0  0  0  0  0  0  0  0  0  0  0  0
   38.6130   35.1200   40.3300 H   0  0  0  0  0  0  0  0  0  0  0  0
  1  2  1  0  0  0  0
  2  3  2  0  0  0  0
  2 10  1  0  0  0  0
  3  4  1  0  0  0  0
  4  5  1  0  0  0  0
  4  6  2  0  0  0  0
  6  7  1  0  0  0  0
  8  6  1  0  0  0  0
  8  9  1  0  0  0  0
 10 11  1  0  0  0  0
 10  8  2  0  0  0  0
 12 14  1  0  0  0  0
 12  3  1  0  0  0  0
 13 18  2  0  0  0  0
 13 14  1  0  0  0  0
 14 15  2  0  0  0  0
 15 16  1  0  0  0  0
 15 20  1  0  0  0  0
 17 21  1  0  0  0  0
 17 16  2  0  0  0  0
 18 17  1  0  0  0  0
 19 13  1  0  0  0  0
M  END
>  <minimizedAffinity>
-4.45317554

$$$$

 OpenBabel03242517433D

 21 22  0  0  0  0  0  0  0  0999 V2000
   36.0010   27.9570   39.5150 Cl  0  0  0  0  0  0  0  0  0  0  0  0
   36.7360   27.9790   41.1090 C   0  0  0  0  0  0  0  0  0  0  0  0
   36.9490   29.1490   41.8160 C   0  0  0  0  0  0  0  0  0  0  0  0
   37.5400   29.0750   43.0780 C   0  0  0  0  0  0  0  0  0  0  0  0
   37.6850   30.0270   43.5930 H   0  0  0  0  0  0  0  0  0  0  0  0
   37.9080   27.8560   43.6140 C   0  0  0  0  0  0  0  0  0  0  0  0
   38.3650   27.8700   44.6060 H   0  0  0  0  0  0  0  0  0  0  0  0
   37.7000   26.6790   42.9150 C   0  0  0  0  0  0  0  0  0  0  0  0
   38.0090   25.7540   43.3860 H   0  0  0  0  0  0  0  0  0  0  0  0
   37.1130   26.7670   41.6670 C   0  0  0  0  0  0  0  0  0  0  0  0
   36.8900   25.2300   40.8570 Cl  0  0  0  0  0  0  0  0  0  0  0  0
   36.4310   30.6580   41.0160 S   0  0  0  0  0  0  0  0  0  0  0  0
   37.6910   33.0080   40.2230 C   0  0  0  0  0  0  0  0  0  0  0  0
   37.8380   31.6190   40.4730 C   0  0  0  0  0  0  0  0  0  0  0  0
   39.0890   31.0490   40.2830 C   0  0  0  0  0  0  0  0  0  0  0  0
   40.1210   31.8280   39.8680 N   0  0  0  0  0  0  0  0  0  0  0  0
   39.9450   33.1520   39.6390 C   0  0  0  0  0  0  0  0  0  0  0  0
   38.7550   33.7300   39.8120 N   0  0  0  0  0  0  0  0  0  0  0  0
   36.7170   33.4280   40.3750 H   0  0  0  0  0  0  0  0  0  0  0  0
   39.2050   29.9940   40.4720 H   0  0  0  0  0  0  0  0  0  0  0  0
   40.8350   33.6450   39.3190 H   0  0  0  0  0  0  0  0  0  0  0  0
  1  2  1  0  0  0  0
  2 10  2  0  0  0  0
  2  3  1  0  0  0  0
  3  4  2  0  0  0  0
  4  5  1  0  0  0  0
  4  6  1  0  0  0  0
  6  7  1  0  0  0  0
  8  9  1  0  0  0  0
  8  6  2  0  0  0  0
 10  8  1  0  0  0  0
 11 10  1  0  0  0  0
 12  3  1  0  0  0  0
 13 19  1  0  0  0  0
 13 14  1  0  0  0  0
 14 12  1  0  0  0  0
 15 20  1  0  0  0  0
 15 14  2  0  0  0  0
 16 15  1  0  0  0  0
 17 18  1  0  0  0  0
 17 16  2  0  0  0  0
 18 13  2  0  0  0  0
 21 17  1  0  0  0  0
M  END
>  <minimizedAffinity>
-4.447474

$$$$

 OpenBabel03242517433D

 21 22  0  0  0  0  0  0  0  0999 V2000
   38.9740   27.8660   39.5660 Cl  0  0  0  0  0  0  0  0  0  0  0  0
   38.2750   27.9000   41.1760 C   0  0  0  0  0  0  0  0  0  0  0  0
   38.5500   28.9030   42.0890 C   0  0  0  0  0  0  0  0  0  0  0  0
   37.9510   28.8520   43.3470 C   0  0  0  0  0  0  0  0  0  0  0  0
   38.2020   29.6680   44.0290 H   0  0  0  0  0  0  0  0  0  0  0  0
   37.0970   27.8180   43.6800 C   0  0  0  0  0  0  0  0  0  0  0  0
   36.6620   27.8390   44.6820 H   0  0  0  0  0  0  0  0  0  0  0  0
   36.8140   26.8090   42.7740 C   0  0  0  0  0  0  0  0  0  0  0  0
   36.1370   26.0260   43.0920 H   0  0  0  0  0  0  0  0  0  0  0  0
   37.4140   26.8730   41.5320 C   0  0  0  0  0  0  0  0  0  0  0  0
   36.9990   25.5560   40.4540 Cl  0  0  0  0  0  0  0  0  0  0  0  0
   39.6690   30.1810   41.5400 S   0  0  0  0  0  0  0  0  0  0  0  0
   37.6110   31.2710   40.0190 C   0  0  0  0  0  0  0  0  0  0  0  0
   38.7830   31.5330   40.7740 C   0  0  0  0  0  0  0  0  0  0  0  0
   39.2050   32.8500   40.8920 C   0  0  0  0  0  0  0  0  0  0  0  0
   38.4920   33.8360   40.2890 N   0  0  0  0  0  0  0  0  0  0  0  0
   37.3760   33.5490   39.5750 C   0  0  0  0  0  0  0  0  0  0  0  0
   36.9450   32.2940   39.4410 N   0  0  0  0  0  0  0  0  0  0  0  0
   37.3030   30.2480   39.9400 H   0  0  0  0  0  0  0  0  0  0  0  0
   40.0950   33.0530   41.4650 H   0  0  0  0  0  0  0  0  0  0  0  0
   36.9130   34.4140   39.1550 H   0  0  0  0  0  0  0  0  0  0  0  0
  1  2  1  0  0  0  0
  2 10  2  0  0  0  0
  2  3  1  0  0  0  0
  3  4  2  0  0  0  0
  4  6  1  0  0  0  0
  4  5  1  0  0  0  0
  6  7  1  0  0  0  0
  8  9  1  0  0  0  0
  8  6  2  0  0  0  0
 10  8  1  0  0  0  0
 11 10  1  0  0  0  0
 12  3  1  0  0  0  0
 13 14  1  0  0  0  0
 14 15  2  0  0  0  0
 14 12  1  0  0  0  0
 15 20  1  0  0  0  0
 16 15  1  0  0  0  0
 17 16  2  0  0  0  0
 18 17  1  0  0  0  0
 18 13  2  0  0  0  0
 19 13  1  0  0  0  0
 21 17  1  0  0  0  0
M  END
>  <minimizedAffinity>
-4.39675331

$$$$

 OpenBabel03242517433D

 21 22  0  0  0  0  0  0  0  0999 V2000
   39.0320   29.6010   42.8950 Cl  0  0  0  0  0  0  0  0  0  0  0  0
   37.6940   29.7580   41.7690 C   0  0  0  0  0  0  0  0  0  0  0  0
   37.5780   30.8200   40.8900 C   0  0  0  0  0  0  0  0  0  0  0  0
   36.4810   30.8660   40.0300 C   0  0  0  0  0  0  0  0  0  0  0  0
   36.4380   31.7250   39.3560 H   0  0  0  0  0  0  0  0  0  0  0  0
   35.5250   29.8690   40.0530 C   0  0  0  0  0  0  0  0  0  0  0  0
   34.6920   29.9670   39.3530 H   0  0  0  0  0  0  0  0  0  0  0  0
   35.6300   28.8020   40.9290 C   0  0  0  0  0  0  0  0  0  0  0  0
   34.8500   28.0510   40.9010 H   0  0  0  0  0  0  0  0  0  0  0  0
   36.7220   28.7690   41.7750 C   0  0  0  0  0  0  0  0  0  0  0  0
   36.7710   27.3840   42.8460 Cl  0  0  0  0  0  0  0  0  0  0  0  0
   38.8770   32.0430   40.9570 S   0  0  0  0  0  0  0  0  0  0  0  0
   40.5250   33.1970   39.0360 C   0  0  0  0  0  0  0  0  0  0  0  0
   39.8690   32.0160   39.4690 C   0  0  0  0  0  0  0  0  0  0  0  0
   40.0250   30.8640   38.7090 C   0  0  0  0  0  0  0  0  0  0  0  0
   40.7910   30.9040   37.5880 N   0  0  0  0  0  0  0  0  0  0  0  0
   41.4030   32.0500   37.2040 C   0  0  0  0  0  0  0  0  0  0  0  0
   41.2720   33.1740   37.9110 N   0  0  0  0  0  0  0  0  0  0  0  0
   40.3910   34.0750   39.6360 H   0  0  0  0  0  0  0  0  0  0  0  0
   39.5300   29.9650   39.0360 H   0  0  0  0  0  0  0  0  0  0  0  0
   41.9720   31.9430   36.3080 H   0  0  0  0  0  0  0  0  0  0  0  0
  2 10  1  0  0  0  0
  2  1  1  0  0  0  0
  3 12  1  0  0  0  0
  3  2  2  0  0  0  0
  4  6  2  0  0  0  0
  4  3  1  0  0  0  0
  5  4  1  0  0  0  0
  6  8  1  0  0  0  0
  7  6  1  0  0  0  0
  8 10  2  0  0  0  0
  9  8  1  0  0  0  0
 10 11  1  0  0  0  0
 13 14  1  0  0  0  0
 13 19  1  0  0  0  0
 14 12  1  0  0  0  0
 15 20  1  0  0  0  0
 15 14  2  0  0  0  0
 16 15  1  0  0  0  0
 17 16  2  0  0  0  0
 17 18  1  0  0  0  0
 18 13  2  0  0  0  0
 21 17  1  0  0  0  0
M  END
>  <minimizedAffinity>
-4.35856295

$$$$

 OpenBabel03242517433D

 21 22  0  0  0  0  0  0  0  0999 V2000
   36.5970   26.2060   39.5910 Cl  0  0  0  0  0  0  0  0  0  0  0  0
   37.2020   26.7760   41.1380 C   0  0  0  0  0  0  0  0  0  0  0  0
   36.7880   27.9660   41.7080 C   0  0  0  0  0  0  0  0  0  0  0  0
   37.3210   28.3440   42.9400 C   0  0  0  0  0  0  0  0  0  0  0  0
   36.9600   29.2920   43.3460 H   0  0  0  0  0  0  0  0  0  0  0  0
   38.2470   27.5450   43.5830 C   0  0  0  0  0  0  0  0  0  0  0  0
   38.6240   27.9000   44.5450 H   0  0  0  0  0  0  0  0  0  0  0  0
   38.6680   26.3510   43.0210 C   0  0  0  0  0  0  0  0  0  0  0  0
   39.3960   25.7670   43.5720 H   0  0  0  0  0  0  0  0  0  0  0  0
   38.1320   25.9900   41.8010 C   0  0  0  0  0  0  0  0  0  0  0  0
   38.7230   24.4670   41.1680 Cl  0  0  0  0  0  0  0  0  0  0  0  0
   35.5890   28.9090   40.7800 S   0  0  0  0  0  0  0  0  0  0  0  0
   36.6110   30.2910   38.5920 C   0  0  0  0  0  0  0  0  0  0  0  0
   36.3490   30.3200   39.9860 C   0  0  0  0  0  0  0  0  0  0  0  0
   36.6980   31.4630   40.6940 C   0  0  0  0  0  0  0  0  0  0  0  0
   37.2730   32.5040   40.0380 N   0  0  0  0  0  0  0  0  0  0  0  0
   37.5080   32.4410   38.7050 C   0  0  0  0  0  0  0  0  0  0  0  0
   37.1860   31.3580   37.9960 N   0  0  0  0  0  0  0  0  0  0  0  0
   36.3340   29.3990   38.0650 H   0  0  0  0  0  0  0  0  0  0  0  0
   36.5000   31.4890   41.7520 H   0  0  0  0  0  0  0  0  0  0  0  0
   37.9630   33.3250   38.3170 H   0  0  0  0  0  0  0  0  0  0  0  0
  1  2  1  0  0  0  0
  2  3  2  0  0  0  0
  2 10  1  0  0  0  0
  3  4  1  0  0  0  0
  4  5  1  0  0  0  0
  4  6  2  0  0  0  0
  6  7  1  0  0  0  0
  8  9  1  0  0  0  0
  8  6  1  0  0  0  0
 10  8  2  0  0  0  0
 11 10  1  0  0  0  0
 12  3  1  0  0  0  0
 13 14  1  0  0  0  0
 14 15  2  0  0  0  0
 14 12  1  0  0  0  0
 15 20  1  0  0  0  0
 16 15  1  0  0  0  0
 17 16  2  0  0  0  0
 18 13  2  0  0  0  0
 18 17  1  0  0  0  0
 19 13  1  0  0  0  0
 21 17  1  0  0  0  0
M  END
>  <minimizedAffinity>
-4.34737968

$$$$

 OpenBabel03242517433D

 21 22  0  0  0  0  0  0  0  0999 V2000
   35.5920   28.9930   40.7040 Cl  0  0  0  0  0  0  0  0  0  0  0  0
   37.0860   29.6270   41.3740 C   0  0  0  0  0  0  0  0  0  0  0  0
   37.7410   29.0290   42.4350 C   0  0  0  0  0  0  0  0  0  0  0  0
   38.9230   29.6000   42.9060 C   0  0  0  0  0  0  0  0  0  0  0  0
   39.4000   29.0880   43.7450 H   0  0  0  0  0  0  0  0  0  0  0  0
   39.4340   30.7440   42.3230 C   0  0  0  0  0  0  0  0  0  0  0  0
   40.3630   31.1390   42.7400 H   0  0  0  0  0  0  0  0  0  0  0  0
   38.7870   31.3510   41.2600 C   0  0  0  0  0  0  0  0  0  0  0  0
   39.2350   32.2450   40.8440 H   0  0  0  0  0  0  0  0  0  0  0  0
   37.6170   30.7740   40.8040 C   0  0  0  0  0  0  0  0  0  0  0  0
   36.8690   31.6100   39.4590 Cl  0  0  0  0  0  0  0  0  0  0  0  0
   36.9800   27.5570   43.1010 S   0  0  0  0  0  0  0  0  0  0  0  0
   39.0430   26.0330   42.0230 C   0  0  0  0  0  0  0  0  0  0  0  0
   37.6650   26.0810   42.3580 C   0  0  0  0  0  0  0  0  0  0  0  0
   36.8870   24.9630   42.0920 C   0  0  0  0  0  0  0  0  0  0  0  0
   37.4620   23.8700   41.5260 N   0  0  0  0  0  0  0  0  0  0  0  0
   38.7820   23.8590   41.2190 C   0  0  0  0  0  0  0  0  0  0  0  0
   39.5570   24.9180   41.4610 N   0  0  0  0  0  0  0  0  0  0  0  0
   39.6250   26.9070   42.2370 H   0  0  0  0  0  0  0  0  0  0  0  0
   35.8410   24.9950   42.3460 H   0  0  0  0  0  0  0  0  0  0  0  0
   39.1030   22.9410   40.7810 H   0  0  0  0  0  0  0  0  0  0  0  0
  1  2  1  0  0  0  0
  2  3  1  0  0  0  0
  3  4  2  0  0  0  0
  3 12  1  0  0  0  0
  4  5  1  0  0  0  0
  6  7  1  0  0  0  0
  6  4  1  0  0  0  0
  8  6  2  0  0  0  0
  9  8  1  0  0  0  0
 10  8  1  0  0  0  0
 10  2  2  0  0  0  0
 11 10  1  0  0  0  0
 13 19  1  0  0  0  0
 13 14  1  0  0  0  0
 14 12  1  0  0  0  0
 15 20  1  0  0  0  0
 15 14  2  0  0  0  0
 16 15  1  0  0  0  0
 17 18  1  0  0  0  0
 17 16  2  0  0  0  0
 18 13  2  0  0  0  0
 21 17  1  0  0  0  0
M  END
>  <minimizedAffinity>
-4.29008436

$$$$

 OpenBabel03242517433D

 21 22  0  0  0  0  0  0  0  0999 V2000
   37.9660   30.7720   38.3960 Cl  0  0  0  0  0  0  0  0  0  0  0  0
   36.3960   29.9860   38.4250 C   0  0  0  0  0  0  0  0  0  0  0  0
   35.6520   29.8480   39.5830 C   0  0  0  0  0  0  0  0  0  0  0  0
   34.4140   29.2090   39.5150 C   0  0  0  0  0  0  0  0  0  0  0  0
   33.8670   29.1260   40.4580 H   0  0  0  0  0  0  0  0  0  0  0  0
   33.9370   28.7210   38.3140 C   0  0  0  0  0  0  0  0  0  0  0  0
   32.9600   28.2320   38.3310 H   0  0  0  0  0  0  0  0  0  0  0  0
   34.6730   28.8550   37.1490 C   0  0  0  0  0  0  0  0  0  0  0  0
   34.2470   28.4530   36.2370 H   0  0  0  0  0  0  0  0  0  0  0  0
   35.8970   29.4890   37.2300 C   0  0  0  0  0  0  0  0  0  0  0  0
   36.7570   29.6110   35.7090 Cl  0  0  0  0  0  0  0  0  0  0  0  0
   36.3770   30.5180   41.0700 S   0  0  0  0  0  0  0  0  0  0  0  0
   36.6310   28.0070   42.2400 C   0  0  0  0  0  0  0  0  0  0  0  0
   37.2520   29.2580   41.9890 C   0  0  0  0  0  0  0  0  0  0  0  0
   38.5370   29.4590   42.4740 C   0  0  0  0  0  0  0  0  0  0  0  0
   39.1520   28.4650   43.1660 N   0  0  0  0  0  0  0  0  0  0  0  0
   38.5290   27.2830   43.3870 C   0  0  0  0  0  0  0  0  0  0  0  0
   37.2940   27.0570   42.9350 N   0  0  0  0  0  0  0  0  0  0  0  0
   35.6390   27.8720   41.8570 H   0  0  0  0  0  0  0  0  0  0  0  0
   39.0120   30.4070   42.2850 H   0  0  0  0  0  0  0  0  0  0  0  0
   39.1230   26.5920   43.9420 H   0  0  0  0  0  0  0  0  0  0  0  0
  1  2  1  0  0  0  0
  2  3  1  0  0  0  0
  3 12  1  0  0  0  0
  4  3  2  0  0  0  0
  4  5  1  0  0  0  0
  6  7  1  0  0  0  0
  6  4  1  0  0  0  0
  8 10  1  0  0  0  0
  8  6  2  0  0  0  0
  9  8  1  0  0  0  0
 10  2  2  0  0  0  0
 11 10  1  0  0  0  0
 12 14  1  0  0  0  0
 13 18  1  0  0  0  0
 14 13  2  0  0  0  0
 14 15  1  0  0  0  0
 15 16  2  0  0  0  0
 16 17  1  0  0  0  0
 17 21  1  0  0  0  0
 18 17  2  0  0  0  0
 19 13  1  0  0  0  0
 20 15  1  0  0  0  0
M  END
>  <minimizedAffinity>
-4.27201462

$$$$

 OpenBabel03242517433D

 21 22  0  0  0  0  0  0  0  0999 V2000
   40.8480   27.8490   41.3980 Cl  0  0  0  0  0  0  0  0  0  0  0  0
   39.2390   27.7760   42.0970 C   0  0  0  0  0  0  0  0  0  0  0  0
   38.5560   28.9030   42.5180 C   0  0  0  0  0  0  0  0  0  0  0  0
   37.2810   28.7530   43.0630 C   0  0  0  0  0  0  0  0  0  0  0  0
   36.7860   29.6740   43.3780 H   0  0  0  0  0  0  0  0  0  0  0  0
   36.7080   27.5020   43.1820 C   0  0  0  0  0  0  0  0  0  0  0  0
   35.7060   27.4560   43.6170 H   0  0  0  0  0  0  0  0  0  0  0  0
   37.3820   26.3670   42.7650 C   0  0  0  0  0  0  0  0  0  0  0  0
   36.8820   25.4140   42.8830 H   0  0  0  0  0  0  0  0  0  0  0  0
   38.6440   26.5300   42.2270 C   0  0  0  0  0  0  0  0  0  0  0  0
   39.4210   25.0410   41.7270 Cl  0  0  0  0  0  0  0  0  0  0  0  0
   39.4040   30.4600   42.3110 S   0  0  0  0  0  0  0  0  0  0  0  0
   38.9210   32.8740   41.0140 C   0  0  0  0  0  0  0  0  0  0  0  0
   38.5580   31.5070   41.1330 C   0  0  0  0  0  0  0  0  0  0  0  0
   37.5420   31.0260   40.3180 C   0  0  0  0  0  0  0  0  0  0  0  0
   36.9350   31.8680   39.4420 N   0  0  0  0  0  0  0  0  0  0  0  0
   37.3080   33.1680   39.3550 C   0  0  0  0  0  0  0  0  0  0  0  0
   38.2790   33.6610   40.1250 N   0  0  0  0  0  0  0  0  0  0  0  0
   39.7060   33.2240   41.6530 H   0  0  0  0  0  0  0  0  0  0  0  0
   37.2640   29.9890   40.4050 H   0  0  0  0  0  0  0  0  0  0  0  0
   36.7510   33.7160   38.6280 H   0  0  0  0  0  0  0  0  0  0  0  0
  1  2  1  0  0  0  0
  2 10  2  0  0  0  0
  2  3  1  0  0  0  0
  3  4  2  0  0  0  0
  4  6  1  0  0  0  0
  4  5  1  0  0  0  0
  6  7  1  0  0  0  0
  8  9  1  0  0  0  0
  8  6  2  0  0  0  0
 10  8  1  0  0  0  0
 11 10  1  0  0  0  0
 12  3  1  0  0  0  0
 13 14  1  0  0  0  0
 13 19  1  0  0  0  0
 14 12  1  0  0  0  0
 15 20  1  0  0  0  0
 15 14  2  0  0  0  0
 16 15  1  0  0  0  0
 17 16  2  0  0  0  0
 17 18  1  0  0  0  0
 18 13  2  0  0  0  0
 21 17  1  0  0  0  0
M  END
>  <minimizedAffinity>
-4.26633692

$$$$

 OpenBabel03242517433D

 21 22  0  0  0  0  0  0  0  0999 V2000
   36.1700   28.8670   40.9600 Cl  0  0  0  0  0  0  0  0  0  0  0  0
   37.7070   28.4670   41.7090 C   0  0  0  0  0  0  0  0  0  0  0  0
   38.9230   28.8320   41.1590 C   0  0  0  0  0  0  0  0  0  0  0  0
   40.0970   28.4720   41.8210 C   0  0  0  0  0  0  0  0  0  0  0  0
   41.0280   28.7850   41.3450 H   0  0  0  0  0  0  0  0  0  0  0  0
   40.0490   27.7630   43.0060 C   0  0  0  0  0  0  0  0  0  0  0  0
   41.0050   27.5140   43.4720 H   0  0  0  0  0  0  0  0  0  0  0  0
   38.8370   27.3920   43.5660 C   0  0  0  0  0  0  0  0  0  0  0  0
   38.8630   26.8380   44.4950 H   0  0  0  0  0  0  0  0  0  0  0  0
   37.6830   27.7550   42.8990 C   0  0  0  0  0  0  0  0  0  0  0  0
   36.2000   27.2440   43.6800 Cl  0  0  0  0  0  0  0  0  0  0  0  0
   38.8510   29.7440   39.6270 S   0  0  0  0  0  0  0  0  0  0  0  0
   40.3400   31.9820   40.3480 C   0  0  0  0  0  0  0  0  0  0  0  0
   39.0820   31.4960   39.9040 C   0  0  0  0  0  0  0  0  0  0  0  0
   38.0610   32.4140   39.7000 C   0  0  0  0  0  0  0  0  0  0  0  0
   38.2940   33.7330   39.9270 N   0  0  0  0  0  0  0  0  0  0  0  0
   39.5080   34.1610   40.3510 C   0  0  0  0  0  0  0  0  0  0  0  0
   40.5100   33.3050   40.5570 N   0  0  0  0  0  0  0  0  0  0  0  0
   41.1130   31.2560   40.5000 H   0  0  0  0  0  0  0  0  0  0  0  0
   37.1050   32.0490   39.3630 H   0  0  0  0  0  0  0  0  0  0  0  0
   39.5550   35.2180   40.4900 H   0  0  0  0  0  0  0  0  0  0  0  0
  1  2  1  0  0  0  0
  2 10  1  0  0  0  0
  3  2  2  0  0  0  0
  3  4  1  0  0  0  0
  4  6  2  0  0  0  0
  5  4  1  0  0  0  0
  6  7  1  0  0  0  0
  6  8  1  0  0  0  0
  8  9  1  0  0  0  0
 10  8  2  0  0  0  0
 10 11  1  0  0  0  0
 12 14  1  0  0  0  0
 12  3  1  0  0  0  0
 13 19  1  0  0  0  0
 13 18  1  0  0  0  0
 14 13  2  0  0  0  0
 15 14  1  0  0  0  0
 15 16  2  0  0  0  0
 16 17  1  0  0  0  0
 17 21  1  0  0  0  0
 17 18  2  0  0  0  0
 20 15  1  0  0  0  0
M  END
>  <minimizedAffinity>
-4.16662216

$$$$
