
 OpenBabel03252503313D

 43 45  0  0  1  0  0  0  0  0999 V2000
   45.7700   34.4370   42.3540 C   0  0  0  0  0  0  0  0  0  0  0  0
   46.8100   35.2570   41.8230 C   0  0  0  0  0  0  0  0  0  0  0  0
   48.1170   34.9430   42.2470 C   0  0  0  0  0  0  0  0  0  0  0  0
   48.2800   33.9150   43.1010 N   0  0  0  0  0  0  0  0  0  0  0  0
   47.2570   33.1710   43.5720 C   0  0  0  0  0  0  0  0  0  0  0  0
   45.9920   33.4400   43.1900 N   0  0  0  0  0  0  0  0  0  0  0  0
   44.1550   34.2310   40.6660 C   0  0  0  0  0  0  0  0  0  0  0  0
   45.1090   33.7140   39.9910 O   0  0  0  0  0  0  0  0  0  0  0  0
   44.4090   34.6910   41.9730 N   0  0  0  0  0  0  0  0  0  0  0  0
   42.8850   34.3040   40.0390 N   0  0  0  0  0  0  0  0  0  0  0  0
   42.7830   34.0980   38.5820 C   0  0  0  0  0  0  0  0  0  0  0  0
   41.6180   34.9650   38.2190 C   0  0  0  0  0  0  0  0  0  0  0  0
   41.0800   35.5110   39.5100 C   0  0  0  0  0  0  0  0  0  0  0  0
   41.5670   34.5320   40.5530 C   0  0  1  0  0  0  0  0  0  0  0  0
   46.5490   36.0440   41.1520 H   0  0  0  0  0  0  0  0  0  0  0  0
   47.4750   32.3520   44.2640 H   0  0  0  0  0  0  0  0  0  0  0  0
   43.6500   35.1460   42.5240 H   0  0  0  0  0  0  0  0  0  0  0  0
   43.7040   34.3370   38.0550 H   0  0  0  0  0  0  0  0  0  0  0  0
   42.4640   33.0210   38.4660 H   0  0  0  0  0  0  0  0  0  0  0  0
   40.8120   34.3840   37.7350 H   0  0  0  0  0  0  0  0  0  0  0  0
   41.9120   35.7530   37.5000 H   0  0  0  0  0  0  0  0  0  0  0  0
   41.8070   36.3790   39.6990 H   0  0  0  0  0  0  0  0  0  0  0  0
   40.1500   35.9760   39.5430 H   0  0  0  0  0  0  0  0  0  0  0  0
   41.4400   35.0410   41.5010 H   0  0  0  0  0  0  0  0  0  0  0  0
   39.9690   32.8610   41.6760 C   0  0  0  0  0  0  0  0  0  0  0  0
   39.7600   33.8080   42.4500 O   0  0  0  0  0  0  0  0  0  0  0  0
   40.8410   33.2690   40.5950 N   0  0  0  0  0  0  0  0  0  0  0  0
   40.9760   32.6110   39.7650 H   0  0  0  0  0  0  0  0  0  0  0  0
   37.9330   32.2320   39.5690 Cl  0  0  0  0  0  0  0  0  0  0  0  0
   38.5370   31.1110   40.7750 C   0  0  0  0  0  0  0  0  0  0  0  0
   39.4910   31.5140   41.7140 C   0  0  0  0  0  0  0  0  0  0  0  0
   39.9680   30.6320   42.6640 C   0  0  0  0  0  0  0  0  0  0  0  0
   40.7200   30.9600   43.4010 H   0  0  0  0  0  0  0  0  0  0  0  0
   39.4890   29.3190   42.6860 C   0  0  0  0  0  0  0  0  0  0  0  0
   39.8720   28.6240   43.4420 H   0  0  0  0  0  0  0  0  0  0  0  0
   38.5360   28.9320   41.7400 C   0  0  0  0  0  0  0  0  0  0  0  0
   38.1730   27.9160   41.7660 H   0  0  0  0  0  0  0  0  0  0  0  0
   38.0660   29.8340   40.7910 C   0  0  0  0  0  0  0  0  0  0  0  0
   36.8640   29.2290   39.6490 Cl  0  0  0  0  0  0  0  0  0  0  0  0
   49.1620   35.7980   41.6880 C   0  0  0  0  0  0  0  0  0  0  0  0
   50.3940   35.3350   42.1290 F   0  0  0  0  0  0  0  0  0  0  0  0
   49.0150   37.0610   42.2830 F   0  0  0  0  0  0  0  0  0  0  0  0
   49.1670   35.8490   40.3260 F   0  0  0  0  0  0  0  0  0  0  0  0
  1  6  1  0  0  0  0
  2  3  1  0  0  0  0
  2  1  2  0  0  0  0
  3  4  2  0  0  0  0
  4  5  1  0  0  0  0
  5 16  1  0  0  0  0
  6  5  2  0  0  0  0
  7  9  1  0  0  0  0
  8  7  2  0  0  0  0
  9  1  1  0  0  0  0
  9 17  1  0  0  0  0
 10 14  1  0  0  0  0
 10  7  1  0  0  0  0
 11 10  1  0  0  0  0
 12 11  1  0  0  0  0
 12 13  1  0  0  0  0
 13 23  1  0  0  0  0
 13 22  1  0  0  0  0
 13 14  1  0  0  0  0
 14 27  1  0  0  0  0
 14 24  1  1  0  0  0
 15  2  1  0  0  0  0
 18 11  1  0  0  0  0
 19 11  1  0  0  0  0
 20 12  1  0  0  0  0
 21 12  1  0  0  0  0
 25 31  1  0  0  0  0
 25 26  2  0  0  0  0
 27 25  1  0  0  0  0
 28 27  1  0  0  0  0
 29 30  1  0  0  0  0
 30 38  2  0  0  0  0
 30 31  1  0  0  0  0
 31 32  2  0  0  0  0
 32 34  1  0  0  0  0
 32 33  1  0  0  0  0
 34 35  1  0  0  0  0
 36 37  1  0  0  0  0
 36 34  2  0  0  0  0
 38 36  1  0  0  0  0
 39 38  1  0  0  0  0
 40 41  1  0  0  0  0
 40  3  1  0  0  0  0
 40 42  1  0  0  0  0
 43 40  1  0  0  0  0
M  END
>  <minimizedAffinity>
-6.89726448

>  <minimizedRMSD>
1.28684855

$$$$
