
 OpenBabel03242510223D

 40 43  0  0  1  0  0  0  0  0999 V2000
   48.0480   33.2150   43.1260 N   0  0  0  0  0  0  0  0  0  0  0  0
   49.2220   33.2720   42.3790 C   0  0  0  0  0  0  0  0  0  0  0  0
   50.3760   32.8360   42.6320 O   0  0  0  0  0  0  0  0  0  0  0  0
   47.5200   34.1150   43.0940 H   0  0  0  0  0  0  0  0  0  0  0  0
   46.2630   32.0650   44.3840 C   0  0  1  0  0  0  0  0  0  0  0  0
   46.4110   31.3540   43.1930 C   0  0  0  0  0  0  0  0  0  0  0  0
   47.6410   32.0570   43.8400 C   0  0  1  0  0  0  0  0  0  0  0  0
   46.0740   31.5710   45.3770 H   0  0  0  0  0  0  0  0  0  0  0  0
   46.4120   30.2200   43.2370 H   0  0  0  0  0  0  0  0  0  0  0  0
   46.1390   31.6750   42.1710 H   0  0  0  0  0  0  0  0  0  0  0  0
   48.4020   31.3000   44.1250 H   0  0  0  0  0  0  0  0  0  0  0  0
   45.0340   33.9760   43.1170 C   0  0  0  0  0  0  0  0  0  0  0  0
   45.5370   33.4160   44.3380 C   0  0  0  0  0  0  0  0  0  0  0  0
   45.3640   34.1520   45.4930 C   0  0  0  0  0  0  0  0  0  0  0  0
   44.7410   35.3490   45.4220 N   0  0  0  0  0  0  0  0  0  0  0  0
   44.2710   35.8660   44.2600 C   0  0  0  0  0  0  0  0  0  0  0  0
   44.4270   35.1460   43.0680 N   0  0  0  0  0  0  0  0  0  0  0  0
   45.1460   33.3980   42.2210 H   0  0  0  0  0  0  0  0  0  0  0  0
   45.7180   33.7880   46.4410 H   0  0  0  0  0  0  0  0  0  0  0  0
   43.7700   36.8250   44.2040 H   0  0  0  0  0  0  0  0  0  0  0  0
   49.2080   33.9490   41.0210 C   0  0  2  0  0  0  0  0  0  0  0  0
   48.5650   35.3840   40.9670 C   0  0  0  0  0  0  0  0  0  0  0  0
   47.9480   34.1950   40.3070 C   0  0  1  0  0  0  0  0  0  0  0  0
   50.1530   33.9600   40.4440 H   0  0  0  0  0  0  0  0  0  0  0  0
   48.1320   35.7060   41.9440 H   0  0  0  0  0  0  0  0  0  0  0  0
   49.0090   36.1220   40.3090 H   0  0  0  0  0  0  0  0  0  0  0  0
   47.0410   33.7120   40.7240 H   0  0  0  0  0  0  0  0  0  0  0  0
   47.9850   34.1340   38.7960 C   0  0  0  0  0  0  0  0  0  0  0  0
   48.6490   34.9560   38.1790 O   0  0  0  0  0  0  0  0  0  0  0  0
   49.6020   31.7010   38.2270 Cl  0  0  0  0  0  0  0  0  0  0  0  0
   47.9310   31.9630   37.7440 C   0  0  0  0  0  0  0  0  0  0  0  0
   47.2490   33.1220   38.0480 C   0  0  0  0  0  0  0  0  0  0  0  0
   45.9470   33.2010   37.6120 C   0  0  0  0  0  0  0  0  0  0  0  0
   45.4140   34.1070   37.8490 H   0  0  0  0  0  0  0  0  0  0  0  0
   45.3460   32.1780   36.9070 C   0  0  0  0  0  0  0  0  0  0  0  0
   44.3010   32.3510   36.6090 H   0  0  0  0  0  0  0  0  0  0  0  0
   46.0230   31.0160   36.6010 C   0  0  0  0  0  0  0  0  0  0  0  0
   45.5240   30.2380   36.0490 H   0  0  0  0  0  0  0  0  0  0  0  0
   47.3300   30.9190   37.0300 C   0  0  0  0  0  0  0  0  0  0  0  0
   48.2190   29.4550   36.6570 Cl  0  0  0  0  0  0  0  0  0  0  0  0
  1  7  1  0  0  0  0
  2  3  2  0  0  0  0
  2  1  1  0  0  0  0
  4  1  1  0  0  0  0
  5  8  1  1  0  0  0
  6  9  1  0  0  0  0
  6  7  1  0  0  0  0
  6  5  1  0  0  0  0
  7 11  1  1  0  0  0
  7  5  1  0  0  0  0
 10  6  1  0  0  0  0
 12 13  1  0  0  0  0
 13  5  1  0  0  0  0
 13 14  2  0  0  0  0
 14 19  1  0  0  0  0
 15 14  1  0  0  0  0
 16 15  2  0  0  0  0
 17 12  2  0  0  0  0
 17 16  1  0  0  0  0
 18 12  1  0  0  0  0
 20 16  1  0  0  0  0
 21 24  1  6  0  0  0
 21  2  1  0  0  0  0
 22 21  1  0  0  0  0
 22 25  1  0  0  0  0
 23 27  1  1  0  0  0
 23 22  1  0  0  0  0
 23 21  1  0  0  0  0
 26 22  1  0  0  0  0
 28 23  1  0  0  0  0
 29 28  2  0  0  0  0
 31 32  1  0  0  0  0
 31 30  1  0  0  0  0
 32 28  1  0  0  0  0
 33 34  1  0  0  0  0
 33 32  2  0  0  0  0
 35 33  1  0  0  0  0
 36 35  1  0  0  0  0
 37 35  2  0  0  0  0
 37 39  1  0  0  0  0
 38 37  1  0  0  0  0
 39 31  2  0  0  0  0
 40 39  1  0  0  0  0
M  END
>  <minimizedAffinity>
-4.91730738

>  <minimizedRMSD>
1.08668864

$$$$
