
 OpenBabel03242520193D

 37 39  0  0  0  0  0  0  0  0999 V2000
   41.5750   35.4750   38.7630 C   0  0  0  0  0  0  0  0  0  0  0  0
   41.7750   36.5500   38.5570 H   0  0  0  0  0  0  0  0  0  0  0  0
   41.3670   34.9330   37.8110 H   0  0  0  0  0  0  0  0  0  0  0  0
   44.2240   34.4730   41.2650 C   0  0  0  0  0  0  0  0  0  0  0  0
   43.1260   35.1480   40.6810 C   0  0  0  0  0  0  0  0  0  0  0  0
   42.7270   34.7930   39.4000 C   0  0  0  0  0  0  0  0  0  0  0  0
   43.4350   33.7960   38.7780 N   0  0  0  0  0  0  0  0  0  0  0  0
   44.4840   33.1790   39.3840 C   0  0  0  0  0  0  0  0  0  0  0  0
   44.8730   33.5130   40.6100 N   0  0  0  0  0  0  0  0  0  0  0  0
   42.6450   35.9130   41.2560 H   0  0  0  0  0  0  0  0  0  0  0  0
   44.9440   32.4120   38.7650 H   0  0  0  0  0  0  0  0  0  0  0  0
   44.6460   34.8680   42.6320 C   0  0  0  0  0  0  0  0  0  0  0  0
   46.1440   35.3100   42.6840 C   0  0  0  0  0  0  0  0  0  0  0  0
   45.0130   36.1820   43.0180 C   0  0  0  0  0  0  0  0  0  0  0  0
   44.3600   34.1080   43.3840 H   0  0  0  0  0  0  0  0  0  0  0  0
   46.6630   35.4430   41.7170 H   0  0  0  0  0  0  0  0  0  0  0  0
   46.7240   34.7730   43.4600 H   0  0  0  0  0  0  0  0  0  0  0  0
   44.8420   37.0500   42.3390 H   0  0  0  0  0  0  0  0  0  0  0  0
   44.9300   36.4670   44.0970 H   0  0  0  0  0  0  0  0  0  0  0  0
   40.3430   35.3590   39.6220 C   0  0  0  0  0  0  0  0  0  0  0  0
   40.5690   35.8200   40.5970 H   0  0  0  0  0  0  0  0  0  0  0  0
   39.4810   35.9260   39.2000 H   0  0  0  0  0  0  0  0  0  0  0  0
   39.6830   33.4910   41.0600 C   0  0  0  0  0  0  0  0  0  0  0  0
   39.8710   34.1040   42.1420 O   0  0  0  0  0  0  0  0  0  0  0  0
   39.8870   33.9860   39.7500 N   0  0  0  0  0  0  0  0  0  0  0  0
   39.7280   33.4240   38.8940 H   0  0  0  0  0  0  0  0  0  0  0  0
   41.9340   31.7510   41.8000 Cl  0  0  0  0  0  0  0  0  0  0  0  0
   40.2590   31.2630   41.5560 C   0  0  0  0  0  0  0  0  0  0  0  0
   39.1970   32.1020   41.2030 C   0  0  0  0  0  0  0  0  0  0  0  0
   37.9460   31.6080   41.0430 C   0  0  0  0  0  0  0  0  0  0  0  0
   37.2290   32.3460   40.7760 H   0  0  0  0  0  0  0  0  0  0  0  0
   37.7260   30.2580   41.2330 C   0  0  0  0  0  0  0  0  0  0  0  0
   36.7030   29.9000   41.0940 H   0  0  0  0  0  0  0  0  0  0  0  0
   38.7380   29.3780   41.5830 C   0  0  0  0  0  0  0  0  0  0  0  0
   38.5110   28.3240   41.7200 H   0  0  0  0  0  0  0  0  0  0  0  0
   40.0250   29.9020   41.7450 C   0  0  0  0  0  0  0  0  0  0  0  0
   41.2990   28.7690   42.1890 Cl  0  0  0  0  0  0  0  0  0  0  0  0
  1  6  1  0  0  0  0
  1 20  1  0  0  0  0
  2  1  1  0  0  0  0
  3  1  1  0  0  0  0
  4 12  1  0  0  0  0
  5 10  1  0  0  0  0
  5  4  1  0  0  0  0
  6  5  2  0  0  0  0
  7  8  2  0  0  0  0
  7  6  1  0  0  0  0
  8  9  1  0  0  0  0
  9  4  2  0  0  0  0
 11  8  1  0  0  0  0
 12 13  1  0  0  0  0
 12 14  1  0  0  0  0
 12 15  1  0  0  0  0
 13 14  1  0  0  0  0
 13 17  1  0  0  0  0
 14 19  1  0  0  0  0
 16 13  1  0  0  0  0
 18 14  1  0  0  0  0
 20 25  1  0  0  0  0
 20 21  1  0  0  0  0
 22 20  1  0  0  0  0
 23 29  1  0  0  0  0
 23 24  2  0  0  0  0
 25 23  1  0  0  0  0
 26 25  1  0  0  0  0
 28 36  1  0  0  0  0
 28 27  1  0  0  0  0
 29 28  2  0  0  0  0
 30 29  1  0  0  0  0
 30 32  2  0  0  0  0
 31 30  1  0  0  0  0
 32 34  1  0  0  0  0
 33 32  1  0  0  0  0
 34 35  1  0  0  0  0
 34 36  2  0  0  0  0
 36 37  1  0  0  0  0
M  END
>  <minimizedAffinity>
-5.08962202

>  <minimizedRMSD>
1.51754916

$$$$
