
 OpenBabel03252503283D

 27 28  0  0  0  0  0  0  0  0999 V2000
   45.1000   34.5970   42.8670 C   0  0  0  0  0  0  0  0  0  0  0  0
   46.1180   35.0380   41.9960 C   0  0  0  0  0  0  0  0  0  0  0  0
   47.4300   34.7030   42.3720 C   0  0  0  0  0  0  0  0  0  0  0  0
   47.6050   33.9940   43.5200 N   0  0  0  0  0  0  0  0  0  0  0  0
   46.5860   33.6010   44.3140 C   0  0  0  0  0  0  0  0  0  0  0  0
   45.3150   33.9090   43.9770 N   0  0  0  0  0  0  0  0  0  0  0  0
   43.2350   34.0700   41.4940 C   0  0  0  0  0  0  0  0  0  0  0  0
   44.0380   33.2430   40.9800 O   0  0  0  0  0  0  0  0  0  0  0  0
   43.7360   34.9060   42.5430 N   0  0  0  0  0  0  0  0  0  0  0  0
   45.8880   35.5980   41.1000 H   0  0  0  0  0  0  0  0  0  0  0  0
   46.7800   33.0340   45.2240 H   0  0  0  0  0  0  0  0  0  0  0  0
   43.1280   35.6430   42.9860 H   0  0  0  0  0  0  0  0  0  0  0  0
   41.5460   31.7010   41.9450 Cl  0  0  0  0  0  0  0  0  0  0  0  0
   40.9330   33.2000   41.2800 C   0  0  0  0  0  0  0  0  0  0  0  0
   41.8200   34.2540   41.1100 C   0  0  0  0  0  0  0  0  0  0  0  0
   41.4890   35.4930   40.5990 C   0  0  0  0  0  0  0  0  0  0  0  0
   42.1890   36.2850   40.4800 H   0  0  0  0  0  0  0  0  0  0  0  0
   40.1720   35.6740   40.2390 C   0  0  0  0  0  0  0  0  0  0  0  0
   39.7790   36.6140   39.8200 H   0  0  0  0  0  0  0  0  0  0  0  0
   39.2500   34.6570   40.3880 C   0  0  0  0  0  0  0  0  0  0  0  0
   38.2080   34.8060   40.1000 H   0  0  0  0  0  0  0  0  0  0  0  0
   39.6220   33.4300   40.9030 C   0  0  0  0  0  0  0  0  0  0  0  0
   38.4940   32.0960   41.1160 Cl  0  0  0  0  0  0  0  0  0  0  0  0
   48.4830   35.1570   41.4760 C   0  0  0  0  0  0  0  0  0  0  0  0
   49.6120   34.3510   41.6460 F   0  0  0  0  0  0  0  0  0  0  0  0
   48.8630   36.4200   41.8920 F   0  0  0  0  0  0  0  0  0  0  0  0
   48.1350   35.0940   40.1520 F   0  0  0  0  0  0  0  0  0  0  0  0
  1  6  1  0  0  0  0
  2  3  1  0  0  0  0
  2  1  2  0  0  0  0
  3  4  2  0  0  0  0
  4  5  1  0  0  0  0
  5 11  1  0  0  0  0
  6  5  2  0  0  0  0
  7  9  1  0  0  0  0
  8  7  2  0  0  0  0
  9  1  1  0  0  0  0
  9 12  1  0  0  0  0
 10  2  1  0  0  0  0
 14 13  1  0  0  0  0
 15 14  1  0  0  0  0
 15  7  1  0  0  0  0
 16 15  2  0  0  0  0
 17 16  1  0  0  0  0
 18 20  2  0  0  0  0
 18 16  1  0  0  0  0
 19 18  1  0  0  0  0
 20 22  1  0  0  0  0
 21 20  1  0  0  0  0
 22 23  1  0  0  0  0
 22 14  2  0  0  0  0
 24 25  1  0  0  0  0
 24 26  1  0  0  0  0
 24  3  1  0  0  0  0
 27 24  1  0  0  0  0
M  END
>  <minimizedAffinity>
-6.80463362

>  <minimizedRMSD>
1.4995445

$$$$
