
 OpenBabel03242510333D

 45 47  0  0  1  0  0  0  0  0999 V2000
   44.5920   33.2650   41.6280 C   0  0  1  0  0  0  0  0  0  0  0  0
   44.0530   34.2320   40.5170 C   0  0  0  0  0  0  0  0  0  0  0  0
   43.7970   33.4810   39.2810 C   0  0  0  0  0  0  0  0  0  0  0  0
   45.1920   33.0400   38.7700 C   0  0  0  0  0  0  0  0  0  0  0  0
   45.7620   32.2440   39.8030 C   0  0  0  0  0  0  0  0  0  0  0  0
   45.8570   32.7880   41.2950 C   0  0  1  0  0  0  0  0  0  0  0  0
   43.8320   32.4660   41.7610 H   0  0  0  0  0  0  0  0  0  0  0  0
   44.7940   35.0270   40.3600 H   0  0  0  0  0  0  0  0  0  0  0  0
   43.0600   34.6120   40.8960 H   0  0  0  0  0  0  0  0  0  0  0  0
   43.3870   34.1460   38.5260 H   0  0  0  0  0  0  0  0  0  0  0  0
   43.2490   32.5330   39.4380 H   0  0  0  0  0  0  0  0  0  0  0  0
   44.9300   32.3540   37.9370 H   0  0  0  0  0  0  0  0  0  0  0  0
   45.7200   33.8950   38.3580 H   0  0  0  0  0  0  0  0  0  0  0  0
   44.8330   31.5750   40.0730 H   0  0  0  0  0  0  0  0  0  0  0  0
   46.3700   31.3740   39.6150 H   0  0  0  0  0  0  0  0  0  0  0  0
   46.2410   31.8990   41.7730 H   0  0  0  0  0  0  0  0  0  0  0  0
   44.6270   36.0780   44.2560 C   0  0  0  0  0  0  0  0  0  0  0  0
   44.4590   35.4700   43.0490 C   0  0  0  0  0  0  0  0  0  0  0  0
   44.6980   34.0940   42.8710 C   0  0  0  0  0  0  0  0  0  0  0  0
   45.0900   33.4410   43.9460 N   0  0  0  0  0  0  0  0  0  0  0  0
   45.2580   34.0190   45.1270 C   0  0  0  0  0  0  0  0  0  0  0  0
   45.0240   35.3600   45.2910 N   0  0  0  0  0  0  0  0  0  0  0  0
   44.3980   37.1460   44.2090 H   0  0  0  0  0  0  0  0  0  0  0  0
   44.1390   35.9590   42.1300 H   0  0  0  0  0  0  0  0  0  0  0  0
   45.5780   33.4960   46.0110 H   0  0  0  0  0  0  0  0  0  0  0  0
   46.8280   33.8300   41.1970 O   0  0  0  0  0  0  0  0  0  0  0  0
   47.9120   33.3120   42.0610 C   0  0  1  0  0  0  0  0  0  0  0  0
   47.2290   32.7960   42.5290 H   0  0  0  0  0  0  0  0  0  0  0  0
   48.5850   30.5820   43.4910 Cl  0  0  0  0  0  0  0  0  0  0  0  0
   49.2070   30.9740   41.9030 C   0  0  0  0  0  0  0  0  0  0  0  0
   48.7680   32.2040   41.4300 C   0  0  0  0  0  0  0  0  0  0  0  0
   49.2410   32.4710   40.1210 C   0  0  0  0  0  0  0  0  0  0  0  0
   48.9430   33.4280   39.6600 H   0  0  0  0  0  0  0  0  0  0  0  0
   50.0340   31.6830   39.3420 C   0  0  0  0  0  0  0  0  0  0  0  0
   50.3360   31.9860   38.3510 H   0  0  0  0  0  0  0  0  0  0  0  0
   50.4140   30.4860   39.9030 C   0  0  0  0  0  0  0  0  0  0  0  0
   51.0410   29.7870   39.3740 H   0  0  0  0  0  0  0  0  0  0  0  0
   50.0080   30.1350   41.1650 C   0  0  0  0  0  0  0  0  0  0  0  0
   50.4220   28.6470   41.9890 Cl  0  0  0  0  0  0  0  0  0  0  0  0
   48.8340   34.2250   41.5340 O   0  0  0  0  0  0  0  0  0  0  0  0
   49.3870   35.3100   42.0000 C   0  0  0  0  0  0  0  0  0  0  0  0
   49.2400   36.4140   41.5680 O   0  0  0  0  0  0  0  0  0  0  0  0
   50.1960   35.0860   43.0900 N   0  0  0  0  0  0  0  0  0  0  0  0
   51.0470   35.0870   43.7060 H   0  0  0  0  0  0  0  0  0  0  0  0
   51.1730   35.4520   42.9760 H   0  0  0  0  0  0  0  0  0  0  0  0
  1  7  1  1  0  0  0
  1 19  1  0  0  0  0
  2  9  1  0  0  0  0
  2  1  1  0  0  0  0
  3 11  1  0  0  0  0
  3  2  1  0  0  0  0
  4  3  1  0  0  0  0
  4  5  1  0  0  0  0
  5 14  1  0  0  0  0
  5  6  1  0  0  0  0
  6  1  1  0  0  0  0
  6 16  1  1  0  0  0
  8  2  1  0  0  0  0
 10  3  1  0  0  0  0
 12  4  1  0  0  0  0
 13  4  1  0  0  0  0
 15  5  1  0  0  0  0
 17 22  1  0  0  0  0
 18 17  2  0  0  0  0
 19 18  1  0  0  0  0
 19 20  2  0  0  0  0
 20 21  1  0  0  0  0
 21 22  2  0  0  0  0
 21 25  1  0  0  0  0
 23 17  1  0  0  0  0
 24 18  1  0  0  0  0
 26  6  1  0  0  0  0
 26 27  1  0  0  0  0
 27 28  1  1  0  0  0
 30 29  1  0  0  0  0
 31 30  1  0  0  0  0
 31 27  1  0  0  0  0
 32 31  2  0  0  0  0
 33 32  1  0  0  0  0
 34 36  2  0  0  0  0
 34 32  1  0  0  0  0
 35 34  1  0  0  0  0
 36 38  1  0  0  0  0
 37 36  1  0  0  0  0
 38 30  2  0  0  0  0
 38 39  1  0  0  0  0
 40 41  1  0  0  0  0
 40 27  1  0  0  0  0
 41 43  1  0  0  0  0
 42 41  2  0  0  0  0
 43 44  1  0  0  0  0
 45 43  1  0  0  0  0
M  END
>  <minimizedAffinity>
-5.2655735

>  <minimizedRMSD>
0.749934733

$$$$
