
 OpenBabel03242518153D

 34 36  0  0  0  0  0  0  0  0999 V2000
   49.4600   33.2680   41.4640 C   0  0  0  0  0  0  0  0  0  0  0  0
   48.9440   32.6180   40.3190 C   0  0  0  0  0  0  0  0  0  0  0  0
   49.5800   31.5990   39.7070 C   0  0  0  0  0  0  0  0  0  0  0  0
   50.8260   31.2000   40.2850 C   0  0  0  0  0  0  0  0  0  0  0  0
   51.0580   32.2980   41.6940 S   0  0  0  0  0  0  0  0  0  0  0  0
   48.0200   33.0460   40.0380 H   0  0  0  0  0  0  0  0  0  0  0  0
   49.1800   31.1080   38.8340 H   0  0  0  0  0  0  0  0  0  0  0  0
   49.0750   34.3140   42.3370 C   0  0  0  0  0  0  0  0  0  0  0  0
   48.6590   33.8350   43.2770 H   0  0  0  0  0  0  0  0  0  0  0  0
   50.0090   34.8070   42.7290 H   0  0  0  0  0  0  0  0  0  0  0  0
   48.1180   35.3110   41.8230 C   0  0  0  0  0  0  0  0  0  0  0  0
   48.3080   35.5290   40.7400 H   0  0  0  0  0  0  0  0  0  0  0  0
   48.2910   36.2870   42.3340 H   0  0  0  0  0  0  0  0  0  0  0  0
   46.7460   34.8900   42.0730 C   0  0  0  0  0  0  0  0  0  0  0  0
   46.2550   34.8090   43.3580 C   0  0  0  0  0  0  0  0  0  0  0  0
   44.9260   34.3950   43.5290 C   0  0  0  0  0  0  0  0  0  0  0  0
   44.2030   34.1000   42.4100 N   0  0  0  0  0  0  0  0  0  0  0  0
   44.7330   34.1970   41.1760 C   0  0  0  0  0  0  0  0  0  0  0  0
   45.9740   34.5830   41.0220 N   0  0  0  0  0  0  0  0  0  0  0  0
   46.8360   35.0440   44.2350 H   0  0  0  0  0  0  0  0  0  0  0  0
   44.4490   34.3000   44.4960 H   0  0  0  0  0  0  0  0  0  0  0  0
   44.0470   33.9330   40.3820 H   0  0  0  0  0  0  0  0  0  0  0  0
   51.6110   30.2540   39.8790 O   0  0  0  0  0  0  0  0  0  0  0  0
   54.3880   30.5740   38.7280 Cl  0  0  0  0  0  0  0  0  0  0  0  0
   54.0200   29.6310   40.1790 C   0  0  0  0  0  0  0  0  0  0  0  0
   52.6640   29.6400   40.5030 C   0  0  0  0  0  0  0  0  0  0  0  0
   52.2620   28.9340   41.6190 C   0  0  0  0  0  0  0  0  0  0  0  0
   51.2320   28.8500   41.9950 H   0  0  0  0  0  0  0  0  0  0  0  0
   53.1550   28.2250   42.4180 C   0  0  0  0  0  0  0  0  0  0  0  0
   52.8730   27.6660   43.2940 H   0  0  0  0  0  0  0  0  0  0  0  0
   54.4990   28.2460   42.0540 C   0  0  0  0  0  0  0  0  0  0  0  0
   55.2500   27.7150   42.6350 H   0  0  0  0  0  0  0  0  0  0  0  0
   54.9110   28.9430   40.9480 C   0  0  0  0  0  0  0  0  0  0  0  0
   56.5820   29.0160   40.4280 Cl  0  0  0  0  0  0  0  0  0  0  0  0
  1  5  1  0  0  0  0
  1  8  1  0  0  0  0
  2  1  2  0  0  0  0
  3  4  2  0  0  0  0
  3  2  1  0  0  0  0
  4  5  1  0  0  0  0
  6  2  1  0  0  0  0
  7  3  1  0  0  0  0
  8 10  1  0  0  0  0
  8  9  1  0  0  0  0
 11 14  1  0  0  0  0
 11 13  1  0  0  0  0
 11  8  1  0  0  0  0
 12 11  1  0  0  0  0
 14 15  1  0  0  0  0
 15 16  2  0  0  0  0
 15 20  1  0  0  0  0
 16 21  1  0  0  0  0
 17 16  1  0  0  0  0
 18 17  2  0  0  0  0
 19 18  1  0  0  0  0
 19 14  2  0  0  0  0
 22 18  1  0  0  0  0
 23  4  1  0  0  0  0
 23 26  1  0  0  0  0
 24 25  1  0  0  0  0
 25 26  2  0  0  0  0
 25 33  1  0  0  0  0
 26 27  1  0  0  0  0
 27 28  1  0  0  0  0
 27 29  2  0  0  0  0
 29 30  1  0  0  0  0
 31 29  1  0  0  0  0
 31 32  1  0  0  0  0
 33 31  2  0  0  0  0
 34 33  1  0  0  0  0
M  END
>  <minimizedAffinity>
-3.66278648

>  <minimizedRMSD>
2.32850671

$$$$
