
 OpenBabel03242510523D

 24 25  0  0  0  0  0  0  0  0999 V2000
   41.9590   33.1420   37.2990 C   0  0  0  0  0  0  0  0  0  0  0  0
   42.2920   34.1610   38.2200 C   0  0  0  0  0  0  0  0  0  0  0  0
   41.6110   34.1580   39.4490 C   0  0  0  0  0  0  0  0  0  0  0  0
   40.6770   33.1890   39.6920 N   0  0  0  0  0  0  0  0  0  0  0  0
   40.3920   32.2410   38.7860 C   0  0  0  0  0  0  0  0  0  0  0  0
   41.0350   32.2130   37.5800 N   0  0  0  0  0  0  0  0  0  0  0  0
   38.5380   31.5760   40.1890 C   0  0  0  0  0  0  0  0  0  0  0  0
   38.5680   32.6170   40.8700 O   0  0  0  0  0  0  0  0  0  0  0  0
   39.4120   31.2640   39.1010 N   0  0  0  0  0  0  0  0  0  0  0  0
   42.4820   33.1470   36.3580 H   0  0  0  0  0  0  0  0  0  0  0  0
   43.0320   34.9150   38.0060 H   0  0  0  0  0  0  0  0  0  0  0  0
   41.8710   34.9400   40.1500 H   0  0  0  0  0  0  0  0  0  0  0  0
   39.3450   30.3770   38.5610 H   0  0  0  0  0  0  0  0  0  0  0  0
   38.9970   29.7800   42.6020 Cl  0  0  0  0  0  0  0  0  0  0  0  0
   37.5960   29.6800   41.5670 C   0  0  0  0  0  0  0  0  0  0  0  0
   37.5190   30.5560   40.5110 C   0  0  0  0  0  0  0  0  0  0  0  0
   36.4250   30.5120   39.6660 C   0  0  0  0  0  0  0  0  0  0  0  0
   36.3260   31.1920   38.8120 H   0  0  0  0  0  0  0  0  0  0  0  0
   35.3860   29.6180   39.8290 C   0  0  0  0  0  0  0  0  0  0  0  0
   34.5440   29.5990   39.1590 H   0  0  0  0  0  0  0  0  0  0  0  0
   35.4790   28.7410   40.8970 C   0  0  0  0  0  0  0  0  0  0  0  0
   34.6670   28.0340   41.0330 H   0  0  0  0  0  0  0  0  0  0  0  0
   36.5760   28.7720   41.7610 C   0  0  0  0  0  0  0  0  0  0  0  0
   36.6750   27.6560   43.1070 Cl  0  0  0  0  0  0  0  0  0  0  0  0
  1  6  2  0  0  0  0
  1  2  1  0  0  0  0
  2  3  2  0  0  0  0
  3  4  1  0  0  0  0
  3 12  1  0  0  0  0
  5  9  1  0  0  0  0
  5  4  2  0  0  0  0
  6  5  1  0  0  0  0
  7 16  1  0  0  0  0
  7  8  2  0  0  0  0
  9  7  1  0  0  0  0
 10  1  1  0  0  0  0
 11  2  1  0  0  0  0
 13  9  1  0  0  0  0
 15 23  1  0  0  0  0
 15 14  1  0  0  0  0
 16 15  2  0  0  0  0
 17 19  2  0  0  0  0
 17 16  1  0  0  0  0
 18 17  1  0  0  0  0
 19 21  1  0  0  0  0
 20 19  1  0  0  0  0
 21 22  1  0  0  0  0
 21 23  2  0  0  0  0
 23 24  1  0  0  0  0
M  END
>  <minimizedAffinity>
-4.93515015

$$$$

 OpenBabel03242510523D

 24 25  0  0  0  0  0  0  0  0999 V2000
   41.3360   32.3820   37.3340 C   0  0  0  0  0  0  0  0  0  0  0  0
   41.5970   33.6140   37.9760 C   0  0  0  0  0  0  0  0  0  0  0  0
   41.4380   33.6530   39.3720 C   0  0  0  0  0  0  0  0  0  0  0  0
   41.0460   32.5200   40.0310 N   0  0  0  0  0  0  0  0  0  0  0  0
   40.8090   31.3710   39.3790 C   0  0  0  0  0  0  0  0  0  0  0  0
   40.9540   31.2960   38.0220 N   0  0  0  0  0  0  0  0  0  0  0  0
   39.9200   30.4810   41.4440 C   0  0  0  0  0  0  0  0  0  0  0  0
   39.8250   31.5980   41.9850 O   0  0  0  0  0  0  0  0  0  0  0  0
   40.4050   30.2320   40.1230 N   0  0  0  0  0  0  0  0  0  0  0  0
   41.4590   32.3550   36.2650 H   0  0  0  0  0  0  0  0  0  0  0  0
   41.9040   34.4940   37.4350 H   0  0  0  0  0  0  0  0  0  0  0  0
   41.6390   34.5980   39.8560 H   0  0  0  0  0  0  0  0  0  0  0  0
   40.4650   29.2760   39.7150 H   0  0  0  0  0  0  0  0  0  0  0  0
   36.9430   29.9750   41.8220 Cl  0  0  0  0  0  0  0  0  0  0  0  0
   38.1950   28.9420   42.4610 C   0  0  0  0  0  0  0  0  0  0  0  0
   39.5000   29.2910   42.2130 C   0  0  0  0  0  0  0  0  0  0  0  0
   40.5250   28.4990   42.7010 C   0  0  0  0  0  0  0  0  0  0  0  0
   41.5780   28.7440   42.5260 H   0  0  0  0  0  0  0  0  0  0  0  0
   40.3010   27.3540   43.4380 C   0  0  0  0  0  0  0  0  0  0  0  0
   41.1120   26.7510   43.8090 H   0  0  0  0  0  0  0  0  0  0  0  0
   38.9800   27.0150   43.6790 C   0  0  0  0  0  0  0  0  0  0  0  0
   38.7940   26.1160   44.2580 H   0  0  0  0  0  0  0  0  0  0  0  0
   37.9340   27.8030   43.1940 C   0  0  0  0  0  0  0  0  0  0  0  0
   36.2690   27.3580   43.5090 Cl  0  0  0  0  0  0  0  0  0  0  0  0
  1  2  2  0  0  0  0
  1  6  1  0  0  0  0
  2  3  1  0  0  0  0
  3 12  1  0  0  0  0
  3  4  2  0  0  0  0
  5  4  1  0  0  0  0
  5  9  1  0  0  0  0
  6  5  2  0  0  0  0
  7  8  2  0  0  0  0
  7 16  1  0  0  0  0
  9  7  1  0  0  0  0
 10  1  1  0  0  0  0
 11  2  1  0  0  0  0
 13  9  1  0  0  0  0
 14 15  1  0  0  0  0
 15 23  1  0  0  0  0
 16 15  2  0  0  0  0
 16 17  1  0  0  0  0
 17 19  2  0  0  0  0
 18 17  1  0  0  0  0
 19 21  1  0  0  0  0
 19 20  1  0  0  0  0
 21 22  1  0  0  0  0
 23 24  1  0  0  0  0
 23 21  2  0  0  0  0
M  END
>  <minimizedAffinity>
-4.84010363

$$$$

 OpenBabel03242510523D

 24 25  0  0  0  0  0  0  0  0999 V2000
   37.8130   31.8450   38.0430 C   0  0  0  0  0  0  0  0  0  0  0  0
   37.3020   32.7030   39.0440 C   0  0  0  0  0  0  0  0  0  0  0  0
   37.0200   32.1290   40.2940 C   0  0  0  0  0  0  0  0  0  0  0  0
   37.2480   30.7940   40.4830 N   0  0  0  0  0  0  0  0  0  0  0  0
   37.7340   30.0170   39.5030 C   0  0  0  0  0  0  0  0  0  0  0  0
   38.0200   30.5410   38.2730 N   0  0  0  0  0  0  0  0  0  0  0  0
   37.2860   28.1040   40.9130 C   0  0  0  0  0  0  0  0  0  0  0  0
   36.5510   28.7400   41.6890 O   0  0  0  0  0  0  0  0  0  0  0  0
   37.9480   28.6380   39.7630 N   0  0  0  0  0  0  0  0  0  0  0  0
   38.0280   32.2880   37.0860 H   0  0  0  0  0  0  0  0  0  0  0  0
   37.1290   33.7540   38.8720 H   0  0  0  0  0  0  0  0  0  0  0  0
   36.6290   32.7910   41.0550 H   0  0  0  0  0  0  0  0  0  0  0  0
   38.5550   28.0620   39.1440 H   0  0  0  0  0  0  0  0  0  0  0  0
   39.4210   27.3210   42.9360 Cl  0  0  0  0  0  0  0  0  0  0  0  0
   38.4400   26.1730   42.0630 C   0  0  0  0  0  0  0  0  0  0  0  0
   37.5120   26.6680   41.1780 C   0  0  0  0  0  0  0  0  0  0  0  0
   36.7120   25.7920   40.4660 C   0  0  0  0  0  0  0  0  0  0  0  0
   35.9620   26.1470   39.7500 H   0  0  0  0  0  0  0  0  0  0  0  0
   36.7980   24.4210   40.5980 C   0  0  0  0  0  0  0  0  0  0  0  0
   36.1670   23.7570   40.0330 H   0  0  0  0  0  0  0  0  0  0  0  0
   37.7380   23.9380   41.4930 C   0  0  0  0  0  0  0  0  0  0  0  0
   37.8130   22.8610   41.6030 H   0  0  0  0  0  0  0  0  0  0  0  0
   38.5540   24.8070   42.2210 C   0  0  0  0  0  0  0  0  0  0  0  0
   39.7360   24.1780   43.3490 Cl  0  0  0  0  0  0  0  0  0  0  0  0
  1  6  2  0  0  0  0
  1  2  1  0  0  0  0
  2  3  2  0  0  0  0
  3  4  1  0  0  0  0
  3 12  1  0  0  0  0
  5  9  1  0  0  0  0
  5  4  2  0  0  0  0
  6  5  1  0  0  0  0
  7 16  1  0  0  0  0
  7  8  2  0  0  0  0
  9  7  1  0  0  0  0
 10  1  1  0  0  0  0
 11  2  1  0  0  0  0
 13  9  1  0  0  0  0
 15 23  1  0  0  0  0
 15 14  1  0  0  0  0
 16 15  2  0  0  0  0
 17 19  2  0  0  0  0
 17 16  1  0  0  0  0
 18 17  1  0  0  0  0
 19 21  1  0  0  0  0
 20 19  1  0  0  0  0
 21 22  1  0  0  0  0
 21 23  2  0  0  0  0
 23 24  1  0  0  0  0
M  END
>  <minimizedAffinity>
-4.81544447

$$$$

 OpenBabel03242510523D

 24 25  0  0  0  0  0  0  0  0999 V2000
   41.2210   33.0170   39.1290 C   0  0  0  0  0  0  0  0  0  0  0  0
   40.4260   34.1560   39.3880 C   0  0  0  0  0  0  0  0  0  0  0  0
   39.2540   33.9600   40.1370 C   0  0  0  0  0  0  0  0  0  0  0  0
   38.9420   32.7010   40.5710 N   0  0  0  0  0  0  0  0  0  0  0  0
   39.7270   31.6470   40.3000 C   0  0  0  0  0  0  0  0  0  0  0  0
   40.8750   31.8000   39.5740 N   0  0  0  0  0  0  0  0  0  0  0  0
   37.9820   30.2270   41.1870 C   0  0  0  0  0  0  0  0  0  0  0  0
   37.1180   31.1220   41.1550 O   0  0  0  0  0  0  0  0  0  0  0  0
   39.3460   30.3670   40.7800 N   0  0  0  0  0  0  0  0  0  0  0  0
   42.1190   33.1700   38.5550 H   0  0  0  0  0  0  0  0  0  0  0  0
   40.6930   35.1400   39.0350 H   0  0  0  0  0  0  0  0  0  0  0  0
   38.6510   34.8360   40.3320 H   0  0  0  0  0  0  0  0  0  0  0  0
   40.0310   29.5850   40.8260 H   0  0  0  0  0  0  0  0  0  0  0  0
   37.5410   27.9980   39.1630 Cl  0  0  0  0  0  0  0  0  0  0  0  0
   37.3590   27.7970   40.8860 C   0  0  0  0  0  0  0  0  0  0  0  0
   37.5910   28.8910   41.6840 C   0  0  0  0  0  0  0  0  0  0  0  0
   37.4600   28.7770   43.0570 C   0  0  0  0  0  0  0  0  0  0  0  0
   37.6350   29.6260   43.7270 H   0  0  0  0  0  0  0  0  0  0  0  0
   37.1010   27.5990   43.6800 C   0  0  0  0  0  0  0  0  0  0  0  0
   37.0030   27.5300   44.7490 H   0  0  0  0  0  0  0  0  0  0  0  0
   36.8700   26.5050   42.8620 C   0  0  0  0  0  0  0  0  0  0  0  0
   36.5870   25.5740   43.3430 H   0  0  0  0  0  0  0  0  0  0  0  0
   36.9990   26.6030   41.4750 C   0  0  0  0  0  0  0  0  0  0  0  0
   36.7040   25.2080   40.4570 Cl  0  0  0  0  0  0  0  0  0  0  0  0
  1  2  2  0  0  0  0
  1  6  1  0  0  0  0
  2  3  1  0  0  0  0
  3 12  1  0  0  0  0
  3  4  2  0  0  0  0
  5  4  1  0  0  0  0
  5  9  1  0  0  0  0
  6  5  2  0  0  0  0
  7 16  1  0  0  0  0
  8  7  2  0  0  0  0
  9 13  1  0  0  0  0
  9  7  1  0  0  0  0
 10  1  1  0  0  0  0
 11  2  1  0  0  0  0
 14 15  1  0  0  0  0
 15 23  2  0  0  0  0
 15 16  1  0  0  0  0
 16 17  2  0  0  0  0
 17 19  1  0  0  0  0
 17 18  1  0  0  0  0
 19 20  1  0  0  0  0
 21 22  1  0  0  0  0
 21 19  2  0  0  0  0
 23 21  1  0  0  0  0
 24 23  1  0  0  0  0
M  END
>  <minimizedAffinity>
-4.69876194

$$$$

 OpenBabel03242510523D

 24 25  0  0  0  0  0  0  0  0999 V2000
   38.3980   25.1290   40.8340 C   0  0  0  0  0  0  0  0  0  0  0  0
   37.5670   24.9000   41.9540 C   0  0  0  0  0  0  0  0  0  0  0  0
   36.9840   26.0270   42.5570 C   0  0  0  0  0  0  0  0  0  0  0  0
   37.2410   27.2680   42.0440 N   0  0  0  0  0  0  0  0  0  0  0  0
   38.0380   27.4380   40.9780 C   0  0  0  0  0  0  0  0  0  0  0  0
   38.6230   26.3650   40.3650 N   0  0  0  0  0  0  0  0  0  0  0  0
   37.9400   29.8180   41.3900 C   0  0  0  0  0  0  0  0  0  0  0  0
   37.4820   29.6880   42.5400 O   0  0  0  0  0  0  0  0  0  0  0  0
   38.2650   28.7530   40.4940 N   0  0  0  0  0  0  0  0  0  0  0  0
   38.8440   24.2640   40.3740 H   0  0  0  0  0  0  0  0  0  0  0  0
   37.3790   23.9120   42.3420 H   0  0  0  0  0  0  0  0  0  0  0  0
   36.3490   25.8440   43.4140 H   0  0  0  0  0  0  0  0  0  0  0  0
   38.6470   28.9160   39.5390 H   0  0  0  0  0  0  0  0  0  0  0  0
   40.6640   31.0870   41.8690 Cl  0  0  0  0  0  0  0  0  0  0  0  0
   39.3570   31.8780   41.0260 C   0  0  0  0  0  0  0  0  0  0  0  0
   38.1790   31.1860   40.8820 C   0  0  0  0  0  0  0  0  0  0  0  0
   37.1160   31.7740   40.2190 C   0  0  0  0  0  0  0  0  0  0  0  0
   36.1610   31.2560   40.0840 H   0  0  0  0  0  0  0  0  0  0  0  0
   37.1780   33.0450   39.6850 C   0  0  0  0  0  0  0  0  0  0  0  0
   36.3390   33.4860   39.1740 H   0  0  0  0  0  0  0  0  0  0  0  0
   38.3710   33.7310   39.8390 C   0  0  0  0  0  0  0  0  0  0  0  0
   38.4290   34.7310   39.4230 H   0  0  0  0  0  0  0  0  0  0  0  0
   39.4540   33.1510   40.5050 C   0  0  0  0  0  0  0  0  0  0  0  0
   40.9560   34.0330   40.6890 Cl  0  0  0  0  0  0  0  0  0  0  0  0
  1  2  1  0  0  0  0
  2 11  1  0  0  0  0
  2  3  2  0  0  0  0
  3 12  1  0  0  0  0
  4  3  1  0  0  0  0
  5  4  2  0  0  0  0
  6  1  2  0  0  0  0
  6  5  1  0  0  0  0
  7  8  2  0  0  0  0
  9  5  1  0  0  0  0
  9  7  1  0  0  0  0
 10  1  1  0  0  0  0
 13  9  1  0  0  0  0
 15 14  1  0  0  0  0
 16 15  1  0  0  0  0
 16  7  1  0  0  0  0
 17 16  2  0  0  0  0
 18 17  1  0  0  0  0
 19 21  2  0  0  0  0
 19 17  1  0  0  0  0
 20 19  1  0  0  0  0
 21 23  1  0  0  0  0
 22 21  1  0  0  0  0
 23 24  1  0  0  0  0
 23 15  2  0  0  0  0
M  END
>  <minimizedAffinity>
-4.63188267

$$$$

 OpenBabel03242510523D

 24 25  0  0  0  0  0  0  0  0999 V2000
   34.3880   27.0090   35.9140 C   0  0  0  0  0  0  0  0  0  0  0  0
   33.3000   27.9080   35.8500 C   0  0  0  0  0  0  0  0  0  0  0  0
   33.1710   28.8300   36.9020 C   0  0  0  0  0  0  0  0  0  0  0  0
   34.0860   28.8160   37.9180 N   0  0  0  0  0  0  0  0  0  0  0  0
   35.1040   27.9420   37.9380 C   0  0  0  0  0  0  0  0  0  0  0  0
   35.2610   27.0310   36.9320 N   0  0  0  0  0  0  0  0  0  0  0  0
   35.5840   28.6810   40.1900 C   0  0  0  0  0  0  0  0  0  0  0  0
   34.4870   29.2510   40.3290 O   0  0  0  0  0  0  0  0  0  0  0  0
   36.0190   27.9800   39.0220 N   0  0  0  0  0  0  0  0  0  0  0  0
   34.4850   26.3030   35.1070 H   0  0  0  0  0  0  0  0  0  0  0  0
   32.5900   27.9010   35.0380 H   0  0  0  0  0  0  0  0  0  0  0  0
   32.3360   29.5160   36.8460 H   0  0  0  0  0  0  0  0  0  0  0  0
   36.9500   27.5180   38.9560 H   0  0  0  0  0  0  0  0  0  0  0  0
   37.6800   30.8870   40.2450 Cl  0  0  0  0  0  0  0  0  0  0  0  0
   37.5360   29.6510   41.4670 C   0  0  0  0  0  0  0  0  0  0  0  0
   36.5410   28.7160   41.3160 C   0  0  0  0  0  0  0  0  0  0  0  0
   36.3900   27.7180   42.2630 C   0  0  0  0  0  0  0  0  0  0  0  0
   35.6100   26.9530   42.1770 H   0  0  0  0  0  0  0  0  0  0  0  0
   37.2020   27.6100   43.3730 C   0  0  0  0  0  0  0  0  0  0  0  0
   37.0690   26.8260   44.0990 H   0  0  0  0  0  0  0  0  0  0  0  0
   38.2000   28.5600   43.5120 C   0  0  0  0  0  0  0  0  0  0  0  0
   38.8440   28.4830   44.3830 H   0  0  0  0  0  0  0  0  0  0  0  0
   38.3660   29.5740   42.5660 C   0  0  0  0  0  0  0  0  0  0  0  0
   39.6340   30.7670   42.7590 Cl  0  0  0  0  0  0  0  0  0  0  0  0
  1  6  1  0  0  0  0
  2  1  2  0  0  0  0
  2  3  1  0  0  0  0
  3  4  2  0  0  0  0
  4  5  1  0  0  0  0
  5  9  1  0  0  0  0
  6  5  2  0  0  0  0
  7  8  2  0  0  0  0
  7 16  1  0  0  0  0
  9  7  1  0  0  0  0
 10  1  1  0  0  0  0
 11  2  1  0  0  0  0
 12  3  1  0  0  0  0
 13  9  1  0  0  0  0
 14 15  1  0  0  0  0
 15 23  1  0  0  0  0
 16 15  2  0  0  0  0
 16 17  1  0  0  0  0
 17 19  2  0  0  0  0
 18 17  1  0  0  0  0
 19 21  1  0  0  0  0
 19 20  1  0  0  0  0
 21 22  1  0  0  0  0
 23 24  1  0  0  0  0
 23 21  2  0  0  0  0
M  END
>  <minimizedAffinity>
-4.57887411

$$$$

 OpenBabel03242510523D

 24 25  0  0  0  0  0  0  0  0999 V2000
   41.0700   33.0390   38.0260 C   0  0  0  0  0  0  0  0  0  0  0  0
   41.5790   34.0170   38.9100 C   0  0  0  0  0  0  0  0  0  0  0  0
   41.4960   33.7410   40.2850 C   0  0  0  0  0  0  0  0  0  0  0  0
   40.9380   32.5620   40.6960 N   0  0  0  0  0  0  0  0  0  0  0  0
   40.4670   31.6620   39.8200 C   0  0  0  0  0  0  0  0  0  0  0  0
   40.5300   31.8960   38.4750 N   0  0  0  0  0  0  0  0  0  0  0  0
   39.5310   30.4540   41.6940 C   0  0  0  0  0  0  0  0  0  0  0  0
   39.6650   31.4050   42.4850 O   0  0  0  0  0  0  0  0  0  0  0  0
   39.8990   30.4580   40.3130 N   0  0  0  0  0  0  0  0  0  0  0  0
   41.1350   33.2530   36.9730 H   0  0  0  0  0  0  0  0  0  0  0  0
   42.0150   34.9400   38.5620 H   0  0  0  0  0  0  0  0  0  0  0  0
   41.8880   34.4940   40.9550 H   0  0  0  0  0  0  0  0  0  0  0  0
   39.7650   29.6330   39.6920 H   0  0  0  0  0  0  0  0  0  0  0  0
   41.4020   28.2440   42.6290 Cl  0  0  0  0  0  0  0  0  0  0  0  0
   39.6630   28.1200   42.6530 C   0  0  0  0  0  0  0  0  0  0  0  0
   38.9390   29.1980   42.2010 C   0  0  0  0  0  0  0  0  0  0  0  0
   37.5570   29.1430   42.2040 C   0  0  0  0  0  0  0  0  0  0  0  0
   36.9450   29.9800   41.8510 H   0  0  0  0  0  0  0  0  0  0  0  0
   36.8510   28.0420   42.6460 C   0  0  0  0  0  0  0  0  0  0  0  0
   35.7750   28.0190   42.6390 H   0  0  0  0  0  0  0  0  0  0  0  0
   37.5940   26.9640   43.0980 C   0  0  0  0  0  0  0  0  0  0  0  0
   37.0480   26.0940   43.4470 H   0  0  0  0  0  0  0  0  0  0  0  0
   38.9900   27.0030   43.1020 C   0  0  0  0  0  0  0  0  0  0  0  0
   39.9130   25.6300   43.6790 Cl  0  0  0  0  0  0  0  0  0  0  0  0
  1  6  2  0  0  0  0
  1  2  1  0  0  0  0
  2  3  2  0  0  0  0
  3  4  1  0  0  0  0
  3 12  1  0  0  0  0
  5  9  1  0  0  0  0
  5  4  2  0  0  0  0
  6  5  1  0  0  0  0
  7 16  1  0  0  0  0
  7  8  2  0  0  0  0
  9  7  1  0  0  0  0
 10  1  1  0  0  0  0
 11  2  1  0  0  0  0
 13  9  1  0  0  0  0
 14 15  1  0  0  0  0
 15 23  1  0  0  0  0
 16 17  1  0  0  0  0
 16 15  2  0  0  0  0
 17 19  2  0  0  0  0
 18 17  1  0  0  0  0
 19 21  1  0  0  0  0
 20 19  1  0  0  0  0
 21 23  2  0  0  0  0
 21 22  1  0  0  0  0
 23 24  1  0  0  0  0
M  END
>  <minimizedAffinity>
-4.56664801

$$$$

 OpenBabel03242510523D

 24 25  0  0  0  0  0  0  0  0999 V2000
   37.7730   33.7970   39.8100 C   0  0  0  0  0  0  0  0  0  0  0  0
   39.1090   34.1600   40.0960 C   0  0  0  0  0  0  0  0  0  0  0  0
   39.9490   33.1540   40.6010 C   0  0  0  0  0  0  0  0  0  0  0  0
   39.4470   31.8960   40.7890 N   0  0  0  0  0  0  0  0  0  0  0  0
   38.1700   31.5970   40.5030 C   0  0  0  0  0  0  0  0  0  0  0  0
   37.3240   32.5500   40.0100 N   0  0  0  0  0  0  0  0  0  0  0  0
   38.5210   29.4570   41.5720 C   0  0  0  0  0  0  0  0  0  0  0  0
   39.5770   29.8090   42.1270 O   0  0  0  0  0  0  0  0  0  0  0  0
   37.7110   30.2720   40.7220 N   0  0  0  0  0  0  0  0  0  0  0  0
   37.1320   34.5700   39.4220 H   0  0  0  0  0  0  0  0  0  0  0  0
   39.4840   35.1590   39.9400 H   0  0  0  0  0  0  0  0  0  0  0  0
   40.9700   33.4380   40.8180 H   0  0  0  0  0  0  0  0  0  0  0  0
   36.8330   29.9290   40.2800 H   0  0  0  0  0  0  0  0  0  0  0  0
   39.5140   27.2530   39.7240 Cl  0  0  0  0  0  0  0  0  0  0  0  0
   38.4010   26.9900   41.0410 C   0  0  0  0  0  0  0  0  0  0  0  0
   38.0370   28.0780   41.7960 C   0  0  0  0  0  0  0  0  0  0  0  0
   37.1560   27.9150   42.8510 C   0  0  0  0  0  0  0  0  0  0  0  0
   36.8410   28.7580   43.4760 H   0  0  0  0  0  0  0  0  0  0  0  0
   36.6130   26.6930   43.1910 C   0  0  0  0  0  0  0  0  0  0  0  0
   35.9290   26.5870   44.0150 H   0  0  0  0  0  0  0  0  0  0  0  0
   36.9890   25.6050   42.4210 C   0  0  0  0  0  0  0  0  0  0  0  0
   36.5670   24.6400   42.6810 H   0  0  0  0  0  0  0  0  0  0  0  0
   37.8770   25.7520   41.3530 C   0  0  0  0  0  0  0  0  0  0  0  0
   38.3420   24.3650   40.3890 Cl  0  0  0  0  0  0  0  0  0  0  0  0
  1  6  2  0  0  0  0
  1  2  1  0  0  0  0
  2  3  2  0  0  0  0
  3  4  1  0  0  0  0
  3 12  1  0  0  0  0
  5  9  1  0  0  0  0
  5  4  2  0  0  0  0
  6  5  1  0  0  0  0
  7 16  1  0  0  0  0
  7  8  2  0  0  0  0
  9  7  1  0  0  0  0
 10  1  1  0  0  0  0
 11  2  1  0  0  0  0
 13  9  1  0  0  0  0
 14 15  1  0  0  0  0
 15 23  2  0  0  0  0
 15 16  1  0  0  0  0
 16 17  2  0  0  0  0
 17 19  1  0  0  0  0
 17 18  1  0  0  0  0
 19 20  1  0  0  0  0
 21 22  1  0  0  0  0
 21 19  2  0  0  0  0
 23 21  1  0  0  0  0
 24 23  1  0  0  0  0
M  END
>  <minimizedAffinity>
-4.53040075

$$$$

 OpenBabel03242510523D

 24 25  0  0  0  0  0  0  0  0999 V2000
   37.8920   24.6370   40.6880 C   0  0  0  0  0  0  0  0  0  0  0  0
   37.1360   24.4330   41.8650 C   0  0  0  0  0  0  0  0  0  0  0  0
   36.8110   25.5730   42.6200 C   0  0  0  0  0  0  0  0  0  0  0  0
   37.2330   26.8010   42.1900 N   0  0  0  0  0  0  0  0  0  0  0  0
   37.9500   26.9460   41.0650 C   0  0  0  0  0  0  0  0  0  0  0  0
   38.2840   25.8600   40.3060 N   0  0  0  0  0  0  0  0  0  0  0  0
   38.3010   29.2560   41.6880 C   0  0  0  0  0  0  0  0  0  0  0  0
   37.9310   29.0860   42.8640 O   0  0  0  0  0  0  0  0  0  0  0  0
   38.3560   28.2480   40.6750 N   0  0  0  0  0  0  0  0  0  0  0  0
   38.1390   23.7620   40.1120 H   0  0  0  0  0  0  0  0  0  0  0  0
   36.8140   23.4550   42.1840 H   0  0  0  0  0  0  0  0  0  0  0  0
   36.2320   25.4100   43.5190 H   0  0  0  0  0  0  0  0  0  0  0  0
   38.6750   28.4430   39.7030 H   0  0  0  0  0  0  0  0  0  0  0  0
   36.2320   31.1120   40.4480 Cl  0  0  0  0  0  0  0  0  0  0  0  0
   37.9010   31.5480   40.7040 C   0  0  0  0  0  0  0  0  0  0  0  0
   38.7260   30.6100   41.2760 C   0  0  0  0  0  0  0  0  0  0  0  0
   40.0570   30.9150   41.4990 C   0  0  0  0  0  0  0  0  0  0  0  0
   40.7470   30.1940   41.9510 H   0  0  0  0  0  0  0  0  0  0  0  0
   40.6120   32.1350   41.1700 C   0  0  0  0  0  0  0  0  0  0  0  0
   41.6500   32.3520   41.3510 H   0  0  0  0  0  0  0  0  0  0  0  0
   39.7680   33.0700   40.5950 C   0  0  0  0  0  0  0  0  0  0  0  0
   40.1950   34.0330   40.3330 H   0  0  0  0  0  0  0  0  0  0  0  0
   38.4220   32.7800   40.3630 C   0  0  0  0  0  0  0  0  0  0  0  0
   37.3690   33.9750   39.6350 Cl  0  0  0  0  0  0  0  0  0  0  0  0
  1  2  1  0  0  0  0
  2 11  1  0  0  0  0
  2  3  2  0  0  0  0
  3 12  1  0  0  0  0
  4  3  1  0  0  0  0
  5  4  2  0  0  0  0
  6  1  2  0  0  0  0
  6  5  1  0  0  0  0
  7  8  2  0  0  0  0
  9  5  1  0  0  0  0
  9  7  1  0  0  0  0
 10  1  1  0  0  0  0
 13  9  1  0  0  0  0
 14 15  1  0  0  0  0
 15 16  1  0  0  0  0
 16 17  2  0  0  0  0
 16  7  1  0  0  0  0
 17 18  1  0  0  0  0
 19 20  1  0  0  0  0
 19 17  1  0  0  0  0
 21 19  2  0  0  0  0
 22 21  1  0  0  0  0
 23 21  1  0  0  0  0
 23 15  2  0  0  0  0
 24 23  1  0  0  0  0
M  END
>  <minimizedAffinity>
-4.49840975

$$$$
