
 OpenBabel03252503313D

 43 45  0  0  1  0  0  0  0  0999 V2000
   45.4530   34.4300   42.2100 C   0  0  0  0  0  0  0  0  0  0  0  0
   46.5380   35.1990   41.6930 C   0  0  0  0  0  0  0  0  0  0  0  0
   47.8240   34.8110   42.1180 C   0  0  0  0  0  0  0  0  0  0  0  0
   47.9290   33.7660   42.9610 N   0  0  0  0  0  0  0  0  0  0  0  0
   46.8650   33.0730   43.4200 C   0  0  0  0  0  0  0  0  0  0  0  0
   45.6180   33.4140   43.0360 N   0  0  0  0  0  0  0  0  0  0  0  0
   43.8370   34.3300   40.5140 C   0  0  0  0  0  0  0  0  0  0  0  0
   44.7650   33.7700   39.8370 O   0  0  0  0  0  0  0  0  0  0  0  0
   44.1090   34.7610   41.8270 N   0  0  0  0  0  0  0  0  0  0  0  0
   42.5760   34.4770   39.8820 N   0  0  0  0  0  0  0  0  0  0  0  0
   42.4690   34.2920   38.4230 C   0  0  0  0  0  0  0  0  0  0  0  0
   41.3530   35.2250   38.0650 C   0  0  0  0  0  0  0  0  0  0  0  0
   40.8400   35.7840   39.3600 C   0  0  0  0  0  0  0  0  0  0  0  0
   41.2690   34.7700   40.3940 C   0  0  1  0  0  0  0  0  0  0  0  0
   46.3220   36.0060   41.0300 H   0  0  0  0  0  0  0  0  0  0  0  0
   47.0360   32.2370   44.1030 H   0  0  0  0  0  0  0  0  0  0  0  0
   43.3740   35.2500   42.3800 H   0  0  0  0  0  0  0  0  0  0  0  0
   43.4040   34.4880   37.9030 H   0  0  0  0  0  0  0  0  0  0  0  0
   42.0940   33.2360   38.2930 H   0  0  0  0  0  0  0  0  0  0  0  0
   40.5200   34.6940   37.5720 H   0  0  0  0  0  0  0  0  0  0  0  0
   41.6930   36.0040   37.3570 H   0  0  0  0  0  0  0  0  0  0  0  0
   41.6110   36.6100   39.5620 H   0  0  0  0  0  0  0  0  0  0  0  0
   39.9360   36.2990   39.3950 H   0  0  0  0  0  0  0  0  0  0  0  0
   41.1650   35.2740   41.3470 H   0  0  0  0  0  0  0  0  0  0  0  0
   39.7900   33.0390   41.5890 C   0  0  0  0  0  0  0  0  0  0  0  0
   39.7940   33.8840   42.4970 O   0  0  0  0  0  0  0  0  0  0  0  0
   40.4770   33.5470   40.4200 N   0  0  0  0  0  0  0  0  0  0  0  0
   40.4110   32.9990   39.5050 H   0  0  0  0  0  0  0  0  0  0  0  0
   41.6140   30.9170   42.6610 Cl  0  0  0  0  0  0  0  0  0  0  0  0
   39.9990   30.6540   42.0290 C   0  0  0  0  0  0  0  0  0  0  0  0
   39.2340   31.7230   41.5520 C   0  0  0  0  0  0  0  0  0  0  0  0
   37.9620   31.5190   41.0530 C   0  0  0  0  0  0  0  0  0  0  0  0
   37.3660   32.3670   40.6790 H   0  0  0  0  0  0  0  0  0  0  0  0
   37.4360   30.2220   41.0270 C   0  0  0  0  0  0  0  0  0  0  0  0
   36.4260   30.0670   40.6290 H   0  0  0  0  0  0  0  0  0  0  0  0
   38.2130   29.1660   41.5070 C   0  0  0  0  0  0  0  0  0  0  0  0
   37.7960   28.1710   41.4800 H   0  0  0  0  0  0  0  0  0  0  0  0
   39.4920   29.3920   42.0050 C   0  0  0  0  0  0  0  0  0  0  0  0
   40.3780   27.9790   42.5840 Cl  0  0  0  0  0  0  0  0  0  0  0  0
   48.9160   35.6150   41.5730 C   0  0  0  0  0  0  0  0  0  0  0  0
   50.1200   35.0380   41.9500 F   0  0  0  0  0  0  0  0  0  0  0  0
   48.8820   36.8500   42.2380 F   0  0  0  0  0  0  0  0  0  0  0  0
   48.8880   35.7410   40.2160 F   0  0  0  0  0  0  0  0  0  0  0  0
  1  6  1  0  0  0  0
  2  3  1  0  0  0  0
  2  1  2  0  0  0  0
  3  4  2  0  0  0  0
  4  5  1  0  0  0  0
  5 16  1  0  0  0  0
  6  5  2  0  0  0  0
  7  9  1  0  0  0  0
  8  7  2  0  0  0  0
  9  1  1  0  0  0  0
  9 17  1  0  0  0  0
 10 14  1  0  0  0  0
 10  7  1  0  0  0  0
 11 10  1  0  0  0  0
 12 11  1  0  0  0  0
 12 13  1  0  0  0  0
 13 23  1  0  0  0  0
 13 22  1  0  0  0  0
 13 14  1  0  0  0  0
 14 27  1  0  0  0  0
 14 24  1  1  0  0  0
 15  2  1  0  0  0  0
 18 11  1  0  0  0  0
 19 11  1  0  0  0  0
 20 12  1  0  0  0  0
 21 12  1  0  0  0  0
 25 26  2  0  0  0  0
 27 25  1  0  0  0  0
 28 27  1  0  0  0  0
 30 29  1  0  0  0  0
 31 25  1  0  0  0  0
 31 30  2  0  0  0  0
 32 31  1  0  0  0  0
 33 32  1  0  0  0  0
 34 32  2  0  0  0  0
 34 36  1  0  0  0  0
 35 34  1  0  0  0  0
 36 38  2  0  0  0  0
 37 36  1  0  0  0  0
 38 30  1  0  0  0  0
 38 39  1  0  0  0  0
 40 41  1  0  0  0  0
 40  3  1  0  0  0  0
 40 42  1  0  0  0  0
 43 40  1  0  0  0  0
M  END
>  <minimizedAffinity>
-7.2864666

>  <minimizedRMSD>
1.13469076

$$$$
