
 OpenBabel03252507463D

 39 41  0  0  0  0  0  0  0  0999 V2000
   48.5320   33.8780   41.3130 C   0  0  0  0  0  0  0  0  0  0  0  0
   48.7060   32.5390   40.9580 C   0  0  0  0  0  0  0  0  0  0  0  0
   49.8510   31.8530   41.3500 C   0  0  0  0  0  0  0  0  0  0  0  0
   50.7780   32.5320   42.0810 N   0  0  0  0  0  0  0  0  0  0  0  0
   50.5740   33.8330   42.4070 C   0  0  0  0  0  0  0  0  0  0  0  0
   49.4740   34.4640   42.0210 N   0  0  0  0  0  0  0  0  0  0  0  0
   49.9730   30.8180   41.0690 H   0  0  0  0  0  0  0  0  0  0  0  0
   51.3620   34.3080   42.9950 H   0  0  0  0  0  0  0  0  0  0  0  0
   47.2970   34.5280   40.8600 C   0  0  0  0  0  0  0  0  0  0  0  0
   46.7160   33.9210   40.1750 H   0  0  0  0  0  0  0  0  0  0  0  0
   47.6300   35.4230   40.2570 H   0  0  0  0  0  0  0  0  0  0  0  0
   46.4740   35.0810   41.9780 C   0  0  0  0  0  0  0  0  0  0  0  0
   46.7500   34.5740   42.9260 H   0  0  0  0  0  0  0  0  0  0  0  0
   46.6650   36.1660   42.1680 H   0  0  0  0  0  0  0  0  0  0  0  0
   45.0050   34.9770   41.7530 C   0  0  0  0  0  0  0  0  0  0  0  0
   44.1080   35.4200   42.7740 C   0  0  0  0  0  0  0  0  0  0  0  0
   42.4540   35.0890   42.0360 S   0  0  0  0  0  0  0  0  0  0  0  0
   43.2680   34.4020   40.4590 C   0  0  0  0  0  0  0  0  0  0  0  0
   44.3740   34.5150   40.7080 N   0  0  0  0  0  0  0  0  0  0  0  0
   44.3660   35.8440   43.7360 H   0  0  0  0  0  0  0  0  0  0  0  0
   42.5300   33.9250   39.3810 O   0  0  0  0  0  0  0  0  0  0  0  0
   40.5420   34.3210   37.6830 O   0  0  0  0  0  0  0  0  0  0  0  0
   41.6200   35.0440   38.4830 P   0  0  0  0  0  0  0  0  0  0  0  0
   40.8790   36.1060   39.5850 O   0  0  0  0  0  0  0  0  0  0  0  0
   40.3450   35.6120   40.2280 H   0  0  0  0  0  0  0  0  0  0  0  0
   42.6440   35.9420   37.4850 O   0  0  0  0  0  0  0  0  0  0  0  0
   42.8760   35.3980   36.6930 H   0  0  0  0  0  0  0  0  0  0  0  0
   47.4510   31.6830   39.9890 S   0  0  0  0  0  0  0  0  0  0  0  0
   44.5910   31.0710   38.6730 Cl  0  0  0  0  0  0  0  0  0  0  0  0
   44.7390   31.0750   40.4170 C   0  0  0  0  0  0  0  0  0  0  0  0
   45.9850   31.3420   40.9480 C   0  0  0  0  0  0  0  0  0  0  0  0
   46.1520   31.3560   42.3170 C   0  0  0  0  0  0  0  0  0  0  0  0
   47.0710   31.5510   42.8300 H   0  0  0  0  0  0  0  0  0  0  0  0
   45.1120   31.1100   43.1800 C   0  0  0  0  0  0  0  0  0  0  0  0
   45.1940   31.1100   44.2680 H   0  0  0  0  0  0  0  0  0  0  0  0
   43.8440   30.8380   42.6580 C   0  0  0  0  0  0  0  0  0  0  0  0
   42.9720   30.6340   43.2990 H   0  0  0  0  0  0  0  0  0  0  0  0
   43.7020   30.8300   41.2890 C   0  0  0  0  0  0  0  0  0  0  0  0
   42.1310   30.4940   40.6060 Cl  0  0  0  0  0  0  0  0  0  0  0  0
  1  6  1  0  0  0  0
  2  1  2  0  0  0  0
  2  3  1  0  0  0  0
  3  4  2  0  0  0  0
  4  5  1  0  0  0  0
  5  8  1  0  0  0  0
  6  5  2  0  0  0  0
  7  3  1  0  0  0  0
  9  1  1  0  0  0  0
  9 12  1  0  0  0  0
 10  9  1  0  0  0  0
 11  9  1  0  0  0  0
 12 14  1  0  0  0  0
 12 13  1  0  0  0  0
 15 12  1  0  0  0  0
 15 16  2  0  0  0  0
 16 20  1  0  0  0  0
 17 16  1  0  0  0  0
 18 19  2  0  0  0  0
 18 17  1  0  0  0  0
 19 15  1  0  0  0  0
 21 18  1  0  0  0  0
 22 23  2  0  0  0  0
 23 21  1  0  0  0  0
 23 24  1  0  0  0  0
 24 25  1  0  0  0  0
 26 23  1  0  0  0  0
 27 26  1  0  0  0  0
 28 31  1  0  0  0  0
 28  2  1  0  0  0  0
 29 30  1  0  0  0  0
 30 31  2  0  0  0  0
 30 38  1  0  0  0  0
 31 32  1  0  0  0  0
 32 33  1  0  0  0  0
 32 34  2  0  0  0  0
 34 35  1  0  0  0  0
 36 34  1  0  0  0  0
 36 37  1  0  0  0  0
 38 36  2  0  0  0  0
 39 38  1  0  0  0  0
M  END
>  <minimizedAffinity>
-4.5178628

>  <minimizedRMSD>
1.19534957

$$$$
