
 OpenBabel03252500223D

 38 40  0  0  1  0  0  0  0  0999 V2000
   36.1450   28.9010   39.3450 C   0  0  1  0  0  0  0  0  0  0  0  0
   34.9490   29.0010   38.3780 C   0  0  0  0  0  0  0  0  0  0  0  0
   34.5340   27.8110   37.6340 C   0  0  0  0  0  0  0  0  0  0  0  0
   35.4050   26.5750   37.9090 C   0  0  0  0  0  0  0  0  0  0  0  0
   36.8020   27.1330   37.7470 C   0  0  0  0  0  0  0  0  0  0  0  0
   37.0790   27.8120   39.0980 C   0  0  2  0  0  0  0  0  0  0  0  0
   35.5580   28.7710   40.2900 H   0  0  0  0  0  0  0  0  0  0  0  0
   34.4280   29.9150   38.2470 H   0  0  0  0  0  0  0  0  0  0  0  0
   33.7030   27.9170   36.9780 H   0  0  0  0  0  0  0  0  0  0  0  0
   35.1850   26.2290   38.9270 H   0  0  0  0  0  0  0  0  0  0  0  0
   35.1930   25.9040   37.0900 H   0  0  0  0  0  0  0  0  0  0  0  0
   37.5670   26.4110   37.4650 H   0  0  0  0  0  0  0  0  0  0  0  0
   36.8220   27.9380   36.9890 H   0  0  0  0  0  0  0  0  0  0  0  0
   38.1300   28.2190   38.9800 H   0  0  0  0  0  0  0  0  0  0  0  0
   38.9180   28.4140   41.4960 Cl  0  0  0  0  0  0  0  0  0  0  0  0
   38.0390   26.9230   41.2340 C   0  0  0  0  0  0  0  0  0  0  0  0
   37.2290   26.7670   40.1370 C   0  0  0  0  0  0  0  0  0  0  0  0
   36.6340   25.5220   40.1150 C   0  0  0  0  0  0  0  0  0  0  0  0
   35.9830   25.2560   39.2820 H   0  0  0  0  0  0  0  0  0  0  0  0
   36.7900   24.5190   41.0450 C   0  0  0  0  0  0  0  0  0  0  0  0
   36.2950   23.5740   40.9660 H   0  0  0  0  0  0  0  0  0  0  0  0
   37.6170   24.7560   42.1140 C   0  0  0  0  0  0  0  0  0  0  0  0
   37.7530   23.9910   42.8490 H   0  0  0  0  0  0  0  0  0  0  0  0
   38.2520   25.9740   42.2120 C   0  0  0  0  0  0  0  0  0  0  0  0
   39.2870   26.2060   43.5940 Cl  0  0  0  0  0  0  0  0  0  0  0  0
   37.5810   30.6740   38.2640 C   0  0  0  0  0  0  0  0  0  0  0  0
   36.7300   30.2840   39.3140 C   0  0  0  0  0  0  0  0  0  0  0  0
   36.5640   31.1820   40.3720 C   0  0  0  0  0  0  0  0  0  0  0  0
   37.2140   32.3710   40.3620 N   0  0  0  0  0  0  0  0  0  0  0  0
   38.0310   32.6900   39.3160 C   0  0  0  0  0  0  0  0  0  0  0  0
   38.2020   31.8350   38.2780 N   0  0  0  0  0  0  0  0  0  0  0  0
   38.7690   33.8960   39.2810 N   0  0  0  0  0  0  0  0  0  0  0  0
   37.7750   30.0750   37.3870 H   0  0  0  0  0  0  0  0  0  0  0  0
   39.6740   33.9580   38.7640 H   0  0  0  0  0  0  0  0  0  0  0  0
   38.4940   34.7930   39.7430 H   0  0  0  0  0  0  0  0  0  0  0  0
   35.6950   30.8240   41.4180 N   0  0  0  0  0  0  0  0  0  0  0  0
   35.9110   30.5620   42.4060 H   0  0  0  0  0  0  0  0  0  0  0  0
   34.6430   30.7620   41.3640 H   0  0  0  0  0  0  0  0  0  0  0  0
  1  7  1  1  0  0  0
  2  1  1  0  0  0  0
  3  4  1  0  0  0  0
  3  2  2  0  0  0  0
  4 10  1  0  0  0  0
  5  4  1  0  0  0  0
  5  6  1  0  0  0  0
  6 14  1  6  0  0  0
  6  1  1  0  0  0  0
  6 17  1  0  0  0  0
  8  2  1  0  0  0  0
  9  3  1  0  0  0  0
 11  4  1  0  0  0  0
 12  5  1  0  0  0  0
 13  5  1  0  0  0  0
 16 15  1  0  0  0  0
 16 24  1  0  0  0  0
 17 16  2  0  0  0  0
 18 17  1  0  0  0  0
 18 20  2  0  0  0  0
 19 18  1  0  0  0  0
 20 22  1  0  0  0  0
 21 20  1  0  0  0  0
 22 24  2  0  0  0  0
 22 23  1  0  0  0  0
 24 25  1  0  0  0  0
 26 31  2  0  0  0  0
 26 27  1  0  0  0  0
 27  1  1  0  0  0  0
 27 28  2  0  0  0  0
 28 36  1  0  0  0  0
 29 28  1  0  0  0  0
 30 29  2  0  0  0  0
 31 30  1  0  0  0  0
 32 30  1  0  0  0  0
 32 35  1  0  0  0  0
 33 26  1  0  0  0  0
 34 32  1  0  0  0  0
 36 37  1  0  0  0  0
 38 36  1  0  0  0  0
M  END
>  <minimizedAffinity>
-6.50912714

$$$$

 OpenBabel03252500223D

 38 40  0  0  1  0  0  0  0  0999 V2000
   39.2960   28.3390   41.4170 C   0  0  1  0  0  0  0  0  0  0  0  0
   40.5830   28.7320   42.1690 C   0  0  0  0  0  0  0  0  0  0  0  0
   41.0260   27.9140   43.2990 C   0  0  0  0  0  0  0  0  0  0  0  0
   40.0900   26.7360   43.6130 C   0  0  0  0  0  0  0  0  0  0  0  0
   38.7350   27.4100   43.6380 C   0  0  0  0  0  0  0  0  0  0  0  0
   38.3530   27.5100   42.1520 C   0  0  2  0  0  0  0  0  0  0  0  0
   39.7840   27.8010   40.5650 H   0  0  0  0  0  0  0  0  0  0  0  0
   41.1460   29.5830   41.8800 H   0  0  0  0  0  0  0  0  0  0  0  0
   41.9190   28.2140   43.7920 H   0  0  0  0  0  0  0  0  0  0  0  0
   40.1970   25.9970   42.8090 H   0  0  0  0  0  0  0  0  0  0  0  0
   40.3550   26.4360   44.6150 H   0  0  0  0  0  0  0  0  0  0  0  0
   37.9750   26.9180   44.2440 H   0  0  0  0  0  0  0  0  0  0  0  0
   38.8160   28.4500   44.0050 H   0  0  0  0  0  0  0  0  0  0  0  0
   37.3340   28.0040   42.1730 H   0  0  0  0  0  0  0  0  0  0  0  0
   40.2390   26.3470   40.0100 Cl  0  0  0  0  0  0  0  0  0  0  0  0
   38.8290   25.5470   40.6710 C   0  0  0  0  0  0  0  0  0  0  0  0
   38.0670   26.1500   41.6400 C   0  0  0  0  0  0  0  0  0  0  0  0
   37.0050   25.3560   42.0200 C   0  0  0  0  0  0  0  0  0  0  0  0
   36.3020   25.7270   42.7660 H   0  0  0  0  0  0  0  0  0  0  0  0
   36.6930   24.1070   41.5300 C   0  0  0  0  0  0  0  0  0  0  0  0
   35.8500   23.5460   41.8720 H   0  0  0  0  0  0  0  0  0  0  0  0
   37.5070   23.5750   40.5630 C   0  0  0  0  0  0  0  0  0  0  0  0
   37.2850   22.6060   40.1670 H   0  0  0  0  0  0  0  0  0  0  0  0
   38.5920   24.3030   40.1250 C   0  0  0  0  0  0  0  0  0  0  0  0
   39.5820   23.5650   38.8960 Cl  0  0  0  0  0  0  0  0  0  0  0  0
   39.0040   30.8350   41.6600 C   0  0  0  0  0  0  0  0  0  0  0  0
   38.7660   29.6570   40.9290 C   0  0  0  0  0  0  0  0  0  0  0  0
   37.9190   29.7500   39.8210 C   0  0  0  0  0  0  0  0  0  0  0  0
   37.3600   30.9390   39.4920 N   0  0  0  0  0  0  0  0  0  0  0  0
   37.6260   32.0470   40.2440 C   0  0  0  0  0  0  0  0  0  0  0  0
   38.4480   31.9790   41.3200 N   0  0  0  0  0  0  0  0  0  0  0  0
   37.0300   33.3010   39.9710 N   0  0  0  0  0  0  0  0  0  0  0  0
   39.6510   30.8930   42.5220 H   0  0  0  0  0  0  0  0  0  0  0  0
   36.8670   33.9960   40.7330 H   0  0  0  0  0  0  0  0  0  0  0  0
   36.7130   33.6340   39.0320 H   0  0  0  0  0  0  0  0  0  0  0  0
   37.6910   28.5900   39.0600 N   0  0  0  0  0  0  0  0  0  0  0  0
   36.8280   28.0080   38.9710 H   0  0  0  0  0  0  0  0  0  0  0  0
   38.3870   28.1070   38.4310 H   0  0  0  0  0  0  0  0  0  0  0  0
  1  7  1  6  0  0  0
  1  6  1  0  0  0  0
  1  2  1  0  0  0  0
  2  3  2  0  0  0  0
  3  4  1  0  0  0  0
  3  9  1  0  0  0  0
  4  5  1  0  0  0  0
  4 11  1  0  0  0  0
  5 13  1  0  0  0  0
  5 12  1  0  0  0  0
  6 14  1  6  0  0  0
  6  5  1  0  0  0  0
  8  2  1  0  0  0  0
 10  4  1  0  0  0  0
 15 16  1  0  0  0  0
 16 17  1  0  0  0  0
 17 18  2  0  0  0  0
 17  6  1  0  0  0  0
 18 19  1  0  0  0  0
 20 21  1  0  0  0  0
 20 18  1  0  0  0  0
 22 20  2  0  0  0  0
 23 22  1  0  0  0  0
 24 22  1  0  0  0  0
 24 16  2  0  0  0  0
 25 24  1  0  0  0  0
 26 33  1  0  0  0  0
 27  1  1  0  0  0  0
 27 26  2  0  0  0  0
 28 27  1  0  0  0  0
 29 28  2  0  0  0  0
 29 30  1  0  0  0  0
 30 31  2  0  0  0  0
 31 26  1  0  0  0  0
 32 30  1  0  0  0  0
 32 34  1  0  0  0  0
 35 32  1  0  0  0  0
 36 28  1  0  0  0  0
 37 36  1  0  0  0  0
 38 36  1  0  0  0  0
M  END
>  <minimizedAffinity>
-5.84617233

$$$$

 OpenBabel03252500223D

 38 40  0  0  1  0  0  0  0  0999 V2000
   39.7390   32.5770   39.9440 C   0  0  1  0  0  0  0  0  0  0  0  0
   38.7300   33.7220   39.7250 C   0  0  0  0  0  0  0  0  0  0  0  0
   37.3030   33.4090   39.6530 C   0  0  0  0  0  0  0  0  0  0  0  0
   36.9920   31.9090   39.7810 C   0  0  0  0  0  0  0  0  0  0  0  0
   37.9630   31.3010   38.7930 C   0  0  0  0  0  0  0  0  0  0  0  0
   39.2860   31.2460   39.5720 C   0  0  2  0  0  0  0  0  0  0  0  0
   39.8690   32.7060   41.0490 H   0  0  0  0  0  0  0  0  0  0  0  0
   39.0570   34.7260   39.6270 H   0  0  0  0  0  0  0  0  0  0  0  0
   36.6360   34.2240   39.5040 H   0  0  0  0  0  0  0  0  0  0  0  0
   37.1830   31.6140   40.8210 H   0  0  0  0  0  0  0  0  0  0  0  0
   35.9860   31.8040   39.4020 H   0  0  0  0  0  0  0  0  0  0  0  0
   37.6690   30.3390   38.3760 H   0  0  0  0  0  0  0  0  0  0  0  0
   38.1380   31.9820   37.9390 H   0  0  0  0  0  0  0  0  0  0  0  0
   40.0090   30.7790   38.8350 H   0  0  0  0  0  0  0  0  0  0  0  0
   39.4750   28.2810   38.7500 Cl  0  0  0  0  0  0  0  0  0  0  0  0
   39.2190   28.8740   40.3770 C   0  0  0  0  0  0  0  0  0  0  0  0
   39.1710   30.2210   40.6370 C   0  0  0  0  0  0  0  0  0  0  0  0
   38.9570   30.4750   41.9750 C   0  0  0  0  0  0  0  0  0  0  0  0
   38.8710   31.5070   42.3160 H   0  0  0  0  0  0  0  0  0  0  0  0
   38.8050   29.5420   42.9770 C   0  0  0  0  0  0  0  0  0  0  0  0
   38.6430   29.8110   43.9990 H   0  0  0  0  0  0  0  0  0  0  0  0
   38.8690   28.2150   42.6340 C   0  0  0  0  0  0  0  0  0  0  0  0
   38.7540   27.4720   43.3940 H   0  0  0  0  0  0  0  0  0  0  0  0
   39.0780   27.8730   41.3160 C   0  0  0  0  0  0  0  0  0  0  0  0
   39.1470   26.1710   40.9520 Cl  0  0  0  0  0  0  0  0  0  0  0  0
   41.0890   32.9590   37.8450 C   0  0  0  0  0  0  0  0  0  0  0  0
   40.9740   33.0680   39.2420 C   0  0  0  0  0  0  0  0  0  0  0  0
   42.0930   33.5230   39.9460 C   0  0  0  0  0  0  0  0  0  0  0  0
   43.2310   33.8340   39.2800 N   0  0  0  0  0  0  0  0  0  0  0  0
   43.2830   33.7030   37.9220 C   0  0  0  0  0  0  0  0  0  0  0  0
   42.2070   33.2670   37.2220 N   0  0  0  0  0  0  0  0  0  0  0  0
   44.4630   33.9680   37.1870 N   0  0  0  0  0  0  0  0  0  0  0  0
   40.2910   32.6360   37.1940 H   0  0  0  0  0  0  0  0  0  0  0  0
   44.6540   33.4800   36.2850 H   0  0  0  0  0  0  0  0  0  0  0  0
   45.2130   34.6420   37.4610 H   0  0  0  0  0  0  0  0  0  0  0  0
   41.9890   33.6660   41.3410 N   0  0  0  0  0  0  0  0  0  0  0  0
   42.4290   33.1060   42.1040 H   0  0  0  0  0  0  0  0  0  0  0  0
   41.4250   34.3950   41.8540 H   0  0  0  0  0  0  0  0  0  0  0  0
  1  7  1  1  0  0  0
  2  1  1  0  0  0  0
  3  2  2  0  0  0  0
  3  4  1  0  0  0  0
  4 10  1  0  0  0  0
  5  6  1  0  0  0  0
  5  4  1  0  0  0  0
  6 14  1  6  0  0  0
  6  1  1  0  0  0  0
  6 17  1  0  0  0  0
  8  2  1  0  0  0  0
  9  3  1  0  0  0  0
 11  4  1  0  0  0  0
 12  5  1  0  0  0  0
 13  5  1  0  0  0  0
 15 16  1  0  0  0  0
 16 17  2  0  0  0  0
 16 24  1  0  0  0  0
 17 18  1  0  0  0  0
 18 19  1  0  0  0  0
 18 20  2  0  0  0  0
 20 21  1  0  0  0  0
 22 20  1  0  0  0  0
 22 23  1  0  0  0  0
 24 22  2  0  0  0  0
 25 24  1  0  0  0  0
 26 27  1  0  0  0  0
 27  1  1  0  0  0  0
 27 28  2  0  0  0  0
 28 36  1  0  0  0  0
 29 28  1  0  0  0  0
 30 29  2  0  0  0  0
 31 26  2  0  0  0  0
 31 30  1  0  0  0  0
 32 35  1  0  0  0  0
 32 30  1  0  0  0  0
 33 26  1  0  0  0  0
 34 32  1  0  0  0  0
 36 38  1  0  0  0  0
 36 37  1  0  0  0  0
M  END
>  <minimizedAffinity>
-5.84433079

$$$$

 OpenBabel03252500223D

 38 40  0  0  1  0  0  0  0  0999 V2000
   38.7260   28.5350   41.1010 C   0  0  1  0  0  0  0  0  0  0  0  0
   38.6900   29.3980   42.3780 C   0  0  0  0  0  0  0  0  0  0  0  0
   37.7760   29.0320   43.4600 C   0  0  0  0  0  0  0  0  0  0  0  0
   36.9170   27.7960   43.1510 C   0  0  0  0  0  0  0  0  0  0  0  0
   36.3840   28.1200   41.7730 C   0  0  0  0  0  0  0  0  0  0  0  0
   37.5400   27.7350   40.8370 C   0  0  2  0  0  0  0  0  0  0  0  0
   39.6230   27.9180   41.3670 H   0  0  0  0  0  0  0  0  0  0  0  0
   39.3150   30.2480   42.4790 H   0  0  0  0  0  0  0  0  0  0  0  0
   37.7810   29.6490   44.3270 H   0  0  0  0  0  0  0  0  0  0  0  0
   37.5730   26.9160   43.1710 H   0  0  0  0  0  0  0  0  0  0  0  0
   36.1080   27.8390   43.8640 H   0  0  0  0  0  0  0  0  0  0  0  0
   35.4400   27.6450   41.5090 H   0  0  0  0  0  0  0  0  0  0  0  0
   36.2400   29.2110   41.6500 H   0  0  0  0  0  0  0  0  0  0  0  0
   37.1350   27.9670   39.8050 H   0  0  0  0  0  0  0  0  0  0  0  0
   35.9040   26.1450   38.7650 Cl  0  0  0  0  0  0  0  0  0  0  0  0
   36.9780   25.4550   39.9640 C   0  0  0  0  0  0  0  0  0  0  0  0
   37.6760   26.2590   40.8290 C   0  0  0  0  0  0  0  0  0  0  0  0
   38.4570   25.5200   41.6930 C   0  0  0  0  0  0  0  0  0  0  0  0
   39.0470   26.0350   42.4520 H   0  0  0  0  0  0  0  0  0  0  0  0
   38.5690   24.1480   41.7340 C   0  0  0  0  0  0  0  0  0  0  0  0
   39.1980   23.6400   42.4330 H   0  0  0  0  0  0  0  0  0  0  0  0
   37.8390   23.4170   40.8330 C   0  0  0  0  0  0  0  0  0  0  0  0
   37.9090   22.3500   40.8450 H   0  0  0  0  0  0  0  0  0  0  0  0
   37.0290   24.0770   39.9340 C   0  0  0  0  0  0  0  0  0  0  0  0
   36.1300   23.0860   38.8190 Cl  0  0  0  0  0  0  0  0  0  0  0  0
   38.4530   30.7610   39.9440 C   0  0  0  0  0  0  0  0  0  0  0  0
   39.1040   29.5180   40.0310 C   0  0  0  0  0  0  0  0  0  0  0  0
   40.0080   29.1950   39.0140 C   0  0  0  0  0  0  0  0  0  0  0  0
   40.2230   30.0630   37.9970 N   0  0  0  0  0  0  0  0  0  0  0  0
   39.5560   31.2540   37.9660 C   0  0  0  0  0  0  0  0  0  0  0  0
   38.6790   31.5870   38.9440 N   0  0  0  0  0  0  0  0  0  0  0  0
   39.7090   32.1720   36.9010 N   0  0  0  0  0  0  0  0  0  0  0  0
   37.7480   31.1290   40.6750 H   0  0  0  0  0  0  0  0  0  0  0  0
   38.9380   32.8250   36.6390 H   0  0  0  0  0  0  0  0  0  0  0  0
   40.5620   32.2810   36.3070 H   0  0  0  0  0  0  0  0  0  0  0  0
   40.6910   27.9680   39.0970 N   0  0  0  0  0  0  0  0  0  0  0  0
   40.5880   27.1060   38.5180 H   0  0  0  0  0  0  0  0  0  0  0  0
   41.4480   27.7200   39.7880 H   0  0  0  0  0  0  0  0  0  0  0  0
  1  7  1  1  0  0  0
  1  2  1  0  0  0  0
  2  8  1  0  0  0  0
  2  3  2  0  0  0  0
  3  9  1  0  0  0  0
  4 10  1  0  0  0  0
  4  3  1  0  0  0  0
  4 11  1  0  0  0  0
  5  4  1  0  0  0  0
  6 14  1  6  0  0  0
  6  1  1  0  0  0  0
  6  5  1  0  0  0  0
 12  5  1  0  0  0  0
 13  5  1  0  0  0  0
 15 16  1  0  0  0  0
 16 17  1  0  0  0  0
 17  6  1  0  0  0  0
 17 18  2  0  0  0  0
 18 20  1  0  0  0  0
 18 19  1  0  0  0  0
 20 21  1  0  0  0  0
 22 23  1  0  0  0  0
 22 20  2  0  0  0  0
 24 16  2  0  0  0  0
 24 22  1  0  0  0  0
 25 24  1  0  0  0  0
 26 27  1  0  0  0  0
 26 33  1  0  0  0  0
 27  1  1  0  0  0  0
 28 36  1  0  0  0  0
 28 27  2  0  0  0  0
 29 28  1  0  0  0  0
 30 29  2  0  0  0  0
 30 31  1  0  0  0  0
 31 26  2  0  0  0  0
 32 30  1  0  0  0  0
 34 32  1  0  0  0  0
 35 32  1  0  0  0  0
 36 38  1  0  0  0  0
 37 36  1  0  0  0  0
M  END
>  <minimizedAffinity>
-5.83026552

$$$$

 OpenBabel03252500223D

 38 40  0  0  1  0  0  0  0  0999 V2000
   38.2340   30.9190   39.6050 C   0  0  1  0  0  0  0  0  0  0  0  0
   37.0600   31.1280   38.6290 C   0  0  0  0  0  0  0  0  0  0  0  0
   36.1640   30.0060   38.3420 C   0  0  0  0  0  0  0  0  0  0  0  0
   36.5510   28.7060   39.0640 C   0  0  0  0  0  0  0  0  0  0  0  0
   38.0290   28.6050   38.7590 C   0  0  0  0  0  0  0  0  0  0  0  0
   38.6760   29.5450   39.7890 C   0  0  2  0  0  0  0  0  0  0  0  0
   37.7440   31.3500   40.5160 H   0  0  0  0  0  0  0  0  0  0  0  0
   36.8950   32.0670   38.1650 H   0  0  0  0  0  0  0  0  0  0  0  0
   35.3630   30.1880   37.6650 H   0  0  0  0  0  0  0  0  0  0  0  0
   36.3310   28.8370   40.1320 H   0  0  0  0  0  0  0  0  0  0  0  0
   36.0240   27.9290   38.5310 H   0  0  0  0  0  0  0  0  0  0  0  0
   38.4460   27.5990   38.7750 H   0  0  0  0  0  0  0  0  0  0  0  0
   38.2590   29.0340   37.7660 H   0  0  0  0  0  0  0  0  0  0  0  0
   39.7840   29.4590   39.5670 H   0  0  0  0  0  0  0  0  0  0  0  0
   40.4960   27.1550   40.4790 Cl  0  0  0  0  0  0  0  0  0  0  0  0
   39.2920   27.8610   41.5380 C   0  0  0  0  0  0  0  0  0  0  0  0
   38.5470   28.9400   41.1350 C   0  0  0  0  0  0  0  0  0  0  0  0
   37.6570   29.3370   42.1110 C   0  0  0  0  0  0  0  0  0  0  0  0
   36.9830   30.1710   41.9120 H   0  0  0  0  0  0  0  0  0  0  0  0
   37.4870   28.7670   43.3530 C   0  0  0  0  0  0  0  0  0  0  0  0
   36.7750   29.1280   44.0640 H   0  0  0  0  0  0  0  0  0  0  0  0
   38.2740   27.6910   43.6780 C   0  0  0  0  0  0  0  0  0  0  0  0
   38.1610   27.2320   44.6380 H   0  0  0  0  0  0  0  0  0  0  0  0
   39.1900   27.2290   42.7590 C   0  0  0  0  0  0  0  0  0  0  0  0
   40.1540   25.8600   43.2390 Cl  0  0  0  0  0  0  0  0  0  0  0  0
   39.7860   31.7580   37.7990 C   0  0  0  0  0  0  0  0  0  0  0  0
   39.2740   31.8800   39.1030 C   0  0  0  0  0  0  0  0  0  0  0  0
   39.8620   32.8360   39.9370 C   0  0  0  0  0  0  0  0  0  0  0  0
   40.8860   33.5960   39.4800 N   0  0  0  0  0  0  0  0  0  0  0  0
   41.3430   33.4260   38.2040 C   0  0  0  0  0  0  0  0  0  0  0  0
   40.7830   32.5080   37.3800 N   0  0  0  0  0  0  0  0  0  0  0  0
   42.4410   34.1610   37.6970 N   0  0  0  0  0  0  0  0  0  0  0  0
   39.4050   31.0690   37.0610 H   0  0  0  0  0  0  0  0  0  0  0  0
   43.0520   33.7650   36.9490 H   0  0  0  0  0  0  0  0  0  0  0  0
   42.7280   35.1170   38.0040 H   0  0  0  0  0  0  0  0  0  0  0  0
   39.3450   32.9940   41.2350 N   0  0  0  0  0  0  0  0  0  0  0  0
   39.7670   32.7410   42.1570 H   0  0  0  0  0  0  0  0  0  0  0  0
   38.4110   33.4110   41.4900 H   0  0  0  0  0  0  0  0  0  0  0  0
  1  6  1  0  0  0  0
  1  7  1  1  0  0  0
  2  1  1  0  0  0  0
  3  2  2  0  0  0  0
  3  4  1  0  0  0  0
  4 10  1  0  0  0  0
  5 12  1  0  0  0  0
  5  4  1  0  0  0  0
  5  6  1  0  0  0  0
  6 14  1  6  0  0  0
  6 17  1  0  0  0  0
  8  2  1  0  0  0  0
  9  3  1  0  0  0  0
 11  4  1  0  0  0  0
 13  5  1  0  0  0  0
 15 16  1  0  0  0  0
 16 24  1  0  0  0  0
 17 16  2  0  0  0  0
 17 18  1  0  0  0  0
 18 20  2  0  0  0  0
 19 18  1  0  0  0  0
 20 22  1  0  0  0  0
 20 21  1  0  0  0  0
 22 23  1  0  0  0  0
 24 25  1  0  0  0  0
 24 22  2  0  0  0  0
 26 27  1  0  0  0  0
 27  1  1  0  0  0  0
 27 28  2  0  0  0  0
 28 36  1  0  0  0  0
 29 28  1  0  0  0  0
 30 29  2  0  0  0  0
 31 26  2  0  0  0  0
 31 30  1  0  0  0  0
 32 35  1  0  0  0  0
 32 30  1  0  0  0  0
 33 26  1  0  0  0  0
 34 32  1  0  0  0  0
 36 38  1  0  0  0  0
 36 37  1  0  0  0  0
M  END
>  <minimizedAffinity>
-5.77093506

$$$$

 OpenBabel03252500223D

 38 40  0  0  1  0  0  0  0  0999 V2000
   37.2160   27.2830   41.4150 C   0  0  1  0  0  0  0  0  0  0  0  0
   36.8870   27.3720   42.9190 C   0  0  0  0  0  0  0  0  0  0  0  0
   37.3390   28.5370   43.6800 C   0  0  0  0  0  0  0  0  0  0  0  0
   38.1400   29.5480   42.8440 C   0  0  0  0  0  0  0  0  0  0  0  0
   39.1400   28.6540   42.1430 C   0  0  0  0  0  0  0  0  0  0  0  0
   38.3450   28.0790   40.9600 C   0  0  2  0  0  0  0  0  0  0  0  0
   36.2320   27.6540   41.0300 H   0  0  0  0  0  0  0  0  0  0  0  0
   36.3430   26.6030   43.4050 H   0  0  0  0  0  0  0  0  0  0  0  0
   37.0920   28.5650   44.7140 H   0  0  0  0  0  0  0  0  0  0  0  0
   37.4420   30.0460   42.1580 H   0  0  0  0  0  0  0  0  0  0  0  0
   38.6560   30.1570   43.5700 H   0  0  0  0  0  0  0  0  0  0  0  0
   40.0710   29.1330   41.8430 H   0  0  0  0  0  0  0  0  0  0  0  0
   39.4120   27.7900   42.7790 H   0  0  0  0  0  0  0  0  0  0  0  0
   39.0990   27.4200   40.4300 H   0  0  0  0  0  0  0  0  0  0  0  0
   40.7710   29.3350   39.5320 Cl  0  0  0  0  0  0  0  0  0  0  0  0
   39.0990   29.8060   39.3090 C   0  0  0  0  0  0  0  0  0  0  0  0
   38.0910   29.1640   39.9840 C   0  0  0  0  0  0  0  0  0  0  0  0
   36.8540   29.6890   39.6710 C   0  0  0  0  0  0  0  0  0  0  0  0
   35.9650   29.2870   40.1580 H   0  0  0  0  0  0  0  0  0  0  0  0
   36.5950   30.7240   38.8000 C   0  0  0  0  0  0  0  0  0  0  0  0
   35.6060   31.0800   38.6030 H   0  0  0  0  0  0  0  0  0  0  0  0
   37.6590   31.3100   38.1640 C   0  0  0  0  0  0  0  0  0  0  0  0
   37.4820   32.1160   37.4830 H   0  0  0  0  0  0  0  0  0  0  0  0
   38.9310   30.8480   38.4210 C   0  0  0  0  0  0  0  0  0  0  0  0
   40.2340   31.6390   37.5790 Cl  0  0  0  0  0  0  0  0  0  0  0  0
   37.9760   24.9740   42.0940 C   0  0  0  0  0  0  0  0  0  0  0  0
   37.3150   25.8050   41.1710 C   0  0  0  0  0  0  0  0  0  0  0  0
   36.8830   25.2210   39.9770 C   0  0  0  0  0  0  0  0  0  0  0  0
   37.1090   23.9060   39.7440 N   0  0  0  0  0  0  0  0  0  0  0  0
   37.7600   23.1520   40.6780 C   0  0  0  0  0  0  0  0  0  0  0  0
   38.1840   23.6980   41.8440 N   0  0  0  0  0  0  0  0  0  0  0  0
   38.0630   21.7860   40.4610 N   0  0  0  0  0  0  0  0  0  0  0  0
   38.3400   25.3040   43.0540 H   0  0  0  0  0  0  0  0  0  0  0  0
   38.8890   21.3410   40.9170 H   0  0  0  0  0  0  0  0  0  0  0  0
   37.5180   21.1290   39.8580 H   0  0  0  0  0  0  0  0  0  0  0  0
   36.1960   26.0280   39.0530 N   0  0  0  0  0  0  0  0  0  0  0  0
   36.5010   26.3840   38.1200 H   0  0  0  0  0  0  0  0  0  0  0  0
   35.2210   26.4160   39.1650 H   0  0  0  0  0  0  0  0  0  0  0  0
  1  7  1  6  0  0  0
  1  2  1  0  0  0  0
  2  8  1  0  0  0  0
  2  3  2  0  0  0  0
  3  9  1  0  0  0  0
  4 11  1  0  0  0  0
  4  3  1  0  0  0  0
  5 13  1  0  0  0  0
  5  4  1  0  0  0  0
  6 14  1  6  0  0  0
  6  1  1  0  0  0  0
  6  5  1  0  0  0  0
 10  4  1  0  0  0  0
 12  5  1  0  0  0  0
 16 15  1  0  0  0  0
 16 17  1  0  0  0  0
 17  6  1  0  0  0  0
 18 17  2  0  0  0  0
 18 19  1  0  0  0  0
 20 18  1  0  0  0  0
 21 20  1  0  0  0  0
 22 24  1  0  0  0  0
 22 20  2  0  0  0  0
 23 22  1  0  0  0  0
 24 16  2  0  0  0  0
 25 24  1  0  0  0  0
 26 33  1  0  0  0  0
 27  1  1  0  0  0  0
 27 26  2  0  0  0  0
 28 27  1  0  0  0  0
 29 28  2  0  0  0  0
 29 30  1  0  0  0  0
 30 31  2  0  0  0  0
 31 26  1  0  0  0  0
 32 30  1  0  0  0  0
 32 34  1  0  0  0  0
 35 32  1  0  0  0  0
 36 38  1  0  0  0  0
 36 28  1  0  0  0  0
 37 36  1  0  0  0  0
M  END
>  <minimizedAffinity>
-5.76209879

$$$$

 OpenBabel03252500223D

 38 40  0  0  1  0  0  0  0  0999 V2000
   36.1100   28.9900   39.1600 C   0  0  1  0  0  0  0  0  0  0  0  0
   34.7110   29.1980   38.5460 C   0  0  0  0  0  0  0  0  0  0  0  0
   34.1200   28.1290   37.7410 C   0  0  0  0  0  0  0  0  0  0  0  0
   35.0270   26.8980   37.5860 C   0  0  0  0  0  0  0  0  0  0  0  0
   36.3430   27.5270   37.1810 C   0  0  0  0  0  0  0  0  0  0  0  0
   36.9490   27.9910   38.5150 C   0  0  2  0  0  0  0  0  0  0  0  0
   35.7760   28.6880   40.1850 H   0  0  0  0  0  0  0  0  0  0  0  0
   34.1770   30.1010   38.6990 H   0  0  0  0  0  0  0  0  0  0  0  0
   33.1530   28.3080   37.3360 H   0  0  0  0  0  0  0  0  0  0  0  0
   35.0670   26.3860   38.5560 H   0  0  0  0  0  0  0  0  0  0  0  0
   34.6170   26.3590   36.7460 H   0  0  0  0  0  0  0  0  0  0  0  0
   37.0120   26.8890   36.6040 H   0  0  0  0  0  0  0  0  0  0  0  0
   36.1770   28.4430   36.5840 H   0  0  0  0  0  0  0  0  0  0  0  0
   37.9390   28.4500   38.2110 H   0  0  0  0  0  0  0  0  0  0  0  0
   39.3460   26.3370   37.5060 Cl  0  0  0  0  0  0  0  0  0  0  0  0
   38.3860   25.9810   38.9270 C   0  0  0  0  0  0  0  0  0  0  0  0
   37.3490   26.7980   39.2980 C   0  0  0  0  0  0  0  0  0  0  0  0
   36.7220   26.3390   40.4380 C   0  0  0  0  0  0  0  0  0  0  0  0
   35.8610   26.8830   40.8290 H   0  0  0  0  0  0  0  0  0  0  0  0
   37.0470   25.2130   41.1600 C   0  0  0  0  0  0  0  0  0  0  0  0
   36.5160   24.9160   42.0390 H   0  0  0  0  0  0  0  0  0  0  0  0
   38.0990   24.4510   40.7220 C   0  0  0  0  0  0  0  0  0  0  0  0
   38.3710   23.5710   41.2670 H   0  0  0  0  0  0  0  0  0  0  0  0
   38.7810   24.8370   39.5890 C   0  0  0  0  0  0  0  0  0  0  0  0
   40.1060   23.8230   39.0900 Cl  0  0  0  0  0  0  0  0  0  0  0  0
   37.4740   30.8660   38.1650 C   0  0  0  0  0  0  0  0  0  0  0  0
   36.6730   30.3810   39.2140 C   0  0  0  0  0  0  0  0  0  0  0  0
   36.5390   31.1900   40.3460 C   0  0  0  0  0  0  0  0  0  0  0  0
   37.1710   32.3870   40.4030 N   0  0  0  0  0  0  0  0  0  0  0  0
   37.9400   32.8010   39.3540 C   0  0  0  0  0  0  0  0  0  0  0  0
   38.0790   32.0330   38.2460 N   0  0  0  0  0  0  0  0  0  0  0  0
   38.6590   34.0190   39.3850 N   0  0  0  0  0  0  0  0  0  0  0  0
   37.6410   30.3420   37.2370 H   0  0  0  0  0  0  0  0  0  0  0  0
   39.5400   34.1370   38.8380 H   0  0  0  0  0  0  0  0  0  0  0  0
   38.3900   34.8720   39.9270 H   0  0  0  0  0  0  0  0  0  0  0  0
   35.7190   30.7360   41.3950 N   0  0  0  0  0  0  0  0  0  0  0  0
   35.9790   30.4010   42.3490 H   0  0  0  0  0  0  0  0  0  0  0  0
   34.6670   30.6610   41.3780 H   0  0  0  0  0  0  0  0  0  0  0  0
  1 27  1  0  0  0  0
  1  7  1  1  0  0  0
  2  8  1  0  0  0  0
  2  1  1  0  0  0  0
  3  2  2  0  0  0  0
  4  3  1  0  0  0  0
  4 10  1  0  0  0  0
  5  4  1  0  0  0  0
  5  6  1  0  0  0  0
  6 14  1  6  0  0  0
  6  1  1  0  0  0  0
  6 17  1  0  0  0  0
  9  3  1  0  0  0  0
 11  4  1  0  0  0  0
 12  5  1  0  0  0  0
 13  5  1  0  0  0  0
 15 16  1  0  0  0  0
 16 17  2  0  0  0  0
 16 24  1  0  0  0  0
 17 18  1  0  0  0  0
 18 19  1  0  0  0  0
 18 20  2  0  0  0  0
 20 21  1  0  0  0  0
 22 20  1  0  0  0  0
 22 23  1  0  0  0  0
 24 22  2  0  0  0  0
 25 24  1  0  0  0  0
 26 31  2  0  0  0  0
 26 27  1  0  0  0  0
 27 28  2  0  0  0  0
 28 29  1  0  0  0  0
 28 36  1  0  0  0  0
 30 32  1  0  0  0  0
 30 29  2  0  0  0  0
 31 30  1  0  0  0  0
 32 35  1  0  0  0  0
 33 26  1  0  0  0  0
 34 32  1  0  0  0  0
 36 37  1  0  0  0  0
 38 36  1  0  0  0  0
M  END
>  <minimizedAffinity>
-5.71872377

$$$$

 OpenBabel03252500223D

 38 40  0  0  1  0  0  0  0  0999 V2000
   38.6220   29.2090   42.5300 C   0  0  1  0  0  0  0  0  0  0  0  0
   37.3030   28.8860   43.2590 C   0  0  0  0  0  0  0  0  0  0  0  0
   36.9470   27.4880   43.5020 C   0  0  0  0  0  0  0  0  0  0  0  0
   37.9700   26.4840   42.9460 C   0  0  0  0  0  0  0  0  0  0  0  0
   38.1730   26.9910   41.5350 C   0  0  0  0  0  0  0  0  0  0  0  0
   39.1740   28.1450   41.7050 C   0  0  2  0  0  0  0  0  0  0  0  0
   39.2410   29.4270   43.4380 H   0  0  0  0  0  0  0  0  0  0  0  0
   36.6550   29.6600   43.5830 H   0  0  0  0  0  0  0  0  0  0  0  0
   36.0300   27.3040   44.0100 H   0  0  0  0  0  0  0  0  0  0  0  0
   38.8720   26.5450   43.5680 H   0  0  0  0  0  0  0  0  0  0  0  0
   37.4410   25.5440   42.9130 H   0  0  0  0  0  0  0  0  0  0  0  0
   38.4950   26.2460   40.8080 H   0  0  0  0  0  0  0  0  0  0  0  0
   37.2450   27.4460   41.1400 H   0  0  0  0  0  0  0  0  0  0  0  0
   39.3340   28.5150   40.6460 H   0  0  0  0  0  0  0  0  0  0  0  0
   40.6450   26.4210   39.6170 Cl  0  0  0  0  0  0  0  0  0  0  0  0
   41.2220   26.7830   41.2300 C   0  0  0  0  0  0  0  0  0  0  0  0
   40.4930   27.5810   42.0750 C   0  0  0  0  0  0  0  0  0  0  0  0
   41.1190   27.7380   43.2940 C   0  0  0  0  0  0  0  0  0  0  0  0
   40.6340   28.3300   44.0710 H   0  0  0  0  0  0  0  0  0  0  0  0
   42.3240   27.1920   43.6780 C   0  0  0  0  0  0  0  0  0  0  0  0
   42.7520   27.3570   44.6440 H   0  0  0  0  0  0  0  0  0  0  0  0
   42.9900   26.4070   42.7730 C   0  0  0  0  0  0  0  0  0  0  0  0
   43.9280   25.9720   43.0480 H   0  0  0  0  0  0  0  0  0  0  0  0
   42.4340   26.1970   41.5300 C   0  0  0  0  0  0  0  0  0  0  0  0
   43.3350   25.1900   40.4310 Cl  0  0  0  0  0  0  0  0  0  0  0  0
   37.1470   30.6250   41.0500 C   0  0  0  0  0  0  0  0  0  0  0  0
   38.3170   30.4970   41.8200 C   0  0  0  0  0  0  0  0  0  0  0  0
   39.2280   31.5570   41.7850 C   0  0  0  0  0  0  0  0  0  0  0  0
   38.9690   32.6490   41.0270 N   0  0  0  0  0  0  0  0  0  0  0  0
   37.8170   32.7120   40.2970 C   0  0  0  0  0  0  0  0  0  0  0  0
   36.9190   31.6970   40.3200 N   0  0  0  0  0  0  0  0  0  0  0  0
   37.5230   33.8090   39.4520 N   0  0  0  0  0  0  0  0  0  0  0  0
   36.3650   29.8830   41.0080 H   0  0  0  0  0  0  0  0  0  0  0  0
   36.9250   33.6890   38.6050 H   0  0  0  0  0  0  0  0  0  0  0  0
   37.8580   34.7900   39.5880 H   0  0  0  0  0  0  0  0  0  0  0  0
   40.3910   31.4600   42.5700 N   0  0  0  0  0  0  0  0  0  0  0  0
   41.3840   31.3280   42.2790 H   0  0  0  0  0  0  0  0  0  0  0  0
   40.4400   31.5100   43.6230 H   0  0  0  0  0  0  0  0  0  0  0  0
  1  2  1  0  0  0  0
  1  7  1  1  0  0  0
  2  3  2  0  0  0  0
  2  8  1  0  0  0  0
  3  9  1  0  0  0  0
  4  3  1  0  0  0  0
  4 10  1  0  0  0  0
  5  6  1  0  0  0  0
  5  4  1  0  0  0  0
  6 14  1  6  0  0  0
  6 17  1  0  0  0  0
  6  1  1  0  0  0  0
 11  4  1  0  0  0  0
 12  5  1  0  0  0  0
 13  5  1  0  0  0  0
 15 16  1  0  0  0  0
 16 24  2  0  0  0  0
 16 17  1  0  0  0  0
 17 18  2  0  0  0  0
 18 20  1  0  0  0  0
 18 19  1  0  0  0  0
 20 21  1  0  0  0  0
 22 23  1  0  0  0  0
 22 20  2  0  0  0  0
 24 22  1  0  0  0  0
 25 24  1  0  0  0  0
 26 27  1  0  0  0  0
 27  1  1  0  0  0  0
 28 27  2  0  0  0  0
 28 36  1  0  0  0  0
 29 28  1  0  0  0  0
 30 31  1  0  0  0  0
 30 29  2  0  0  0  0
 31 26  2  0  0  0  0
 32 35  1  0  0  0  0
 32 30  1  0  0  0  0
 33 26  1  0  0  0  0
 34 32  1  0  0  0  0
 36 38  1  0  0  0  0
 37 36  1  0  0  0  0
M  END
>  <minimizedAffinity>
-5.6608882

$$$$

 OpenBabel03252500223D

 38 40  0  0  1  0  0  0  0  0999 V2000
   39.6000   31.8340   39.5350 C   0  0  1  0  0  0  0  0  0  0  0  0
   39.5690   33.3510   39.8020 C   0  0  0  0  0  0  0  0  0  0  0  0
   38.2780   34.0170   39.9810 C   0  0  0  0  0  0  0  0  0  0  0  0
   37.0730   33.0740   39.8450 C   0  0  0  0  0  0  0  0  0  0  0  0
   37.3880   32.3450   38.5570 C   0  0  0  0  0  0  0  0  0  0  0  0
   38.3810   31.2550   38.9920 C   0  0  2  0  0  0  0  0  0  0  0  0
   39.8130   31.5060   40.5850 H   0  0  0  0  0  0  0  0  0  0  0  0
   40.4660   33.9150   39.8560 H   0  0  0  0  0  0  0  0  0  0  0  0
   38.2960   35.0650   40.1660 H   0  0  0  0  0  0  0  0  0  0  0  0
   37.0560   32.4200   40.7260 H   0  0  0  0  0  0  0  0  0  0  0  0
   36.2290   33.7290   39.6850 H   0  0  0  0  0  0  0  0  0  0  0  0
   36.5290   31.9520   38.0150 H   0  0  0  0  0  0  0  0  0  0  0  0
   37.9390   33.0000   37.8560 H   0  0  0  0  0  0  0  0  0  0  0  0
   38.6070   30.7030   38.0290 H   0  0  0  0  0  0  0  0  0  0  0  0
   39.1810   30.9460   41.9520 Cl  0  0  0  0  0  0  0  0  0  0  0  0
   37.9500   30.0150   41.1250 C   0  0  0  0  0  0  0  0  0  0  0  0
   37.6590   30.2490   39.8050 C   0  0  0  0  0  0  0  0  0  0  0  0
   36.6670   29.4080   39.3450 C   0  0  0  0  0  0  0  0  0  0  0  0
   36.3550   29.4700   38.3020 H   0  0  0  0  0  0  0  0  0  0  0  0
   36.0090   28.4370   40.0670 C   0  0  0  0  0  0  0  0  0  0  0  0
   35.2460   27.8180   39.6450 H   0  0  0  0  0  0  0  0  0  0  0  0
   36.3590   28.2680   41.3830 C   0  0  0  0  0  0  0  0  0  0  0  0
   35.8620   27.5200   41.9640 H   0  0  0  0  0  0  0  0  0  0  0  0
   37.3430   29.0670   41.9220 C   0  0  0  0  0  0  0  0  0  0  0  0
   37.7360   28.7970   43.5980 Cl  0  0  0  0  0  0  0  0  0  0  0  0
   41.1920   32.6180   37.7400 C   0  0  0  0  0  0  0  0  0  0  0  0
   40.8370   31.6560   38.7020 C   0  0  0  0  0  0  0  0  0  0  0  0
   41.6010   30.4860   38.7520 C   0  0  0  0  0  0  0  0  0  0  0  0
   42.6330   30.3130   37.8920 N   0  0  0  0  0  0  0  0  0  0  0  0
   42.9260   31.2830   36.9770 C   0  0  0  0  0  0  0  0  0  0  0  0
   42.2000   32.4260   36.9150 N   0  0  0  0  0  0  0  0  0  0  0  0
   43.9620   31.1290   36.0260 N   0  0  0  0  0  0  0  0  0  0  0  0
   40.6900   33.5650   37.6160 H   0  0  0  0  0  0  0  0  0  0  0  0
   43.9170   31.6090   35.1000 H   0  0  0  0  0  0  0  0  0  0  0  0
   44.8250   30.5530   36.1520 H   0  0  0  0  0  0  0  0  0  0  0  0
   41.2800   29.5230   39.7260 N   0  0  0  0  0  0  0  0  0  0  0  0
   40.8530   28.5770   39.6140 H   0  0  0  0  0  0  0  0  0  0  0  0
   41.4290   29.6130   40.7660 H   0  0  0  0  0  0  0  0  0  0  0  0
  1  2  1  0  0  0  0
  1  7  1  1  0  0  0
  2  8  1  0  0  0  0
  2  3  2  0  0  0  0
  3  9  1  0  0  0  0
  4  3  1  0  0  0  0
  4 10  1  0  0  0  0
  5  6  1  0  0  0  0
  5  4  1  0  0  0  0
  6 14  1  6  0  0  0
  6  1  1  0  0  0  0
  6 17  1  0  0  0  0
 11  4  1  0  0  0  0
 12  5  1  0  0  0  0
 13  5  1  0  0  0  0
 16 24  1  0  0  0  0
 16 15  1  0  0  0  0
 17 16  2  0  0  0  0
 18 17  1  0  0  0  0
 18 20  2  0  0  0  0
 19 18  1  0  0  0  0
 20 22  1  0  0  0  0
 21 20  1  0  0  0  0
 22 24  2  0  0  0  0
 22 23  1  0  0  0  0
 24 25  1  0  0  0  0
 26 27  1  0  0  0  0
 27 28  2  0  0  0  0
 27  1  1  0  0  0  0
 28 36  1  0  0  0  0
 29 28  1  0  0  0  0
 30 29  2  0  0  0  0
 31 30  1  0  0  0  0
 31 26  2  0  0  0  0
 32 35  1  0  0  0  0
 32 30  1  0  0  0  0
 33 26  1  0  0  0  0
 34 32  1  0  0  0  0
 36 38  1  0  0  0  0
 37 36  1  0  0  0  0
M  END
>  <minimizedAffinity>
-5.64228821

$$$$
