
 OpenBabel03252508033D

 44 47  0  0  1  0  0  0  0  0999 V2000
   42.0890   33.2580   41.1610 C   0  0  0  0  0  0  0  0  0  0  0  0
   42.8220   34.3980   41.3290 C   0  0  0  0  0  0  0  0  0  0  0  0
   42.1480   35.6350   41.2630 C   0  0  0  0  0  0  0  0  0  0  0  0
   40.7950   35.7460   41.0400 C   0  0  0  0  0  0  0  0  0  0  0  0
   40.0680   34.5990   40.8740 C   0  0  0  0  0  0  0  0  0  0  0  0
   40.7140   33.4000   40.9350 C   0  0  0  0  0  0  0  0  0  0  0  0
   42.6450   36.5890   41.3750 H   0  0  0  0  0  0  0  0  0  0  0  0
   40.2910   36.6730   40.9910 H   0  0  0  0  0  0  0  0  0  0  0  0
   39.0210   34.6090   40.6990 H   0  0  0  0  0  0  0  0  0  0  0  0
   40.1180   32.4840   40.8000 H   0  0  0  0  0  0  0  0  0  0  0  0
   42.7460   31.7190   41.3260 S   0  0  0  0  0  0  0  0  0  0  0  0
   42.0010   30.9760   40.1680 O   0  0  0  0  0  0  0  0  0  0  0  0
   42.3620   31.0540   42.5960 O   0  0  0  0  0  0  0  0  0  0  0  0
   44.4120   30.1820   43.3700 Cl  0  0  0  0  0  0  0  0  0  0  0  0
   44.9200   30.3180   41.6720 C   0  0  0  0  0  0  0  0  0  0  0  0
   44.1700   31.0600   40.7140 C   0  0  0  0  0  0  0  0  0  0  0  0
   44.7880   31.0000   39.4730 C   0  0  0  0  0  0  0  0  0  0  0  0
   44.1620   31.5350   38.7360 H   0  0  0  0  0  0  0  0  0  0  0  0
   45.9370   30.3870   39.0370 C   0  0  0  0  0  0  0  0  0  0  0  0
   46.2260   30.4810   38.0130 H   0  0  0  0  0  0  0  0  0  0  0  0
   46.5100   29.7340   40.0870 C   0  0  0  0  0  0  0  0  0  0  0  0
   47.4350   29.2130   39.8450 H   0  0  0  0  0  0  0  0  0  0  0  0
   46.0850   29.6510   41.3830 C   0  0  0  0  0  0  0  0  0  0  0  0
   46.9910   28.7320   42.5650 Cl  0  0  0  0  0  0  0  0  0  0  0  0
   44.2540   34.3880   41.5700 C   0  0  0  0  0  0  0  0  0  0  0  0
   45.1330   34.3190   40.6620 O   0  0  0  0  0  0  0  0  0  0  0  0
   44.5920   34.4680   42.9720 C   0  0  0  0  0  0  0  0  0  0  0  0
   44.3010   35.7250   43.6100 C   0  0  0  0  0  0  0  0  0  0  0  0
   44.6150   35.8260   44.9510 C   0  0  0  0  0  0  0  0  0  0  0  0
   45.1700   34.7500   45.5740 N   0  0  0  0  0  0  0  0  0  0  0  0
   45.4250   33.5770   44.9150 C   0  0  0  0  0  0  0  0  0  0  0  0
   45.1380   33.4690   43.6630 N   0  0  0  0  0  0  0  0  0  0  0  0
   43.8760   36.6010   43.2000 H   0  0  0  0  0  0  0  0  0  0  0  0
   44.4390   36.7270   45.5370 H   0  0  0  0  0  0  0  0  0  0  0  0
   46.0270   32.4560   45.6730 C   0  0  1  0  0  0  0  0  0  0  0  0
   46.9760   32.7630   46.8090 C   0  0  0  0  0  0  0  0  0  0  0  0
   45.5620   32.3340   47.0710 C   0  0  1  0  0  0  0  0  0  0  0  0
   46.2050   31.5330   45.1210 H   0  0  0  0  0  0  0  0  0  0  0  0
   47.2780   33.8330   46.8980 H   0  0  0  0  0  0  0  0  0  0  0  0
   47.8160   32.0490   46.9460 H   0  0  0  0  0  0  0  0  0  0  0  0
   45.4450   31.3240   47.5320 H   0  0  0  0  0  0  0  0  0  0  0  0
   44.7610   33.3920   47.6700 N   0  0  0  0  0  0  0  0  0  0  0  0
   43.7860   33.0910   47.7890 H   0  0  0  0  0  0  0  0  0  0  0  0
   45.2240   33.8080   48.4920 H   0  0  0  0  0  0  0  0  0  0  0  0
  1 11  1  0  0  0  0
  1  2  1  0  0  0  0
  2 25  1  0  0  0  0
  3  2  2  0  0  0  0
  3  7  1  0  0  0  0
  4  3  1  0  0  0  0
  5  6  1  0  0  0  0
  5  4  2  0  0  0  0
  6  1  2  0  0  0  0
  8  4  1  0  0  0  0
  9  5  1  0  0  0  0
 10  6  1  0  0  0  0
 11 13  2  0  0  0  0
 12 11  2  0  0  0  0
 15 14  1  0  0  0  0
 16 11  1  0  0  0  0
 16 15  2  0  0  0  0
 17 16  1  0  0  0  0
 18 17  1  0  0  0  0
 19 17  2  0  0  0  0
 19 21  1  0  0  0  0
 20 19  1  0  0  0  0
 21 23  2  0  0  0  0
 22 21  1  0  0  0  0
 23 15  1  0  0  0  0
 23 24  1  0  0  0  0
 25 27  1  0  0  0  0
 26 25  2  0  0  0  0
 27 28  2  0  0  0  0
 27 32  1  0  0  0  0
 28 29  1  0  0  0  0
 29 34  1  0  0  0  0
 29 30  2  0  0  0  0
 31 30  1  0  0  0  0
 31 35  1  0  0  0  0
 32 31  2  0  0  0  0
 33 28  1  0  0  0  0
 35 38  1  6  0  0  0
 35 36  1  0  0  0  0
 35 37  1  0  0  0  0
 36 39  1  0  0  0  0
 36 40  1  0  0  0  0
 36 37  1  0  0  0  0
 37 41  1  1  0  0  0
 37 42  1  0  0  0  0
 42 43  1  0  0  0  0
 42 44  1  0  0  0  0
M  END
>  <minimizedAffinity>
-5.81304884

>  <minimizedRMSD>
0.933109343

$$$$
