
 OpenBabel03242512123D

 43 46  0  0  1  0  0  0  0  0999 V2000
   49.0120   31.9630   43.1180 O   0  0  0  0  0  0  0  0  0  0  0  0
   50.1870   32.2730   42.2030 P   0  0  2  0  0  0  0  0  0  0  0  0
   51.5840   31.5520   42.7080 O   0  0  0  0  0  0  0  0  0  0  0  0
   52.2780   32.1870   43.0070 H   0  0  0  0  0  0  0  0  0  0  0  0
   50.2560   33.9570   42.0430 O   0  0  0  0  0  0  0  0  0  0  0  0
   48.0280   34.4750   41.1260 C   0  0  1  0  0  0  0  0  0  0  0  0
   48.7510   35.7590   41.6980 C   0  0  0  0  0  0  0  0  0  0  0  0
   48.9820   34.4490   42.2610 C   0  0  2  0  0  0  0  0  0  0  0  0
   48.3890   34.1700   40.1470 H   0  0  0  0  0  0  0  0  0  0  0  0
   49.4680   36.2300   41.0030 H   0  0  0  0  0  0  0  0  0  0  0  0
   48.1090   36.4800   42.2380 H   0  0  0  0  0  0  0  0  0  0  0  0
   48.4880   34.0320   43.1610 H   0  0  0  0  0  0  0  0  0  0  0  0
   46.5610   34.5070   41.3920 C   0  0  0  0  0  0  0  0  0  0  0  0
   45.8100   34.2730   40.4580 O   0  0  0  0  0  0  0  0  0  0  0  0
   45.3590   35.9350   42.9890 C   0  0  0  0  0  0  0  0  0  0  0  0
   45.9690   34.7870   42.6550 C   0  0  0  0  0  0  0  0  0  0  0  0
   46.0130   33.7790   43.6760 C   0  0  0  0  0  0  0  0  0  0  0  0
   45.4670   33.9950   44.8940 N   0  0  0  0  0  0  0  0  0  0  0  0
   44.8630   35.1850   45.1620 C   0  0  0  0  0  0  0  0  0  0  0  0
   44.8160   36.1170   44.2370 N   0  0  0  0  0  0  0  0  0  0  0  0
   45.3360   36.6920   42.1940 H   0  0  0  0  0  0  0  0  0  0  0  0
   46.4560   32.8080   43.5590 H   0  0  0  0  0  0  0  0  0  0  0  0
   44.4140   35.4120   46.1080 H   0  0  0  0  0  0  0  0  0  0  0  0
   49.6800   31.6470   40.6610 O   0  0  0  0  0  0  0  0  0  0  0  0
   50.5180   31.4890   39.5890 C   0  0  0  0  0  0  0  0  0  0  0  0
   50.2930   31.8140   38.2500 C   0  0  0  0  0  0  0  0  0  0  0  0
   51.2690   31.5760   37.3090 C   0  0  0  0  0  0  0  0  0  0  0  0
   52.4420   31.0270   37.6960 N   0  0  0  0  0  0  0  0  0  0  0  0
   52.6690   30.7080   38.9920 C   0  0  0  0  0  0  0  0  0  0  0  0
   51.7180   30.9330   39.9510 N   0  0  0  0  0  0  0  0  0  0  0  0
   49.3000   32.2470   38.1050 H   0  0  0  0  0  0  0  0  0  0  0  0
   51.0070   31.8560   36.3190 H   0  0  0  0  0  0  0  0  0  0  0  0
   54.6810   30.5710   36.7990 Cl  0  0  0  0  0  0  0  0  0  0  0  0
   54.9490   30.0020   38.4320 C   0  0  0  0  0  0  0  0  0  0  0  0
   53.9560   30.1180   39.3490 C   0  0  0  0  0  0  0  0  0  0  0  0
   54.2590   29.6420   40.6070 C   0  0  0  0  0  0  0  0  0  0  0  0
   53.5200   29.7000   41.3900 H   0  0  0  0  0  0  0  0  0  0  0  0
   55.4640   29.0840   40.9600 C   0  0  0  0  0  0  0  0  0  0  0  0
   55.6850   28.7160   41.9510 H   0  0  0  0  0  0  0  0  0  0  0  0
   56.4610   28.9840   39.9860 C   0  0  0  0  0  0  0  0  0  0  0  0
   57.4450   28.5610   40.1560 H   0  0  0  0  0  0  0  0  0  0  0  0
   56.1800   29.4510   38.7230 C   0  0  0  0  0  0  0  0  0  0  0  0
   57.4150   29.3430   37.4610 Cl  0  0  0  0  0  0  0  0  0  0  0  0
  2  3  1  0  0  0  0
  2  1  2  1  0  0  0
  3  4  1  0  0  0  0
  5  2  1  0  0  0  0
  5  8  1  0  0  0  0
  6  9  1  6  0  0  0
  6 13  1  0  0  0  0
  6  7  1  0  0  0  0
  6  8  1  0  0  0  0
  7 11  1  0  0  0  0
  7  8  1  0  0  0  0
  8 12  1  1  0  0  0
 10  7  1  0  0  0  0
 13 16  1  0  0  0  0
 14 13  2  0  0  0  0
 15 20  1  0  0  0  0
 16 15  2  0  0  0  0
 16 17  1  0  0  0  0
 17 18  2  0  0  0  0
 18 19  1  0  0  0  0
 19 23  1  0  0  0  0
 20 19  2  0  0  0  0
 21 15  1  0  0  0  0
 22 17  1  0  0  0  0
 24  2  1  0  0  0  0
 25 30  1  0  0  0  0
 25 24  1  0  0  0  0
 26 25  2  0  0  0  0
 27 28  2  0  0  0  0
 27 26  1  0  0  0  0
 28 29  1  0  0  0  0
 29 35  1  0  0  0  0
 29 30  2  0  0  0  0
 31 26  1  0  0  0  0
 32 27  1  0  0  0  0
 33 34  1  0  0  0  0
 34 42  2  0  0  0  0
 34 35  1  0  0  0  0
 35 36  2  0  0  0  0
 36 38  1  0  0  0  0
 36 37  1  0  0  0  0
 38 39  1  0  0  0  0
 40 41  1  0  0  0  0
 40 38  2  0  0  0  0
 42 40  1  0  0  0  0
 43 42  1  0  0  0  0
M  END
>  <minimizedAffinity>
-5.46909904

>  <minimizedRMSD>
0.856769145

$$$$
