
 OpenBabel03252502243D

 36 38  0  0  1  0  0  0  0  0999 V2000
   46.6540   34.4750   42.2550 N   0  0  0  0  0  0  0  0  0  0  0  0
   48.1000   34.2540   42.3030 C   0  0  0  0  0  0  0  0  0  0  0  0
   48.6080   35.0230   41.0630 C   0  0  0  0  0  0  0  0  0  0  0  0
   48.1180   34.3300   39.8240 C   0  0  0  0  0  0  0  0  0  0  0  0
   46.6960   33.9060   39.8830 C   0  0  0  0  0  0  0  0  0  0  0  0
   45.8840   34.4390   41.0310 C   0  0  1  0  0  0  0  0  0  0  0  0
   48.3780   33.1990   42.2010 H   0  0  0  0  0  0  0  0  0  0  0  0
   48.5050   34.7570   43.1910 H   0  0  0  0  0  0  0  0  0  0  0  0
   49.7060   34.9890   41.1150 H   0  0  0  0  0  0  0  0  0  0  0  0
   48.2210   36.0600   41.1550 H   0  0  0  0  0  0  0  0  0  0  0  0
   48.3410   35.0220   38.9750 H   0  0  0  0  0  0  0  0  0  0  0  0
   48.7750   33.4480   39.6660 H   0  0  0  0  0  0  0  0  0  0  0  0
   46.6160   32.7890   39.9020 H   0  0  0  0  0  0  0  0  0  0  0  0
   46.1920   34.2250   38.9460 H   0  0  0  0  0  0  0  0  0  0  0  0
   45.6690   35.4970   40.7930 H   0  0  0  0  0  0  0  0  0  0  0  0
   44.4680   36.0840   44.8380 C   0  0  0  0  0  0  0  0  0  0  0  0
   45.1330   35.9080   43.6100 C   0  0  0  0  0  0  0  0  0  0  0  0
   45.9370   34.7440   43.4650 C   0  0  0  0  0  0  0  0  0  0  0  0
   46.0000   33.8950   44.5190 N   0  0  0  0  0  0  0  0  0  0  0  0
   45.3460   34.1000   45.6790 C   0  0  0  0  0  0  0  0  0  0  0  0
   44.5760   35.2030   45.8360 N   0  0  0  0  0  0  0  0  0  0  0  0
   43.8460   36.9680   44.9740 H   0  0  0  0  0  0  0  0  0  0  0  0
   45.0630   36.5970   42.8000 H   0  0  0  0  0  0  0  0  0  0  0  0
   45.5020   33.3150   46.4330 H   0  0  0  0  0  0  0  0  0  0  0  0
   44.7950   33.6370   41.2130 O   0  0  0  0  0  0  0  0  0  0  0  0
   42.7780   31.5090   42.2550 Cl  0  0  0  0  0  0  0  0  0  0  0  0
   42.3820   32.9580   41.4030 C   0  0  0  0  0  0  0  0  0  0  0  0
   43.4700   33.7260   41.0560 C   0  0  0  0  0  0  0  0  0  0  0  0
   43.1570   34.9090   40.3620 C   0  0  0  0  0  0  0  0  0  0  0  0
   43.8560   35.6760   39.9850 H   0  0  0  0  0  0  0  0  0  0  0  0
   41.8430   35.2610   40.0580 C   0  0  0  0  0  0  0  0  0  0  0  0
   41.5500   36.1550   39.5280 H   0  0  0  0  0  0  0  0  0  0  0  0
   40.8380   34.4330   40.4460 C   0  0  0  0  0  0  0  0  0  0  0  0
   39.7950   34.6600   40.2340 H   0  0  0  0  0  0  0  0  0  0  0  0
   41.0730   33.2640   41.1260 C   0  0  0  0  0  0  0  0  0  0  0  0
   39.8390   32.1500   41.6560 Cl  0  0  0  0  0  0  0  0  0  0  0  0
  1  2  1  0  0  0  0
  1 18  1  0  0  0  0
  2  8  1  0  0  0  0
  3  9  1  0  0  0  0
  3 10  1  0  0  0  0
  3  2  1  0  0  0  0
  4  5  1  0  0  0  0
  4  3  1  0  0  0  0
  5 13  1  0  0  0  0
  5  6  1  0  0  0  0
  6 15  1  6  0  0  0
  6 25  1  0  0  0  0
  6  1  1  0  0  0  0
  7  2  1  0  0  0  0
 11  4  1  0  0  0  0
 12  4  1  0  0  0  0
 14  5  1  0  0  0  0
 16 22  1  0  0  0  0
 16 21  1  0  0  0  0
 17 16  2  0  0  0  0
 18 17  1  0  0  0  0
 18 19  2  0  0  0  0
 19 20  1  0  0  0  0
 20 21  2  0  0  0  0
 20 24  1  0  0  0  0
 23 17  1  0  0  0  0
 27 26  1  0  0  0  0
 28 25  1  0  0  0  0
 28 27  2  0  0  0  0
 29 28  1  0  0  0  0
 30 29  1  0  0  0  0
 31 29  2  0  0  0  0
 31 33  1  0  0  0  0
 32 31  1  0  0  0  0
 33 35  2  0  0  0  0
 34 33  1  0  0  0  0
 35 27  1  0  0  0  0
 35 36  1  0  0  0  0
M  END
>  <minimizedAffinity>
-6.04265738

>  <minimizedRMSD>
0.955518246

$$$$
