
 OpenBabel03252506473D

 44 47  0  0  1  0  0  0  0  0999 V2000
   49.2080   33.2130   41.4340 N   0  0  1  0  0  0  0  0  0  0  0  0
   50.5700   33.1490   41.8910 C   0  0  0  0  0  0  0  0  0  0  0  0
   51.2410   31.8430   41.5990 C   0  0  0  0  0  0  0  0  0  0  0  0
   50.5760   30.7550   42.4170 C   0  0  0  0  0  0  0  0  0  0  0  0
   49.0810   30.9880   42.4950 C   0  0  0  0  0  0  0  0  0  0  0  0
   48.6450   31.8920   41.3530 C   0  0  2  0  0  0  0  0  0  0  0  0
   51.1260   33.9260   41.3110 H   0  0  0  0  0  0  0  0  0  0  0  0
   50.6750   33.3710   42.9690 H   0  0  0  0  0  0  0  0  0  0  0  0
   52.2710   31.9310   42.0110 H   0  0  0  0  0  0  0  0  0  0  0  0
   51.3500   31.6110   40.5390 H   0  0  0  0  0  0  0  0  0  0  0  0
   50.7370   29.8100   41.8650 H   0  0  0  0  0  0  0  0  0  0  0  0
   51.0310   30.6290   43.4160 H   0  0  0  0  0  0  0  0  0  0  0  0
   48.7860   31.5060   43.4310 H   0  0  0  0  0  0  0  0  0  0  0  0
   48.5220   30.0400   42.3840 H   0  0  0  0  0  0  0  0  0  0  0  0
   47.5410   32.0010   41.4500 H   0  0  0  0  0  0  0  0  0  0  0  0
   47.1060   34.5980   42.0320 C   0  0  1  0  0  0  0  0  0  0  0  0
   48.2710   35.4790   41.7790 C   0  0  0  0  0  0  0  0  0  0  0  0
   48.4870   34.1030   42.2670 C   0  0  2  0  0  0  0  0  0  0  0  0
   46.5530   34.2110   41.1610 H   0  0  0  0  0  0  0  0  0  0  0  0
   48.4790   35.7220   40.7220 H   0  0  0  0  0  0  0  0  0  0  0  0
   48.3730   36.3740   42.4380 H   0  0  0  0  0  0  0  0  0  0  0  0
   48.7690   34.0430   43.3580 H   0  0  0  0  0  0  0  0  0  0  0  0
   45.4370   36.0460   43.2250 C   0  0  0  0  0  0  0  0  0  0  0  0
   46.2240   34.8750   43.1860 C   0  0  0  0  0  0  0  0  0  0  0  0
   46.1330   33.9860   44.2690 C   0  0  0  0  0  0  0  0  0  0  0  0
   45.2990   34.3020   45.2910 N   0  0  0  0  0  0  0  0  0  0  0  0
   44.5630   35.4300   45.2960 C   0  0  0  0  0  0  0  0  0  0  0  0
   44.6210   36.3150   44.2660 N   0  0  0  0  0  0  0  0  0  0  0  0
   45.4870   36.7470   42.4070 H   0  0  0  0  0  0  0  0  0  0  0  0
   46.7220   33.0850   44.2630 H   0  0  0  0  0  0  0  0  0  0  0  0
   43.9620   35.4950   46.2010 H   0  0  0  0  0  0  0  0  0  0  0  0
   48.8850   31.2210   40.1160 N   0  0  0  0  0  0  0  0  0  0  0  0
   49.3370   30.2560   40.1330 H   0  0  0  0  0  0  0  0  0  0  0  0
   46.1180   32.2220   39.3610 Cl  0  0  0  0  0  0  0  0  0  0  0  0
   47.4380   32.0580   38.2220 C   0  0  0  0  0  0  0  0  0  0  0  0
   48.6390   31.5810   38.7650 C   0  0  0  0  0  0  0  0  0  0  0  0
   49.6840   31.4510   37.8620 C   0  0  0  0  0  0  0  0  0  0  0  0
   50.6250   31.0920   38.1970 H   0  0  0  0  0  0  0  0  0  0  0  0
   49.6260   31.7470   36.5150 C   0  0  0  0  0  0  0  0  0  0  0  0
   50.4650   31.6270   35.8620 H   0  0  0  0  0  0  0  0  0  0  0  0
   48.4230   32.2170   36.0120 C   0  0  0  0  0  0  0  0  0  0  0  0
   48.2790   32.4750   34.9750 H   0  0  0  0  0  0  0  0  0  0  0  0
   47.3640   32.3590   36.8830 C   0  0  0  0  0  0  0  0  0  0  0  0
   45.7810   32.9390   36.3960 Cl  0  0  0  0  0  0  0  0  0  0  0  0
  1  2  1  1  0  0  0
  1 18  1  0  0  0  0
  2  8  1  0  0  0  0
  3  2  1  0  0  0  0
  3  9  1  0  0  0  0
  3  4  1  0  0  0  0
  4  5  1  0  0  0  0
  4 12  1  0  0  0  0
  5 13  1  0  0  0  0
  6  1  1  0  0  0  0
  6 15  1  1  0  0  0
  6  5  1  0  0  0  0
  7  2  1  0  0  0  0
 10  3  1  0  0  0  0
 11  4  1  0  0  0  0
 14  5  1  0  0  0  0
 16 19  1  6  0  0  0
 16 18  1  0  0  0  0
 16 24  1  0  0  0  0
 17 16  1  0  0  0  0
 17 18  1  0  0  0  0
 17 21  1  0  0  0  0
 18 22  1  1  0  0  0
 20 17  1  0  0  0  0
 23 28  1  0  0  0  0
 24 23  2  0  0  0  0
 24 25  1  0  0  0  0
 25 26  2  0  0  0  0
 26 27  1  0  0  0  0
 27 31  1  0  0  0  0
 28 27  2  0  0  0  0
 29 23  1  0  0  0  0
 30 25  1  0  0  0  0
 32 33  1  0  0  0  0
 32  6  1  0  0  0  0
 35 36  1  0  0  0  0
 35 34  1  0  0  0  0
 36 32  1  0  0  0  0
 37 38  1  0  0  0  0
 37 36  2  0  0  0  0
 39 37  1  0  0  0  0
 40 39  1  0  0  0  0
 41 39  2  0  0  0  0
 41 43  1  0  0  0  0
 42 41  1  0  0  0  0
 43 35  2  0  0  0  0
 44 43  1  0  0  0  0
M  END
>  <minimizedAffinity>
-5.18234062

>  <minimizedRMSD>
0.351396441

$$$$
