
 OpenBabel03252506073D

 45 49  0  0  0  0  0  0  0  0999 V2000
   40.5840   31.2630   42.9600 Cl  0  0  0  0  0  0  0  0  0  0  0  0
   39.2610   30.7860   41.9470 C   0  0  0  0  0  0  0  0  0  0  0  0
   38.8220   31.6170   40.9370 C   0  0  0  0  0  0  0  0  0  0  0  0
   37.7620   31.1410   40.1900 C   0  0  0  0  0  0  0  0  0  0  0  0
   37.1380   29.9180   40.3920 C   0  0  0  0  0  0  0  0  0  0  0  0
   37.6050   29.1280   41.4030 C   0  0  0  0  0  0  0  0  0  0  0  0
   36.7830   27.5940   41.6160 Cl  0  0  0  0  0  0  0  0  0  0  0  0
   38.6480   29.5460   42.1720 C   0  0  0  0  0  0  0  0  0  0  0  0
   37.4220   31.8070   39.3930 H   0  0  0  0  0  0  0  0  0  0  0  0
   38.9860   28.8870   42.9630 H   0  0  0  0  0  0  0  0  0  0  0  0
   36.0260   29.6040   39.4830 C   0  0  0  0  0  0  0  0  0  0  0  0
   34.7400   29.3950   39.8990 C   0  0  0  0  0  0  0  0  0  0  0  0
   33.6880   29.0990   39.0530 C   0  0  0  0  0  0  0  0  0  0  0  0
   33.9310   29.0050   37.6990 C   0  0  0  0  0  0  0  0  0  0  0  0
   32.9020   28.7180   36.8900 N   0  0  0  0  0  0  0  0  0  0  0  0
   33.0340   28.6040   35.5550 C   0  0  0  0  0  0  0  0  0  0  0  0
   34.3120   28.8030   35.0540 C   0  0  0  0  0  0  0  0  0  0  0  0
   35.3820   29.0980   35.8640 C   0  0  0  0  0  0  0  0  0  0  0  0
   35.2070   29.2070   37.2320 C   0  0  0  0  0  0  0  0  0  0  0  0
   36.2320   29.5000   38.1050 C   0  0  0  0  0  0  0  0  0  0  0  0
   34.5250   29.4630   40.9580 H   0  0  0  0  0  0  0  0  0  0  0  0
   32.6750   28.9390   39.4180 H   0  0  0  0  0  0  0  0  0  0  0  0
   32.2010   28.3720   34.8960 H   0  0  0  0  0  0  0  0  0  0  0  0
   34.5040   28.7290   33.9940 H   0  0  0  0  0  0  0  0  0  0  0  0
   36.3800   29.2530   35.4790 H   0  0  0  0  0  0  0  0  0  0  0  0
   37.2260   29.6520   37.7000 H   0  0  0  0  0  0  0  0  0  0  0  0
   39.1910   35.1790   40.3050 C   0  0  0  0  0  0  0  0  0  0  0  0
   40.5790   35.3410   40.1720 C   0  0  0  0  0  0  0  0  0  0  0  0
   41.3990   34.2040   40.3030 C   0  0  0  0  0  0  0  0  0  0  0  0
   40.7570   33.0470   40.5490 N   0  0  0  0  0  0  0  0  0  0  0  0
   39.4310   32.9080   40.6720 C   0  0  0  0  0  0  0  0  0  0  0  0
   38.6360   33.9730   40.5520 N   0  0  0  0  0  0  0  0  0  0  0  0
   38.5320   36.0260   40.2100 H   0  0  0  0  0  0  0  0  0  0  0  0
   41.0120   36.2900   39.9790 H   0  0  0  0  0  0  0  0  0  0  0  0
   42.4710   33.4780   37.5670 Cl  0  0  0  0  0  0  0  0  0  0  0  0
   43.4120   33.9440   38.9680 C   0  0  0  0  0  0  0  0  0  0  0  0
   42.8490   34.2600   40.1850 C   0  0  0  0  0  0  0  0  0  0  0  0
   43.6860   34.6130   41.2200 C   0  0  0  0  0  0  0  0  0  0  0  0
   43.2790   34.8670   42.1880 H   0  0  0  0  0  0  0  0  0  0  0  0
   45.0610   34.6750   41.1330 C   0  0  0  0  0  0  0  0  0  0  0  0
   45.6860   34.9570   41.9690 H   0  0  0  0  0  0  0  0  0  0  0  0
   45.6050   34.3490   39.8860 C   0  0  0  0  0  0  0  0  0  0  0  0
   46.6810   34.3870   39.7860 H   0  0  0  0  0  0  0  0  0  0  0  0
   44.7790   33.9940   38.8410 C   0  0  0  0  0  0  0  0  0  0  0  0
   45.5540   33.5970   37.3040 Cl  0  0  0  0  0  0  0  0  0  0  0  0
  2  8  1  0  0  0  0
  2  1  1  0  0  0  0
  3  2  2  0  0  0  0
  4  5  2  0  0  0  0
  4  3  1  0  0  0  0
  5  6  1  0  0  0  0
  6  7  1  0  0  0  0
  6  8  2  0  0  0  0
  8 10  1  0  0  0  0
  9  4  1  0  0  0  0
 11 12  1  0  0  0  0
 11  5  1  0  0  0  0
 12 21  1  0  0  0  0
 13 22  1  0  0  0  0
 13 12  2  0  0  0  0
 14 13  1  0  0  0  0
 15 14  2  0  0  0  0
 16 15  1  0  0  0  0
 17 16  2  0  0  0  0
 17 18  1  0  0  0  0
 18 19  2  0  0  0  0
 19 14  1  0  0  0  0
 19 20  1  0  0  0  0
 20 11  2  0  0  0  0
 23 16  1  0  0  0  0
 24 17  1  0  0  0  0
 25 18  1  0  0  0  0
 26 20  1  0  0  0  0
 27 32  1  0  0  0  0
 28 29  1  0  0  0  0
 28 27  2  0  0  0  0
 29 30  2  0  0  0  0
 30 31  1  0  0  0  0
 31  3  1  0  0  0  0
 32 31  2  0  0  0  0
 33 27  1  0  0  0  0
 34 28  1  0  0  0  0
 35 36  1  0  0  0  0
 36 37  1  0  0  0  0
 37 29  1  0  0  0  0
 37 38  2  0  0  0  0
 38 39  1  0  0  0  0
 40 38  1  0  0  0  0
 40 41  1  0  0  0  0
 42 40  2  0  0  0  0
 43 42  1  0  0  0  0
 44 36  2  0  0  0  0
 44 42  1  0  0  0  0
 45 44  1  0  0  0  0
M  END
>  <minimizedAffinity>
-7.65075731

$$$$

 OpenBabel03252506073D

 45 49  0  0  0  0  0  0  0  0999 V2000
   38.0840   30.3580   37.0010 Cl  0  0  0  0  0  0  0  0  0  0  0  0
   39.1150   31.3180   38.0100 C   0  0  0  0  0  0  0  0  0  0  0  0
   38.9490   31.3120   39.3800 C   0  0  0  0  0  0  0  0  0  0  0  0
   39.8230   32.1120   40.0910 C   0  0  0  0  0  0  0  0  0  0  0  0
   40.8210   32.8920   39.5230 C   0  0  0  0  0  0  0  0  0  0  0  0
   40.9480   32.8670   38.1650 C   0  0  0  0  0  0  0  0  0  0  0  0
   42.2240   33.8690   37.4980 Cl  0  0  0  0  0  0  0  0  0  0  0  0
   40.1150   32.0960   37.4130 C   0  0  0  0  0  0  0  0  0  0  0  0
   39.6830   32.1010   41.1750 H   0  0  0  0  0  0  0  0  0  0  0  0
   40.2520   32.1070   36.3380 H   0  0  0  0  0  0  0  0  0  0  0  0
   41.6420   33.6710   40.4620 C   0  0  0  0  0  0  0  0  0  0  0  0
   41.4730   35.0090   40.6900 C   0  0  0  0  0  0  0  0  0  0  0  0
   42.2390   35.7490   41.5700 C   0  0  0  0  0  0  0  0  0  0  0  0
   43.2430   35.1160   42.2720 C   0  0  0  0  0  0  0  0  0  0  0  0
   43.9770   35.8470   43.1220 N   0  0  0  0  0  0  0  0  0  0  0  0
   44.9810   35.3240   43.8540 C   0  0  0  0  0  0  0  0  0  0  0  0
   45.2150   33.9690   43.6780 C   0  0  0  0  0  0  0  0  0  0  0  0
   44.4740   33.2000   42.8130 C   0  0  0  0  0  0  0  0  0  0  0  0
   43.4530   33.7730   42.0780 C   0  0  0  0  0  0  0  0  0  0  0  0
   42.6690   33.0660   41.1910 C   0  0  0  0  0  0  0  0  0  0  0  0
   40.6910   35.5270   40.1500 H   0  0  0  0  0  0  0  0  0  0  0  0
   42.0770   36.8150   41.7280 H   0  0  0  0  0  0  0  0  0  0  0  0
   45.5780   35.9140   44.5450 H   0  0  0  0  0  0  0  0  0  0  0  0
   46.0010   33.4720   44.2270 H   0  0  0  0  0  0  0  0  0  0  0  0
   44.6530   32.1440   42.6710 H   0  0  0  0  0  0  0  0  0  0  0  0
   42.8640   32.0060   41.0640 H   0  0  0  0  0  0  0  0  0  0  0  0
   35.8120   30.3790   40.9640 C   0  0  0  0  0  0  0  0  0  0  0  0
   35.9970   29.0230   41.2740 C   0  0  0  0  0  0  0  0  0  0  0  0
   37.2240   28.4220   40.9310 C   0  0  0  0  0  0  0  0  0  0  0  0
   38.1180   29.2250   40.3260 N   0  0  0  0  0  0  0  0  0  0  0  0
   37.9260   30.5180   40.0370 C   0  0  0  0  0  0  0  0  0  0  0  0
   36.7710   31.1070   40.3530 N   0  0  0  0  0  0  0  0  0  0  0  0
   34.8860   30.8730   41.2120 H   0  0  0  0  0  0  0  0  0  0  0  0
   35.2410   28.4540   41.7540 H   0  0  0  0  0  0  0  0  0  0  0  0
   39.3280   27.9720   43.0610 Cl  0  0  0  0  0  0  0  0  0  0  0  0
   38.4680   26.7380   42.1650 C   0  0  0  0  0  0  0  0  0  0  0  0
   37.5200   27.0230   41.2060 C   0  0  0  0  0  0  0  0  0  0  0  0
   36.9060   25.9720   40.5620 C   0  0  0  0  0  0  0  0  0  0  0  0
   36.1580   26.1590   39.8050 H   0  0  0  0  0  0  0  0  0  0  0  0
   37.1670   24.6400   40.8050 C   0  0  0  0  0  0  0  0  0  0  0  0
   36.6630   23.8420   40.2780 H   0  0  0  0  0  0  0  0  0  0  0  0
   38.1330   24.3810   41.7840 C   0  0  0  0  0  0  0  0  0  0  0  0
   38.3620   23.3450   41.9970 H   0  0  0  0  0  0  0  0  0  0  0  0
   38.7560   25.4230   42.4360 C   0  0  0  0  0  0  0  0  0  0  0  0
   39.9630   25.0010   43.6550 Cl  0  0  0  0  0  0  0  0  0  0  0  0
  1  2  1  0  0  0  0
  2  3  1  0  0  0  0
  3 31  1  0  0  0  0
  3  4  2  0  0  0  0
  4  9  1  0  0  0  0
  5  4  1  0  0  0  0
  5 11  1  0  0  0  0
  6  5  2  0  0  0  0
  7  6  1  0  0  0  0
  8  2  2  0  0  0  0
  8  6  1  0  0  0  0
 10  8  1  0  0  0  0
 11 12  2  0  0  0  0
 11 20  1  0  0  0  0
 12 13  1  0  0  0  0
 13 22  1  0  0  0  0
 13 14  2  0  0  0  0
 14 15  1  0  0  0  0
 15 16  2  0  0  0  0
 16 23  1  0  0  0  0
 17 16  1  0  0  0  0
 17 24  1  0  0  0  0
 18 17  2  0  0  0  0
 19 14  1  0  0  0  0
 19 18  1  0  0  0  0
 20 19  2  0  0  0  0
 21 12  1  0  0  0  0
 25 18  1  0  0  0  0
 26 20  1  0  0  0  0
 27 33  1  0  0  0  0
 27 28  1  0  0  0  0
 28 34  1  0  0  0  0
 29 37  1  0  0  0  0
 29 28  2  0  0  0  0
 30 29  1  0  0  0  0
 31 30  2  0  0  0  0
 31 32  1  0  0  0  0
 32 27  2  0  0  0  0
 36 44  1  0  0  0  0
 36 35  1  0  0  0  0
 37 36  2  0  0  0  0
 38 40  2  0  0  0  0
 38 37  1  0  0  0  0
 39 38  1  0  0  0  0
 40 42  1  0  0  0  0
 41 40  1  0  0  0  0
 42 43  1  0  0  0  0
 42 44  2  0  0  0  0
 44 45  1  0  0  0  0
M  END
>  <minimizedAffinity>
-7.63859987

$$$$

 OpenBabel03252506073D

 45 49  0  0  0  0  0  0  0  0999 V2000
   39.4350   30.2230   42.8890 Cl  0  0  0  0  0  0  0  0  0  0  0  0
   39.0140   28.6600   42.2690 C   0  0  0  0  0  0  0  0  0  0  0  0
   38.3430   28.5430   41.0700 C   0  0  0  0  0  0  0  0  0  0  0  0
   38.0550   27.2530   40.6680 C   0  0  0  0  0  0  0  0  0  0  0  0
   38.3940   26.1100   41.3790 C   0  0  0  0  0  0  0  0  0  0  0  0
   39.0580   26.2720   42.5600 C   0  0  0  0  0  0  0  0  0  0  0  0
   39.4610   24.7970   43.4190 Cl  0  0  0  0  0  0  0  0  0  0  0  0
   39.3670   27.5210   43.0050 C   0  0  0  0  0  0  0  0  0  0  0  0
   37.5230   27.1730   39.7170 H   0  0  0  0  0  0  0  0  0  0  0  0
   39.8950   27.6020   43.9490 H   0  0  0  0  0  0  0  0  0  0  0  0
   37.9930   24.8320   40.7720 C   0  0  0  0  0  0  0  0  0  0  0  0
   38.8670   23.8200   40.4850 C   0  0  0  0  0  0  0  0  0  0  0  0
   38.5000   22.6160   39.9150 C   0  0  0  0  0  0  0  0  0  0  0  0
   37.1730   22.4030   39.6090 C   0  0  0  0  0  0  0  0  0  0  0  0
   36.8320   21.2300   39.0570 N   0  0  0  0  0  0  0  0  0  0  0  0
   35.5640   20.9240   38.7200 C   0  0  0  0  0  0  0  0  0  0  0  0
   34.6160   21.9020   38.9810 C   0  0  0  0  0  0  0  0  0  0  0  0
   34.9430   23.1110   39.5460 C   0  0  0  0  0  0  0  0  0  0  0  0
   36.2560   23.3890   39.8780 C   0  0  0  0  0  0  0  0  0  0  0  0
   36.6580   24.5780   40.4470 C   0  0  0  0  0  0  0  0  0  0  0  0
   39.9140   23.9640   40.7170 H   0  0  0  0  0  0  0  0  0  0  0  0
   39.2230   21.8300   39.7000 H   0  0  0  0  0  0  0  0  0  0  0  0
   35.2830   19.9740   38.2730 H   0  0  0  0  0  0  0  0  0  0  0  0
   33.5760   21.7370   38.7410 H   0  0  0  0  0  0  0  0  0  0  0  0
   34.2080   23.8780   39.7510 H   0  0  0  0  0  0  0  0  0  0  0  0
   35.9060   25.3350   40.6450 H   0  0  0  0  0  0  0  0  0  0  0  0
   36.5090   30.6780   38.7660 C   0  0  0  0  0  0  0  0  0  0  0  0
   37.2410   31.8750   38.7820 C   0  0  0  0  0  0  0  0  0  0  0  0
   38.3860   31.9460   39.6010 C   0  0  0  0  0  0  0  0  0  0  0  0
   38.6700   30.8340   40.3030 N   0  0  0  0  0  0  0  0  0  0  0  0
   37.9610   29.6980   40.2770 C   0  0  0  0  0  0  0  0  0  0  0  0
   36.8740   29.6100   39.5090 N   0  0  0  0  0  0  0  0  0  0  0  0
   35.6280   30.5860   38.1520 H   0  0  0  0  0  0  0  0  0  0  0  0
   36.9510   32.7120   38.1990 H   0  0  0  0  0  0  0  0  0  0  0  0
   40.8750   31.8850   37.8790 Cl  0  0  0  0  0  0  0  0  0  0  0  0
   40.3670   33.1850   38.9360 C   0  0  0  0  0  0  0  0  0  0  0  0
   39.2160   33.1380   39.6920 C   0  0  0  0  0  0  0  0  0  0  0  0
   38.9140   34.2190   40.4900 C   0  0  0  0  0  0  0  0  0  0  0  0
   38.0190   34.2160   41.0960 H   0  0  0  0  0  0  0  0  0  0  0  0
   39.6820   35.3600   40.5930 C   0  0  0  0  0  0  0  0  0  0  0  0
   39.4110   36.1890   41.2320 H   0  0  0  0  0  0  0  0  0  0  0  0
   40.8440   35.3800   39.8150 C   0  0  0  0  0  0  0  0  0  0  0  0
   41.4690   36.2610   39.8740 H   0  0  0  0  0  0  0  0  0  0  0  0
   41.1600   34.3050   39.0120 C   0  0  0  0  0  0  0  0  0  0  0  0
   42.6460   34.4180   38.0650 Cl  0  0  0  0  0  0  0  0  0  0  0  0
  2  1  1  0  0  0  0
  2  8  1  0  0  0  0
  3  2  2  0  0  0  0
  4  3  1  0  0  0  0
  4  5  2  0  0  0  0
  5  6  1  0  0  0  0
  6  8  2  0  0  0  0
  6  7  1  0  0  0  0
  8 10  1  0  0  0  0
  9  4  1  0  0  0  0
 11  5  1  0  0  0  0
 12 21  1  0  0  0  0
 12 11  1  0  0  0  0
 13 12  2  0  0  0  0
 14 19  1  0  0  0  0
 14 13  1  0  0  0  0
 15 14  2  0  0  0  0
 16 17  2  0  0  0  0
 16 15  1  0  0  0  0
 17 18  1  0  0  0  0
 18 25  1  0  0  0  0
 18 19  2  0  0  0  0
 19 20  1  0  0  0  0
 20 26  1  0  0  0  0
 20 11  2  0  0  0  0
 22 13  1  0  0  0  0
 23 16  1  0  0  0  0
 24 17  1  0  0  0  0
 27 28  2  0  0  0  0
 27 32  1  0  0  0  0
 28 29  1  0  0  0  0
 29 37  1  0  0  0  0
 29 30  2  0  0  0  0
 31 30  1  0  0  0  0
 31  3  1  0  0  0  0
 32 31  2  0  0  0  0
 33 27  1  0  0  0  0
 34 28  1  0  0  0  0
 35 36  1  0  0  0  0
 36 44  2  0  0  0  0
 36 37  1  0  0  0  0
 37 38  2  0  0  0  0
 38 40  1  0  0  0  0
 38 39  1  0  0  0  0
 40 41  1  0  0  0  0
 42 43  1  0  0  0  0
 42 40  2  0  0  0  0
 44 42  1  0  0  0  0
 45 44  1  0  0  0  0
M  END
>  <minimizedAffinity>
-7.60212326

$$$$

 OpenBabel03252506073D

 45 49  0  0  0  0  0  0  0  0999 V2000
   36.9580   34.1870   39.1450 Cl  0  0  0  0  0  0  0  0  0  0  0  0
   37.3700   32.6910   39.9160 C   0  0  0  0  0  0  0  0  0  0  0  0
   38.5900   32.5430   40.5420 C   0  0  0  0  0  0  0  0  0  0  0  0
   38.8180   31.3100   41.1240 C   0  0  0  0  0  0  0  0  0  0  0  0
   37.9190   30.2530   41.1140 C   0  0  0  0  0  0  0  0  0  0  0  0
   36.7240   30.4440   40.4830 C   0  0  0  0  0  0  0  0  0  0  0  0
   35.6250   29.0780   40.4980 Cl  0  0  0  0  0  0  0  0  0  0  0  0
   36.4460   31.6390   39.8920 C   0  0  0  0  0  0  0  0  0  0  0  0
   39.7880   31.2030   41.6170 H   0  0  0  0  0  0  0  0  0  0  0  0
   35.4840   31.7450   39.4030 H   0  0  0  0  0  0  0  0  0  0  0  0
   38.3610   29.0250   41.7930 C   0  0  0  0  0  0  0  0  0  0  0  0
   38.0610   28.7270   43.0930 C   0  0  0  0  0  0  0  0  0  0  0  0
   38.4720   27.5770   43.7400 C   0  0  0  0  0  0  0  0  0  0  0  0
   39.2310   26.6600   43.0460 C   0  0  0  0  0  0  0  0  0  0  0  0
   39.6210   25.5490   43.6860 N   0  0  0  0  0  0  0  0  0  0  0  0
   40.3660   24.5920   43.0990 C   0  0  0  0  0  0  0  0  0  0  0  0
   40.7110   24.8220   41.7760 C   0  0  0  0  0  0  0  0  0  0  0  0
   40.3220   25.9530   41.1000 C   0  0  0  0  0  0  0  0  0  0  0  0
   39.5590   26.9140   41.7370 C   0  0  0  0  0  0  0  0  0  0  0  0
   39.1320   28.0720   41.1240 C   0  0  0  0  0  0  0  0  0  0  0  0
   37.4650   29.4320   43.6580 H   0  0  0  0  0  0  0  0  0  0  0  0
   38.2140   27.3700   44.7780 H   0  0  0  0  0  0  0  0  0  0  0  0
   40.6840   23.6890   43.6150 H   0  0  0  0  0  0  0  0  0  0  0  0
   41.3070   24.1050   41.2310 H   0  0  0  0  0  0  0  0  0  0  0  0
   40.5900   26.1380   40.0690 H   0  0  0  0  0  0  0  0  0  0  0  0
   39.4100   28.2390   40.0890 H   0  0  0  0  0  0  0  0  0  0  0  0
   40.0620   35.8480   40.9070 C   0  0  0  0  0  0  0  0  0  0  0  0
   41.4280   35.6200   40.6810 C   0  0  0  0  0  0  0  0  0  0  0  0
   41.8470   34.3050   40.3980 C   0  0  0  0  0  0  0  0  0  0  0  0
   40.8740   33.3760   40.3730 N   0  0  0  0  0  0  0  0  0  0  0  0
   39.5740   33.6090   40.5900 C   0  0  0  0  0  0  0  0  0  0  0  0
   39.1560   34.8470   40.8600 N   0  0  0  0  0  0  0  0  0  0  0  0
   39.7040   36.8410   41.1260 H   0  0  0  0  0  0  0  0  0  0  0  0
   42.1370   36.4080   40.7200 H   0  0  0  0  0  0  0  0  0  0  0  0
   42.5910   34.0960   37.4720 Cl  0  0  0  0  0  0  0  0  0  0  0  0
   43.6540   33.8460   38.8400 C   0  0  0  0  0  0  0  0  0  0  0  0
   43.2390   33.9590   40.1500 C   0  0  0  0  0  0  0  0  0  0  0  0
   44.1610   33.7400   41.1480 C   0  0  0  0  0  0  0  0  0  0  0  0
   43.8710   33.8200   42.1860 H   0  0  0  0  0  0  0  0  0  0  0  0
   45.4850   33.4120   40.9380 C   0  0  0  0  0  0  0  0  0  0  0  0
   46.1800   33.2470   41.7500 H   0  0  0  0  0  0  0  0  0  0  0  0
   45.8770   33.3040   39.6000 C   0  0  0  0  0  0  0  0  0  0  0  0
   46.9100   33.0470   39.4030 H   0  0  0  0  0  0  0  0  0  0  0  0
   44.9650   33.5210   38.5900 C   0  0  0  0  0  0  0  0  0  0  0  0
   45.5500   33.3620   36.9310 Cl  0  0  0  0  0  0  0  0  0  0  0  0
  1  2  1  0  0  0  0
  2  3  1  0  0  0  0
  3 31  1  0  0  0  0
  3  4  2  0  0  0  0
  4  9  1  0  0  0  0
  5  4  1  0  0  0  0
  5 11  1  0  0  0  0
  6  7  1  0  0  0  0
  6  5  2  0  0  0  0
  8  2  2  0  0  0  0
  8  6  1  0  0  0  0
 10  8  1  0  0  0  0
 11 12  1  0  0  0  0
 12 21  1  0  0  0  0
 12 13  2  0  0  0  0
 13 22  1  0  0  0  0
 14 15  1  0  0  0  0
 14 13  1  0  0  0  0
 16 23  1  0  0  0  0
 16 15  2  0  0  0  0
 17 16  1  0  0  0  0
 18 19  1  0  0  0  0
 18 17  2  0  0  0  0
 19 14  2  0  0  0  0
 20 19  1  0  0  0  0
 20 11  2  0  0  0  0
 24 17  1  0  0  0  0
 25 18  1  0  0  0  0
 26 20  1  0  0  0  0
 27 33  1  0  0  0  0
 28 34  1  0  0  0  0
 28 27  2  0  0  0  0
 29 28  1  0  0  0  0
 30 29  2  0  0  0  0
 30 31  1  0  0  0  0
 31 32  2  0  0  0  0
 32 27  1  0  0  0  0
 35 36  1  0  0  0  0
 36 37  1  0  0  0  0
 37 29  1  0  0  0  0
 37 38  2  0  0  0  0
 38 39  1  0  0  0  0
 40 38  1  0  0  0  0
 40 41  1  0  0  0  0
 42 40  2  0  0  0  0
 43 42  1  0  0  0  0
 44 36  2  0  0  0  0
 44 42  1  0  0  0  0
 45 44  1  0  0  0  0
M  END
>  <minimizedAffinity>
-7.52451277

$$$$

 OpenBabel03252506073D

 45 49  0  0  0  0  0  0  0  0999 V2000
   36.7440   26.2560   38.6310 Cl  0  0  0  0  0  0  0  0  0  0  0  0
   35.3970   27.2210   38.1220 C   0  0  0  0  0  0  0  0  0  0  0  0
   35.1420   28.4340   38.7280 C   0  0  0  0  0  0  0  0  0  0  0  0
   34.0450   29.1230   38.2480 C   0  0  0  0  0  0  0  0  0  0  0  0
   33.2160   28.6770   37.2270 C   0  0  0  0  0  0  0  0  0  0  0  0
   33.5060   27.4720   36.6580 C   0  0  0  0  0  0  0  0  0  0  0  0
   32.4290   26.9550   35.3740 Cl  0  0  0  0  0  0  0  0  0  0  0  0
   34.5760   26.7490   37.0910 C   0  0  0  0  0  0  0  0  0  0  0  0
   33.8520   30.0830   38.7340 H   0  0  0  0  0  0  0  0  0  0  0  0
   34.7680   25.7970   36.6090 H   0  0  0  0  0  0  0  0  0  0  0  0
   32.1010   29.5660   36.8690 C   0  0  0  0  0  0  0  0  0  0  0  0
   31.0540   29.8450   37.7030 C   0  0  0  0  0  0  0  0  0  0  0  0
   30.0010   30.6780   37.3750 C   0  0  0  0  0  0  0  0  0  0  0  0
   29.9890   31.2770   36.1330 C   0  0  0  0  0  0  0  0  0  0  0  0
   28.9630   32.0830   35.8300 N   0  0  0  0  0  0  0  0  0  0  0  0
   28.8570   32.7140   34.6440 C   0  0  0  0  0  0  0  0  0  0  0  0
   29.8840   32.4810   33.7420 C   0  0  0  0  0  0  0  0  0  0  0  0
   30.9460   31.6590   34.0310 C   0  0  0  0  0  0  0  0  0  0  0  0
   31.0190   31.0280   35.2590 C   0  0  0  0  0  0  0  0  0  0  0  0
   32.0530   30.1910   35.6200 C   0  0  0  0  0  0  0  0  0  0  0  0
   31.0410   29.3870   38.6830 H   0  0  0  0  0  0  0  0  0  0  0  0
   29.1820   30.8800   38.0640 H   0  0  0  0  0  0  0  0  0  0  0  0
   28.0260   33.3690   34.3950 H   0  0  0  0  0  0  0  0  0  0  0  0
   29.8750   32.9490   32.7680 H   0  0  0  0  0  0  0  0  0  0  0  0
   31.7480   31.4740   33.3310 H   0  0  0  0  0  0  0  0  0  0  0  0
   32.8490   30.0170   34.9040 H   0  0  0  0  0  0  0  0  0  0  0  0
   36.7440   28.7930   41.9730 C   0  0  0  0  0  0  0  0  0  0  0  0
   37.5310   29.9450   41.8190 C   0  0  0  0  0  0  0  0  0  0  0  0
   37.5080   30.6080   40.5760 C   0  0  0  0  0  0  0  0  0  0  0  0
   36.7160   30.0580   39.6370 N   0  0  0  0  0  0  0  0  0  0  0  0
   35.9710   28.9580   39.7990 C   0  0  0  0  0  0  0  0  0  0  0  0
   35.9780   28.3160   40.9680 N   0  0  0  0  0  0  0  0  0  0  0  0
   36.7360   28.2600   42.9090 H   0  0  0  0  0  0  0  0  0  0  0  0
   38.1330   30.3180   42.6100 H   0  0  0  0  0  0  0  0  0  0  0  0
   40.4260   30.1060   39.9490 Cl  0  0  0  0  0  0  0  0  0  0  0  0
   39.6240   31.6610   40.0140 C   0  0  0  0  0  0  0  0  0  0  0  0
   38.2860   31.8090   40.3090 C   0  0  0  0  0  0  0  0  0  0  0  0
   37.7600   33.0810   40.3330 C   0  0  0  0  0  0  0  0  0  0  0  0
   36.7140   33.2340   40.5600 H   0  0  0  0  0  0  0  0  0  0  0  0
   38.4750   34.2330   40.0830 C   0  0  0  0  0  0  0  0  0  0  0  0
   38.0260   35.2160   40.1110 H   0  0  0  0  0  0  0  0  0  0  0  0
   39.8310   34.0520   39.7870 C   0  0  0  0  0  0  0  0  0  0  0  0
   40.4200   34.9380   39.5860 H   0  0  0  0  0  0  0  0  0  0  0  0
   40.3710   32.7850   39.7590 C   0  0  0  0  0  0  0  0  0  0  0  0
   42.0910   32.6530   39.3770 Cl  0  0  0  0  0  0  0  0  0  0  0  0
  2  1  1  0  0  0  0
  2  3  1  0  0  0  0
  3 31  1  0  0  0  0
  4  3  2  0  0  0  0
  4  9  1  0  0  0  0
  5  4  1  0  0  0  0
  6  8  1  0  0  0  0
  6  5  2  0  0  0  0
  7  6  1  0  0  0  0
  8  2  2  0  0  0  0
 10  8  1  0  0  0  0
 11  5  1  0  0  0  0
 11 12  1  0  0  0  0
 12 21  1  0  0  0  0
 13 12  2  0  0  0  0
 13 22  1  0  0  0  0
 14 13  1  0  0  0  0
 15 14  1  0  0  0  0
 16 15  2  0  0  0  0
 17 18  2  0  0  0  0
 17 16  1  0  0  0  0
 18 19  1  0  0  0  0
 19 20  1  0  0  0  0
 19 14  2  0  0  0  0
 20 11  2  0  0  0  0
 23 16  1  0  0  0  0
 24 17  1  0  0  0  0
 25 18  1  0  0  0  0
 26 20  1  0  0  0  0
 27 33  1  0  0  0  0
 28 27  1  0  0  0  0
 28 34  1  0  0  0  0
 29 28  2  0  0  0  0
 30 31  2  0  0  0  0
 30 29  1  0  0  0  0
 31 32  1  0  0  0  0
 32 27  2  0  0  0  0
 35 36  1  0  0  0  0
 36 37  1  0  0  0  0
 37 38  2  0  0  0  0
 37 29  1  0  0  0  0
 38 39  1  0  0  0  0
 40 41  1  0  0  0  0
 40 38  1  0  0  0  0
 42 40  2  0  0  0  0
 43 42  1  0  0  0  0
 44 42  1  0  0  0  0
 44 36  2  0  0  0  0
 45 44  1  0  0  0  0
M  END
>  <minimizedAffinity>
-7.39709473

$$$$

 OpenBabel03252506073D

 45 49  0  0  0  0  0  0  0  0999 V2000
   37.9300   34.5400   39.5540 Cl  0  0  0  0  0  0  0  0  0  0  0  0
   38.0620   32.8510   39.9240 C   0  0  0  0  0  0  0  0  0  0  0  0
   39.3010   32.2470   39.9860 C   0  0  0  0  0  0  0  0  0  0  0  0
   39.2940   30.8990   40.2870 C   0  0  0  0  0  0  0  0  0  0  0  0
   38.1500   30.1470   40.5230 C   0  0  0  0  0  0  0  0  0  0  0  0
   36.9470   30.7860   40.4510 C   0  0  0  0  0  0  0  0  0  0  0  0
   35.5350   29.7930   40.7570 Cl  0  0  0  0  0  0  0  0  0  0  0  0
   36.8940   32.1150   40.1580 C   0  0  0  0  0  0  0  0  0  0  0  0
   40.2800   30.4290   40.3330 H   0  0  0  0  0  0  0  0  0  0  0  0
   35.9160   32.5810   40.1110 H   0  0  0  0  0  0  0  0  0  0  0  0
   38.3660   28.7250   40.8270 C   0  0  0  0  0  0  0  0  0  0  0  0
   38.0080   27.7060   39.9890 C   0  0  0  0  0  0  0  0  0  0  0  0
   38.2050   26.3670   40.2660 C   0  0  0  0  0  0  0  0  0  0  0  0
   38.8020   26.0160   41.4580 C   0  0  0  0  0  0  0  0  0  0  0  0
   38.9880   24.7130   41.7120 N   0  0  0  0  0  0  0  0  0  0  0  0
   39.5610   24.2670   42.8470 C   0  0  0  0  0  0  0  0  0  0  0  0
   39.9530   25.2430   43.7510 C   0  0  0  0  0  0  0  0  0  0  0  0
   39.7730   26.5830   43.5110 C   0  0  0  0  0  0  0  0  0  0  0  0
   39.1800   27.0030   42.3340 C   0  0  0  0  0  0  0  0  0  0  0  0
   38.9670   28.3290   42.0250 C   0  0  0  0  0  0  0  0  0  0  0  0
   37.5370   27.9570   39.0460 H   0  0  0  0  0  0  0  0  0  0  0  0
   37.9080   25.5790   39.5740 H   0  0  0  0  0  0  0  0  0  0  0  0
   39.7140   23.2110   43.0570 H   0  0  0  0  0  0  0  0  0  0  0  0
   40.4200   24.9690   44.6860 H   0  0  0  0  0  0  0  0  0  0  0  0
   40.0760   27.3480   44.2120 H   0  0  0  0  0  0  0  0  0  0  0  0
   39.2790   29.0820   42.7410 H   0  0  0  0  0  0  0  0  0  0  0  0
   41.9840   34.0000   38.2680 C   0  0  0  0  0  0  0  0  0  0  0  0
   42.8590   34.3490   39.3080 C   0  0  0  0  0  0  0  0  0  0  0  0
   42.5180   33.9730   40.6220 C   0  0  0  0  0  0  0  0  0  0  0  0
   41.3590   33.3020   40.7540 N   0  0  0  0  0  0  0  0  0  0  0  0
   40.5340   32.9760   39.7510 C   0  0  0  0  0  0  0  0  0  0  0  0
   40.8390   33.3220   38.4990 N   0  0  0  0  0  0  0  0  0  0  0  0
   42.2120   34.2700   37.2500 H   0  0  0  0  0  0  0  0  0  0  0  0
   43.7580   34.8830   39.1230 H   0  0  0  0  0  0  0  0  0  0  0  0
   44.1670   31.6520   41.6500 Cl  0  0  0  0  0  0  0  0  0  0  0  0
   44.1350   33.2780   42.2970 C   0  0  0  0  0  0  0  0  0  0  0  0
   43.3530   34.2850   41.7730 C   0  0  0  0  0  0  0  0  0  0  0  0
   43.4060   35.5280   42.3630 C   0  0  0  0  0  0  0  0  0  0  0  0
   42.8070   36.3410   41.9770 H   0  0  0  0  0  0  0  0  0  0  0  0
   44.1890   35.8490   43.4520 C   0  0  0  0  0  0  0  0  0  0  0  0
   44.2040   36.8380   43.8880 H   0  0  0  0  0  0  0  0  0  0  0  0
   44.9720   34.8080   43.9630 C   0  0  0  0  0  0  0  0  0  0  0  0
   45.5970   35.0280   44.8190 H   0  0  0  0  0  0  0  0  0  0  0  0
   44.9290   33.5590   43.3830 C   0  0  0  0  0  0  0  0  0  0  0  0
   45.9490   32.3060   44.0960 Cl  0  0  0  0  0  0  0  0  0  0  0  0
  1  2  1  0  0  0  0
  2  3  2  0  0  0  0
  2  8  1  0  0  0  0
  3  4  1  0  0  0  0
  4  9  1  0  0  0  0
  4  5  2  0  0  0  0
  5 11  1  0  0  0  0
  6  5  1  0  0  0  0
  6  7  1  0  0  0  0
  8  6  2  0  0  0  0
 10  8  1  0  0  0  0
 11 20  1  0  0  0  0
 12 13  1  0  0  0  0
 12 11  2  0  0  0  0
 13 14  2  0  0  0  0
 14 15  1  0  0  0  0
 14 19  1  0  0  0  0
 15 16  2  0  0  0  0
 16 23  1  0  0  0  0
 16 17  1  0  0  0  0
 17 24  1  0  0  0  0
 18 17  2  0  0  0  0
 18 25  1  0  0  0  0
 19 18  1  0  0  0  0
 20 19  2  0  0  0  0
 20 26  1  0  0  0  0
 21 12  1  0  0  0  0
 22 13  1  0  0  0  0
 27 32  2  0  0  0  0
 27 28  1  0  0  0  0
 28 29  2  0  0  0  0
 29 30  1  0  0  0  0
 29 37  1  0  0  0  0
 31  3  1  0  0  0  0
 31 30  2  0  0  0  0
 32 31  1  0  0  0  0
 33 27  1  0  0  0  0
 34 28  1  0  0  0  0
 35 36  1  0  0  0  0
 36 44  1  0  0  0  0
 37 36  2  0  0  0  0
 37 38  1  0  0  0  0
 38 40  2  0  0  0  0
 39 38  1  0  0  0  0
 40 41  1  0  0  0  0
 40 42  1  0  0  0  0
 42 43  1  0  0  0  0
 44 42  2  0  0  0  0
 44 45  1  0  0  0  0
M  END
>  <minimizedAffinity>
-7.23803234

$$$$

 OpenBabel03252506073D

 45 49  0  0  0  0  0  0  0  0999 V2000
   36.7940   26.1290   38.5560 Cl  0  0  0  0  0  0  0  0  0  0  0  0
   35.4570   27.1160   38.0670 C   0  0  0  0  0  0  0  0  0  0  0  0
   35.3100   28.3910   38.5740 C   0  0  0  0  0  0  0  0  0  0  0  0
   34.2110   29.0930   38.1200 C   0  0  0  0  0  0  0  0  0  0  0  0
   33.2800   28.6030   37.2130 C   0  0  0  0  0  0  0  0  0  0  0  0
   33.4640   27.3380   36.7380 C   0  0  0  0  0  0  0  0  0  0  0  0
   32.2610   26.7670   35.5960 Cl  0  0  0  0  0  0  0  0  0  0  0  0
   34.5310   26.6000   37.1510 C   0  0  0  0  0  0  0  0  0  0  0  0
   34.1030   30.1010   38.5280 H   0  0  0  0  0  0  0  0  0  0  0  0
   34.6380   25.5990   36.7470 H   0  0  0  0  0  0  0  0  0  0  0  0
   32.1820   29.5160   36.8610 C   0  0  0  0  0  0  0  0  0  0  0  0
   31.1610   29.8390   37.7120 C   0  0  0  0  0  0  0  0  0  0  0  0
   30.1240   30.6950   37.3910 C   0  0  0  0  0  0  0  0  0  0  0  0
   30.1010   31.2700   36.1390 C   0  0  0  0  0  0  0  0  0  0  0  0
   29.0910   32.0980   35.8410 N   0  0  0  0  0  0  0  0  0  0  0  0
   28.9760   32.7090   34.6460 C   0  0  0  0  0  0  0  0  0  0  0  0
   29.9760   32.4310   33.7270 C   0  0  0  0  0  0  0  0  0  0  0  0
   31.0210   31.5860   34.0090 C   0  0  0  0  0  0  0  0  0  0  0  0
   31.1050   30.9760   35.2480 C   0  0  0  0  0  0  0  0  0  0  0  0
   32.1230   30.1170   35.6020 C   0  0  0  0  0  0  0  0  0  0  0  0
   31.1580   29.4000   38.7020 H   0  0  0  0  0  0  0  0  0  0  0  0
   29.3260   30.9320   38.0940 H   0  0  0  0  0  0  0  0  0  0  0  0
   28.1580   33.3830   34.4020 H   0  0  0  0  0  0  0  0  0  0  0  0
   29.9590   32.8810   32.7450 H   0  0  0  0  0  0  0  0  0  0  0  0
   31.8030   31.3650   33.2960 H   0  0  0  0  0  0  0  0  0  0  0  0
   32.8980   29.9090   34.8720 H   0  0  0  0  0  0  0  0  0  0  0  0
   36.9030   29.2870   41.7180 C   0  0  0  0  0  0  0  0  0  0  0  0
   38.0150   30.0410   41.3130 C   0  0  0  0  0  0  0  0  0  0  0  0
   38.2190   30.2430   39.9340 C   0  0  0  0  0  0  0  0  0  0  0  0
   37.3050   29.6790   39.1220 N   0  0  0  0  0  0  0  0  0  0  0  0
   36.2480   28.9630   39.5230 C   0  0  0  0  0  0  0  0  0  0  0  0
   36.0370   28.7610   40.8250 N   0  0  0  0  0  0  0  0  0  0  0  0
   36.7150   29.1130   42.7650 H   0  0  0  0  0  0  0  0  0  0  0  0
   38.6940   30.4530   42.0170 H   0  0  0  0  0  0  0  0  0  0  0  0
   38.1420   33.2000   40.5740 Cl  0  0  0  0  0  0  0  0  0  0  0  0
   39.3760   32.3610   39.6580 C   0  0  0  0  0  0  0  0  0  0  0  0
   39.3400   31.0060   39.4070 C   0  0  0  0  0  0  0  0  0  0  0  0
   40.3650   30.4510   38.6740 C   0  0  0  0  0  0  0  0  0  0  0  0
   40.3690   29.3920   38.4580 H   0  0  0  0  0  0  0  0  0  0  0  0
   41.4380   31.1530   38.1650 C   0  0  0  0  0  0  0  0  0  0  0  0
   42.2240   30.6800   37.5930 H   0  0  0  0  0  0  0  0  0  0  0  0
   41.4480   32.5250   38.4350 C   0  0  0  0  0  0  0  0  0  0  0  0
   42.2760   33.1030   38.0490 H   0  0  0  0  0  0  0  0  0  0  0  0
   40.4290   33.0950   39.1670 C   0  0  0  0  0  0  0  0  0  0  0  0
   40.5240   34.8340   39.4590 Cl  0  0  0  0  0  0  0  0  0  0  0  0
  2  1  1  0  0  0  0
  2  3  1  0  0  0  0
  3 31  1  0  0  0  0
  4  9  1  0  0  0  0
  4  3  2  0  0  0  0
  5  4  1  0  0  0  0
  6  8  1  0  0  0  0
  6  5  2  0  0  0  0
  7  6  1  0  0  0  0
  8  2  2  0  0  0  0
 10  8  1  0  0  0  0
 11  5  1  0  0  0  0
 11 12  1  0  0  0  0
 12 21  1  0  0  0  0
 13 12  2  0  0  0  0
 13 22  1  0  0  0  0
 14 13  1  0  0  0  0
 15 14  1  0  0  0  0
 16 15  2  0  0  0  0
 17 18  2  0  0  0  0
 17 16  1  0  0  0  0
 18 19  1  0  0  0  0
 19 20  1  0  0  0  0
 19 14  2  0  0  0  0
 20 11  2  0  0  0  0
 23 16  1  0  0  0  0
 24 17  1  0  0  0  0
 25 18  1  0  0  0  0
 26 20  1  0  0  0  0
 27 33  1  0  0  0  0
 28 27  1  0  0  0  0
 28 34  1  0  0  0  0
 29 28  2  0  0  0  0
 30 31  2  0  0  0  0
 30 29  1  0  0  0  0
 31 32  1  0  0  0  0
 32 27  2  0  0  0  0
 36 35  1  0  0  0  0
 37 36  1  0  0  0  0
 37 29  1  0  0  0  0
 38 37  2  0  0  0  0
 39 38  1  0  0  0  0
 40 42  2  0  0  0  0
 40 38  1  0  0  0  0
 41 40  1  0  0  0  0
 42 44  1  0  0  0  0
 43 42  1  0  0  0  0
 44 45  1  0  0  0  0
 44 36  2  0  0  0  0
M  END
>  <minimizedAffinity>
-7.10800219

$$$$

 OpenBabel03252506073D

 45 49  0  0  0  0  0  0  0  0999 V2000
   37.0920   25.8110   39.4710 Cl  0  0  0  0  0  0  0  0  0  0  0  0
   35.8980   26.7610   38.6490 C   0  0  0  0  0  0  0  0  0  0  0  0
   35.6890   28.0780   39.0060 C   0  0  0  0  0  0  0  0  0  0  0  0
   34.7150   28.7450   38.2880 C   0  0  0  0  0  0  0  0  0  0  0  0
   33.9640   28.1830   37.2650 C   0  0  0  0  0  0  0  0  0  0  0  0
   34.2040   26.8790   36.9450 C   0  0  0  0  0  0  0  0  0  0  0  0
   33.2290   26.2180   35.6460 Cl  0  0  0  0  0  0  0  0  0  0  0  0
   35.1530   26.1720   37.6190 C   0  0  0  0  0  0  0  0  0  0  0  0
   34.5570   29.7860   38.5800 H   0  0  0  0  0  0  0  0  0  0  0  0
   35.3110   25.1390   37.3310 H   0  0  0  0  0  0  0  0  0  0  0  0
   32.9770   29.0690   36.6300 C   0  0  0  0  0  0  0  0  0  0  0  0
   33.0160   29.4290   35.3110 C   0  0  0  0  0  0  0  0  0  0  0  0
   32.0940   30.2610   34.7060 C   0  0  0  0  0  0  0  0  0  0  0  0
   31.0610   30.7700   35.4630 C   0  0  0  0  0  0  0  0  0  0  0  0
   30.1730   31.5750   34.8620 N   0  0  0  0  0  0  0  0  0  0  0  0
   29.1290   32.1240   35.5130 C   0  0  0  0  0  0  0  0  0  0  0  0
   29.0200   31.8050   36.8580 C   0  0  0  0  0  0  0  0  0  0  0  0
   29.9170   30.9820   37.4940 C   0  0  0  0  0  0  0  0  0  0  0  0
   30.9770   30.4380   36.7930 C   0  0  0  0  0  0  0  0  0  0  0  0
   31.9160   29.6050   37.3640 C   0  0  0  0  0  0  0  0  0  0  0  0
   33.8180   29.0420   34.6960 H   0  0  0  0  0  0  0  0  0  0  0  0
   32.1550   30.5270   33.6510 H   0  0  0  0  0  0  0  0  0  0  0  0
   28.4070   32.7770   35.0280 H   0  0  0  0  0  0  0  0  0  0  0  0
   28.2110   32.2040   37.4520 H   0  0  0  0  0  0  0  0  0  0  0  0
   29.8380   30.7320   38.5430 H   0  0  0  0  0  0  0  0  0  0  0  0
   31.8180   29.3650   38.4170 H   0  0  0  0  0  0  0  0  0  0  0  0
   37.0890   28.7910   42.2860 C   0  0  0  0  0  0  0  0  0  0  0  0
   37.8580   29.9430   42.0650 C   0  0  0  0  0  0  0  0  0  0  0  0
   37.8940   30.4830   40.7640 C   0  0  0  0  0  0  0  0  0  0  0  0
   37.1710   29.8240   39.8400 N   0  0  0  0  0  0  0  0  0  0  0  0
   36.4410   28.7250   40.0660 C   0  0  0  0  0  0  0  0  0  0  0  0
   36.3940   28.1980   41.2910 N   0  0  0  0  0  0  0  0  0  0  0  0
   37.0370   28.3500   43.2680 H   0  0  0  0  0  0  0  0  0  0  0  0
   38.4040   30.4070   42.8480 H   0  0  0  0  0  0  0  0  0  0  0  0
   40.7340   29.9410   39.8680 Cl  0  0  0  0  0  0  0  0  0  0  0  0
   39.9630   31.5060   40.0070 C   0  0  0  0  0  0  0  0  0  0  0  0
   38.6600   31.6730   40.4250 C   0  0  0  0  0  0  0  0  0  0  0  0
   38.1560   32.9520   40.4980 C   0  0  0  0  0  0  0  0  0  0  0  0
   37.1390   33.1190   40.8220 H   0  0  0  0  0  0  0  0  0  0  0  0
   38.8620   34.0940   40.1820 C   0  0  0  0  0  0  0  0  0  0  0  0
   38.4300   35.0840   40.2520 H   0  0  0  0  0  0  0  0  0  0  0  0
   40.1810   33.8950   39.7610 C   0  0  0  0  0  0  0  0  0  0  0  0
   40.7610   34.7720   39.5060 H   0  0  0  0  0  0  0  0  0  0  0  0
   40.6990   32.6210   39.6830 C   0  0  0  0  0  0  0  0  0  0  0  0
   42.3730   32.4650   39.1430 Cl  0  0  0  0  0  0  0  0  0  0  0  0
  2  3  1  0  0  0  0
  2  1  1  0  0  0  0
  3 31  1  0  0  0  0
  4  9  1  0  0  0  0
  4  3  2  0  0  0  0
  5  4  1  0  0  0  0
  6  5  2  0  0  0  0
  6  8  1  0  0  0  0
  7  6  1  0  0  0  0
  8  2  2  0  0  0  0
 10  8  1  0  0  0  0
 11  5  1  0  0  0  0
 11 20  1  0  0  0  0
 12 11  2  0  0  0  0
 13 12  1  0  0  0  0
 13 14  2  0  0  0  0
 14 19  1  0  0  0  0
 15 14  1  0  0  0  0
 15 16  2  0  0  0  0
 16 17  1  0  0  0  0
 17 24  1  0  0  0  0
 17 18  2  0  0  0  0
 18 25  1  0  0  0  0
 19 20  2  0  0  0  0
 19 18  1  0  0  0  0
 20 26  1  0  0  0  0
 21 12  1  0  0  0  0
 22 13  1  0  0  0  0
 23 16  1  0  0  0  0
 27 33  1  0  0  0  0
 28 27  1  0  0  0  0
 28 34  1  0  0  0  0
 29 28  2  0  0  0  0
 30 31  2  0  0  0  0
 30 29  1  0  0  0  0
 31 32  1  0  0  0  0
 32 27  2  0  0  0  0
 35 36  1  0  0  0  0
 36 37  1  0  0  0  0
 37 38  2  0  0  0  0
 37 29  1  0  0  0  0
 38 39  1  0  0  0  0
 40 41  1  0  0  0  0
 40 38  1  0  0  0  0
 42 40  2  0  0  0  0
 43 42  1  0  0  0  0
 44 42  1  0  0  0  0
 44 36  2  0  0  0  0
 45 44  1  0  0  0  0
M  END
>  <minimizedAffinity>
-7.08957291

$$$$

 OpenBabel03252506073D

 45 49  0  0  0  0  0  0  0  0999 V2000
   36.2340   25.9270   37.8010 Cl  0  0  0  0  0  0  0  0  0  0  0  0
   34.9500   27.0140   37.3820 C   0  0  0  0  0  0  0  0  0  0  0  0
   35.0180   28.3440   37.7420 C   0  0  0  0  0  0  0  0  0  0  0  0
   33.9430   29.1230   37.3600 C   0  0  0  0  0  0  0  0  0  0  0  0
   32.8380   28.6560   36.6600 C   0  0  0  0  0  0  0  0  0  0  0  0
   32.8130   27.3340   36.3250 C   0  0  0  0  0  0  0  0  0  0  0  0
   31.3970   26.7960   35.4420 Cl  0  0  0  0  0  0  0  0  0  0  0  0
   33.8460   26.5190   36.6760 C   0  0  0  0  0  0  0  0  0  0  0  0
   34.0070   30.1750   37.6490 H   0  0  0  0  0  0  0  0  0  0  0  0
   33.7840   25.4750   36.3890 H   0  0  0  0  0  0  0  0  0  0  0  0
   31.8030   29.6540   36.3520 C   0  0  0  0  0  0  0  0  0  0  0  0
   30.9180   30.1390   37.2750 C   0  0  0  0  0  0  0  0  0  0  0  0
   29.9410   31.0750   36.9960 C   0  0  0  0  0  0  0  0  0  0  0  0
   29.8370   31.5650   35.7120 C   0  0  0  0  0  0  0  0  0  0  0  0
   28.8850   32.4730   35.4560 N   0  0  0  0  0  0  0  0  0  0  0  0
   28.7010   33.0120   34.2350 C   0  0  0  0  0  0  0  0  0  0  0  0
   29.5620   32.5700   33.2430 C   0  0  0  0  0  0  0  0  0  0  0  0
   30.5450   31.6400   33.4820 C   0  0  0  0  0  0  0  0  0  0  0  0
   30.7030   31.1080   34.7490 C   0  0  0  0  0  0  0  0  0  0  0  0
   31.6650   30.1730   35.0630 C   0  0  0  0  0  0  0  0  0  0  0  0
   30.9800   29.7690   38.2910 H   0  0  0  0  0  0  0  0  0  0  0  0
   29.2510   31.4410   37.7570 H   0  0  0  0  0  0  0  0  0  0  0  0
   27.9300   33.7500   34.0250 H   0  0  0  0  0  0  0  0  0  0  0  0
   29.4810   32.9520   32.2360 H   0  0  0  0  0  0  0  0  0  0  0  0
   31.2180   31.2910   32.7120 H   0  0  0  0  0  0  0  0  0  0  0  0
   32.3320   29.8360   34.2760 H   0  0  0  0  0  0  0  0  0  0  0  0
   37.8310   30.4710   38.6290 C   0  0  0  0  0  0  0  0  0  0  0  0
   38.2690   29.9350   39.8490 C   0  0  0  0  0  0  0  0  0  0  0  0
   37.5830   28.8220   40.3740 C   0  0  0  0  0  0  0  0  0  0  0  0
   36.5510   28.3730   39.6360 N   0  0  0  0  0  0  0  0  0  0  0  0
   36.1450   28.8950   38.4730 C   0  0  0  0  0  0  0  0  0  0  0  0
   36.7820   29.9490   37.9580 N   0  0  0  0  0  0  0  0  0  0  0  0
   38.3320   31.3220   38.1960 H   0  0  0  0  0  0  0  0  0  0  0  0
   39.0940   30.3480   40.3740 H   0  0  0  0  0  0  0  0  0  0  0  0
   39.6520   26.6270   40.1210 Cl  0  0  0  0  0  0  0  0  0  0  0  0
   38.8910   27.1810   41.5970 C   0  0  0  0  0  0  0  0  0  0  0  0
   37.9530   28.1900   41.6320 C   0  0  0  0  0  0  0  0  0  0  0  0
   37.4200   28.5440   42.8510 C   0  0  0  0  0  0  0  0  0  0  0  0
   36.6820   29.3320   42.9150 H   0  0  0  0  0  0  0  0  0  0  0  0
   37.7550   27.9620   44.0550 C   0  0  0  0  0  0  0  0  0  0  0  0
   37.3130   28.2690   44.9940 H   0  0  0  0  0  0  0  0  0  0  0  0
   38.7090   26.9410   43.9900 C   0  0  0  0  0  0  0  0  0  0  0  0
   38.9930   26.4640   44.9190 H   0  0  0  0  0  0  0  0  0  0  0  0
   39.2510   26.5750   42.7770 C   0  0  0  0  0  0  0  0  0  0  0  0
   40.4480   25.2760   42.7910 Cl  0  0  0  0  0  0  0  0  0  0  0  0
  2  3  1  0  0  0  0
  2  1  1  0  0  0  0
  3 31  1  0  0  0  0
  4  9  1  0  0  0  0
  4  3  2  0  0  0  0
  5  4  1  0  0  0  0
  6  5  2  0  0  0  0
  6  8  1  0  0  0  0
  7  6  1  0  0  0  0
  8  2  2  0  0  0  0
 10  8  1  0  0  0  0
 11  5  1  0  0  0  0
 11 12  1  0  0  0  0
 12 21  1  0  0  0  0
 13 12  2  0  0  0  0
 13 22  1  0  0  0  0
 14 13  1  0  0  0  0
 15 14  1  0  0  0  0
 16 15  2  0  0  0  0
 17 18  2  0  0  0  0
 17 16  1  0  0  0  0
 18 19  1  0  0  0  0
 19 20  1  0  0  0  0
 19 14  2  0  0  0  0
 20 11  2  0  0  0  0
 23 16  1  0  0  0  0
 24 17  1  0  0  0  0
 25 18  1  0  0  0  0
 26 20  1  0  0  0  0
 27 28  1  0  0  0  0
 28 34  1  0  0  0  0
 28 29  2  0  0  0  0
 29 37  1  0  0  0  0
 30 29  1  0  0  0  0
 31 30  2  0  0  0  0
 32 31  1  0  0  0  0
 32 27  2  0  0  0  0
 33 27  1  0  0  0  0
 35 36  1  0  0  0  0
 36 37  2  0  0  0  0
 36 44  1  0  0  0  0
 37 38  1  0  0  0  0
 38 39  1  0  0  0  0
 38 40  2  0  0  0  0
 40 41  1  0  0  0  0
 42 40  1  0  0  0  0
 42 43  1  0  0  0  0
 44 45  1  0  0  0  0
 44 42  2  0  0  0  0
M  END
>  <minimizedAffinity>
-7.06983185

$$$$
