
 OpenBabel03252507333D

 51 54  0  0  1  0  0  0  0  0999 V2000
   47.0700   32.4590   45.3220 C   0  0  0  0  0  0  0  0  0  0  0  0
   46.0160   33.1390   45.9110 C   0  0  0  0  0  0  0  0  0  0  0  0
   45.3780   34.1880   45.2070 C   0  0  0  0  0  0  0  0  0  0  0  0
   45.8760   34.4700   43.9360 N   0  0  0  0  0  0  0  0  0  0  0  0
   46.9000   33.7760   43.4260 C   0  0  0  0  0  0  0  0  0  0  0  0
   47.4860   32.7890   44.1040 N   0  0  0  0  0  0  0  0  0  0  0  0
   45.5110   33.1180   46.8520 H   0  0  0  0  0  0  0  0  0  0  0  0
   44.5700   34.8070   45.4890 H   0  0  0  0  0  0  0  0  0  0  0  0
   47.6720   31.3750   46.0740 C   0  0  2  0  0  0  0  0  0  0  0  0
   47.2700   29.9860   45.4930 C   0  0  0  0  0  0  0  0  0  0  0  0
   48.0280   28.9160   46.1960 C   0  0  0  0  0  0  0  0  0  0  0  0
   48.1220   29.0410   47.6790 C   0  0  0  0  0  0  0  0  0  0  0  0
   48.2680   30.3940   48.1570 C   0  0  0  0  0  0  0  0  0  0  0  0
   47.3130   31.4000   47.4770 C   0  0  2  0  0  0  0  0  0  0  0  0
   48.7730   31.3920   45.8970 H   0  0  0  0  0  0  0  0  0  0  0  0
   46.1790   29.8620   45.4930 H   0  0  0  0  0  0  0  0  0  0  0  0
   47.5820   30.0490   44.4300 H   0  0  0  0  0  0  0  0  0  0  0  0
   47.4660   27.9550   46.0040 H   0  0  0  0  0  0  0  0  0  0  0  0
   48.9800   28.7860   45.6450 H   0  0  0  0  0  0  0  0  0  0  0  0
   47.7150   28.2350   48.2930 H   0  0  0  0  0  0  0  0  0  0  0  0
   49.2180   28.6770   47.8220 H   0  0  0  0  0  0  0  0  0  0  0  0
   49.2670   30.8860   48.0880 H   0  0  0  0  0  0  0  0  0  0  0  0
   48.0210   30.4500   49.2530 H   0  0  0  0  0  0  0  0  0  0  0  0
   47.5430   32.3130   48.0300 H   0  0  0  0  0  0  0  0  0  0  0  0
   45.9380   30.9290   47.6530 N   0  0  0  0  0  0  0  0  0  0  0  0
   45.2090   30.5790   48.8030 C   0  0  0  0  0  0  0  0  0  0  0  0
   44.7110   31.4490   49.6050 O   0  0  0  0  0  0  0  0  0  0  0  0
   45.0560   29.1740   49.0090 N   0  0  0  0  0  0  0  0  0  0  0  0
   45.2920   30.7170   46.8010 H   0  0  0  0  0  0  0  0  0  0  0  0
   44.5230   28.3810   48.5930 H   0  0  0  0  0  0  0  0  0  0  0  0
   45.2520   28.2590   49.4970 H   0  0  0  0  0  0  0  0  0  0  0  0
   47.3860   34.1380   42.0910 C   0  0  0  0  0  0  0  0  0  0  0  0
   48.2730   35.1780   41.9200 C   0  0  0  0  0  0  0  0  0  0  0  0
   48.7740   35.5750   40.6950 C   0  0  0  0  0  0  0  0  0  0  0  0
   48.3160   34.8420   39.6170 C   0  0  0  0  0  0  0  0  0  0  0  0
   47.4320   33.8030   39.7740 C   0  0  0  0  0  0  0  0  0  0  0  0
   46.9690   33.4550   41.0140 N   0  0  0  0  0  0  0  0  0  0  0  0
   48.5790   35.6960   42.8170 H   0  0  0  0  0  0  0  0  0  0  0  0
   49.4770   36.4090   40.6210 H   0  0  0  0  0  0  0  0  0  0  0  0
   48.6950   35.1350   38.6480 H   0  0  0  0  0  0  0  0  0  0  0  0
   49.2180   31.5980   38.8470 Cl  0  0  0  0  0  0  0  0  0  0  0  0
   47.6640   31.9810   38.1150 C   0  0  0  0  0  0  0  0  0  0  0  0
   46.9430   33.0250   38.6440 C   0  0  0  0  0  0  0  0  0  0  0  0
   45.7390   33.2590   38.0150 C   0  0  0  0  0  0  0  0  0  0  0  0
   45.1040   34.0440   38.3450 H   0  0  0  0  0  0  0  0  0  0  0  0
   45.2710   32.5350   36.9530 C   0  0  0  0  0  0  0  0  0  0  0  0
   44.3110   32.7440   36.4720 H   0  0  0  0  0  0  0  0  0  0  0  0
   46.0260   31.4920   36.4490 C   0  0  0  0  0  0  0  0  0  0  0  0
   45.7170   30.8830   35.6170 H   0  0  0  0  0  0  0  0  0  0  0  0
   47.2380   31.2200   37.0470 C   0  0  0  0  0  0  0  0  0  0  0  0
   48.2540   29.9010   36.4540 Cl  0  0  0  0  0  0  0  0  0  0  0  0
  1  2  1  0  0  0  0
  1  9  1  0  0  0  0
  2  7  1  0  0  0  0
  3  8  1  0  0  0  0
  3  2  2  0  0  0  0
  4  3  1  0  0  0  0
  5  4  2  0  0  0  0
  5  6  1  0  0  0  0
  6  1  2  0  0  0  0
  9 15  1  6  0  0  0
  9 14  1  0  0  0  0
 10  9  1  0  0  0  0
 10 11  1  0  0  0  0
 11 12  1  0  0  0  0
 12 21  1  0  0  0  0
 12 13  1  0  0  0  0
 12 20  1  0  0  0  0
 13 23  1  0  0  0  0
 14 25  1  0  0  0  0
 14 24  1  1  0  0  0
 14 13  1  0  0  0  0
 16 10  1  0  0  0  0
 17 10  1  0  0  0  0
 18 11  1  0  0  0  0
 19 11  1  0  0  0  0
 22 13  1  0  0  0  0
 25 26  1  0  0  0  0
 26 28  1  0  0  0  0
 26 27  2  0  0  0  0
 28 31  1  0  0  0  0
 29 25  1  0  0  0  0
 30 28  1  0  0  0  0
 32  5  1  0  0  0  0
 33 32  1  0  0  0  0
 33 38  1  0  0  0  0
 34 33  2  0  0  0  0
 35 36  2  0  0  0  0
 35 34  1  0  0  0  0
 36 37  1  0  0  0  0
 37 32  2  0  0  0  0
 39 34  1  0  0  0  0
 40 35  1  0  0  0  0
 42 43  1  0  0  0  0
 42 41  1  0  0  0  0
 43 36  1  0  0  0  0
 44 45  1  0  0  0  0
 44 43  2  0  0  0  0
 46 44  1  0  0  0  0
 47 46  1  0  0  0  0
 48 46  2  0  0  0  0
 48 50  1  0  0  0  0
 49 48  1  0  0  0  0
 50 42  2  0  0  0  0
 51 50  1  0  0  0  0
M  END
>  <minimizedAffinity>
-6.3516736

>  <minimizedRMSD>
1.03113556

$$$$
