
 OpenBabel03252500373D

 48 51  0  0  1  0  0  0  0  0999 V2000
   45.6930   35.4810   43.3890 C   0  0  1  0  0  0  0  0  0  0  0  0
   44.5730   34.9020   43.9880 C   0  0  0  0  0  0  0  0  0  0  0  0
   45.8480   34.6040   44.6650 C   0  0  1  0  0  0  0  0  0  0  0  0
   45.9360   36.5700   43.5370 H   0  0  0  0  0  0  0  0  0  0  0  0
   44.0640   34.0010   43.5350 H   0  0  0  0  0  0  0  0  0  0  0  0
   43.8300   35.5370   44.5220 H   0  0  0  0  0  0  0  0  0  0  0  0
   46.2510   35.2040   45.4940 H   0  0  0  0  0  0  0  0  0  0  0  0
   45.6460   34.2030   41.2390 C   0  0  0  0  0  0  0  0  0  0  0  0
   46.4010   34.9940   42.1630 C   0  0  0  0  0  0  0  0  0  0  0  0
   47.7060   35.2730   41.9120 C   0  0  0  0  0  0  0  0  0  0  0  0
   48.2330   34.7610   40.7520 N   0  0  0  0  0  0  0  0  0  0  0  0
   47.5230   34.0150   39.8780 C   0  0  0  0  0  0  0  0  0  0  0  0
   46.1980   33.7150   40.1040 N   0  0  0  0  0  0  0  0  0  0  0  0
   44.6010   33.9970   41.4690 H   0  0  0  0  0  0  0  0  0  0  0  0
   48.2900   35.8590   42.5830 H   0  0  0  0  0  0  0  0  0  0  0  0
   49.1870   31.5440   40.2730 Cl  0  0  0  0  0  0  0  0  0  0  0  0
   48.9230   32.3710   38.7350 C   0  0  0  0  0  0  0  0  0  0  0  0
   48.1410   33.5000   38.6610 C   0  0  0  0  0  0  0  0  0  0  0  0
   47.9570   34.1180   37.4460 C   0  0  0  0  0  0  0  0  0  0  0  0
   47.3600   34.9960   37.3370 H   0  0  0  0  0  0  0  0  0  0  0  0
   48.5950   33.5360   36.3600 C   0  0  0  0  0  0  0  0  0  0  0  0
   48.4440   34.0340   35.3950 H   0  0  0  0  0  0  0  0  0  0  0  0
   49.3850   32.4130   36.3710 C   0  0  0  0  0  0  0  0  0  0  0  0
   49.8340   32.0460   35.4630 H   0  0  0  0  0  0  0  0  0  0  0  0
   49.5420   31.8240   37.6160 C   0  0  0  0  0  0  0  0  0  0  0  0
   50.5340   30.3800   37.7490 Cl  0  0  0  0  0  0  0  0  0  0  0  0
   46.4640   33.2600   44.5480 C   0  0  0  0  0  0  0  0  0  0  0  0
   47.5550   33.3200   44.7320 H   0  0  0  0  0  0  0  0  0  0  0  0
   46.2580   32.8280   43.5500 H   0  0  0  0  0  0  0  0  0  0  0  0
   45.8950   32.4450   45.5600 N   0  0  0  0  0  0  0  0  0  0  0  0
   45.9100   32.9170   46.8800 C   0  0  0  0  0  0  0  0  0  0  0  0
   47.1800   32.4650   47.6300 C   0  0  0  0  0  0  0  0  0  0  0  0
   47.0710   30.9740   47.7880 C   0  0  0  0  0  0  0  0  0  0  0  0
   47.0280   30.3990   46.3870 C   0  0  0  0  0  0  0  0  0  0  0  0
   46.0250   31.0520   45.4750 C   0  0  2  0  0  0  0  0  0  0  0  0
   45.1000   32.3280   47.4120 H   0  0  0  0  0  0  0  0  0  0  0  0
   45.6360   33.9470   47.0870 H   0  0  0  0  0  0  0  0  0  0  0  0
   47.2140   32.9510   48.6320 H   0  0  0  0  0  0  0  0  0  0  0  0
   48.0930   32.6910   47.0780 H   0  0  0  0  0  0  0  0  0  0  0  0
   46.2180   30.6600   48.4020 H   0  0  0  0  0  0  0  0  0  0  0  0
   48.0120   30.6110   48.2450 H   0  0  0  0  0  0  0  0  0  0  0  0
   48.0290   30.4880   45.9380 H   0  0  0  0  0  0  0  0  0  0  0  0
   46.7860   29.3260   46.4560 H   0  0  0  0  0  0  0  0  0  0  0  0
   45.0400   30.5780   45.7000 H   0  0  0  0  0  0  0  0  0  0  0  0
   46.3570   30.5980   44.0620 C   0  0  0  0  0  0  0  0  0  0  0  0
   46.3400   29.4920   44.0120 H   0  0  0  0  0  0  0  0  0  0  0  0
   45.5670   31.0230   43.4040 H   0  0  0  0  0  0  0  0  0  0  0  0
   47.3230   31.0260   43.7380 H   0  0  0  0  0  0  0  0  0  0  0  0
  1  4  1  1  0  0  0
  1  2  1  0  0  0  0
  1  3  1  0  0  0  0
  2  6  1  0  0  0  0
  2  3  1  0  0  0  0
  3  7  1  1  0  0  0
  5  2  1  0  0  0  0
  8 14  1  0  0  0  0
  8  9  1  0  0  0  0
  9  1  1  0  0  0  0
 10  9  2  0  0  0  0
 10 15  1  0  0  0  0
 11 10  1  0  0  0  0
 12 13  1  0  0  0  0
 12 11  2  0  0  0  0
 13  8  2  0  0  0  0
 17 16  1  0  0  0  0
 18 17  1  0  0  0  0
 18 12  1  0  0  0  0
 19 18  2  0  0  0  0
 20 19  1  0  0  0  0
 21 23  2  0  0  0  0
 21 19  1  0  0  0  0
 22 21  1  0  0  0  0
 23 25  1  0  0  0  0
 24 23  1  0  0  0  0
 25 26  1  0  0  0  0
 25 17  2  0  0  0  0
 27  3  1  0  0  0  0
 27 28  1  0  0  0  0
 27 30  1  0  0  0  0
 29 27  1  0  0  0  0
 30 31  1  0  0  0  0
 31 37  1  0  0  0  0
 31 36  1  0  0  0  0
 31 32  1  0  0  0  0
 32 33  1  0  0  0  0
 32 38  1  0  0  0  0
 33 41  1  0  0  0  0
 33 40  1  0  0  0  0
 34 43  1  0  0  0  0
 34 33  1  0  0  0  0
 35 30  1  0  0  0  0
 35 44  1  1  0  0  0
 35 34  1  0  0  0  0
 39 32  1  0  0  0  0
 42 34  1  0  0  0  0
 45 35  1  0  0  0  0
 46 45  1  0  0  0  0
 47 45  1  0  0  0  0
 48 45  1  0  0  0  0
M  END
>  <minimizedAffinity>
-5.33072758

>  <minimizedRMSD>
3.61256933

$$$$
