
 OpenBabel03242523393D

 21 22  0  0  0  0  0  0  0  0999 V2000
   39.2690   30.3210   42.6260 Cl  0  0  0  0  0  0  0  0  0  0  0  0
   37.8740   30.0930   41.6170 C   0  0  0  0  0  0  0  0  0  0  0  0
   37.5990   30.8960   40.5050 C   0  0  0  0  0  0  0  0  0  0  0  0
   36.4940   30.7320   39.6870 C   0  0  0  0  0  0  0  0  0  0  0  0
   36.3250   31.3660   38.8530 H   0  0  0  0  0  0  0  0  0  0  0  0
   35.6120   29.6990   40.0080 C   0  0  0  0  0  0  0  0  0  0  0  0
   34.7570   29.5920   39.3540 H   0  0  0  0  0  0  0  0  0  0  0  0
   35.8170   28.8620   41.0930 C   0  0  0  0  0  0  0  0  0  0  0  0
   35.1220   28.0660   41.3270 H   0  0  0  0  0  0  0  0  0  0  0  0
   36.9450   29.1000   41.8520 C   0  0  0  0  0  0  0  0  0  0  0  0
   37.1690   28.0080   43.2290 Cl  0  0  0  0  0  0  0  0  0  0  0  0
   39.3860   34.1100   40.5420 C   0  0  0  0  0  0  0  0  0  0  0  0
   40.3340   33.9520   39.5060 C   0  0  0  0  0  0  0  0  0  0  0  0
   40.3250   32.7270   38.8200 C   0  0  0  0  0  0  0  0  0  0  0  0
   39.4170   31.7700   39.1840 N   0  0  0  0  0  0  0  0  0  0  0  0
   38.5410   31.9830   40.1800 C   0  0  0  0  0  0  0  0  0  0  0  0
   38.5190   33.1380   40.8570 N   0  0  0  0  0  0  0  0  0  0  0  0
   39.3480   35.0280   41.1010 H   0  0  0  0  0  0  0  0  0  0  0  0
   41.0370   34.7440   39.2530 H   0  0  0  0  0  0  0  0  0  0  0  0
   41.4960   32.4530   37.4950 S   0  0  0  0  0  0  0  0  0  0  0  0
   42.1730   31.2470   37.7480 H   0  0  0  0  0  0  0  0  0  0  0  0
  2 10  1  0  0  0  0
  2  1  1  0  0  0  0
  3  2  2  0  0  0  0
  4  6  2  0  0  0  0
  4  3  1  0  0  0  0
  5  4  1  0  0  0  0
  6  8  1  0  0  0  0
  7  6  1  0  0  0  0
  8  9  1  0  0  0  0
  8 10  2  0  0  0  0
 10 11  1  0  0  0  0
 12 17  1  0  0  0  0
 12 18  1  0  0  0  0
 13 12  2  0  0  0  0
 14 15  2  0  0  0  0
 14 13  1  0  0  0  0
 15 16  1  0  0  0  0
 16  3  1  0  0  0  0
 16 17  2  0  0  0  0
 19 13  1  0  0  0  0
 20 21  1  0  0  0  0
 20 14  1  0  0  0  0
M  END
>  <minimizedAffinity>
-4.66905785

$$$$

 OpenBabel03242523393D

 21 22  0  0  0  0  0  0  0  0999 V2000
   36.0080   30.8140   40.4980 Cl  0  0  0  0  0  0  0  0  0  0  0  0
   37.6580   31.1960   40.8830 C   0  0  0  0  0  0  0  0  0  0  0  0
   38.4930   30.3330   41.5990 C   0  0  0  0  0  0  0  0  0  0  0  0
   39.8100   30.6160   41.9160 C   0  0  0  0  0  0  0  0  0  0  0  0
   40.4070   29.9300   42.4630 H   0  0  0  0  0  0  0  0  0  0  0  0
   40.3180   31.8440   41.4870 C   0  0  0  0  0  0  0  0  0  0  0  0
   41.3500   32.0410   41.7480 H   0  0  0  0  0  0  0  0  0  0  0  0
   39.5530   32.7510   40.7720 C   0  0  0  0  0  0  0  0  0  0  0  0
   39.9640   33.6980   40.4480 H   0  0  0  0  0  0  0  0  0  0  0  0
   38.2510   32.3830   40.5020 C   0  0  0  0  0  0  0  0  0  0  0  0
   37.3080   33.5720   39.5870 Cl  0  0  0  0  0  0  0  0  0  0  0  0
   37.0030   27.6910   43.6790 C   0  0  0  0  0  0  0  0  0  0  0  0
   36.9260   26.5970   42.7870 C   0  0  0  0  0  0  0  0  0  0  0  0
   37.3970   26.8110   41.4820 C   0  0  0  0  0  0  0  0  0  0  0  0
   37.8950   28.0400   41.1490 N   0  0  0  0  0  0  0  0  0  0  0  0
   37.9400   29.0400   42.0450 C   0  0  0  0  0  0  0  0  0  0  0  0
   37.5010   28.8750   43.2990 N   0  0  0  0  0  0  0  0  0  0  0  0
   36.6560   27.5840   44.6920 H   0  0  0  0  0  0  0  0  0  0  0  0
   36.5210   25.6370   43.1000 H   0  0  0  0  0  0  0  0  0  0  0  0
   37.3330   25.4720   40.2960 S   0  0  0  0  0  0  0  0  0  0  0  0
   36.6780   25.9380   39.1410 H   0  0  0  0  0  0  0  0  0  0  0  0
  1  2  1  0  0  0  0
  2  3  1  0  0  0  0
  3  4  2  0  0  0  0
  3 16  1  0  0  0  0
  4  5  1  0  0  0  0
  6  7  1  0  0  0  0
  6  4  1  0  0  0  0
  8  6  2  0  0  0  0
  9  8  1  0  0  0  0
 10  8  1  0  0  0  0
 10  2  2  0  0  0  0
 11 10  1  0  0  0  0
 12 18  1  0  0  0  0
 13 19  1  0  0  0  0
 13 12  2  0  0  0  0
 14 13  1  0  0  0  0
 15 14  2  0  0  0  0
 15 16  1  0  0  0  0
 16 17  2  0  0  0  0
 17 12  1  0  0  0  0
 20 14  1  0  0  0  0
 21 20  1  0  0  0  0
M  END
>  <minimizedAffinity>
-4.61970949

$$$$

 OpenBabel03242523393D

 21 22  0  0  0  0  0  0  0  0999 V2000
   40.4800   30.3520   42.0910 Cl  0  0  0  0  0  0  0  0  0  0  0  0
   39.1950   31.1920   41.2800 C   0  0  0  0  0  0  0  0  0  0  0  0
   37.8980   30.6780   41.1700 C   0  0  0  0  0  0  0  0  0  0  0  0
   36.8600   31.3300   40.5290 C   0  0  0  0  0  0  0  0  0  0  0  0
   35.8910   30.9020   40.4700 H   0  0  0  0  0  0  0  0  0  0  0  0
   37.1420   32.5750   39.9630 C   0  0  0  0  0  0  0  0  0  0  0  0
   36.3130   33.0640   39.4670 H   0  0  0  0  0  0  0  0  0  0  0  0
   38.4010   33.1500   40.0300 C   0  0  0  0  0  0  0  0  0  0  0  0
   38.6010   34.1150   39.5850 H   0  0  0  0  0  0  0  0  0  0  0  0
   39.3750   32.4270   40.6890 C   0  0  0  0  0  0  0  0  0  0  0  0
   40.9690   33.1970   40.7530 Cl  0  0  0  0  0  0  0  0  0  0  0  0
   37.2620   28.0160   43.6250 C   0  0  0  0  0  0  0  0  0  0  0  0
   37.0920   26.8730   42.8100 C   0  0  0  0  0  0  0  0  0  0  0  0
   37.2040   27.0630   41.4240 C   0  0  0  0  0  0  0  0  0  0  0  0
   37.4660   28.3170   40.9450 N   0  0  0  0  0  0  0  0  0  0  0  0
   37.6170   29.3630   41.7740 C   0  0  0  0  0  0  0  0  0  0  0  0
   37.5180   29.2220   43.1020 N   0  0  0  0  0  0  0  0  0  0  0  0
   37.1860   27.9280   44.6950 H   0  0  0  0  0  0  0  0  0  0  0  0
   36.8840   25.8950   43.2390 H   0  0  0  0  0  0  0  0  0  0  0  0
   37.0010   25.6630   40.3270 S   0  0  0  0  0  0  0  0  0  0  0  0
   36.0380   25.9980   39.3580 H   0  0  0  0  0  0  0  0  0  0  0  0
  2  1  1  0  0  0  0
  3  2  1  0  0  0  0
  3 16  1  0  0  0  0
  4  3  2  0  0  0  0
  5  4  1  0  0  0  0
  6  8  2  0  0  0  0
  6  4  1  0  0  0  0
  7  6  1  0  0  0  0
  8 10  1  0  0  0  0
  9  8  1  0  0  0  0
 10 11  1  0  0  0  0
 10  2  2  0  0  0  0
 12 18  1  0  0  0  0
 13 19  1  0  0  0  0
 13 12  2  0  0  0  0
 14 13  1  0  0  0  0
 15 14  2  0  0  0  0
 15 16  1  0  0  0  0
 16 17  2  0  0  0  0
 17 12  1  0  0  0  0
 20 14  1  0  0  0  0
 21 20  1  0  0  0  0
M  END
>  <minimizedAffinity>
-4.54993916

$$$$

 OpenBabel03242523393D

 21 22  0  0  0  0  0  0  0  0999 V2000
   36.8110   26.5440   40.3820 Cl  0  0  0  0  0  0  0  0  0  0  0  0
   37.9930   26.8120   41.6250 C   0  0  0  0  0  0  0  0  0  0  0  0
   38.4540   28.0840   41.9780 C   0  0  0  0  0  0  0  0  0  0  0  0
   39.3950   28.3200   42.9650 C   0  0  0  0  0  0  0  0  0  0  0  0
   39.7160   29.3050   43.1990 H   0  0  0  0  0  0  0  0  0  0  0  0
   39.9040   27.2080   43.6380 C   0  0  0  0  0  0  0  0  0  0  0  0
   40.6380   27.4200   44.4050 H   0  0  0  0  0  0  0  0  0  0  0  0
   39.4970   25.9170   43.3460 C   0  0  0  0  0  0  0  0  0  0  0  0
   39.9030   25.0670   43.8790 H   0  0  0  0  0  0  0  0  0  0  0  0
   38.5550   25.7780   42.3470 C   0  0  0  0  0  0  0  0  0  0  0  0
   38.0620   24.1100   42.0050 Cl  0  0  0  0  0  0  0  0  0  0  0  0
   36.3200   30.9190   41.0130 C   0  0  0  0  0  0  0  0  0  0  0  0
   36.9570   31.4080   39.8500 C   0  0  0  0  0  0  0  0  0  0  0  0
   38.1160   30.7350   39.4320 C   0  0  0  0  0  0  0  0  0  0  0  0
   38.5580   29.6630   40.1580 N   0  0  0  0  0  0  0  0  0  0  0  0
   37.9060   29.2480   41.2570 C   0  0  0  0  0  0  0  0  0  0  0  0
   36.7970   29.8640   41.6860 N   0  0  0  0  0  0  0  0  0  0  0  0
   35.4280   31.3980   41.3780 H   0  0  0  0  0  0  0  0  0  0  0  0
   36.5660   32.2660   39.3050 H   0  0  0  0  0  0  0  0  0  0  0  0
   38.9770   31.2950   37.9670 S   0  0  0  0  0  0  0  0  0  0  0  0
   40.3300   31.4900   38.2990 H   0  0  0  0  0  0  0  0  0  0  0  0
  1  2  1  0  0  0  0
  2  3  2  0  0  0  0
  2 10  1  0  0  0  0
  3  4  1  0  0  0  0
  4  5  1  0  0  0  0
  4  6  2  0  0  0  0
  6  7  1  0  0  0  0
  8  6  1  0  0  0  0
  8  9  1  0  0  0  0
 10  8  2  0  0  0  0
 11 10  1  0  0  0  0
 12 18  1  0  0  0  0
 12 17  1  0  0  0  0
 13 12  2  0  0  0  0
 14 13  1  0  0  0  0
 14 15  2  0  0  0  0
 15 16  1  0  0  0  0
 16 17  2  0  0  0  0
 16  3  1  0  0  0  0
 19 13  1  0  0  0  0
 20 21  1  0  0  0  0
 20 14  1  0  0  0  0
M  END
>  <minimizedAffinity>
-4.52361774

$$$$

 OpenBabel03242523393D

 21 22  0  0  0  0  0  0  0  0999 V2000
   37.6760   28.3460   39.2050 Cl  0  0  0  0  0  0  0  0  0  0  0  0
   37.4860   28.1380   40.9190 C   0  0  0  0  0  0  0  0  0  0  0  0
   37.6910   29.1700   41.8400 C   0  0  0  0  0  0  0  0  0  0  0  0
   37.5450   29.0260   43.2080 C   0  0  0  0  0  0  0  0  0  0  0  0
   37.7120   29.8380   43.8710 H   0  0  0  0  0  0  0  0  0  0  0  0
   37.1690   27.7660   43.6790 C   0  0  0  0  0  0  0  0  0  0  0  0
   37.0620   27.6800   44.7530 H   0  0  0  0  0  0  0  0  0  0  0  0
   36.9480   26.6950   42.8300 C   0  0  0  0  0  0  0  0  0  0  0  0
   36.6570   25.7260   43.2130 H   0  0  0  0  0  0  0  0  0  0  0  0
   37.1180   26.9310   41.4810 C   0  0  0  0  0  0  0  0  0  0  0  0
   36.8240   25.5360   40.4290 Cl  0  0  0  0  0  0  0  0  0  0  0  0
   37.5620   32.5330   40.3590 C   0  0  0  0  0  0  0  0  0  0  0  0
   38.9160   32.9400   40.3900 C   0  0  0  0  0  0  0  0  0  0  0  0
   39.8390   32.0290   40.9270 C   0  0  0  0  0  0  0  0  0  0  0  0
   39.3890   30.8200   41.3830 N   0  0  0  0  0  0  0  0  0  0  0  0
   38.0870   30.4940   41.3250 C   0  0  0  0  0  0  0  0  0  0  0  0
   37.1770   31.3360   40.8200 N   0  0  0  0  0  0  0  0  0  0  0  0
   36.8120   33.1920   39.9580 H   0  0  0  0  0  0  0  0  0  0  0  0
   39.2250   33.9140   40.0140 H   0  0  0  0  0  0  0  0  0  0  0  0
   41.5710   32.4730   40.9990 S   0  0  0  0  0  0  0  0  0  0  0  0
   42.0210   32.2800   42.3170 H   0  0  0  0  0  0  0  0  0  0  0  0
  1  2  1  0  0  0  0
  2 10  2  0  0  0  0
  2  3  1  0  0  0  0
  3  4  2  0  0  0  0
  4  6  1  0  0  0  0
  4  5  1  0  0  0  0
  6  7  1  0  0  0  0
  8  9  1  0  0  0  0
  8  6  2  0  0  0  0
 10  8  1  0  0  0  0
 11 10  1  0  0  0  0
 12 13  2  0  0  0  0
 12 17  1  0  0  0  0
 13 14  1  0  0  0  0
 14 20  1  0  0  0  0
 14 15  2  0  0  0  0
 16 15  1  0  0  0  0
 16  3  1  0  0  0  0
 17 16  2  0  0  0  0
 18 12  1  0  0  0  0
 19 13  1  0  0  0  0
 20 21  1  0  0  0  0
M  END
>  <minimizedAffinity>
-4.51485205

$$$$

 OpenBabel03242523393D

 21 22  0  0  0  0  0  0  0  0999 V2000
   37.1080   26.7340   39.5620 Cl  0  0  0  0  0  0  0  0  0  0  0  0
   37.2800   27.4790   41.1210 C   0  0  0  0  0  0  0  0  0  0  0  0
   37.5680   28.8370   41.2900 C   0  0  0  0  0  0  0  0  0  0  0  0
   37.7090   29.4510   42.5210 C   0  0  0  0  0  0  0  0  0  0  0  0
   37.9280   30.4860   42.6020 H   0  0  0  0  0  0  0  0  0  0  0  0
   37.5510   28.6490   43.6540 C   0  0  0  0  0  0  0  0  0  0  0  0
   37.6660   29.1530   44.6050 H   0  0  0  0  0  0  0  0  0  0  0  0
   37.2650   27.2960   43.5680 C   0  0  0  0  0  0  0  0  0  0  0  0
   37.1460   26.6910   44.4570 H   0  0  0  0  0  0  0  0  0  0  0  0
   37.1420   26.7710   42.2980 C   0  0  0  0  0  0  0  0  0  0  0  0
   36.7760   25.0380   42.2340 Cl  0  0  0  0  0  0  0  0  0  0  0  0
   36.8530   31.0110   38.4110 C   0  0  0  0  0  0  0  0  0  0  0  0
   38.1310   31.2010   37.8380 C   0  0  0  0  0  0  0  0  0  0  0  0
   39.2100   30.5650   38.4720 C   0  0  0  0  0  0  0  0  0  0  0  0
   38.9720   29.8100   39.5870 N   0  0  0  0  0  0  0  0  0  0  0  0
   37.7320   29.6690   40.0830 C   0  0  0  0  0  0  0  0  0  0  0  0
   36.6770   30.2600   39.5060 N   0  0  0  0  0  0  0  0  0  0  0  0
   35.9900   31.4760   37.9670 H   0  0  0  0  0  0  0  0  0  0  0  0
   38.2690   31.8120   36.9480 H   0  0  0  0  0  0  0  0  0  0  0  0
   40.8580   30.7580   37.8040 S   0  0  0  0  0  0  0  0  0  0  0  0
   41.7060   31.1880   38.8410 H   0  0  0  0  0  0  0  0  0  0  0  0
  1  2  1  0  0  0  0
  2  3  2  0  0  0  0
  2 10  1  0  0  0  0
  3  4  1  0  0  0  0
  4  5  1  0  0  0  0
  4  6  2  0  0  0  0
  6  7  1  0  0  0  0
  8  6  1  0  0  0  0
  8  9  1  0  0  0  0
 10  8  2  0  0  0  0
 11 10  1  0  0  0  0
 12 17  1  0  0  0  0
 13 12  2  0  0  0  0
 13 14  1  0  0  0  0
 14 15  2  0  0  0  0
 15 16  1  0  0  0  0
 16  3  1  0  0  0  0
 17 16  2  0  0  0  0
 18 12  1  0  0  0  0
 19 13  1  0  0  0  0
 20 14  1  0  0  0  0
 20 21  1  0  0  0  0
M  END
>  <minimizedAffinity>
-4.34990454

$$$$

 OpenBabel03242523393D

 21 22  0  0  0  0  0  0  0  0999 V2000
   37.4160   27.9880   38.9040 Cl  0  0  0  0  0  0  0  0  0  0  0  0
   37.4110   29.6850   39.2730 C   0  0  0  0  0  0  0  0  0  0  0  0
   37.6100   30.1850   40.5650 C   0  0  0  0  0  0  0  0  0  0  0  0
   37.6110   31.5320   40.8810 C   0  0  0  0  0  0  0  0  0  0  0  0
   37.7660   31.8660   41.8760 H   0  0  0  0  0  0  0  0  0  0  0  0
   37.3970   32.4320   39.8350 C   0  0  0  0  0  0  0  0  0  0  0  0
   37.4020   33.4790   40.1090 H   0  0  0  0  0  0  0  0  0  0  0  0
   37.1920   32.0140   38.5300 C   0  0  0  0  0  0  0  0  0  0  0  0
   37.0280   32.7260   37.7320 H   0  0  0  0  0  0  0  0  0  0  0  0
   37.2080   30.6520   38.3090 C   0  0  0  0  0  0  0  0  0  0  0  0
   36.9430   30.1600   36.6270 Cl  0  0  0  0  0  0  0  0  0  0  0  0
   37.0360   27.8120   43.3140 C   0  0  0  0  0  0  0  0  0  0  0  0
   38.3480   27.4320   43.6780 C   0  0  0  0  0  0  0  0  0  0  0  0
   39.4000   28.0160   42.9540 C   0  0  0  0  0  0  0  0  0  0  0  0
   39.1050   28.9020   41.9550 N   0  0  0  0  0  0  0  0  0  0  0  0
   37.8350   29.2210   41.6570 C   0  0  0  0  0  0  0  0  0  0  0  0
   36.8050   28.6850   42.3260 N   0  0  0  0  0  0  0  0  0  0  0  0
   36.1920   27.3950   43.8360 H   0  0  0  0  0  0  0  0  0  0  0  0
   38.5320   26.7220   44.4830 H   0  0  0  0  0  0  0  0  0  0  0  0
   41.0890   27.5850   43.3580 S   0  0  0  0  0  0  0  0  0  0  0  0
   41.7350   27.1790   42.1770 H   0  0  0  0  0  0  0  0  0  0  0  0
  1  2  1  0  0  0  0
  2  3  1  0  0  0  0
  3  4  2  0  0  0  0
  3 16  1  0  0  0  0
  4  5  1  0  0  0  0
  6  7  1  0  0  0  0
  6  4  1  0  0  0  0
  8  6  2  0  0  0  0
  9  8  1  0  0  0  0
 10  8  1  0  0  0  0
 10  2  2  0  0  0  0
 11 10  1  0  0  0  0
 12 13  1  0  0  0  0
 12 18  1  0  0  0  0
 13 19  1  0  0  0  0
 14 20  1  0  0  0  0
 14 13  2  0  0  0  0
 15 14  1  0  0  0  0
 16 15  2  0  0  0  0
 16 17  1  0  0  0  0
 17 12  2  0  0  0  0
 21 20  1  0  0  0  0
M  END
>  <minimizedAffinity>
-4.25159979

$$$$

 OpenBabel03242523393D

 21 22  0  0  0  0  0  0  0  0999 V2000
   36.3150   27.1390   38.3270 Cl  0  0  0  0  0  0  0  0  0  0  0  0
   36.6080   26.3560   39.8480 C   0  0  0  0  0  0  0  0  0  0  0  0
   36.9720   27.0510   41.0060 C   0  0  0  0  0  0  0  0  0  0  0  0
   37.2100   26.4480   42.2280 C   0  0  0  0  0  0  0  0  0  0  0  0
   37.4850   27.0160   43.0810 H   0  0  0  0  0  0  0  0  0  0  0  0
   37.0750   25.0590   42.2900 C   0  0  0  0  0  0  0  0  0  0  0  0
   37.2670   24.6120   43.2570 H   0  0  0  0  0  0  0  0  0  0  0  0
   36.7170   24.3010   41.1870 C   0  0  0  0  0  0  0  0  0  0  0  0
   36.6170   23.2260   41.2530 H   0  0  0  0  0  0  0  0  0  0  0  0
   36.5000   24.9890   40.0100 C   0  0  0  0  0  0  0  0  0  0  0  0
   36.0440   23.9830   38.6240 Cl  0  0  0  0  0  0  0  0  0  0  0  0
   36.2080   30.6480   41.0300 C   0  0  0  0  0  0  0  0  0  0  0  0
   37.4630   31.2360   40.7510 C   0  0  0  0  0  0  0  0  0  0  0  0
   38.5440   30.3600   40.5600 C   0  0  0  0  0  0  0  0  0  0  0  0
   38.3300   29.0130   40.6540 N   0  0  0  0  0  0  0  0  0  0  0  0
   37.1110   28.5170   40.9230 C   0  0  0  0  0  0  0  0  0  0  0  0
   36.0560   29.3200   41.1110 N   0  0  0  0  0  0  0  0  0  0  0  0
   35.3450   31.2720   41.1850 H   0  0  0  0  0  0  0  0  0  0  0  0
   37.5830   32.3160   40.6860 H   0  0  0  0  0  0  0  0  0  0  0  0
   40.1640   31.0300   40.2020 S   0  0  0  0  0  0  0  0  0  0  0  0
   41.0810   30.4800   41.1160 H   0  0  0  0  0  0  0  0  0  0  0  0
  1  2  1  0  0  0  0
  2 10  2  0  0  0  0
  2  3  1  0  0  0  0
  3  4  2  0  0  0  0
  4  6  1  0  0  0  0
  4  5  1  0  0  0  0
  6  7  1  0  0  0  0
  8  9  1  0  0  0  0
  8  6  2  0  0  0  0
 10  8  1  0  0  0  0
 11 10  1  0  0  0  0
 12 17  1  0  0  0  0
 12 18  1  0  0  0  0
 13 12  2  0  0  0  0
 14 15  2  0  0  0  0
 14 13  1  0  0  0  0
 15 16  1  0  0  0  0
 16  3  1  0  0  0  0
 16 17  2  0  0  0  0
 19 13  1  0  0  0  0
 20 14  1  0  0  0  0
 20 21  1  0  0  0  0
M  END
>  <minimizedAffinity>
-4.24431038

$$$$

 OpenBabel03242523393D

 21 22  0  0  0  0  0  0  0  0999 V2000
   40.4400   28.4490   40.2140 Cl  0  0  0  0  0  0  0  0  0  0  0  0
   39.3350   28.2260   41.5340 C   0  0  0  0  0  0  0  0  0  0  0  0
   38.1680   28.9820   41.6890 C   0  0  0  0  0  0  0  0  0  0  0  0
   37.2740   28.8210   42.7320 C   0  0  0  0  0  0  0  0  0  0  0  0
   36.4010   29.4190   42.8090 H   0  0  0  0  0  0  0  0  0  0  0  0
   37.5720   27.8400   43.6800 C   0  0  0  0  0  0  0  0  0  0  0  0
   36.8570   27.7340   44.4860 H   0  0  0  0  0  0  0  0  0  0  0  0
   38.7070   27.0500   43.5950 C   0  0  0  0  0  0  0  0  0  0  0  0
   38.9210   26.2950   44.3390 H   0  0  0  0  0  0  0  0  0  0  0  0
   39.5410   27.2820   42.5210 C   0  0  0  0  0  0  0  0  0  0  0  0
   40.9810   26.2520   42.4500 Cl  0  0  0  0  0  0  0  0  0  0  0  0
   36.8980   30.6760   38.6820 C   0  0  0  0  0  0  0  0  0  0  0  0
   37.3610   32.0010   38.8510 C   0  0  0  0  0  0  0  0  0  0  0  0
   38.1040   32.2690   40.0110 C   0  0  0  0  0  0  0  0  0  0  0  0
   38.3370   31.2540   40.8980 N   0  0  0  0  0  0  0  0  0  0  0  0
   37.8690   30.0140   40.6790 C   0  0  0  0  0  0  0  0  0  0  0  0
   37.1560   29.7210   39.5840 N   0  0  0  0  0  0  0  0  0  0  0  0
   36.3230   30.4150   37.8110 H   0  0  0  0  0  0  0  0  0  0  0  0
   37.1490   32.7750   38.1150 H   0  0  0  0  0  0  0  0  0  0  0  0
   38.7240   33.9240   40.2950 S   0  0  0  0  0  0  0  0  0  0  0  0
   38.3200   34.3320   41.5790 H   0  0  0  0  0  0  0  0  0  0  0  0
  1  2  1  0  0  0  0
  2  3  2  0  0  0  0
  2 10  1  0  0  0  0
  3  4  1  0  0  0  0
  4  5  1  0  0  0  0
  4  6  2  0  0  0  0
  6  7  1  0  0  0  0
  8  6  1  0  0  0  0
  8  9  1  0  0  0  0
 10  8  2  0  0  0  0
 11 10  1  0  0  0  0
 12 13  2  0  0  0  0
 12 17  1  0  0  0  0
 13 14  1  0  0  0  0
 14 20  1  0  0  0  0
 14 15  2  0  0  0  0
 16 15  1  0  0  0  0
 16  3  1  0  0  0  0
 17 16  2  0  0  0  0
 18 12  1  0  0  0  0
 19 13  1  0  0  0  0
 20 21  1  0  0  0  0
M  END
>  <minimizedAffinity>
-4.20575571

$$$$
