
 OpenBabel03242521533D

 38 41  0  0  0  0  0  0  0  0999 V2000
   46.1910   32.1940   46.1650 C   0  0  0  0  0  0  0  0  0  0  0  0
   45.6010   32.7890   47.2650 C   0  0  0  0  0  0  0  0  0  0  0  0
   45.8620   32.4030   48.5860 C   0  0  0  0  0  0  0  0  0  0  0  0
   46.7510   31.3770   48.8530 C   0  0  0  0  0  0  0  0  0  0  0  0
   47.3600   30.7470   47.7600 C   0  0  0  0  0  0  0  0  0  0  0  0
   48.1830   29.6890   48.0290 C   0  0  0  0  0  0  0  0  0  0  0  0
   48.7260   28.9770   46.9470 C   0  0  0  0  0  0  0  0  0  0  0  0
   48.3870   29.3810   45.6300 C   0  0  0  0  0  0  0  0  0  0  0  0
   47.5570   30.4550   45.4880 C   0  0  0  0  0  0  0  0  0  0  0  0
   47.0310   31.1930   46.4970 C   0  0  0  0  0  0  0  0  0  0  0  0
   44.9000   33.6010   47.0360 H   0  0  0  0  0  0  0  0  0  0  0  0
   45.3250   32.9590   49.3370 H   0  0  0  0  0  0  0  0  0  0  0  0
   46.9520   31.0910   49.8520 H   0  0  0  0  0  0  0  0  0  0  0  0
   48.3700   29.4600   49.0760 H   0  0  0  0  0  0  0  0  0  0  0  0
   49.3670   28.1780   47.3660 H   0  0  0  0  0  0  0  0  0  0  0  0
   48.9450   28.6200   45.1010 H   0  0  0  0  0  0  0  0  0  0  0  0
   44.7820   29.1880   44.6640 Cl  0  0  0  0  0  0  0  0  0  0  0  0
   46.1030   29.5950   43.5400 C   0  0  0  0  0  0  0  0  0  0  0  0
   47.2260   30.1540   44.1010 C   0  0  0  0  0  0  0  0  0  0  0  0
   48.2010   30.5230   43.1190 C   0  0  0  0  0  0  0  0  0  0  0  0
   49.1630   30.9980   43.3840 H   0  0  0  0  0  0  0  0  0  0  0  0
   48.0970   30.3620   41.7560 C   0  0  0  0  0  0  0  0  0  0  0  0
   48.8330   30.6440   41.0530 H   0  0  0  0  0  0  0  0  0  0  0  0
   46.9410   29.7910   41.2750 C   0  0  0  0  0  0  0  0  0  0  0  0
   46.6900   29.5880   40.2470 H   0  0  0  0  0  0  0  0  0  0  0  0
   45.9720   29.4200   42.1780 C   0  0  0  0  0  0  0  0  0  0  0  0
   44.4580   28.6860   41.6620 Cl  0  0  0  0  0  0  0  0  0  0  0  0
   45.3050   33.5510   42.8140 C   0  0  0  0  0  0  0  0  0  0  0  0
   46.5070   34.1930   42.4790 C   0  0  0  0  0  0  0  0  0  0  0  0
   47.5540   34.0960   43.3950 C   0  0  0  0  0  0  0  0  0  0  0  0
   47.2820   33.4000   44.4970 N   0  0  0  0  0  0  0  0  0  0  0  0
   46.1780   32.7870   44.8450 C   0  0  0  0  0  0  0  0  0  0  0  0
   45.1890   32.8840   43.9620 N   0  0  0  0  0  0  0  0  0  0  0  0
   44.4670   33.6050   42.1230 H   0  0  0  0  0  0  0  0  0  0  0  0
   46.6480   34.7430   41.5630 H   0  0  0  0  0  0  0  0  0  0  0  0
   48.8470   34.6080   43.1380 N   0  0  0  0  0  0  0  0  0  0  0  0
   49.0910   35.2290   43.9660 H   0  0  0  0  0  0  0  0  0  0  0  0
   49.5170   34.4820   42.3490 H   0  0  0  0  0  0  0  0  0  0  0  0
  1 10  2  0  0  0  0
  1  2  1  0  0  0  0
  2  3  2  0  0  0  0
  3  4  1  0  0  0  0
  3 12  1  0  0  0  0
  4 13  1  0  0  0  0
  5  6  1  0  0  0  0
  5  4  2  0  0  0  0
  6 14  1  0  0  0  0
  7 15  1  0  0  0  0
  7  6  2  0  0  0  0
  8  7  1  0  0  0  0
  9  8  2  0  0  0  0
  9 10  1  0  0  0  0
 10  5  1  0  0  0  0
 11  2  1  0  0  0  0
 16  8  1  0  0  0  0
 18 19  1  0  0  0  0
 18 17  1  0  0  0  0
 19  9  1  0  0  0  0
 20 21  1  0  0  0  0
 20 19  2  0  0  0  0
 22 20  1  0  0  0  0
 23 22  1  0  0  0  0
 24 22  2  0  0  0  0
 24 26  1  0  0  0  0
 25 24  1  0  0  0  0
 26 18  2  0  0  0  0
 27 26  1  0  0  0  0
 28 33  1  0  0  0  0
 29 28  2  0  0  0  0
 29 30  1  0  0  0  0
 30 31  2  0  0  0  0
 31 32  1  0  0  0  0
 32  1  1  0  0  0  0
 33 32  2  0  0  0  0
 34 28  1  0  0  0  0
 35 29  1  0  0  0  0
 36 30  1  0  0  0  0
 36 37  1  0  0  0  0
 38 36  1  0  0  0  0
M  END
>  <minimizedAffinity>
-5.0074358

>  <minimizedRMSD>
1.90358114

$$$$
