
 OpenBabel03252502243D

 36 38  0  0  1  0  0  0  0  0999 V2000
   46.8320   34.6050   42.2830 N   0  0  0  0  0  0  0  0  0  0  0  0
   48.2910   34.5280   42.3660 C   0  0  0  0  0  0  0  0  0  0  0  0
   48.7500   35.3570   41.1450 C   0  0  0  0  0  0  0  0  0  0  0  0
   48.3620   34.6330   39.8890 C   0  0  0  0  0  0  0  0  0  0  0  0
   46.9880   34.0690   39.9080 C   0  0  0  0  0  0  0  0  0  0  0  0
   46.0990   34.5060   41.0390 C   0  0  1  0  0  0  0  0  0  0  0  0
   48.6750   33.5070   42.2620 H   0  0  0  0  0  0  0  0  0  0  0  0
   48.6220   35.0590   43.2680 H   0  0  0  0  0  0  0  0  0  0  0  0
   49.8440   35.4320   41.2260 H   0  0  0  0  0  0  0  0  0  0  0  0
   48.2600   36.3500   41.2370 H   0  0  0  0  0  0  0  0  0  0  0  0
   48.5350   35.3530   39.0520 H   0  0  0  0  0  0  0  0  0  0  0  0
   49.1070   33.8220   39.7400 H   0  0  0  0  0  0  0  0  0  0  0  0
   47.0190   32.9490   39.9150 H   0  0  0  0  0  0  0  0  0  0  0  0
   46.4780   34.3460   38.9610 H   0  0  0  0  0  0  0  0  0  0  0  0
   45.7850   35.5410   40.8050 H   0  0  0  0  0  0  0  0  0  0  0  0
   44.4740   35.9910   44.8450 C   0  0  0  0  0  0  0  0  0  0  0  0
   45.1870   35.8990   43.6340 C   0  0  0  0  0  0  0  0  0  0  0  0
   46.0620   34.7880   43.4760 C   0  0  0  0  0  0  0  0  0  0  0  0
   46.1410   33.9060   44.5020 N   0  0  0  0  0  0  0  0  0  0  0  0
   45.4390   34.0310   45.6460 C   0  0  0  0  0  0  0  0  0  0  0  0
   44.6010   35.0830   45.8150 N   0  0  0  0  0  0  0  0  0  0  0  0
   43.7980   36.8330   44.9900 H   0  0  0  0  0  0  0  0  0  0  0  0
   45.1030   36.6120   42.8470 H   0  0  0  0  0  0  0  0  0  0  0  0
   45.6170   33.2300   46.3770 H   0  0  0  0  0  0  0  0  0  0  0  0
   45.0910   33.5980   41.1870 O   0  0  0  0  0  0  0  0  0  0  0  0
   44.4640   31.7350   38.7750 Cl  0  0  0  0  0  0  0  0  0  0  0  0
   43.3160   32.6620   39.6730 C   0  0  0  0  0  0  0  0  0  0  0  0
   43.8630   33.4030   40.6960 C   0  0  0  0  0  0  0  0  0  0  0  0
   42.9350   34.1610   41.4330 C   0  0  0  0  0  0  0  0  0  0  0  0
   43.1370   34.8270   42.2900 H   0  0  0  0  0  0  0  0  0  0  0  0
   41.5730   34.1510   41.1380 C   0  0  0  0  0  0  0  0  0  0  0  0
   40.8220   34.7120   41.6710 H   0  0  0  0  0  0  0  0  0  0  0  0
   41.1340   33.3840   40.1070 C   0  0  0  0  0  0  0  0  0  0  0  0
   40.0800   33.3390   39.8340 H   0  0  0  0  0  0  0  0  0  0  0  0
   41.9840   32.6190   39.3460 C   0  0  0  0  0  0  0  0  0  0  0  0
   41.4960   31.6110   38.0080 Cl  0  0  0  0  0  0  0  0  0  0  0  0
  1  2  1  0  0  0  0
  1 18  1  0  0  0  0
  2  8  1  0  0  0  0
  3  9  1  0  0  0  0
  3 10  1  0  0  0  0
  3  2  1  0  0  0  0
  4  5  1  0  0  0  0
  4  3  1  0  0  0  0
  5 13  1  0  0  0  0
  5  6  1  0  0  0  0
  6 15  1  6  0  0  0
  6 25  1  0  0  0  0
  6  1  1  0  0  0  0
  7  2  1  0  0  0  0
 11  4  1  0  0  0  0
 12  4  1  0  0  0  0
 14  5  1  0  0  0  0
 16 22  1  0  0  0  0
 16 21  1  0  0  0  0
 17 16  2  0  0  0  0
 18 17  1  0  0  0  0
 18 19  2  0  0  0  0
 19 20  1  0  0  0  0
 20 21  2  0  0  0  0
 20 24  1  0  0  0  0
 23 17  1  0  0  0  0
 26 27  1  0  0  0  0
 27 28  1  0  0  0  0
 28 25  1  0  0  0  0
 28 29  2  0  0  0  0
 29 30  1  0  0  0  0
 31 29  1  0  0  0  0
 31 32  1  0  0  0  0
 33 31  2  0  0  0  0
 34 33  1  0  0  0  0
 35 27  2  0  0  0  0
 35 33  1  0  0  0  0
 36 35  1  0  0  0  0
M  END
>  <minimizedAffinity>
-5.5699234

>  <minimizedRMSD>
0.872203708

$$$$
