
 OpenBabel03252505543D

 35 37  0  0  0  0  0  0  0  0999 V2000
   47.9610   30.6110   47.8500 C   0  0  0  0  0  0  0  0  0  0  0  0
   48.6580   29.6550   47.1390 C   0  0  0  0  0  0  0  0  0  0  0  0
   49.9440   29.3690   47.4580 C   0  0  0  0  0  0  0  0  0  0  0  0
   50.5770   29.9990   48.4630 N   0  0  0  0  0  0  0  0  0  0  0  0
   49.8950   30.9370   49.1620 C   0  0  0  0  0  0  0  0  0  0  0  0
   48.6050   31.2500   48.8710 N   0  0  0  0  0  0  0  0  0  0  0  0
   48.0540   29.2180   46.3590 H   0  0  0  0  0  0  0  0  0  0  0  0
   50.3880   28.6050   46.8340 H   0  0  0  0  0  0  0  0  0  0  0  0
   50.4090   29.2540   51.6490 Cl  0  0  0  0  0  0  0  0  0  0  0  0
   50.8580   30.9280   51.4290 C   0  0  0  0  0  0  0  0  0  0  0  0
   50.5930   31.6330   50.2720 C   0  0  0  0  0  0  0  0  0  0  0  0
   50.9270   32.9520   50.0540 C   0  0  0  0  0  0  0  0  0  0  0  0
   50.7040   33.4730   49.1330 H   0  0  0  0  0  0  0  0  0  0  0  0
   51.5760   33.5880   51.0900 C   0  0  0  0  0  0  0  0  0  0  0  0
   51.8880   34.6380   51.0240 H   0  0  0  0  0  0  0  0  0  0  0  0
   51.8510   32.9040   52.2570 C   0  0  0  0  0  0  0  0  0  0  0  0
   52.3650   33.3640   53.1130 H   0  0  0  0  0  0  0  0  0  0  0  0
   51.5080   31.5810   52.4570 C   0  0  0  0  0  0  0  0  0  0  0  0
   51.8560   30.7140   53.9340 Cl  0  0  0  0  0  0  0  0  0  0  0  0
   46.5890   31.1020   47.7080 C   0  0  0  0  0  0  0  0  0  0  0  0
   46.1420   30.6490   46.7970 H   0  0  0  0  0  0  0  0  0  0  0  0
   45.9810   30.7550   48.5660 H   0  0  0  0  0  0  0  0  0  0  0  0
   46.6470   32.5030   47.5760 O   0  0  0  0  0  0  0  0  0  0  0  0
   45.0610   34.6290   45.2050 C   0  0  0  0  0  0  0  0  0  0  0  0
   45.7870   34.4240   44.0370 C   0  0  0  0  0  0  0  0  0  0  0  0
   46.8540   33.5180   44.0930 C   0  0  0  0  0  0  0  0  0  0  0  0
   47.1250   32.8960   45.2570 N   0  0  0  0  0  0  0  0  0  0  0  0
   46.3910   33.1290   46.3600 C   0  0  0  0  0  0  0  0  0  0  0  0
   45.3660   33.9870   46.3420 N   0  0  0  0  0  0  0  0  0  0  0  0
   44.2290   35.3300   45.1770 H   0  0  0  0  0  0  0  0  0  0  0  0
   47.4050   33.3720   43.1800 H   0  0  0  0  0  0  0  0  0  0  0  0
   45.3840   35.1780   42.8080 C   0  0  0  0  0  0  0  0  0  0  0  0
   45.2150   36.4740   43.2150 F   0  0  0  0  0  0  0  0  0  0  0  0
   44.1590   34.6330   42.4040 F   0  0  0  0  0  0  0  0  0  0  0  0
   46.3540   35.0290   41.8580 F   0  0  0  0  0  0  0  0  0  0  0  0
  1  6  1  0  0  0  0
  2  3  1  0  0  0  0
  2  1  2  0  0  0  0
  3  4  2  0  0  0  0
  4  5  1  0  0  0  0
  5 11  1  0  0  0  0
  6  5  2  0  0  0  0
  7  2  1  0  0  0  0
  8  3  1  0  0  0  0
 10  9  1  0  0  0  0
 10 18  1  0  0  0  0
 11 10  2  0  0  0  0
 12 11  1  0  0  0  0
 12 14  2  0  0  0  0
 13 12  1  0  0  0  0
 14 16  1  0  0  0  0
 15 14  1  0  0  0  0
 16 18  2  0  0  0  0
 16 17  1  0  0  0  0
 18 19  1  0  0  0  0
 20  1  1  0  0  0  0
 20 22  1  0  0  0  0
 21 20  1  0  0  0  0
 23 20  1  0  0  0  0
 24 29  1  0  0  0  0
 25 26  1  0  0  0  0
 25 24  2  0  0  0  0
 26 27  2  0  0  0  0
 27 28  1  0  0  0  0
 28 23  1  0  0  0  0
 29 28  2  0  0  0  0
 30 24  1  0  0  0  0
 31 26  1  0  0  0  0
 32 33  1  0  0  0  0
 32 25  1  0  0  0  0
 34 32  1  0  0  0  0
 35 32  1  0  0  0  0
M  END
>  <minimizedAffinity>
-6.18589067

>  <minimizedRMSD>
1.165326

$$$$
