
 OpenBabel03242516053D

 38 41  0  0  0  0  0  0  0  0999 V2000
   45.3570   33.0000   41.1300 Cl  0  0  0  0  0  0  0  0  0  0  0  0
   46.7460   34.0480   41.0360 C   0  0  0  0  0  0  0  0  0  0  0  0
   47.1060   34.8780   42.0550 C   0  0  0  0  0  0  0  0  0  0  0  0
   48.2150   35.6510   41.8610 C   0  0  0  0  0  0  0  0  0  0  0  0
   48.9430   35.6220   40.7350 C   0  0  0  0  0  0  0  0  0  0  0  0
   48.6000   34.7930   39.6900 C   0  0  0  0  0  0  0  0  0  0  0  0
   47.4710   33.9980   39.8740 C   0  0  0  0  0  0  0  0  0  0  0  0
   48.5190   36.3230   42.6720 H   0  0  0  0  0  0  0  0  0  0  0  0
   49.8130   36.2600   40.6420 H   0  0  0  0  0  0  0  0  0  0  0  0
   49.1760   34.7570   38.7750 H   0  0  0  0  0  0  0  0  0  0  0  0
   44.4930   35.7980   44.6500 C   0  0  0  0  0  0  0  0  0  0  0  0
   45.2710   35.8190   43.4850 C   0  0  0  0  0  0  0  0  0  0  0  0
   46.2890   34.8750   43.2550 C   0  0  0  0  0  0  0  0  0  0  0  0
   46.4510   33.9620   44.2350 N   0  0  0  0  0  0  0  0  0  0  0  0
   45.6980   33.9550   45.3480 C   0  0  0  0  0  0  0  0  0  0  0  0
   44.7370   34.8550   45.5520 N   0  0  0  0  0  0  0  0  0  0  0  0
   43.7340   36.5680   44.7310 H   0  0  0  0  0  0  0  0  0  0  0  0
   45.0880   36.5800   42.7350 H   0  0  0  0  0  0  0  0  0  0  0  0
   45.8580   33.2070   46.1120 H   0  0  0  0  0  0  0  0  0  0  0  0
   47.0730   33.0860   38.7660 C   0  0  0  0  0  0  0  0  0  0  0  0
   47.5210   31.7530   38.6790 C   0  0  0  0  0  0  0  0  0  0  0  0
   46.7300   31.1450   37.1590 S   0  0  0  0  0  0  0  0  0  0  0  0
   45.9000   32.8340   36.8790 C   0  0  0  0  0  0  0  0  0  0  0  0
   46.2870   33.3810   37.7640 N   0  0  0  0  0  0  0  0  0  0  0  0
   45.0480   33.1730   35.7670 N   0  0  0  0  0  0  0  0  0  0  0  0
   45.5190   33.2520   34.8220 H   0  0  0  0  0  0  0  0  0  0  0  0
   44.0590   33.2970   36.0550 H   0  0  0  0  0  0  0  0  0  0  0  0
   50.5280   31.8390   38.1380 Cl  0  0  0  0  0  0  0  0  0  0  0  0
   49.7960   30.9670   39.4660 C   0  0  0  0  0  0  0  0  0  0  0  0
   48.4250   31.0080   39.6010 C   0  0  0  0  0  0  0  0  0  0  0  0
   47.8060   30.3270   40.6450 C   0  0  0  0  0  0  0  0  0  0  0  0
   46.7290   30.3320   40.7910 H   0  0  0  0  0  0  0  0  0  0  0  0
   48.5770   29.6040   41.5540 C   0  0  0  0  0  0  0  0  0  0  0  0
   48.1870   29.0460   42.3950 H   0  0  0  0  0  0  0  0  0  0  0  0
   49.9480   29.5710   41.4080 C   0  0  0  0  0  0  0  0  0  0  0  0
   50.5700   29.0250   42.0890 H   0  0  0  0  0  0  0  0  0  0  0  0
   50.5560   30.2500   40.3680 C   0  0  0  0  0  0  0  0  0  0  0  0
   52.2980   30.2050   40.1850 Cl  0  0  0  0  0  0  0  0  0  0  0  0
  2  1  1  0  0  0  0
  2  3  1  0  0  0  0
  3 13  1  0  0  0  0
  4  3  2  0  0  0  0
  4  8  1  0  0  0  0
  5  4  1  0  0  0  0
  6  7  1  0  0  0  0
  6  5  2  0  0  0  0
  7  2  2  0  0  0  0
  9  5  1  0  0  0  0
 10  6  1  0  0  0  0
 11 17  1  0  0  0  0
 11 16  1  0  0  0  0
 12 11  2  0  0  0  0
 13 12  1  0  0  0  0
 13 14  2  0  0  0  0
 14 15  1  0  0  0  0
 15 16  2  0  0  0  0
 15 19  1  0  0  0  0
 18 12  1  0  0  0  0
 20  7  1  0  0  0  0
 21 20  2  0  0  0  0
 21 30  1  0  0  0  0
 22 21  1  0  0  0  0
 23 22  1  0  0  0  0
 23 24  2  0  0  0  0
 24 20  1  0  0  0  0
 25 27  1  0  0  0  0
 25 23  1  0  0  0  0
 26 25  1  0  0  0  0
 28 29  1  0  0  0  0
 29 30  2  0  0  0  0
 29 37  1  0  0  0  0
 30 31  1  0  0  0  0
 31 32  1  0  0  0  0
 31 33  2  0  0  0  0
 33 34  1  0  0  0  0
 35 33  1  0  0  0  0
 35 36  1  0  0  0  0
 37 35  2  0  0  0  0
 38 37  1  0  0  0  0
M  END
>  <minimizedAffinity>
-6.24576521

>  <minimizedRMSD>
1.13400233

$$$$
