
 OpenBabel03252507203D

 46 49  0  0  1  0  0  0  0  0999 V2000
   47.0860   33.2400   43.0730 C   0  0  0  0  0  0  0  0  0  0  0  0
   48.2340   33.1010   43.5880 O   0  0  0  0  0  0  0  0  0  0  0  0
   46.6330   32.5290   41.9190 N   0  0  0  0  0  0  0  0  0  0  0  0
   45.3580   31.8660   41.6520 C   0  0  0  0  0  0  0  0  0  0  0  0
   44.7920   32.3590   40.3150 C   0  0  0  0  0  0  0  0  0  0  0  0
   45.7220   31.9640   39.1960 C   0  0  0  0  0  0  0  0  0  0  0  0
   47.0430   31.5180   39.7610 C   0  0  0  0  0  0  0  0  0  0  0  0
   47.5590   32.4410   40.8240 C   0  0  2  0  0  0  0  0  0  0  0  0
   45.4180   30.7780   41.7190 H   0  0  0  0  0  0  0  0  0  0  0  0
   44.6720   32.2720   42.4450 H   0  0  0  0  0  0  0  0  0  0  0  0
   43.7650   32.0150   40.2010 H   0  0  0  0  0  0  0  0  0  0  0  0
   44.7550   33.4680   40.4350 H   0  0  0  0  0  0  0  0  0  0  0  0
   45.2690   31.0930   38.6770 H   0  0  0  0  0  0  0  0  0  0  0  0
   45.8360   32.7780   38.4510 H   0  0  0  0  0  0  0  0  0  0  0  0
   47.8090   31.4520   38.9530 H   0  0  0  0  0  0  0  0  0  0  0  0
   46.9110   30.4950   40.1890 H   0  0  0  0  0  0  0  0  0  0  0  0
   47.6170   33.4590   40.3850 H   0  0  0  0  0  0  0  0  0  0  0  0
   47.7390   29.6490   41.7450 Cl  0  0  0  0  0  0  0  0  0  0  0  0
   49.1400   30.7160   41.6560 C   0  0  0  0  0  0  0  0  0  0  0  0
   48.9290   32.0220   41.1980 C   0  0  0  0  0  0  0  0  0  0  0  0
   50.0800   32.7820   41.1630 C   0  0  0  0  0  0  0  0  0  0  0  0
   49.9450   33.8110   40.8100 H   0  0  0  0  0  0  0  0  0  0  0  0
   51.3010   32.2730   41.5490 C   0  0  0  0  0  0  0  0  0  0  0  0
   52.1590   32.9510   41.4870 H   0  0  0  0  0  0  0  0  0  0  0  0
   51.4480   30.9760   41.9930 C   0  0  0  0  0  0  0  0  0  0  0  0
   52.3900   30.5750   42.2930 H   0  0  0  0  0  0  0  0  0  0  0  0
   50.3360   30.1660   42.0510 C   0  0  0  0  0  0  0  0  0  0  0  0
   50.4650   28.5310   42.6010 Cl  0  0  0  0  0  0  0  0  0  0  0  0
   45.8090   35.3260   42.9630 C   0  0  0  0  0  0  0  0  0  0  0  0
   46.1890   34.1760   43.6980 C   0  0  0  0  0  0  0  0  0  0  0  0
   45.6920   33.9990   44.9720 C   0  0  0  0  0  0  0  0  0  0  0  0
   44.8570   34.9340   45.4750 N   0  0  0  0  0  0  0  0  0  0  0  0
   44.4850   36.0390   44.7850 C   0  0  0  0  0  0  0  0  0  0  0  0
   44.9710   36.2130   43.5380 N   0  0  0  0  0  0  0  0  0  0  0  0
   46.2010   35.4510   41.9760 H   0  0  0  0  0  0  0  0  0  0  0  0
   43.8150   36.7760   45.2060 H   0  0  0  0  0  0  0  0  0  0  0  0
   46.0940   32.8230   45.7150 C   0  0  0  0  0  0  0  0  0  0  0  0
   45.6350   31.5920   45.3520 C   0  0  0  0  0  0  0  0  0  0  0  0
   46.0270   30.4850   46.0690 C   0  0  0  0  0  0  0  0  0  0  0  0
   46.8800   30.5570   47.1630 C   0  0  0  0  0  0  0  0  0  0  0  0
   47.3130   31.8320   47.4870 C   0  0  0  0  0  0  0  0  0  0  0  0
   46.9120   32.8870   46.7670 N   0  0  0  0  0  0  0  0  0  0  0  0
   44.9700   31.3480   44.5430 H   0  0  0  0  0  0  0  0  0  0  0  0
   45.6990   29.4620   45.8360 H   0  0  0  0  0  0  0  0  0  0  0  0
   47.1900   29.7020   47.7280 H   0  0  0  0  0  0  0  0  0  0  0  0
   47.9880   31.9670   48.3380 H   0  0  0  0  0  0  0  0  0  0  0  0
  1  2  2  0  0  0  0
  1 30  1  0  0  0  0
  3  1  1  0  0  0  0
  4  9  1  0  0  0  0
  4  3  1  0  0  0  0
  4 10  1  0  0  0  0
  5 12  1  0  0  0  0
  5  4  1  0  0  0  0
  6  7  1  0  0  0  0
  6  5  1  0  0  0  0
  7 16  1  0  0  0  0
  7  8  1  0  0  0  0
  8 17  1  6  0  0  0
  8 20  1  0  0  0  0
  8  3  1  0  0  0  0
 11  5  1  0  0  0  0
 13  6  1  0  0  0  0
 14  6  1  0  0  0  0
 15  7  1  0  0  0  0
 19 18  1  0  0  0  0
 19 27  1  0  0  0  0
 20 19  2  0  0  0  0
 21 20  1  0  0  0  0
 21 23  2  0  0  0  0
 22 21  1  0  0  0  0
 23 25  1  0  0  0  0
 24 23  1  0  0  0  0
 25 27  2  0  0  0  0
 25 26  1  0  0  0  0
 27 28  1  0  0  0  0
 29 34  2  0  0  0  0
 29 30  1  0  0  0  0
 30 31  2  0  0  0  0
 31 32  1  0  0  0  0
 31 37  1  0  0  0  0
 33 36  1  0  0  0  0
 33 32  2  0  0  0  0
 34 33  1  0  0  0  0
 35 29  1  0  0  0  0
 37 42  1  0  0  0  0
 38 37  2  0  0  0  0
 38 39  1  0  0  0  0
 39 40  2  0  0  0  0
 40 41  1  0  0  0  0
 40 45  1  0  0  0  0
 41 46  1  0  0  0  0
 42 41  2  0  0  0  0
 43 38  1  0  0  0  0
 44 39  1  0  0  0  0
M  END
>  <minimizedAffinity>
-5.32603884

>  <minimizedRMSD>
1.09306824

$$$$
