
 OpenBabel03252506263D

 47 51  0  0  0  0  0  0  0  0999 V2000
   45.6290   27.9000   47.8460 C   0  0  0  0  0  0  0  0  0  0  0  0
   45.1860   29.2060   47.8850 C   0  0  0  0  0  0  0  0  0  0  0  0
   44.2400   29.5700   46.9250 C   0  0  0  0  0  0  0  0  0  0  0  0
   43.7700   28.6770   45.9890 C   0  0  0  0  0  0  0  0  0  0  0  0
   42.8890   28.7280   44.9710 N   0  0  0  0  0  0  0  0  0  0  0  0
   42.7960   27.5430   44.3550 C   0  0  0  0  0  0  0  0  0  0  0  0
   43.6450   26.6420   44.9680 C   0  0  0  0  0  0  0  0  0  0  0  0
   44.2250   27.3800   45.9680 C   0  0  0  0  0  0  0  0  0  0  0  0
   45.1590   27.0140   46.9120 C   0  0  0  0  0  0  0  0  0  0  0  0
   46.3660   27.6870   48.6240 H   0  0  0  0  0  0  0  0  0  0  0  0
   43.8030   30.5510   46.8320 H   0  0  0  0  0  0  0  0  0  0  0  0
   42.3490   29.5800   44.7010 H   0  0  0  0  0  0  0  0  0  0  0  0
   42.1530   27.3210   43.5030 H   0  0  0  0  0  0  0  0  0  0  0  0
   43.8020   25.6070   44.7090 H   0  0  0  0  0  0  0  0  0  0  0  0
   47.5290   26.3160   45.1210 Cl  0  0  0  0  0  0  0  0  0  0  0  0
   46.7720   25.2120   46.2500 C   0  0  0  0  0  0  0  0  0  0  0  0
   45.7140   25.6670   46.9900 C   0  0  0  0  0  0  0  0  0  0  0  0
   45.0440   24.8620   47.9170 C   0  0  0  0  0  0  0  0  0  0  0  0
   44.2060   25.1890   48.5190 H   0  0  0  0  0  0  0  0  0  0  0  0
   45.4860   23.5560   48.0780 C   0  0  0  0  0  0  0  0  0  0  0  0
   44.9760   22.9160   48.7960 H   0  0  0  0  0  0  0  0  0  0  0  0
   46.5580   23.0880   47.3320 C   0  0  0  0  0  0  0  0  0  0  0  0
   46.8690   22.0640   47.4890 H   0  0  0  0  0  0  0  0  0  0  0  0
   47.2080   23.8940   46.4210 C   0  0  0  0  0  0  0  0  0  0  0  0
   48.5570   23.3200   45.4760 Cl  0  0  0  0  0  0  0  0  0  0  0  0
   45.5470   30.3040   48.7800 C   0  0  0  0  0  0  0  0  0  0  0  0
   44.7280   31.0460   48.8740 H   0  0  0  0  0  0  0  0  0  0  0  0
   45.6220   29.8480   49.8070 H   0  0  0  0  0  0  0  0  0  0  0  0
   46.8350   30.9880   48.5250 C   0  0  0  0  0  0  0  0  0  0  0  0
   47.7020   30.3390   48.6570 H   0  0  0  0  0  0  0  0  0  0  0  0
   46.9140   31.8250   49.2560 H   0  0  0  0  0  0  0  0  0  0  0  0
   46.3940   32.9790   45.5950 C   0  0  0  0  0  0  0  0  0  0  0  0
   47.2080   31.9380   45.1130 C   0  0  0  0  0  0  0  0  0  0  0  0
   47.4710   31.0810   46.1280 C   0  0  0  0  0  0  0  0  0  0  0  0
   46.8360   31.5790   47.2010 N   0  0  0  0  0  0  0  0  0  0  0  0
   46.1960   32.7090   46.8820 N   0  0  0  0  0  0  0  0  0  0  0  0
   47.6160   31.7590   44.1080 H   0  0  0  0  0  0  0  0  0  0  0  0
   48.0590   30.1570   46.1570 H   0  0  0  0  0  0  0  0  0  0  0  0
   44.4900   35.8970   44.5200 C   0  0  0  0  0  0  0  0  0  0  0  0
   44.9930   36.1700   43.2510 C   0  0  0  0  0  0  0  0  0  0  0  0
   45.9970   35.3320   42.7750 C   0  0  0  0  0  0  0  0  0  0  0  0
   46.4160   34.3200   43.5620 N   0  0  0  0  0  0  0  0  0  0  0  0
   45.9210   34.0780   44.7720 C   0  0  0  0  0  0  0  0  0  0  0  0
   44.9510   34.8760   45.2490 N   0  0  0  0  0  0  0  0  0  0  0  0
   43.7060   36.5800   44.8500 H   0  0  0  0  0  0  0  0  0  0  0  0
   44.7190   36.9450   42.5700 H   0  0  0  0  0  0  0  0  0  0  0  0
   46.5190   35.3630   41.8370 H   0  0  0  0  0  0  0  0  0  0  0  0
  1  2  1  0  0  0  0
  1 10  1  0  0  0  0
  2 26  1  0  0  0  0
  3  2  2  0  0  0  0
  4  3  1  0  0  0  0
  5  4  1  0  0  0  0
  6  7  2  0  0  0  0
  6  5  1  0  0  0  0
  7  8  1  0  0  0  0
  8  4  2  0  0  0  0
  8  9  1  0  0  0  0
  9 17  1  0  0  0  0
  9  1  2  0  0  0  0
 11  3  1  0  0  0  0
 12  5  1  0  0  0  0
 13  6  1  0  0  0  0
 14  7  1  0  0  0  0
 15 16  1  0  0  0  0
 16 24  2  0  0  0  0
 16 17  1  0  0  0  0
 17 18  2  0  0  0  0
 18 20  1  0  0  0  0
 18 19  1  0  0  0  0
 20 21  1  0  0  0  0
 22 23  1  0  0  0  0
 22 20  2  0  0  0  0
 24 22  1  0  0  0  0
 25 24  1  0  0  0  0
 26 27  1  0  0  0  0
 26 28  1  0  0  0  0
 29 30  1  0  0  0  0
 29 26  1  0  0  0  0
 29 31  1  0  0  0  0
 32 36  2  0  0  0  0
 33 32  1  0  0  0  0
 33 34  2  0  0  0  0
 34 38  1  0  0  0  0
 34 35  1  0  0  0  0
 35 29  1  0  0  0  0
 36 35  1  0  0  0  0
 37 33  1  0  0  0  0
 39 45  1  0  0  0  0
 39 44  1  0  0  0  0
 40 39  2  0  0  0  0
 41 40  1  0  0  0  0
 41 42  2  0  0  0  0
 42 43  1  0  0  0  0
 43 44  2  0  0  0  0
 43 32  1  0  0  0  0
 46 40  1  0  0  0  0
 47 41  1  0  0  0  0
M  END
>  <minimizedAffinity>
-5.40547228

>  <minimizedRMSD>
1.66815746

$$$$
