
 OpenBabel03242513193D

 39 42  0  0  0  0  0  0  0  0999 V2000
   36.6860   27.4270   42.7130 C   0  0  0  0  0  0  0  0  0  0  0  0
   36.1480   27.4330   43.8530 O   0  0  0  0  0  0  0  0  0  0  0  0
   39.5790   27.9760   43.1110 Cl  0  0  0  0  0  0  0  0  0  0  0  0
   38.9090   26.4340   42.5700 C   0  0  0  0  0  0  0  0  0  0  0  0
   37.5520   26.2980   42.4020 C   0  0  0  0  0  0  0  0  0  0  0  0
   37.0930   25.0950   41.9650 C   0  0  0  0  0  0  0  0  0  0  0  0
   37.9490   24.0540   41.7010 C   0  0  0  0  0  0  0  0  0  0  0  0
   39.3110   24.1940   41.8730 C   0  0  0  0  0  0  0  0  0  0  0  0
   39.7890   25.4300   42.3220 C   0  0  0  0  0  0  0  0  0  0  0  0
   36.0370   24.9320   41.8060 H   0  0  0  0  0  0  0  0  0  0  0  0
   37.5370   23.1100   41.3530 H   0  0  0  0  0  0  0  0  0  0  0  0
   39.9570   23.3540   41.6570 H   0  0  0  0  0  0  0  0  0  0  0  0
   41.2430   25.4710   42.4750 C   0  0  0  0  0  0  0  0  0  0  0  0
   42.2380   25.5800   41.5160 C   0  0  0  0  0  0  0  0  0  0  0  0
   43.4950   25.5830   42.0750 C   0  0  0  0  0  0  0  0  0  0  0  0
   43.1960   25.4690   43.4240 C   0  0  0  0  0  0  0  0  0  0  0  0
   41.9140   25.4100   43.5900 O   0  0  0  0  0  0  0  0  0  0  0  0
   42.0060   25.6540   40.4410 H   0  0  0  0  0  0  0  0  0  0  0  0
   44.4570   25.6540   41.5970 H   0  0  0  0  0  0  0  0  0  0  0  0
   43.9300   25.4330   44.2470 H   0  0  0  0  0  0  0  0  0  0  0  0
   36.6710   30.7340   41.2390 C   0  0  0  0  0  0  0  0  0  0  0  0
   36.0880   30.5640   39.9680 C   0  0  0  0  0  0  0  0  0  0  0  0
   35.7090   29.2800   39.6570 C   0  0  0  0  0  0  0  0  0  0  0  0
   35.9110   28.2800   40.5600 N   0  0  0  0  0  0  0  0  0  0  0  0
   36.4670   28.4790   41.7520 C   0  0  0  0  0  0  0  0  0  0  0  0
   36.8460   29.7260   42.0820 N   0  0  0  0  0  0  0  0  0  0  0  0
   37.0070   31.7150   41.5830 H   0  0  0  0  0  0  0  0  0  0  0  0
   36.0170   31.4610   39.4160 H   0  0  0  0  0  0  0  0  0  0  0  0
   37.5400   29.2770   37.1910 Cl  0  0  0  0  0  0  0  0  0  0  0  0
   35.8170   29.0520   37.1710 C   0  0  0  0  0  0  0  0  0  0  0  0
   35.1050   29.0750   38.3490 C   0  0  0  0  0  0  0  0  0  0  0  0
   33.7570   28.8840   38.1610 C   0  0  0  0  0  0  0  0  0  0  0  0
   33.0660   28.8760   38.9900 H   0  0  0  0  0  0  0  0  0  0  0  0
   33.1650   28.6910   36.9520 C   0  0  0  0  0  0  0  0  0  0  0  0
   32.1100   28.5440   36.8260 H   0  0  0  0  0  0  0  0  0  0  0  0
   33.9090   28.6750   35.8080 C   0  0  0  0  0  0  0  0  0  0  0  0
   33.4560   28.5240   34.8380 H   0  0  0  0  0  0  0  0  0  0  0  0
   35.2750   28.8610   35.9190 C   0  0  0  0  0  0  0  0  0  0  0  0
   36.2340   28.8430   34.4530 Cl  0  0  0  0  0  0  0  0  0  0  0  0
  1  2  2  0  0  0  0
  4  3  1  0  0  0  0
  5  4  1  0  0  0  0
  5  1  1  0  0  0  0
  6  5  2  0  0  0  0
  7  8  2  0  0  0  0
  7  6  1  0  0  0  0
  8  9  1  0  0  0  0
  9 13  1  0  0  0  0
  9  4  2  0  0  0  0
 10  6  1  0  0  0  0
 11  7  1  0  0  0  0
 12  8  1  0  0  0  0
 13 17  1  0  0  0  0
 14 15  1  0  0  0  0
 14 13  2  0  0  0  0
 15 16  2  0  0  0  0
 16 17  1  0  0  0  0
 16 20  1  0  0  0  0
 18 14  1  0  0  0  0
 19 15  1  0  0  0  0
 21 27  1  0  0  0  0
 21 26  1  0  0  0  0
 22 21  2  0  0  0  0
 23 22  1  0  0  0  0
 23 24  2  0  0  0  0
 24 25  1  0  0  0  0
 25 26  2  0  0  0  0
 25  1  1  0  0  0  0
 28 22  1  0  0  0  0
 30 29  1  0  0  0  0
 30 31  1  0  0  0  0
 31 23  1  0  0  0  0
 32 31  2  0  0  0  0
 32 33  1  0  0  0  0
 34 32  1  0  0  0  0
 35 34  1  0  0  0  0
 36 38  1  0  0  0  0
 36 34  2  0  0  0  0
 37 36  1  0  0  0  0
 38 30  2  0  0  0  0
 39 38  1  0  0  0  0
M  END
>  <minimizedAffinity>
-6.77060986

$$$$

 OpenBabel03242513193D

 39 42  0  0  0  0  0  0  0  0999 V2000
   37.0840   27.5940   39.8590 C   0  0  0  0  0  0  0  0  0  0  0  0
   36.6940   26.4990   39.3730 O   0  0  0  0  0  0  0  0  0  0  0  0
   39.9720   27.1370   40.3840 Cl  0  0  0  0  0  0  0  0  0  0  0  0
   38.7520   27.4150   41.6300 C   0  0  0  0  0  0  0  0  0  0  0  0
   37.4370   27.5970   41.2720 C   0  0  0  0  0  0  0  0  0  0  0  0
   36.5360   27.7880   42.2730 C   0  0  0  0  0  0  0  0  0  0  0  0
   36.9210   27.8000   43.5910 C   0  0  0  0  0  0  0  0  0  0  0  0
   38.2420   27.6190   43.9460 C   0  0  0  0  0  0  0  0  0  0  0  0
   39.1740   27.4210   42.9210 C   0  0  0  0  0  0  0  0  0  0  0  0
   35.4890   27.9280   42.0520 H   0  0  0  0  0  0  0  0  0  0  0  0
   36.1660   27.9560   44.3580 H   0  0  0  0  0  0  0  0  0  0  0  0
   38.5120   27.6340   44.9930 H   0  0  0  0  0  0  0  0  0  0  0  0
   40.5430   27.2450   43.4040 C   0  0  0  0  0  0  0  0  0  0  0  0
   41.1850   26.1080   43.8690 C   0  0  0  0  0  0  0  0  0  0  0  0
   42.4870   26.3620   44.2320 C   0  0  0  0  0  0  0  0  0  0  0  0
   42.5890   27.7180   43.9590 C   0  0  0  0  0  0  0  0  0  0  0  0
   41.4640   28.1610   43.4940 O   0  0  0  0  0  0  0  0  0  0  0  0
   40.6750   25.1320   43.9240 H   0  0  0  0  0  0  0  0  0  0  0  0
   43.2320   25.6920   44.6250 H   0  0  0  0  0  0  0  0  0  0  0  0
   43.4860   28.3410   44.1080 H   0  0  0  0  0  0  0  0  0  0  0  0
   36.7520   29.8480   37.0440 C   0  0  0  0  0  0  0  0  0  0  0  0
   37.3240   31.0600   37.4780 C   0  0  0  0  0  0  0  0  0  0  0  0
   37.8190   31.0560   38.7590 C   0  0  0  0  0  0  0  0  0  0  0  0
   37.7320   29.9240   39.5130 N   0  0  0  0  0  0  0  0  0  0  0  0
   37.1820   28.7970   39.0690 C   0  0  0  0  0  0  0  0  0  0  0  0
   36.6910   28.7730   37.8180 N   0  0  0  0  0  0  0  0  0  0  0  0
   36.3290   29.7460   36.0420 H   0  0  0  0  0  0  0  0  0  0  0  0
   37.2970   31.8210   36.7470 H   0  0  0  0  0  0  0  0  0  0  0  0
   40.8830   31.2810   38.8000 Cl  0  0  0  0  0  0  0  0  0  0  0  0
   39.7710   32.5200   39.3010 C   0  0  0  0  0  0  0  0  0  0  0  0
   38.4140   32.2960   39.2340 C   0  0  0  0  0  0  0  0  0  0  0  0
   37.6750   33.3720   39.6670 C   0  0  0  0  0  0  0  0  0  0  0  0
   36.5970   33.3490   39.6750 H   0  0  0  0  0  0  0  0  0  0  0  0
   38.2040   34.5410   40.1180 C   0  0  0  0  0  0  0  0  0  0  0  0
   37.6090   35.3700   40.4520 H   0  0  0  0  0  0  0  0  0  0  0  0
   39.5560   34.7200   40.1660 C   0  0  0  0  0  0  0  0  0  0  0  0
   39.9930   35.6430   40.5220 H   0  0  0  0  0  0  0  0  0  0  0  0
   40.3640   33.6800   39.7460 C   0  0  0  0  0  0  0  0  0  0  0  0
   42.1010   33.9060   39.8090 Cl  0  0  0  0  0  0  0  0  0  0  0  0
  1  5  1  0  0  0  0
  2  1  2  0  0  0  0
  3  4  1  0  0  0  0
  4  9  1  0  0  0  0
  5  4  2  0  0  0  0
  5  6  1  0  0  0  0
  6  7  2  0  0  0  0
  7  8  1  0  0  0  0
  7 11  1  0  0  0  0
  8 12  1  0  0  0  0
  9 13  1  0  0  0  0
  9  8  2  0  0  0  0
 10  6  1  0  0  0  0
 13 17  1  0  0  0  0
 13 14  2  0  0  0  0
 14 18  1  0  0  0  0
 14 15  1  0  0  0  0
 15 19  1  0  0  0  0
 16 20  1  0  0  0  0
 16 15  2  0  0  0  0
 17 16  1  0  0  0  0
 21 22  2  0  0  0  0
 21 26  1  0  0  0  0
 22 23  1  0  0  0  0
 23 31  1  0  0  0  0
 23 24  2  0  0  0  0
 25 24  1  0  0  0  0
 25  1  1  0  0  0  0
 26 25  2  0  0  0  0
 27 21  1  0  0  0  0
 28 22  1  0  0  0  0
 29 30  1  0  0  0  0
 30 38  1  0  0  0  0
 31 30  2  0  0  0  0
 31 32  1  0  0  0  0
 32 33  1  0  0  0  0
 32 34  2  0  0  0  0
 34 36  1  0  0  0  0
 34 35  1  0  0  0  0
 36 37  1  0  0  0  0
 38 39  1  0  0  0  0
 38 36  2  0  0  0  0
M  END
>  <minimizedAffinity>
-6.68544531

$$$$

 OpenBabel03242513193D

 39 42  0  0  0  0  0  0  0  0999 V2000
   37.5410   31.2280   38.9180 C   0  0  0  0  0  0  0  0  0  0  0  0
   37.1610   31.1510   37.7180 O   0  0  0  0  0  0  0  0  0  0  0  0
   40.4330   31.0670   38.2550 Cl  0  0  0  0  0  0  0  0  0  0  0  0
   39.6460   32.4550   39.0130 C   0  0  0  0  0  0  0  0  0  0  0  0
   38.3010   32.4120   39.2910 C   0  0  0  0  0  0  0  0  0  0  0  0
   37.7510   33.5010   39.8930 C   0  0  0  0  0  0  0  0  0  0  0  0
   38.5070   34.6030   40.2110 C   0  0  0  0  0  0  0  0  0  0  0  0
   39.8570   34.6420   39.9270 C   0  0  0  0  0  0  0  0  0  0  0  0
   40.4290   33.5250   39.3090 C   0  0  0  0  0  0  0  0  0  0  0  0
   36.7010   33.5210   40.1440 H   0  0  0  0  0  0  0  0  0  0  0  0
   38.0250   35.4500   40.6910 H   0  0  0  0  0  0  0  0  0  0  0  0
   40.4240   35.5260   40.1900 H   0  0  0  0  0  0  0  0  0  0  0  0
   41.8610   33.6720   39.0490 C   0  0  0  0  0  0  0  0  0  0  0  0
   42.5190   34.1250   37.9160 C   0  0  0  0  0  0  0  0  0  0  0  0
   43.8850   34.1110   38.0740 C   0  0  0  0  0  0  0  0  0  0  0  0
   44.0080   33.6240   39.3660 C   0  0  0  0  0  0  0  0  0  0  0  0
   42.8360   33.3950   39.8660 O   0  0  0  0  0  0  0  0  0  0  0  0
   41.9730   34.4490   37.0150 H   0  0  0  0  0  0  0  0  0  0  0  0
   44.6580   34.4000   37.3820 H   0  0  0  0  0  0  0  0  0  0  0  0
   44.9560   33.4520   39.9040 H   0  0  0  0  0  0  0  0  0  0  0  0
   35.6360   28.8830   40.9130 C   0  0  0  0  0  0  0  0  0  0  0  0
   36.5890   28.2330   41.7210 C   0  0  0  0  0  0  0  0  0  0  0  0
   37.8890   28.6390   41.5460 C   0  0  0  0  0  0  0  0  0  0  0  0
   38.1760   29.6090   40.6330 N   0  0  0  0  0  0  0  0  0  0  0  0
   37.2470   30.2000   39.8860 C   0  0  0  0  0  0  0  0  0  0  0  0
   35.9660   29.8220   40.0390 N   0  0  0  0  0  0  0  0  0  0  0  0
   34.5730   28.6340   40.9750 H   0  0  0  0  0  0  0  0  0  0  0  0
   36.1690   27.5100   42.3660 H   0  0  0  0  0  0  0  0  0  0  0  0
   40.5520   30.0930   42.0290 Cl  0  0  0  0  0  0  0  0  0  0  0  0
   40.1260   28.5290   42.6560 C   0  0  0  0  0  0  0  0  0  0  0  0
   38.8960   27.9820   42.3660 C   0  0  0  0  0  0  0  0  0  0  0  0
   38.7160   26.7440   42.9360 C   0  0  0  0  0  0  0  0  0  0  0  0
   37.8020   26.1870   42.8000 H   0  0  0  0  0  0  0  0  0  0  0  0
   39.6390   26.1060   43.7050 C   0  0  0  0  0  0  0  0  0  0  0  0
   39.4790   25.1380   44.1400 H   0  0  0  0  0  0  0  0  0  0  0  0
   40.8460   26.6850   43.9670 C   0  0  0  0  0  0  0  0  0  0  0  0
   41.5920   26.1920   44.5760 H   0  0  0  0  0  0  0  0  0  0  0  0
   41.0980   27.9330   43.4270 C   0  0  0  0  0  0  0  0  0  0  0  0
   42.6490   28.6790   43.7610 Cl  0  0  0  0  0  0  0  0  0  0  0  0
  1  5  1  0  0  0  0
  1 25  1  0  0  0  0
  2  1  2  0  0  0  0
  3  4  1  0  0  0  0
  4  5  2  0  0  0  0
  4  9  1  0  0  0  0
  5  6  1  0  0  0  0
  6 10  1  0  0  0  0
  6  7  2  0  0  0  0
  7 11  1  0  0  0  0
  8 12  1  0  0  0  0
  8  7  1  0  0  0  0
  9  8  2  0  0  0  0
 13  9  1  0  0  0  0
 13 17  1  0  0  0  0
 14 15  1  0  0  0  0
 14 13  2  0  0  0  0
 15 16  2  0  0  0  0
 16 17  1  0  0  0  0
 16 20  1  0  0  0  0
 18 14  1  0  0  0  0
 19 15  1  0  0  0  0
 21 27  1  0  0  0  0
 21 22  1  0  0  0  0
 22 28  1  0  0  0  0
 23 22  2  0  0  0  0
 23 31  1  0  0  0  0
 24 23  1  0  0  0  0
 25 26  1  0  0  0  0
 25 24  2  0  0  0  0
 26 21  2  0  0  0  0
 29 30  1  0  0  0  0
 30 38  1  0  0  0  0
 31 30  2  0  0  0  0
 31 32  1  0  0  0  0
 32 34  2  0  0  0  0
 33 32  1  0  0  0  0
 34 36  1  0  0  0  0
 34 35  1  0  0  0  0
 36 37  1  0  0  0  0
 38 39  1  0  0  0  0
 38 36  2  0  0  0  0
M  END
>  <minimizedAffinity>
-6.6544857

$$$$

 OpenBabel03242513193D

 39 42  0  0  0  0  0  0  0  0999 V2000
   35.5690   28.9410   39.9780 C   0  0  0  0  0  0  0  0  0  0  0  0
   34.3090   28.9540   40.0090 O   0  0  0  0  0  0  0  0  0  0  0  0
   36.1750   26.3780   38.6020 Cl  0  0  0  0  0  0  0  0  0  0  0  0
   36.5830   26.7430   40.2810 C   0  0  0  0  0  0  0  0  0  0  0  0
   36.2370   27.9590   40.8210 C   0  0  0  0  0  0  0  0  0  0  0  0
   36.5580   28.1800   42.1240 C   0  0  0  0  0  0  0  0  0  0  0  0
   37.2040   27.2280   42.8740 C   0  0  0  0  0  0  0  0  0  0  0  0
   37.5510   26.0090   42.3270 C   0  0  0  0  0  0  0  0  0  0  0  0
   37.2230   25.7760   40.9870 C   0  0  0  0  0  0  0  0  0  0  0  0
   36.3040   29.1120   42.6040 H   0  0  0  0  0  0  0  0  0  0  0  0
   37.4410   27.4480   43.9120 H   0  0  0  0  0  0  0  0  0  0  0  0
   38.0600   25.2810   42.9450 H   0  0  0  0  0  0  0  0  0  0  0  0
   37.6390   24.4590   40.5060 C   0  0  0  0  0  0  0  0  0  0  0  0
   36.9560   23.2530   40.5030 C   0  0  0  0  0  0  0  0  0  0  0  0
   37.7040   22.2380   39.9560 C   0  0  0  0  0  0  0  0  0  0  0  0
   38.8760   22.9030   39.6310 C   0  0  0  0  0  0  0  0  0  0  0  0
   38.7830   24.1510   39.9630 O   0  0  0  0  0  0  0  0  0  0  0  0
   35.9320   23.1630   40.9020 H   0  0  0  0  0  0  0  0  0  0  0  0
   37.4510   21.2000   39.8150 H   0  0  0  0  0  0  0  0  0  0  0  0
   39.7650   22.4520   39.1590 H   0  0  0  0  0  0  0  0  0  0  0  0
   36.9460   30.4940   37.0110 C   0  0  0  0  0  0  0  0  0  0  0  0
   37.7540   31.5440   37.4900 C   0  0  0  0  0  0  0  0  0  0  0  0
   37.7990   31.6800   38.8570 C   0  0  0  0  0  0  0  0  0  0  0  0
   37.0840   30.8280   39.6430 N   0  0  0  0  0  0  0  0  0  0  0  0
   36.3290   29.8480   39.1530 C   0  0  0  0  0  0  0  0  0  0  0  0
   36.2690   29.6910   37.8190 N   0  0  0  0  0  0  0  0  0  0  0  0
   36.8430   30.3010   35.9400 H   0  0  0  0  0  0  0  0  0  0  0  0
   38.2280   32.0930   36.7230 H   0  0  0  0  0  0  0  0  0  0  0  0
   40.8510   31.4110   38.6470 Cl  0  0  0  0  0  0  0  0  0  0  0  0
   40.0010   32.7560   39.3450 C   0  0  0  0  0  0  0  0  0  0  0  0
   38.6250   32.7580   39.3800 C   0  0  0  0  0  0  0  0  0  0  0  0
   38.1080   33.8900   39.9640 C   0  0  0  0  0  0  0  0  0  0  0  0
   37.0440   34.0390   40.0660 H   0  0  0  0  0  0  0  0  0  0  0  0
   38.8550   34.9110   40.4630 C   0  0  0  0  0  0  0  0  0  0  0  0
   38.4320   35.7880   40.9170 H   0  0  0  0  0  0  0  0  0  0  0  0
   40.2180   34.8680   40.4080 C   0  0  0  0  0  0  0  0  0  0  0  0
   40.8270   35.6710   40.8000 H   0  0  0  0  0  0  0  0  0  0  0  0
   40.8090   33.7590   39.8330 C   0  0  0  0  0  0  0  0  0  0  0  0
   42.5590   33.6990   39.7610 Cl  0  0  0  0  0  0  0  0  0  0  0  0
  1  2  2  0  0  0  0
  1  5  1  0  0  0  0
  3  4  1  0  0  0  0
  4  5  2  0  0  0  0
  4  9  1  0  0  0  0
  5  6  1  0  0  0  0
  6 10  1  0  0  0  0
  6  7  2  0  0  0  0
  7 11  1  0  0  0  0
  8  7  1  0  0  0  0
  8 12  1  0  0  0  0
  9  8  2  0  0  0  0
 13  9  1  0  0  0  0
 14 13  2  0  0  0  0
 14 18  1  0  0  0  0
 15 14  1  0  0  0  0
 16 15  2  0  0  0  0
 16 17  1  0  0  0  0
 17 13  1  0  0  0  0
 19 15  1  0  0  0  0
 20 16  1  0  0  0  0
 21 22  2  0  0  0  0
 21 26  1  0  0  0  0
 22 23  1  0  0  0  0
 23 31  1  0  0  0  0
 23 24  2  0  0  0  0
 25 24  1  0  0  0  0
 25  1  1  0  0  0  0
 26 25  2  0  0  0  0
 27 21  1  0  0  0  0
 28 22  1  0  0  0  0
 29 30  1  0  0  0  0
 30 31  2  0  0  0  0
 30 38  1  0  0  0  0
 31 32  1  0  0  0  0
 32 33  1  0  0  0  0
 32 34  2  0  0  0  0
 34 35  1  0  0  0  0
 36 34  1  0  0  0  0
 36 37  1  0  0  0  0
 38 36  2  0  0  0  0
 39 38  1  0  0  0  0
M  END
>  <minimizedAffinity>
-6.63260984

$$$$

 OpenBabel03242513193D

 39 42  0  0  0  0  0  0  0  0999 V2000
   35.8460   28.5160   37.2480 C   0  0  0  0  0  0  0  0  0  0  0  0
   36.8950   28.0200   36.7560 O   0  0  0  0  0  0  0  0  0  0  0  0
   37.3940   31.0510   37.1780 Cl  0  0  0  0  0  0  0  0  0  0  0  0
   36.6540   30.3600   38.6250 C   0  0  0  0  0  0  0  0  0  0  0  0
   35.9740   29.1680   38.5440 C   0  0  0  0  0  0  0  0  0  0  0  0
   35.4410   28.6720   39.6930 C   0  0  0  0  0  0  0  0  0  0  0  0
   35.5740   29.3330   40.8890 C   0  0  0  0  0  0  0  0  0  0  0  0
   36.2560   30.5310   40.9650 C   0  0  0  0  0  0  0  0  0  0  0  0
   36.8070   31.0460   39.7870 C   0  0  0  0  0  0  0  0  0  0  0  0
   34.9040   27.7360   39.6910 H   0  0  0  0  0  0  0  0  0  0  0  0
   35.1310   28.8990   41.7820 H   0  0  0  0  0  0  0  0  0  0  0  0
   36.3420   31.0260   41.9230 H   0  0  0  0  0  0  0  0  0  0  0  0
   37.5030   32.3190   39.9770 C   0  0  0  0  0  0  0  0  0  0  0  0
   37.2050   33.5800   39.4850 C   0  0  0  0  0  0  0  0  0  0  0  0
   38.1160   34.5230   39.8990 C   0  0  0  0  0  0  0  0  0  0  0  0
   38.9770   33.7560   40.6680 C   0  0  0  0  0  0  0  0  0  0  0  0
   38.5830   32.5230   40.6770 O   0  0  0  0  0  0  0  0  0  0  0  0
   36.3300   33.7610   38.8390 H   0  0  0  0  0  0  0  0  0  0  0  0
   38.1540   35.5780   39.6850 H   0  0  0  0  0  0  0  0  0  0  0  0
   39.8690   34.1250   41.2000 H   0  0  0  0  0  0  0  0  0  0  0  0
   33.1350   27.2260   35.2250 C   0  0  0  0  0  0  0  0  0  0  0  0
   32.1500   28.2330   35.2500 C   0  0  0  0  0  0  0  0  0  0  0  0
   32.4650   29.3520   35.9820 C   0  0  0  0  0  0  0  0  0  0  0  0
   33.6660   29.4230   36.6210 N   0  0  0  0  0  0  0  0  0  0  0  0
   34.5720   28.4500   36.5750 C   0  0  0  0  0  0  0  0  0  0  0  0
   34.2890   27.3440   35.8640 N   0  0  0  0  0  0  0  0  0  0  0  0
   32.9820   26.2970   34.6710 H   0  0  0  0  0  0  0  0  0  0  0  0
   31.2870   27.9900   34.6920 H   0  0  0  0  0  0  0  0  0  0  0  0
   30.9020   29.7670   38.5940 Cl  0  0  0  0  0  0  0  0  0  0  0  0
   30.7000   30.6930   37.1370 C   0  0  0  0  0  0  0  0  0  0  0  0
   31.4650   30.4070   36.0280 C   0  0  0  0  0  0  0  0  0  0  0  0
   31.1830   31.2280   34.9610 C   0  0  0  0  0  0  0  0  0  0  0  0
   31.7000   31.1280   34.0190 H   0  0  0  0  0  0  0  0  0  0  0  0
   30.2530   32.2200   34.9740 C   0  0  0  0  0  0  0  0  0  0  0  0
   30.0480   32.8500   34.1300 H   0  0  0  0  0  0  0  0  0  0  0  0
   29.5170   32.4690   36.0960 C   0  0  0  0  0  0  0  0  0  0  0  0
   28.7740   33.2540   36.1240 H   0  0  0  0  0  0  0  0  0  0  0  0
   29.7460   31.6830   37.2110 C   0  0  0  0  0  0  0  0  0  0  0  0
   28.8020   31.9990   38.6530 Cl  0  0  0  0  0  0  0  0  0  0  0  0
  1  5  1  0  0  0  0
  2  1  2  0  0  0  0
  3  4  1  0  0  0  0
  4  9  1  0  0  0  0
  5  4  2  0  0  0  0
  5  6  1  0  0  0  0
  6  7  2  0  0  0  0
  7  8  1  0  0  0  0
  7 11  1  0  0  0  0
  8 12  1  0  0  0  0
  9 13  1  0  0  0  0
  9  8  2  0  0  0  0
 10  6  1  0  0  0  0
 13 17  1  0  0  0  0
 14 15  1  0  0  0  0
 14 13  2  0  0  0  0
 15 16  2  0  0  0  0
 16 17  1  0  0  0  0
 16 20  1  0  0  0  0
 18 14  1  0  0  0  0
 19 15  1  0  0  0  0
 21 22  2  0  0  0  0
 21 26  1  0  0  0  0
 22 23  1  0  0  0  0
 23 31  1  0  0  0  0
 23 24  2  0  0  0  0
 25 24  1  0  0  0  0
 25  1  1  0  0  0  0
 26 25  2  0  0  0  0
 27 21  1  0  0  0  0
 28 22  1  0  0  0  0
 30 38  1  0  0  0  0
 30 29  1  0  0  0  0
 31 30  2  0  0  0  0
 32 34  2  0  0  0  0
 32 31  1  0  0  0  0
 33 32  1  0  0  0  0
 34 36  1  0  0  0  0
 35 34  1  0  0  0  0
 36 37  1  0  0  0  0
 36 38  2  0  0  0  0
 38 39  1  0  0  0  0
M  END
>  <minimizedAffinity>
-6.62456512

$$$$

 OpenBabel03242513193D

 39 42  0  0  0  0  0  0  0  0999 V2000
   35.6820   27.9810   37.2030 C   0  0  0  0  0  0  0  0  0  0  0  0
   36.5550   28.6760   36.6190 O   0  0  0  0  0  0  0  0  0  0  0  0
   36.1280   29.5110   39.7100 Cl  0  0  0  0  0  0  0  0  0  0  0  0
   36.3490   27.7670   39.5390 C   0  0  0  0  0  0  0  0  0  0  0  0
   36.1310   27.1650   38.3220 C   0  0  0  0  0  0  0  0  0  0  0  0
   36.3360   25.8230   38.2420 C   0  0  0  0  0  0  0  0  0  0  0  0
   36.7440   25.0940   39.3310 C   0  0  0  0  0  0  0  0  0  0  0  0
   36.9600   25.7020   40.5510 C   0  0  0  0  0  0  0  0  0  0  0  0
   36.7520   27.0820   40.6410 C   0  0  0  0  0  0  0  0  0  0  0  0
   36.1890   25.2980   37.3110 H   0  0  0  0  0  0  0  0  0  0  0  0
   36.8950   24.0230   39.2210 H   0  0  0  0  0  0  0  0  0  0  0  0
   37.2810   25.0980   41.3900 H   0  0  0  0  0  0  0  0  0  0  0  0
   37.0040   27.6250   41.9750 C   0  0  0  0  0  0  0  0  0  0  0  0
   36.4330   27.2930   43.1940 C   0  0  0  0  0  0  0  0  0  0  0  0
   36.9490   28.0430   44.2260 C   0  0  0  0  0  0  0  0  0  0  0  0
   37.8600   28.8440   43.5550 C   0  0  0  0  0  0  0  0  0  0  0  0
   37.8490   28.5650   42.2910 O   0  0  0  0  0  0  0  0  0  0  0  0
   35.6600   26.5120   43.2830 H   0  0  0  0  0  0  0  0  0  0  0  0
   36.7110   28.0190   45.2760 H   0  0  0  0  0  0  0  0  0  0  0  0
   38.5070   29.6100   44.0140 H   0  0  0  0  0  0  0  0  0  0  0  0
   32.4860   26.7500   36.0260 C   0  0  0  0  0  0  0  0  0  0  0  0
   31.6480   27.8820   35.9960 C   0  0  0  0  0  0  0  0  0  0  0  0
   32.2310   29.0610   36.3910 C   0  0  0  0  0  0  0  0  0  0  0  0
   33.5370   29.0710   36.7780 N   0  0  0  0  0  0  0  0  0  0  0  0
   34.2980   27.9800   36.7950 C   0  0  0  0  0  0  0  0  0  0  0  0
   33.7530   26.8130   36.4110 N   0  0  0  0  0  0  0  0  0  0  0  0
   32.1200   25.7640   35.7300 H   0  0  0  0  0  0  0  0  0  0  0  0
   30.6680   27.6690   35.6660 H   0  0  0  0  0  0  0  0  0  0  0  0
   30.5980   29.7290   38.9060 Cl  0  0  0  0  0  0  0  0  0  0  0  0
   30.6100   30.6520   37.4340 C   0  0  0  0  0  0  0  0  0  0  0  0
   31.3880   30.2460   36.3720 C   0  0  0  0  0  0  0  0  0  0  0  0
   31.2830   31.0820   35.2860 C   0  0  0  0  0  0  0  0  0  0  0  0
   31.8330   30.8970   34.3760 H   0  0  0  0  0  0  0  0  0  0  0  0
   30.5030   32.1950   35.2390 C   0  0  0  0  0  0  0  0  0  0  0  0
   30.4350   32.8350   34.3800 H   0  0  0  0  0  0  0  0  0  0  0  0
   29.7470   32.5610   36.3150 C   0  0  0  0  0  0  0  0  0  0  0  0
   29.1210   33.4410   36.2950 H   0  0  0  0  0  0  0  0  0  0  0  0
   29.8020   31.7670   37.4460 C   0  0  0  0  0  0  0  0  0  0  0  0
   28.8320   32.2330   38.8290 Cl  0  0  0  0  0  0  0  0  0  0  0  0
  1  5  1  0  0  0  0
  2  1  2  0  0  0  0
  4  3  1  0  0  0  0
  4  9  1  0  0  0  0
  5  4  2  0  0  0  0
  6  5  1  0  0  0  0
  6  7  2  0  0  0  0
  7  8  1  0  0  0  0
  8  9  2  0  0  0  0
  8 12  1  0  0  0  0
  9 13  1  0  0  0  0
 10  6  1  0  0  0  0
 11  7  1  0  0  0  0
 13 17  1  0  0  0  0
 13 14  2  0  0  0  0
 14 18  1  0  0  0  0
 14 15  1  0  0  0  0
 15 19  1  0  0  0  0
 16 20  1  0  0  0  0
 16 15  2  0  0  0  0
 17 16  1  0  0  0  0
 21 26  1  0  0  0  0
 22 21  2  0  0  0  0
 22 23  1  0  0  0  0
 23 24  2  0  0  0  0
 24 25  1  0  0  0  0
 25  1  1  0  0  0  0
 26 25  2  0  0  0  0
 27 21  1  0  0  0  0
 28 22  1  0  0  0  0
 30 38  1  0  0  0  0
 30 29  1  0  0  0  0
 31 23  1  0  0  0  0
 31 30  2  0  0  0  0
 32 31  1  0  0  0  0
 33 32  1  0  0  0  0
 34 32  2  0  0  0  0
 34 36  1  0  0  0  0
 35 34  1  0  0  0  0
 36 38  2  0  0  0  0
 37 36  1  0  0  0  0
 38 39  1  0  0  0  0
M  END
>  <minimizedAffinity>
-6.56569195

$$$$

 OpenBabel03242513193D

 39 42  0  0  0  0  0  0  0  0999 V2000
   38.2260   31.2480   38.8620 C   0  0  0  0  0  0  0  0  0  0  0  0
   38.2640   30.9130   37.6470 O   0  0  0  0  0  0  0  0  0  0  0  0
   40.0340   29.3530   40.2640 Cl  0  0  0  0  0  0  0  0  0  0  0  0
   38.2850   29.4340   40.4900 C   0  0  0  0  0  0  0  0  0  0  0  0
   37.5420   30.3410   39.7720 C   0  0  0  0  0  0  0  0  0  0  0  0
   36.1970   30.3460   39.9710 C   0  0  0  0  0  0  0  0  0  0  0  0
   35.5990   29.4810   40.8550 C   0  0  0  0  0  0  0  0  0  0  0  0
   36.3490   28.5740   41.5760 C   0  0  0  0  0  0  0  0  0  0  0  0
   37.7330   28.5620   41.3750 C   0  0  0  0  0  0  0  0  0  0  0  0
   35.5620   31.0310   39.4290 H   0  0  0  0  0  0  0  0  0  0  0  0
   34.5200   29.5220   40.9820 H   0  0  0  0  0  0  0  0  0  0  0  0
   35.8470   27.9070   42.2640 H   0  0  0  0  0  0  0  0  0  0  0  0
   38.4320   27.5690   42.1890 C   0  0  0  0  0  0  0  0  0  0  0  0
   39.0110   27.6900   43.4430 C   0  0  0  0  0  0  0  0  0  0  0  0
   39.5740   26.5100   43.8670 C   0  0  0  0  0  0  0  0  0  0  0  0
   39.3000   25.6730   42.7970 C   0  0  0  0  0  0  0  0  0  0  0  0
   38.6560   26.3230   41.8810 O   0  0  0  0  0  0  0  0  0  0  0  0
   38.9980   28.6410   44.0000 H   0  0  0  0  0  0  0  0  0  0  0  0
   40.0910   26.2890   44.7860 H   0  0  0  0  0  0  0  0  0  0  0  0
   39.5830   24.6100   42.7200 H   0  0  0  0  0  0  0  0  0  0  0  0
   38.5050   34.6330   40.1170 C   0  0  0  0  0  0  0  0  0  0  0  0
   39.8880   34.8490   40.2790 C   0  0  0  0  0  0  0  0  0  0  0  0
   40.6970   33.7920   39.9380 C   0  0  0  0  0  0  0  0  0  0  0  0
   40.1390   32.6360   39.4820 N   0  0  0  0  0  0  0  0  0  0  0  0
   38.8260   32.4680   39.3440 C   0  0  0  0  0  0  0  0  0  0  0  0
   38.0120   33.4870   39.6690 N   0  0  0  0  0  0  0  0  0  0  0  0
   37.7770   35.4100   40.3600 H   0  0  0  0  0  0  0  0  0  0  0  0
   40.1220   35.8110   40.6450 H   0  0  0  0  0  0  0  0  0  0  0  0
   42.5060   33.3680   37.4920 Cl  0  0  0  0  0  0  0  0  0  0  0  0
   43.0430   33.8280   39.0800 C   0  0  0  0  0  0  0  0  0  0  0  0
   42.1300   33.9870   40.0970 C   0  0  0  0  0  0  0  0  0  0  0  0
   42.7150   34.3490   41.2870 C   0  0  0  0  0  0  0  0  0  0  0  0
   42.1300   34.5110   42.1790 H   0  0  0  0  0  0  0  0  0  0  0  0
   44.0500   34.5360   41.4660 C   0  0  0  0  0  0  0  0  0  0  0  0
   44.4890   34.8200   42.4040 H   0  0  0  0  0  0  0  0  0  0  0  0
   44.9210   34.3690   40.4280 C   0  0  0  0  0  0  0  0  0  0  0  0
   45.9860   34.5130   40.5520 H   0  0  0  0  0  0  0  0  0  0  0  0
   44.4040   34.0040   39.1990 C   0  0  0  0  0  0  0  0  0  0  0  0
   45.5190   33.7860   37.8650 Cl  0  0  0  0  0  0  0  0  0  0  0  0
  1 25  1  0  0  0  0
  1  5  1  0  0  0  0
  2  1  2  0  0  0  0
  3  4  1  0  0  0  0
  4  9  1  0  0  0  0
  5  6  1  0  0  0  0
  5  4  2  0  0  0  0
  6  7  2  0  0  0  0
  7 11  1  0  0  0  0
  7  8  1  0  0  0  0
  8 12  1  0  0  0  0
  9  8  2  0  0  0  0
  9 13  1  0  0  0  0
 10  6  1  0  0  0  0
 13 14  2  0  0  0  0
 14 15  1  0  0  0  0
 14 18  1  0  0  0  0
 15 19  1  0  0  0  0
 16 15  2  0  0  0  0
 17 13  1  0  0  0  0
 17 16  1  0  0  0  0
 20 16  1  0  0  0  0
 21 22  1  0  0  0  0
 21 27  1  0  0  0  0
 22 28  1  0  0  0  0
 23 31  1  0  0  0  0
 23 22  2  0  0  0  0
 24 23  1  0  0  0  0
 25 24  2  0  0  0  0
 25 26  1  0  0  0  0
 26 21  2  0  0  0  0
 29 30  1  0  0  0  0
 30 38  2  0  0  0  0
 30 31  1  0  0  0  0
 31 32  2  0  0  0  0
 32 34  1  0  0  0  0
 32 33  1  0  0  0  0
 34 35  1  0  0  0  0
 36 37  1  0  0  0  0
 36 34  2  0  0  0  0
 38 36  1  0  0  0  0
 39 38  1  0  0  0  0
M  END
>  <minimizedAffinity>
-6.51724052

$$$$

 OpenBabel03242513193D

 39 42  0  0  0  0  0  0  0  0999 V2000
   37.4680   28.1560   43.1320 C   0  0  0  0  0  0  0  0  0  0  0  0
   36.9470   28.4450   44.2420 O   0  0  0  0  0  0  0  0  0  0  0  0
   39.4000   30.3820   42.7560 Cl  0  0  0  0  0  0  0  0  0  0  0  0
   37.9920   30.0830   41.7320 C   0  0  0  0  0  0  0  0  0  0  0  0
   37.1530   29.0300   42.0110 C   0  0  0  0  0  0  0  0  0  0  0  0
   36.0740   28.8590   41.2010 C   0  0  0  0  0  0  0  0  0  0  0  0
   35.8290   29.7010   40.1450 C   0  0  0  0  0  0  0  0  0  0  0  0
   36.6750   30.7550   39.8680 C   0  0  0  0  0  0  0  0  0  0  0  0
   37.7870   30.9380   40.6970 C   0  0  0  0  0  0  0  0  0  0  0  0
   35.3760   28.0550   41.3770 H   0  0  0  0  0  0  0  0  0  0  0  0
   34.9530   29.5260   39.5250 H   0  0  0  0  0  0  0  0  0  0  0  0
   36.4530   31.4000   39.0270 H   0  0  0  0  0  0  0  0  0  0  0  0
   38.6190   32.0780   40.3140 C   0  0  0  0  0  0  0  0  0  0  0  0
   38.4230   33.4350   40.5200 C   0  0  0  0  0  0  0  0  0  0  0  0
   39.4500   34.1890   40.0010 C   0  0  0  0  0  0  0  0  0  0  0  0
   40.2710   33.2070   39.4700 C   0  0  0  0  0  0  0  0  0  0  0  0
   39.7540   32.0380   39.6760 O   0  0  0  0  0  0  0  0  0  0  0  0
   37.5350   33.8220   41.0460 H   0  0  0  0  0  0  0  0  0  0  0  0
   39.5840   35.2570   40.0030 H   0  0  0  0  0  0  0  0  0  0  0  0
   41.2280   33.3780   38.9480 H   0  0  0  0  0  0  0  0  0  0  0  0
   40.1750   25.8260   43.7280 C   0  0  0  0  0  0  0  0  0  0  0  0
   40.0530   24.8580   42.7120 C   0  0  0  0  0  0  0  0  0  0  0  0
   39.0150   25.0490   41.8330 C   0  0  0  0  0  0  0  0  0  0  0  0
   38.1900   26.1230   41.9870 N   0  0  0  0  0  0  0  0  0  0  0  0
   38.3360   27.0170   42.9610 C   0  0  0  0  0  0  0  0  0  0  0  0
   39.3450   26.8540   43.8340 N   0  0  0  0  0  0  0  0  0  0  0  0
   40.9670   25.7660   44.4780 H   0  0  0  0  0  0  0  0  0  0  0  0
   40.7900   24.1030   42.7620 H   0  0  0  0  0  0  0  0  0  0  0  0
   40.7430   25.3420   39.3100 Cl  0  0  0  0  0  0  0  0  0  0  0  0
   39.5800   24.0830   39.5980 C   0  0  0  0  0  0  0  0  0  0  0  0
   38.8640   24.0620   40.7750 C   0  0  0  0  0  0  0  0  0  0  0  0
   37.9870   23.0060   40.8460 C   0  0  0  0  0  0  0  0  0  0  0  0
   37.3550   22.8540   41.7070 H   0  0  0  0  0  0  0  0  0  0  0  0
   37.8230   22.0710   39.8720 C   0  0  0  0  0  0  0  0  0  0  0  0
   37.1320   21.2530   39.9470 H   0  0  0  0  0  0  0  0  0  0  0  0
   38.5540   22.1300   38.7210 C   0  0  0  0  0  0  0  0  0  0  0  0
   38.4360   21.3950   37.9360 H   0  0  0  0  0  0  0  0  0  0  0  0
   39.4580   23.1660   38.5780 C   0  0  0  0  0  0  0  0  0  0  0  0
   40.3970   23.2460   37.1010 Cl  0  0  0  0  0  0  0  0  0  0  0  0
  1  2  2  0  0  0  0
  4  5  1  0  0  0  0
  4  3  1  0  0  0  0
  5  1  1  0  0  0  0
  6 10  1  0  0  0  0
  6  5  2  0  0  0  0
  7  6  1  0  0  0  0
  8  7  2  0  0  0  0
  8  9  1  0  0  0  0
  9  4  2  0  0  0  0
 11  7  1  0  0  0  0
 12  8  1  0  0  0  0
 13 14  2  0  0  0  0
 13  9  1  0  0  0  0
 14 18  1  0  0  0  0
 15 19  1  0  0  0  0
 15 14  1  0  0  0  0
 16 17  1  0  0  0  0
 16 15  2  0  0  0  0
 17 13  1  0  0  0  0
 20 16  1  0  0  0  0
 21 26  1  0  0  0  0
 21 27  1  0  0  0  0
 22 28  1  0  0  0  0
 22 21  2  0  0  0  0
 23 24  2  0  0  0  0
 23 22  1  0  0  0  0
 24 25  1  0  0  0  0
 25  1  1  0  0  0  0
 25 26  2  0  0  0  0
 29 30  1  0  0  0  0
 30 31  1  0  0  0  0
 31 32  2  0  0  0  0
 31 23  1  0  0  0  0
 32 33  1  0  0  0  0
 34 35  1  0  0  0  0
 34 32  1  0  0  0  0
 36 34  2  0  0  0  0
 37 36  1  0  0  0  0
 38 36  1  0  0  0  0
 38 30  2  0  0  0  0
 39 38  1  0  0  0  0
M  END
>  <minimizedAffinity>
-6.50781155

$$$$

 OpenBabel03242513193D

 39 42  0  0  0  0  0  0  0  0999 V2000
   36.0560   28.5980   37.4830 C   0  0  0  0  0  0  0  0  0  0  0  0
   37.0870   28.2510   36.8460 O   0  0  0  0  0  0  0  0  0  0  0  0
   37.3990   31.2430   37.3250 Cl  0  0  0  0  0  0  0  0  0  0  0  0
   36.8620   30.4720   38.8200 C   0  0  0  0  0  0  0  0  0  0  0  0
   36.2660   29.2330   38.7760 C   0  0  0  0  0  0  0  0  0  0  0  0
   35.8900   28.6770   39.9590 C   0  0  0  0  0  0  0  0  0  0  0  0
   36.0940   29.3250   41.1530 C   0  0  0  0  0  0  0  0  0  0  0  0
   36.6900   30.5690   41.1920 C   0  0  0  0  0  0  0  0  0  0  0  0
   37.0810   31.1460   39.9790 C   0  0  0  0  0  0  0  0  0  0  0  0
   35.4250   27.7040   39.9870 H   0  0  0  0  0  0  0  0  0  0  0  0
   35.7760   28.8420   42.0740 H   0  0  0  0  0  0  0  0  0  0  0  0
   36.8360   31.0520   42.1490 H   0  0  0  0  0  0  0  0  0  0  0  0
   37.6970   32.4640   40.1320 C   0  0  0  0  0  0  0  0  0  0  0  0
   37.3520   33.6800   39.5640 C   0  0  0  0  0  0  0  0  0  0  0  0
   38.1910   34.6930   39.9660 C   0  0  0  0  0  0  0  0  0  0  0  0
   39.0590   34.0140   40.8070 C   0  0  0  0  0  0  0  0  0  0  0  0
   38.7330   32.7630   40.8630 O   0  0  0  0  0  0  0  0  0  0  0  0
   36.4970   33.7800   38.8750 H   0  0  0  0  0  0  0  0  0  0  0  0
   38.1810   35.7370   39.7010 H   0  0  0  0  0  0  0  0  0  0  0  0
   39.9060   34.4590   41.3560 H   0  0  0  0  0  0  0  0  0  0  0  0
   33.2900   27.0070   35.7720 C   0  0  0  0  0  0  0  0  0  0  0  0
   32.1990   27.8800   35.9520 C   0  0  0  0  0  0  0  0  0  0  0  0
   32.4640   29.0180   36.6750 C   0  0  0  0  0  0  0  0  0  0  0  0
   33.7190   29.2310   37.1610 N   0  0  0  0  0  0  0  0  0  0  0  0
   34.7250   28.3810   36.9720 C   0  0  0  0  0  0  0  0  0  0  0  0
   34.4930   27.2600   36.2670 N   0  0  0  0  0  0  0  0  0  0  0  0
   33.1850   26.0740   35.2120 H   0  0  0  0  0  0  0  0  0  0  0  0
   31.3090   27.5380   35.4980 H   0  0  0  0  0  0  0  0  0  0  0  0
   31.6560   30.8620   34.3550 Cl  0  0  0  0  0  0  0  0  0  0  0  0
   30.8980   30.8120   35.9180 C   0  0  0  0  0  0  0  0  0  0  0  0
   31.3550   29.9370   36.8780 C   0  0  0  0  0  0  0  0  0  0  0  0
   30.6510   30.0230   38.0560 C   0  0  0  0  0  0  0  0  0  0  0  0
   30.8900   29.4000   38.9040 H   0  0  0  0  0  0  0  0  0  0  0  0
   29.6120   30.8730   38.2750 C   0  0  0  0  0  0  0  0  0  0  0  0
   29.0750   30.9250   39.2030 H   0  0  0  0  0  0  0  0  0  0  0  0
   29.1910   31.7240   37.2950 C   0  0  0  0  0  0  0  0  0  0  0  0
   28.3670   32.4060   37.4510 H   0  0  0  0  0  0  0  0  0  0  0  0
   29.8520   31.6940   36.0810 C   0  0  0  0  0  0  0  0  0  0  0  0
   29.3160   32.7860   34.8200 Cl  0  0  0  0  0  0  0  0  0  0  0  0
  1  5  1  0  0  0  0
  2  1  2  0  0  0  0
  3  4  1  0  0  0  0
  4  9  1  0  0  0  0
  5  4  2  0  0  0  0
  5  6  1  0  0  0  0
  6 10  1  0  0  0  0
  6  7  2  0  0  0  0
  7  8  1  0  0  0  0
  7 11  1  0  0  0  0
  8 12  1  0  0  0  0
  9 13  1  0  0  0  0
  9  8  2  0  0  0  0
 13 17  1  0  0  0  0
 14 15  1  0  0  0  0
 14 13  2  0  0  0  0
 15 16  2  0  0  0  0
 16 17  1  0  0  0  0
 16 20  1  0  0  0  0
 18 14  1  0  0  0  0
 19 15  1  0  0  0  0
 21 22  2  0  0  0  0
 21 26  1  0  0  0  0
 22 23  1  0  0  0  0
 23 31  1  0  0  0  0
 23 24  2  0  0  0  0
 25 24  1  0  0  0  0
 25  1  1  0  0  0  0
 26 25  2  0  0  0  0
 27 21  1  0  0  0  0
 28 22  1  0  0  0  0
 29 30  1  0  0  0  0
 30 38  2  0  0  0  0
 30 31  1  0  0  0  0
 31 32  2  0  0  0  0
 32 34  1  0  0  0  0
 32 33  1  0  0  0  0
 34 35  1  0  0  0  0
 36 37  1  0  0  0  0
 36 34  2  0  0  0  0
 38 36  1  0  0  0  0
 39 38  1  0  0  0  0
M  END
>  <minimizedAffinity>
-6.49538136

$$$$
