
 OpenBabel03252507203D

 46 49  0  0  1  0  0  0  0  0999 V2000
   47.0430   33.4330   43.0490 C   0  0  0  0  0  0  0  0  0  0  0  0
   48.1310   33.1400   43.6260 O   0  0  0  0  0  0  0  0  0  0  0  0
   46.6600   32.9430   41.7640 N   0  0  0  0  0  0  0  0  0  0  0  0
   45.3800   32.4140   41.2910 C   0  0  0  0  0  0  0  0  0  0  0  0
   44.9630   33.1460   40.0100 C   0  0  0  0  0  0  0  0  0  0  0  0
   45.9680   32.8710   38.9200 C   0  0  0  0  0  0  0  0  0  0  0  0
   47.2080   32.2560   39.5110 C   0  0  0  0  0  0  0  0  0  0  0  0
   47.6740   32.9660   40.7470 C   0  0  2  0  0  0  0  0  0  0  0  0
   45.3780   31.3280   41.1860 H   0  0  0  0  0  0  0  0  0  0  0  0
   44.6480   32.7360   42.0820 H   0  0  0  0  0  0  0  0  0  0  0  0
   43.9350   32.8920   39.7600 H   0  0  0  0  0  0  0  0  0  0  0  0
   44.9730   34.2230   40.3040 H   0  0  0  0  0  0  0  0  0  0  0  0
   45.5190   32.1230   38.2340 H   0  0  0  0  0  0  0  0  0  0  0  0
   46.1910   33.7810   38.3280 H   0  0  0  0  0  0  0  0  0  0  0  0
   48.0400   32.2670   38.7670 H   0  0  0  0  0  0  0  0  0  0  0  0
   46.9850   31.1900   39.7560 H   0  0  0  0  0  0  0  0  0  0  0  0
   47.8240   34.0340   40.4840 H   0  0  0  0  0  0  0  0  0  0  0  0
   47.6610   30.0390   41.0730 Cl  0  0  0  0  0  0  0  0  0  0  0  0
   49.0980   31.0240   41.3490 C   0  0  0  0  0  0  0  0  0  0  0  0
   48.9810   32.4050   41.1570 C   0  0  0  0  0  0  0  0  0  0  0  0
   50.1540   33.0910   41.3960 C   0  0  0  0  0  0  0  0  0  0  0  0
   50.0910   34.1770   41.2550 H   0  0  0  0  0  0  0  0  0  0  0  0
   51.3090   32.4470   41.7840 C   0  0  0  0  0  0  0  0  0  0  0  0
   52.1910   33.0760   41.9500 H   0  0  0  0  0  0  0  0  0  0  0  0
   51.3640   31.0820   41.9570 C   0  0  0  0  0  0  0  0  0  0  0  0
   52.2550   30.5760   42.2580 H   0  0  0  0  0  0  0  0  0  0  0  0
   50.2270   30.3390   41.7340 C   0  0  0  0  0  0  0  0  0  0  0  0
   50.2420   28.6210   41.9370 Cl  0  0  0  0  0  0  0  0  0  0  0  0
   45.7490   35.5120   43.0920 C   0  0  0  0  0  0  0  0  0  0  0  0
   46.1430   34.3160   43.7440 C   0  0  0  0  0  0  0  0  0  0  0  0
   45.6570   34.0480   45.0050 C   0  0  0  0  0  0  0  0  0  0  0  0
   44.8170   34.9400   45.5760 N   0  0  0  0  0  0  0  0  0  0  0  0
   44.4320   36.0870   44.9660 C   0  0  0  0  0  0  0  0  0  0  0  0
   44.9090   36.3500   43.7310 N   0  0  0  0  0  0  0  0  0  0  0  0
   46.1340   35.7070   42.1130 H   0  0  0  0  0  0  0  0  0  0  0  0
   43.7600   36.7870   45.4420 H   0  0  0  0  0  0  0  0  0  0  0  0
   46.0720   32.8280   45.6630 C   0  0  0  0  0  0  0  0  0  0  0  0
   45.6380   31.6190   45.2050 C   0  0  0  0  0  0  0  0  0  0  0  0
   46.0430   30.4690   45.8420 C   0  0  0  0  0  0  0  0  0  0  0  0
   46.8850   30.4740   46.9470 C   0  0  0  0  0  0  0  0  0  0  0  0
   47.2940   31.7280   47.3690 C   0  0  0  0  0  0  0  0  0  0  0  0
   46.8810   32.8270   46.7240 N   0  0  0  0  0  0  0  0  0  0  0  0
   44.9830   31.4250   44.3750 H   0  0  0  0  0  0  0  0  0  0  0  0
   45.7340   29.4610   45.5310 H   0  0  0  0  0  0  0  0  0  0  0  0
   47.2050   29.5850   47.4500 H   0  0  0  0  0  0  0  0  0  0  0  0
   47.9590   31.8120   48.2330 H   0  0  0  0  0  0  0  0  0  0  0  0
  1  2  2  0  0  0  0
  1 30  1  0  0  0  0
  3  1  1  0  0  0  0
  4  3  1  0  0  0  0
  4 10  1  0  0  0  0
  5 12  1  0  0  0  0
  5  4  1  0  0  0  0
  6  7  1  0  0  0  0
  6  5  1  0  0  0  0
  7 16  1  0  0  0  0
  7  8  1  0  0  0  0
  8 17  1  6  0  0  0
  8 20  1  0  0  0  0
  8  3  1  0  0  0  0
  9  4  1  0  0  0  0
 11  5  1  0  0  0  0
 13  6  1  0  0  0  0
 14  6  1  0  0  0  0
 15  7  1  0  0  0  0
 18 19  1  0  0  0  0
 19 27  1  0  0  0  0
 20 19  2  0  0  0  0
 20 21  1  0  0  0  0
 21 23  2  0  0  0  0
 22 21  1  0  0  0  0
 23 24  1  0  0  0  0
 23 25  1  0  0  0  0
 25 26  1  0  0  0  0
 27 28  1  0  0  0  0
 27 25  2  0  0  0  0
 29 34  2  0  0  0  0
 29 30  1  0  0  0  0
 30 31  2  0  0  0  0
 31 32  1  0  0  0  0
 31 37  1  0  0  0  0
 33 36  1  0  0  0  0
 33 32  2  0  0  0  0
 34 33  1  0  0  0  0
 35 29  1  0  0  0  0
 37 42  1  0  0  0  0
 38 37  2  0  0  0  0
 38 39  1  0  0  0  0
 39 40  2  0  0  0  0
 40 41  1  0  0  0  0
 40 45  1  0  0  0  0
 41 46  1  0  0  0  0
 42 41  2  0  0  0  0
 43 38  1  0  0  0  0
 44 39  1  0  0  0  0
M  END
>  <minimizedAffinity>
-5.46700525

>  <minimizedRMSD>
1.29762113

$$$$
