
 OpenBabel03252505053D

 36 38  0  0  1  0  0  0  0  0999 V2000
   37.3290   32.7210   39.9400 C   0  0  0  0  0  0  0  0  0  0  0  0
   36.9240   31.5720   40.6270 C   0  0  0  0  0  0  0  0  0  0  0  0
   37.8490   30.5650   40.8580 C   0  0  0  0  0  0  0  0  0  0  0  0
   39.1040   30.7880   40.3810 N   0  0  0  0  0  0  0  0  0  0  0  0
   39.4800   31.8860   39.7270 C   0  0  0  0  0  0  0  0  0  0  0  0
   38.5800   32.8750   39.5000 N   0  0  0  0  0  0  0  0  0  0  0  0
   36.5560   33.4690   39.7940 H   0  0  0  0  0  0  0  0  0  0  0  0
   35.9390   31.4560   40.9590 H   0  0  0  0  0  0  0  0  0  0  0  0
   40.8790   32.0010   39.2470 C   0  0  2  0  0  0  0  0  0  0  0  0
   41.6740   32.5930   40.3520 C   0  0  0  0  0  0  0  0  0  0  0  0
   42.0420   34.0100   40.1780 C   0  0  0  0  0  0  0  0  0  0  0  0
   42.7890   34.0940   38.8620 C   0  0  0  0  0  0  0  0  0  0  0  0
   41.9200   33.7840   37.7200 C   0  0  0  0  0  0  0  0  0  0  0  0
   40.9250   32.6780   37.9590 C   0  0  0  0  0  0  0  0  0  0  0  0
   41.2080   30.9330   39.0790 H   0  0  0  0  0  0  0  0  0  0  0  0
   42.6160   32.0100   40.4630 H   0  0  0  0  0  0  0  0  0  0  0  0
   41.1640   32.4510   41.3490 H   0  0  0  0  0  0  0  0  0  0  0  0
   41.1280   34.6340   40.0900 H   0  0  0  0  0  0  0  0  0  0  0  0
   42.6810   34.3390   40.9980 H   0  0  0  0  0  0  0  0  0  0  0  0
   43.0290   35.1750   38.7430 H   0  0  0  0  0  0  0  0  0  0  0  0
   43.7230   33.5450   38.9280 H   0  0  0  0  0  0  0  0  0  0  0  0
   41.8510   34.1930   36.7470 H   0  0  0  0  0  0  0  0  0  0  0  0
   40.0180   32.2850   36.9310 N   0  0  0  0  0  0  0  0  0  0  0  0
   40.1790   31.4230   36.3600 H   0  0  0  0  0  0  0  0  0  0  0  0
   39.1480   32.5140   36.4360 H   0  0  0  0  0  0  0  0  0  0  0  0
   37.3920   27.8800   39.2680 Cl  0  0  0  0  0  0  0  0  0  0  0  0
   37.4540   28.0660   40.9790 C   0  0  0  0  0  0  0  0  0  0  0  0
   37.6570   29.2960   41.5260 C   0  0  0  0  0  0  0  0  0  0  0  0
   37.6570   29.2770   42.9040 C   0  0  0  0  0  0  0  0  0  0  0  0
   37.8040   30.1680   43.5080 H   0  0  0  0  0  0  0  0  0  0  0  0
   37.4730   28.1420   43.6620 C   0  0  0  0  0  0  0  0  0  0  0  0
   37.4790   28.1650   44.7280 H   0  0  0  0  0  0  0  0  0  0  0  0
   37.2730   26.9270   43.0600 C   0  0  0  0  0  0  0  0  0  0  0  0
   37.1300   26.0430   43.6630 H   0  0  0  0  0  0  0  0  0  0  0  0
   37.2660   26.9060   41.6840 C   0  0  0  0  0  0  0  0  0  0  0  0
   37.0110   25.3590   40.9110 Cl  0  0  0  0  0  0  0  0  0  0  0  0
  1  2  1  0  0  0  0
  2  3  2  0  0  0  0
  2  8  1  0  0  0  0
  3 28  1  0  0  0  0
  4  3  1  0  0  0  0
  5  4  2  0  0  0  0
  6  5  1  0  0  0  0
  6  1  2  0  0  0  0
  7  1  1  0  0  0  0
  9 15  1  6  0  0  0
  9  5  1  0  0  0  0
  9 10  1  0  0  0  0
 10 16  1  0  0  0  0
 10 17  1  0  0  0  0
 11 10  1  0  0  0  0
 11 19  1  0  0  0  0
 12 21  1  0  0  0  0
 12 11  1  0  0  0  0
 13 14  2  0  0  0  0
 13 12  1  0  0  0  0
 14  9  1  0  0  0  0
 18 11  1  0  0  0  0
 20 12  1  0  0  0  0
 22 13  1  0  0  0  0
 23 14  1  0  0  0  0
 24 23  1  0  0  0  0
 25 23  1  0  0  0  0
 26 27  1  0  0  0  0
 27 28  2  0  0  0  0
 27 35  1  0  0  0  0
 28 29  1  0  0  0  0
 29 30  1  0  0  0  0
 29 31  2  0  0  0  0
 31 32  1  0  0  0  0
 33 31  1  0  0  0  0
 33 34  1  0  0  0  0
 35 33  2  0  0  0  0
 36 35  1  0  0  0  0
M  END
>  <minimizedAffinity>
-6.24475908

$$$$

 OpenBabel03252505053D

 36 38  0  0  1  0  0  0  0  0999 V2000
   38.7080   32.6580   40.6960 C   0  0  0  0  0  0  0  0  0  0  0  0
   37.6970   32.1740   39.8590 C   0  0  0  0  0  0  0  0  0  0  0  0
   37.2660   30.8660   40.0120 C   0  0  0  0  0  0  0  0  0  0  0  0
   37.8810   30.1450   40.9880 N   0  0  0  0  0  0  0  0  0  0  0  0
   38.8440   30.6150   41.7810 C   0  0  0  0  0  0  0  0  0  0  0  0
   39.2690   31.8960   41.6370 N   0  0  0  0  0  0  0  0  0  0  0  0
   38.9980   33.6900   40.5230 H   0  0  0  0  0  0  0  0  0  0  0  0
   37.2720   32.7770   39.1170 H   0  0  0  0  0  0  0  0  0  0  0  0
   39.4440   29.7210   42.8020 C   0  0  2  0  0  0  0  0  0  0  0  0
   40.7000   29.1800   42.2260 C   0  0  0  0  0  0  0  0  0  0  0  0
   40.6370   27.7770   41.7800 C   0  0  0  0  0  0  0  0  0  0  0  0
   40.1960   26.9690   42.9840 C   0  0  0  0  0  0  0  0  0  0  0  0
   38.8250   27.3000   43.3910 C   0  0  0  0  0  0  0  0  0  0  0  0
   38.4620   28.7580   43.2800 C   0  0  0  0  0  0  0  0  0  0  0  0
   39.6920   30.4070   43.6660 H   0  0  0  0  0  0  0  0  0  0  0  0
   41.5030   29.2560   42.9930 H   0  0  0  0  0  0  0  0  0  0  0  0
   41.0830   29.8310   41.3870 H   0  0  0  0  0  0  0  0  0  0  0  0
   39.8640   27.6600   40.9910 H   0  0  0  0  0  0  0  0  0  0  0  0
   41.6180   27.4430   41.4390 H   0  0  0  0  0  0  0  0  0  0  0  0
   40.1300   25.9220   42.6130 H   0  0  0  0  0  0  0  0  0  0  0  0
   40.9580   27.0070   43.7570 H   0  0  0  0  0  0  0  0  0  0  0  0
   38.0260   26.7060   43.7500 H   0  0  0  0  0  0  0  0  0  0  0  0
   37.1580   29.2100   43.6380 N   0  0  0  0  0  0  0  0  0  0  0  0
   36.9750   29.6840   44.5530 H   0  0  0  0  0  0  0  0  0  0  0  0
   36.1770   29.2820   43.3450 H   0  0  0  0  0  0  0  0  0  0  0  0
   37.4500   30.4920   36.8860 Cl  0  0  0  0  0  0  0  0  0  0  0  0
   36.2020   29.9100   37.9210 C   0  0  0  0  0  0  0  0  0  0  0  0
   36.2570   30.1520   39.2600 C   0  0  0  0  0  0  0  0  0  0  0  0
   35.1740   29.6410   39.9420 C   0  0  0  0  0  0  0  0  0  0  0  0
   35.0500   29.7410   41.0160 H   0  0  0  0  0  0  0  0  0  0  0  0
   34.1390   28.9550   39.3470 C   0  0  0  0  0  0  0  0  0  0  0  0
   33.3160   28.5720   39.9070 H   0  0  0  0  0  0  0  0  0  0  0  0
   34.1340   28.7370   37.9930 C   0  0  0  0  0  0  0  0  0  0  0  0
   33.3180   28.1970   37.5370 H   0  0  0  0  0  0  0  0  0  0  0  0
   35.1990   29.2330   37.2780 C   0  0  0  0  0  0  0  0  0  0  0  0
   35.1980   28.9580   35.5510 Cl  0  0  0  0  0  0  0  0  0  0  0  0
  1  6  1  0  0  0  0
  2  3  1  0  0  0  0
  2  1  2  0  0  0  0
  3  4  2  0  0  0  0
  4  5  1  0  0  0  0
  5  9  1  0  0  0  0
  6  5  2  0  0  0  0
  7  1  1  0  0  0  0
  8  2  1  0  0  0  0
  9 14  1  0  0  0  0
  9 15  1  1  0  0  0
 10  9  1  0  0  0  0
 10 16  1  0  0  0  0
 11 10  1  0  0  0  0
 11 12  1  0  0  0  0
 12 13  1  0  0  0  0
 12 21  1  0  0  0  0
 13 22  1  0  0  0  0
 14 13  2  0  0  0  0
 14 23  1  0  0  0  0
 17 10  1  0  0  0  0
 18 11  1  0  0  0  0
 19 11  1  0  0  0  0
 20 12  1  0  0  0  0
 23 24  1  0  0  0  0
 25 23  1  0  0  0  0
 26 27  1  0  0  0  0
 27 28  1  0  0  0  0
 28 29  2  0  0  0  0
 28  3  1  0  0  0  0
 29 30  1  0  0  0  0
 31 32  1  0  0  0  0
 31 29  1  0  0  0  0
 33 31  2  0  0  0  0
 34 33  1  0  0  0  0
 35 27  2  0  0  0  0
 35 33  1  0  0  0  0
 36 35  1  0  0  0  0
M  END
>  <minimizedAffinity>
-6.06834126

$$$$

 OpenBabel03252505053D

 36 38  0  0  1  0  0  0  0  0999 V2000
   37.7440   31.6920   40.5170 C   0  0  0  0  0  0  0  0  0  0  0  0
   37.0900   31.5190   39.2930 C   0  0  0  0  0  0  0  0  0  0  0  0
   36.8140   30.2340   38.8540 C   0  0  0  0  0  0  0  0  0  0  0  0
   37.2160   29.2240   39.6720 N   0  0  0  0  0  0  0  0  0  0  0  0
   37.8390   29.3980   40.8370 C   0  0  0  0  0  0  0  0  0  0  0  0
   38.1110   30.6540   41.2740 N   0  0  0  0  0  0  0  0  0  0  0  0
   37.9300   32.7230   40.8030 H   0  0  0  0  0  0  0  0  0  0  0  0
   36.8170   32.3390   38.7030 H   0  0  0  0  0  0  0  0  0  0  0  0
   38.2360   28.2100   41.6320 C   0  0  2  0  0  0  0  0  0  0  0  0
   38.2880   27.0570   40.7000 C   0  0  0  0  0  0  0  0  0  0  0  0
   37.1630   26.1100   40.8040 C   0  0  0  0  0  0  0  0  0  0  0  0
   37.1340   25.6450   42.2470 C   0  0  0  0  0  0  0  0  0  0  0  0
   36.7950   26.7380   43.1660 C   0  0  0  0  0  0  0  0  0  0  0  0
   37.3910   28.0760   42.8110 C   0  0  0  0  0  0  0  0  0  0  0  0
   39.2810   28.4490   41.9920 H   0  0  0  0  0  0  0  0  0  0  0  0
   39.2260   26.4900   40.8890 H   0  0  0  0  0  0  0  0  0  0  0  0
   38.4020   27.3960   39.6290 H   0  0  0  0  0  0  0  0  0  0  0  0
   36.2040   26.6290   40.5950 H   0  0  0  0  0  0  0  0  0  0  0  0
   37.3190   25.2610   40.1360 H   0  0  0  0  0  0  0  0  0  0  0  0
   36.2620   24.9550   42.3030 H   0  0  0  0  0  0  0  0  0  0  0  0
   38.0300   25.0760   42.4730 H   0  0  0  0  0  0  0  0  0  0  0  0
   36.2030   26.7740   44.0410 H   0  0  0  0  0  0  0  0  0  0  0  0
   37.1340   29.2220   43.6190 N   0  0  0  0  0  0  0  0  0  0  0  0
   37.8410   29.5790   44.3030 H   0  0  0  0  0  0  0  0  0  0  0  0
   36.4560   29.9560   43.8570 H   0  0  0  0  0  0  0  0  0  0  0  0
   33.9320   28.9530   38.8250 Cl  0  0  0  0  0  0  0  0  0  0  0  0
   34.9380   29.2570   37.4590 C   0  0  0  0  0  0  0  0  0  0  0  0
   36.1680   29.8160   37.6280 C   0  0  0  0  0  0  0  0  0  0  0  0
   36.8530   29.9720   36.4420 C   0  0  0  0  0  0  0  0  0  0  0  0
   37.8500   30.4000   36.3870 H   0  0  0  0  0  0  0  0  0  0  0  0
   36.3600   29.6050   35.2110 C   0  0  0  0  0  0  0  0  0  0  0  0
   36.9190   29.7410   34.3120 H   0  0  0  0  0  0  0  0  0  0  0  0
   35.1130   29.0460   35.0970 C   0  0  0  0  0  0  0  0  0  0  0  0
   34.7360   28.7630   34.1260 H   0  0  0  0  0  0  0  0  0  0  0  0
   34.3990   28.8750   36.2600 C   0  0  0  0  0  0  0  0  0  0  0  0
   32.8080   28.1620   36.1200 Cl  0  0  0  0  0  0  0  0  0  0  0  0
  1  7  1  0  0  0  0
  1  6  1  0  0  0  0
  2  1  2  0  0  0  0
  3  2  1  0  0  0  0
  3  4  2  0  0  0  0
  4  5  1  0  0  0  0
  5  6  2  0  0  0  0
  5  9  1  0  0  0  0
  8  2  1  0  0  0  0
  9 15  1  1  0  0  0
  9 14  1  0  0  0  0
 10 11  1  0  0  0  0
 10 16  1  0  0  0  0
 10  9  1  0  0  0  0
 11 12  1  0  0  0  0
 12 20  1  0  0  0  0
 12 21  1  0  0  0  0
 12 13  1  0  0  0  0
 13 22  1  0  0  0  0
 14 13  2  0  0  0  0
 14 23  1  0  0  0  0
 17 10  1  0  0  0  0
 18 11  1  0  0  0  0
 19 11  1  0  0  0  0
 23 25  1  0  0  0  0
 23 24  1  0  0  0  0
 27 28  1  0  0  0  0
 27 26  1  0  0  0  0
 28  3  1  0  0  0  0
 29 28  2  0  0  0  0
 30 29  1  0  0  0  0
 31 29  1  0  0  0  0
 32 31  1  0  0  0  0
 33 31  2  0  0  0  0
 33 35  1  0  0  0  0
 34 33  1  0  0  0  0
 35 27  2  0  0  0  0
 36 35  1  0  0  0  0
M  END
>  <minimizedAffinity>
-5.90835524

$$$$

 OpenBabel03252505053D

 36 38  0  0  1  0  0  0  0  0999 V2000
   36.3680   29.5570   37.1670 C   0  0  0  0  0  0  0  0  0  0  0  0
   36.2610   28.6700   38.2430 C   0  0  0  0  0  0  0  0  0  0  0  0
   36.9150   28.9700   39.4280 C   0  0  0  0  0  0  0  0  0  0  0  0
   37.6240   30.1310   39.4420 N   0  0  0  0  0  0  0  0  0  0  0  0
   37.7200   30.9690   38.4110 C   0  0  0  0  0  0  0  0  0  0  0  0
   37.0820   30.6830   37.2490 N   0  0  0  0  0  0  0  0  0  0  0  0
   35.8330   29.2630   36.2690 H   0  0  0  0  0  0  0  0  0  0  0  0
   35.7080   27.7860   38.1650 H   0  0  0  0  0  0  0  0  0  0  0  0
   38.5370   32.2000   38.5510 C   0  0  2  0  0  0  0  0  0  0  0  0
   39.9520   31.8130   38.3270 C   0  0  0  0  0  0  0  0  0  0  0  0
   40.7870   31.7390   39.5410 C   0  0  0  0  0  0  0  0  0  0  0  0
   40.6910   33.1000   40.2030 C   0  0  0  0  0  0  0  0  0  0  0  0
   39.3330   33.3740   40.6910 C   0  0  0  0  0  0  0  0  0  0  0  0
   38.2240   32.8850   39.7970 C   0  0  0  0  0  0  0  0  0  0  0  0
   38.1920   32.8650   37.7040 H   0  0  0  0  0  0  0  0  0  0  0  0
   40.4190   32.5540   37.6400 H   0  0  0  0  0  0  0  0  0  0  0  0
   40.0300   30.8440   37.7530 H   0  0  0  0  0  0  0  0  0  0  0  0
   40.3720   30.9890   40.2460 H   0  0  0  0  0  0  0  0  0  0  0  0
   41.8220   31.5200   39.2760 H   0  0  0  0  0  0  0  0  0  0  0  0
   41.3050   33.0080   41.1270 H   0  0  0  0  0  0  0  0  0  0  0  0
   41.1440   33.8550   39.5690 H   0  0  0  0  0  0  0  0  0  0  0  0
   38.9750   33.8540   41.5620 H   0  0  0  0  0  0  0  0  0  0  0  0
   36.8590   33.0830   40.1600 N   0  0  0  0  0  0  0  0  0  0  0  0
   36.2830   33.8400   39.7270 H   0  0  0  0  0  0  0  0  0  0  0  0
   36.0840   32.7570   40.7490 H   0  0  0  0  0  0  0  0  0  0  0  0
   36.9220   25.8160   39.4410 Cl  0  0  0  0  0  0  0  0  0  0  0  0
   36.9700   26.8510   40.8170 C   0  0  0  0  0  0  0  0  0  0  0  0
   36.9580   28.2030   40.6550 C   0  0  0  0  0  0  0  0  0  0  0  0
   36.9780   28.8870   41.8520 C   0  0  0  0  0  0  0  0  0  0  0  0
   36.9710   29.9710   41.9140 H   0  0  0  0  0  0  0  0  0  0  0  0
   37.0070   28.2810   43.0880 C   0  0  0  0  0  0  0  0  0  0  0  0
   37.0210   28.8420   43.9950 H   0  0  0  0  0  0  0  0  0  0  0  0
   37.0180   26.9140   43.1940 C   0  0  0  0  0  0  0  0  0  0  0  0
   37.0410   26.4490   44.1680 H   0  0  0  0  0  0  0  0  0  0  0  0
   36.9990   26.1970   42.0200 C   0  0  0  0  0  0  0  0  0  0  0  0
   37.0140   24.4540   42.1500 Cl  0  0  0  0  0  0  0  0  0  0  0  0
  1  6  2  0  0  0  0
  1  2  1  0  0  0  0
  2  3  2  0  0  0  0
  3  4  1  0  0  0  0
  3 28  1  0  0  0  0
  5  9  1  0  0  0  0
  5  4  2  0  0  0  0
  6  5  1  0  0  0  0
  7  1  1  0  0  0  0
  8  2  1  0  0  0  0
  9 15  1  6  0  0  0
  9 14  1  0  0  0  0
 10  9  1  0  0  0  0
 10 11  1  0  0  0  0
 11 12  1  0  0  0  0
 11 18  1  0  0  0  0
 12 13  1  0  0  0  0
 12 20  1  0  0  0  0
 13 22  1  0  0  0  0
 14 23  1  0  0  0  0
 14 13  2  0  0  0  0
 16 10  1  0  0  0  0
 17 10  1  0  0  0  0
 19 11  1  0  0  0  0
 21 12  1  0  0  0  0
 23 25  1  0  0  0  0
 24 23  1  0  0  0  0
 26 27  1  0  0  0  0
 27 35  1  0  0  0  0
 28 27  2  0  0  0  0
 28 29  1  0  0  0  0
 29 30  1  0  0  0  0
 29 31  2  0  0  0  0
 31 33  1  0  0  0  0
 31 32  1  0  0  0  0
 33 34  1  0  0  0  0
 35 36  1  0  0  0  0
 35 33  2  0  0  0  0
M  END
>  <minimizedAffinity>
-5.86365652

$$$$

 OpenBabel03252505053D

 36 38  0  0  1  0  0  0  0  0999 V2000
   35.8220   27.2100   38.4160 C   0  0  0  0  0  0  0  0  0  0  0  0
   36.6190   26.6090   39.3950 C   0  0  0  0  0  0  0  0  0  0  0  0
   37.3920   27.4120   40.2190 C   0  0  0  0  0  0  0  0  0  0  0  0
   37.3090   28.7510   39.9960 N   0  0  0  0  0  0  0  0  0  0  0  0
   36.5470   29.3150   39.0600 C   0  0  0  0  0  0  0  0  0  0  0  0
   35.7860   28.5340   38.2510 N   0  0  0  0  0  0  0  0  0  0  0  0
   35.2410   26.5250   37.8060 H   0  0  0  0  0  0  0  0  0  0  0  0
   36.6480   25.5690   39.5090 H   0  0  0  0  0  0  0  0  0  0  0  0
   36.5540   30.7910   38.9100 C   0  0  2  0  0  0  0  0  0  0  0  0
   37.6210   31.1260   37.9340 C   0  0  0  0  0  0  0  0  0  0  0  0
   38.8520   31.6940   38.5140 C   0  0  0  0  0  0  0  0  0  0  0  0
   38.4240   32.9190   39.2980 C   0  0  0  0  0  0  0  0  0  0  0  0
   37.5890   32.5650   40.4520 C   0  0  0  0  0  0  0  0  0  0  0  0
   36.6170   31.4380   40.2130 C   0  0  0  0  0  0  0  0  0  0  0  0
   35.5460   31.0340   38.4610 H   0  0  0  0  0  0  0  0  0  0  0  0
   37.2170   31.8650   37.2070 H   0  0  0  0  0  0  0  0  0  0  0  0
   37.8800   30.2400   37.2850 H   0  0  0  0  0  0  0  0  0  0  0  0
   39.3050   30.9760   39.2290 H   0  0  0  0  0  0  0  0  0  0  0  0
   39.5490   31.9760   37.7230 H   0  0  0  0  0  0  0  0  0  0  0  0
   39.3650   33.3110   39.7460 H   0  0  0  0  0  0  0  0  0  0  0  0
   38.0310   33.6740   38.6240 H   0  0  0  0  0  0  0  0  0  0  0  0
   37.5350   32.9480   41.4360 H   0  0  0  0  0  0  0  0  0  0  0  0
   35.7530   30.9920   41.2560 N   0  0  0  0  0  0  0  0  0  0  0  0
   34.7450   31.2720   41.2880 H   0  0  0  0  0  0  0  0  0  0  0  0
   35.6800   30.4350   42.1140 H   0  0  0  0  0  0  0  0  0  0  0  0
   40.0900   25.8820   39.6480 Cl  0  0  0  0  0  0  0  0  0  0  0  0
   39.4840   26.3600   41.1870 C   0  0  0  0  0  0  0  0  0  0  0  0
   38.2950   27.0160   41.2790 C   0  0  0  0  0  0  0  0  0  0  0  0
   37.9420   27.3070   42.5790 C   0  0  0  0  0  0  0  0  0  0  0  0
   37.0240   27.8260   42.8420 H   0  0  0  0  0  0  0  0  0  0  0  0
   38.7010   26.9760   43.6790 C   0  0  0  0  0  0  0  0  0  0  0  0
   38.3960   27.2170   44.6720 H   0  0  0  0  0  0  0  0  0  0  0  0
   39.8930   26.3150   43.5300 C   0  0  0  0  0  0  0  0  0  0  0  0
   40.4810   26.0610   44.3990 H   0  0  0  0  0  0  0  0  0  0  0  0
   40.2790   26.0080   42.2460 C   0  0  0  0  0  0  0  0  0  0  0  0
   41.7980   25.1650   42.0500 Cl  0  0  0  0  0  0  0  0  0  0  0  0
  1  2  1  0  0  0  0
  2  8  1  0  0  0  0
  2  3  2  0  0  0  0
  3 28  1  0  0  0  0
  4  3  1  0  0  0  0
  5  4  2  0  0  0  0
  6  1  2  0  0  0  0
  6  5  1  0  0  0  0
  7  1  1  0  0  0  0
  9 15  1  6  0  0  0
  9  5  1  0  0  0  0
  9 14  1  0  0  0  0
 10 11  1  0  0  0  0
 10  9  1  0  0  0  0
 11 18  1  0  0  0  0
 11 12  1  0  0  0  0
 12 20  1  0  0  0  0
 12 13  1  0  0  0  0
 13 22  1  0  0  0  0
 14 13  2  0  0  0  0
 14 23  1  0  0  0  0
 16 10  1  0  0  0  0
 17 10  1  0  0  0  0
 19 11  1  0  0  0  0
 21 12  1  0  0  0  0
 23 24  1  0  0  0  0
 23 25  1  0  0  0  0
 26 27  1  0  0  0  0
 27 28  2  0  0  0  0
 27 35  1  0  0  0  0
 28 29  1  0  0  0  0
 29 30  1  0  0  0  0
 29 31  2  0  0  0  0
 31 32  1  0  0  0  0
 33 31  1  0  0  0  0
 33 34  1  0  0  0  0
 35 33  2  0  0  0  0
 36 35  1  0  0  0  0
M  END
>  <minimizedAffinity>
-5.79279375

$$$$

 OpenBabel03252505053D

 36 38  0  0  1  0  0  0  0  0999 V2000
   36.1750   29.1250   37.6640 C   0  0  0  0  0  0  0  0  0  0  0  0
   36.3720   28.3820   38.8320 C   0  0  0  0  0  0  0  0  0  0  0  0
   37.1610   28.9120   39.8410 C   0  0  0  0  0  0  0  0  0  0  0  0
   37.6900   30.1420   39.6010 N   0  0  0  0  0  0  0  0  0  0  0  0
   37.4970   30.8430   38.4840 C   0  0  0  0  0  0  0  0  0  0  0  0
   36.7250   30.3300   37.4930 N   0  0  0  0  0  0  0  0  0  0  0  0
   35.5470   28.6520   36.9140 H   0  0  0  0  0  0  0  0  0  0  0  0
   35.9450   27.4340   38.9510 H   0  0  0  0  0  0  0  0  0  0  0  0
   38.1420   32.1710   38.3390 C   0  0  2  0  0  0  0  0  0  0  0  0
   39.4850   31.9420   37.7510 C   0  0  0  0  0  0  0  0  0  0  0  0
   40.6160   32.0680   38.6880 C   0  0  0  0  0  0  0  0  0  0  0  0
   40.5130   33.4540   39.2920 C   0  0  0  0  0  0  0  0  0  0  0  0
   39.3120   33.5990   40.1240 C   0  0  0  0  0  0  0  0  0  0  0  0
   38.0830   32.9090   39.5930 C   0  0  0  0  0  0  0  0  0  0  0  0
   37.4940   32.7190   37.5940 H   0  0  0  0  0  0  0  0  0  0  0  0
   39.6430   32.6780   36.9310 H   0  0  0  0  0  0  0  0  0  0  0  0
   39.5390   30.9480   37.2190 H   0  0  0  0  0  0  0  0  0  0  0  0
   40.5140   31.3300   39.5120 H   0  0  0  0  0  0  0  0  0  0  0  0
   41.5630   31.9550   38.1580 H   0  0  0  0  0  0  0  0  0  0  0  0
   41.3590   33.5110   40.0140 H   0  0  0  0  0  0  0  0  0  0  0  0
   40.6710   34.2070   38.5260 H   0  0  0  0  0  0  0  0  0  0  0  0
   39.1370   34.0990   41.0400 H   0  0  0  0  0  0  0  0  0  0  0  0
   36.8510   32.9670   40.3110 N   0  0  0  0  0  0  0  0  0  0  0  0
   36.0800   33.6120   40.0210 H   0  0  0  0  0  0  0  0  0  0  0  0
   36.3160   32.5970   41.1040 H   0  0  0  0  0  0  0  0  0  0  0  0
   40.1180   28.0720   40.5460 Cl  0  0  0  0  0  0  0  0  0  0  0  0
   38.7340   27.9190   41.5610 C   0  0  0  0  0  0  0  0  0  0  0  0
   37.5130   28.3250   41.1160 C   0  0  0  0  0  0  0  0  0  0  0  0
   36.5100   28.1140   42.0370 C   0  0  0  0  0  0  0  0  0  0  0  0
   35.4720   28.3760   41.8520 H   0  0  0  0  0  0  0  0  0  0  0  0
   36.7060   27.5530   43.2790 C   0  0  0  0  0  0  0  0  0  0  0  0
   35.9040   27.4050   43.9680 H   0  0  0  0  0  0  0  0  0  0  0  0
   37.9580   27.1630   43.6780 C   0  0  0  0  0  0  0  0  0  0  0  0
   38.1010   26.7250   44.6540 H   0  0  0  0  0  0  0  0  0  0  0  0
   38.9850   27.3580   42.7850 C   0  0  0  0  0  0  0  0  0  0  0  0
   40.5840   26.8610   43.2880 Cl  0  0  0  0  0  0  0  0  0  0  0  0
  1  2  1  0  0  0  0
  2  8  1  0  0  0  0
  2  3  2  0  0  0  0
  3 28  1  0  0  0  0
  4  3  1  0  0  0  0
  5  4  2  0  0  0  0
  6  1  2  0  0  0  0
  6  5  1  0  0  0  0
  7  1  1  0  0  0  0
  9 15  1  6  0  0  0
  9  5  1  0  0  0  0
  9 14  1  0  0  0  0
 10  9  1  0  0  0  0
 10 11  1  0  0  0  0
 11 12  1  0  0  0  0
 11 18  1  0  0  0  0
 12 20  1  0  0  0  0
 12 13  1  0  0  0  0
 13 22  1  0  0  0  0
 14 13  2  0  0  0  0
 14 23  1  0  0  0  0
 16 10  1  0  0  0  0
 17 10  1  0  0  0  0
 19 11  1  0  0  0  0
 21 12  1  0  0  0  0
 23 25  1  0  0  0  0
 24 23  1  0  0  0  0
 26 27  1  0  0  0  0
 27 35  1  0  0  0  0
 28 27  2  0  0  0  0
 28 29  1  0  0  0  0
 29 31  2  0  0  0  0
 30 29  1  0  0  0  0
 31 33  1  0  0  0  0
 31 32  1  0  0  0  0
 33 34  1  0  0  0  0
 35 36  1  0  0  0  0
 35 33  2  0  0  0  0
M  END
>  <minimizedAffinity>
-5.77591276

$$$$

 OpenBabel03252505053D

 36 38  0  0  1  0  0  0  0  0999 V2000
   35.7270   28.9740   38.6140 C   0  0  0  0  0  0  0  0  0  0  0  0
   36.4570   30.1620   38.5070 C   0  0  0  0  0  0  0  0  0  0  0  0
   37.2940   30.5330   39.5470 C   0  0  0  0  0  0  0  0  0  0  0  0
   37.3340   29.6870   40.6120 N   0  0  0  0  0  0  0  0  0  0  0  0
   36.6340   28.5570   40.7060 C   0  0  0  0  0  0  0  0  0  0  0  0
   35.8140   28.1880   39.6900 N   0  0  0  0  0  0  0  0  0  0  0  0
   35.0910   28.7420   37.7650 H   0  0  0  0  0  0  0  0  0  0  0  0
   36.3740   30.7760   37.6640 H   0  0  0  0  0  0  0  0  0  0  0  0
   36.7570   27.7270   41.9290 C   0  0  2  0  0  0  0  0  0  0  0  0
   37.3320   28.5920   42.9890 C   0  0  0  0  0  0  0  0  0  0  0  0
   38.7520   28.3470   43.3030 C   0  0  0  0  0  0  0  0  0  0  0  0
   38.8550   26.8820   43.6780 C   0  0  0  0  0  0  0  0  0  0  0  0
   38.5620   26.0050   42.5380 C   0  0  0  0  0  0  0  0  0  0  0  0
   37.4520   26.4820   41.6370 C   0  0  0  0  0  0  0  0  0  0  0  0
   35.6910   27.4630   42.1980 H   0  0  0  0  0  0  0  0  0  0  0  0
   36.7480   28.4430   43.9240 H   0  0  0  0  0  0  0  0  0  0  0  0
   37.1760   29.6860   42.7590 H   0  0  0  0  0  0  0  0  0  0  0  0
   39.3770   28.5120   42.4000 H   0  0  0  0  0  0  0  0  0  0  0  0
   39.0690   28.9750   44.1370 H   0  0  0  0  0  0  0  0  0  0  0  0
   39.9370   26.7190   43.8820 H   0  0  0  0  0  0  0  0  0  0  0  0
   38.3060   26.6920   44.5950 H   0  0  0  0  0  0  0  0  0  0  0  0
   38.9840   25.0900   42.2170 H   0  0  0  0  0  0  0  0  0  0  0  0
   37.0740   25.7240   40.4890 N   0  0  0  0  0  0  0  0  0  0  0  0
   36.2210   25.1180   40.4920 H   0  0  0  0  0  0  0  0  0  0  0  0
   37.3100   25.4780   39.5210 H   0  0  0  0  0  0  0  0  0  0  0  0
   40.4390   30.4000   39.3470 Cl  0  0  0  0  0  0  0  0  0  0  0  0
   39.4820   31.8100   39.5940 C   0  0  0  0  0  0  0  0  0  0  0  0
   38.1250   31.7120   39.6630 C   0  0  0  0  0  0  0  0  0  0  0  0
   37.5110   32.9250   39.8870 C   0  0  0  0  0  0  0  0  0  0  0  0
   36.4330   33.0360   39.9710 H   0  0  0  0  0  0  0  0  0  0  0  0
   38.1830   34.1180   40.0280 C   0  0  0  0  0  0  0  0  0  0  0  0
   37.6730   35.0390   40.2010 H   0  0  0  0  0  0  0  0  0  0  0  0
   39.5510   34.1610   39.9500 C   0  0  0  0  0  0  0  0  0  0  0  0
   40.0680   35.1020   40.0620 H   0  0  0  0  0  0  0  0  0  0  0  0
   40.2000   32.9690   39.7270 C   0  0  0  0  0  0  0  0  0  0  0  0
   41.9450   33.0180   39.6260 Cl  0  0  0  0  0  0  0  0  0  0  0  0
  1  6  1  0  0  0  0
  2  1  2  0  0  0  0
  2  3  1  0  0  0  0
  3 28  1  0  0  0  0
  3  4  2  0  0  0  0
  4  5  1  0  0  0  0
  5  9  1  0  0  0  0
  6  5  2  0  0  0  0
  7  1  1  0  0  0  0
  8  2  1  0  0  0  0
  9 15  1  1  0  0  0
  9 10  1  0  0  0  0
 10 11  1  0  0  0  0
 10 16  1  0  0  0  0
 11 12  1  0  0  0  0
 11 19  1  0  0  0  0
 12 20  1  0  0  0  0
 12 21  1  0  0  0  0
 13 12  1  0  0  0  0
 14  9  1  0  0  0  0
 14 13  2  0  0  0  0
 17 10  1  0  0  0  0
 18 11  1  0  0  0  0
 22 13  1  0  0  0  0
 23 24  1  0  0  0  0
 23 14  1  0  0  0  0
 25 23  1  0  0  0  0
 26 27  1  0  0  0  0
 27 28  2  0  0  0  0
 27 35  1  0  0  0  0
 28 29  1  0  0  0  0
 29 30  1  0  0  0  0
 29 31  2  0  0  0  0
 31 32  1  0  0  0  0
 33 31  1  0  0  0  0
 33 34  1  0  0  0  0
 35 33  2  0  0  0  0
 36 35  1  0  0  0  0
M  END
>  <minimizedAffinity>
-5.74418926

$$$$

 OpenBabel03252505053D

 36 38  0  0  1  0  0  0  0  0999 V2000
   35.3390   28.6060   37.0820 C   0  0  0  0  0  0  0  0  0  0  0  0
   35.5970   27.5450   37.9560 C   0  0  0  0  0  0  0  0  0  0  0  0
   36.3280   27.7860   39.1090 C   0  0  0  0  0  0  0  0  0  0  0  0
   36.7430   29.0680   39.2950 N   0  0  0  0  0  0  0  0  0  0  0  0
   36.4920   30.0730   38.4570 C   0  0  0  0  0  0  0  0  0  0  0  0
   35.7760   29.8430   37.3270 N   0  0  0  0  0  0  0  0  0  0  0  0
   34.7620   28.3490   36.1990 H   0  0  0  0  0  0  0  0  0  0  0  0
   35.2590   26.5760   37.7500 H   0  0  0  0  0  0  0  0  0  0  0  0
   37.0130   31.4260   38.7690 C   0  0  2  0  0  0  0  0  0  0  0  0
   38.2720   31.5970   38.0030 C   0  0  0  0  0  0  0  0  0  0  0  0
   39.5120   31.5000   38.7940 C   0  0  0  0  0  0  0  0  0  0  0  0
   39.3960   32.5380   39.8930 C   0  0  0  0  0  0  0  0  0  0  0  0
   38.3170   32.2160   40.8360 C   0  0  0  0  0  0  0  0  0  0  0  0
   37.0780   31.6310   40.2090 C   0  0  0  0  0  0  0  0  0  0  0  0
   36.2280   32.1310   38.3630 H   0  0  0  0  0  0  0  0  0  0  0  0
   38.2590   32.5990   37.5180 H   0  0  0  0  0  0  0  0  0  0  0  0
   38.3230   30.8880   37.1270 H   0  0  0  0  0  0  0  0  0  0  0  0
   39.5810   30.5020   39.2760 H   0  0  0  0  0  0  0  0  0  0  0  0
   40.3810   31.7080   38.1670 H   0  0  0  0  0  0  0  0  0  0  0  0
   40.3290   32.4230   40.4890 H   0  0  0  0  0  0  0  0  0  0  0  0
   39.3890   33.5350   39.4640 H   0  0  0  0  0  0  0  0  0  0  0  0
   38.2370   32.3140   41.8850 H   0  0  0  0  0  0  0  0  0  0  0  0
   35.9600   31.2690   41.0160 N   0  0  0  0  0  0  0  0  0  0  0  0
   35.1110   31.8770   41.0790 H   0  0  0  0  0  0  0  0  0  0  0  0
   35.5690   30.5680   41.6560 H   0  0  0  0  0  0  0  0  0  0  0  0
   37.1050   24.7990   38.4620 Cl  0  0  0  0  0  0  0  0  0  0  0  0
   37.0880   25.5450   40.0140 C   0  0  0  0  0  0  0  0  0  0  0  0
   36.7250   26.8510   40.1400 C   0  0  0  0  0  0  0  0  0  0  0  0
   36.7420   27.2880   41.4470 C   0  0  0  0  0  0  0  0  0  0  0  0
   36.4800   28.3020   41.7350 H   0  0  0  0  0  0  0  0  0  0  0  0
   37.0870   26.5000   42.5220 C   0  0  0  0  0  0  0  0  0  0  0  0
   37.0880   26.8730   43.5210 H   0  0  0  0  0  0  0  0  0  0  0  0
   37.4460   25.1900   42.3380 C   0  0  0  0  0  0  0  0  0  0  0  0
   37.7150   24.5800   43.1880 H   0  0  0  0  0  0  0  0  0  0  0  0
   37.4410   24.7170   41.0470 C   0  0  0  0  0  0  0  0  0  0  0  0
   37.8980   23.0460   40.8070 Cl  0  0  0  0  0  0  0  0  0  0  0  0
  1  6  2  0  0  0  0
  1  2  1  0  0  0  0
  2  3  2  0  0  0  0
  3  4  1  0  0  0  0
  3 28  1  0  0  0  0
  5  9  1  0  0  0  0
  5  4  2  0  0  0  0
  6  5  1  0  0  0  0
  7  1  1  0  0  0  0
  8  2  1  0  0  0  0
  9 15  1  6  0  0  0
  9 14  1  0  0  0  0
 10  9  1  0  0  0  0
 10 11  1  0  0  0  0
 11 18  1  0  0  0  0
 11 12  1  0  0  0  0
 12 20  1  0  0  0  0
 12 13  1  0  0  0  0
 13 22  1  0  0  0  0
 14 13  2  0  0  0  0
 14 23  1  0  0  0  0
 16 10  1  0  0  0  0
 17 10  1  0  0  0  0
 19 11  1  0  0  0  0
 21 12  1  0  0  0  0
 23 24  1  0  0  0  0
 23 25  1  0  0  0  0
 26 27  1  0  0  0  0
 27 28  2  0  0  0  0
 27 35  1  0  0  0  0
 28 29  1  0  0  0  0
 29 30  1  0  0  0  0
 29 31  2  0  0  0  0
 31 32  1  0  0  0  0
 33 31  1  0  0  0  0
 33 34  1  0  0  0  0
 35 33  2  0  0  0  0
 36 35  1  0  0  0  0
M  END
>  <minimizedAffinity>
-5.74009275

$$$$

 OpenBabel03252505053D

 36 38  0  0  1  0  0  0  0  0999 V2000
   37.3930   27.6030   43.6790 C   0  0  0  0  0  0  0  0  0  0  0  0
   37.7020   28.9280   43.3540 C   0  0  0  0  0  0  0  0  0  0  0  0
   38.2060   29.2100   42.0940 C   0  0  0  0  0  0  0  0  0  0  0  0
   38.3610   28.1460   41.2610 N   0  0  0  0  0  0  0  0  0  0  0  0
   38.0640   26.8870   41.5800 C   0  0  0  0  0  0  0  0  0  0  0  0
   37.5690   26.6040   42.8120 N   0  0  0  0  0  0  0  0  0  0  0  0
   37.0030   27.4510   44.6810 H   0  0  0  0  0  0  0  0  0  0  0  0
   37.5700   29.7020   44.0450 H   0  0  0  0  0  0  0  0  0  0  0  0
   38.2920   25.8120   40.5830 C   0  0  2  0  0  0  0  0  0  0  0  0
   36.9920   25.5510   39.9160 C   0  0  0  0  0  0  0  0  0  0  0  0
   36.3070   24.3130   40.3300 C   0  0  0  0  0  0  0  0  0  0  0  0
   37.2860   23.1830   40.0800 C   0  0  0  0  0  0  0  0  0  0  0  0
   38.4620   23.2770   40.9540 C   0  0  0  0  0  0  0  0  0  0  0  0
   38.9640   24.6760   41.1990 C   0  0  0  0  0  0  0  0  0  0  0  0
   39.0110   26.2660   39.8390 H   0  0  0  0  0  0  0  0  0  0  0  0
   37.1630   25.4920   38.8180 H   0  0  0  0  0  0  0  0  0  0  0  0
   36.2900   26.4290   40.0210 H   0  0  0  0  0  0  0  0  0  0  0  0
   36.0920   24.3410   41.4190 H   0  0  0  0  0  0  0  0  0  0  0  0
   35.4000   24.1660   39.7410 H   0  0  0  0  0  0  0  0  0  0  0  0
   36.7550   22.2680   40.4260 H   0  0  0  0  0  0  0  0  0  0  0  0
   37.4750   23.0830   39.0160 H   0  0  0  0  0  0  0  0  0  0  0  0
   39.0350   22.5440   41.4560 H   0  0  0  0  0  0  0  0  0  0  0  0
   40.0960   24.9050   42.0360 N   0  0  0  0  0  0  0  0  0  0  0  0
   41.0410   25.1050   41.6340 H   0  0  0  0  0  0  0  0  0  0  0  0
   40.4350   24.9660   43.0020 H   0  0  0  0  0  0  0  0  0  0  0  0
   36.1780   31.1090   40.6010 Cl  0  0  0  0  0  0  0  0  0  0  0  0
   37.8500   31.4080   40.8850 C   0  0  0  0  0  0  0  0  0  0  0  0
   38.6060   30.4890   41.5460 C   0  0  0  0  0  0  0  0  0  0  0  0
   39.9250   30.8680   41.6700 C   0  0  0  0  0  0  0  0  0  0  0  0
   40.6730   30.2570   42.1670 H   0  0  0  0  0  0  0  0  0  0  0  0
   40.4390   32.0490   41.1830 C   0  0  0  0  0  0  0  0  0  0  0  0
   41.4670   32.3110   41.2980 H   0  0  0  0  0  0  0  0  0  0  0  0
   39.6330   32.9420   40.5260 C   0  0  0  0  0  0  0  0  0  0  0  0
   40.0460   33.8650   40.1480 H   0  0  0  0  0  0  0  0  0  0  0  0
   38.3090   32.5970   40.3820 C   0  0  0  0  0  0  0  0  0  0  0  0
   37.2760   33.7320   39.5430 Cl  0  0  0  0  0  0  0  0  0  0  0  0
  1  7  1  0  0  0  0
  2  1  1  0  0  0  0
  2  8  1  0  0  0  0
  3  2  2  0  0  0  0
  4  5  2  0  0  0  0
  4  3  1  0  0  0  0
  5  6  1  0  0  0  0
  6  1  2  0  0  0  0
  9 15  1  6  0  0  0
  9 14  1  0  0  0  0
  9  5  1  0  0  0  0
 10 17  1  0  0  0  0
 10 11  1  0  0  0  0
 10  9  1  0  0  0  0
 11 18  1  0  0  0  0
 12 11  1  0  0  0  0
 12 20  1  0  0  0  0
 12 13  1  0  0  0  0
 13 14  2  0  0  0  0
 13 22  1  0  0  0  0
 14 23  1  0  0  0  0
 16 10  1  0  0  0  0
 19 11  1  0  0  0  0
 21 12  1  0  0  0  0
 23 25  1  0  0  0  0
 24 23  1  0  0  0  0
 26 27  1  0  0  0  0
 27 28  1  0  0  0  0
 28 29  2  0  0  0  0
 28  3  1  0  0  0  0
 29 30  1  0  0  0  0
 31 32  1  0  0  0  0
 31 29  1  0  0  0  0
 33 31  2  0  0  0  0
 34 33  1  0  0  0  0
 35 33  1  0  0  0  0
 35 27  2  0  0  0  0
 36 35  1  0  0  0  0
M  END
>  <minimizedAffinity>
-5.66036701

$$$$
