
 OpenBabel03252506463D

 44 47  0  0  1  0  0  0  0  0999 V2000
   49.4210   33.3660   41.3720 N   0  0  1  0  0  0  0  0  0  0  0  0
   50.6740   33.0810   42.0190 C   0  0  0  0  0  0  0  0  0  0  0  0
   51.2600   31.7580   41.6360 C   0  0  0  0  0  0  0  0  0  0  0  0
   50.3670   30.6540   42.1640 C   0  0  0  0  0  0  0  0  0  0  0  0
   48.9090   31.0480   42.0460 C   0  0  0  0  0  0  0  0  0  0  0  0
   48.7590   32.1430   41.0030 C   0  0  2  0  0  0  0  0  0  0  0  0
   51.3900   33.8600   41.6570 H   0  0  0  0  0  0  0  0  0  0  0  0
   50.6140   33.1410   43.1200 H   0  0  0  0  0  0  0  0  0  0  0  0
   52.2090   31.6680   42.2100 H   0  0  0  0  0  0  0  0  0  0  0  0
   51.5250   31.6620   40.5830 H   0  0  0  0  0  0  0  0  0  0  0  0
   50.5310   29.7810   41.5050 H   0  0  0  0  0  0  0  0  0  0  0  0
   50.6330   30.3410   43.1900 H   0  0  0  0  0  0  0  0  0  0  0  0
   48.5090   31.4640   42.9930 H   0  0  0  0  0  0  0  0  0  0  0  0
   48.2910   30.1960   41.7050 H   0  0  0  0  0  0  0  0  0  0  0  0
   47.6700   32.3670   40.9440 H   0  0  0  0  0  0  0  0  0  0  0  0
   47.2700   34.6830   41.9500 C   0  0  1  0  0  0  0  0  0  0  0  0
   48.4220   35.5980   41.7600 C   0  0  0  0  0  0  0  0  0  0  0  0
   48.6550   34.2130   42.2110 C   0  0  2  0  0  0  0  0  0  0  0  0
   46.7530   34.3130   41.0500 H   0  0  0  0  0  0  0  0  0  0  0  0
   48.6550   35.8800   40.7180 H   0  0  0  0  0  0  0  0  0  0  0  0
   48.4830   36.4730   42.4510 H   0  0  0  0  0  0  0  0  0  0  0  0
   48.9050   34.1230   43.3070 H   0  0  0  0  0  0  0  0  0  0  0  0
   45.5320   36.0540   43.1370 C   0  0  0  0  0  0  0  0  0  0  0  0
   46.3480   34.9030   43.0850 C   0  0  0  0  0  0  0  0  0  0  0  0
   46.2480   33.9780   44.1360 C   0  0  0  0  0  0  0  0  0  0  0  0
   45.3760   34.2410   45.1420 N   0  0  0  0  0  0  0  0  0  0  0  0
   44.6130   35.3510   45.1600 C   0  0  0  0  0  0  0  0  0  0  0  0
   44.6800   36.2700   44.1610 N   0  0  0  0  0  0  0  0  0  0  0  0
   45.5890   36.7800   42.3430 H   0  0  0  0  0  0  0  0  0  0  0  0
   46.8590   33.0920   44.1200 H   0  0  0  0  0  0  0  0  0  0  0  0
   43.9850   35.3730   46.0480 H   0  0  0  0  0  0  0  0  0  0  0  0
   49.1430   31.6250   39.7290 N   0  0  0  0  0  0  0  0  0  0  0  0
   49.9540   30.9360   39.6770 H   0  0  0  0  0  0  0  0  0  0  0  0
   47.5210   29.4190   38.4120 Cl  0  0  0  0  0  0  0  0  0  0  0  0
   47.8870   30.9500   37.6450 C   0  0  0  0  0  0  0  0  0  0  0  0
   48.6470   31.8380   38.4160 C   0  0  0  0  0  0  0  0  0  0  0  0
   48.9360   33.0510   37.8070 C   0  0  0  0  0  0  0  0  0  0  0  0
   49.5110   33.7760   38.3280 H   0  0  0  0  0  0  0  0  0  0  0  0
   48.5420   33.4290   36.5390 C   0  0  0  0  0  0  0  0  0  0  0  0
   48.7940   34.3790   36.1180 H   0  0  0  0  0  0  0  0  0  0  0  0
   47.7920   32.5260   35.8040 C   0  0  0  0  0  0  0  0  0  0  0  0
   47.4380   32.7300   34.8060 H   0  0  0  0  0  0  0  0  0  0  0  0
   47.4860   31.3120   36.3800 C   0  0  0  0  0  0  0  0  0  0  0  0
   46.5460   30.0660   35.5760 Cl  0  0  0  0  0  0  0  0  0  0  0  0
  1  2  1  1  0  0  0
  1 18  1  0  0  0  0
  2  8  1  0  0  0  0
  3  2  1  0  0  0  0
  3  4  1  0  0  0  0
  3  9  1  0  0  0  0
  4 12  1  0  0  0  0
  5  4  1  0  0  0  0
  5 13  1  0  0  0  0
  6 15  1  6  0  0  0
  6  1  1  0  0  0  0
  6  5  1  0  0  0  0
  7  2  1  0  0  0  0
 10  3  1  0  0  0  0
 11  4  1  0  0  0  0
 14  5  1  0  0  0  0
 16 19  1  6  0  0  0
 16 18  1  0  0  0  0
 16 24  1  0  0  0  0
 17 16  1  0  0  0  0
 17 18  1  0  0  0  0
 17 21  1  0  0  0  0
 18 22  1  1  0  0  0
 20 17  1  0  0  0  0
 23 28  1  0  0  0  0
 24 23  2  0  0  0  0
 24 25  1  0  0  0  0
 25 26  2  0  0  0  0
 26 27  1  0  0  0  0
 27 31  1  0  0  0  0
 28 27  2  0  0  0  0
 29 23  1  0  0  0  0
 30 25  1  0  0  0  0
 32  6  1  0  0  0  0
 33 32  1  0  0  0  0
 35 34  1  0  0  0  0
 35 36  1  0  0  0  0
 36 32  1  0  0  0  0
 37 38  1  0  0  0  0
 37 36  2  0  0  0  0
 39 37  1  0  0  0  0
 40 39  1  0  0  0  0
 41 43  1  0  0  0  0
 41 39  2  0  0  0  0
 42 41  1  0  0  0  0
 43 35  2  0  0  0  0
 44 43  1  0  0  0  0
M  END
>  <minimizedAffinity>
-5.22604847

>  <minimizedRMSD>
0.436966807

$$$$
