
 OpenBabel03252502253D

 36 38  0  0  1  0  0  0  0  0999 V2000
   37.1230   30.6900   39.5420 N   0  0  0  0  0  0  0  0  0  0  0  0
   37.0160   29.9220   38.3000 C   0  0  0  0  0  0  0  0  0  0  0  0
   35.4970   29.6610   38.1860 C   0  0  0  0  0  0  0  0  0  0  0  0
   35.0760   28.7360   39.2890 C   0  0  0  0  0  0  0  0  0  0  0  0
   35.6580   29.0620   40.6170 C   0  0  0  0  0  0  0  0  0  0  0  0
   36.3610   30.3860   40.7340 C   0  0  1  0  0  0  0  0  0  0  0  0
   37.5370   28.9580   38.3450 H   0  0  0  0  0  0  0  0  0  0  0  0
   37.3050   30.5670   37.4600 H   0  0  0  0  0  0  0  0  0  0  0  0
   35.3460   29.1870   37.2050 H   0  0  0  0  0  0  0  0  0  0  0  0
   35.0020   30.6540   38.2460 H   0  0  0  0  0  0  0  0  0  0  0  0
   33.9580   28.7360   39.2820 H   0  0  0  0  0  0  0  0  0  0  0  0
   35.3730   27.7100   38.9830 H   0  0  0  0  0  0  0  0  0  0  0  0
   36.3770   28.2670   40.9410 H   0  0  0  0  0  0  0  0  0  0  0  0
   34.8440   29.0520   41.3720 H   0  0  0  0  0  0  0  0  0  0  0  0
   35.5670   31.1560   40.7740 H   0  0  0  0  0  0  0  0  0  0  0  0
   40.1310   32.8940   39.1750 C   0  0  0  0  0  0  0  0  0  0  0  0
   39.3250   31.7450   39.0540 C   0  0  0  0  0  0  0  0  0  0  0  0
   38.0180   31.8050   39.6120 C   0  0  0  0  0  0  0  0  0  0  0  0
   37.6500   32.9620   40.2140 N   0  0  0  0  0  0  0  0  0  0  0  0
   38.4530   34.0400   40.3080 C   0  0  0  0  0  0  0  0  0  0  0  0
   39.7010   34.0020   39.7830 N   0  0  0  0  0  0  0  0  0  0  0  0
   41.1370   32.8720   38.7560 H   0  0  0  0  0  0  0  0  0  0  0  0
   39.6470   30.8490   38.5740 H   0  0  0  0  0  0  0  0  0  0  0  0
   38.0010   34.8980   40.8260 H   0  0  0  0  0  0  0  0  0  0  0  0
   37.2060   30.3460   41.8050 O   0  0  0  0  0  0  0  0  0  0  0  0
   36.9120   27.4260   42.8360 Cl  0  0  0  0  0  0  0  0  0  0  0  0
   38.3860   28.3190   42.7090 C   0  0  0  0  0  0  0  0  0  0  0  0
   38.2320   29.5970   42.2190 C   0  0  0  0  0  0  0  0  0  0  0  0
   39.4260   30.3320   42.1140 C   0  0  0  0  0  0  0  0  0  0  0  0
   39.5510   31.3670   41.7520 H   0  0  0  0  0  0  0  0  0  0  0  0
   40.6590   29.7940   42.4800 C   0  0  0  0  0  0  0  0  0  0  0  0
   41.6020   30.3160   42.4180 H   0  0  0  0  0  0  0  0  0  0  0  0
   40.7030   28.5220   42.9530 C   0  0  0  0  0  0  0  0  0  0  0  0
   41.6390   28.0540   43.2520 H   0  0  0  0  0  0  0  0  0  0  0  0
   39.5760   27.7480   43.0820 C   0  0  0  0  0  0  0  0  0  0  0  0
   39.5520   26.1080   43.6800 Cl  0  0  0  0  0  0  0  0  0  0  0  0
  1 18  1  0  0  0  0
  1  6  1  0  0  0  0
  2  7  1  0  0  0  0
  2  1  1  0  0  0  0
  3 10  1  0  0  0  0
  3  2  1  0  0  0  0
  3  4  1  0  0  0  0
  4  5  1  0  0  0  0
  5  6  1  0  0  0  0
  5 13  1  0  0  0  0
  5 14  1  0  0  0  0
  6 15  1  1  0  0  0
  6 25  1  0  0  0  0
  8  2  1  0  0  0  0
  9  3  1  0  0  0  0
 11  4  1  0  0  0  0
 12  4  1  0  0  0  0
 16 21  1  0  0  0  0
 17 16  2  0  0  0  0
 17 18  1  0  0  0  0
 18 19  2  0  0  0  0
 19 20  1  0  0  0  0
 20 24  1  0  0  0  0
 21 20  2  0  0  0  0
 22 16  1  0  0  0  0
 23 17  1  0  0  0  0
 25 28  1  0  0  0  0
 27 26  1  0  0  0  0
 27 35  1  0  0  0  0
 28 27  2  0  0  0  0
 29 28  1  0  0  0  0
 29 31  2  0  0  0  0
 30 29  1  0  0  0  0
 31 33  1  0  0  0  0
 32 31  1  0  0  0  0
 33 35  2  0  0  0  0
 33 34  1  0  0  0  0
 35 36  1  0  0  0  0
M  END
>  <minimizedAffinity>
-5.6542511

$$$$

 OpenBabel03252502253D

 36 38  0  0  1  0  0  0  0  0999 V2000
   36.7570   28.2220   41.0020 N   0  0  0  0  0  0  0  0  0  0  0  0
   36.9550   26.9240   41.6500 C   0  0  0  0  0  0  0  0  0  0  0  0
   36.6420   27.2280   43.1320 C   0  0  0  0  0  0  0  0  0  0  0  0
   37.7040   28.1370   43.6790 C   0  0  0  0  0  0  0  0  0  0  0  0
   38.0800   29.2530   42.7730 C   0  0  0  0  0  0  0  0  0  0  0  0
   37.1940   29.4740   41.5780 C   0  0  1  0  0  0  0  0  0  0  0  0
   37.9850   26.5580   41.5750 H   0  0  0  0  0  0  0  0  0  0  0  0
   36.1880   26.2270   41.2870 H   0  0  0  0  0  0  0  0  0  0  0  0
   36.6610   26.2580   43.6490 H   0  0  0  0  0  0  0  0  0  0  0  0
   35.6320   27.6880   43.1530 H   0  0  0  0  0  0  0  0  0  0  0  0
   37.3340   28.4800   44.6760 H   0  0  0  0  0  0  0  0  0  0  0  0
   38.5920   27.5040   43.8960 H   0  0  0  0  0  0  0  0  0  0  0  0
   39.1270   29.1230   42.3980 H   0  0  0  0  0  0  0  0  0  0  0  0
   38.0880   30.1970   43.3580 H   0  0  0  0  0  0  0  0  0  0  0  0
   36.2730   29.9540   41.9610 H   0  0  0  0  0  0  0  0  0  0  0  0
   34.2900   28.9690   38.2810 C   0  0  0  0  0  0  0  0  0  0  0  0
   34.8580   28.9610   39.5700 C   0  0  0  0  0  0  0  0  0  0  0  0
   36.1000   28.2870   39.7310 C   0  0  0  0  0  0  0  0  0  0  0  0
   36.6400   27.7060   38.6330 N   0  0  0  0  0  0  0  0  0  0  0  0
   36.0640   27.7370   37.4150 C   0  0  0  0  0  0  0  0  0  0  0  0
   34.8810   28.3740   37.2420 N   0  0  0  0  0  0  0  0  0  0  0  0
   33.3390   29.4790   38.1320 H   0  0  0  0  0  0  0  0  0  0  0  0
   34.4050   29.4280   40.4140 H   0  0  0  0  0  0  0  0  0  0  0  0
   36.6330   27.2180   36.6310 H   0  0  0  0  0  0  0  0  0  0  0  0
   37.8860   30.1800   40.6380 O   0  0  0  0  0  0  0  0  0  0  0  0
   40.7800   31.1520   41.2340 Cl  0  0  0  0  0  0  0  0  0  0  0  0
   39.4820   32.1230   40.6380 C   0  0  0  0  0  0  0  0  0  0  0  0
   38.2990   31.4390   40.4610 C   0  0  0  0  0  0  0  0  0  0  0  0
   37.2360   32.2220   39.9770 C   0  0  0  0  0  0  0  0  0  0  0  0
   36.2040   31.8970   39.7610 H   0  0  0  0  0  0  0  0  0  0  0  0
   37.3840   33.5800   39.7030 C   0  0  0  0  0  0  0  0  0  0  0  0
   36.6020   34.2230   39.3310 H   0  0  0  0  0  0  0  0  0  0  0  0
   38.5940   34.1610   39.9110 C   0  0  0  0  0  0  0  0  0  0  0  0
   38.7650   35.2170   39.7130 H   0  0  0  0  0  0  0  0  0  0  0  0
   39.6750   33.4570   40.3820 C   0  0  0  0  0  0  0  0  0  0  0  0
   41.2580   34.1310   40.6740 Cl  0  0  0  0  0  0  0  0  0  0  0  0
  1  6  1  0  0  0  0
  1  2  1  0  0  0  0
  2  3  1  0  0  0  0
  3 10  1  0  0  0  0
  3  9  1  0  0  0  0
  3  4  1  0  0  0  0
  4 12  1  0  0  0  0
  4 11  1  0  0  0  0
  5 14  1  0  0  0  0
  5  4  1  0  0  0  0
  6 15  1  1  0  0  0
  6  5  1  0  0  0  0
  7  2  1  0  0  0  0
  8  2  1  0  0  0  0
 13  5  1  0  0  0  0
 16 17  1  0  0  0  0
 17 18  2  0  0  0  0
 17 23  1  0  0  0  0
 18  1  1  0  0  0  0
 19 18  1  0  0  0  0
 20 19  2  0  0  0  0
 21 20  1  0  0  0  0
 21 16  2  0  0  0  0
 22 16  1  0  0  0  0
 24 20  1  0  0  0  0
 25  6  1  0  0  0  0
 27 26  1  0  0  0  0
 28 25  1  0  0  0  0
 28 27  1  0  0  0  0
 29 28  2  0  0  0  0
 30 29  1  0  0  0  0
 31 33  2  0  0  0  0
 31 29  1  0  0  0  0
 32 31  1  0  0  0  0
 33 35  1  0  0  0  0
 34 33  1  0  0  0  0
 35 27  2  0  0  0  0
 35 36  1  0  0  0  0
M  END
>  <minimizedAffinity>
-5.52237034

$$$$

 OpenBabel03252502253D

 36 38  0  0  1  0  0  0  0  0999 V2000
   38.3780   30.9140   41.1250 N   0  0  0  0  0  0  0  0  0  0  0  0
   39.4930   31.8560   41.0100 C   0  0  0  0  0  0  0  0  0  0  0  0
   38.7900   33.2310   41.0610 C   0  0  0  0  0  0  0  0  0  0  0  0
   37.9640   33.4040   39.8200 C   0  0  0  0  0  0  0  0  0  0  0  0
   37.1800   32.2020   39.4340 C   0  0  0  0  0  0  0  0  0  0  0  0
   37.1130   31.0920   40.4470 C   0  0  1  0  0  0  0  0  0  0  0  0
   40.0310   31.7710   40.0590 H   0  0  0  0  0  0  0  0  0  0  0  0
   40.1210   31.7720   41.9070 H   0  0  0  0  0  0  0  0  0  0  0  0
   39.5950   33.9790   41.0970 H   0  0  0  0  0  0  0  0  0  0  0  0
   38.1780   33.2370   41.9880 H   0  0  0  0  0  0  0  0  0  0  0  0
   37.3320   34.3090   39.9940 H   0  0  0  0  0  0  0  0  0  0  0  0
   38.6630   33.6840   39.0020 H   0  0  0  0  0  0  0  0  0  0  0  0
   37.5680   31.7650   38.4790 H   0  0  0  0  0  0  0  0  0  0  0  0
   36.1370   32.5150   39.2170 H   0  0  0  0  0  0  0  0  0  0  0  0
   36.4090   31.4310   41.2310 H   0  0  0  0  0  0  0  0  0  0  0  0
   39.7190   27.8040   42.7280 C   0  0  0  0  0  0  0  0  0  0  0  0
   39.6780   28.9300   41.8830 C   0  0  0  0  0  0  0  0  0  0  0  0
   38.5160   29.7490   41.9450 C   0  0  0  0  0  0  0  0  0  0  0  0
   37.5410   29.3820   42.8120 N   0  0  0  0  0  0  0  0  0  0  0  0
   37.6200   28.2960   43.6050 C   0  0  0  0  0  0  0  0  0  0  0  0
   38.7190   27.5030   43.5590 N   0  0  0  0  0  0  0  0  0  0  0  0
   40.5980   27.1600   42.6990 H   0  0  0  0  0  0  0  0  0  0  0  0
   40.4630   29.1890   41.2110 H   0  0  0  0  0  0  0  0  0  0  0  0
   36.7440   28.1400   44.2500 H   0  0  0  0  0  0  0  0  0  0  0  0
   36.7810   29.9320   39.8110 O   0  0  0  0  0  0  0  0  0  0  0  0
   37.7320   29.6780   36.8600 Cl  0  0  0  0  0  0  0  0  0  0  0  0
   36.1380   29.3650   37.4480 C   0  0  0  0  0  0  0  0  0  0  0  0
   35.9870   29.5550   38.8030 C   0  0  0  0  0  0  0  0  0  0  0  0
   34.6930   29.3030   39.2910 C   0  0  0  0  0  0  0  0  0  0  0  0
   34.3360   29.3880   40.3310 H   0  0  0  0  0  0  0  0  0  0  0  0
   33.6560   28.8940   38.4540 C   0  0  0  0  0  0  0  0  0  0  0  0
   32.6470   28.6880   38.7780 H   0  0  0  0  0  0  0  0  0  0  0  0
   33.9080   28.7350   37.1300 C   0  0  0  0  0  0  0  0  0  0  0  0
   33.1350   28.4160   36.4330 H   0  0  0  0  0  0  0  0  0  0  0  0
   35.1480   28.9630   36.5860 C   0  0  0  0  0  0  0  0  0  0  0  0
   35.5510   28.7810   34.8970 Cl  0  0  0  0  0  0  0  0  0  0  0  0
  1 18  1  0  0  0  0
  2  3  1  0  0  0  0
  2  1  1  0  0  0  0
  2  8  1  0  0  0  0
  3  9  1  0  0  0  0
  3 10  1  0  0  0  0
  4 11  1  0  0  0  0
  4  3  1  0  0  0  0
  5  4  1  0  0  0  0
  5  6  1  0  0  0  0
  6  1  1  0  0  0  0
  6 15  1  1  0  0  0
  7  2  1  0  0  0  0
 12  4  1  0  0  0  0
 13  5  1  0  0  0  0
 14  5  1  0  0  0  0
 16 21  1  0  0  0  0
 17 18  1  0  0  0  0
 17 16  2  0  0  0  0
 18 19  2  0  0  0  0
 19 20  1  0  0  0  0
 20 24  1  0  0  0  0
 21 20  2  0  0  0  0
 22 16  1  0  0  0  0
 23 17  1  0  0  0  0
 25  6  1  0  0  0  0
 26 27  1  0  0  0  0
 27 28  1  0  0  0  0
 28 29  2  0  0  0  0
 28 25  1  0  0  0  0
 29 30  1  0  0  0  0
 31 32  1  0  0  0  0
 31 29  1  0  0  0  0
 33 31  2  0  0  0  0
 34 33  1  0  0  0  0
 35 33  1  0  0  0  0
 35 27  2  0  0  0  0
 36 35  1  0  0  0  0
M  END
>  <minimizedAffinity>
-5.24274874

$$$$

 OpenBabel03252502253D

 36 38  0  0  1  0  0  0  0  0999 V2000
   37.7200   28.1950   41.0040 N   0  0  0  0  0  0  0  0  0  0  0  0
   38.8530   27.3030   41.2580 C   0  0  0  0  0  0  0  0  0  0  0  0
   38.3880   26.5000   42.4950 C   0  0  0  0  0  0  0  0  0  0  0  0
   38.3080   27.4240   43.6750 C   0  0  0  0  0  0  0  0  0  0  0  0
   37.6760   28.7370   43.3820 C   0  0  0  0  0  0  0  0  0  0  0  0
   36.9850   28.8670   42.0530 C   0  0  1  0  0  0  0  0  0  0  0  0
   39.7740   27.8380   41.5130 H   0  0  0  0  0  0  0  0  0  0  0  0
   38.9420   26.5970   40.4220 H   0  0  0  0  0  0  0  0  0  0  0  0
   39.1540   25.7300   42.6590 H   0  0  0  0  0  0  0  0  0  0  0  0
   37.4050   26.0570   42.2300 H   0  0  0  0  0  0  0  0  0  0  0  0
   37.7870   26.8510   44.4810 H   0  0  0  0  0  0  0  0  0  0  0  0
   39.3460   27.5720   44.0420 H   0  0  0  0  0  0  0  0  0  0  0  0
   38.4280   29.5640   43.4550 H   0  0  0  0  0  0  0  0  0  0  0  0
   36.9220   28.9500   44.1690 H   0  0  0  0  0  0  0  0  0  0  0  0
   36.0340   28.3100   42.1420 H   0  0  0  0  0  0  0  0  0  0  0  0
   37.7070   28.9890   37.3420 C   0  0  0  0  0  0  0  0  0  0  0  0
   38.2230   28.7710   38.6340 C   0  0  0  0  0  0  0  0  0  0  0  0
   37.2950   28.4350   39.6580 C   0  0  0  0  0  0  0  0  0  0  0  0
   35.9880   28.3500   39.3110 N   0  0  0  0  0  0  0  0  0  0  0  0
   35.5340   28.5660   38.0600 C   0  0  0  0  0  0  0  0  0  0  0  0
   36.4040   28.8870   37.0720 N   0  0  0  0  0  0  0  0  0  0  0  0
   38.3980   29.2480   36.5400 H   0  0  0  0  0  0  0  0  0  0  0  0
   39.2590   28.8470   38.8730 H   0  0  0  0  0  0  0  0  0  0  0  0
   34.4470   28.4560   37.9470 H   0  0  0  0  0  0  0  0  0  0  0  0
   36.8720   30.1910   41.7400 O   0  0  0  0  0  0  0  0  0  0  0  0
   39.8700   30.6810   42.4120 Cl  0  0  0  0  0  0  0  0  0  0  0  0
   38.9290   31.5530   41.2550 C   0  0  0  0  0  0  0  0  0  0  0  0
   37.6220   31.1300   41.1550 C   0  0  0  0  0  0  0  0  0  0  0  0
   36.8470   31.8350   40.2160 C   0  0  0  0  0  0  0  0  0  0  0  0
   35.7850   31.6770   39.9640 H   0  0  0  0  0  0  0  0  0  0  0  0
   37.3770   32.8760   39.4560 C   0  0  0  0  0  0  0  0  0  0  0  0
   36.8260   33.4470   38.7240 H   0  0  0  0  0  0  0  0  0  0  0  0
   38.6790   33.2170   39.6300 C   0  0  0  0  0  0  0  0  0  0  0  0
   39.1430   34.0210   39.0620 H   0  0  0  0  0  0  0  0  0  0  0  0
   39.4930   32.5710   40.5290 C   0  0  0  0  0  0  0  0  0  0  0  0
   41.1740   32.9490   40.8100 Cl  0  0  0  0  0  0  0  0  0  0  0  0
  1  2  1  0  0  0  0
  1  6  1  0  0  0  0
  2  7  1  0  0  0  0
  2  3  1  0  0  0  0
  3  9  1  0  0  0  0
  3  4  1  0  0  0  0
  4 12  1  0  0  0  0
  4 11  1  0  0  0  0
  5 13  1  0  0  0  0
  5  4  1  0  0  0  0
  5 14  1  0  0  0  0
  6 15  1  1  0  0  0
  6  5  1  0  0  0  0
  8  2  1  0  0  0  0
 10  3  1  0  0  0  0
 16 17  1  0  0  0  0
 17 23  1  0  0  0  0
 17 18  2  0  0  0  0
 18  1  1  0  0  0  0
 19 18  1  0  0  0  0
 20 19  2  0  0  0  0
 21 16  2  0  0  0  0
 21 20  1  0  0  0  0
 22 16  1  0  0  0  0
 24 20  1  0  0  0  0
 25  6  1  0  0  0  0
 27 26  1  0  0  0  0
 28 27  1  0  0  0  0
 28 25  1  0  0  0  0
 29 28  2  0  0  0  0
 30 29  1  0  0  0  0
 31 33  2  0  0  0  0
 31 29  1  0  0  0  0
 32 31  1  0  0  0  0
 33 35  1  0  0  0  0
 34 33  1  0  0  0  0
 35 36  1  0  0  0  0
 35 27  2  0  0  0  0
M  END
>  <minimizedAffinity>
-5.16761589

$$$$

 OpenBabel03252502253D

 36 38  0  0  1  0  0  0  0  0999 V2000
   38.5710   26.9790   41.2530 N   0  0  0  0  0  0  0  0  0  0  0  0
   39.9060   26.3780   41.2190 C   0  0  0  0  0  0  0  0  0  0  0  0
   39.8530   25.3570   42.3780 C   0  0  0  0  0  0  0  0  0  0  0  0
   39.7590   26.0980   43.6800 C   0  0  0  0  0  0  0  0  0  0  0  0
   38.8000   27.2330   43.6690 C   0  0  0  0  0  0  0  0  0  0  0  0
   37.8850   27.3270   42.4790 C   0  0  1  0  0  0  0  0  0  0  0  0
   40.7070   27.0990   41.4220 H   0  0  0  0  0  0  0  0  0  0  0  0
   40.0150   25.8130   40.2850 H   0  0  0  0  0  0  0  0  0  0  0  0
   40.7950   24.7910   42.3230 H   0  0  0  0  0  0  0  0  0  0  0  0
   38.9700   24.7110   42.1880 H   0  0  0  0  0  0  0  0  0  0  0  0
   39.5280   25.3290   44.4570 H   0  0  0  0  0  0  0  0  0  0  0  0
   40.7810   26.4630   43.9190 H   0  0  0  0  0  0  0  0  0  0  0  0
   39.3400   28.2100   43.7590 H   0  0  0  0  0  0  0  0  0  0  0  0
   38.1590   27.1630   44.5740 H   0  0  0  0  0  0  0  0  0  0  0  0
   37.1190   26.5420   42.6150 H   0  0  0  0  0  0  0  0  0  0  0  0
   37.7520   28.1590   37.7920 C   0  0  0  0  0  0  0  0  0  0  0  0
   38.5120   27.9430   38.9580 C   0  0  0  0  0  0  0  0  0  0  0  0
   37.8830   27.2470   40.0270 C   0  0  0  0  0  0  0  0  0  0  0  0
   36.6020   26.8450   39.8400 N   0  0  0  0  0  0  0  0  0  0  0  0
   35.9090   27.0720   38.7070 C   0  0  0  0  0  0  0  0  0  0  0  0
   36.4920   27.7340   37.6780 N   0  0  0  0  0  0  0  0  0  0  0  0
   38.2120   28.6910   36.9600 H   0  0  0  0  0  0  0  0  0  0  0  0
   39.5190   28.2740   39.0720 H   0  0  0  0  0  0  0  0  0  0  0  0
   34.8820   26.6800   38.7170 H   0  0  0  0  0  0  0  0  0  0  0  0
   37.4170   28.6050   42.3800 O   0  0  0  0  0  0  0  0  0  0  0  0
   35.8550   30.3480   40.3310 Cl  0  0  0  0  0  0  0  0  0  0  0  0
   37.3870   30.7280   41.0340 C   0  0  0  0  0  0  0  0  0  0  0  0
   37.8560   29.7800   41.9150 C   0  0  0  0  0  0  0  0  0  0  0  0
   39.1030   30.0790   42.4920 C   0  0  0  0  0  0  0  0  0  0  0  0
   39.6720   29.4750   43.2180 H   0  0  0  0  0  0  0  0  0  0  0  0
   39.7950   31.2490   42.1850 C   0  0  0  0  0  0  0  0  0  0  0  0
   40.7530   31.5260   42.5990 H   0  0  0  0  0  0  0  0  0  0  0  0
   39.2460   32.1220   41.3020 C   0  0  0  0  0  0  0  0  0  0  0  0
   39.7430   33.0500   41.0280 H   0  0  0  0  0  0  0  0  0  0  0  0
   38.0320   31.8920   40.7020 C   0  0  0  0  0  0  0  0  0  0  0  0
   37.2610   32.9640   39.5600 Cl  0  0  0  0  0  0  0  0  0  0  0  0
  1  6  1  0  0  0  0
  2  1  1  0  0  0  0
  2  7  1  0  0  0  0
  2  3  1  0  0  0  0
  3  4  1  0  0  0  0
  4 12  1  0  0  0  0
  4 11  1  0  0  0  0
  5  4  1  0  0  0  0
  5 13  1  0  0  0  0
  5 14  1  0  0  0  0
  6 15  1  1  0  0  0
  6  5  1  0  0  0  0
  8  2  1  0  0  0  0
  9  3  1  0  0  0  0
 10  3  1  0  0  0  0
 16 17  1  0  0  0  0
 17 23  1  0  0  0  0
 17 18  2  0  0  0  0
 18  1  1  0  0  0  0
 19 18  1  0  0  0  0
 20 24  1  0  0  0  0
 20 19  2  0  0  0  0
 21 16  2  0  0  0  0
 21 20  1  0  0  0  0
 22 16  1  0  0  0  0
 25  6  1  0  0  0  0
 26 27  1  0  0  0  0
 27 28  1  0  0  0  0
 28 25  1  0  0  0  0
 28 29  2  0  0  0  0
 29 30  1  0  0  0  0
 31 29  1  0  0  0  0
 31 32  1  0  0  0  0
 33 31  2  0  0  0  0
 34 33  1  0  0  0  0
 35 27  2  0  0  0  0
 35 33  1  0  0  0  0
 36 35  1  0  0  0  0
M  END
>  <minimizedAffinity>
-5.12369299

$$$$

 OpenBabel03252502253D

 36 38  0  0  1  0  0  0  0  0999 V2000
   37.3780   30.6700   38.7420 N   0  0  0  0  0  0  0  0  0  0  0  0
   37.5830   30.1350   37.3950 C   0  0  0  0  0  0  0  0  0  0  0  0
   36.1620   29.6910   36.9810 C   0  0  0  0  0  0  0  0  0  0  0  0
   35.7440   28.5300   37.8360 C   0  0  0  0  0  0  0  0  0  0  0  0
   36.0630   28.6860   39.2790 C   0  0  0  0  0  0  0  0  0  0  0  0
   36.5120   30.0510   39.7220 C   0  0  1  0  0  0  0  0  0  0  0  0
   38.2440   29.2610   37.3760 H   0  0  0  0  0  0  0  0  0  0  0  0
   37.8790   30.9560   36.7300 H   0  0  0  0  0  0  0  0  0  0  0  0
   36.2360   29.3870   35.9270 H   0  0  0  0  0  0  0  0  0  0  0  0
   35.5050   30.5770   37.1110 H   0  0  0  0  0  0  0  0  0  0  0  0
   34.6550   28.3760   37.6360 H   0  0  0  0  0  0  0  0  0  0  0  0
   36.2490   27.6280   37.4270 H   0  0  0  0  0  0  0  0  0  0  0  0
   36.8500   27.9530   39.5920 H   0  0  0  0  0  0  0  0  0  0  0  0
   35.1610   28.4250   39.8710 H   0  0  0  0  0  0  0  0  0  0  0  0
   35.6040   30.6820   39.7460 H   0  0  0  0  0  0  0  0  0  0  0  0
   38.0950   34.1530   39.9240 C   0  0  0  0  0  0  0  0  0  0  0  0
   37.3390   33.0250   39.5530 C   0  0  0  0  0  0  0  0  0  0  0  0
   38.0550   31.8670   39.1400 C   0  0  0  0  0  0  0  0  0  0  0  0
   39.4080   31.9400   39.1360 N   0  0  0  0  0  0  0  0  0  0  0  0
   40.0950   33.0410   39.5000 C   0  0  0  0  0  0  0  0  0  0  0  0
   39.4300   34.1530   39.8960 N   0  0  0  0  0  0  0  0  0  0  0  0
   37.5700   35.0520   40.2440 H   0  0  0  0  0  0  0  0  0  0  0  0
   36.2730   33.0010   39.5670 H   0  0  0  0  0  0  0  0  0  0  0  0
   41.1870   32.9340   39.4410 H   0  0  0  0  0  0  0  0  0  0  0  0
   37.1860   29.9340   40.9020 O   0  0  0  0  0  0  0  0  0  0  0  0
   39.7920   28.5600   39.9030 Cl  0  0  0  0  0  0  0  0  0  0  0  0
   38.9600   28.2170   41.3780 C   0  0  0  0  0  0  0  0  0  0  0  0
   37.8270   28.9740   41.5780 C   0  0  0  0  0  0  0  0  0  0  0  0
   37.1420   28.7020   42.7750 C   0  0  0  0  0  0  0  0  0  0  0  0
   36.2180   29.1760   43.1460 H   0  0  0  0  0  0  0  0  0  0  0  0
   37.5890   27.7390   43.6780 C   0  0  0  0  0  0  0  0  0  0  0  0
   37.1010   27.4930   44.6090 H   0  0  0  0  0  0  0  0  0  0  0  0
   38.7200   27.0450   43.3880 C   0  0  0  0  0  0  0  0  0  0  0  0
   39.1130   26.2830   44.0590 H   0  0  0  0  0  0  0  0  0  0  0  0
   39.4380   27.2600   42.2370 C   0  0  0  0  0  0  0  0  0  0  0  0
   40.8980   26.4110   41.7950 Cl  0  0  0  0  0  0  0  0  0  0  0  0
  1 18  1  0  0  0  0
  1  6  1  0  0  0  0
  2  1  1  0  0  0  0
  3 10  1  0  0  0  0
  3  2  1  0  0  0  0
  3  4  1  0  0  0  0
  4  5  1  0  0  0  0
  5 13  1  0  0  0  0
  5  6  1  0  0  0  0
  5 14  1  0  0  0  0
  6 15  1  1  0  0  0
  6 25  1  0  0  0  0
  7  2  1  0  0  0  0
  8  2  1  0  0  0  0
  9  3  1  0  0  0  0
 11  4  1  0  0  0  0
 12  4  1  0  0  0  0
 16 22  1  0  0  0  0
 17 23  1  0  0  0  0
 17 16  2  0  0  0  0
 18 17  1  0  0  0  0
 19 18  2  0  0  0  0
 19 20  1  0  0  0  0
 20 21  2  0  0  0  0
 21 16  1  0  0  0  0
 24 20  1  0  0  0  0
 25 28  1  0  0  0  0
 26 27  1  0  0  0  0
 27 28  2  0  0  0  0
 27 35  1  0  0  0  0
 28 29  1  0  0  0  0
 29 30  1  0  0  0  0
 29 31  2  0  0  0  0
 31 32  1  0  0  0  0
 33 31  1  0  0  0  0
 33 34  1  0  0  0  0
 35 33  2  0  0  0  0
 36 35  1  0  0  0  0
M  END
>  <minimizedAffinity>
-5.06626844

$$$$

 OpenBabel03252502253D

 36 38  0  0  1  0  0  0  0  0999 V2000
   38.1770   29.6660   41.5590 N   0  0  0  0  0  0  0  0  0  0  0  0
   38.4200   29.5820   43.0000 C   0  0  0  0  0  0  0  0  0  0  0  0
   38.5990   28.0650   43.2310 C   0  0  0  0  0  0  0  0  0  0  0  0
   37.2890   27.3750   42.9840 C   0  0  0  0  0  0  0  0  0  0  0  0
   36.5690   27.8450   41.7720 C   0  0  0  0  0  0  0  0  0  0  0  0
   37.3400   28.7340   40.8360 C   0  0  1  0  0  0  0  0  0  0  0  0
   37.5730   29.9320   43.6000 H   0  0  0  0  0  0  0  0  0  0  0  0
   39.3800   30.0660   43.2260 H   0  0  0  0  0  0  0  0  0  0  0  0
   38.9020   27.9530   44.2820 H   0  0  0  0  0  0  0  0  0  0  0  0
   39.3960   27.7320   42.5330 H   0  0  0  0  0  0  0  0  0  0  0  0
   37.5140   26.2800   42.9710 H   0  0  0  0  0  0  0  0  0  0  0  0
   36.6630   27.5370   43.8880 H   0  0  0  0  0  0  0  0  0  0  0  0
   35.6290   28.3850   42.0540 H   0  0  0  0  0  0  0  0  0  0  0  0
   36.2390   26.9580   41.1910 H   0  0  0  0  0  0  0  0  0  0  0  0
   38.0430   28.0750   40.2930 H   0  0  0  0  0  0  0  0  0  0  0  0
   38.8720   32.9710   39.9340 C   0  0  0  0  0  0  0  0  0  0  0  0
   38.1970   32.0070   40.7080 C   0  0  0  0  0  0  0  0  0  0  0  0
   38.7860   30.7150   40.7970 C   0  0  0  0  0  0  0  0  0  0  0  0
   39.9490   30.5130   40.1320 N   0  0  0  0  0  0  0  0  0  0  0  0
   40.5630   31.4640   39.4010 C   0  0  0  0  0  0  0  0  0  0  0  0
   40.0170   32.7010   39.3040 N   0  0  0  0  0  0  0  0  0  0  0  0
   38.4410   33.9680   39.8500 H   0  0  0  0  0  0  0  0  0  0  0  0
   37.2820   32.2000   41.2190 H   0  0  0  0  0  0  0  0  0  0  0  0
   41.4990   31.1380   38.9260 H   0  0  0  0  0  0  0  0  0  0  0  0
   36.4600   29.4320   40.0620 O   0  0  0  0  0  0  0  0  0  0  0  0
   37.9810   29.8050   37.3740 Cl  0  0  0  0  0  0  0  0  0  0  0  0
   36.3100   29.4060   37.5530 C   0  0  0  0  0  0  0  0  0  0  0  0
   35.8900   29.3000   38.8600 C   0  0  0  0  0  0  0  0  0  0  0  0
   34.5300   28.9770   39.0160 C   0  0  0  0  0  0  0  0  0  0  0  0
   33.9730   28.8410   39.9580 H   0  0  0  0  0  0  0  0  0  0  0  0
   33.6880   28.7820   37.9220 C   0  0  0  0  0  0  0  0  0  0  0  0
   32.6400   28.5330   37.9870 H   0  0  0  0  0  0  0  0  0  0  0  0
   34.2010   28.9100   36.6710 C   0  0  0  0  0  0  0  0  0  0  0  0
   33.5880   28.7670   35.7830 H   0  0  0  0  0  0  0  0  0  0  0  0
   35.5180   29.2240   36.4470 C   0  0  0  0  0  0  0  0  0  0  0  0
   36.2510   29.4040   34.8720 Cl  0  0  0  0  0  0  0  0  0  0  0  0
  1  2  1  0  0  0  0
  2  8  1  0  0  0  0
  2  3  1  0  0  0  0
  2  7  1  0  0  0  0
  3  9  1  0  0  0  0
  4  3  1  0  0  0  0
  4 12  1  0  0  0  0
  5 13  1  0  0  0  0
  5  4  1  0  0  0  0
  6 15  1  6  0  0  0
  6  1  1  0  0  0  0
  6  5  1  0  0  0  0
 10  3  1  0  0  0  0
 11  4  1  0  0  0  0
 14  5  1  0  0  0  0
 16 17  1  0  0  0  0
 17 18  2  0  0  0  0
 17 23  1  0  0  0  0
 18  1  1  0  0  0  0
 19 18  1  0  0  0  0
 20 19  2  0  0  0  0
 21 20  1  0  0  0  0
 21 16  2  0  0  0  0
 22 16  1  0  0  0  0
 24 20  1  0  0  0  0
 25  6  1  0  0  0  0
 26 27  1  0  0  0  0
 27 28  1  0  0  0  0
 28 29  2  0  0  0  0
 28 25  1  0  0  0  0
 29 30  1  0  0  0  0
 31 32  1  0  0  0  0
 31 29  1  0  0  0  0
 33 31  2  0  0  0  0
 34 33  1  0  0  0  0
 35 33  1  0  0  0  0
 35 27  2  0  0  0  0
 36 35  1  0  0  0  0
M  END
>  <minimizedAffinity>
-5.03546429

$$$$

 OpenBabel03252502253D

 36 38  0  0  1  0  0  0  0  0999 V2000
   36.9890   25.7480   40.8540 N   0  0  0  0  0  0  0  0  0  0  0  0
   36.5650   24.4650   41.4180 C   0  0  0  0  0  0  0  0  0  0  0  0
   36.9940   23.4530   40.3320 C   0  0  0  0  0  0  0  0  0  0  0  0
   36.1590   23.6690   39.1040 C   0  0  0  0  0  0  0  0  0  0  0  0
   35.9740   25.0960   38.7330 C   0  0  0  0  0  0  0  0  0  0  0  0
   36.8350   26.0940   39.4580 C   0  0  1  0  0  0  0  0  0  0  0  0
   35.4790   24.3930   41.5560 H   0  0  0  0  0  0  0  0  0  0  0  0
   37.1610   24.2580   42.3160 H   0  0  0  0  0  0  0  0  0  0  0  0
   36.8050   22.4560   40.7570 H   0  0  0  0  0  0  0  0  0  0  0  0
   38.0760   23.6260   40.1500 H   0  0  0  0  0  0  0  0  0  0  0  0
   36.6330   23.0580   38.2970 H   0  0  0  0  0  0  0  0  0  0  0  0
   35.1730   23.1930   39.2940 H   0  0  0  0  0  0  0  0  0  0  0  0
   34.9070   25.4070   38.8710 H   0  0  0  0  0  0  0  0  0  0  0  0
   36.1800   25.2090   37.6480 H   0  0  0  0  0  0  0  0  0  0  0  0
   37.8480   26.0020   39.0240 H   0  0  0  0  0  0  0  0  0  0  0  0
   37.6380   28.1240   43.6780 C   0  0  0  0  0  0  0  0  0  0  0  0
   36.9680   27.1510   42.9110 C   0  0  0  0  0  0  0  0  0  0  0  0
   37.5910   26.7310   41.7040 C   0  0  0  0  0  0  0  0  0  0  0  0
   38.7800   27.2970   41.3860 N   0  0  0  0  0  0  0  0  0  0  0  0
   39.3890   28.2260   42.1480 C   0  0  0  0  0  0  0  0  0  0  0  0
   38.8110   28.6400   43.3020 N   0  0  0  0  0  0  0  0  0  0  0  0
   37.1810   28.4630   44.6070 H   0  0  0  0  0  0  0  0  0  0  0  0
   36.0310   26.7260   43.1910 H   0  0  0  0  0  0  0  0  0  0  0  0
   40.3490   28.5830   41.7480 H   0  0  0  0  0  0  0  0  0  0  0  0
   36.2580   27.3270   39.3660 O   0  0  0  0  0  0  0  0  0  0  0  0
   36.1810   30.0010   40.9520 Cl  0  0  0  0  0  0  0  0  0  0  0  0
   36.6070   29.8150   39.2890 C   0  0  0  0  0  0  0  0  0  0  0  0
   36.5590   28.5160   38.8340 C   0  0  0  0  0  0  0  0  0  0  0  0
   36.9040   28.3540   37.4800 C   0  0  0  0  0  0  0  0  0  0  0  0
   36.9370   27.4160   36.9000 H   0  0  0  0  0  0  0  0  0  0  0  0
   37.2630   29.4350   36.6770 C   0  0  0  0  0  0  0  0  0  0  0  0
   37.5360   29.3640   35.6350 H   0  0  0  0  0  0  0  0  0  0  0  0
   37.2800   30.6780   37.2210 C   0  0  0  0  0  0  0  0  0  0  0  0
   37.5540   31.5560   36.6390 H   0  0  0  0  0  0  0  0  0  0  0  0
   36.9550   30.9080   38.5350 C   0  0  0  0  0  0  0  0  0  0  0  0
   36.9530   32.4740   39.3070 Cl  0  0  0  0  0  0  0  0  0  0  0  0
  1  2  1  0  0  0  0
  1 18  1  0  0  0  0
  2  7  1  0  0  0  0
  2  8  1  0  0  0  0
  3  9  1  0  0  0  0
  3  2  1  0  0  0  0
  4 12  1  0  0  0  0
  4  3  1  0  0  0  0
  5 13  1  0  0  0  0
  5  4  1  0  0  0  0
  5  6  1  0  0  0  0
  6 15  1  6  0  0  0
  6  1  1  0  0  0  0
 10  3  1  0  0  0  0
 11  4  1  0  0  0  0
 14  5  1  0  0  0  0
 16 22  1  0  0  0  0
 17 23  1  0  0  0  0
 17 16  2  0  0  0  0
 18 17  1  0  0  0  0
 19 18  2  0  0  0  0
 19 20  1  0  0  0  0
 20 21  2  0  0  0  0
 21 16  1  0  0  0  0
 24 20  1  0  0  0  0
 25  6  1  0  0  0  0
 27 26  1  0  0  0  0
 28 27  1  0  0  0  0
 28 25  1  0  0  0  0
 29 28  2  0  0  0  0
 30 29  1  0  0  0  0
 31 33  2  0  0  0  0
 31 29  1  0  0  0  0
 32 31  1  0  0  0  0
 33 35  1  0  0  0  0
 34 33  1  0  0  0  0
 35 27  2  0  0  0  0
 35 36  1  0  0  0  0
M  END
>  <minimizedAffinity>
-5.0296874

$$$$

 OpenBabel03252502253D

 36 38  0  0  1  0  0  0  0  0999 V2000
   36.9040   29.0380   39.9960 N   0  0  0  0  0  0  0  0  0  0  0  0
   35.4720   29.2490   39.7730 C   0  0  0  0  0  0  0  0  0  0  0  0
   35.2820   28.7990   38.3070 C   0  0  0  0  0  0  0  0  0  0  0  0
   35.9950   29.7630   37.4040 C   0  0  0  0  0  0  0  0  0  0  0  0
   37.3500   30.1540   37.8730 C   0  0  0  0  0  0  0  0  0  0  0  0
   37.9180   29.3590   39.0170 C   0  0  1  0  0  0  0  0  0  0  0  0
   35.1740   30.3000   39.8610 H   0  0  0  0  0  0  0  0  0  0  0  0
   34.9090   28.5520   40.4080 H   0  0  0  0  0  0  0  0  0  0  0  0
   34.1990   28.8260   38.1220 H   0  0  0  0  0  0  0  0  0  0  0  0
   35.6890   27.7680   38.2390 H   0  0  0  0  0  0  0  0  0  0  0  0
   35.9950   29.2940   36.3900 H   0  0  0  0  0  0  0  0  0  0  0  0
   35.3480   30.6620   37.3130 H   0  0  0  0  0  0  0  0  0  0  0  0
   37.3710   31.2340   38.1680 H   0  0  0  0  0  0  0  0  0  0  0  0
   38.0590   30.0640   37.0230 H   0  0  0  0  0  0  0  0  0  0  0  0
   38.2300   28.3860   38.5930 H   0  0  0  0  0  0  0  0  0  0  0  0
   38.3240   26.7250   42.5810 C   0  0  0  0  0  0  0  0  0  0  0  0
   37.9120   27.1790   41.3130 C   0  0  0  0  0  0  0  0  0  0  0  0
   37.3540   28.4860   41.2390 C   0  0  0  0  0  0  0  0  0  0  0  0
   37.2630   29.1910   42.3920 N   0  0  0  0  0  0  0  0  0  0  0  0
   37.6700   28.7200   43.5870 C   0  0  0  0  0  0  0  0  0  0  0  0
   38.2040   27.4770   43.6770 N   0  0  0  0  0  0  0  0  0  0  0  0
   38.7550   25.7280   42.6640 H   0  0  0  0  0  0  0  0  0  0  0  0
   37.9970   26.5970   40.4240 H   0  0  0  0  0  0  0  0  0  0  0  0
   37.5270   29.4180   44.4230 H   0  0  0  0  0  0  0  0  0  0  0  0
   38.9030   30.0890   39.6170 O   0  0  0  0  0  0  0  0  0  0  0  0
   41.1200   31.1800   37.7270 Cl  0  0  0  0  0  0  0  0  0  0  0  0
   40.2560   32.0880   38.9160 C   0  0  0  0  0  0  0  0  0  0  0  0
   39.3240   31.3580   39.6190 C   0  0  0  0  0  0  0  0  0  0  0  0
   38.6160   32.0880   40.5900 C   0  0  0  0  0  0  0  0  0  0  0  0
   37.8290   31.7200   41.2690 H   0  0  0  0  0  0  0  0  0  0  0  0
   38.8530   33.4440   40.8110 C   0  0  0  0  0  0  0  0  0  0  0  0
   38.3380   34.0490   41.5420 H   0  0  0  0  0  0  0  0  0  0  0  0
   39.7960   34.0740   40.0640 C   0  0  0  0  0  0  0  0  0  0  0  0
   40.0200   35.1310   40.1950 H   0  0  0  0  0  0  0  0  0  0  0  0
   40.5230   33.4210   39.0990 C   0  0  0  0  0  0  0  0  0  0  0  0
   41.7490   34.1600   38.0990 Cl  0  0  0  0  0  0  0  0  0  0  0  0
  1 18  1  0  0  0  0
  2  7  1  0  0  0  0
  2  1  1  0  0  0  0
  2  8  1  0  0  0  0
  3  2  1  0  0  0  0
  4  5  1  0  0  0  0
  4  3  1  0  0  0  0
  5 13  1  0  0  0  0
  5  6  1  0  0  0  0
  6 15  1  6  0  0  0
  6 25  1  0  0  0  0
  6  1  1  0  0  0  0
  9  3  1  0  0  0  0
 10  3  1  0  0  0  0
 11  4  1  0  0  0  0
 12  4  1  0  0  0  0
 14  5  1  0  0  0  0
 16 22  1  0  0  0  0
 16 21  1  0  0  0  0
 17 16  2  0  0  0  0
 18 17  1  0  0  0  0
 18 19  2  0  0  0  0
 19 20  1  0  0  0  0
 20 21  2  0  0  0  0
 20 24  1  0  0  0  0
 23 17  1  0  0  0  0
 25 28  1  0  0  0  0
 26 27  1  0  0  0  0
 27 35  2  0  0  0  0
 27 28  1  0  0  0  0
 28 29  2  0  0  0  0
 29 31  1  0  0  0  0
 29 30  1  0  0  0  0
 31 32  1  0  0  0  0
 33 34  1  0  0  0  0
 33 31  2  0  0  0  0
 35 33  1  0  0  0  0
 36 35  1  0  0  0  0
M  END
>  <minimizedAffinity>
-5.00076962

$$$$
