
 OpenBabel03252506383D

 46 49  0  0  1  0  0  0  0  0999 V2000
   44.5010   35.3800   45.1250 C   0  0  0  0  0  0  0  0  0  0  0  0
   45.2130   35.4060   43.9030 C   0  0  0  0  0  0  0  0  0  0  0  0
   46.1900   34.4960   43.6900 C   0  0  0  0  0  0  0  0  0  0  0  0
   46.4320   33.5990   44.6800 N   0  0  0  0  0  0  0  0  0  0  0  0
   45.7620   33.5800   45.8230 C   0  0  0  0  0  0  0  0  0  0  0  0
   44.7930   34.4650   46.0620 N   0  0  0  0  0  0  0  0  0  0  0  0
   46.1050   32.5850   46.8050 N   0  0  0  0  0  0  0  0  0  0  0  0
   45.3310   32.3010   47.9570 C   0  0  0  0  0  0  0  0  0  0  0  0
   46.3790   32.0090   49.0170 C   0  0  0  0  0  0  0  0  0  0  0  0
   47.6950   31.9740   48.3020 C   0  0  0  0  0  0  0  0  0  0  0  0
   47.2690   31.7370   46.8540 C   0  0  1  0  0  0  0  0  0  0  0  0
   43.7110   36.0980   45.3270 H   0  0  0  0  0  0  0  0  0  0  0  0
   46.7470   34.4920   42.7690 H   0  0  0  0  0  0  0  0  0  0  0  0
   44.8950   33.2930   48.3000 H   0  0  0  0  0  0  0  0  0  0  0  0
   44.5580   31.6080   48.0260 H   0  0  0  0  0  0  0  0  0  0  0  0
   46.3290   32.6470   49.8970 H   0  0  0  0  0  0  0  0  0  0  0  0
   46.2210   30.9610   49.4040 H   0  0  0  0  0  0  0  0  0  0  0  0
   48.1730   32.9630   48.4080 H   0  0  0  0  0  0  0  0  0  0  0  0
   48.3490   31.1400   48.6390 H   0  0  0  0  0  0  0  0  0  0  0  0
   48.1000   32.0920   46.2230 H   0  0  0  0  0  0  0  0  0  0  0  0
   44.8460   36.4130   42.9490 N   0  0  0  0  0  0  0  0  0  0  0  0
   44.5460   37.3480   43.2560 H   0  0  0  0  0  0  0  0  0  0  0  0
   44.8740   36.2190   41.9140 H   0  0  0  0  0  0  0  0  0  0  0  0
   46.8560   30.0180   46.6520 S   0  0  0  0  0  0  0  0  0  0  0  0
   45.4240   30.4120   43.6680 O   0  0  0  0  0  0  0  0  0  0  0  0
   44.9390   29.8560   44.6680 C   0  0  0  0  0  0  0  0  0  0  0  0
   45.2380   29.6520   46.1090 C   0  0  1  0  0  0  0  0  0  0  0  0
   44.7830   28.2300   46.3180 C   0  0  0  0  0  0  0  0  0  0  0  0
   43.3760   28.3670   45.7350 C   0  0  0  0  0  0  0  0  0  0  0  0
   43.6940   29.1450   44.5370 N   0  0  0  0  0  0  0  0  0  0  0  0
   44.3800   30.2190   46.5640 H   0  0  0  0  0  0  0  0  0  0  0  0
   45.3430   27.5120   45.7020 H   0  0  0  0  0  0  0  0  0  0  0  0
   44.7410   27.9480   47.3900 H   0  0  0  0  0  0  0  0  0  0  0  0
   42.6910   28.8660   46.4180 H   0  0  0  0  0  0  0  0  0  0  0  0
   43.0690   27.3320   45.4690 H   0  0  0  0  0  0  0  0  0  0  0  0
   40.7310   29.5230   45.0830 Cl  0  0  0  0  0  0  0  0  0  0  0  0
   41.4180   29.2890   43.4820 C   0  0  0  0  0  0  0  0  0  0  0  0
   42.7900   29.1320   43.4080 C   0  0  0  0  0  0  0  0  0  0  0  0
   43.4300   28.9410   42.2060 C   0  0  0  0  0  0  0  0  0  0  0  0
   44.5020   28.8110   42.0750 H   0  0  0  0  0  0  0  0  0  0  0  0
   42.6850   28.9070   41.0440 C   0  0  0  0  0  0  0  0  0  0  0  0
   43.1570   28.7590   40.0810 H   0  0  0  0  0  0  0  0  0  0  0  0
   41.3110   29.0630   41.1100 C   0  0  0  0  0  0  0  0  0  0  0  0
   40.6590   29.0480   40.2440 H   0  0  0  0  0  0  0  0  0  0  0  0
   40.6780   29.2540   42.3340 C   0  0  0  0  0  0  0  0  0  0  0  0
   38.9400   29.4600   42.4950 Cl  0  0  0  0  0  0  0  0  0  0  0  0
  1 12  1  0  0  0  0
  1  6  1  0  0  0  0
  2  1  2  0  0  0  0
  3  2  1  0  0  0  0
  3  4  2  0  0  0  0
  4  5  1  0  0  0  0
  5  6  2  0  0  0  0
  5  7  1  0  0  0  0
  7 11  1  0  0  0  0
  7  8  1  0  0  0  0
  8 15  1  0  0  0  0
  8 14  1  0  0  0  0
  8  9  1  0  0  0  0
  9 17  1  0  0  0  0
  9 16  1  0  0  0  0
 10 18  1  0  0  0  0
 10 19  1  0  0  0  0
 10  9  1  0  0  0  0
 11 20  1  6  0  0  0
 11 10  1  0  0  0  0
 13  3  1  0  0  0  0
 21 22  1  0  0  0  0
 21  2  1  0  0  0  0
 23 21  1  0  0  0  0
 24 11  1  0  0  0  0
 25 26  2  0  0  0  0
 26 27  1  0  0  0  0
 27 28  1  0  0  0  0
 27 31  1  1  0  0  0
 27 24  1  0  0  0  0
 28 33  1  0  0  0  0
 29 28  1  0  0  0  0
 29 34  1  0  0  0  0
 30 26  1  0  0  0  0
 30 29  1  0  0  0  0
 32 28  1  0  0  0  0
 35 29  1  0  0  0  0
 37 36  1  0  0  0  0
 38 37  1  0  0  0  0
 38 30  1  0  0  0  0
 39 38  2  0  0  0  0
 40 39  1  0  0  0  0
 41 43  2  0  0  0  0
 41 39  1  0  0  0  0
 42 41  1  0  0  0  0
 43 45  1  0  0  0  0
 44 43  1  0  0  0  0
 45 46  1  0  0  0  0
 45 37  2  0  0  0  0
M  END
>  <minimizedAffinity>
-5.7251215

>  <minimizedRMSD>
0.633438647

$$$$
