
 OpenBabel03252506343D

 35 37  0  0  1  0  0  0  0  0999 V2000
   44.4820   35.7820   44.9970 C   0  0  0  0  0  0  0  0  0  0  0  0
   45.1040   35.7390   43.7410 C   0  0  0  0  0  0  0  0  0  0  0  0
   45.9780   34.7300   43.4760 C   0  0  0  0  0  0  0  0  0  0  0  0
   46.1880   33.8260   44.4610 N   0  0  0  0  0  0  0  0  0  0  0  0
   45.5870   33.8800   45.6570 C   0  0  0  0  0  0  0  0  0  0  0  0
   44.7320   34.8490   45.9440 N   0  0  0  0  0  0  0  0  0  0  0  0
   45.8980   32.8540   46.6080 N   0  0  0  0  0  0  0  0  0  0  0  0
   45.1370   32.6180   47.8230 C   0  0  0  0  0  0  0  0  0  0  0  0
   46.2350   32.2640   48.7960 C   0  0  0  0  0  0  0  0  0  0  0  0
   47.4920   32.0540   48.0000 C   0  0  0  0  0  0  0  0  0  0  0  0
   46.9780   31.8830   46.5710 C   0  0  1  0  0  0  0  0  0  0  0  0
   43.7710   36.5710   45.2600 H   0  0  0  0  0  0  0  0  0  0  0  0
   46.4550   34.6930   42.5180 H   0  0  0  0  0  0  0  0  0  0  0  0
   44.5000   31.7200   47.7370 H   0  0  0  0  0  0  0  0  0  0  0  0
   44.5590   33.5170   48.1290 H   0  0  0  0  0  0  0  0  0  0  0  0
   45.9880   31.4500   49.4760 H   0  0  0  0  0  0  0  0  0  0  0  0
   46.3720   33.1790   49.4370 H   0  0  0  0  0  0  0  0  0  0  0  0
   48.1330   32.9460   48.0490 H   0  0  0  0  0  0  0  0  0  0  0  0
   48.0180   31.1520   48.3780 H   0  0  0  0  0  0  0  0  0  0  0  0
   47.6670   32.2450   45.8090 H   0  0  0  0  0  0  0  0  0  0  0  0
   44.7540   36.7850   42.8210 N   0  0  0  0  0  0  0  0  0  0  0  0
   43.8120   37.2020   42.7460 H   0  0  0  0  0  0  0  0  0  0  0  0
   45.5030   37.1600   42.1730 H   0  0  0  0  0  0  0  0  0  0  0  0
   46.3750   30.2150   46.3830 S   0  0  0  0  0  0  0  0  0  0  0  0
   45.8750   26.9990   45.9500 Cl  0  0  0  0  0  0  0  0  0  0  0  0
   47.3860   27.7000   45.4740 C   0  0  0  0  0  0  0  0  0  0  0  0
   47.4890   29.0510   45.7040 C   0  0  0  0  0  0  0  0  0  0  0  0
   48.7090   29.6480   45.3500 C   0  0  0  0  0  0  0  0  0  0  0  0
   48.9990   30.7010   45.4490 H   0  0  0  0  0  0  0  0  0  0  0  0
   49.7260   28.8600   44.7980 C   0  0  0  0  0  0  0  0  0  0  0  0
   50.6980   29.2770   44.5030 H   0  0  0  0  0  0  0  0  0  0  0  0
   49.5630   27.4970   44.5870 C   0  0  0  0  0  0  0  0  0  0  0  0
   50.3420   26.9030   44.1650 H   0  0  0  0  0  0  0  0  0  0  0  0
   48.3660   26.9290   44.9380 C   0  0  0  0  0  0  0  0  0  0  0  0
   48.0460   25.2100   44.7170 Cl  0  0  0  0  0  0  0  0  0  0  0  0
  1 12  1  0  0  0  0
  1  6  1  0  0  0  0
  2  1  2  0  0  0  0
  3  2  1  0  0  0  0
  3  4  2  0  0  0  0
  4  5  1  0  0  0  0
  5  6  2  0  0  0  0
  5  7  1  0  0  0  0
  7  8  1  0  0  0  0
  8 15  1  0  0  0  0
  8  9  1  0  0  0  0
  9 17  1  0  0  0  0
  9 16  1  0  0  0  0
 10 18  1  0  0  0  0
 10 19  1  0  0  0  0
 10  9  1  0  0  0  0
 11 20  1  6  0  0  0
 11  7  1  0  0  0  0
 11 10  1  0  0  0  0
 13  3  1  0  0  0  0
 14  8  1  0  0  0  0
 21  2  1  0  0  0  0
 22 21  1  0  0  0  0
 23 21  1  0  0  0  0
 24 11  1  0  0  0  0
 26 27  1  0  0  0  0
 26 25  1  0  0  0  0
 27 24  1  0  0  0  0
 28 29  1  0  0  0  0
 28 27  2  0  0  0  0
 30 28  1  0  0  0  0
 31 30  1  0  0  0  0
 32 30  2  0  0  0  0
 32 34  1  0  0  0  0
 33 32  1  0  0  0  0
 34 26  2  0  0  0  0
 35 34  1  0  0  0  0
M  END
>  <minimizedAffinity>
-5.0196209

>  <minimizedRMSD>
0.697060525

$$$$
