
 OpenBabel03252503223D

 42 46  0  0  1  0  0  0  0  0999 V2000
   33.4290   29.0220   36.5870 C   0  0  1  0  0  0  0  0  0  0  0  0
   32.5200   27.9550   36.2160 C   0  0  0  0  0  0  0  0  0  0  0  0
   31.9530   29.2380   36.7680 C   0  0  2  0  0  0  0  0  0  0  0  0
   33.9670   29.5810   35.7920 H   0  0  0  0  0  0  0  0  0  0  0  0
   32.4980   27.0460   36.8440 H   0  0  0  0  0  0  0  0  0  0  0  0
   32.3490   27.7040   35.1390 H   0  0  0  0  0  0  0  0  0  0  0  0
   31.5380   29.1870   37.7780 H   0  0  0  0  0  0  0  0  0  0  0  0
   31.3140   30.1440   35.7760 C   0  0  0  0  0  0  0  0  0  0  0  0
   31.0520   31.4850   36.0020 C   0  0  0  0  0  0  0  0  0  0  0  0
   30.4700   32.2820   35.0250 C   0  0  0  0  0  0  0  0  0  0  0  0
   30.1400   31.7460   33.8010 C   0  0  0  0  0  0  0  0  0  0  0  0
   29.5770   32.4840   32.8090 N   0  0  0  0  0  0  0  0  0  0  0  0
   29.2700   31.9360   31.6130 C   0  0  0  0  0  0  0  0  0  0  0  0
   29.5030   30.5850   31.3000 C   0  0  0  0  0  0  0  0  0  0  0  0
   30.0750   29.8170   32.2960 C   0  0  0  0  0  0  0  0  0  0  0  0
   30.3840   30.3980   33.5220 C   0  0  0  0  0  0  0  0  0  0  0  0
   30.9660   29.6450   34.5320 C   0  0  0  0  0  0  0  0  0  0  0  0
   31.3260   31.8720   36.9760 H   0  0  0  0  0  0  0  0  0  0  0  0
   30.2710   33.3360   35.2240 H   0  0  0  0  0  0  0  0  0  0  0  0
   28.8200   32.5110   30.8110 H   0  0  0  0  0  0  0  0  0  0  0  0
   29.2400   30.1970   30.3270 H   0  0  0  0  0  0  0  0  0  0  0  0
   30.2670   28.7760   32.0900 H   0  0  0  0  0  0  0  0  0  0  0  0
   31.1020   28.6140   34.2330 H   0  0  0  0  0  0  0  0  0  0  0  0
   35.6240   28.4790   37.7060 C   0  0  0  0  0  0  0  0  0  0  0  0
   34.2730   28.9340   37.8060 C   0  0  0  0  0  0  0  0  0  0  0  0
   33.7860   29.2710   39.0540 C   0  0  0  0  0  0  0  0  0  0  0  0
   34.6370   29.1440   40.1140 N   0  0  0  0  0  0  0  0  0  0  0  0
   35.9060   28.7140   40.0060 C   0  0  0  0  0  0  0  0  0  0  0  0
   36.4030   28.3790   38.7910 N   0  0  0  0  0  0  0  0  0  0  0  0
   36.0390   28.2040   36.7290 H   0  0  0  0  0  0  0  0  0  0  0  0
   32.7700   29.6200   39.1710 H   0  0  0  0  0  0  0  0  0  0  0  0
   37.8860   30.9670   40.3680 Cl  0  0  0  0  0  0  0  0  0  0  0  0
   37.6780   29.6080   41.4510 C   0  0  0  0  0  0  0  0  0  0  0  0
   36.7450   28.6120   41.2150 C   0  0  0  0  0  0  0  0  0  0  0  0
   36.5330   27.5180   42.0280 C   0  0  0  0  0  0  0  0  0  0  0  0
   35.7860   26.7750   41.7850 H   0  0  0  0  0  0  0  0  0  0  0  0
   37.3160   27.4090   43.1720 C   0  0  0  0  0  0  0  0  0  0  0  0
   37.2050   26.5890   43.8460 H   0  0  0  0  0  0  0  0  0  0  0  0
   38.2760   28.3840   43.4630 C   0  0  0  0  0  0  0  0  0  0  0  0
   38.9170   28.3760   44.3200 H   0  0  0  0  0  0  0  0  0  0  0  0
   38.4370   29.4600   42.6020 C   0  0  0  0  0  0  0  0  0  0  0  0
   39.6230   30.7390   42.8900 Cl  0  0  0  0  0  0  0  0  0  0  0  0
  1  4  1  6  0  0  0
  1  3  1  0  0  0  0
  1 25  1  0  0  0  0
  2  1  1  0  0  0  0
  2  3  1  0  0  0  0
  2  5  1  0  0  0  0
  3  7  1  1  0  0  0
  6  2  1  0  0  0  0
  8  9  1  0  0  0  0
  8  3  1  0  0  0  0
  9 18  1  0  0  0  0
 10 19  1  0  0  0  0
 10  9  2  0  0  0  0
 11 10  1  0  0  0  0
 12 11  2  0  0  0  0
 13 12  1  0  0  0  0
 14 13  2  0  0  0  0
 14 15  1  0  0  0  0
 15 16  2  0  0  0  0
 16 11  1  0  0  0  0
 16 17  1  0  0  0  0
 17  8  2  0  0  0  0
 20 13  1  0  0  0  0
 21 14  1  0  0  0  0
 22 15  1  0  0  0  0
 23 17  1  0  0  0  0
 24 25  2  0  0  0  0
 24 29  1  0  0  0  0
 25 26  1  0  0  0  0
 26 31  1  0  0  0  0
 26 27  2  0  0  0  0
 28 27  1  0  0  0  0
 28 34  1  0  0  0  0
 29 28  2  0  0  0  0
 30 24  1  0  0  0  0
 32 33  1  0  0  0  0
 33 41  1  0  0  0  0
 34 33  2  0  0  0  0
 34 35  1  0  0  0  0
 35 37  2  0  0  0  0
 36 35  1  0  0  0  0
 37 39  1  0  0  0  0
 37 38  1  0  0  0  0
 39 40  1  0  0  0  0
 41 42  1  0  0  0  0
 41 39  2  0  0  0  0
M  END
>  <minimizedAffinity>
-6.8893919

$$$$

 OpenBabel03252503223D

 42 46  0  0  1  0  0  0  0  0999 V2000
   34.2920   29.1570   37.4270 C   0  0  1  0  0  0  0  0  0  0  0  0
   33.7870   28.1590   36.5060 C   0  0  0  0  0  0  0  0  0  0  0  0
   32.8770   28.6800   37.5890 C   0  0  2  0  0  0  0  0  0  0  0  0
   34.4800   30.1900   37.0640 H   0  0  0  0  0  0  0  0  0  0  0  0
   34.1780   27.1280   36.5860 H   0  0  0  0  0  0  0  0  0  0  0  0
   33.5720   28.4260   35.4400 H   0  0  0  0  0  0  0  0  0  0  0  0
   32.6500   27.9870   38.4030 H   0  0  0  0  0  0  0  0  0  0  0  0
   31.8260   29.6370   37.1480 C   0  0  0  0  0  0  0  0  0  0  0  0
   30.8030   30.0980   37.9600 C   0  0  0  0  0  0  0  0  0  0  0  0
   29.8640   31.0070   37.4920 C   0  0  0  0  0  0  0  0  0  0  0  0
   29.9350   31.4720   36.1980 C   0  0  0  0  0  0  0  0  0  0  0  0
   29.0470   32.3680   35.6950 N   0  0  0  0  0  0  0  0  0  0  0  0
   29.1440   32.8150   34.4240 C   0  0  0  0  0  0  0  0  0  0  0  0
   30.1510   32.4000   33.5340 C   0  0  0  0  0  0  0  0  0  0  0  0
   31.0640   31.4890   34.0270 C   0  0  0  0  0  0  0  0  0  0  0  0
   30.9490   31.0380   35.3390 C   0  0  0  0  0  0  0  0  0  0  0  0
   31.8610   30.1290   35.8550 C   0  0  0  0  0  0  0  0  0  0  0  0
   30.7790   29.7110   38.9720 H   0  0  0  0  0  0  0  0  0  0  0  0
   29.0660   31.3570   38.1480 H   0  0  0  0  0  0  0  0  0  0  0  0
   28.4440   33.5300   34.0060 H   0  0  0  0  0  0  0  0  0  0  0  0
   30.1840   32.7900   32.5270 H   0  0  0  0  0  0  0  0  0  0  0  0
   31.8500   31.1480   33.3710 H   0  0  0  0  0  0  0  0  0  0  0  0
   32.5960   29.8390   35.1150 H   0  0  0  0  0  0  0  0  0  0  0  0
   36.5600   28.3080   38.1360 C   0  0  0  0  0  0  0  0  0  0  0  0
   35.2690   28.8080   38.4910 C   0  0  0  0  0  0  0  0  0  0  0  0
   34.9640   28.9410   39.8320 C   0  0  0  0  0  0  0  0  0  0  0  0
   35.9240   28.5820   40.7320 N   0  0  0  0  0  0  0  0  0  0  0  0
   37.1360   28.1130   40.3850 C   0  0  0  0  0  0  0  0  0  0  0  0
   37.4550   27.9750   39.0760 N   0  0  0  0  0  0  0  0  0  0  0  0
   36.8320   28.1910   37.0810 H   0  0  0  0  0  0  0  0  0  0  0  0
   33.9980   29.3160   40.1400 H   0  0  0  0  0  0  0  0  0  0  0  0
   37.3440   25.1540   40.9550 Cl  0  0  0  0  0  0  0  0  0  0  0  0
   38.2570   26.4140   41.7560 C   0  0  0  0  0  0  0  0  0  0  0  0
   38.1050   27.7520   41.4370 C   0  0  0  0  0  0  0  0  0  0  0  0
   38.7930   28.7910   42.0300 C   0  0  0  0  0  0  0  0  0  0  0  0
   38.6260   29.8160   41.7320 H   0  0  0  0  0  0  0  0  0  0  0  0
   39.7100   28.4650   43.0230 C   0  0  0  0  0  0  0  0  0  0  0  0
   40.2780   29.2180   43.5240 H   0  0  0  0  0  0  0  0  0  0  0  0
   39.9070   27.1290   43.3890 C   0  0  0  0  0  0  0  0  0  0  0  0
   40.5920   26.7950   44.1410 H   0  0  0  0  0  0  0  0  0  0  0  0
   39.1820   26.1340   42.7510 C   0  0  0  0  0  0  0  0  0  0  0  0
   39.3660   24.4210   43.1480 Cl  0  0  0  0  0  0  0  0  0  0  0  0
  1  4  1  6  0  0  0
  1  3  1  0  0  0  0
  1 25  1  0  0  0  0
  2  5  1  0  0  0  0
  2  1  1  0  0  0  0
  2  3  1  0  0  0  0
  3  7  1  1  0  0  0
  6  2  1  0  0  0  0
  8  3  1  0  0  0  0
  8  9  1  0  0  0  0
  9 18  1  0  0  0  0
 10  9  2  0  0  0  0
 10 19  1  0  0  0  0
 11 10  1  0  0  0  0
 12 11  1  0  0  0  0
 13 12  2  0  0  0  0
 14 15  2  0  0  0  0
 14 13  1  0  0  0  0
 15 16  1  0  0  0  0
 16 17  1  0  0  0  0
 16 11  2  0  0  0  0
 17  8  2  0  0  0  0
 20 13  1  0  0  0  0
 21 14  1  0  0  0  0
 22 15  1  0  0  0  0
 23 17  1  0  0  0  0
 24 25  2  0  0  0  0
 24 29  1  0  0  0  0
 25 26  1  0  0  0  0
 26 31  1  0  0  0  0
 26 27  2  0  0  0  0
 28 27  1  0  0  0  0
 28 34  1  0  0  0  0
 29 28  2  0  0  0  0
 30 24  1  0  0  0  0
 32 33  1  0  0  0  0
 33 41  1  0  0  0  0
 34 33  2  0  0  0  0
 34 35  1  0  0  0  0
 35 37  2  0  0  0  0
 36 35  1  0  0  0  0
 37 39  1  0  0  0  0
 37 38  1  0  0  0  0
 39 40  1  0  0  0  0
 41 42  1  0  0  0  0
 41 39  2  0  0  0  0
M  END
>  <minimizedAffinity>
-6.69321728

$$$$

 OpenBabel03252503223D

 42 46  0  0  1  0  0  0  0  0999 V2000
   34.6900   29.2490   37.7010 C   0  0  1  0  0  0  0  0  0  0  0  0
   34.6690   28.9550   36.2820 C   0  0  0  0  0  0  0  0  0  0  0  0
   33.4660   28.6030   37.1180 C   0  0  2  0  0  0  0  0  0  0  0  0
   34.6380   30.3050   38.0400 H   0  0  0  0  0  0  0  0  0  0  0  0
   35.3180   28.1410   35.9070 H   0  0  0  0  0  0  0  0  0  0  0  0
   34.5880   29.7810   35.5320 H   0  0  0  0  0  0  0  0  0  0  0  0
   33.3010   27.5370   37.3020 H   0  0  0  0  0  0  0  0  0  0  0  0
   32.2860   29.4940   36.9630 C   0  0  0  0  0  0  0  0  0  0  0  0
   31.3960   29.7920   37.9820 C   0  0  0  0  0  0  0  0  0  0  0  0
   30.3230   30.6500   37.7760 C   0  0  0  0  0  0  0  0  0  0  0  0
   30.1230   31.2240   36.5420 C   0  0  0  0  0  0  0  0  0  0  0  0
   29.0950   32.0760   36.2910 N   0  0  0  0  0  0  0  0  0  0  0  0
   28.9260   32.6340   35.0720 C   0  0  0  0  0  0  0  0  0  0  0  0
   29.7820   32.3860   33.9850 C   0  0  0  0  0  0  0  0  0  0  0  0
   30.8340   31.5230   34.2190 C   0  0  0  0  0  0  0  0  0  0  0  0
   30.9930   30.9570   35.4800 C   0  0  0  0  0  0  0  0  0  0  0  0
   32.0480   30.0930   35.7380 C   0  0  0  0  0  0  0  0  0  0  0  0
   31.5840   29.3220   38.9400 H   0  0  0  0  0  0  0  0  0  0  0  0
   29.6330   30.8700   38.5920 H   0  0  0  0  0  0  0  0  0  0  0  0
   28.1100   33.3150   34.8550 H   0  0  0  0  0  0  0  0  0  0  0  0
   29.6030   32.8600   33.0300 H   0  0  0  0  0  0  0  0  0  0  0  0
   31.5100   31.3100   33.4060 H   0  0  0  0  0  0  0  0  0  0  0  0
   32.6560   29.9330   34.8570 H   0  0  0  0  0  0  0  0  0  0  0  0
   35.4320   28.7080   40.0510 C   0  0  0  0  0  0  0  0  0  0  0  0
   35.5130   28.4520   38.6470 C   0  0  0  0  0  0  0  0  0  0  0  0
   36.3760   27.4660   38.2100 C   0  0  0  0  0  0  0  0  0  0  0  0
   37.0980   26.8000   39.1570 N   0  0  0  0  0  0  0  0  0  0  0  0
   37.0120   27.0500   40.4760 C   0  0  0  0  0  0  0  0  0  0  0  0
   36.1720   28.0120   40.9250 N   0  0  0  0  0  0  0  0  0  0  0  0
   34.7570   29.4840   40.4300 H   0  0  0  0  0  0  0  0  0  0  0  0
   36.4660   27.2430   37.1560 H   0  0  0  0  0  0  0  0  0  0  0  0
   39.0580   28.6650   42.0010 Cl  0  0  0  0  0  0  0  0  0  0  0  0
   38.7980   26.9410   42.1560 C   0  0  0  0  0  0  0  0  0  0  0  0
   37.8360   26.2710   41.4190 C   0  0  0  0  0  0  0  0  0  0  0  0
   37.5830   24.9170   41.4940 C   0  0  0  0  0  0  0  0  0  0  0  0
   36.8150   24.4560   40.8890 H   0  0  0  0  0  0  0  0  0  0  0  0
   38.3530   24.1700   42.3800 C   0  0  0  0  0  0  0  0  0  0  0  0
   38.2110   23.1180   42.4890 H   0  0  0  0  0  0  0  0  0  0  0  0
   39.3400   24.7930   43.1510 C   0  0  0  0  0  0  0  0  0  0  0  0
   39.9740   24.2920   43.8540 H   0  0  0  0  0  0  0  0  0  0  0  0
   39.5430   26.1590   43.0260 C   0  0  0  0  0  0  0  0  0  0  0  0
   40.7660   27.0290   43.9600 Cl  0  0  0  0  0  0  0  0  0  0  0  0
  1  4  1  1  0  0  0
  1 25  1  0  0  0  0
  2  3  1  0  0  0  0
  2  1  1  0  0  0  0
  3  7  1  1  0  0  0
  3  1  1  0  0  0  0
  5  2  1  0  0  0  0
  6  2  1  0  0  0  0
  8  3  1  0  0  0  0
  8  9  1  0  0  0  0
  9 18  1  0  0  0  0
 10  9  2  0  0  0  0
 10 19  1  0  0  0  0
 11 10  1  0  0  0  0
 12 11  1  0  0  0  0
 13 12  2  0  0  0  0
 14 15  2  0  0  0  0
 14 13  1  0  0  0  0
 15 16  1  0  0  0  0
 16 17  1  0  0  0  0
 16 11  2  0  0  0  0
 17  8  2  0  0  0  0
 20 13  1  0  0  0  0
 21 14  1  0  0  0  0
 22 15  1  0  0  0  0
 23 17  1  0  0  0  0
 24 30  1  0  0  0  0
 24 29  1  0  0  0  0
 25 24  2  0  0  0  0
 26 25  1  0  0  0  0
 26 27  2  0  0  0  0
 27 28  1  0  0  0  0
 28 29  2  0  0  0  0
 28 34  1  0  0  0  0
 31 26  1  0  0  0  0
 32 33  1  0  0  0  0
 33 41  1  0  0  0  0
 34 35  1  0  0  0  0
 34 33  2  0  0  0  0
 35 37  2  0  0  0  0
 36 35  1  0  0  0  0
 37 38  1  0  0  0  0
 37 39  1  0  0  0  0
 39 40  1  0  0  0  0
 41 39  2  0  0  0  0
 41 42  1  0  0  0  0
M  END
>  <minimizedAffinity>
-6.6890583

$$$$

 OpenBabel03252503223D

 42 46  0  0  1  0  0  0  0  0999 V2000
   37.9480   28.1060   41.9050 C   0  0  1  0  0  0  0  0  0  0  0  0
   36.5860   27.8540   42.3290 C   0  0  0  0  0  0  0  0  0  0  0  0
   37.0230   27.3870   40.9650 C   0  0  2  0  0  0  0  0  0  0  0  0
   38.7810   27.5470   42.3820 H   0  0  0  0  0  0  0  0  0  0  0  0
   35.8940   28.7130   42.4050 H   0  0  0  0  0  0  0  0  0  0  0  0
   36.3690   27.0930   43.1210 H   0  0  0  0  0  0  0  0  0  0  0  0
   36.6150   27.9360   40.1120 H   0  0  0  0  0  0  0  0  0  0  0  0
   37.2640   25.9260   40.8250 C   0  0  0  0  0  0  0  0  0  0  0  0
   38.1600   25.2070   41.6000 C   0  0  0  0  0  0  0  0  0  0  0  0
   38.3230   23.8380   41.4320 C   0  0  0  0  0  0  0  0  0  0  0  0
   37.5890   23.1650   40.4820 C   0  0  0  0  0  0  0  0  0  0  0  0
   37.7050   21.8260   40.2840 N   0  0  0  0  0  0  0  0  0  0  0  0
   36.9660   21.1870   39.3500 C   0  0  0  0  0  0  0  0  0  0  0  0
   36.0350   21.8400   38.5240 C   0  0  0  0  0  0  0  0  0  0  0  0
   35.9020   23.2020   38.7090 C   0  0  0  0  0  0  0  0  0  0  0  0
   36.6710   23.8440   39.6750 C   0  0  0  0  0  0  0  0  0  0  0  0
   36.5470   25.2100   39.8820 C   0  0  0  0  0  0  0  0  0  0  0  0
   38.7200   25.7690   42.3370 H   0  0  0  0  0  0  0  0  0  0  0  0
   39.0340   23.2910   42.0510 H   0  0  0  0  0  0  0  0  0  0  0  0
   37.0470   20.1190   39.1790 H   0  0  0  0  0  0  0  0  0  0  0  0
   35.4680   21.2810   37.7920 H   0  0  0  0  0  0  0  0  0  0  0  0
   35.1960   23.7350   38.0910 H   0  0  0  0  0  0  0  0  0  0  0  0
   35.8290   25.6520   39.2030 H   0  0  0  0  0  0  0  0  0  0  0  0
   37.9430   30.0600   40.3080 C   0  0  0  0  0  0  0  0  0  0  0  0
   38.4030   29.4690   41.5250 C   0  0  0  0  0  0  0  0  0  0  0  0
   39.2790   30.1900   42.3130 C   0  0  0  0  0  0  0  0  0  0  0  0
   39.6470   31.4270   41.8710 N   0  0  0  0  0  0  0  0  0  0  0  0
   39.2060   31.9720   40.7230 C   0  0  0  0  0  0  0  0  0  0  0  0
   38.3470   31.2820   39.9370 N   0  0  0  0  0  0  0  0  0  0  0  0
   37.2470   29.5130   39.6610 H   0  0  0  0  0  0  0  0  0  0  0  0
   39.6500   29.7760   43.2410 H   0  0  0  0  0  0  0  0  0  0  0  0
   41.6110   32.0120   38.8960 Cl  0  0  0  0  0  0  0  0  0  0  0  0
   40.7640   33.4200   39.4980 C   0  0  0  0  0  0  0  0  0  0  0  0
   39.6660   33.3190   40.3350 C   0  0  0  0  0  0  0  0  0  0  0  0
   38.9560   34.3890   40.8420 C   0  0  0  0  0  0  0  0  0  0  0  0
   38.1050   34.2390   41.4920 H   0  0  0  0  0  0  0  0  0  0  0  0
   39.3780   35.6640   40.4840 C   0  0  0  0  0  0  0  0  0  0  0  0
   38.8760   36.5360   40.8390 H   0  0  0  0  0  0  0  0  0  0  0  0
   40.4820   35.8290   39.6410 C   0  0  0  0  0  0  0  0  0  0  0  0
   40.8700   36.7730   39.3180 H   0  0  0  0  0  0  0  0  0  0  0  0
   41.1510   34.7100   39.1660 C   0  0  0  0  0  0  0  0  0  0  0  0
   42.5540   34.8240   38.0970 Cl  0  0  0  0  0  0  0  0  0  0  0  0
  1  2  1  0  0  0  0
  1  4  1  1  0  0  0
  2  5  1  0  0  0  0
  2  6  1  0  0  0  0
  3  7  1  6  0  0  0
  3  1  1  0  0  0  0
  3  2  1  0  0  0  0
  8  3  1  0  0  0  0
  8  9  1  0  0  0  0
  9 18  1  0  0  0  0
 10  9  2  0  0  0  0
 10 19  1  0  0  0  0
 11 10  1  0  0  0  0
 12 11  1  0  0  0  0
 13 12  2  0  0  0  0
 14 15  2  0  0  0  0
 14 13  1  0  0  0  0
 15 16  1  0  0  0  0
 16 17  1  0  0  0  0
 16 11  2  0  0  0  0
 17  8  2  0  0  0  0
 20 13  1  0  0  0  0
 21 14  1  0  0  0  0
 22 15  1  0  0  0  0
 23 17  1  0  0  0  0
 24 25  1  0  0  0  0
 25  1  1  0  0  0  0
 25 26  2  0  0  0  0
 26 31  1  0  0  0  0
 27 26  1  0  0  0  0
 28 27  2  0  0  0  0
 29 24  2  0  0  0  0
 29 28  1  0  0  0  0
 30 24  1  0  0  0  0
 32 33  1  0  0  0  0
 33 34  1  0  0  0  0
 34 28  1  0  0  0  0
 34 35  2  0  0  0  0
 35 36  1  0  0  0  0
 37 38  1  0  0  0  0
 37 35  1  0  0  0  0
 39 37  2  0  0  0  0
 40 39  1  0  0  0  0
 41 33  2  0  0  0  0
 41 39  1  0  0  0  0
 42 41  1  0  0  0  0
M  END
>  <minimizedAffinity>
-6.61099529

$$$$

 OpenBabel03252503223D

 42 46  0  0  1  0  0  0  0  0999 V2000
   38.2590   27.2780   42.0100 C   0  0  1  0  0  0  0  0  0  0  0  0
   36.9020   27.0740   42.4760 C   0  0  0  0  0  0  0  0  0  0  0  0
   37.2400   26.7450   41.0450 C   0  0  2  0  0  0  0  0  0  0  0  0
   39.0670   26.6080   42.3730 H   0  0  0  0  0  0  0  0  0  0  0  0
   36.2830   27.9660   42.6890 H   0  0  0  0  0  0  0  0  0  0  0  0
   36.6640   26.2420   43.1850 H   0  0  0  0  0  0  0  0  0  0  0  0
   36.8360   27.4200   40.2850 H   0  0  0  0  0  0  0  0  0  0  0  0
   37.3600   25.2970   40.7240 C   0  0  0  0  0  0  0  0  0  0  0  0
   38.4220   24.4980   41.1170 C   0  0  0  0  0  0  0  0  0  0  0  0
   38.4630   23.1470   40.8010 C   0  0  0  0  0  0  0  0  0  0  0  0
   37.4390   22.5720   40.0830 C   0  0  0  0  0  0  0  0  0  0  0  0
   37.4280   21.2530   39.7560 N   0  0  0  0  0  0  0  0  0  0  0  0
   36.4060   20.7110   39.0580 C   0  0  0  0  0  0  0  0  0  0  0  0
   35.2910   21.4490   38.6230 C   0  0  0  0  0  0  0  0  0  0  0  0
   35.2840   22.7910   38.9450 C   0  0  0  0  0  0  0  0  0  0  0  0
   36.3440   23.3340   39.6640 C   0  0  0  0  0  0  0  0  0  0  0  0
   36.3520   24.6790   40.0040 C   0  0  0  0  0  0  0  0  0  0  0  0
   39.2090   24.9850   41.6790 H   0  0  0  0  0  0  0  0  0  0  0  0
   39.3090   22.5350   41.1180 H   0  0  0  0  0  0  0  0  0  0  0  0
   36.3810   19.6600   38.7890 H   0  0  0  0  0  0  0  0  0  0  0  0
   34.5000   20.9660   38.0680 H   0  0  0  0  0  0  0  0  0  0  0  0
   34.4430   23.3880   38.6260 H   0  0  0  0  0  0  0  0  0  0  0  0
   35.4770   25.1900   39.6250 H   0  0  0  0  0  0  0  0  0  0  0  0
   39.0890   29.0640   40.4330 C   0  0  0  0  0  0  0  0  0  0  0  0
   38.8010   28.6400   41.7670 C   0  0  0  0  0  0  0  0  0  0  0  0
   39.0500   29.5200   42.8020 C   0  0  0  0  0  0  0  0  0  0  0  0
   39.5600   30.7430   42.4760 N   0  0  0  0  0  0  0  0  0  0  0  0
   39.8270   31.1300   41.2160 C   0  0  0  0  0  0  0  0  0  0  0  0
   39.5890   30.2830   40.1870 N   0  0  0  0  0  0  0  0  0  0  0  0
   38.9020   28.3890   39.5900 H   0  0  0  0  0  0  0  0  0  0  0  0
   38.8450   29.2370   43.8250 H   0  0  0  0  0  0  0  0  0  0  0  0
   37.7830   33.2100   40.4270 Cl  0  0  0  0  0  0  0  0  0  0  0  0
   39.5020   33.4850   40.6030 C   0  0  0  0  0  0  0  0  0  0  0  0
   40.3770   32.4760   40.9700 C   0  0  0  0  0  0  0  0  0  0  0  0
   41.7400   32.6290   41.1250 C   0  0  0  0  0  0  0  0  0  0  0  0
   42.3670   31.7980   41.4150 H   0  0  0  0  0  0  0  0  0  0  0  0
   42.2730   33.8930   40.8960 C   0  0  0  0  0  0  0  0  0  0  0  0
   43.3180   34.0820   40.9980 H   0  0  0  0  0  0  0  0  0  0  0  0
   41.4370   34.9510   40.5230 C   0  0  0  0  0  0  0  0  0  0  0  0
   41.7660   35.9510   40.3290 H   0  0  0  0  0  0  0  0  0  0  0  0
   40.0750   34.7290   40.3850 C   0  0  0  0  0  0  0  0  0  0  0  0
   38.9460   36.0060   39.9180 Cl  0  0  0  0  0  0  0  0  0  0  0  0
  1  4  1  1  0  0  0
  1  2  1  0  0  0  0
  2  5  1  0  0  0  0
  2  6  1  0  0  0  0
  3  7  1  6  0  0  0
  3  1  1  0  0  0  0
  3  2  1  0  0  0  0
  8  3  1  0  0  0  0
  8  9  1  0  0  0  0
  9 18  1  0  0  0  0
 10  9  2  0  0  0  0
 10 19  1  0  0  0  0
 11 10  1  0  0  0  0
 12 11  1  0  0  0  0
 13 12  2  0  0  0  0
 14 15  2  0  0  0  0
 14 13  1  0  0  0  0
 15 16  1  0  0  0  0
 16 17  1  0  0  0  0
 16 11  2  0  0  0  0
 17  8  2  0  0  0  0
 20 13  1  0  0  0  0
 21 14  1  0  0  0  0
 22 15  1  0  0  0  0
 23 17  1  0  0  0  0
 24 25  1  0  0  0  0
 25  1  1  0  0  0  0
 25 26  2  0  0  0  0
 26 31  1  0  0  0  0
 27 26  1  0  0  0  0
 28 27  2  0  0  0  0
 29 24  2  0  0  0  0
 29 28  1  0  0  0  0
 30 24  1  0  0  0  0
 32 33  1  0  0  0  0
 33 34  1  0  0  0  0
 34 35  2  0  0  0  0
 34 28  1  0  0  0  0
 35 36  1  0  0  0  0
 37 38  1  0  0  0  0
 37 35  1  0  0  0  0
 39 37  2  0  0  0  0
 40 39  1  0  0  0  0
 41 39  1  0  0  0  0
 41 33  2  0  0  0  0
 42 41  1  0  0  0  0
M  END
>  <minimizedAffinity>
-6.4477005

$$$$

 OpenBabel03252503223D

 42 46  0  0  1  0  0  0  0  0999 V2000
   35.8940   29.1160   39.7190 C   0  0  1  0  0  0  0  0  0  0  0  0
   34.6280   29.1090   39.0130 C   0  0  0  0  0  0  0  0  0  0  0  0
   35.8210   28.4390   38.3800 C   0  0  2  0  0  0  0  0  0  0  0  0
   36.0110   28.4980   40.6350 H   0  0  0  0  0  0  0  0  0  0  0  0
   34.2620   30.0630   38.5890 H   0  0  0  0  0  0  0  0  0  0  0  0
   33.7790   28.4780   39.3760 H   0  0  0  0  0  0  0  0  0  0  0  0
   36.2570   28.9460   37.5150 H   0  0  0  0  0  0  0  0  0  0  0  0
   35.8230   26.9520   38.4150 C   0  0  0  0  0  0  0  0  0  0  0  0
   35.0750   26.1520   37.5670 C   0  0  0  0  0  0  0  0  0  0  0  0
   35.1380   24.7670   37.6390 C   0  0  0  0  0  0  0  0  0  0  0  0
   35.9560   24.1590   38.5640 C   0  0  0  0  0  0  0  0  0  0  0  0
   36.0600   22.8080   38.6690 N   0  0  0  0  0  0  0  0  0  0  0  0
   36.8770   22.2350   39.5810 C   0  0  0  0  0  0  0  0  0  0  0  0
   37.6710   22.9720   40.4760 C   0  0  0  0  0  0  0  0  0  0  0  0
   37.5790   24.3470   40.3860 C   0  0  0  0  0  0  0  0  0  0  0  0
   36.7320   24.9210   39.4420 C   0  0  0  0  0  0  0  0  0  0  0  0
   36.6320   26.3000   39.3300 C   0  0  0  0  0  0  0  0  0  0  0  0
   34.4430   26.6660   36.8520 H   0  0  0  0  0  0  0  0  0  0  0  0
   34.5400   24.1550   36.9630 H   0  0  0  0  0  0  0  0  0  0  0  0
   36.9720   21.1590   39.6780 H   0  0  0  0  0  0  0  0  0  0  0  0
   38.3080   22.4640   41.1860 H   0  0  0  0  0  0  0  0  0  0  0  0
   38.1740   24.9440   41.0590 H   0  0  0  0  0  0  0  0  0  0  0  0
   37.2530   26.8050   40.0580 H   0  0  0  0  0  0  0  0  0  0  0  0
   37.2170   30.9790   38.6520 C   0  0  0  0  0  0  0  0  0  0  0  0
   36.7150   30.3490   39.8310 C   0  0  0  0  0  0  0  0  0  0  0  0
   37.0240   30.9090   41.0560 C   0  0  0  0  0  0  0  0  0  0  0  0
   37.7940   32.0350   41.0540 N   0  0  0  0  0  0  0  0  0  0  0  0
   38.2610   32.6190   39.9360 C   0  0  0  0  0  0  0  0  0  0  0  0
   37.9700   32.0860   38.7250 N   0  0  0  0  0  0  0  0  0  0  0  0
   36.9900   30.5590   37.6650 H   0  0  0  0  0  0  0  0  0  0  0  0
   36.6620   30.4620   41.9710 H   0  0  0  0  0  0  0  0  0  0  0  0
   41.2070   32.1150   40.3760 Cl  0  0  0  0  0  0  0  0  0  0  0  0
   40.4500   33.6870   40.2440 C   0  0  0  0  0  0  0  0  0  0  0  0
   39.0880   33.8360   40.0410 C   0  0  0  0  0  0  0  0  0  0  0  0
   38.4320   35.0450   39.9300 C   0  0  0  0  0  0  0  0  0  0  0  0
   37.3640   35.0900   39.7700 H   0  0  0  0  0  0  0  0  0  0  0  0
   39.1990   36.2000   40.0270 C   0  0  0  0  0  0  0  0  0  0  0  0
   38.7580   37.1690   39.9490 H   0  0  0  0  0  0  0  0  0  0  0  0
   40.5800   36.1130   40.2320 C   0  0  0  0  0  0  0  0  0  0  0  0
   41.2410   36.9510   40.3180 H   0  0  0  0  0  0  0  0  0  0  0  0
   41.1770   34.8650   40.3360 C   0  0  0  0  0  0  0  0  0  0  0  0
   42.9130   34.6590   40.5940 Cl  0  0  0  0  0  0  0  0  0  0  0  0
  1 25  1  0  0  0  0
  1  4  1  1  0  0  0
  2  6  1  0  0  0  0
  2  1  1  0  0  0  0
  3  7  1  6  0  0  0
  3  8  1  0  0  0  0
  3  2  1  0  0  0  0
  3  1  1  0  0  0  0
  5  2  1  0  0  0  0
  8 17  1  0  0  0  0
  9 10  1  0  0  0  0
  9  8  2  0  0  0  0
 10 11  2  0  0  0  0
 11 12  1  0  0  0  0
 11 16  1  0  0  0  0
 12 13  2  0  0  0  0
 13 20  1  0  0  0  0
 13 14  1  0  0  0  0
 14 21  1  0  0  0  0
 15 14  2  0  0  0  0
 15 22  1  0  0  0  0
 16 15  1  0  0  0  0
 17 16  2  0  0  0  0
 17 23  1  0  0  0  0
 18  9  1  0  0  0  0
 19 10  1  0  0  0  0
 24 29  2  0  0  0  0
 24 25  1  0  0  0  0
 25 26  2  0  0  0  0
 26 31  1  0  0  0  0
 27 26  1  0  0  0  0
 28 34  1  0  0  0  0
 28 27  2  0  0  0  0
 29 28  1  0  0  0  0
 30 24  1  0  0  0  0
 33 41  1  0  0  0  0
 33 32  1  0  0  0  0
 34 33  2  0  0  0  0
 35 37  2  0  0  0  0
 35 34  1  0  0  0  0
 36 35  1  0  0  0  0
 37 39  1  0  0  0  0
 38 37  1  0  0  0  0
 39 40  1  0  0  0  0
 39 41  2  0  0  0  0
 41 42  1  0  0  0  0
M  END
>  <minimizedAffinity>
-6.36633492

$$$$

 OpenBabel03252503223D

 42 46  0  0  1  0  0  0  0  0999 V2000
   37.6850   29.5410   41.4680 C   0  0  1  0  0  0  0  0  0  0  0  0
   38.7230   29.8300   42.4370 C   0  0  0  0  0  0  0  0  0  0  0  0
   38.9420   30.2160   40.9970 C   0  0  2  0  0  0  0  0  0  0  0  0
   36.7360   30.1170   41.4970 H   0  0  0  0  0  0  0  0  0  0  0  0
   39.2970   28.9830   42.8580 H   0  0  0  0  0  0  0  0  0  0  0  0
   38.5800   30.6360   43.2000 H   0  0  0  0  0  0  0  0  0  0  0  0
   39.6770   29.6240   40.4440 H   0  0  0  0  0  0  0  0  0  0  0  0
   38.8100   31.6640   40.6860 C   0  0  0  0  0  0  0  0  0  0  0  0
   37.6200   32.2820   40.3410 C   0  0  0  0  0  0  0  0  0  0  0  0
   37.5620   33.6450   40.0820 C   0  0  0  0  0  0  0  0  0  0  0  0
   38.7000   34.4140   40.1650 C   0  0  0  0  0  0  0  0  0  0  0  0
   38.6960   35.7520   39.9300 N   0  0  0  0  0  0  0  0  0  0  0  0
   39.8260   36.4860   40.0270 C   0  0  0  0  0  0  0  0  0  0  0  0
   41.0740   35.9400   40.3720 C   0  0  0  0  0  0  0  0  0  0  0  0
   41.1000   34.5810   40.6150 C   0  0  0  0  0  0  0  0  0  0  0  0
   39.9270   33.8390   40.5110 C   0  0  0  0  0  0  0  0  0  0  0  0
   39.9310   32.4740   40.7580 C   0  0  0  0  0  0  0  0  0  0  0  0
   36.7450   31.6460   40.2850 H   0  0  0  0  0  0  0  0  0  0  0  0
   36.6150   34.1120   39.8100 H   0  0  0  0  0  0  0  0  0  0  0  0
   39.8400   37.5550   39.8420 H   0  0  0  0  0  0  0  0  0  0  0  0
   41.9480   36.5730   40.4370 H   0  0  0  0  0  0  0  0  0  0  0  0
   42.0420   34.1280   40.8830 H   0  0  0  0  0  0  0  0  0  0  0  0
   40.9230   32.1170   41.0010 H   0  0  0  0  0  0  0  0  0  0  0  0
   37.2530   27.1030   41.9530 C   0  0  0  0  0  0  0  0  0  0  0  0
   37.4230   28.1550   41.0010 C   0  0  0  0  0  0  0  0  0  0  0  0
   37.3490   27.8410   39.6580 C   0  0  0  0  0  0  0  0  0  0  0  0
   37.1180   26.5370   39.3300 N   0  0  0  0  0  0  0  0  0  0  0  0
   36.9590   25.5560   40.2360 C   0  0  0  0  0  0  0  0  0  0  0  0
   37.0280   25.8420   41.5580 N   0  0  0  0  0  0  0  0  0  0  0  0
   37.3060   27.3190   43.0260 H   0  0  0  0  0  0  0  0  0  0  0  0
   37.4730   28.6100   38.9070 H   0  0  0  0  0  0  0  0  0  0  0  0
   39.4140   23.8000   40.1250 Cl  0  0  0  0  0  0  0  0  0  0  0  0
   37.7890   23.3090   39.7000 C   0  0  0  0  0  0  0  0  0  0  0  0
   36.7120   24.1760   39.7780 C   0  0  0  0  0  0  0  0  0  0  0  0
   35.4100   23.8510   39.4570 C   0  0  0  0  0  0  0  0  0  0  0  0
   34.6140   24.5770   39.5420 H   0  0  0  0  0  0  0  0  0  0  0  0
   35.1620   22.5530   39.0240 C   0  0  0  0  0  0  0  0  0  0  0  0
   34.1790   22.2330   38.7600 H   0  0  0  0  0  0  0  0  0  0  0  0
   36.2110   21.6330   38.9240 C   0  0  0  0  0  0  0  0  0  0  0  0
   36.1060   20.6180   38.6010 H   0  0  0  0  0  0  0  0  0  0  0  0
   37.4970   22.0250   39.2630 C   0  0  0  0  0  0  0  0  0  0  0  0
   38.8820   20.9300   39.1690 Cl  0  0  0  0  0  0  0  0  0  0  0  0
  1  4  1  1  0  0  0
  1  2  1  0  0  0  0
  2  5  1  0  0  0  0
  2  6  1  0  0  0  0
  3  7  1  6  0  0  0
  3  1  1  0  0  0  0
  3  2  1  0  0  0  0
  8 17  1  0  0  0  0
  8  3  1  0  0  0  0
  9  8  2  0  0  0  0
 10 11  2  0  0  0  0
 10  9  1  0  0  0  0
 11 16  1  0  0  0  0
 12 13  2  0  0  0  0
 12 11  1  0  0  0  0
 13 14  1  0  0  0  0
 14 21  1  0  0  0  0
 14 15  2  0  0  0  0
 15 22  1  0  0  0  0
 16 15  1  0  0  0  0
 16 17  2  0  0  0  0
 17 23  1  0  0  0  0
 18  9  1  0  0  0  0
 19 10  1  0  0  0  0
 20 13  1  0  0  0  0
 24 30  1  0  0  0  0
 25  1  1  0  0  0  0
 25 24  2  0  0  0  0
 26 25  1  0  0  0  0
 27 26  2  0  0  0  0
 27 28  1  0  0  0  0
 28 29  2  0  0  0  0
 29 24  1  0  0  0  0
 31 26  1  0  0  0  0
 33 34  1  0  0  0  0
 33 32  1  0  0  0  0
 34 28  1  0  0  0  0
 35 36  1  0  0  0  0
 35 34  2  0  0  0  0
 37 35  1  0  0  0  0
 38 37  1  0  0  0  0
 39 37  2  0  0  0  0
 39 41  1  0  0  0  0
 40 39  1  0  0  0  0
 41 33  2  0  0  0  0
 42 41  1  0  0  0  0
M  END
>  <minimizedAffinity>
-6.33359385

$$$$

 OpenBabel03252503223D

 42 46  0  0  1  0  0  0  0  0999 V2000
   36.2640   29.0230   40.0300 C   0  0  1  0  0  0  0  0  0  0  0  0
   34.9470   28.9420   39.4310 C   0  0  0  0  0  0  0  0  0  0  0  0
   36.0900   28.2010   38.7850 C   0  0  2  0  0  0  0  0  0  0  0  0
   36.4570   28.5120   40.9970 H   0  0  0  0  0  0  0  0  0  0  0  0
   34.5430   29.8430   38.9330 H   0  0  0  0  0  0  0  0  0  0  0  0
   34.1320   28.3580   39.9290 H   0  0  0  0  0  0  0  0  0  0  0  0
   36.4530   28.6070   37.8370 H   0  0  0  0  0  0  0  0  0  0  0  0
   36.1030   26.7280   38.9860 C   0  0  0  0  0  0  0  0  0  0  0  0
   36.6700   26.0960   40.0800 C   0  0  0  0  0  0  0  0  0  0  0  0
   36.6310   24.7140   40.2170 C   0  0  0  0  0  0  0  0  0  0  0  0
   36.0220   23.9410   39.2560 C   0  0  0  0  0  0  0  0  0  0  0  0
   35.9490   22.5870   39.3460 N   0  0  0  0  0  0  0  0  0  0  0  0
   35.3370   21.8510   38.3930 C   0  0  0  0  0  0  0  0  0  0  0  0
   34.7360   22.4110   37.2520 C   0  0  0  0  0  0  0  0  0  0  0  0
   34.7990   23.7860   37.1410 C   0  0  0  0  0  0  0  0  0  0  0  0
   35.4330   24.5290   38.1320 C   0  0  0  0  0  0  0  0  0  0  0  0
   35.5010   25.9120   38.0430 C   0  0  0  0  0  0  0  0  0  0  0  0
   37.1410   26.7360   40.8160 H   0  0  0  0  0  0  0  0  0  0  0  0
   37.0850   24.2370   41.0860 H   0  0  0  0  0  0  0  0  0  0  0  0
   35.2700   20.7700   38.4500 H   0  0  0  0  0  0  0  0  0  0  0  0
   34.2580   21.7770   36.5200 H   0  0  0  0  0  0  0  0  0  0  0  0
   34.3480   24.2500   36.2780 H   0  0  0  0  0  0  0  0  0  0  0  0
   35.0360   26.2760   37.1360 H   0  0  0  0  0  0  0  0  0  0  0  0
   38.0750   30.5320   40.9310 C   0  0  0  0  0  0  0  0  0  0  0  0
   37.0850   30.2590   39.9380 C   0  0  0  0  0  0  0  0  0  0  0  0
   36.9120   31.1730   38.9170 C   0  0  0  0  0  0  0  0  0  0  0  0
   37.7060   32.2830   38.9280 N   0  0  0  0  0  0  0  0  0  0  0  0
   38.6350   32.5280   39.8690 C   0  0  0  0  0  0  0  0  0  0  0  0
   38.8200   31.6440   40.8780 N   0  0  0  0  0  0  0  0  0  0  0  0
   38.2370   29.8260   41.7540 H   0  0  0  0  0  0  0  0  0  0  0  0
   36.1720   31.0020   38.1470 H   0  0  0  0  0  0  0  0  0  0  0  0
   41.2210   32.2500   38.3330 Cl  0  0  0  0  0  0  0  0  0  0  0  0
   40.6430   33.7120   39.1020 C   0  0  0  0  0  0  0  0  0  0  0  0
   39.4430   33.7590   39.7900 C   0  0  0  0  0  0  0  0  0  0  0  0
   38.9330   34.8780   40.4160 C   0  0  0  0  0  0  0  0  0  0  0  0
   37.9860   34.8470   40.9370 H   0  0  0  0  0  0  0  0  0  0  0  0
   39.6840   36.0470   40.3490 C   0  0  0  0  0  0  0  0  0  0  0  0
   39.3500   36.9490   40.8110 H   0  0  0  0  0  0  0  0  0  0  0  0
   40.9060   36.0590   39.6680 C   0  0  0  0  0  0  0  0  0  0  0  0
   41.5430   36.9140   39.5700 H   0  0  0  0  0  0  0  0  0  0  0  0
   41.3600   34.8990   39.0600 C   0  0  0  0  0  0  0  0  0  0  0  0
   42.8900   34.8230   38.1780 Cl  0  0  0  0  0  0  0  0  0  0  0  0
  1  4  1  1  0  0  0
  2  6  1  0  0  0  0
  2  1  1  0  0  0  0
  3  7  1  6  0  0  0
  3  8  1  0  0  0  0
  3  2  1  0  0  0  0
  3  1  1  0  0  0  0
  5  2  1  0  0  0  0
  8  9  1  0  0  0  0
  9 10  2  0  0  0  0
  9 18  1  0  0  0  0
 10 19  1  0  0  0  0
 11 12  1  0  0  0  0
 11 10  1  0  0  0  0
 13 20  1  0  0  0  0
 13 12  2  0  0  0  0
 14 13  1  0  0  0  0
 15 14  2  0  0  0  0
 15 16  1  0  0  0  0
 16 11  2  0  0  0  0
 17 16  1  0  0  0  0
 17  8  2  0  0  0  0
 21 14  1  0  0  0  0
 22 15  1  0  0  0  0
 23 17  1  0  0  0  0
 24 30  1  0  0  0  0
 25  1  1  0  0  0  0
 25 24  2  0  0  0  0
 26 27  2  0  0  0  0
 26 25  1  0  0  0  0
 27 28  1  0  0  0  0
 28 29  2  0  0  0  0
 29 24  1  0  0  0  0
 31 26  1  0  0  0  0
 32 33  1  0  0  0  0
 33 34  1  0  0  0  0
 34 28  1  0  0  0  0
 34 35  2  0  0  0  0
 35 36  1  0  0  0  0
 37 35  1  0  0  0  0
 37 38  1  0  0  0  0
 39 37  2  0  0  0  0
 40 39  1  0  0  0  0
 41 33  2  0  0  0  0
 41 39  1  0  0  0  0
 42 41  1  0  0  0  0
M  END
>  <minimizedAffinity>
-6.16024971

$$$$

 OpenBabel03252503223D

 42 46  0  0  1  0  0  0  0  0999 V2000
   36.5690   29.3230   39.0580 C   0  0  1  0  0  0  0  0  0  0  0  0
   35.8570   28.6360   40.1160 C   0  0  0  0  0  0  0  0  0  0  0  0
   35.0700   29.4130   39.0930 C   0  0  2  0  0  0  0  0  0  0  0  0
   37.0600   28.7310   38.2560 H   0  0  0  0  0  0  0  0  0  0  0  0
   35.9380   29.0340   41.1450 H   0  0  0  0  0  0  0  0  0  0  0  0
   35.7880   27.5190   40.1220 H   0  0  0  0  0  0  0  0  0  0  0  0
   34.6100   30.3420   39.4400 H   0  0  0  0  0  0  0  0  0  0  0  0
   34.3580   28.6010   38.0700 C   0  0  0  0  0  0  0  0  0  0  0  0
   34.7670   27.3470   37.6470 C   0  0  0  0  0  0  0  0  0  0  0  0
   34.0440   26.6330   36.7010 C   0  0  0  0  0  0  0  0  0  0  0  0
   32.8960   27.1650   36.1600 C   0  0  0  0  0  0  0  0  0  0  0  0
   32.1480   26.5030   35.2380 N   0  0  0  0  0  0  0  0  0  0  0  0
   31.0200   27.0450   34.7300 C   0  0  0  0  0  0  0  0  0  0  0  0
   30.5330   28.3090   35.1050 C   0  0  0  0  0  0  0  0  0  0  0  0
   31.2790   28.9980   36.0400 C   0  0  0  0  0  0  0  0  0  0  0  0
   32.4390   28.4270   36.5540 C   0  0  0  0  0  0  0  0  0  0  0  0
   33.1980   29.0990   37.5010 C   0  0  0  0  0  0  0  0  0  0  0  0
   35.6750   26.9610   38.0940 H   0  0  0  0  0  0  0  0  0  0  0  0
   34.3840   25.6470   36.3810 H   0  0  0  0  0  0  0  0  0  0  0  0
   30.4120   26.5300   33.9930 H   0  0  0  0  0  0  0  0  0  0  0  0
   29.6230   28.6960   34.6680 H   0  0  0  0  0  0  0  0  0  0  0  0
   30.9350   29.9730   36.3500 H   0  0  0  0  0  0  0  0  0  0  0  0
   32.7780   30.0700   37.7300 H   0  0  0  0  0  0  0  0  0  0  0  0
   37.2770   31.1860   40.6050 C   0  0  0  0  0  0  0  0  0  0  0  0
   37.3460   30.5620   39.3210 C   0  0  0  0  0  0  0  0  0  0  0  0
   38.1350   31.1470   38.3500 C   0  0  0  0  0  0  0  0  0  0  0  0
   38.7980   32.2910   38.6860 N   0  0  0  0  0  0  0  0  0  0  0  0
   38.7250   32.8690   39.8990 C   0  0  0  0  0  0  0  0  0  0  0  0
   37.9580   32.3110   40.8650 N   0  0  0  0  0  0  0  0  0  0  0  0
   36.6600   30.7460   41.3970 H   0  0  0  0  0  0  0  0  0  0  0  0
   38.2120   30.7050   37.3660 H   0  0  0  0  0  0  0  0  0  0  0  0
   41.5460   32.4390   40.8890 Cl  0  0  0  0  0  0  0  0  0  0  0  0
   40.7850   33.9920   40.6190 C   0  0  0  0  0  0  0  0  0  0  0  0
   39.4830   34.1060   40.1620 C   0  0  0  0  0  0  0  0  0  0  0  0
   38.8270   35.2980   39.9300 C   0  0  0  0  0  0  0  0  0  0  0  0
   37.8080   35.3160   39.5710 H   0  0  0  0  0  0  0  0  0  0  0  0
   39.5300   36.4730   40.1730 C   0  0  0  0  0  0  0  0  0  0  0  0
   39.0850   37.4300   40.0150 H   0  0  0  0  0  0  0  0  0  0  0  0
   40.8490   36.4210   40.6360 C   0  0  0  0  0  0  0  0  0  0  0  0
   41.4580   37.2750   40.8470 H   0  0  0  0  0  0  0  0  0  0  0  0
   41.4490   35.1880   40.8490 C   0  0  0  0  0  0  0  0  0  0  0  0
   43.1100   35.0260   41.4310 Cl  0  0  0  0  0  0  0  0  0  0  0  0
  1  4  1  6  0  0  0
  1  3  1  0  0  0  0
  1 25  1  0  0  0  0
  1  2  1  0  0  0  0
  2  6  1  0  0  0  0
  2  5  1  0  0  0  0
  3  7  1  1  0  0  0
  3  2  1  0  0  0  0
  8  3  1  0  0  0  0
  9  8  1  0  0  0  0
  9 18  1  0  0  0  0
 10  9  2  0  0  0  0
 11 16  1  0  0  0  0
 11 10  1  0  0  0  0
 12 11  2  0  0  0  0
 13 14  2  0  0  0  0
 13 12  1  0  0  0  0
 14 15  1  0  0  0  0
 15 22  1  0  0  0  0
 15 16  2  0  0  0  0
 16 17  1  0  0  0  0
 17 23  1  0  0  0  0
 17  8  2  0  0  0  0
 19 10  1  0  0  0  0
 20 13  1  0  0  0  0
 21 14  1  0  0  0  0
 24 29  1  0  0  0  0
 24 30  1  0  0  0  0
 25 24  2  0  0  0  0
 26 27  2  0  0  0  0
 26 25  1  0  0  0  0
 27 28  1  0  0  0  0
 28 34  1  0  0  0  0
 28 29  2  0  0  0  0
 31 26  1  0  0  0  0
 33 41  1  0  0  0  0
 33 32  1  0  0  0  0
 34 33  2  0  0  0  0
 35 34  1  0  0  0  0
 35 37  2  0  0  0  0
 36 35  1  0  0  0  0
 37 39  1  0  0  0  0
 38 37  1  0  0  0  0
 39 40  1  0  0  0  0
 39 41  2  0  0  0  0
 41 42  1  0  0  0  0
M  END
>  <minimizedAffinity>
-6.12980652

$$$$
