
 OpenBabel03252506263D

 47 51  0  0  0  0  0  0  0  0999 V2000
   45.5350   27.7150   47.8460 C   0  0  0  0  0  0  0  0  0  0  0  0
   44.9840   28.9760   47.7440 C   0  0  0  0  0  0  0  0  0  0  0  0
   44.1610   29.2070   46.6400 C   0  0  0  0  0  0  0  0  0  0  0  0
   43.9100   28.2320   45.7010 C   0  0  0  0  0  0  0  0  0  0  0  0
   43.1850   28.1550   44.5680 N   0  0  0  0  0  0  0  0  0  0  0  0
   43.2830   26.9400   44.0150 C   0  0  0  0  0  0  0  0  0  0  0  0
   44.1050   26.1490   44.7950 C   0  0  0  0  0  0  0  0  0  0  0  0
   44.4690   26.9830   45.8220 C   0  0  0  0  0  0  0  0  0  0  0  0
   45.2830   26.7480   46.9080 C   0  0  0  0  0  0  0  0  0  0  0  0
   46.1650   27.6070   48.7310 H   0  0  0  0  0  0  0  0  0  0  0  0
   43.6620   30.1380   46.4290 H   0  0  0  0  0  0  0  0  0  0  0  0
   42.6210   28.9410   44.1740 H   0  0  0  0  0  0  0  0  0  0  0  0
   42.7930   26.6210   43.0960 H   0  0  0  0  0  0  0  0  0  0  0  0
   44.3850   25.1220   44.6230 H   0  0  0  0  0  0  0  0  0  0  0  0
   47.9790   26.2190   45.5840 Cl  0  0  0  0  0  0  0  0  0  0  0  0
   47.1380   25.0860   46.6190 C   0  0  0  0  0  0  0  0  0  0  0  0
   45.9320   25.4620   47.1430 C   0  0  0  0  0  0  0  0  0  0  0  0
   45.1830   24.6290   47.9820 C   0  0  0  0  0  0  0  0  0  0  0  0
   44.2270   24.8930   48.4140 H   0  0  0  0  0  0  0  0  0  0  0  0
   45.7020   23.3760   48.2780 C   0  0  0  0  0  0  0  0  0  0  0  0
   45.1330   22.7140   48.9280 H   0  0  0  0  0  0  0  0  0  0  0  0
   46.9240   22.9880   47.7500 C   0  0  0  0  0  0  0  0  0  0  0  0
   47.2920   22.0030   48.0060 H   0  0  0  0  0  0  0  0  0  0  0  0
   47.6520   23.8210   46.9250 C   0  0  0  0  0  0  0  0  0  0  0  0
   49.1890   23.3480   46.2520 Cl  0  0  0  0  0  0  0  0  0  0  0  0
   45.1160   30.1420   48.6150 C   0  0  0  0  0  0  0  0  0  0  0  0
   44.2620   30.8410   48.5010 H   0  0  0  0  0  0  0  0  0  0  0  0
   45.0130   29.7520   49.6660 H   0  0  0  0  0  0  0  0  0  0  0  0
   46.3980   30.8830   48.5620 C   0  0  0  0  0  0  0  0  0  0  0  0
   47.2650   30.2600   48.7850 H   0  0  0  0  0  0  0  0  0  0  0  0
   46.3430   31.6900   49.3280 H   0  0  0  0  0  0  0  0  0  0  0  0
   46.2580   32.9720   45.6710 C   0  0  0  0  0  0  0  0  0  0  0  0
   47.1940   31.9980   45.2740 C   0  0  0  0  0  0  0  0  0  0  0  0
   47.3600   31.1130   46.2860 C   0  0  0  0  0  0  0  0  0  0  0  0
   46.5510   31.5300   47.2730 N   0  0  0  0  0  0  0  0  0  0  0  0
   45.8960   32.6360   46.9050 N   0  0  0  0  0  0  0  0  0  0  0  0
   47.7500   31.8850   44.3330 H   0  0  0  0  0  0  0  0  0  0  0  0
   47.9930   30.2230   46.3680 H   0  0  0  0  0  0  0  0  0  0  0  0
   44.4870   35.9470   44.5300 C   0  0  0  0  0  0  0  0  0  0  0  0
   45.0200   36.1850   43.2660 C   0  0  0  0  0  0  0  0  0  0  0  0
   45.9990   35.3030   42.8170 C   0  0  0  0  0  0  0  0  0  0  0  0
   46.3650   34.2860   43.6230 N   0  0  0  0  0  0  0  0  0  0  0  0
   45.8420   34.0780   44.8270 C   0  0  0  0  0  0  0  0  0  0  0  0
   44.8960   34.9190   45.2780 N   0  0  0  0  0  0  0  0  0  0  0  0
   43.7240   36.6640   44.8380 H   0  0  0  0  0  0  0  0  0  0  0  0
   44.7880   36.9610   42.5720 H   0  0  0  0  0  0  0  0  0  0  0  0
   46.5370   35.3020   41.8870 H   0  0  0  0  0  0  0  0  0  0  0  0
  1 10  1  0  0  0  0
  2  1  1  0  0  0  0
  2 26  1  0  0  0  0
  3  2  2  0  0  0  0
  4  8  2  0  0  0  0
  4  3  1  0  0  0  0
  5  4  1  0  0  0  0
  6  5  1  0  0  0  0
  6  7  2  0  0  0  0
  7  8  1  0  0  0  0
  8  9  1  0  0  0  0
  9 17  1  0  0  0  0
  9  1  2  0  0  0  0
 11  3  1  0  0  0  0
 12  5  1  0  0  0  0
 13  6  1  0  0  0  0
 14  7  1  0  0  0  0
 15 16  1  0  0  0  0
 16 24  2  0  0  0  0
 16 17  1  0  0  0  0
 17 18  2  0  0  0  0
 18 20  1  0  0  0  0
 18 19  1  0  0  0  0
 20 21  1  0  0  0  0
 22 23  1  0  0  0  0
 22 20  2  0  0  0  0
 24 22  1  0  0  0  0
 25 24  1  0  0  0  0
 26 28  1  0  0  0  0
 27 26  1  0  0  0  0
 29 26  1  0  0  0  0
 29 30  1  0  0  0  0
 29 31  1  0  0  0  0
 32 36  2  0  0  0  0
 33 32  1  0  0  0  0
 33 34  2  0  0  0  0
 34 38  1  0  0  0  0
 34 35  1  0  0  0  0
 35 29  1  0  0  0  0
 36 35  1  0  0  0  0
 37 33  1  0  0  0  0
 39 45  1  0  0  0  0
 39 44  1  0  0  0  0
 40 39  2  0  0  0  0
 41 40  1  0  0  0  0
 41 42  2  0  0  0  0
 42 43  1  0  0  0  0
 43 44  2  0  0  0  0
 43 32  1  0  0  0  0
 46 40  1  0  0  0  0
 47 41  1  0  0  0  0
M  END
>  <minimizedAffinity>
-5.38445187

>  <minimizedRMSD>
1.66591585

$$$$
