
 OpenBabel03252506263D

 47 51  0  0  0  0  0  0  0  0999 V2000
   45.5610   27.9830   47.9970 C   0  0  0  0  0  0  0  0  0  0  0  0
   45.0780   29.2760   47.9710 C   0  0  0  0  0  0  0  0  0  0  0  0
   44.2160   29.5960   46.9210 C   0  0  0  0  0  0  0  0  0  0  0  0
   43.8620   28.6750   45.9610 C   0  0  0  0  0  0  0  0  0  0  0  0
   43.0790   28.6830   44.8650 N   0  0  0  0  0  0  0  0  0  0  0  0
   43.0790   27.4870   44.2640 C   0  0  0  0  0  0  0  0  0  0  0  0
   43.8920   26.6220   44.9700 C   0  0  0  0  0  0  0  0  0  0  0  0
   44.3550   27.3930   46.0070 C   0  0  0  0  0  0  0  0  0  0  0  0
   45.2060   27.0700   47.0400 C   0  0  0  0  0  0  0  0  0  0  0  0
   46.2270   27.8060   48.8440 H   0  0  0  0  0  0  0  0  0  0  0  0
   43.7620   30.5620   46.7700 H   0  0  0  0  0  0  0  0  0  0  0  0
   42.5430   29.5140   44.5300 H   0  0  0  0  0  0  0  0  0  0  0  0
   42.5260   27.2320   43.3600 H   0  0  0  0  0  0  0  0  0  0  0  0
   44.1030   25.5880   44.7460 H   0  0  0  0  0  0  0  0  0  0  0  0
   47.7290   26.4030   45.4580 Cl  0  0  0  0  0  0  0  0  0  0  0  0
   46.9170   25.3020   46.5510 C   0  0  0  0  0  0  0  0  0  0  0  0
   45.7910   25.7420   47.1940 C   0  0  0  0  0  0  0  0  0  0  0  0
   45.0730   24.9390   48.0840 C   0  0  0  0  0  0  0  0  0  0  0  0
   44.1790   25.2530   48.6090 H   0  0  0  0  0  0  0  0  0  0  0  0
   45.5360   23.6490   48.3110 C   0  0  0  0  0  0  0  0  0  0  0  0
   44.9880   23.0100   49.0020 H   0  0  0  0  0  0  0  0  0  0  0  0
   46.6760   23.1970   47.6640 C   0  0  0  0  0  0  0  0  0  0  0  0
   47.0020   22.1870   47.8690 H   0  0  0  0  0  0  0  0  0  0  0  0
   47.3740   24.0020   46.7870 C   0  0  0  0  0  0  0  0  0  0  0  0
   48.8090   23.4480   45.9650 Cl  0  0  0  0  0  0  0  0  0  0  0  0
   45.3210   30.3980   48.8760 C   0  0  0  0  0  0  0  0  0  0  0  0
   44.4690   31.1070   48.8920 H   0  0  0  0  0  0  0  0  0  0  0  0
   45.3310   29.9580   49.9130 H   0  0  0  0  0  0  0  0  0  0  0  0
   46.5980   31.1320   48.7150 C   0  0  0  0  0  0  0  0  0  0  0  0
   47.4760   30.5200   48.9300 H   0  0  0  0  0  0  0  0  0  0  0  0
   46.5820   31.9810   49.4350 H   0  0  0  0  0  0  0  0  0  0  0  0
   46.3230   33.0580   45.7230 C   0  0  0  0  0  0  0  0  0  0  0  0
   47.2160   32.0450   45.3290 C   0  0  0  0  0  0  0  0  0  0  0  0
   47.4270   31.2140   46.3780 C   0  0  0  0  0  0  0  0  0  0  0  0
   46.6850   31.7020   47.3850 N   0  0  0  0  0  0  0  0  0  0  0  0
   46.0300   32.7990   46.9940 N   0  0  0  0  0  0  0  0  0  0  0  0
   47.7120   31.8680   44.3640 H   0  0  0  0  0  0  0  0  0  0  0  0
   48.0480   30.3160   46.4730 H   0  0  0  0  0  0  0  0  0  0  0  0
   44.4690   35.9440   44.4860 C   0  0  0  0  0  0  0  0  0  0  0  0
   44.9970   36.1560   43.2150 C   0  0  0  0  0  0  0  0  0  0  0  0
   46.0010   35.2870   42.7950 C   0  0  0  0  0  0  0  0  0  0  0  0
   46.3950   34.3070   43.6340 N   0  0  0  0  0  0  0  0  0  0  0  0
   45.8760   34.1240   44.8440 C   0  0  0  0  0  0  0  0  0  0  0  0
   44.9060   34.9520   45.2670 N   0  0  0  0  0  0  0  0  0  0  0  0
   43.6860   36.6490   44.7700 H   0  0  0  0  0  0  0  0  0  0  0  0
   44.7440   36.9020   42.4960 H   0  0  0  0  0  0  0  0  0  0  0  0
   46.5400   35.2710   41.8660 H   0  0  0  0  0  0  0  0  0  0  0  0
  1 10  1  0  0  0  0
  2  1  1  0  0  0  0
  2 26  1  0  0  0  0
  3  2  2  0  0  0  0
  4  8  2  0  0  0  0
  4  3  1  0  0  0  0
  5  4  1  0  0  0  0
  6  5  1  0  0  0  0
  6  7  2  0  0  0  0
  7  8  1  0  0  0  0
  8  9  1  0  0  0  0
  9 17  1  0  0  0  0
  9  1  2  0  0  0  0
 11  3  1  0  0  0  0
 12  5  1  0  0  0  0
 13  6  1  0  0  0  0
 14  7  1  0  0  0  0
 15 16  1  0  0  0  0
 16 24  2  0  0  0  0
 16 17  1  0  0  0  0
 17 18  2  0  0  0  0
 18 20  1  0  0  0  0
 18 19  1  0  0  0  0
 20 21  1  0  0  0  0
 22 23  1  0  0  0  0
 22 20  2  0  0  0  0
 24 22  1  0  0  0  0
 25 24  1  0  0  0  0
 26 27  1  0  0  0  0
 26 28  1  0  0  0  0
 29 26  1  0  0  0  0
 29 30  1  0  0  0  0
 29 31  1  0  0  0  0
 32 36  2  0  0  0  0
 33 32  1  0  0  0  0
 33 34  2  0  0  0  0
 34 38  1  0  0  0  0
 34 35  1  0  0  0  0
 35 29  1  0  0  0  0
 36 35  1  0  0  0  0
 37 33  1  0  0  0  0
 39 45  1  0  0  0  0
 39 44  1  0  0  0  0
 40 39  2  0  0  0  0
 41 40  1  0  0  0  0
 41 42  2  0  0  0  0
 42 43  1  0  0  0  0
 43 44  2  0  0  0  0
 43 32  1  0  0  0  0
 46 40  1  0  0  0  0
 47 41  1  0  0  0  0
M  END
>  <minimizedAffinity>
-5.42369032

>  <minimizedRMSD>
1.57156134

$$$$
