
 OpenBabel03242512013D

 49 52  0  0  1  0  0  0  0  0999 V2000
   47.2500   34.2030   42.3580 C   0  0  2  0  0  0  0  0  0  0  0  0
   48.6220   34.7640   42.5650 C   0  0  0  0  0  0  0  0  0  0  0  0
   48.9840   35.7750   41.5480 C   0  0  0  0  0  0  0  0  0  0  0  0
   48.8430   35.2760   40.1280 C   0  0  0  0  0  0  0  0  0  0  0  0
   47.6490   34.3840   39.9160 C   0  0  0  0  0  0  0  0  0  0  0  0
   46.6390   34.4890   41.0350 C   0  0  1  0  0  0  0  0  0  0  0  0
   47.3750   33.0800   42.4420 H   0  0  0  0  0  0  0  0  0  0  0  0
   49.4100   33.9840   42.5640 H   0  0  0  0  0  0  0  0  0  0  0  0
   48.6620   35.2340   43.5610 H   0  0  0  0  0  0  0  0  0  0  0  0
   48.4530   36.7330   41.7130 H   0  0  0  0  0  0  0  0  0  0  0  0
   50.0680   36.0150   41.6650 H   0  0  0  0  0  0  0  0  0  0  0  0
   48.7420   36.1990   39.4950 H   0  0  0  0  0  0  0  0  0  0  0  0
   49.7740   34.7970   39.7590 H   0  0  0  0  0  0  0  0  0  0  0  0
   47.1390   34.6970   38.9830 H   0  0  0  0  0  0  0  0  0  0  0  0
   47.9420   33.3090   39.7660 H   0  0  0  0  0  0  0  0  0  0  0  0
   46.1590   35.4690   40.9060 H   0  0  0  0  0  0  0  0  0  0  0  0
   46.3150   34.5550   43.4440 C   0  0  0  0  0  0  0  0  0  0  0  0
   45.6010   35.7150   43.1940 C   0  0  0  0  0  0  0  0  0  0  0  0
   44.6650   36.1760   44.1350 C   0  0  0  0  0  0  0  0  0  0  0  0
   44.5350   35.3900   45.2880 N   0  0  0  0  0  0  0  0  0  0  0  0
   45.2560   34.2680   45.4840 C   0  0  0  0  0  0  0  0  0  0  0  0
   46.1410   33.8640   44.5530 N   0  0  0  0  0  0  0  0  0  0  0  0
   45.5590   36.4460   42.4010 H   0  0  0  0  0  0  0  0  0  0  0  0
   44.0310   37.0230   44.1310 H   0  0  0  0  0  0  0  0  0  0  0  0
   45.0970   33.7190   46.3990 H   0  0  0  0  0  0  0  0  0  0  0  0
   45.5710   33.4580   40.7840 C   0  0  2  0  0  0  0  0  0  0  0  0
   45.1970   33.1550   39.3520 C   0  0  0  0  0  0  0  0  0  0  0  0
   44.2480   33.8670   40.2400 C   0  0  1  0  0  0  0  0  0  0  0  0
   45.6530   32.5490   41.4160 H   0  0  0  0  0  0  0  0  0  0  0  0
   45.6290   33.6940   38.5110 H   0  0  0  0  0  0  0  0  0  0  0  0
   44.8860   32.1140   39.0890 H   0  0  0  0  0  0  0  0  0  0  0  0
   44.1170   34.9490   40.0340 H   0  0  0  0  0  0  0  0  0  0  0  0
   43.0990   33.2080   40.9130 C   0  0  0  0  0  0  0  0  0  0  0  0
   42.5400   32.5450   40.2290 H   0  0  0  0  0  0  0  0  0  0  0  0
   43.5250   32.5380   41.7160 H   0  0  0  0  0  0  0  0  0  0  0  0
   42.1660   34.1490   41.6200 C   0  0  0  0  0  0  0  0  0  0  0  0
   42.0360   33.8650   42.6940 H   0  0  0  0  0  0  0  0  0  0  0  0
   42.6200   35.1490   41.6020 H   0  0  0  0  0  0  0  0  0  0  0  0
   40.5910   31.7220   42.4110 Cl  0  0  0  0  0  0  0  0  0  0  0  0
   40.1010   32.9580   41.2860 C   0  0  0  0  0  0  0  0  0  0  0  0
   40.8510   34.0860   40.9280 C   0  0  0  0  0  0  0  0  0  0  0  0
   40.3600   35.0030   40.0220 C   0  0  0  0  0  0  0  0  0  0  0  0
   40.9930   35.8440   39.7960 H   0  0  0  0  0  0  0  0  0  0  0  0
   39.1110   34.7540   39.4960 C   0  0  0  0  0  0  0  0  0  0  0  0
   38.7360   35.4940   38.7770 H   0  0  0  0  0  0  0  0  0  0  0  0
   38.3080   33.6870   39.7820 C   0  0  0  0  0  0  0  0  0  0  0  0
   37.3350   33.5440   39.3360 H   0  0  0  0  0  0  0  0  0  0  0  0
   38.8430   32.7870   40.7010 C   0  0  0  0  0  0  0  0  0  0  0  0
   37.8350   31.3900   41.1010 Cl  0  0  0  0  0  0  0  0  0  0  0  0
  1  7  1  1  0  0  0
  1  2  1  0  0  0  0
  1 17  1  0  0  0  0
  2  9  1  0  0  0  0
  3 11  1  0  0  0  0
  3 10  1  0  0  0  0
  3  2  1  0  0  0  0
  4  3  1  0  0  0  0
  5  4  1  0  0  0  0
  5  6  1  0  0  0  0
  6 16  1  1  0  0  0
  6  1  1  0  0  0  0
  8  2  1  0  0  0  0
 12  4  1  0  0  0  0
 13  4  1  0  0  0  0
 14  5  1  0  0  0  0
 15  5  1  0  0  0  0
 17 22  1  0  0  0  0
 18 17  2  0  0  0  0
 18 19  1  0  0  0  0
 19 20  2  0  0  0  0
 20 21  1  0  0  0  0
 21 25  1  0  0  0  0
 22 21  2  0  0  0  0
 23 18  1  0  0  0  0
 24 19  1  0  0  0  0
 26  6  1  0  0  0  0
 26 29  1  1  0  0  0
 27 28  1  0  0  0  0
 27 26  1  0  0  0  0
 28 32  1  6  0  0  0
 28 26  1  0  0  0  0
 28 33  1  0  0  0  0
 30 27  1  0  0  0  0
 31 27  1  0  0  0  0
 33 36  1  0  0  0  0
 33 35  1  0  0  0  0
 34 33  1  0  0  0  0
 36 37  1  0  0  0  0
 38 36  1  0  0  0  0
 40 39  1  0  0  0  0
 41 40  1  0  0  0  0
 41 36  1  0  0  0  0
 42 41  2  0  0  0  0
 43 42  1  0  0  0  0
 44 46  2  0  0  0  0
 44 42  1  0  0  0  0
 45 44  1  0  0  0  0
 46 48  1  0  0  0  0
 47 46  1  0  0  0  0
 48 49  1  0  0  0  0
 48 40  2  0  0  0  0
M  END
>  <minimizedAffinity>
-7.26875925

>  <minimizedRMSD>
2.37472153

$$$$
