
 OpenBabel03252505553D

 35 37  0  0  0  0  0  0  0  0999 V2000
   39.5490   32.2140   40.9850 C   0  0  0  0  0  0  0  0  0  0  0  0
   39.2610   33.5470   40.7690 C   0  0  0  0  0  0  0  0  0  0  0  0
   38.1160   33.9060   40.1410 C   0  0  0  0  0  0  0  0  0  0  0  0
   37.2320   32.9900   39.7100 N   0  0  0  0  0  0  0  0  0  0  0  0
   37.5120   31.6800   39.9210 C   0  0  0  0  0  0  0  0  0  0  0  0
   38.6500   31.2840   40.5480 N   0  0  0  0  0  0  0  0  0  0  0  0
   40.0380   34.1900   41.1540 H   0  0  0  0  0  0  0  0  0  0  0  0
   37.9980   34.9750   40.0280 H   0  0  0  0  0  0  0  0  0  0  0  0
   37.5430   31.1290   36.9250 Cl  0  0  0  0  0  0  0  0  0  0  0  0
   36.4970   30.3690   38.1000 C   0  0  0  0  0  0  0  0  0  0  0  0
   36.5360   30.6680   39.4470 C   0  0  0  0  0  0  0  0  0  0  0  0
   35.7320   30.0950   40.4080 C   0  0  0  0  0  0  0  0  0  0  0  0
   35.7900   30.3520   41.4570 H   0  0  0  0  0  0  0  0  0  0  0  0
   34.8300   29.1550   39.9580 C   0  0  0  0  0  0  0  0  0  0  0  0
   34.1410   28.6370   40.6390 H   0  0  0  0  0  0  0  0  0  0  0  0
   34.7720   28.8410   38.6160 C   0  0  0  0  0  0  0  0  0  0  0  0
   34.0710   28.0990   38.2050 H   0  0  0  0  0  0  0  0  0  0  0  0
   35.5870   29.4260   37.6660 C   0  0  0  0  0  0  0  0  0  0  0  0
   35.5150   29.0290   35.9660 Cl  0  0  0  0  0  0  0  0  0  0  0  0
   40.6990   31.5710   41.6230 C   0  0  0  0  0  0  0  0  0  0  0  0
   41.1660   30.8740   40.8940 H   0  0  0  0  0  0  0  0  0  0  0  0
   41.4630   32.3350   41.8660 H   0  0  0  0  0  0  0  0  0  0  0  0
   40.2250   30.8580   42.7410 O   0  0  0  0  0  0  0  0  0  0  0  0
   37.6530   28.4290   43.1150 C   0  0  0  0  0  0  0  0  0  0  0  0
   38.1240   27.3330   42.4000 C   0  0  0  0  0  0  0  0  0  0  0  0
   39.3730   27.4600   41.7770 C   0  0  0  0  0  0  0  0  0  0  0  0
   40.0500   28.6190   41.8970 N   0  0  0  0  0  0  0  0  0  0  0  0
   39.5490   29.6510   42.6000 C   0  0  0  0  0  0  0  0  0  0  0  0
   38.3610   29.5630   43.2070 N   0  0  0  0  0  0  0  0  0  0  0  0
   36.6840   28.3460   43.6040 H   0  0  0  0  0  0  0  0  0  0  0  0
   39.7220   26.6030   41.2280 H   0  0  0  0  0  0  0  0  0  0  0  0
   37.2740   26.1030   42.3440 C   0  0  0  0  0  0  0  0  0  0  0  0
   36.3170   26.2770   43.3070 F   0  0  0  0  0  0  0  0  0  0  0  0
   38.1150   25.0360   42.6830 F   0  0  0  0  0  0  0  0  0  0  0  0
   36.7600   25.9750   41.0840 F   0  0  0  0  0  0  0  0  0  0  0  0
  1 20  1  0  0  0  0
  2  1  1  0  0  0  0
  2  7  1  0  0  0  0
  3  2  2  0  0  0  0
  4  5  2  0  0  0  0
  4  3  1  0  0  0  0
  5  6  1  0  0  0  0
  6  1  2  0  0  0  0
  8  3  1  0  0  0  0
  9 10  1  0  0  0  0
 10 11  1  0  0  0  0
 11  5  1  0  0  0  0
 11 12  2  0  0  0  0
 12 13  1  0  0  0  0
 14 12  1  0  0  0  0
 14 15  1  0  0  0  0
 16 14  2  0  0  0  0
 17 16  1  0  0  0  0
 18 10  2  0  0  0  0
 18 16  1  0  0  0  0
 19 18  1  0  0  0  0
 20 22  1  0  0  0  0
 20 23  1  0  0  0  0
 21 20  1  0  0  0  0
 24 29  1  0  0  0  0
 24 30  1  0  0  0  0
 25 24  2  0  0  0  0
 26 27  2  0  0  0  0
 26 25  1  0  0  0  0
 27 28  1  0  0  0  0
 28 23  1  0  0  0  0
 28 29  2  0  0  0  0
 31 26  1  0  0  0  0
 32 25  1  0  0  0  0
 32 34  1  0  0  0  0
 32 33  1  0  0  0  0
 35 32  1  0  0  0  0
M  END
>  <minimizedAffinity>
-6.31868029

$$$$

 OpenBabel03252505553D

 35 37  0  0  0  0  0  0  0  0999 V2000
   38.7020   32.9250   39.5280 C   0  0  0  0  0  0  0  0  0  0  0  0
   38.1390   34.1220   39.9230 C   0  0  0  0  0  0  0  0  0  0  0  0
   38.9110   35.0980   40.4570 C   0  0  0  0  0  0  0  0  0  0  0  0
   40.2360   34.9370   40.6210 N   0  0  0  0  0  0  0  0  0  0  0  0
   40.7920   33.7630   40.2340 C   0  0  0  0  0  0  0  0  0  0  0  0
   40.0470   32.7620   39.6940 N   0  0  0  0  0  0  0  0  0  0  0  0
   37.0740   34.1400   39.7460 H   0  0  0  0  0  0  0  0  0  0  0  0
   38.3620   35.9890   40.7290 H   0  0  0  0  0  0  0  0  0  0  0  0
   42.5190   34.6160   37.8740 Cl  0  0  0  0  0  0  0  0  0  0  0  0
   43.0950   33.9510   39.3830 C   0  0  0  0  0  0  0  0  0  0  0  0
   42.2540   33.5840   40.4140 C   0  0  0  0  0  0  0  0  0  0  0  0
   42.6630   33.0570   41.6200 C   0  0  0  0  0  0  0  0  0  0  0  0
   41.9750   32.7810   42.4080 H   0  0  0  0  0  0  0  0  0  0  0  0
   44.0220   32.8960   41.7770 C   0  0  0  0  0  0  0  0  0  0  0  0
   44.4560   32.4850   42.6980 H   0  0  0  0  0  0  0  0  0  0  0  0
   44.8820   33.2550   40.7600 C   0  0  0  0  0  0  0  0  0  0  0  0
   45.9750   33.1470   40.8340 H   0  0  0  0  0  0  0  0  0  0  0  0
   44.4550   33.7820   39.5580 C   0  0  0  0  0  0  0  0  0  0  0  0
   45.5430   34.2370   38.2680 Cl  0  0  0  0  0  0  0  0  0  0  0  0
   38.0990   31.7290   38.9380 C   0  0  0  0  0  0  0  0  0  0  0  0
   37.8640   31.9390   37.8720 H   0  0  0  0  0  0  0  0  0  0  0  0
   38.8360   30.9020   38.9420 H   0  0  0  0  0  0  0  0  0  0  0  0
   36.9170   31.4480   39.6490 O   0  0  0  0  0  0  0  0  0  0  0  0
   37.7980   29.3560   42.3880 C   0  0  0  0  0  0  0  0  0  0  0  0
   36.8160   28.3720   42.3850 C   0  0  0  0  0  0  0  0  0  0  0  0
   35.8280   28.4530   41.3950 C   0  0  0  0  0  0  0  0  0  0  0  0
   35.8730   29.4650   40.5050 N   0  0  0  0  0  0  0  0  0  0  0  0
   36.8450   30.3930   40.5530 C   0  0  0  0  0  0  0  0  0  0  0  0
   37.8030   30.3460   41.4840 N   0  0  0  0  0  0  0  0  0  0  0  0
   38.5730   29.3070   43.1520 H   0  0  0  0  0  0  0  0  0  0  0  0
   35.0750   27.6840   41.4060 H   0  0  0  0  0  0  0  0  0  0  0  0
   36.8790   27.3010   43.4280 C   0  0  0  0  0  0  0  0  0  0  0  0
   38.0590   27.5070   44.0900 F   0  0  0  0  0  0  0  0  0  0  0  0
   36.9190   26.0860   42.7330 F   0  0  0  0  0  0  0  0  0  0  0  0
   35.7800   27.4000   44.2330 F   0  0  0  0  0  0  0  0  0  0  0  0
  1  6  2  0  0  0  0
  1  2  1  0  0  0  0
  2  3  2  0  0  0  0
  3  4  1  0  0  0  0
  3  8  1  0  0  0  0
  5 11  1  0  0  0  0
  5  4  2  0  0  0  0
  6  5  1  0  0  0  0
  7  2  1  0  0  0  0
  9 10  1  0  0  0  0
 10 18  2  0  0  0  0
 10 11  1  0  0  0  0
 11 12  2  0  0  0  0
 12 14  1  0  0  0  0
 12 13  1  0  0  0  0
 14 15  1  0  0  0  0
 16 17  1  0  0  0  0
 16 14  2  0  0  0  0
 18 16  1  0  0  0  0
 19 18  1  0  0  0  0
 20 22  1  0  0  0  0
 20  1  1  0  0  0  0
 20 23  1  0  0  0  0
 21 20  1  0  0  0  0
 23 28  1  0  0  0  0
 24 30  1  0  0  0  0
 25 24  1  0  0  0  0
 25 32  1  0  0  0  0
 26 31  1  0  0  0  0
 26 25  2  0  0  0  0
 27 28  2  0  0  0  0
 27 26  1  0  0  0  0
 28 29  1  0  0  0  0
 29 24  2  0  0  0  0
 32 33  1  0  0  0  0
 32 35  1  0  0  0  0
 34 32  1  0  0  0  0
M  END
>  <minimizedAffinity>
-6.28437138

$$$$

 OpenBabel03252505553D

 35 37  0  0  0  0  0  0  0  0999 V2000
   38.3310   32.9390   39.3010 C   0  0  0  0  0  0  0  0  0  0  0  0
   37.9060   34.0830   39.9440 C   0  0  0  0  0  0  0  0  0  0  0  0
   38.7990   35.0360   40.3050 C   0  0  0  0  0  0  0  0  0  0  0  0
   40.1130   34.9020   40.0520 N   0  0  0  0  0  0  0  0  0  0  0  0
   40.5320   33.7790   39.4200 C   0  0  0  0  0  0  0  0  0  0  0  0
   39.6650   32.8030   39.0440 N   0  0  0  0  0  0  0  0  0  0  0  0
   36.8370   34.0840   40.0950 H   0  0  0  0  0  0  0  0  0  0  0  0
   38.3530   35.8860   40.8020 H   0  0  0  0  0  0  0  0  0  0  0  0
   42.1630   32.4380   41.6180 Cl  0  0  0  0  0  0  0  0  0  0  0  0
   42.7800   33.0300   40.0940 C   0  0  0  0  0  0  0  0  0  0  0  0
   41.9820   33.6290   39.1400 C   0  0  0  0  0  0  0  0  0  0  0  0
   42.4240   34.1100   37.9270 C   0  0  0  0  0  0  0  0  0  0  0  0
   41.7700   34.5740   37.2010 H   0  0  0  0  0  0  0  0  0  0  0  0
   43.7710   33.9660   37.6760 C   0  0  0  0  0  0  0  0  0  0  0  0
   44.2290   34.3140   36.7410 H   0  0  0  0  0  0  0  0  0  0  0  0
   44.5890   33.3710   38.6150 C   0  0  0  0  0  0  0  0  0  0  0  0
   45.6700   33.2310   38.4650 H   0  0  0  0  0  0  0  0  0  0  0  0
   44.1280   32.8940   39.8270 C   0  0  0  0  0  0  0  0  0  0  0  0
   45.1620   32.1400   41.0170 Cl  0  0  0  0  0  0  0  0  0  0  0  0
   37.5840   31.7750   38.8180 C   0  0  0  0  0  0  0  0  0  0  0  0
   37.1220   32.0310   37.8400 H   0  0  0  0  0  0  0  0  0  0  0  0
   38.2840   30.9380   38.6280 H   0  0  0  0  0  0  0  0  0  0  0  0
   36.5850   31.4840   39.7660 O   0  0  0  0  0  0  0  0  0  0  0  0
   36.0110   28.3500   41.3490 C   0  0  0  0  0  0  0  0  0  0  0  0
   36.9160   28.3390   42.4040 C   0  0  0  0  0  0  0  0  0  0  0  0
   37.7420   29.4620   42.5550 C   0  0  0  0  0  0  0  0  0  0  0  0
   37.6230   30.4840   41.6850 N   0  0  0  0  0  0  0  0  0  0  0  0
   36.7300   30.4450   40.6790 C   0  0  0  0  0  0  0  0  0  0  0  0
   35.9270   29.3900   40.5060 N   0  0  0  0  0  0  0  0  0  0  0  0
   35.3630   27.4850   41.2190 H   0  0  0  0  0  0  0  0  0  0  0  0
   38.4370   29.4370   43.3760 H   0  0  0  0  0  0  0  0  0  0  0  0
   36.9490   27.1420   43.3010 C   0  0  0  0  0  0  0  0  0  0  0  0
   35.8530   27.2650   44.1120 F   0  0  0  0  0  0  0  0  0  0  0  0
   38.1240   27.2530   44.0530 F   0  0  0  0  0  0  0  0  0  0  0  0
   36.9310   26.0120   42.5330 F   0  0  0  0  0  0  0  0  0  0  0  0
  1  2  1  0  0  0  0
  2  7  1  0  0  0  0
  2  3  2  0  0  0  0
  3  8  1  0  0  0  0
  4  3  1  0  0  0  0
  5  4  2  0  0  0  0
  6  1  2  0  0  0  0
  6  5  1  0  0  0  0
 10  9  1  0  0  0  0
 11  5  1  0  0  0  0
 11 10  2  0  0  0  0
 12 11  1  0  0  0  0
 13 12  1  0  0  0  0
 14 12  2  0  0  0  0
 14 16  1  0  0  0  0
 15 14  1  0  0  0  0
 16 18  2  0  0  0  0
 17 16  1  0  0  0  0
 18 10  1  0  0  0  0
 18 19  1  0  0  0  0
 20  1  1  0  0  0  0
 20 23  1  0  0  0  0
 21 20  1  0  0  0  0
 22 20  1  0  0  0  0
 23 28  1  0  0  0  0
 24 25  1  0  0  0  0
 25 26  2  0  0  0  0
 25 32  1  0  0  0  0
 26 31  1  0  0  0  0
 27 26  1  0  0  0  0
 28 27  2  0  0  0  0
 29 28  1  0  0  0  0
 29 24  2  0  0  0  0
 30 24  1  0  0  0  0
 32 34  1  0  0  0  0
 32 33  1  0  0  0  0
 35 32  1  0  0  0  0
M  END
>  <minimizedAffinity>
-6.25536776

$$$$

 OpenBabel03252505553D

 35 37  0  0  0  0  0  0  0  0999 V2000
   39.0430   31.6790   41.0510 C   0  0  0  0  0  0  0  0  0  0  0  0
   38.8290   33.0430   41.0390 C   0  0  0  0  0  0  0  0  0  0  0  0
   38.0250   33.6010   40.1020 C   0  0  0  0  0  0  0  0  0  0  0  0
   37.4170   32.8560   39.1620 N   0  0  0  0  0  0  0  0  0  0  0  0
   37.6250   31.5170   39.1720 C   0  0  0  0  0  0  0  0  0  0  0  0
   38.4240   30.9230   40.0970 N   0  0  0  0  0  0  0  0  0  0  0  0
   39.3650   33.5380   41.8340 H   0  0  0  0  0  0  0  0  0  0  0  0
   37.9330   34.6740   40.1910 H   0  0  0  0  0  0  0  0  0  0  0  0
   35.3670   29.7320   40.1720 Cl  0  0  0  0  0  0  0  0  0  0  0  0
   35.9210   29.8630   38.5200 C   0  0  0  0  0  0  0  0  0  0  0  0
   36.9530   30.6940   38.1350 C   0  0  0  0  0  0  0  0  0  0  0  0
   37.4220   30.8290   36.8470 C   0  0  0  0  0  0  0  0  0  0  0  0
   38.2340   31.4930   36.5800 H   0  0  0  0  0  0  0  0  0  0  0  0
   36.7920   30.0620   35.8920 C   0  0  0  0  0  0  0  0  0  0  0  0
   37.0860   30.0920   34.8340 H   0  0  0  0  0  0  0  0  0  0  0  0
   35.7580   29.2230   36.2530 C   0  0  0  0  0  0  0  0  0  0  0  0
   35.2210   28.5890   35.5310 H   0  0  0  0  0  0  0  0  0  0  0  0
   35.3000   29.1000   37.5500 C   0  0  0  0  0  0  0  0  0  0  0  0
   33.9910   28.0370   38.0090 Cl  0  0  0  0  0  0  0  0  0  0  0  0
   39.8540   30.8420   41.9360 C   0  0  0  0  0  0  0  0  0  0  0  0
   40.3610   30.0650   41.3240 H   0  0  0  0  0  0  0  0  0  0  0  0
   40.6540   31.4550   42.3960 H   0  0  0  0  0  0  0  0  0  0  0  0
   38.9880   30.2370   42.8670 O   0  0  0  0  0  0  0  0  0  0  0  0
   39.0440   26.8070   41.9250 C   0  0  0  0  0  0  0  0  0  0  0  0
   37.8050   26.3290   42.3350 C   0  0  0  0  0  0  0  0  0  0  0  0
   36.9370   27.2390   42.9550 C   0  0  0  0  0  0  0  0  0  0  0  0
   37.3360   28.5150   43.1220 N   0  0  0  0  0  0  0  0  0  0  0  0
   38.5480   28.9280   42.7070 C   0  0  0  0  0  0  0  0  0  0  0  0
   39.4000   28.0860   42.1130 N   0  0  0  0  0  0  0  0  0  0  0  0
   39.7290   26.1130   41.4420 H   0  0  0  0  0  0  0  0  0  0  0  0
   35.9820   26.8530   43.2660 H   0  0  0  0  0  0  0  0  0  0  0  0
   37.4810   24.8890   42.0900 C   0  0  0  0  0  0  0  0  0  0  0  0
   36.2640   24.6840   42.6810 F   0  0  0  0  0  0  0  0  0  0  0  0
   38.4720   24.1520   42.7490 F   0  0  0  0  0  0  0  0  0  0  0  0
   37.4760   24.6590   40.7430 F   0  0  0  0  0  0  0  0  0  0  0  0
  1 20  1  0  0  0  0
  2  1  1  0  0  0  0
  2  7  1  0  0  0  0
  3  8  1  0  0  0  0
  3  2  2  0  0  0  0
  4  5  2  0  0  0  0
  4  3  1  0  0  0  0
  5  6  1  0  0  0  0
  6  1  2  0  0  0  0
 10  9  1  0  0  0  0
 11 10  1  0  0  0  0
 11  5  1  0  0  0  0
 12 11  2  0  0  0  0
 13 12  1  0  0  0  0
 14 16  2  0  0  0  0
 14 12  1  0  0  0  0
 15 14  1  0  0  0  0
 16 18  1  0  0  0  0
 17 16  1  0  0  0  0
 18 19  1  0  0  0  0
 18 10  2  0  0  0  0
 20 22  1  0  0  0  0
 20 23  1  0  0  0  0
 21 20  1  0  0  0  0
 24 29  2  0  0  0  0
 24 25  1  0  0  0  0
 25 26  2  0  0  0  0
 26 27  1  0  0  0  0
 26 31  1  0  0  0  0
 28 23  1  0  0  0  0
 28 27  2  0  0  0  0
 29 28  1  0  0  0  0
 30 24  1  0  0  0  0
 32 25  1  0  0  0  0
 32 33  1  0  0  0  0
 32 34  1  0  0  0  0
 35 32  1  0  0  0  0
M  END
>  <minimizedAffinity>
-6.09409952

$$$$

 OpenBabel03252505553D

 35 37  0  0  0  0  0  0  0  0999 V2000
   34.2130   28.0480   36.8870 C   0  0  0  0  0  0  0  0  0  0  0  0
   33.6570   26.8630   36.4510 C   0  0  0  0  0  0  0  0  0  0  0  0
   32.3840   26.8330   35.9900 C   0  0  0  0  0  0  0  0  0  0  0  0
   31.6260   27.9430   35.9430 N   0  0  0  0  0  0  0  0  0  0  0  0
   32.1690   29.1080   36.3700 C   0  0  0  0  0  0  0  0  0  0  0  0
   33.4430   29.1750   36.8380 N   0  0  0  0  0  0  0  0  0  0  0  0
   34.3530   26.0410   36.5350 H   0  0  0  0  0  0  0  0  0  0  0  0
   32.0560   25.8510   35.6770 H   0  0  0  0  0  0  0  0  0  0  0  0
   30.5550   29.7070   38.8840 Cl  0  0  0  0  0  0  0  0  0  0  0  0
   30.5780   30.6650   37.4230 C   0  0  0  0  0  0  0  0  0  0  0  0
   31.3340   30.3340   36.3170 C   0  0  0  0  0  0  0  0  0  0  0  0
   31.3820   31.0580   35.1460 C   0  0  0  0  0  0  0  0  0  0  0  0
   31.9880   30.7700   34.2980 H   0  0  0  0  0  0  0  0  0  0  0  0
   30.6040   32.1950   35.1080 C   0  0  0  0  0  0  0  0  0  0  0  0
   30.5680   32.8450   34.2240 H   0  0  0  0  0  0  0  0  0  0  0  0
   29.8390   32.5450   36.2010 C   0  0  0  0  0  0  0  0  0  0  0  0
   29.2010   33.4410   36.2220 H   0  0  0  0  0  0  0  0  0  0  0  0
   29.8030   31.8070   37.3680 C   0  0  0  0  0  0  0  0  0  0  0  0
   28.8340   32.2490   38.7530 Cl  0  0  0  0  0  0  0  0  0  0  0  0
   35.5410   28.3460   37.4260 C   0  0  0  0  0  0  0  0  0  0  0  0
   36.2580   28.4280   36.5800 H   0  0  0  0  0  0  0  0  0  0  0  0
   35.5260   29.3340   37.9250 H   0  0  0  0  0  0  0  0  0  0  0  0
   35.9080   27.2820   38.2720 O   0  0  0  0  0  0  0  0  0  0  0  0
   37.1630   26.6200   41.5340 C   0  0  0  0  0  0  0  0  0  0  0  0
   36.8630   27.7750   42.2470 C   0  0  0  0  0  0  0  0  0  0  0  0
   36.2040   28.8030   41.5580 C   0  0  0  0  0  0  0  0  0  0  0  0
   35.8980   28.6290   40.2580 N   0  0  0  0  0  0  0  0  0  0  0  0
   36.2120   27.4900   39.6130 C   0  0  0  0  0  0  0  0  0  0  0  0
   36.8390   26.4900   40.2400 N   0  0  0  0  0  0  0  0  0  0  0  0
   37.6740   25.8130   42.0560 H   0  0  0  0  0  0  0  0  0  0  0  0
   35.9790   29.6900   42.1250 H   0  0  0  0  0  0  0  0  0  0  0  0
   37.2570   27.8440   43.6890 C   0  0  0  0  0  0  0  0  0  0  0  0
   38.2340   26.8980   43.8440 F   0  0  0  0  0  0  0  0  0  0  0  0
   36.1170   27.4890   44.4200 F   0  0  0  0  0  0  0  0  0  0  0  0
   37.6800   29.1120   43.9730 F   0  0  0  0  0  0  0  0  0  0  0  0
  1 20  1  0  0  0  0
  2  7  1  0  0  0  0
  2  1  2  0  0  0  0
  3  2  1  0  0  0  0
  4  3  2  0  0  0  0
  4  5  1  0  0  0  0
  5  6  2  0  0  0  0
  6  1  1  0  0  0  0
  8  3  1  0  0  0  0
 10  9  1  0  0  0  0
 11  5  1  0  0  0  0
 11 10  2  0  0  0  0
 12 11  1  0  0  0  0
 13 12  1  0  0  0  0
 14 12  2  0  0  0  0
 14 16  1  0  0  0  0
 15 14  1  0  0  0  0
 16 17  1  0  0  0  0
 16 18  2  0  0  0  0
 18 10  1  0  0  0  0
 18 19  1  0  0  0  0
 20 22  1  0  0  0  0
 20 23  1  0  0  0  0
 21 20  1  0  0  0  0
 23 28  1  0  0  0  0
 24 30  1  0  0  0  0
 24 25  1  0  0  0  0
 25 32  1  0  0  0  0
 26 31  1  0  0  0  0
 26 25  2  0  0  0  0
 27 26  1  0  0  0  0
 28 29  1  0  0  0  0
 28 27  2  0  0  0  0
 29 24  2  0  0  0  0
 32 33  1  0  0  0  0
 32 35  1  0  0  0  0
 32 34  1  0  0  0  0
M  END
>  <minimizedAffinity>
-6.06259823

$$$$

 OpenBabel03252505553D

 35 37  0  0  0  0  0  0  0  0999 V2000
   36.2080   29.8040   39.5620 C   0  0  0  0  0  0  0  0  0  0  0  0
   36.1410   29.5270   38.2110 C   0  0  0  0  0  0  0  0  0  0  0  0
   36.8010   30.3040   37.3190 C   0  0  0  0  0  0  0  0  0  0  0  0
   37.5360   31.3590   37.7130 N   0  0  0  0  0  0  0  0  0  0  0  0
   37.6040   31.6340   39.0390 C   0  0  0  0  0  0  0  0  0  0  0  0
   36.9550   30.8760   39.9610 N   0  0  0  0  0  0  0  0  0  0  0  0
   35.5260   28.6620   38.0120 H   0  0  0  0  0  0  0  0  0  0  0  0
   36.6750   29.9920   36.2920 H   0  0  0  0  0  0  0  0  0  0  0  0
   40.6080   31.1540   39.2040 Cl  0  0  0  0  0  0  0  0  0  0  0  0
   39.7830   32.6500   39.5700 C   0  0  0  0  0  0  0  0  0  0  0  0
   38.4150   32.7980   39.4750 C   0  0  0  0  0  0  0  0  0  0  0  0
   37.7220   33.9560   39.7530 C   0  0  0  0  0  0  0  0  0  0  0  0
   36.6470   34.0370   39.6660 H   0  0  0  0  0  0  0  0  0  0  0  0
   38.4840   35.0310   40.1560 C   0  0  0  0  0  0  0  0  0  0  0  0
   38.0340   36.0030   40.4030 H   0  0  0  0  0  0  0  0  0  0  0  0
   39.8540   34.9070   40.2600 C   0  0  0  0  0  0  0  0  0  0  0  0
   40.5070   35.7340   40.5770 H   0  0  0  0  0  0  0  0  0  0  0  0
   40.5310   33.7380   39.9760 C   0  0  0  0  0  0  0  0  0  0  0  0
   42.2660   33.5790   40.1080 Cl  0  0  0  0  0  0  0  0  0  0  0  0
   35.5960   29.1360   40.7110 C   0  0  0  0  0  0  0  0  0  0  0  0
   34.6390   29.6490   40.9520 H   0  0  0  0  0  0  0  0  0  0  0  0
   35.3370   28.0940   40.4400 H   0  0  0  0  0  0  0  0  0  0  0  0
   36.4890   29.2420   41.7950 O   0  0  0  0  0  0  0  0  0  0  0  0
   39.3840   27.6200   43.0760 C   0  0  0  0  0  0  0  0  0  0  0  0
   39.1520   26.2740   42.8200 C   0  0  0  0  0  0  0  0  0  0  0  0
   37.9500   25.9380   42.1820 C   0  0  0  0  0  0  0  0  0  0  0  0
   37.0880   26.9190   41.8520 N   0  0  0  0  0  0  0  0  0  0  0  0
   37.3600   28.2080   42.1230 C   0  0  0  0  0  0  0  0  0  0  0  0
   38.4970   28.5630   42.7300 N   0  0  0  0  0  0  0  0  0  0  0  0
   40.3140   27.8970   43.5710 H   0  0  0  0  0  0  0  0  0  0  0  0
   37.7870   24.8910   41.9910 H   0  0  0  0  0  0  0  0  0  0  0  0
   40.1920   25.2810   43.2370 C   0  0  0  0  0  0  0  0  0  0  0  0
   39.4960   24.1810   43.6590 F   0  0  0  0  0  0  0  0  0  0  0  0
   40.8760   25.8640   44.3100 F   0  0  0  0  0  0  0  0  0  0  0  0
   41.0150   25.0280   42.1750 F   0  0  0  0  0  0  0  0  0  0  0  0
  1  6  1  0  0  0  0
  1 20  1  0  0  0  0
  2  1  2  0  0  0  0
  3  4  2  0  0  0  0
  3  2  1  0  0  0  0
  4  5  1  0  0  0  0
  5 11  1  0  0  0  0
  5  6  2  0  0  0  0
  7  2  1  0  0  0  0
  8  3  1  0  0  0  0
  9 10  1  0  0  0  0
 10 18  1  0  0  0  0
 11 10  2  0  0  0  0
 11 12  1  0  0  0  0
 12 14  2  0  0  0  0
 13 12  1  0  0  0  0
 14 16  1  0  0  0  0
 14 15  1  0  0  0  0
 16 17  1  0  0  0  0
 18 19  1  0  0  0  0
 18 16  2  0  0  0  0
 20 21  1  0  0  0  0
 20 23  1  0  0  0  0
 22 20  1  0  0  0  0
 23 28  1  0  0  0  0
 24 30  1  0  0  0  0
 25 24  1  0  0  0  0
 25 32  1  0  0  0  0
 26 25  2  0  0  0  0
 27 28  2  0  0  0  0
 27 26  1  0  0  0  0
 28 29  1  0  0  0  0
 29 24  2  0  0  0  0
 31 26  1  0  0  0  0
 32 33  1  0  0  0  0
 32 34  1  0  0  0  0
 35 32  1  0  0  0  0
M  END
>  <minimizedAffinity>
-6.05461073

$$$$

 OpenBabel03252505553D

 35 37  0  0  0  0  0  0  0  0999 V2000
   38.4550   27.1360   43.3740 C   0  0  0  0  0  0  0  0  0  0  0  0
   39.6160   26.8360   44.0570 C   0  0  0  0  0  0  0  0  0  0  0  0
   40.3800   25.7830   43.6760 C   0  0  0  0  0  0  0  0  0  0  0  0
   40.0360   25.0030   42.6360 N   0  0  0  0  0  0  0  0  0  0  0  0
   38.8960   25.2960   41.9650 C   0  0  0  0  0  0  0  0  0  0  0  0
   38.1070   26.3450   42.3180 N   0  0  0  0  0  0  0  0  0  0  0  0
   39.7920   27.5240   44.8690 H   0  0  0  0  0  0  0  0  0  0  0  0
   41.2640   25.6440   44.2830 H   0  0  0  0  0  0  0  0  0  0  0  0
   40.1680   26.0340   39.2960 Cl  0  0  0  0  0  0  0  0  0  0  0  0
   39.0570   24.7150   39.5770 C   0  0  0  0  0  0  0  0  0  0  0  0
   38.5170   24.4370   40.8160 C   0  0  0  0  0  0  0  0  0  0  0  0
   37.6390   23.4090   41.0840 C   0  0  0  0  0  0  0  0  0  0  0  0
   37.2350   23.2190   42.0690 H   0  0  0  0  0  0  0  0  0  0  0  0
   37.2930   22.6170   40.0110 C   0  0  0  0  0  0  0  0  0  0  0  0
   36.6010   21.7700   40.1120 H   0  0  0  0  0  0  0  0  0  0  0  0
   37.8200   22.8760   38.7630 C   0  0  0  0  0  0  0  0  0  0  0  0
   37.5770   22.2750   37.8740 H   0  0  0  0  0  0  0  0  0  0  0  0
   38.7000   23.9110   38.5120 C   0  0  0  0  0  0  0  0  0  0  0  0
   39.3680   24.2410   36.9320 Cl  0  0  0  0  0  0  0  0  0  0  0  0
   37.4670   28.1970   43.5810 C   0  0  0  0  0  0  0  0  0  0  0  0
   36.6270   27.7870   44.1830 H   0  0  0  0  0  0  0  0  0  0  0  0
   37.9170   29.0120   44.1800 H   0  0  0  0  0  0  0  0  0  0  0  0
   37.0040   28.6040   42.3150 O   0  0  0  0  0  0  0  0  0  0  0  0
   36.7100   31.6550   40.5100 C   0  0  0  0  0  0  0  0  0  0  0  0
   37.9650   32.2390   40.6370 C   0  0  0  0  0  0  0  0  0  0  0  0
   38.9290   31.5380   41.3740 C   0  0  0  0  0  0  0  0  0  0  0  0
   38.6020   30.3490   41.9170 N   0  0  0  0  0  0  0  0  0  0  0  0
   37.3710   29.8270   41.7660 C   0  0  0  0  0  0  0  0  0  0  0  0
   36.4280   30.4690   41.0690 N   0  0  0  0  0  0  0  0  0  0  0  0
   35.9500   32.1880   39.9410 H   0  0  0  0  0  0  0  0  0  0  0  0
   39.8950   32.0040   41.4620 H   0  0  0  0  0  0  0  0  0  0  0  0
   38.2020   33.5640   39.9840 C   0  0  0  0  0  0  0  0  0  0  0  0
   39.2070   33.3490   39.0790 F   0  0  0  0  0  0  0  0  0  0  0  0
   38.6380   34.4240   40.9980 F   0  0  0  0  0  0  0  0  0  0  0  0
   37.0370   33.9910   39.4100 F   0  0  0  0  0  0  0  0  0  0  0  0
  1 20  1  0  0  0  0
  1  2  1  0  0  0  0
  2  7  1  0  0  0  0
  3  2  2  0  0  0  0
  3  8  1  0  0  0  0
  4  3  1  0  0  0  0
  5  6  1  0  0  0  0
  5  4  2  0  0  0  0
  6  1  2  0  0  0  0
  9 10  1  0  0  0  0
 10 11  1  0  0  0  0
 11 12  2  0  0  0  0
 11  5  1  0  0  0  0
 12 13  1  0  0  0  0
 14 15  1  0  0  0  0
 14 12  1  0  0  0  0
 16 14  2  0  0  0  0
 17 16  1  0  0  0  0
 18 16  1  0  0  0  0
 18 10  2  0  0  0  0
 19 18  1  0  0  0  0
 20 22  1  0  0  0  0
 20 21  1  0  0  0  0
 23 20  1  0  0  0  0
 24 25  2  0  0  0  0
 24 29  1  0  0  0  0
 25 26  1  0  0  0  0
 26 31  1  0  0  0  0
 26 27  2  0  0  0  0
 28 27  1  0  0  0  0
 28 23  1  0  0  0  0
 29 28  2  0  0  0  0
 30 24  1  0  0  0  0
 32 25  1  0  0  0  0
 32 34  1  0  0  0  0
 33 32  1  0  0  0  0
 35 32  1  0  0  0  0
M  END
>  <minimizedAffinity>
-5.82572746

$$$$

 OpenBabel03252505553D

 35 37  0  0  0  0  0  0  0  0999 V2000
   38.2230   31.7590   38.6570 C   0  0  0  0  0  0  0  0  0  0  0  0
   37.3280   32.7570   38.9820 C   0  0  0  0  0  0  0  0  0  0  0  0
   37.6760   33.7280   39.8620 C   0  0  0  0  0  0  0  0  0  0  0  0
   38.8890   33.7500   40.4410 N   0  0  0  0  0  0  0  0  0  0  0  0
   39.7700   32.7710   40.1220 C   0  0  0  0  0  0  0  0  0  0  0  0
   39.4550   31.7830   39.2450 N   0  0  0  0  0  0  0  0  0  0  0  0
   36.3900   32.6390   38.4610 H   0  0  0  0  0  0  0  0  0  0  0  0
   36.8960   34.4550   40.0400 H   0  0  0  0  0  0  0  0  0  0  0  0
   40.1430   30.8630   42.4680 Cl  0  0  0  0  0  0  0  0  0  0  0  0
   41.3470   31.9550   41.8290 C   0  0  0  0  0  0  0  0  0  0  0  0
   41.1100   32.7960   40.7610 C   0  0  0  0  0  0  0  0  0  0  0  0
   42.0270   33.6720   40.2240 C   0  0  0  0  0  0  0  0  0  0  0  0
   41.8080   34.3170   39.3840 H   0  0  0  0  0  0  0  0  0  0  0  0
   43.2680   33.6870   40.8230 C   0  0  0  0  0  0  0  0  0  0  0  0
   44.0740   34.3470   40.4750 H   0  0  0  0  0  0  0  0  0  0  0  0
   43.5290   32.8560   41.8930 C   0  0  0  0  0  0  0  0  0  0  0  0
   44.5010   32.8290   42.4070 H   0  0  0  0  0  0  0  0  0  0  0  0
   42.5960   31.9830   42.4180 C   0  0  0  0  0  0  0  0  0  0  0  0
   42.9240   30.9310   43.7740 Cl  0  0  0  0  0  0  0  0  0  0  0  0
   38.0960   30.6120   37.7550 C   0  0  0  0  0  0  0  0  0  0  0  0
   37.7910   30.9810   36.7520 H   0  0  0  0  0  0  0  0  0  0  0  0
   39.0850   30.1290   37.6280 H   0  0  0  0  0  0  0  0  0  0  0  0
   37.1060   29.7600   38.2820 O   0  0  0  0  0  0  0  0  0  0  0  0
   36.2630   28.8820   41.6240 C   0  0  0  0  0  0  0  0  0  0  0  0
   37.3530   28.1360   42.0570 C   0  0  0  0  0  0  0  0  0  0  0  0
   38.4020   27.9420   41.1480 C   0  0  0  0  0  0  0  0  0  0  0  0
   38.3090   28.4800   39.9160 N   0  0  0  0  0  0  0  0  0  0  0  0
   37.2300   29.1940   39.5460 C   0  0  0  0  0  0  0  0  0  0  0  0
   36.2120   29.3980   40.3880 N   0  0  0  0  0  0  0  0  0  0  0  0
   35.4400   29.0410   42.3190 H   0  0  0  0  0  0  0  0  0  0  0  0
   39.2380   27.3620   41.5000 H   0  0  0  0  0  0  0  0  0  0  0  0
   37.3350   27.5940   43.4520 C   0  0  0  0  0  0  0  0  0  0  0  0
   36.1940   26.8420   43.5350 F   0  0  0  0  0  0  0  0  0  0  0  0
   37.2460   28.7050   44.2980 F   0  0  0  0  0  0  0  0  0  0  0  0
   38.4760   26.8730   43.6630 F   0  0  0  0  0  0  0  0  0  0  0  0
  1  2  2  0  0  0  0
  1  6  1  0  0  0  0
  2  3  1  0  0  0  0
  3  8  1  0  0  0  0
  3  4  2  0  0  0  0
  5  4  1  0  0  0  0
  5 11  1  0  0  0  0
  6  5  2  0  0  0  0
  7  2  1  0  0  0  0
 10 18  1  0  0  0  0
 10  9  1  0  0  0  0
 11 10  2  0  0  0  0
 12 11  1  0  0  0  0
 12 14  2  0  0  0  0
 13 12  1  0  0  0  0
 14 16  1  0  0  0  0
 15 14  1  0  0  0  0
 16 17  1  0  0  0  0
 16 18  2  0  0  0  0
 18 19  1  0  0  0  0
 20 23  1  0  0  0  0
 20  1  1  0  0  0  0
 21 20  1  0  0  0  0
 22 20  1  0  0  0  0
 23 28  1  0  0  0  0
 24 25  1  0  0  0  0
 24 30  1  0  0  0  0
 25 32  1  0  0  0  0
 26 31  1  0  0  0  0
 26 25  2  0  0  0  0
 27 26  1  0  0  0  0
 28 27  2  0  0  0  0
 28 29  1  0  0  0  0
 29 24  2  0  0  0  0
 32 33  1  0  0  0  0
 32 35  1  0  0  0  0
 32 34  1  0  0  0  0
M  END
>  <minimizedAffinity>
-5.72668934

$$$$

 OpenBabel03252505553D

 35 37  0  0  0  0  0  0  0  0999 V2000
   36.3700   28.4610   38.6870 C   0  0  0  0  0  0  0  0  0  0  0  0
   35.4000   29.1800   39.3540 C   0  0  0  0  0  0  0  0  0  0  0  0
   35.1980   28.9900   40.6810 C   0  0  0  0  0  0  0  0  0  0  0  0
   35.9260   28.1040   41.3840 N   0  0  0  0  0  0  0  0  0  0  0  0
   36.8800   27.3970   40.7310 C   0  0  0  0  0  0  0  0  0  0  0  0
   37.1100   27.5620   39.4020 N   0  0  0  0  0  0  0  0  0  0  0  0
   34.8790   29.8570   38.6940 H   0  0  0  0  0  0  0  0  0  0  0  0
   34.4130   29.6070   41.0950 H   0  0  0  0  0  0  0  0  0  0  0  0
   39.1160   28.5870   42.4240 Cl  0  0  0  0  0  0  0  0  0  0  0  0
   38.7140   26.8920   42.2950 C   0  0  0  0  0  0  0  0  0  0  0  0
   37.6850   26.4200   41.5060 C   0  0  0  0  0  0  0  0  0  0  0  0
   37.3320   25.0950   41.3740 C   0  0  0  0  0  0  0  0  0  0  0  0
   36.5170   24.7600   40.7460 H   0  0  0  0  0  0  0  0  0  0  0  0
   38.0840   24.1960   42.0980 C   0  0  0  0  0  0  0  0  0  0  0  0
   37.8890   23.1160   42.0660 H   0  0  0  0  0  0  0  0  0  0  0  0
   39.1190   24.6440   42.8930 C   0  0  0  0  0  0  0  0  0  0  0  0
   39.7500   23.9690   43.4910 H   0  0  0  0  0  0  0  0  0  0  0  0
   39.4580   25.9770   43.0140 C   0  0  0  0  0  0  0  0  0  0  0  0
   40.7690   26.5460   44.0200 Cl  0  0  0  0  0  0  0  0  0  0  0  0
   36.7790   28.4730   37.2810 C   0  0  0  0  0  0  0  0  0  0  0  0
   36.9000   27.4230   36.9370 H   0  0  0  0  0  0  0  0  0  0  0  0
   35.9730   28.9180   36.6650 H   0  0  0  0  0  0  0  0  0  0  0  0
   38.0070   29.1560   37.1980 O   0  0  0  0  0  0  0  0  0  0  0  0
   37.6470   32.5070   38.3370 C   0  0  0  0  0  0  0  0  0  0  0  0
   38.6240   32.6320   39.3180 C   0  0  0  0  0  0  0  0  0  0  0  0
   39.4220   31.5100   39.5780 C   0  0  0  0  0  0  0  0  0  0  0  0
   39.2100   30.3790   38.8770 N   0  0  0  0  0  0  0  0  0  0  0  0
   38.2500   30.3090   37.9370 C   0  0  0  0  0  0  0  0  0  0  0  0
   37.4710   31.3610   37.6640 N   0  0  0  0  0  0  0  0  0  0  0  0
   37.0190   33.3700   38.1240 H   0  0  0  0  0  0  0  0  0  0  0  0
   40.1730   31.6230   40.3400 H   0  0  0  0  0  0  0  0  0  0  0  0
   38.7580   33.9440   40.0250 C   0  0  0  0  0  0  0  0  0  0  0  0
   38.7730   33.6390   41.3590 F   0  0  0  0  0  0  0  0  0  0  0  0
   37.6080   34.6750   39.7070 F   0  0  0  0  0  0  0  0  0  0  0  0
   39.8990   34.5640   39.5980 F   0  0  0  0  0  0  0  0  0  0  0  0
  1  2  2  0  0  0  0
  1  6  1  0  0  0  0
  2  3  1  0  0  0  0
  3  8  1  0  0  0  0
  3  4  2  0  0  0  0
  5  4  1  0  0  0  0
  5 11  1  0  0  0  0
  6  5  2  0  0  0  0
  7  2  1  0  0  0  0
 10  9  1  0  0  0  0
 10 18  1  0  0  0  0
 11 10  2  0  0  0  0
 12 11  1  0  0  0  0
 12 14  2  0  0  0  0
 13 12  1  0  0  0  0
 14 16  1  0  0  0  0
 15 14  1  0  0  0  0
 16 18  2  0  0  0  0
 16 17  1  0  0  0  0
 18 19  1  0  0  0  0
 20  1  1  0  0  0  0
 21 20  1  0  0  0  0
 22 20  1  0  0  0  0
 23 20  1  0  0  0  0
 23 28  1  0  0  0  0
 24 25  1  0  0  0  0
 25 26  2  0  0  0  0
 25 32  1  0  0  0  0
 26 31  1  0  0  0  0
 27 26  1  0  0  0  0
 28 27  2  0  0  0  0
 29 28  1  0  0  0  0
 29 24  2  0  0  0  0
 30 24  1  0  0  0  0
 32 33  1  0  0  0  0
 34 32  1  0  0  0  0
 35 32  1  0  0  0  0
M  END
>  <minimizedAffinity>
-5.69768

$$$$
