
 OpenBabel03252506383D

 46 49  0  0  1  0  0  0  0  0999 V2000
   44.5020   35.5400   45.1310 C   0  0  0  0  0  0  0  0  0  0  0  0
   45.1630   35.5220   43.8810 C   0  0  0  0  0  0  0  0  0  0  0  0
   46.0800   34.5610   43.6330 C   0  0  0  0  0  0  0  0  0  0  0  0
   46.3140   33.6560   44.6170 N   0  0  0  0  0  0  0  0  0  0  0  0
   45.6920   33.6770   45.7870 C   0  0  0  0  0  0  0  0  0  0  0  0
   44.7830   34.6130   46.0610 N   0  0  0  0  0  0  0  0  0  0  0  0
   46.0210   32.6680   46.7600 N   0  0  0  0  0  0  0  0  0  0  0  0
   45.2810   32.4300   47.9450 C   0  0  0  0  0  0  0  0  0  0  0  0
   46.3540   32.0870   48.9620 C   0  0  0  0  0  0  0  0  0  0  0  0
   47.6370   31.9780   48.1940 C   0  0  0  0  0  0  0  0  0  0  0  0
   47.1390   31.7590   46.7660 C   0  0  1  0  0  0  0  0  0  0  0  0
   43.7600   36.3000   45.3610 H   0  0  0  0  0  0  0  0  0  0  0  0
   46.5980   34.5230   42.6900 H   0  0  0  0  0  0  0  0  0  0  0  0
   44.9130   33.4460   48.2990 H   0  0  0  0  0  0  0  0  0  0  0  0
   44.4760   31.7810   48.0490 H   0  0  0  0  0  0  0  0  0  0  0  0
   46.3760   32.7290   49.8390 H   0  0  0  0  0  0  0  0  0  0  0  0
   46.1570   31.0500   49.3620 H   0  0  0  0  0  0  0  0  0  0  0  0
   48.1710   32.9410   48.2750 H   0  0  0  0  0  0  0  0  0  0  0  0
   48.2580   31.1120   48.5090 H   0  0  0  0  0  0  0  0  0  0  0  0
   47.9610   32.0670   46.1000 H   0  0  0  0  0  0  0  0  0  0  0  0
   44.8110   36.5450   42.9360 N   0  0  0  0  0  0  0  0  0  0  0  0
   44.5750   37.4960   43.2500 H   0  0  0  0  0  0  0  0  0  0  0  0
   44.7860   36.3460   41.9020 H   0  0  0  0  0  0  0  0  0  0  0  0
   46.6260   30.0640   46.5910 S   0  0  0  0  0  0  0  0  0  0  0  0
   45.7760   30.5750   43.4090 O   0  0  0  0  0  0  0  0  0  0  0  0
   45.0970   30.0200   44.2900 C   0  0  0  0  0  0  0  0  0  0  0  0
   45.1210   29.7750   45.7560 C   0  0  1  0  0  0  0  0  0  0  0  0
   44.5840   28.3700   45.8410 C   0  0  0  0  0  0  0  0  0  0  0  0
   43.3130   28.5760   45.0170 C   0  0  0  0  0  0  0  0  0  0  0  0
   43.8710   29.3630   43.9170 N   0  0  0  0  0  0  0  0  0  0  0  0
   44.2160   30.3680   46.0630 H   0  0  0  0  0  0  0  0  0  0  0  0
   45.2200   27.6410   45.3170 H   0  0  0  0  0  0  0  0  0  0  0  0
   44.3380   28.0690   46.8790 H   0  0  0  0  0  0  0  0  0  0  0  0
   42.5330   29.0880   45.5780 H   0  0  0  0  0  0  0  0  0  0  0  0
   43.0200   27.5590   44.6720 H   0  0  0  0  0  0  0  0  0  0  0  0
   44.6610   27.3300   41.8050 Cl  0  0  0  0  0  0  0  0  0  0  0  0
   43.4260   28.5590   41.5780 C   0  0  0  0  0  0  0  0  0  0  0  0
   43.1870   29.4090   42.6440 C   0  0  0  0  0  0  0  0  0  0  0  0
   42.2430   30.4060   42.5720 C   0  0  0  0  0  0  0  0  0  0  0  0
   42.0050   31.1070   43.3700 H   0  0  0  0  0  0  0  0  0  0  0  0
   41.5150   30.5630   41.4110 C   0  0  0  0  0  0  0  0  0  0  0  0
   40.7630   31.3380   41.3210 H   0  0  0  0  0  0  0  0  0  0  0  0
   41.7470   29.7170   40.3400 C   0  0  0  0  0  0  0  0  0  0  0  0
   41.2180   29.7760   39.3970 H   0  0  0  0  0  0  0  0  0  0  0  0
   42.7070   28.7120   40.4260 C   0  0  0  0  0  0  0  0  0  0  0  0
   43.0560   27.6020   39.1110 Cl  0  0  0  0  0  0  0  0  0  0  0  0
  1 12  1  0  0  0  0
  1  6  1  0  0  0  0
  2  1  2  0  0  0  0
  3  2  1  0  0  0  0
  3  4  2  0  0  0  0
  4  5  1  0  0  0  0
  5  6  2  0  0  0  0
  5  7  1  0  0  0  0
  7 11  1  0  0  0  0
  7  8  1  0  0  0  0
  8 15  1  0  0  0  0
  8 14  1  0  0  0  0
  8  9  1  0  0  0  0
  9 17  1  0  0  0  0
  9 16  1  0  0  0  0
 10 18  1  0  0  0  0
 10 19  1  0  0  0  0
 10  9  1  0  0  0  0
 11 20  1  6  0  0  0
 11 10  1  0  0  0  0
 13  3  1  0  0  0  0
 21 22  1  0  0  0  0
 21  2  1  0  0  0  0
 23 21  1  0  0  0  0
 24 11  1  0  0  0  0
 25 26  2  0  0  0  0
 26 27  1  0  0  0  0
 27 28  1  0  0  0  0
 27 31  1  1  0  0  0
 27 24  1  0  0  0  0
 28 33  1  0  0  0  0
 29 34  1  0  0  0  0
 29 28  1  0  0  0  0
 30 26  1  0  0  0  0
 30 29  1  0  0  0  0
 32 28  1  0  0  0  0
 35 29  1  0  0  0  0
 37 36  1  0  0  0  0
 37 38  1  0  0  0  0
 38 30  1  0  0  0  0
 39 38  2  0  0  0  0
 39 40  1  0  0  0  0
 41 39  1  0  0  0  0
 42 41  1  0  0  0  0
 43 45  1  0  0  0  0
 43 41  2  0  0  0  0
 44 43  1  0  0  0  0
 45 37  2  0  0  0  0
 46 45  1  0  0  0  0
M  END
>  <minimizedAffinity>
-5.31004477

>  <minimizedRMSD>
1.15763509

$$$$
