
 OpenBabel03252505073D

 45 48  0  0  1  0  0  0  0  0999 V2000
   44.5930   35.5610   44.6370 C   0  0  0  0  0  0  0  0  0  0  0  0
   45.2440   35.5830   43.3860 C   0  0  0  0  0  0  0  0  0  0  0  0
   46.3280   34.6810   43.2030 C   0  0  0  0  0  0  0  0  0  0  0  0
   46.6720   33.8590   44.2290 N   0  0  0  0  0  0  0  0  0  0  0  0
   46.0180   33.8770   45.4030 C   0  0  0  0  0  0  0  0  0  0  0  0
   44.9750   34.7260   45.6150 N   0  0  0  0  0  0  0  0  0  0  0  0
   43.7850   36.2600   44.7160 H   0  0  0  0  0  0  0  0  0  0  0  0
   44.9560   36.2450   42.5840 H   0  0  0  0  0  0  0  0  0  0  0  0
   46.4460   32.9530   46.4890 C   0  0  2  0  0  0  0  0  0  0  0  0
   46.9770   31.7270   45.7980 C   0  0  0  0  0  0  0  0  0  0  0  0
   46.1080   30.5410   45.8220 C   0  0  0  0  0  0  0  0  0  0  0  0
   45.8120   30.2810   47.2940 C   0  0  0  0  0  0  0  0  0  0  0  0
   45.0250   31.3550   47.8950 C   0  0  0  0  0  0  0  0  0  0  0  0
   45.3870   32.7250   47.4490 C   0  0  0  0  0  0  0  0  0  0  0  0
   47.2830   33.4860   46.9990 H   0  0  0  0  0  0  0  0  0  0  0  0
   47.9410   31.4600   46.2820 H   0  0  0  0  0  0  0  0  0  0  0  0
   47.2530   31.9260   44.7290 H   0  0  0  0  0  0  0  0  0  0  0  0
   45.1950   30.6550   45.2270 H   0  0  0  0  0  0  0  0  0  0  0  0
   46.6750   29.6720   45.4760 H   0  0  0  0  0  0  0  0  0  0  0  0
   46.7470   30.1010   47.8230 H   0  0  0  0  0  0  0  0  0  0  0  0
   45.1210   29.4010   47.2750 H   0  0  0  0  0  0  0  0  0  0  0  0
   44.2280   31.4090   48.5960 H   0  0  0  0  0  0  0  0  0  0  0  0
   44.6970   33.8480   47.9580 N   0  0  0  0  0  0  0  0  0  0  0  0
   43.8520   34.4160   47.7300 H   0  0  0  0  0  0  0  0  0  0  0  0
   45.3050   34.0660   48.7810 H   0  0  0  0  0  0  0  0  0  0  0  0
   47.0220   34.6730   41.9290 C   0  0  0  0  0  0  0  0  0  0  0  0
   48.1330   35.4400   41.7940 C   0  0  0  0  0  0  0  0  0  0  0  0
   48.7790   35.4060   40.5480 C   0  0  0  0  0  0  0  0  0  0  0  0
   48.2130   34.5930   39.5910 C   0  0  0  0  0  0  0  0  0  0  0  0
   47.1040   33.8270   39.7250 C   0  0  0  0  0  0  0  0  0  0  0  0
   46.5110   33.8940   40.9550 N   0  0  0  0  0  0  0  0  0  0  0  0
   48.5220   36.0560   42.5920 H   0  0  0  0  0  0  0  0  0  0  0  0
   49.6700   35.9940   40.3710 H   0  0  0  0  0  0  0  0  0  0  0  0
   48.7460   34.5990   38.6480 H   0  0  0  0  0  0  0  0  0  0  0  0
   44.1530   33.7090   39.7470 Cl  0  0  0  0  0  0  0  0  0  0  0  0
   45.1710   32.8390   38.5970 C   0  0  0  0  0  0  0  0  0  0  0  0
   46.5390   32.9900   38.7080 C   0  0  0  0  0  0  0  0  0  0  0  0
   47.3160   32.3010   37.8000 C   0  0  0  0  0  0  0  0  0  0  0  0
   48.3960   32.3630   37.8150 H   0  0  0  0  0  0  0  0  0  0  0  0
   46.7790   31.4820   36.8040 C   0  0  0  0  0  0  0  0  0  0  0  0
   47.4270   30.9540   36.1050 H   0  0  0  0  0  0  0  0  0  0  0  0
   45.4100   31.3630   36.7330 C   0  0  0  0  0  0  0  0  0  0  0  0
   45.0120   30.7280   35.9600 H   0  0  0  0  0  0  0  0  0  0  0  0
   44.6220   32.0300   37.6160 C   0  0  0  0  0  0  0  0  0  0  0  0
   42.8680   31.8990   37.5510 Cl  0  0  0  0  0  0  0  0  0  0  0  0
  1  7  1  0  0  0  0
  1  6  1  0  0  0  0
  2  1  2  0  0  0  0
  3  2  1  0  0  0  0
  3  4  2  0  0  0  0
  4  5  1  0  0  0  0
  5  6  2  0  0  0  0
  5  9  1  0  0  0  0
  8  2  1  0  0  0  0
  9 15  1  1  0  0  0
  9 14  1  0  0  0  0
 10 11  1  0  0  0  0
 10 16  1  0  0  0  0
 10  9  1  0  0  0  0
 11 12  1  0  0  0  0
 12 20  1  0  0  0  0
 12 13  1  0  0  0  0
 13 22  1  0  0  0  0
 14 13  2  0  0  0  0
 14 23  1  0  0  0  0
 17 10  1  0  0  0  0
 18 11  1  0  0  0  0
 19 11  1  0  0  0  0
 21 12  1  0  0  0  0
 23 25  1  0  0  0  0
 24 23  1  0  0  0  0
 26  3  1  0  0  0  0
 27 26  1  0  0  0  0
 27 32  1  0  0  0  0
 28 27  2  0  0  0  0
 29 30  2  0  0  0  0
 29 28  1  0  0  0  0
 30 31  1  0  0  0  0
 31 26  2  0  0  0  0
 33 28  1  0  0  0  0
 34 29  1  0  0  0  0
 36 37  1  0  0  0  0
 36 35  1  0  0  0  0
 37 30  1  0  0  0  0
 38 39  1  0  0  0  0
 38 37  2  0  0  0  0
 40 38  1  0  0  0  0
 41 40  1  0  0  0  0
 42 40  2  0  0  0  0
 42 44  1  0  0  0  0
 43 42  1  0  0  0  0
 44 36  2  0  0  0  0
 45 44  1  0  0  0  0
M  END
>  <minimizedAffinity>
-7.60295773

>  <minimizedRMSD>
0.286705554

$$$$
