
 OpenBabel03252506353D

 35 37  0  0  1  0  0  0  0  0999 V2000
   41.7350   34.1190   38.7840 C   0  0  0  0  0  0  0  0  0  0  0  0
   42.1430   33.5470   37.5700 C   0  0  0  0  0  0  0  0  0  0  0  0
   41.8860   32.2280   37.3470 C   0  0  0  0  0  0  0  0  0  0  0  0
   41.2460   31.5540   38.3310 N   0  0  0  0  0  0  0  0  0  0  0  0
   40.8630   32.1140   39.4860 C   0  0  0  0  0  0  0  0  0  0  0  0
   41.0980   33.3930   39.7310 N   0  0  0  0  0  0  0  0  0  0  0  0
   40.1890   31.2840   40.4400 N   0  0  0  0  0  0  0  0  0  0  0  0
   39.4780   31.7950   41.5990 C   0  0  0  0  0  0  0  0  0  0  0  0
   39.8140   30.7520   42.6370 C   0  0  0  0  0  0  0  0  0  0  0  0
   40.4500   29.5930   41.9210 C   0  0  0  0  0  0  0  0  0  0  0  0
   40.0760   29.8360   40.4600 C   0  0  1  0  0  0  0  0  0  0  0  0
   41.9160   35.1740   39.0110 H   0  0  0  0  0  0  0  0  0  0  0  0
   42.1950   31.7860   36.4230 H   0  0  0  0  0  0  0  0  0  0  0  0
   38.3830   31.7490   41.4590 H   0  0  0  0  0  0  0  0  0  0  0  0
   39.8250   32.8140   41.8810 H   0  0  0  0  0  0  0  0  0  0  0  0
   38.9830   30.4810   43.2870 H   0  0  0  0  0  0  0  0  0  0  0  0
   40.5900   31.2270   43.2990 H   0  0  0  0  0  0  0  0  0  0  0  0
   41.5440   29.6300   42.0250 H   0  0  0  0  0  0  0  0  0  0  0  0
   40.0340   28.6440   42.3200 H   0  0  0  0  0  0  0  0  0  0  0  0
   40.8200   29.4780   39.7490 H   0  0  0  0  0  0  0  0  0  0  0  0
   42.8070   34.4210   36.6440 N   0  0  0  0  0  0  0  0  0  0  0  0
   42.5700   35.4180   36.5150 H   0  0  0  0  0  0  0  0  0  0  0  0
   43.5930   34.0280   36.0520 H   0  0  0  0  0  0  0  0  0  0  0  0
   38.3960   29.2910   40.2090 S   0  0  0  0  0  0  0  0  0  0  0  0
   39.1350   26.1170   39.8000 Cl  0  0  0  0  0  0  0  0  0  0  0  0
   38.1030   26.5920   41.1070 C   0  0  0  0  0  0  0  0  0  0  0  0
   37.8570   27.9420   41.1820 C   0  0  0  0  0  0  0  0  0  0  0  0
   37.0060   28.3590   42.2170 C   0  0  0  0  0  0  0  0  0  0  0  0
   36.6810   29.3790   42.4540 H   0  0  0  0  0  0  0  0  0  0  0  0
   36.4700   27.4080   43.0940 C   0  0  0  0  0  0  0  0  0  0  0  0
   35.7990   27.6810   43.9190 H   0  0  0  0  0  0  0  0  0  0  0  0
   36.7570   26.0550   42.9680 C   0  0  0  0  0  0  0  0  0  0  0  0
   36.3430   25.3360   43.6410 H   0  0  0  0  0  0  0  0  0  0  0  0
   37.5880   25.6630   41.9530 C   0  0  0  0  0  0  0  0  0  0  0  0
   38.0220   23.9740   41.6960 Cl  0  0  0  0  0  0  0  0  0  0  0  0
  1 12  1  0  0  0  0
  1  6  1  0  0  0  0
  2  1  2  0  0  0  0
  3  2  1  0  0  0  0
  3  4  2  0  0  0  0
  4  5  1  0  0  0  0
  5  6  2  0  0  0  0
  5  7  1  0  0  0  0
  7 11  1  0  0  0  0
  7  8  1  0  0  0  0
  8 15  1  0  0  0  0
  8  9  1  0  0  0  0
  9 16  1  0  0  0  0
  9 17  1  0  0  0  0
 10 18  1  0  0  0  0
 10 19  1  0  0  0  0
 10  9  1  0  0  0  0
 11 20  1  6  0  0  0
 11 10  1  0  0  0  0
 13  3  1  0  0  0  0
 14  8  1  0  0  0  0
 21  2  1  0  0  0  0
 22 21  1  0  0  0  0
 23 21  1  0  0  0  0
 24 11  1  0  0  0  0
 24 27  1  0  0  0  0
 25 26  1  0  0  0  0
 26 27  2  0  0  0  0
 26 34  1  0  0  0  0
 27 28  1  0  0  0  0
 28 29  1  0  0  0  0
 28 30  2  0  0  0  0
 30 31  1  0  0  0  0
 32 30  1  0  0  0  0
 32 33  1  0  0  0  0
 34 32  2  0  0  0  0
 35 34  1  0  0  0  0
M  END
>  <minimizedAffinity>
-5.86466074

$$$$

 OpenBabel03252506353D

 35 37  0  0  1  0  0  0  0  0999 V2000
   39.9040   32.6370   40.0060 C   0  0  0  0  0  0  0  0  0  0  0  0
   38.7110   33.1000   40.5810 C   0  0  0  0  0  0  0  0  0  0  0  0
   37.5930   32.3300   40.4810 C   0  0  0  0  0  0  0  0  0  0  0  0
   37.7160   31.1540   39.8220 N   0  0  0  0  0  0  0  0  0  0  0  0
   38.8620   30.7250   39.2780 C   0  0  0  0  0  0  0  0  0  0  0  0
   39.9660   31.4510   39.3580 N   0  0  0  0  0  0  0  0  0  0  0  0
   38.8520   29.4560   38.6120 N   0  0  0  0  0  0  0  0  0  0  0  0
   40.0530   28.7380   38.2190 C   0  0  0  0  0  0  0  0  0  0  0  0
   39.6280   28.1510   36.8950 C   0  0  0  0  0  0  0  0  0  0  0  0
   38.1430   28.3460   36.7730 C   0  0  0  0  0  0  0  0  0  0  0  0
   37.7100   28.6560   38.2050 C   0  0  1  0  0  0  0  0  0  0  0  0
   40.8300   33.2180   40.0590 H   0  0  0  0  0  0  0  0  0  0  0  0
   36.6800   32.6780   40.9180 H   0  0  0  0  0  0  0  0  0  0  0  0
   40.2510   27.8800   38.8860 H   0  0  0  0  0  0  0  0  0  0  0  0
   40.9300   29.4160   38.1320 H   0  0  0  0  0  0  0  0  0  0  0  0
   39.9660   27.1300   36.7260 H   0  0  0  0  0  0  0  0  0  0  0  0
   40.1320   28.7840   36.1120 H   0  0  0  0  0  0  0  0  0  0  0  0
   37.9190   29.2110   36.1320 H   0  0  0  0  0  0  0  0  0  0  0  0
   37.6830   27.4160   36.3770 H   0  0  0  0  0  0  0  0  0  0  0  0
   36.8510   29.3240   38.2700 H   0  0  0  0  0  0  0  0  0  0  0  0
   38.7740   34.3730   41.2420 N   0  0  0  0  0  0  0  0  0  0  0  0
   39.5900   34.7090   41.7790 H   0  0  0  0  0  0  0  0  0  0  0  0
   37.9350   35.0170   41.1820 H   0  0  0  0  0  0  0  0  0  0  0  0
   37.6080   27.1230   39.1090 S   0  0  0  0  0  0  0  0  0  0  0  0
   40.2790   26.2570   40.8120 Cl  0  0  0  0  0  0  0  0  0  0  0  0
   38.9010   26.8910   41.6480 C   0  0  0  0  0  0  0  0  0  0  0  0
   37.8380   27.2170   40.8400 C   0  0  0  0  0  0  0  0  0  0  0  0
   36.6970   27.7120   41.4870 C   0  0  0  0  0  0  0  0  0  0  0  0
   35.7490   28.0290   41.0370 H   0  0  0  0  0  0  0  0  0  0  0  0
   36.7000   27.8480   42.8810 C   0  0  0  0  0  0  0  0  0  0  0  0
   35.8330   28.2300   43.4360 H   0  0  0  0  0  0  0  0  0  0  0  0
   37.8060   27.5030   43.6470 C   0  0  0  0  0  0  0  0  0  0  0  0
   37.8000   27.6090   44.7090 H   0  0  0  0  0  0  0  0  0  0  0  0
   38.9130   27.0190   43.0000 C   0  0  0  0  0  0  0  0  0  0  0  0
   40.3740   26.5500   43.8670 Cl  0  0  0  0  0  0  0  0  0  0  0  0
  1 12  1  0  0  0  0
  1  2  1  0  0  0  0
  2 21  1  0  0  0  0
  3  2  2  0  0  0  0
  3 13  1  0  0  0  0
  4  3  1  0  0  0  0
  5  6  1  0  0  0  0
  5  4  2  0  0  0  0
  6  1  2  0  0  0  0
  7  5  1  0  0  0  0
  8  7  1  0  0  0  0
  8 14  1  0  0  0  0
  9  8  1  0  0  0  0
 10  9  1  0  0  0  0
 10 11  1  0  0  0  0
 11 20  1  1  0  0  0
 11  7  1  0  0  0  0
 11 24  1  0  0  0  0
 15  8  1  0  0  0  0
 16  9  1  0  0  0  0
 17  9  1  0  0  0  0
 18 10  1  0  0  0  0
 19 10  1  0  0  0  0
 21 22  1  0  0  0  0
 23 21  1  0  0  0  0
 24 27  1  0  0  0  0
 25 26  1  0  0  0  0
 26 34  1  0  0  0  0
 27 28  1  0  0  0  0
 27 26  2  0  0  0  0
 28 30  2  0  0  0  0
 29 28  1  0  0  0  0
 30 31  1  0  0  0  0
 30 32  1  0  0  0  0
 32 33  1  0  0  0  0
 34 32  2  0  0  0  0
 34 35  1  0  0  0  0
M  END
>  <minimizedAffinity>
-5.55835629

$$$$

 OpenBabel03252506353D

 35 37  0  0  1  0  0  0  0  0999 V2000
   37.2800   30.0870   36.8140 C   0  0  0  0  0  0  0  0  0  0  0  0
   38.0420   28.9260   36.6150 C   0  0  0  0  0  0  0  0  0  0  0  0
   39.0170   28.6200   37.5140 C   0  0  0  0  0  0  0  0  0  0  0  0
   39.1850   29.4730   38.5510 N   0  0  0  0  0  0  0  0  0  0  0  0
   38.4490   30.5780   38.7280 C   0  0  0  0  0  0  0  0  0  0  0  0
   37.4940   30.9020   37.8720 N   0  0  0  0  0  0  0  0  0  0  0  0
   38.7300   31.3910   39.8750 N   0  0  0  0  0  0  0  0  0  0  0  0
   37.8570   32.4510   40.3490 C   0  0  0  0  0  0  0  0  0  0  0  0
   38.8610   33.4870   40.7900 C   0  0  0  0  0  0  0  0  0  0  0  0
   40.2140   32.8310   40.7940 C   0  0  0  0  0  0  0  0  0  0  0  0
   39.8800   31.3410   40.7610 C   0  0  1  0  0  0  0  0  0  0  0  0
   36.4840   30.3770   36.1220 H   0  0  0  0  0  0  0  0  0  0  0  0
   39.6020   27.7350   37.3670 H   0  0  0  0  0  0  0  0  0  0  0  0
   37.3070   32.1500   41.2580 H   0  0  0  0  0  0  0  0  0  0  0  0
   37.1790   32.8180   39.5480 H   0  0  0  0  0  0  0  0  0  0  0  0
   38.6040   33.9980   41.7170 H   0  0  0  0  0  0  0  0  0  0  0  0
   38.8530   34.2740   39.9850 H   0  0  0  0  0  0  0  0  0  0  0  0
   40.7730   33.0970   39.8850 H   0  0  0  0  0  0  0  0  0  0  0  0
   40.7620   33.1290   41.7120 H   0  0  0  0  0  0  0  0  0  0  0  0
   40.6210   30.7350   40.2390 H   0  0  0  0  0  0  0  0  0  0  0  0
   37.7170   28.1410   35.4570 N   0  0  0  0  0  0  0  0  0  0  0  0
   36.7600   28.0150   35.0910 H   0  0  0  0  0  0  0  0  0  0  0  0
   38.5040   27.6570   34.9380 H   0  0  0  0  0  0  0  0  0  0  0  0
   39.4350   30.8250   42.4090 S   0  0  0  0  0  0  0  0  0  0  0  0
   41.1110   28.1090   43.1820 Cl  0  0  0  0  0  0  0  0  0  0  0  0
   39.4050   28.0080   42.8990 C   0  0  0  0  0  0  0  0  0  0  0  0
   38.8050   29.2020   42.5790 C   0  0  0  0  0  0  0  0  0  0  0  0
   37.4270   29.1530   42.3210 C   0  0  0  0  0  0  0  0  0  0  0  0
   36.7610   29.9800   42.0500 H   0  0  0  0  0  0  0  0  0  0  0  0
   36.7540   27.9280   42.4030 C   0  0  0  0  0  0  0  0  0  0  0  0
   35.6770   27.8350   42.2110 H   0  0  0  0  0  0  0  0  0  0  0  0
   37.4150   26.7520   42.7330 C   0  0  0  0  0  0  0  0  0  0  0  0
   36.8950   25.8210   42.7930 H   0  0  0  0  0  0  0  0  0  0  0  0
   38.7610   26.8160   42.9810 C   0  0  0  0  0  0  0  0  0  0  0  0
   39.7030   25.3890   43.4080 Cl  0  0  0  0  0  0  0  0  0  0  0  0
  1  6  1  0  0  0  0
  2  1  2  0  0  0  0
  2  3  1  0  0  0  0
  3  4  2  0  0  0  0
  4  5  1  0  0  0  0
  5  7  1  0  0  0  0
  6  5  2  0  0  0  0
  7  8  1  0  0  0  0
  7 11  1  0  0  0  0
  8  9  1  0  0  0  0
  8 14  1  0  0  0  0
  9 10  1  0  0  0  0
  9 16  1  0  0  0  0
 10 19  1  0  0  0  0
 11 20  1  6  0  0  0
 11 10  1  0  0  0  0
 11 24  1  0  0  0  0
 12  1  1  0  0  0  0
 13  3  1  0  0  0  0
 15  8  1  0  0  0  0
 17  9  1  0  0  0  0
 18 10  1  0  0  0  0
 21  2  1  0  0  0  0
 22 21  1  0  0  0  0
 23 21  1  0  0  0  0
 24 27  1  0  0  0  0
 26 34  1  0  0  0  0
 26 25  1  0  0  0  0
 27 26  2  0  0  0  0
 28 30  2  0  0  0  0
 28 27  1  0  0  0  0
 29 28  1  0  0  0  0
 30 32  1  0  0  0  0
 31 30  1  0  0  0  0
 32 33  1  0  0  0  0
 32 34  2  0  0  0  0
 34 35  1  0  0  0  0
M  END
>  <minimizedAffinity>
-5.54365349

$$$$

 OpenBabel03252506353D

 35 37  0  0  1  0  0  0  0  0999 V2000
   42.1910   31.6840   37.0010 C   0  0  0  0  0  0  0  0  0  0  0  0
   43.0400   30.9140   37.8090 C   0  0  0  0  0  0  0  0  0  0  0  0
   42.5330   30.3460   38.9380 C   0  0  0  0  0  0  0  0  0  0  0  0
   41.2250   30.5710   39.2020 N   0  0  0  0  0  0  0  0  0  0  0  0
   40.4260   31.3080   38.4200 C   0  0  0  0  0  0  0  0  0  0  0  0
   40.8900   31.8730   37.3160 N   0  0  0  0  0  0  0  0  0  0  0  0
   39.0570   31.4610   38.8160 N   0  0  0  0  0  0  0  0  0  0  0  0
   38.0170   31.9890   37.9510 C   0  0  0  0  0  0  0  0  0  0  0  0
   37.1990   32.7970   38.9280 C   0  0  0  0  0  0  0  0  0  0  0  0
   37.6700   32.4420   40.3110 C   0  0  0  0  0  0  0  0  0  0  0  0
   38.4440   31.1430   40.0940 C   0  0  1  0  0  0  0  0  0  0  0  0
   42.5500   32.1600   36.0830 H   0  0  0  0  0  0  0  0  0  0  0  0
   43.1760   29.7570   39.5590 H   0  0  0  0  0  0  0  0  0  0  0  0
   37.3510   31.1900   37.5790 H   0  0  0  0  0  0  0  0  0  0  0  0
   38.4390   32.6040   37.1250 H   0  0  0  0  0  0  0  0  0  0  0  0
   36.1230   32.7230   38.7830 H   0  0  0  0  0  0  0  0  0  0  0  0
   37.4700   33.8710   38.7280 H   0  0  0  0  0  0  0  0  0  0  0  0
   38.3550   33.2120   40.6940 H   0  0  0  0  0  0  0  0  0  0  0  0
   36.7900   32.3130   40.9750 H   0  0  0  0  0  0  0  0  0  0  0  0
   39.2740   31.0050   40.7870 H   0  0  0  0  0  0  0  0  0  0  0  0
   44.3990   30.7850   37.3660 N   0  0  0  0  0  0  0  0  0  0  0  0
   44.6830   30.7190   36.3750 H   0  0  0  0  0  0  0  0  0  0  0  0
   45.1690   30.7560   38.0940 H   0  0  0  0  0  0  0  0  0  0  0  0
   37.2750   29.8030   39.9630 S   0  0  0  0  0  0  0  0  0  0  0  0
   36.7780   26.5630   39.7750 Cl  0  0  0  0  0  0  0  0  0  0  0  0
   37.0530   27.2960   41.3200 C   0  0  0  0  0  0  0  0  0  0  0  0
   37.2450   28.6570   41.2830 C   0  0  0  0  0  0  0  0  0  0  0  0
   37.4490   29.2860   42.5200 C   0  0  0  0  0  0  0  0  0  0  0  0
   37.6190   30.3520   42.7150 H   0  0  0  0  0  0  0  0  0  0  0  0
   37.4480   28.5200   43.6920 C   0  0  0  0  0  0  0  0  0  0  0  0
   37.6020   28.9630   44.6840 H   0  0  0  0  0  0  0  0  0  0  0  0
   37.2490   27.1460   43.6660 C   0  0  0  0  0  0  0  0  0  0  0  0
   37.2500   26.5680   44.5640 H   0  0  0  0  0  0  0  0  0  0  0  0
   37.0510   26.5450   42.4510 C   0  0  0  0  0  0  0  0  0  0  0  0
   36.7890   24.8090   42.2960 Cl  0  0  0  0  0  0  0  0  0  0  0  0
  1  6  2  0  0  0  0
  1  2  1  0  0  0  0
  2  3  2  0  0  0  0
  3  4  1  0  0  0  0
  3 13  1  0  0  0  0
  5  7  1  0  0  0  0
  5  4  2  0  0  0  0
  6  5  1  0  0  0  0
  7 11  1  0  0  0  0
  8  7  1  0  0  0  0
  8  9  1  0  0  0  0
  9 10  1  0  0  0  0
 10 18  1  0  0  0  0
 10 19  1  0  0  0  0
 11 10  1  0  0  0  0
 11 20  1  1  0  0  0
 12  1  1  0  0  0  0
 14  8  1  0  0  0  0
 15  8  1  0  0  0  0
 16  9  1  0  0  0  0
 17  9  1  0  0  0  0
 21  2  1  0  0  0  0
 21 23  1  0  0  0  0
 22 21  1  0  0  0  0
 24 11  1  0  0  0  0
 24 27  1  0  0  0  0
 25 26  1  0  0  0  0
 26 34  1  0  0  0  0
 27 26  2  0  0  0  0
 27 28  1  0  0  0  0
 28 29  1  0  0  0  0
 28 30  2  0  0  0  0
 30 31  1  0  0  0  0
 32 30  1  0  0  0  0
 32 33  1  0  0  0  0
 34 32  2  0  0  0  0
 35 34  1  0  0  0  0
M  END
>  <minimizedAffinity>
-5.42902899

$$$$

 OpenBabel03252506353D

 35 37  0  0  1  0  0  0  0  0999 V2000
   38.6510   27.5650   36.6010 C   0  0  0  0  0  0  0  0  0  0  0  0
   37.5070   28.2600   36.1830 C   0  0  0  0  0  0  0  0  0  0  0  0
   36.5430   28.5470   37.1000 C   0  0  0  0  0  0  0  0  0  0  0  0
   36.7620   28.1330   38.3700 N   0  0  0  0  0  0  0  0  0  0  0  0
   37.8600   27.4700   38.7540 C   0  0  0  0  0  0  0  0  0  0  0  0
   38.8150   27.1760   37.8860 N   0  0  0  0  0  0  0  0  0  0  0  0
   37.9660   27.0950   40.1330 N   0  0  0  0  0  0  0  0  0  0  0  0
   39.1930   26.6250   40.7530 C   0  0  0  0  0  0  0  0  0  0  0  0
   38.6670   25.5620   41.6860 C   0  0  0  0  0  0  0  0  0  0  0  0
   37.1710   25.7030   41.7310 C   0  0  0  0  0  0  0  0  0  0  0  0
   36.9330   27.0980   41.1540 C   0  0  1  0  0  0  0  0  0  0  0  0
   39.4550   27.3110   35.9030 H   0  0  0  0  0  0  0  0  0  0  0  0
   35.6670   29.0780   36.7870 H   0  0  0  0  0  0  0  0  0  0  0  0
   39.6490   27.4000   41.3950 H   0  0  0  0  0  0  0  0  0  0  0  0
   39.9090   26.2260   40.0010 H   0  0  0  0  0  0  0  0  0  0  0  0
   39.1490   25.5420   42.6630 H   0  0  0  0  0  0  0  0  0  0  0  0
   38.9140   24.5810   41.1930 H   0  0  0  0  0  0  0  0  0  0  0  0
   36.6940   24.9570   41.0790 H   0  0  0  0  0  0  0  0  0  0  0  0
   36.8260   25.6070   42.7810 H   0  0  0  0  0  0  0  0  0  0  0  0
   35.9920   27.1960   40.6140 H   0  0  0  0  0  0  0  0  0  0  0  0
   37.4510   28.6200   34.7940 N   0  0  0  0  0  0  0  0  0  0  0  0
   38.2720   28.9010   34.2340 H   0  0  0  0  0  0  0  0  0  0  0  0
   36.5120   28.5990   34.3030 H   0  0  0  0  0  0  0  0  0  0  0  0
   37.2560   28.3000   42.4320 S   0  0  0  0  0  0  0  0  0  0  0  0
   35.8770   30.5360   40.4610 Cl  0  0  0  0  0  0  0  0  0  0  0  0
   37.4560   30.8270   41.1100 C   0  0  0  0  0  0  0  0  0  0  0  0
   37.9390   29.8250   41.9180 C   0  0  0  0  0  0  0  0  0  0  0  0
   39.2250   30.0190   42.4430 C   0  0  0  0  0  0  0  0  0  0  0  0
   39.7930   29.3520   43.1020 H   0  0  0  0  0  0  0  0  0  0  0  0
   39.9290   31.1880   42.1280 C   0  0  0  0  0  0  0  0  0  0  0  0
   40.9380   31.3880   42.5120 H   0  0  0  0  0  0  0  0  0  0  0  0
   39.3880   32.1670   41.3050 C   0  0  0  0  0  0  0  0  0  0  0  0
   39.9320   33.0560   41.0690 H   0  0  0  0  0  0  0  0  0  0  0  0
   38.1320   31.9630   40.7990 C   0  0  0  0  0  0  0  0  0  0  0  0
   37.3440   33.1360   39.7450 Cl  0  0  0  0  0  0  0  0  0  0  0  0
  1  6  1  0  0  0  0
  2  1  2  0  0  0  0
  2  3  1  0  0  0  0
  3  4  2  0  0  0  0
  4  5  1  0  0  0  0
  5  7  1  0  0  0  0
  6  5  2  0  0  0  0
  7  8  1  0  0  0  0
  7 11  1  0  0  0  0
  8 14  1  0  0  0  0
  8  9  1  0  0  0  0
  9 10  1  0  0  0  0
  9 16  1  0  0  0  0
 10 19  1  0  0  0  0
 11 20  1  6  0  0  0
 11 10  1  0  0  0  0
 11 24  1  0  0  0  0
 12  1  1  0  0  0  0
 13  3  1  0  0  0  0
 15  8  1  0  0  0  0
 17  9  1  0  0  0  0
 18 10  1  0  0  0  0
 21  2  1  0  0  0  0
 22 21  1  0  0  0  0
 23 21  1  0  0  0  0
 25 26  1  0  0  0  0
 26 27  1  0  0  0  0
 27 24  1  0  0  0  0
 27 28  2  0  0  0  0
 28 29  1  0  0  0  0
 30 28  1  0  0  0  0
 30 31  1  0  0  0  0
 32 30  2  0  0  0  0
 33 32  1  0  0  0  0
 34 26  2  0  0  0  0
 34 32  1  0  0  0  0
 35 34  1  0  0  0  0
M  END
>  <minimizedAffinity>
-5.38896608

$$$$

 OpenBabel03252506353D

 35 37  0  0  1  0  0  0  0  0999 V2000
   36.9410   29.7990   36.6200 C   0  0  0  0  0  0  0  0  0  0  0  0
   37.6270   28.6020   36.3640 C   0  0  0  0  0  0  0  0  0  0  0  0
   38.5420   28.1640   37.2720 C   0  0  0  0  0  0  0  0  0  0  0  0
   38.7270   28.9290   38.3730 N   0  0  0  0  0  0  0  0  0  0  0  0
   38.0640   30.0690   38.6040 C   0  0  0  0  0  0  0  0  0  0  0  0
   37.1680   30.5210   37.7400 N   0  0  0  0  0  0  0  0  0  0  0  0
   38.3550   30.7780   39.8150 N   0  0  0  0  0  0  0  0  0  0  0  0
   37.5400   31.8630   40.3340 C   0  0  0  0  0  0  0  0  0  0  0  0
   38.5960   32.7910   40.8840 C   0  0  0  0  0  0  0  0  0  0  0  0
   39.8980   32.0400   40.8870 C   0  0  0  0  0  0  0  0  0  0  0  0
   39.4620   30.5830   40.7350 C   0  0  1  0  0  0  0  0  0  0  0  0
   36.1950   30.1930   35.9230 H   0  0  0  0  0  0  0  0  0  0  0  0
   39.0680   27.2520   37.0820 H   0  0  0  0  0  0  0  0  0  0  0  0
   36.9340   31.5400   41.1990 H   0  0  0  0  0  0  0  0  0  0  0  0
   36.9220   32.3340   39.5380 H   0  0  0  0  0  0  0  0  0  0  0  0
   38.3380   33.2530   41.8350 H   0  0  0  0  0  0  0  0  0  0  0  0
   38.6750   33.6300   40.1370 H   0  0  0  0  0  0  0  0  0  0  0  0
   40.5100   32.3260   40.0200 H   0  0  0  0  0  0  0  0  0  0  0  0
   40.4290   32.2320   41.8420 H   0  0  0  0  0  0  0  0  0  0  0  0
   40.1790   29.9630   40.1970 H   0  0  0  0  0  0  0  0  0  0  0  0
   37.2950   27.9260   35.1420 N   0  0  0  0  0  0  0  0  0  0  0  0
   36.3460   27.8950   34.7340 H   0  0  0  0  0  0  0  0  0  0  0  0
   38.0660   27.4230   34.6160 H   0  0  0  0  0  0  0  0  0  0  0  0
   38.9170   29.9880   42.3250 S   0  0  0  0  0  0  0  0  0  0  0  0
   36.6320   27.8230   41.3900 Cl  0  0  0  0  0  0  0  0  0  0  0  0
   38.0490   27.2650   42.2130 C   0  0  0  0  0  0  0  0  0  0  0  0
   38.9370   28.2550   42.5610 C   0  0  0  0  0  0  0  0  0  0  0  0
   40.0870   27.8410   43.2500 C   0  0  0  0  0  0  0  0  0  0  0  0
   40.9140   28.4590   43.6170 H   0  0  0  0  0  0  0  0  0  0  0  0
   40.2670   26.4810   43.5350 C   0  0  0  0  0  0  0  0  0  0  0  0
   41.1480   26.1050   44.0710 H   0  0  0  0  0  0  0  0  0  0  0  0
   39.3340   25.5260   43.1560 C   0  0  0  0  0  0  0  0  0  0  0  0
   39.4780   24.4910   43.3780 H   0  0  0  0  0  0  0  0  0  0  0  0
   38.2160   25.9460   42.4850 C   0  0  0  0  0  0  0  0  0  0  0  0
   36.9650   24.8230   41.9540 Cl  0  0  0  0  0  0  0  0  0  0  0  0
  1  6  1  0  0  0  0
  2  1  2  0  0  0  0
  2  3  1  0  0  0  0
  3  4  2  0  0  0  0
  4  5  1  0  0  0  0
  5  7  1  0  0  0  0
  6  5  2  0  0  0  0
  7  8  1  0  0  0  0
  7 11  1  0  0  0  0
  8  9  1  0  0  0  0
  8 14  1  0  0  0  0
  9 10  1  0  0  0  0
  9 16  1  0  0  0  0
 10 19  1  0  0  0  0
 11 20  1  6  0  0  0
 11 10  1  0  0  0  0
 11 24  1  0  0  0  0
 12  1  1  0  0  0  0
 13  3  1  0  0  0  0
 15  8  1  0  0  0  0
 17  9  1  0  0  0  0
 18 10  1  0  0  0  0
 21  2  1  0  0  0  0
 22 21  1  0  0  0  0
 23 21  1  0  0  0  0
 24 27  1  0  0  0  0
 25 26  1  0  0  0  0
 26 34  2  0  0  0  0
 26 27  1  0  0  0  0
 27 28  2  0  0  0  0
 28 30  1  0  0  0  0
 28 29  1  0  0  0  0
 30 31  1  0  0  0  0
 32 33  1  0  0  0  0
 32 30  2  0  0  0  0
 34 32  1  0  0  0  0
 35 34  1  0  0  0  0
M  END
>  <minimizedAffinity>
-5.38414764

$$$$

 OpenBabel03252506353D

 35 37  0  0  1  0  0  0  0  0999 V2000
   42.3410   30.5700   40.4480 C   0  0  0  0  0  0  0  0  0  0  0  0
   42.5100   30.8030   41.8210 C   0  0  0  0  0  0  0  0  0  0  0  0
   41.4310   31.1810   42.5600 C   0  0  0  0  0  0  0  0  0  0  0  0
   40.2530   31.3060   41.9050 N   0  0  0  0  0  0  0  0  0  0  0  0
   40.1070   31.0800   40.5930 C   0  0  0  0  0  0  0  0  0  0  0  0
   41.1370   30.7120   39.8480 N   0  0  0  0  0  0  0  0  0  0  0  0
   38.8000   31.2460   40.0280 N   0  0  0  0  0  0  0  0  0  0  0  0
   38.4250   30.7800   38.7030 C   0  0  0  0  0  0  0  0  0  0  0  0
   37.5190   31.8950   38.2430 C   0  0  0  0  0  0  0  0  0  0  0  0
   37.2270   32.7610   39.4360 C   0  0  0  0  0  0  0  0  0  0  0  0
   37.6330   31.8790   40.6160 C   0  0  1  0  0  0  0  0  0  0  0  0
   43.1760   30.2640   39.8110 H   0  0  0  0  0  0  0  0  0  0  0  0
   41.5540   31.3600   43.6080 H   0  0  0  0  0  0  0  0  0  0  0  0
   37.7970   29.8730   38.7530 H   0  0  0  0  0  0  0  0  0  0  0  0
   39.3130   30.6440   38.0470 H   0  0  0  0  0  0  0  0  0  0  0  0
   36.6360   31.5620   37.6990 H   0  0  0  0  0  0  0  0  0  0  0  0
   38.1300   32.4950   37.5120 H   0  0  0  0  0  0  0  0  0  0  0  0
   37.8590   33.6610   39.4230 H   0  0  0  0  0  0  0  0  0  0  0  0
   36.1480   33.0210   39.4450 H   0  0  0  0  0  0  0  0  0  0  0  0
   38.0080   32.4370   41.4740 H   0  0  0  0  0  0  0  0  0  0  0  0
   43.8350   30.6160   42.3400 N   0  0  0  0  0  0  0  0  0  0  0  0
   44.4910   29.8890   42.0120 H   0  0  0  0  0  0  0  0  0  0  0  0
   44.1730   31.2620   43.1110 H   0  0  0  0  0  0  0  0  0  0  0  0
   36.3210   30.7120   40.9270 S   0  0  0  0  0  0  0  0  0  0  0  0
   35.9110   27.8220   39.4240 Cl  0  0  0  0  0  0  0  0  0  0  0  0
   36.6820   27.8760   40.9740 C   0  0  0  0  0  0  0  0  0  0  0  0
   36.7980   29.1350   41.5130 C   0  0  0  0  0  0  0  0  0  0  0  0
   37.3970   29.2140   42.7790 C   0  0  0  0  0  0  0  0  0  0  0  0
   37.5850   30.1090   43.3830 H   0  0  0  0  0  0  0  0  0  0  0  0
   37.8350   28.0410   43.4080 C   0  0  0  0  0  0  0  0  0  0  0  0
   38.3100   28.0480   44.3980 H   0  0  0  0  0  0  0  0  0  0  0  0
   37.6920   26.7950   42.8120 C   0  0  0  0  0  0  0  0  0  0  0  0
   38.0280   25.9060   43.2980 H   0  0  0  0  0  0  0  0  0  0  0  0
   37.1030   26.7350   41.5760 C   0  0  0  0  0  0  0  0  0  0  0  0
   36.8690   25.2100   40.7240 Cl  0  0  0  0  0  0  0  0  0  0  0  0
  1  2  1  0  0  0  0
  2 21  1  0  0  0  0
  2  3  2  0  0  0  0
  3 13  1  0  0  0  0
  4  3  1  0  0  0  0
  5  4  2  0  0  0  0
  6  1  2  0  0  0  0
  6  5  1  0  0  0  0
  7  5  1  0  0  0  0
  7 11  1  0  0  0  0
  8 14  1  0  0  0  0
  8  7  1  0  0  0  0
  9  8  1  0  0  0  0
  9 10  1  0  0  0  0
 10 19  1  0  0  0  0
 10 11  1  0  0  0  0
 11 24  1  0  0  0  0
 11 20  1  1  0  0  0
 12  1  1  0  0  0  0
 15  8  1  0  0  0  0
 16  9  1  0  0  0  0
 17  9  1  0  0  0  0
 18 10  1  0  0  0  0
 21 23  1  0  0  0  0
 22 21  1  0  0  0  0
 24 27  1  0  0  0  0
 25 26  1  0  0  0  0
 26 27  2  0  0  0  0
 26 34  1  0  0  0  0
 27 28  1  0  0  0  0
 28 29  1  0  0  0  0
 28 30  2  0  0  0  0
 30 31  1  0  0  0  0
 32 33  1  0  0  0  0
 32 30  1  0  0  0  0
 34 32  2  0  0  0  0
 35 34  1  0  0  0  0
M  END
>  <minimizedAffinity>
-5.32687855

$$$$

 OpenBabel03252506353D

 35 37  0  0  1  0  0  0  0  0999 V2000
   38.2890   27.9800   36.1850 C   0  0  0  0  0  0  0  0  0  0  0  0
   37.1930   28.7280   35.7300 C   0  0  0  0  0  0  0  0  0  0  0  0
   36.3160   29.2270   36.6440 C   0  0  0  0  0  0  0  0  0  0  0  0
   36.5700   28.9600   37.9470 N   0  0  0  0  0  0  0  0  0  0  0  0
   37.6220   28.2440   38.3650 C   0  0  0  0  0  0  0  0  0  0  0  0
   38.4920   27.7460   37.5010 N   0  0  0  0  0  0  0  0  0  0  0  0
   37.7730   28.0410   39.7760 N   0  0  0  0  0  0  0  0  0  0  0  0
   38.9850   27.5340   40.3960 C   0  0  0  0  0  0  0  0  0  0  0  0
   38.4170   26.6590   41.4870 C   0  0  0  0  0  0  0  0  0  0  0  0
   36.9460   26.9550   41.5810 C   0  0  0  0  0  0  0  0  0  0  0  0
   36.8070   28.2810   40.8340 C   0  0  1  0  0  0  0  0  0  0  0  0
   39.0230   27.5580   35.4910 H   0  0  0  0  0  0  0  0  0  0  0  0
   35.4770   29.7980   36.3040 H   0  0  0  0  0  0  0  0  0  0  0  0
   39.5490   28.3350   40.9060 H   0  0  0  0  0  0  0  0  0  0  0  0
   39.6150   26.9700   39.6720 H   0  0  0  0  0  0  0  0  0  0  0  0
   38.9510   26.7160   42.4330 H   0  0  0  0  0  0  0  0  0  0  0  0
   38.5410   25.6030   41.1180 H   0  0  0  0  0  0  0  0  0  0  0  0
   36.3640   26.1830   41.0580 H   0  0  0  0  0  0  0  0  0  0  0  0
   36.6560   27.0310   42.6490 H   0  0  0  0  0  0  0  0  0  0  0  0
   35.8490   28.4030   40.3290 H   0  0  0  0  0  0  0  0  0  0  0  0
   37.0890   28.9090   34.3100 N   0  0  0  0  0  0  0  0  0  0  0  0
   37.8980   29.0320   33.6790 H   0  0  0  0  0  0  0  0  0  0  0  0
   36.1250   28.9200   33.8700 H   0  0  0  0  0  0  0  0  0  0  0  0
   37.3170   29.5980   41.9220 S   0  0  0  0  0  0  0  0  0  0  0  0
   40.3510   30.8210   42.2070 Cl  0  0  0  0  0  0  0  0  0  0  0  0
   39.1930   31.6340   41.2080 C   0  0  0  0  0  0  0  0  0  0  0  0
   37.9550   31.0390   41.1640 C   0  0  0  0  0  0  0  0  0  0  0  0
   36.9860   31.6840   40.3810 C   0  0  0  0  0  0  0  0  0  0  0  0
   35.9450   31.3830   40.2100 H   0  0  0  0  0  0  0  0  0  0  0  0
   37.3200   32.8630   39.7040 C   0  0  0  0  0  0  0  0  0  0  0  0
   36.6000   33.4060   39.0780 H   0  0  0  0  0  0  0  0  0  0  0  0
   38.5910   33.4170   39.7850 C   0  0  0  0  0  0  0  0  0  0  0  0
   38.8380   34.3170   39.2660 H   0  0  0  0  0  0  0  0  0  0  0  0
   39.5260   32.7770   40.5550 C   0  0  0  0  0  0  0  0  0  0  0  0
   41.1700   33.3870   40.7320 Cl  0  0  0  0  0  0  0  0  0  0  0  0
  1  6  1  0  0  0  0
  2  1  2  0  0  0  0
  2  3  1  0  0  0  0
  3  4  2  0  0  0  0
  4  5  1  0  0  0  0
  5  7  1  0  0  0  0
  6  5  2  0  0  0  0
  7  8  1  0  0  0  0
  7 11  1  0  0  0  0
  8 14  1  0  0  0  0
  8  9  1  0  0  0  0
  9 10  1  0  0  0  0
  9 16  1  0  0  0  0
 10 19  1  0  0  0  0
 11 20  1  6  0  0  0
 11 10  1  0  0  0  0
 11 24  1  0  0  0  0
 12  1  1  0  0  0  0
 13  3  1  0  0  0  0
 15  8  1  0  0  0  0
 17  9  1  0  0  0  0
 18 10  1  0  0  0  0
 21  2  1  0  0  0  0
 22 21  1  0  0  0  0
 23 21  1  0  0  0  0
 26 25  1  0  0  0  0
 27 26  1  0  0  0  0
 27 24  1  0  0  0  0
 28 27  2  0  0  0  0
 29 28  1  0  0  0  0
 30 32  2  0  0  0  0
 30 28  1  0  0  0  0
 31 30  1  0  0  0  0
 32 34  1  0  0  0  0
 33 32  1  0  0  0  0
 34 35  1  0  0  0  0
 34 26  2  0  0  0  0
M  END
>  <minimizedAffinity>
-5.29659986

$$$$

 OpenBabel03252506353D

 35 37  0  0  1  0  0  0  0  0999 V2000
   42.9420   31.3150   36.6360 C   0  0  0  0  0  0  0  0  0  0  0  0
   43.6300   32.2640   37.4070 C   0  0  0  0  0  0  0  0  0  0  0  0
   43.2800   32.4250   38.7130 C   0  0  0  0  0  0  0  0  0  0  0  0
   42.2760   31.6470   39.1800 N   0  0  0  0  0  0  0  0  0  0  0  0
   41.6280   30.7450   38.4310 C   0  0  0  0  0  0  0  0  0  0  0  0
   41.9450   30.5650   37.1590 N   0  0  0  0  0  0  0  0  0  0  0  0
   40.5860   29.9840   39.0550 N   0  0  0  0  0  0  0  0  0  0  0  0
   39.9880   28.7970   38.4680 C   0  0  0  0  0  0  0  0  0  0  0  0
   38.5430   28.9640   38.8710 C   0  0  0  0  0  0  0  0  0  0  0  0
   38.4830   30.0720   39.8840 C   0  0  0  0  0  0  0  0  0  0  0  0
   39.9360   30.2160   40.3330 C   0  0  1  0  0  0  0  0  0  0  0  0
   43.1850   31.1460   35.5830 H   0  0  0  0  0  0  0  0  0  0  0  0
   43.8020   33.1470   39.3070 H   0  0  0  0  0  0  0  0  0  0  0  0
   40.3410   27.8750   38.9620 H   0  0  0  0  0  0  0  0  0  0  0  0
   40.1290   28.7660   37.3650 H   0  0  0  0  0  0  0  0  0  0  0  0
   38.0530   28.0410   39.1800 H   0  0  0  0  0  0  0  0  0  0  0  0
   38.0100   29.3070   37.9410 H   0  0  0  0  0  0  0  0  0  0  0  0
   38.1560   31.0090   39.4100 H   0  0  0  0  0  0  0  0  0  0  0  0
   37.8050   29.7760   40.7110 H   0  0  0  0  0  0  0  0  0  0  0  0
   40.2110   31.2320   40.6170 H   0  0  0  0  0  0  0  0  0  0  0  0
   44.6690   32.9950   36.7400 N   0  0  0  0  0  0  0  0  0  0  0  0
   45.2900   32.5950   36.0170 H   0  0  0  0  0  0  0  0  0  0  0  0
   44.8170   34.0130   36.9970 H   0  0  0  0  0  0  0  0  0  0  0  0
   40.2940   28.9260   41.5120 S   0  0  0  0  0  0  0  0  0  0  0  0
   39.1380   25.9500   40.7450 Cl  0  0  0  0  0  0  0  0  0  0  0  0
   38.3560   26.8760   41.9810 C   0  0  0  0  0  0  0  0  0  0  0  0
   38.9190   28.1080   42.2180 C   0  0  0  0  0  0  0  0  0  0  0  0
   38.2970   28.8940   43.1990 C   0  0  0  0  0  0  0  0  0  0  0  0
   38.5790   29.8980   43.5400 H   0  0  0  0  0  0  0  0  0  0  0  0
   37.1700   28.3990   43.8670 C   0  0  0  0  0  0  0  0  0  0  0  0
   36.6460   28.9740   44.6420 H   0  0  0  0  0  0  0  0  0  0  0  0
   36.6470   27.1440   43.5850 C   0  0  0  0  0  0  0  0  0  0  0  0
   35.7870   26.7740   44.0980 H   0  0  0  0  0  0  0  0  0  0  0  0
   37.2650   26.3880   42.6240 C   0  0  0  0  0  0  0  0  0  0  0  0
   36.6890   24.7820   42.1820 Cl  0  0  0  0  0  0  0  0  0  0  0  0
  1  6  2  0  0  0  0
  1  2  1  0  0  0  0
  2  3  2  0  0  0  0
  3  4  1  0  0  0  0
  3 13  1  0  0  0  0
  5  7  1  0  0  0  0
  5  4  2  0  0  0  0
  6  5  1  0  0  0  0
  7 11  1  0  0  0  0
  8  9  1  0  0  0  0
  8 14  1  0  0  0  0
  8  7  1  0  0  0  0
  9 16  1  0  0  0  0
  9 10  1  0  0  0  0
 10 11  1  0  0  0  0
 10 19  1  0  0  0  0
 11 20  1  1  0  0  0
 11 24  1  0  0  0  0
 12  1  1  0  0  0  0
 15  8  1  0  0  0  0
 17  9  1  0  0  0  0
 18 10  1  0  0  0  0
 21 23  1  0  0  0  0
 21  2  1  0  0  0  0
 22 21  1  0  0  0  0
 24 27  1  0  0  0  0
 25 26  1  0  0  0  0
 26 27  2  0  0  0  0
 26 34  1  0  0  0  0
 27 28  1  0  0  0  0
 28 29  1  0  0  0  0
 28 30  2  0  0  0  0
 30 31  1  0  0  0  0
 32 30  1  0  0  0  0
 32 33  1  0  0  0  0
 34 32  2  0  0  0  0
 35 34  1  0  0  0  0
M  END
>  <minimizedAffinity>
-5.1035285

$$$$
