
 OpenBabel03252507203D

 46 49  0  0  1  0  0  0  0  0999 V2000
   47.0430   33.4350   43.0500 C   0  0  0  0  0  0  0  0  0  0  0  0
   48.1310   33.1420   43.6270 O   0  0  0  0  0  0  0  0  0  0  0  0
   46.6600   32.9430   41.7650 N   0  0  0  0  0  0  0  0  0  0  0  0
   45.3810   32.4140   41.2930 C   0  0  0  0  0  0  0  0  0  0  0  0
   44.9640   33.1450   40.0100 C   0  0  0  0  0  0  0  0  0  0  0  0
   45.9690   32.8690   38.9210 C   0  0  0  0  0  0  0  0  0  0  0  0
   47.2090   32.2550   39.5120 C   0  0  0  0  0  0  0  0  0  0  0  0
   47.6750   32.9660   40.7480 C   0  0  2  0  0  0  0  0  0  0  0  0
   45.3780   31.3280   41.1880 H   0  0  0  0  0  0  0  0  0  0  0  0
   44.6490   32.7360   42.0830 H   0  0  0  0  0  0  0  0  0  0  0  0
   43.9350   32.8910   39.7600 H   0  0  0  0  0  0  0  0  0  0  0  0
   44.9730   34.2220   40.3040 H   0  0  0  0  0  0  0  0  0  0  0  0
   45.5200   32.1210   38.2350 H   0  0  0  0  0  0  0  0  0  0  0  0
   46.1920   33.7790   38.3280 H   0  0  0  0  0  0  0  0  0  0  0  0
   48.0400   32.2660   38.7680 H   0  0  0  0  0  0  0  0  0  0  0  0
   46.9860   31.1890   39.7580 H   0  0  0  0  0  0  0  0  0  0  0  0
   47.8240   34.0330   40.4840 H   0  0  0  0  0  0  0  0  0  0  0  0
   47.6610   30.0390   41.0770 Cl  0  0  0  0  0  0  0  0  0  0  0  0
   49.0980   31.0240   41.3520 C   0  0  0  0  0  0  0  0  0  0  0  0
   48.9810   32.4060   41.1580 C   0  0  0  0  0  0  0  0  0  0  0  0
   50.1540   33.0920   41.3970 C   0  0  0  0  0  0  0  0  0  0  0  0
   50.0920   34.1780   41.2550 H   0  0  0  0  0  0  0  0  0  0  0  0
   51.3100   32.4490   41.7860 C   0  0  0  0  0  0  0  0  0  0  0  0
   52.1900   33.0780   41.9510 H   0  0  0  0  0  0  0  0  0  0  0  0
   51.3650   31.0830   41.9610 C   0  0  0  0  0  0  0  0  0  0  0  0
   52.2560   30.5790   42.2620 H   0  0  0  0  0  0  0  0  0  0  0  0
   50.2270   30.3400   41.7390 C   0  0  0  0  0  0  0  0  0  0  0  0
   50.2430   28.6230   41.9440 Cl  0  0  0  0  0  0  0  0  0  0  0  0
   45.7490   35.5130   43.0910 C   0  0  0  0  0  0  0  0  0  0  0  0
   46.1430   34.3180   43.7440 C   0  0  0  0  0  0  0  0  0  0  0  0
   45.6560   34.0510   45.0050 C   0  0  0  0  0  0  0  0  0  0  0  0
   44.8170   34.9430   45.5760 N   0  0  0  0  0  0  0  0  0  0  0  0
   44.4320   36.0890   44.9650 C   0  0  0  0  0  0  0  0  0  0  0  0
   44.9080   36.3520   43.7290 N   0  0  0  0  0  0  0  0  0  0  0  0
   46.1330   35.7080   42.1110 H   0  0  0  0  0  0  0  0  0  0  0  0
   43.7590   36.7900   45.4400 H   0  0  0  0  0  0  0  0  0  0  0  0
   46.0720   32.8310   45.6640 C   0  0  0  0  0  0  0  0  0  0  0  0
   45.6390   31.6220   45.2070 C   0  0  0  0  0  0  0  0  0  0  0  0
   46.0440   30.4730   45.8450 C   0  0  0  0  0  0  0  0  0  0  0  0
   46.8860   30.4790   46.9500 C   0  0  0  0  0  0  0  0  0  0  0  0
   47.2930   31.7330   47.3710 C   0  0  0  0  0  0  0  0  0  0  0  0
   46.8800   32.8320   46.7260 N   0  0  0  0  0  0  0  0  0  0  0  0
   44.9850   31.4270   44.3760 H   0  0  0  0  0  0  0  0  0  0  0  0
   45.7360   29.4640   45.5340 H   0  0  0  0  0  0  0  0  0  0  0  0
   47.2060   29.5900   47.4540 H   0  0  0  0  0  0  0  0  0  0  0  0
   47.9580   31.8180   48.2360 H   0  0  0  0  0  0  0  0  0  0  0  0
  1  2  2  0  0  0  0
  1 30  1  0  0  0  0
  3  1  1  0  0  0  0
  4  3  1  0  0  0  0
  4 10  1  0  0  0  0
  5 12  1  0  0  0  0
  5  4  1  0  0  0  0
  6  7  1  0  0  0  0
  6  5  1  0  0  0  0
  7 16  1  0  0  0  0
  7  8  1  0  0  0  0
  8 17  1  6  0  0  0
  8 20  1  0  0  0  0
  8  3  1  0  0  0  0
  9  4  1  0  0  0  0
 11  5  1  0  0  0  0
 13  6  1  0  0  0  0
 14  6  1  0  0  0  0
 15  7  1  0  0  0  0
 18 19  1  0  0  0  0
 19 27  1  0  0  0  0
 20 19  2  0  0  0  0
 20 21  1  0  0  0  0
 21 23  2  0  0  0  0
 22 21  1  0  0  0  0
 23 24  1  0  0  0  0
 23 25  1  0  0  0  0
 25 26  1  0  0  0  0
 27 28  1  0  0  0  0
 27 25  2  0  0  0  0
 29 34  2  0  0  0  0
 29 30  1  0  0  0  0
 30 31  2  0  0  0  0
 31 32  1  0  0  0  0
 31 37  1  0  0  0  0
 33 36  1  0  0  0  0
 33 32  2  0  0  0  0
 34 33  1  0  0  0  0
 35 29  1  0  0  0  0
 37 42  1  0  0  0  0
 38 37  2  0  0  0  0
 38 39  1  0  0  0  0
 39 40  2  0  0  0  0
 40 41  1  0  0  0  0
 40 45  1  0  0  0  0
 41 46  1  0  0  0  0
 42 41  2  0  0  0  0
 43 38  1  0  0  0  0
 44 39  1  0  0  0  0
M  END
>  <minimizedAffinity>
-5.46576214

>  <minimizedRMSD>
0.950284064

$$$$
