
 OpenBabel03252502243D

 36 38  0  0  1  0  0  0  0  0999 V2000
   46.3680   33.7200   41.4510 N   0  0  0  0  0  0  0  0  0  0  0  0
   47.2570   33.8320   42.6080 C   0  0  0  0  0  0  0  0  0  0  0  0
   47.8590   35.2460   42.4440 C   0  0  0  0  0  0  0  0  0  0  0  0
   48.7430   35.2630   41.2310 C   0  0  0  0  0  0  0  0  0  0  0  0
   48.1690   34.5760   40.0450 C   0  0  0  0  0  0  0  0  0  0  0  0
   46.7160   34.1950   40.1300 C   0  0  1  0  0  0  0  0  0  0  0  0
   48.0720   33.1000   42.5980 H   0  0  0  0  0  0  0  0  0  0  0  0
   46.6490   33.8370   43.5220 H   0  0  0  0  0  0  0  0  0  0  0  0
   48.4480   35.4310   43.3540 H   0  0  0  0  0  0  0  0  0  0  0  0
   47.0000   35.9460   42.3580 H   0  0  0  0  0  0  0  0  0  0  0  0
   48.9920   36.3370   41.0460 H   0  0  0  0  0  0  0  0  0  0  0  0
   49.7020   34.7840   41.5240 H   0  0  0  0  0  0  0  0  0  0  0  0
   48.7490   33.6490   39.8050 H   0  0  0  0  0  0  0  0  0  0  0  0
   48.2860   35.2390   39.1620 H   0  0  0  0  0  0  0  0  0  0  0  0
   46.1420   35.1320   39.9980 H   0  0  0  0  0  0  0  0  0  0  0  0
   42.6770   33.0810   41.3480 C   0  0  0  0  0  0  0  0  0  0  0  0
   43.8950   33.7590   41.1530 C   0  0  0  0  0  0  0  0  0  0  0  0
   45.0800   33.1120   41.6020 C   0  0  0  0  0  0  0  0  0  0  0  0
   44.9440   31.8950   42.1820 N   0  0  0  0  0  0  0  0  0  0  0  0
   43.7570   31.2790   42.3500 C   0  0  0  0  0  0  0  0  0  0  0  0
   42.6180   31.8800   41.9290 N   0  0  0  0  0  0  0  0  0  0  0  0
   41.7550   33.5550   41.0130 H   0  0  0  0  0  0  0  0  0  0  0  0
   43.9670   34.7180   40.6930 H   0  0  0  0  0  0  0  0  0  0  0  0
   43.8210   30.2960   42.8370 H   0  0  0  0  0  0  0  0  0  0  0  0
   46.4640   33.2100   39.2200 O   0  0  0  0  0  0  0  0  0  0  0  0
   44.3410   30.9870   38.7420 Cl  0  0  0  0  0  0  0  0  0  0  0  0
   46.0490   30.7590   38.8440 C   0  0  0  0  0  0  0  0  0  0  0  0
   46.7630   31.9160   39.0630 C   0  0  0  0  0  0  0  0  0  0  0  0
   48.1550   31.7410   39.1480 C   0  0  0  0  0  0  0  0  0  0  0  0
   48.9240   32.5150   39.3180 H   0  0  0  0  0  0  0  0  0  0  0  0
   48.7510   30.4870   39.0200 C   0  0  0  0  0  0  0  0  0  0  0  0
   49.8110   30.2990   39.0770 H   0  0  0  0  0  0  0  0  0  0  0  0
   47.9570   29.4060   38.8050 C   0  0  0  0  0  0  0  0  0  0  0  0
   48.3700   28.4040   38.6970 H   0  0  0  0  0  0  0  0  0  0  0  0
   46.5910   29.5060   38.7120 C   0  0  0  0  0  0  0  0  0  0  0  0
   45.5070   28.1650   38.4380 Cl  0  0  0  0  0  0  0  0  0  0  0  0
  1 18  1  0  0  0  0
  1  2  1  0  0  0  0
  2  8  1  0  0  0  0
  3  2  1  0  0  0  0
  3  9  1  0  0  0  0
  4 12  1  0  0  0  0
  4  3  1  0  0  0  0
  5  6  1  0  0  0  0
  5  4  1  0  0  0  0
  6 15  1  6  0  0  0
  6  1  1  0  0  0  0
  7  2  1  0  0  0  0
 10  3  1  0  0  0  0
 11  4  1  0  0  0  0
 13  5  1  0  0  0  0
 14  5  1  0  0  0  0
 16 21  1  0  0  0  0
 17 16  2  0  0  0  0
 17 18  1  0  0  0  0
 18 19  2  0  0  0  0
 19 20  1  0  0  0  0
 20 24  1  0  0  0  0
 21 20  2  0  0  0  0
 22 16  1  0  0  0  0
 23 17  1  0  0  0  0
 25  6  1  0  0  0  0
 26 27  1  0  0  0  0
 27 28  1  0  0  0  0
 28 29  2  0  0  0  0
 28 25  1  0  0  0  0
 29 30  1  0  0  0  0
 31 32  1  0  0  0  0
 31 29  1  0  0  0  0
 33 31  2  0  0  0  0
 34 33  1  0  0  0  0
 35 33  1  0  0  0  0
 35 27  2  0  0  0  0
 36 35  1  0  0  0  0
M  END
>  <minimizedAffinity>
-3.24275684

>  <minimizedRMSD>
4.51175594

$$$$
