
 OpenBabel03242523073D

 47 51  0  0  1  0  0  0  0  0999 V2000
   46.4930   32.0350   45.5380 C   0  0  0  0  0  0  0  0  0  0  0  0
   46.7540   32.7430   44.3350 C   0  0  0  0  0  0  0  0  0  0  0  0
   47.6460   32.0380   43.5420 C   0  0  0  0  0  0  0  0  0  0  0  0
   48.2220   30.8310   43.8230 C   0  0  0  0  0  0  0  0  0  0  0  0
   47.9120   30.2220   45.0020 C   0  0  0  0  0  0  0  0  0  0  0  0
   47.0450   30.8190   45.8690 C   0  0  0  0  0  0  0  0  0  0  0  0
   48.6290   29.0420   45.0040 O   0  0  0  0  0  0  0  0  0  0  0  0
   49.4110   28.9470   43.8490 C   0  0  1  0  0  0  0  0  0  0  0  0
   49.1130   30.0970   43.0720 O   0  0  0  0  0  0  0  0  0  0  0  0
   45.8400   32.3100   46.3730 H   0  0  0  0  0  0  0  0  0  0  0  0
   47.8470   32.5610   42.6590 H   0  0  0  0  0  0  0  0  0  0  0  0
   46.8640   30.2620   46.7700 H   0  0  0  0  0  0  0  0  0  0  0  0
   49.0900   28.0520   43.2620 H   0  0  0  0  0  0  0  0  0  0  0  0
   50.5080   26.3400   45.1110 Cl  0  0  0  0  0  0  0  0  0  0  0  0
   51.4710   27.7630   44.7830 C   0  0  0  0  0  0  0  0  0  0  0  0
   50.8240   28.8350   44.2200 C   0  0  0  0  0  0  0  0  0  0  0  0
   51.6620   29.9270   43.9930 C   0  0  0  0  0  0  0  0  0  0  0  0
   51.2240   30.8240   43.5450 H   0  0  0  0  0  0  0  0  0  0  0  0
   53.0100   29.9870   44.2810 C   0  0  0  0  0  0  0  0  0  0  0  0
   53.5660   30.8880   44.0630 H   0  0  0  0  0  0  0  0  0  0  0  0
   53.5860   28.8690   44.8460 C   0  0  0  0  0  0  0  0  0  0  0  0
   54.6340   28.8500   45.0960 H   0  0  0  0  0  0  0  0  0  0  0  0
   52.8110   27.7610   45.0950 C   0  0  0  0  0  0  0  0  0  0  0  0
   53.5490   26.3550   45.8090 Cl  0  0  0  0  0  0  0  0  0  0  0  0
   45.2030   36.0390   43.4840 C   0  0  0  0  0  0  0  0  0  0  0  0
   45.9760   34.9020   43.2450 C   0  0  0  0  0  0  0  0  0  0  0  0
   46.0520   33.9620   44.2310 C   0  0  0  0  0  0  0  0  0  0  0  0
   45.3740   34.1800   45.3730 N   0  0  0  0  0  0  0  0  0  0  0  0
   44.6320   35.2740   45.5980 C   0  0  0  0  0  0  0  0  0  0  0  0
   44.5520   36.1930   44.6580 N   0  0  0  0  0  0  0  0  0  0  0  0
   45.1350   36.8040   42.7020 H   0  0  0  0  0  0  0  0  0  0  0  0
   44.0680   35.5060   46.4900 H   0  0  0  0  0  0  0  0  0  0  0  0
   46.5860   34.7760   41.9910 N   0  0  0  0  0  0  0  0  0  0  0  0
   47.8780   35.1670   41.7050 C   0  0  0  0  0  0  0  0  0  0  0  0
   48.3690   34.7910   40.3250 C   0  0  0  0  0  0  0  0  0  0  0  0
   47.9930   33.5180   39.8680 N   0  0  0  0  0  0  0  0  0  0  0  0
   46.6680   33.1220   40.1410 C   0  0  0  0  0  0  0  0  0  0  0  0
   45.8960   34.2150   40.8430 C   0  0  0  0  0  0  0  0  0  0  0  0
   47.9490   36.2950   41.7460 H   0  0  0  0  0  0  0  0  0  0  0  0
   48.6610   34.8450   42.4410 H   0  0  0  0  0  0  0  0  0  0  0  0
   47.9880   35.5650   39.6040 H   0  0  0  0  0  0  0  0  0  0  0  0
   49.4620   34.8860   40.3280 H   0  0  0  0  0  0  0  0  0  0  0  0
   48.3670   33.3710   38.9300 H   0  0  0  0  0  0  0  0  0  0  0  0
   46.5500   32.1310   40.6260 H   0  0  0  0  0  0  0  0  0  0  0  0
   46.1370   32.9950   39.1520 H   0  0  0  0  0  0  0  0  0  0  0  0
   45.8000   35.0660   40.1120 H   0  0  0  0  0  0  0  0  0  0  0  0
   44.8660   33.9100   41.0900 H   0  0  0  0  0  0  0  0  0  0  0  0
  1  6  1  0  0  0  0
  1 10  1  0  0  0  0
  2  1  2  0  0  0  0
  3  4  2  0  0  0  0
  3  2  1  0  0  0  0
  4  5  1  0  0  0  0
  5  7  1  0  0  0  0
  5  6  2  0  0  0  0
  6 12  1  0  0  0  0
  8 13  1  6  0  0  0
  8 16  1  0  0  0  0
  8  7  1  0  0  0  0
  9  4  1  0  0  0  0
  9  8  1  0  0  0  0
 11  3  1  0  0  0  0
 15 23  1  0  0  0  0
 15 14  1  0  0  0  0
 16 15  2  0  0  0  0
 17 16  1  0  0  0  0
 17 19  2  0  0  0  0
 18 17  1  0  0  0  0
 19 21  1  0  0  0  0
 20 19  1  0  0  0  0
 21 23  2  0  0  0  0
 21 22  1  0  0  0  0
 23 24  1  0  0  0  0
 25 30  1  0  0  0  0
 26 25  2  0  0  0  0
 26 27  1  0  0  0  0
 27  2  1  0  0  0  0
 27 28  2  0  0  0  0
 28 29  1  0  0  0  0
 29 32  1  0  0  0  0
 30 29  2  0  0  0  0
 31 25  1  0  0  0  0
 33 26  1  0  0  0  0
 34 39  1  0  0  0  0
 34 33  1  0  0  0  0
 34 40  1  0  0  0  0
 35 42  1  0  0  0  0
 35 34  1  0  0  0  0
 36 37  1  0  0  0  0
 36 35  1  0  0  0  0
 37 44  1  0  0  0  0
 37 38  1  0  0  0  0
 38 47  1  0  0  0  0
 38 33  1  0  0  0  0
 41 35  1  0  0  0  0
 43 36  1  0  0  0  0
 45 37  1  0  0  0  0
 46 38  1  0  0  0  0
M  END
>  <minimizedAffinity>
-5.3332696

>  <minimizedRMSD>
0.418779492

$$$$
