
 OpenBabel03252505073D

 45 48  0  0  1  0  0  0  0  0999 V2000
   44.5790   35.5820   44.5980 C   0  0  0  0  0  0  0  0  0  0  0  0
   45.2320   35.6030   43.3480 C   0  0  0  0  0  0  0  0  0  0  0  0
   46.3160   34.7000   43.1670 C   0  0  0  0  0  0  0  0  0  0  0  0
   46.6580   33.8790   44.1950 N   0  0  0  0  0  0  0  0  0  0  0  0
   46.0020   33.8980   45.3670 C   0  0  0  0  0  0  0  0  0  0  0  0
   44.9590   34.7480   45.5780 N   0  0  0  0  0  0  0  0  0  0  0  0
   43.7710   36.2820   44.6750 H   0  0  0  0  0  0  0  0  0  0  0  0
   44.9450   36.2630   42.5450 H   0  0  0  0  0  0  0  0  0  0  0  0
   46.4280   32.9760   46.4550 C   0  0  2  0  0  0  0  0  0  0  0  0
   46.9560   31.7470   45.7670 C   0  0  0  0  0  0  0  0  0  0  0  0
   46.0850   30.5630   45.7930 C   0  0  0  0  0  0  0  0  0  0  0  0
   45.7880   30.3070   47.2660 C   0  0  0  0  0  0  0  0  0  0  0  0
   45.0040   31.3830   47.8640 C   0  0  0  0  0  0  0  0  0  0  0  0
   45.3700   32.7520   47.4160 C   0  0  0  0  0  0  0  0  0  0  0  0
   47.2670   33.5070   46.9650 H   0  0  0  0  0  0  0  0  0  0  0  0
   47.9200   31.4790   46.2510 H   0  0  0  0  0  0  0  0  0  0  0  0
   47.2330   31.9430   44.6980 H   0  0  0  0  0  0  0  0  0  0  0  0
   45.1720   30.6780   45.1980 H   0  0  0  0  0  0  0  0  0  0  0  0
   46.6500   29.6920   45.4490 H   0  0  0  0  0  0  0  0  0  0  0  0
   46.7230   30.1250   47.7950 H   0  0  0  0  0  0  0  0  0  0  0  0
   45.0950   29.4280   47.2480 H   0  0  0  0  0  0  0  0  0  0  0  0
   44.2070   31.4410   48.5650 H   0  0  0  0  0  0  0  0  0  0  0  0
   44.6810   33.8770   47.9230 N   0  0  0  0  0  0  0  0  0  0  0  0
   43.8380   34.4470   47.6940 H   0  0  0  0  0  0  0  0  0  0  0  0
   45.2910   34.0960   48.7460 H   0  0  0  0  0  0  0  0  0  0  0  0
   47.0110   34.6890   41.8940 C   0  0  0  0  0  0  0  0  0  0  0  0
   48.1550   35.4110   41.7780 C   0  0  0  0  0  0  0  0  0  0  0  0
   48.8010   35.3760   40.5320 C   0  0  0  0  0  0  0  0  0  0  0  0
   48.2030   34.6100   39.5560 C   0  0  0  0  0  0  0  0  0  0  0  0
   47.0610   33.8900   39.6720 C   0  0  0  0  0  0  0  0  0  0  0  0
   46.4690   33.9550   40.9030 N   0  0  0  0  0  0  0  0  0  0  0  0
   48.5690   35.9920   42.5890 H   0  0  0  0  0  0  0  0  0  0  0  0
   49.7170   35.9280   40.3690 H   0  0  0  0  0  0  0  0  0  0  0  0
   48.7370   34.6140   38.6150 H   0  0  0  0  0  0  0  0  0  0  0  0
   48.4620   34.0250   37.0750 Cl  0  0  0  0  0  0  0  0  0  0  0  0
   47.0090   33.0670   37.3690 C   0  0  0  0  0  0  0  0  0  0  0  0
   46.4620   33.1000   38.6360 C   0  0  0  0  0  0  0  0  0  0  0  0
   45.3280   32.3450   38.8450 C   0  0  0  0  0  0  0  0  0  0  0  0
   44.8350   32.3140   39.8070 H   0  0  0  0  0  0  0  0  0  0  0  0
   44.7320   31.5710   37.8450 C   0  0  0  0  0  0  0  0  0  0  0  0
   43.8350   30.9880   38.0500 H   0  0  0  0  0  0  0  0  0  0  0  0
   45.3130   31.5690   36.5970 C   0  0  0  0  0  0  0  0  0  0  0  0
   44.8430   30.9680   35.8370 H   0  0  0  0  0  0  0  0  0  0  0  0
   46.4320   32.3050   36.3650 C   0  0  0  0  0  0  0  0  0  0  0  0
   47.1980   32.3230   34.7810 Cl  0  0  0  0  0  0  0  0  0  0  0  0
  1  7  1  0  0  0  0
  1  6  1  0  0  0  0
  2  1  2  0  0  0  0
  3  2  1  0  0  0  0
  3  4  2  0  0  0  0
  4  5  1  0  0  0  0
  5  6  2  0  0  0  0
  5  9  1  0  0  0  0
  8  2  1  0  0  0  0
  9 15  1  1  0  0  0
  9 14  1  0  0  0  0
 10 11  1  0  0  0  0
 10 16  1  0  0  0  0
 10  9  1  0  0  0  0
 11 12  1  0  0  0  0
 12 20  1  0  0  0  0
 12 13  1  0  0  0  0
 13 22  1  0  0  0  0
 14 13  2  0  0  0  0
 14 23  1  0  0  0  0
 17 10  1  0  0  0  0
 18 11  1  0  0  0  0
 19 11  1  0  0  0  0
 21 12  1  0  0  0  0
 23 25  1  0  0  0  0
 24 23  1  0  0  0  0
 26  3  1  0  0  0  0
 27 26  1  0  0  0  0
 27 32  1  0  0  0  0
 28 27  2  0  0  0  0
 29 30  2  0  0  0  0
 29 28  1  0  0  0  0
 30 31  1  0  0  0  0
 31 26  2  0  0  0  0
 33 28  1  0  0  0  0
 34 29  1  0  0  0  0
 35 36  1  0  0  0  0
 36 37  1  0  0  0  0
 37 38  2  0  0  0  0
 37 30  1  0  0  0  0
 38 39  1  0  0  0  0
 40 41  1  0  0  0  0
 40 38  1  0  0  0  0
 42 40  2  0  0  0  0
 43 42  1  0  0  0  0
 44 42  1  0  0  0  0
 44 36  2  0  0  0  0
 45 44  1  0  0  0  0
M  END
>  <minimizedAffinity>
-7.82430792

>  <minimizedRMSD>
0.185307816

$$$$
