
 OpenBabel03242518083D

 37 39  0  0  1  0  0  0  0  0999 V2000
   39.5140   31.8960   39.7330 N   0  0  0  0  0  0  0  0  0  0  0  0
   39.5630   33.1550   40.4240 C   0  0  0  0  0  0  0  0  0  0  0  0
   38.4210   33.9940   40.0370 C   0  0  0  0  0  0  0  0  0  0  0  0
   37.2460   33.3410   39.4120 C   0  0  0  0  0  0  0  0  0  0  0  0
   37.0880   31.8910   39.6280 C   0  0  0  0  0  0  0  0  0  0  0  0
   38.3510   31.0840   39.7560 C   0  0  2  0  0  0  0  0  0  0  0  0
   39.6920   33.0030   41.5120 H   0  0  0  0  0  0  0  0  0  0  0  0
   40.5060   33.7150   40.1350 H   0  0  0  0  0  0  0  0  0  0  0  0
   38.7170   34.8520   39.3990 H   0  0  0  0  0  0  0  0  0  0  0  0
   38.0450   34.4920   40.9810 H   0  0  0  0  0  0  0  0  0  0  0  0
   36.2990   33.8340   39.7170 H   0  0  0  0  0  0  0  0  0  0  0  0
   37.2780   33.4990   38.2970 H   0  0  0  0  0  0  0  0  0  0  0  0
   36.3660   31.4830   38.8930 H   0  0  0  0  0  0  0  0  0  0  0  0
   36.5600   31.7630   40.6200 H   0  0  0  0  0  0  0  0  0  0  0  0
   38.3720   30.5020   38.7770 H   0  0  0  0  0  0  0  0  0  0  0  0
   40.7400   31.7190   37.6210 C   0  0  0  0  0  0  0  0  0  0  0  0
   40.6630   31.4710   38.9980 C   0  0  0  0  0  0  0  0  0  0  0  0
   41.7560   30.7990   39.6150 C   0  0  0  0  0  0  0  0  0  0  0  0
   42.7920   30.4460   38.8340 N   0  0  0  0  0  0  0  0  0  0  0  0
   42.8320   30.7010   37.5150 C   0  0  0  0  0  0  0  0  0  0  0  0
   41.8040   31.3390   36.9040 N   0  0  0  0  0  0  0  0  0  0  0  0
   39.6630   32.3830   37.0050 N   0  0  0  0  0  0  0  0  0  0  0  0
   41.7010   30.6060   40.6720 H   0  0  0  0  0  0  0  0  0  0  0  0
   43.7080   30.3800   36.9700 H   0  0  0  0  0  0  0  0  0  0  0  0
   39.8190   33.2880   36.5200 H   0  0  0  0  0  0  0  0  0  0  0  0
   38.6840   31.9790   37.0210 H   0  0  0  0  0  0  0  0  0  0  0  0
   37.3300   28.4020   38.8630 Cl  0  0  0  0  0  0  0  0  0  0  0  0
   37.7870   28.7500   40.5390 C   0  0  0  0  0  0  0  0  0  0  0  0
   38.2580   30.0490   40.7960 C   0  0  0  0  0  0  0  0  0  0  0  0
   38.5840   30.2000   42.1370 C   0  0  0  0  0  0  0  0  0  0  0  0
   38.9500   31.1350   42.4720 H   0  0  0  0  0  0  0  0  0  0  0  0
   38.4630   29.2150   43.0940 C   0  0  0  0  0  0  0  0  0  0  0  0
   38.7360   29.4030   44.1240 H   0  0  0  0  0  0  0  0  0  0  0  0
   37.9900   27.9800   42.7260 C   0  0  0  0  0  0  0  0  0  0  0  0
   37.9000   27.2160   43.4790 H   0  0  0  0  0  0  0  0  0  0  0  0
   37.6440   27.7330   41.4290 C   0  0  0  0  0  0  0  0  0  0  0  0
   37.0390   26.1660   40.9410 Cl  0  0  0  0  0  0  0  0  0  0  0  0
  1  6  1  0  0  0  0
  1  2  1  0  0  0  0
  2  7  1  0  0  0  0
  3  2  1  0  0  0  0
  3 10  1  0  0  0  0
  4  5  1  0  0  0  0
  4 11  1  0  0  0  0
  4  3  1  0  0  0  0
  5  6  1  0  0  0  0
  5 14  1  0  0  0  0
  6 15  1  6  0  0  0
  6 29  1  0  0  0  0
  8  2  1  0  0  0  0
  9  3  1  0  0  0  0
 12  4  1  0  0  0  0
 13  5  1  0  0  0  0
 16 17  1  0  0  0  0
 17 18  2  0  0  0  0
 17  1  1  0  0  0  0
 18 23  1  0  0  0  0
 19 18  1  0  0  0  0
 20 19  2  0  0  0  0
 21 20  1  0  0  0  0
 21 16  2  0  0  0  0
 22 26  1  0  0  0  0
 22 16  1  0  0  0  0
 24 20  1  0  0  0  0
 25 22  1  0  0  0  0
 27 28  1  0  0  0  0
 28 29  2  0  0  0  0
 28 36  1  0  0  0  0
 29 30  1  0  0  0  0
 30 31  1  0  0  0  0
 30 32  2  0  0  0  0
 32 33  1  0  0  0  0
 34 32  1  0  0  0  0
 34 35  1  0  0  0  0
 36 34  2  0  0  0  0
 37 36  1  0  0  0  0
M  END
>  <minimizedAffinity>
-5.76875544

$$$$

 OpenBabel03242518083D

 37 39  0  0  1  0  0  0  0  0999 V2000
   36.2260   29.1440   39.2500 N   0  0  0  0  0  0  0  0  0  0  0  0
   34.8180   28.9130   39.0790 C   0  0  0  0  0  0  0  0  0  0  0  0
   34.5930   27.8380   38.1020 C   0  0  0  0  0  0  0  0  0  0  0  0
   35.7120   26.9170   37.7960 C   0  0  0  0  0  0  0  0  0  0  0  0
   36.8030   26.8310   38.7870 C   0  0  0  0  0  0  0  0  0  0  0  0
   37.1170   28.0840   39.5560 C   0  0  2  0  0  0  0  0  0  0  0  0
   34.3180   28.7770   40.0560 H   0  0  0  0  0  0  0  0  0  0  0  0
   34.3220   29.8480   38.6710 H   0  0  0  0  0  0  0  0  0  0  0  0
   34.1840   28.2120   37.1410 H   0  0  0  0  0  0  0  0  0  0  0  0
   33.7530   27.1980   38.5080 H   0  0  0  0  0  0  0  0  0  0  0  0
   35.3480   25.8850   37.6050 H   0  0  0  0  0  0  0  0  0  0  0  0
   36.1880   27.2150   36.8200 H   0  0  0  0  0  0  0  0  0  0  0  0
   37.6880   26.3530   38.3220 H   0  0  0  0  0  0  0  0  0  0  0  0
   36.4750   26.0830   39.5700 H   0  0  0  0  0  0  0  0  0  0  0  0
   38.1200   28.3990   39.1150 H   0  0  0  0  0  0  0  0  0  0  0  0
   36.5700   31.4050   40.1240 C   0  0  0  0  0  0  0  0  0  0  0  0
   36.7290   30.4720   39.0910 C   0  0  0  0  0  0  0  0  0  0  0  0
   37.4000   30.8950   37.9100 C   0  0  0  0  0  0  0  0  0  0  0  0
   37.8390   32.1660   37.8630 N   0  0  0  0  0  0  0  0  0  0  0  0
   37.6690   33.0330   38.8740 C   0  0  0  0  0  0  0  0  0  0  0  0
   37.0330   32.6550   40.0100 N   0  0  0  0  0  0  0  0  0  0  0  0
   35.9080   30.9930   41.2960 N   0  0  0  0  0  0  0  0  0  0  0  0
   37.5240   30.1830   37.1130 H   0  0  0  0  0  0  0  0  0  0  0  0
   38.0570   34.0340   38.7450 H   0  0  0  0  0  0  0  0  0  0  0  0
   36.3960   31.0310   42.2110 H   0  0  0  0  0  0  0  0  0  0  0  0
   34.9090   30.6400   41.2700 H   0  0  0  0  0  0  0  0  0  0  0  0
   39.9700   28.4770   40.4180 Cl  0  0  0  0  0  0  0  0  0  0  0  0
   38.6930   27.9460   41.5250 C   0  0  0  0  0  0  0  0  0  0  0  0
   37.4070   27.8200   40.9740 C   0  0  0  0  0  0  0  0  0  0  0  0
   36.4970   27.4000   41.9340 C   0  0  0  0  0  0  0  0  0  0  0  0
   35.4860   27.2600   41.6530 H   0  0  0  0  0  0  0  0  0  0  0  0
   36.8050   27.1380   43.2510 C   0  0  0  0  0  0  0  0  0  0  0  0
   36.0430   26.8120   43.9470 H   0  0  0  0  0  0  0  0  0  0  0  0
   38.0990   27.2960   43.6790 C   0  0  0  0  0  0  0  0  0  0  0  0
   38.3320   27.0900   44.7100 H   0  0  0  0  0  0  0  0  0  0  0  0
   39.0680   27.7060   42.8090 C   0  0  0  0  0  0  0  0  0  0  0  0
   40.7230   27.9130   43.3360 Cl  0  0  0  0  0  0  0  0  0  0  0  0
  1  6  1  0  0  0  0
  2  1  1  0  0  0  0
  2  7  1  0  0  0  0
  3 10  1  0  0  0  0
  3  2  1  0  0  0  0
  4  3  1  0  0  0  0
  4  5  1  0  0  0  0
  5  6  1  0  0  0  0
  5 14  1  0  0  0  0
  6 15  1  6  0  0  0
  6 29  1  0  0  0  0
  8  2  1  0  0  0  0
  9  3  1  0  0  0  0
 11  4  1  0  0  0  0
 12  4  1  0  0  0  0
 13  5  1  0  0  0  0
 16 22  1  0  0  0  0
 17  1  1  0  0  0  0
 17 16  2  0  0  0  0
 18 17  1  0  0  0  0
 19 18  2  0  0  0  0
 19 20  1  0  0  0  0
 20 21  2  0  0  0  0
 21 16  1  0  0  0  0
 22 25  1  0  0  0  0
 23 18  1  0  0  0  0
 24 20  1  0  0  0  0
 26 22  1  0  0  0  0
 27 28  1  0  0  0  0
 28 36  1  0  0  0  0
 29 28  2  0  0  0  0
 29 30  1  0  0  0  0
 30 32  2  0  0  0  0
 31 30  1  0  0  0  0
 32 34  1  0  0  0  0
 32 33  1  0  0  0  0
 34 35  1  0  0  0  0
 36 37  1  0  0  0  0
 36 34  2  0  0  0  0
M  END
>  <minimizedAffinity>
-5.68825912

$$$$

 OpenBabel03242518083D

 37 39  0  0  1  0  0  0  0  0999 V2000
   37.8140   28.8680   41.0130 N   0  0  0  0  0  0  0  0  0  0  0  0
   38.9730   28.7870   41.8600 C   0  0  0  0  0  0  0  0  0  0  0  0
   38.5690   28.7270   43.2710 C   0  0  0  0  0  0  0  0  0  0  0  0
   37.1760   28.3370   43.5910 C   0  0  0  0  0  0  0  0  0  0  0  0
   36.4290   27.6020   42.5520 C   0  0  0  0  0  0  0  0  0  0  0  0
   36.7510   27.9360   41.1220 C   0  0  2  0  0  0  0  0  0  0  0  0
   39.6490   27.9780   41.5260 H   0  0  0  0  0  0  0  0  0  0  0  0
   39.6100   29.7170   41.7300 H   0  0  0  0  0  0  0  0  0  0  0  0
   38.7970   29.6640   43.8210 H   0  0  0  0  0  0  0  0  0  0  0  0
   39.2390   27.9650   43.7720 H   0  0  0  0  0  0  0  0  0  0  0  0
   37.1260   27.7420   44.5270 H   0  0  0  0  0  0  0  0  0  0  0  0
   36.5720   29.2570   43.8300 H   0  0  0  0  0  0  0  0  0  0  0  0
   35.3460   27.6260   42.7880 H   0  0  0  0  0  0  0  0  0  0  0  0
   36.7010   26.5090   42.6640 H   0  0  0  0  0  0  0  0  0  0  0  0
   35.8210   28.5010   40.7850 H   0  0  0  0  0  0  0  0  0  0  0  0
   36.8160   30.9650   40.2360 C   0  0  0  0  0  0  0  0  0  0  0  0
   37.7380   29.9250   40.0540 C   0  0  0  0  0  0  0  0  0  0  0  0
   38.5750   29.9720   38.9050 C   0  0  0  0  0  0  0  0  0  0  0  0
   38.4260   31.0140   38.0670 N   0  0  0  0  0  0  0  0  0  0  0  0
   37.5310   31.9940   38.2730 C   0  0  0  0  0  0  0  0  0  0  0  0
   36.7220   31.9720   39.3600 N   0  0  0  0  0  0  0  0  0  0  0  0
   35.9850   30.9250   41.3710 N   0  0  0  0  0  0  0  0  0  0  0  0
   39.2840   29.1760   38.7600 H   0  0  0  0  0  0  0  0  0  0  0  0
   37.4850   32.7910   37.5450 H   0  0  0  0  0  0  0  0  0  0  0  0
   36.0120   31.6980   42.0630 H   0  0  0  0  0  0  0  0  0  0  0  0
   35.3210   30.1170   41.5410 H   0  0  0  0  0  0  0  0  0  0  0  0
   35.1890   28.1130   38.5600 Cl  0  0  0  0  0  0  0  0  0  0  0  0
   36.1020   26.6700   39.0360 C   0  0  0  0  0  0  0  0  0  0  0  0
   36.7910   26.7470   40.2580 C   0  0  0  0  0  0  0  0  0  0  0  0
   37.4640   25.5620   40.5210 C   0  0  0  0  0  0  0  0  0  0  0  0
   38.0250   25.4800   41.4150 H   0  0  0  0  0  0  0  0  0  0  0  0
   37.4630   24.4550   39.7000 C   0  0  0  0  0  0  0  0  0  0  0  0
   38.0110   23.5620   39.9680 H   0  0  0  0  0  0  0  0  0  0  0  0
   36.7520   24.4940   38.5270 C   0  0  0  0  0  0  0  0  0  0  0  0
   36.7560   23.6250   37.8900 H   0  0  0  0  0  0  0  0  0  0  0  0
   36.0560   25.6160   38.1790 C   0  0  0  0  0  0  0  0  0  0  0  0
   35.1450   25.6850   36.6880 Cl  0  0  0  0  0  0  0  0  0  0  0  0
  1  6  1  0  0  0  0
  1  2  1  0  0  0  0
  2  3  1  0  0  0  0
  3  4  1  0  0  0  0
  3 10  1  0  0  0  0
  3  9  1  0  0  0  0
  4 12  1  0  0  0  0
  4 11  1  0  0  0  0
  5 14  1  0  0  0  0
  5 13  1  0  0  0  0
  5  4  1  0  0  0  0
  6 15  1  6  0  0  0
  6  5  1  0  0  0  0
  7  2  1  0  0  0  0
  8  2  1  0  0  0  0
 16 22  1  0  0  0  0
 17 16  1  0  0  0  0
 17  1  1  0  0  0  0
 18 17  2  0  0  0  0
 19 20  2  0  0  0  0
 19 18  1  0  0  0  0
 20 21  1  0  0  0  0
 21 16  2  0  0  0  0
 22 26  1  0  0  0  0
 22 25  1  0  0  0  0
 23 18  1  0  0  0  0
 24 20  1  0  0  0  0
 27 28  1  0  0  0  0
 28 29  1  0  0  0  0
 29 30  2  0  0  0  0
 29  6  1  0  0  0  0
 30 31  1  0  0  0  0
 32 33  1  0  0  0  0
 32 30  1  0  0  0  0
 34 32  2  0  0  0  0
 35 34  1  0  0  0  0
 36 34  1  0  0  0  0
 36 28  2  0  0  0  0
 37 36  1  0  0  0  0
M  END
>  <minimizedAffinity>
-5.63294983

$$$$

 OpenBabel03242518083D

 37 39  0  0  1  0  0  0  0  0999 V2000
   39.0730   31.5790   39.3610 N   0  0  0  0  0  0  0  0  0  0  0  0
   39.4520   31.9710   40.6910 C   0  0  0  0  0  0  0  0  0  0  0  0
   39.1590   33.3940   40.9070 C   0  0  0  0  0  0  0  0  0  0  0  0
   38.1970   34.0620   39.9980 C   0  0  0  0  0  0  0  0  0  0  0  0
   37.2650   33.1960   39.2510 C   0  0  0  0  0  0  0  0  0  0  0  0
   37.7720   31.8370   38.8570 C   0  0  2  0  0  0  0  0  0  0  0  0
   39.0250   31.2800   41.4420 H   0  0  0  0  0  0  0  0  0  0  0  0
   40.5690   31.8320   40.8290 H   0  0  0  0  0  0  0  0  0  0  0  0
   40.0760   34.0170   40.9540 H   0  0  0  0  0  0  0  0  0  0  0  0
   38.7310   33.4860   41.9500 H   0  0  0  0  0  0  0  0  0  0  0  0
   37.5940   34.8240   40.5360 H   0  0  0  0  0  0  0  0  0  0  0  0
   38.7610   34.6640   39.2310 H   0  0  0  0  0  0  0  0  0  0  0  0
   36.8150   33.7700   38.4170 H   0  0  0  0  0  0  0  0  0  0  0  0
   36.3880   32.9910   39.9370 H   0  0  0  0  0  0  0  0  0  0  0  0
   37.9040   31.9410   37.7290 H   0  0  0  0  0  0  0  0  0  0  0  0
   40.8250   31.6890   37.6530 C   0  0  0  0  0  0  0  0  0  0  0  0
   40.0410   30.9310   38.5340 C   0  0  0  0  0  0  0  0  0  0  0  0
   40.2520   29.5240   38.5690 C   0  0  0  0  0  0  0  0  0  0  0  0
   41.1920   29.0140   37.7540 N   0  0  0  0  0  0  0  0  0  0  0  0
   41.9260   29.7720   36.9220 C   0  0  0  0  0  0  0  0  0  0  0  0
   41.7440   31.1140   36.8690 N   0  0  0  0  0  0  0  0  0  0  0  0
   40.6210   33.0810   37.6140 N   0  0  0  0  0  0  0  0  0  0  0  0
   39.6530   28.9370   39.2430 H   0  0  0  0  0  0  0  0  0  0  0  0
   42.6580   29.2720   36.3040 H   0  0  0  0  0  0  0  0  0  0  0  0
   41.4020   33.7270   37.8380 H   0  0  0  0  0  0  0  0  0  0  0  0
   39.6800   33.4940   37.3560 H   0  0  0  0  0  0  0  0  0  0  0  0
   37.0300   30.3370   36.3600 Cl  0  0  0  0  0  0  0  0  0  0  0  0
   36.2940   30.0070   37.9380 C   0  0  0  0  0  0  0  0  0  0  0  0
   36.7560   30.7850   39.0120 C   0  0  0  0  0  0  0  0  0  0  0  0
   36.1080   30.4370   40.1890 C   0  0  0  0  0  0  0  0  0  0  0  0
   36.3580   30.9490   41.0820 H   0  0  0  0  0  0  0  0  0  0  0  0
   35.1420   29.4610   40.2980 C   0  0  0  0  0  0  0  0  0  0  0  0
   34.6770   29.2410   41.2500 H   0  0  0  0  0  0  0  0  0  0  0  0
   34.7690   28.7620   39.1780 C   0  0  0  0  0  0  0  0  0  0  0  0
   34.0130   28.0010   39.2710 H   0  0  0  0  0  0  0  0  0  0  0  0
   35.3490   29.0320   37.9720 C   0  0  0  0  0  0  0  0  0  0  0  0
   34.8870   28.1520   36.5320 Cl  0  0  0  0  0  0  0  0  0  0  0  0
  1  2  1  0  0  0  0
  2  8  1  0  0  0  0
  2  3  1  0  0  0  0
  2  7  1  0  0  0  0
  3  9  1  0  0  0  0
  3 10  1  0  0  0  0
  4 11  1  0  0  0  0
  4  3  1  0  0  0  0
  5 14  1  0  0  0  0
  5  4  1  0  0  0  0
  6 15  1  6  0  0  0
  6 29  1  0  0  0  0
  6  5  1  0  0  0  0
  6  1  1  0  0  0  0
 12  4  1  0  0  0  0
 13  5  1  0  0  0  0
 16 17  1  0  0  0  0
 17 18  2  0  0  0  0
 17  1  1  0  0  0  0
 18 23  1  0  0  0  0
 19 18  1  0  0  0  0
 20 19  2  0  0  0  0
 21 20  1  0  0  0  0
 21 16  2  0  0  0  0
 22 16  1  0  0  0  0
 22 25  1  0  0  0  0
 24 20  1  0  0  0  0
 26 22  1  0  0  0  0
 27 28  1  0  0  0  0
 28 36  2  0  0  0  0
 28 29  1  0  0  0  0
 29 30  2  0  0  0  0
 30 32  1  0  0  0  0
 30 31  1  0  0  0  0
 32 33  1  0  0  0  0
 34 35  1  0  0  0  0
 34 32  2  0  0  0  0
 36 34  1  0  0  0  0
 37 36  1  0  0  0  0
M  END
>  <minimizedAffinity>
-5.56941605

$$$$

 OpenBabel03242518083D

 37 39  0  0  1  0  0  0  0  0999 V2000
   37.9190   30.5170   38.7830 N   0  0  0  0  0  0  0  0  0  0  0  0
   36.7320   30.5860   37.9750 C   0  0  0  0  0  0  0  0  0  0  0  0
   36.8940   29.7760   36.7610 C   0  0  0  0  0  0  0  0  0  0  0  0
   37.9520   28.7380   36.7410 C   0  0  0  0  0  0  0  0  0  0  0  0
   38.4570   28.2670   38.0450 C   0  0  0  0  0  0  0  0  0  0  0  0
   38.4830   29.2720   39.1630 C   0  0  2  0  0  0  0  0  0  0  0  0
   35.8320   30.3640   38.5770 H   0  0  0  0  0  0  0  0  0  0  0  0
   36.5550   31.6570   37.6450 H   0  0  0  0  0  0  0  0  0  0  0  0
   37.0030   30.3940   35.8450 H   0  0  0  0  0  0  0  0  0  0  0  0
   35.9140   29.2370   36.5930 H   0  0  0  0  0  0  0  0  0  0  0  0
   37.6340   27.8470   36.1600 H   0  0  0  0  0  0  0  0  0  0  0  0
   38.8440   29.1220   36.1710 H   0  0  0  0  0  0  0  0  0  0  0  0
   39.4150   27.7300   37.8990 H   0  0  0  0  0  0  0  0  0  0  0  0
   37.7480   27.4580   38.3980 H   0  0  0  0  0  0  0  0  0  0  0  0
   39.5980   29.4740   39.2870 H   0  0  0  0  0  0  0  0  0  0  0  0
   37.9140   32.5560   40.1390 C   0  0  0  0  0  0  0  0  0  0  0  0
   38.5430   31.7350   39.1940 C   0  0  0  0  0  0  0  0  0  0  0  0
   39.8010   32.1570   38.6790 C   0  0  0  0  0  0  0  0  0  0  0  0
   40.3040   33.3180   39.1350 N   0  0  0  0  0  0  0  0  0  0  0  0
   39.6720   34.0790   40.0440 C   0  0  0  0  0  0  0  0  0  0  0  0
   38.4730   33.7000   40.5490 N   0  0  0  0  0  0  0  0  0  0  0  0
   36.6700   32.1440   40.6530 N   0  0  0  0  0  0  0  0  0  0  0  0
   40.2880   31.5300   37.9520 H   0  0  0  0  0  0  0  0  0  0  0  0
   40.1550   34.9970   40.3510 H   0  0  0  0  0  0  0  0  0  0  0  0
   36.5550   31.9840   41.6720 H   0  0  0  0  0  0  0  0  0  0  0  0
   35.8340   31.9930   40.0190 H   0  0  0  0  0  0  0  0  0  0  0  0
   40.7000   28.3710   40.9810 Cl  0  0  0  0  0  0  0  0  0  0  0  0
   38.9860   28.2180   41.4020 C   0  0  0  0  0  0  0  0  0  0  0  0
   38.0690   28.6970   40.4520 C   0  0  0  0  0  0  0  0  0  0  0  0
   36.7640   28.5230   40.8920 C   0  0  0  0  0  0  0  0  0  0  0  0
   35.9680   28.8380   40.2690 H   0  0  0  0  0  0  0  0  0  0  0  0
   36.4080   27.9580   42.0980 C   0  0  0  0  0  0  0  0  0  0  0  0
   35.3680   27.8530   42.3770 H   0  0  0  0  0  0  0  0  0  0  0  0
   37.3920   27.5250   42.9500 C   0  0  0  0  0  0  0  0  0  0  0  0
   37.1060   27.0850   43.8900 H   0  0  0  0  0  0  0  0  0  0  0  0
   38.7070   27.6530   42.6060 C   0  0  0  0  0  0  0  0  0  0  0  0
   39.9760   27.1060   43.6790 Cl  0  0  0  0  0  0  0  0  0  0  0  0
  1  6  1  0  0  0  0
  1 17  1  0  0  0  0
  2  7  1  0  0  0  0
  2  1  1  0  0  0  0
  3  2  1  0  0  0  0
  4  3  1  0  0  0  0
  4  5  1  0  0  0  0
  5 14  1  0  0  0  0
  5  6  1  0  0  0  0
  6 15  1  1  0  0  0
  6 29  1  0  0  0  0
  8  2  1  0  0  0  0
  9  3  1  0  0  0  0
 10  3  1  0  0  0  0
 11  4  1  0  0  0  0
 12  4  1  0  0  0  0
 13  5  1  0  0  0  0
 16 21  1  0  0  0  0
 16 22  1  0  0  0  0
 17 16  2  0  0  0  0
 18 19  2  0  0  0  0
 18 17  1  0  0  0  0
 19 20  1  0  0  0  0
 20 24  1  0  0  0  0
 20 21  2  0  0  0  0
 22 25  1  0  0  0  0
 23 18  1  0  0  0  0
 26 22  1  0  0  0  0
 27 28  1  0  0  0  0
 28 36  1  0  0  0  0
 29 30  1  0  0  0  0
 29 28  2  0  0  0  0
 30 32  2  0  0  0  0
 31 30  1  0  0  0  0
 32 33  1  0  0  0  0
 32 34  1  0  0  0  0
 34 35  1  0  0  0  0
 36 34  2  0  0  0  0
 36 37  1  0  0  0  0
M  END
>  <minimizedAffinity>
-5.55908823

$$$$

 OpenBabel03242518083D

 37 39  0  0  1  0  0  0  0  0999 V2000
   39.1000   31.4040   39.4740 N   0  0  0  0  0  0  0  0  0  0  0  0
   37.7910   31.9880   39.5940 C   0  0  0  0  0  0  0  0  0  0  0  0
   36.9010   31.4610   38.5510 C   0  0  0  0  0  0  0  0  0  0  0  0
   37.2790   30.1990   37.8720 C   0  0  0  0  0  0  0  0  0  0  0  0
   38.2400   29.3230   38.5680 C   0  0  0  0  0  0  0  0  0  0  0  0
   39.2800   29.9990   39.4170 C   0  0  2  0  0  0  0  0  0  0  0  0
   37.4130   31.8980   40.6290 H   0  0  0  0  0  0  0  0  0  0  0  0
   37.8570   33.1110   39.4460 H   0  0  0  0  0  0  0  0  0  0  0  0
   36.6650   32.2130   37.7700 H   0  0  0  0  0  0  0  0  0  0  0  0
   35.8980   31.2740   39.0400 H   0  0  0  0  0  0  0  0  0  0  0  0
   36.3840   29.5900   37.6230 H   0  0  0  0  0  0  0  0  0  0  0  0
   37.7280   30.4330   36.8660 H   0  0  0  0  0  0  0  0  0  0  0  0
   38.6530   28.5830   37.8520 H   0  0  0  0  0  0  0  0  0  0  0  0
   37.6420   28.6890   39.2900 H   0  0  0  0  0  0  0  0  0  0  0  0
   40.2330   29.8430   38.8110 H   0  0  0  0  0  0  0  0  0  0  0  0
   40.6860   32.7160   38.1470 C   0  0  0  0  0  0  0  0  0  0  0  0
   40.2340   32.2710   39.3970 C   0  0  0  0  0  0  0  0  0  0  0  0
   40.9330   32.7140   40.5540 C   0  0  0  0  0  0  0  0  0  0  0  0
   41.9840   33.5330   40.3720 N   0  0  0  0  0  0  0  0  0  0  0  0
   42.3900   33.9400   39.1570 C   0  0  0  0  0  0  0  0  0  0  0  0
   41.7410   33.5320   38.0400 N   0  0  0  0  0  0  0  0  0  0  0  0
   39.9980   32.2810   36.9990 N   0  0  0  0  0  0  0  0  0  0  0  0
   40.5900   32.3750   41.5160 H   0  0  0  0  0  0  0  0  0  0  0  0
   43.2450   34.5990   39.1100 H   0  0  0  0  0  0  0  0  0  0  0  0
   39.5590   32.9740   36.3630 H   0  0  0  0  0  0  0  0  0  0  0  0
   39.9170   31.2520   36.7610 H   0  0  0  0  0  0  0  0  0  0  0  0
   36.8460   29.2220   41.0000 Cl  0  0  0  0  0  0  0  0  0  0  0  0
   38.4970   28.8710   41.5370 C   0  0  0  0  0  0  0  0  0  0  0  0
   39.5300   29.2880   40.6800 C   0  0  0  0  0  0  0  0  0  0  0  0
   40.7710   28.9590   41.2070 C   0  0  0  0  0  0  0  0  0  0  0  0
   41.6420   29.2190   40.6630 H   0  0  0  0  0  0  0  0  0  0  0  0
   40.9730   28.3130   42.4060 C   0  0  0  0  0  0  0  0  0  0  0  0
   41.9720   28.0880   42.7570 H   0  0  0  0  0  0  0  0  0  0  0  0
   39.8860   27.9520   43.1620 C   0  0  0  0  0  0  0  0  0  0  0  0
   40.0520   27.4470   44.0990 H   0  0  0  0  0  0  0  0  0  0  0  0
   38.6220   28.2310   42.7290 C   0  0  0  0  0  0  0  0  0  0  0  0
   37.2240   27.7790   43.6790 Cl  0  0  0  0  0  0  0  0  0  0  0  0
  1  2  1  0  0  0  0
  2  7  1  0  0  0  0
  3 10  1  0  0  0  0
  3  2  1  0  0  0  0
  4  3  1  0  0  0  0
  4  5  1  0  0  0  0
  5 14  1  0  0  0  0
  5  6  1  0  0  0  0
  6 15  1  6  0  0  0
  6  1  1  0  0  0  0
  6 29  1  0  0  0  0
  8  2  1  0  0  0  0
  9  3  1  0  0  0  0
 11  4  1  0  0  0  0
 12  4  1  0  0  0  0
 13  5  1  0  0  0  0
 16 17  1  0  0  0  0
 17  1  1  0  0  0  0
 17 18  2  0  0  0  0
 18 23  1  0  0  0  0
 19 18  1  0  0  0  0
 20 19  2  0  0  0  0
 21 16  2  0  0  0  0
 21 20  1  0  0  0  0
 22 16  1  0  0  0  0
 24 20  1  0  0  0  0
 25 22  1  0  0  0  0
 26 22  1  0  0  0  0
 27 28  1  0  0  0  0
 28 36  1  0  0  0  0
 29 30  1  0  0  0  0
 29 28  2  0  0  0  0
 30 32  2  0  0  0  0
 31 30  1  0  0  0  0
 32 33  1  0  0  0  0
 32 34  1  0  0  0  0
 34 35  1  0  0  0  0
 36 34  2  0  0  0  0
 36 37  1  0  0  0  0
M  END
>  <minimizedAffinity>
-5.44167328

$$$$

 OpenBabel03242518083D

 37 39  0  0  1  0  0  0  0  0999 V2000
   37.1510   28.9500   40.6310 N   0  0  0  0  0  0  0  0  0  0  0  0
   35.7920   29.2830   40.9580 C   0  0  0  0  0  0  0  0  0  0  0  0
   34.9330   29.1420   39.7750 C   0  0  0  0  0  0  0  0  0  0  0  0
   35.4240   28.3250   38.6400 C   0  0  0  0  0  0  0  0  0  0  0  0
   36.4940   27.3510   38.9260 C   0  0  0  0  0  0  0  0  0  0  0  0
   37.4800   27.7240   39.9980 C   0  0  2  0  0  0  0  0  0  0  0  0
   35.4560   28.7320   41.8560 H   0  0  0  0  0  0  0  0  0  0  0  0
   35.7320   30.3660   41.2920 H   0  0  0  0  0  0  0  0  0  0  0  0
   34.5940   30.1200   39.3730 H   0  0  0  0  0  0  0  0  0  0  0  0
   33.9710   28.6600   40.1240 H   0  0  0  0  0  0  0  0  0  0  0  0
   34.5930   27.7790   38.1450 H   0  0  0  0  0  0  0  0  0  0  0  0
   35.8150   29.0030   37.8300 H   0  0  0  0  0  0  0  0  0  0  0  0
   36.9620   27.0250   37.9760 H   0  0  0  0  0  0  0  0  0  0  0  0
   35.9890   26.4130   39.3090 H   0  0  0  0  0  0  0  0  0  0  0  0
   38.4250   27.9400   39.3990 H   0  0  0  0  0  0  0  0  0  0  0  0
   38.6020   30.0520   42.2670 C   0  0  0  0  0  0  0  0  0  0  0  0
   38.1830   29.8900   40.9400 C   0  0  0  0  0  0  0  0  0  0  0  0
   38.8180   30.6790   39.9410 C   0  0  0  0  0  0  0  0  0  0  0  0
   39.7810   31.5300   40.3370 N   0  0  0  0  0  0  0  0  0  0  0  0
   40.1580   31.6580   41.6200 C   0  0  0  0  0  0  0  0  0  0  0  0
   39.5680   30.9190   42.5910 N   0  0  0  0  0  0  0  0  0  0  0  0
   37.9780   29.2740   43.2610 N   0  0  0  0  0  0  0  0  0  0  0  0
   38.5000   30.5590   38.9200 H   0  0  0  0  0  0  0  0  0  0  0  0
   40.9420   32.3680   41.8430 H   0  0  0  0  0  0  0  0  0  0  0  0
   38.5410   28.6250   43.8430 H   0  0  0  0  0  0  0  0  0  0  0  0
   36.9340   29.3340   43.4340 H   0  0  0  0  0  0  0  0  0  0  0  0
   40.4120   27.3720   40.5600 Cl  0  0  0  0  0  0  0  0  0  0  0  0
   39.1710   26.2810   41.1980 C   0  0  0  0  0  0  0  0  0  0  0  0
   37.8420   26.5860   40.8560 C   0  0  0  0  0  0  0  0  0  0  0  0
   36.9650   25.6640   41.4120 C   0  0  0  0  0  0  0  0  0  0  0  0
   35.9280   25.7730   41.2310 H   0  0  0  0  0  0  0  0  0  0  0  0
   37.3390   24.5930   42.1940 C   0  0  0  0  0  0  0  0  0  0  0  0
   36.5990   23.9120   42.5950 H   0  0  0  0  0  0  0  0  0  0  0  0
   38.6690   24.3940   42.4630 C   0  0  0  0  0  0  0  0  0  0  0  0
   38.9530   23.5540   43.0750 H   0  0  0  0  0  0  0  0  0  0  0  0
   39.6100   25.2470   41.9620 C   0  0  0  0  0  0  0  0  0  0  0  0
   41.3110   25.0090   42.2940 Cl  0  0  0  0  0  0  0  0  0  0  0  0
  1 17  1  0  0  0  0
  1  2  1  0  0  0  0
  2  8  1  0  0  0  0
  2  7  1  0  0  0  0
  3 10  1  0  0  0  0
  3  2  1  0  0  0  0
  4  5  1  0  0  0  0
  4  3  1  0  0  0  0
  5 14  1  0  0  0  0
  5  6  1  0  0  0  0
  6 15  1  6  0  0  0
  6  1  1  0  0  0  0
  6 29  1  0  0  0  0
  9  3  1  0  0  0  0
 11  4  1  0  0  0  0
 12  4  1  0  0  0  0
 13  5  1  0  0  0  0
 16 21  1  0  0  0  0
 16 22  1  0  0  0  0
 17 16  2  0  0  0  0
 18 19  2  0  0  0  0
 18 17  1  0  0  0  0
 19 20  1  0  0  0  0
 20 24  1  0  0  0  0
 20 21  2  0  0  0  0
 22 26  1  0  0  0  0
 22 25  1  0  0  0  0
 23 18  1  0  0  0  0
 27 28  1  0  0  0  0
 28 36  1  0  0  0  0
 29 28  2  0  0  0  0
 29 30  1  0  0  0  0
 30 32  2  0  0  0  0
 31 30  1  0  0  0  0
 32 34  1  0  0  0  0
 32 33  1  0  0  0  0
 34 35  1  0  0  0  0
 36 37  1  0  0  0  0
 36 34  2  0  0  0  0
M  END
>  <minimizedAffinity>
-5.30644512

$$$$

 OpenBabel03242518083D

 37 39  0  0  1  0  0  0  0  0999 V2000
   37.8500   30.4250   39.0840 N   0  0  0  0  0  0  0  0  0  0  0  0
   36.5770   30.6160   38.4440 C   0  0  0  0  0  0  0  0  0  0  0  0
   36.5100   29.8370   37.2000 C   0  0  0  0  0  0  0  0  0  0  0  0
   37.4650   28.7200   37.0140 C   0  0  0  0  0  0  0  0  0  0  0  0
   38.0960   28.1660   38.2280 C   0  0  0  0  0  0  0  0  0  0  0  0
   38.3530   29.1270   39.3560 C   0  0  2  0  0  0  0  0  0  0  0  0
   35.7480   30.4450   39.1560 H   0  0  0  0  0  0  0  0  0  0  0  0
   36.4480   31.7080   38.1660 H   0  0  0  0  0  0  0  0  0  0  0  0
   36.5480   30.4760   36.2930 H   0  0  0  0  0  0  0  0  0  0  0  0
   35.4740   29.3840   37.1530 H   0  0  0  0  0  0  0  0  0  0  0  0
   37.0010   27.8770   36.4600 H   0  0  0  0  0  0  0  0  0  0  0  0
   38.3040   29.0510   36.3390 H   0  0  0  0  0  0  0  0  0  0  0  0
   38.9790   27.5590   37.9420 H   0  0  0  0  0  0  0  0  0  0  0  0
   37.3750   27.4040   38.6530 H   0  0  0  0  0  0  0  0  0  0  0  0
   39.4870   29.2350   39.3340 H   0  0  0  0  0  0  0  0  0  0  0  0
   39.5920   32.0600   38.5480 C   0  0  0  0  0  0  0  0  0  0  0  0
   38.6220   31.5750   39.4360 C   0  0  0  0  0  0  0  0  0  0  0  0
   38.4420   32.2640   40.6670 C   0  0  0  0  0  0  0  0  0  0  0  0
   39.2160   33.3400   40.8980 N   0  0  0  0  0  0  0  0  0  0  0  0
   40.1370   33.7770   40.0230 C   0  0  0  0  0  0  0  0  0  0  0  0
   40.3280   33.1380   38.8440 N   0  0  0  0  0  0  0  0  0  0  0  0
   39.7740   31.3830   37.3280 N   0  0  0  0  0  0  0  0  0  0  0  0
   37.6990   31.8950   41.3520 H   0  0  0  0  0  0  0  0  0  0  0  0
   40.7120   34.6510   40.2970 H   0  0  0  0  0  0  0  0  0  0  0  0
   39.6340   31.8830   36.4290 H   0  0  0  0  0  0  0  0  0  0  0  0
   40.0570   30.3620   37.3010 H   0  0  0  0  0  0  0  0  0  0  0  0
   40.7340   28.1920   40.9340 Cl  0  0  0  0  0  0  0  0  0  0  0  0
   39.0690   28.0480   41.5240 C   0  0  0  0  0  0  0  0  0  0  0  0
   38.0660   28.5420   40.6740 C   0  0  0  0  0  0  0  0  0  0  0  0
   36.8100   28.3740   41.2420 C   0  0  0  0  0  0  0  0  0  0  0  0
   35.9580   28.7010   40.7050 H   0  0  0  0  0  0  0  0  0  0  0  0
   36.5720   27.8000   42.4720 C   0  0  0  0  0  0  0  0  0  0  0  0
   35.5640   27.7000   42.8540 H   0  0  0  0  0  0  0  0  0  0  0  0
   37.6330   27.3510   43.2170 C   0  0  0  0  0  0  0  0  0  0  0  0
   37.4380   26.9040   44.1780 H   0  0  0  0  0  0  0  0  0  0  0  0
   38.9080   27.4730   42.7440 C   0  0  0  0  0  0  0  0  0  0  0  0
   40.2730   26.9070   43.6800 Cl  0  0  0  0  0  0  0  0  0  0  0  0
  1  6  1  0  0  0  0
  1 17  1  0  0  0  0
  2  1  1  0  0  0  0
  2  7  1  0  0  0  0
  3  2  1  0  0  0  0
  4  3  1  0  0  0  0
  4  5  1  0  0  0  0
  5 14  1  0  0  0  0
  5  6  1  0  0  0  0
  6 15  1  6  0  0  0
  6 29  1  0  0  0  0
  8  2  1  0  0  0  0
  9  3  1  0  0  0  0
 10  3  1  0  0  0  0
 11  4  1  0  0  0  0
 12  4  1  0  0  0  0
 13  5  1  0  0  0  0
 16 21  2  0  0  0  0
 16 17  1  0  0  0  0
 17 18  2  0  0  0  0
 18 19  1  0  0  0  0
 18 23  1  0  0  0  0
 20 24  1  0  0  0  0
 20 19  2  0  0  0  0
 21 20  1  0  0  0  0
 22 16  1  0  0  0  0
 25 22  1  0  0  0  0
 26 22  1  0  0  0  0
 27 28  1  0  0  0  0
 28 36  1  0  0  0  0
 29 30  1  0  0  0  0
 29 28  2  0  0  0  0
 30 32  2  0  0  0  0
 31 30  1  0  0  0  0
 32 33  1  0  0  0  0
 32 34  1  0  0  0  0
 34 35  1  0  0  0  0
 36 34  2  0  0  0  0
 36 37  1  0  0  0  0
M  END
>  <minimizedAffinity>
-5.30037498

$$$$

 OpenBabel03242518083D

 37 39  0  0  1  0  0  0  0  0999 V2000
   39.0210   30.3050   40.0400 N   0  0  0  0  0  0  0  0  0  0  0  0
   39.4390   31.5390   40.6470 C   0  0  0  0  0  0  0  0  0  0  0  0
   38.4970   32.6160   40.3120 C   0  0  0  0  0  0  0  0  0  0  0  0
   37.1440   32.2460   39.8340 C   0  0  0  0  0  0  0  0  0  0  0  0
   36.6670   30.8860   40.1510 C   0  0  0  0  0  0  0  0  0  0  0  0
   37.7070   29.8020   40.2150 C   0  0  2  0  0  0  0  0  0  0  0  0
   39.6370   31.4010   41.7260 H   0  0  0  0  0  0  0  0  0  0  0  0
   40.4550   31.8420   40.2410 H   0  0  0  0  0  0  0  0  0  0  0  0
   38.9230   33.3520   39.5990 H   0  0  0  0  0  0  0  0  0  0  0  0
   38.3480   33.2260   41.2540 H   0  0  0  0  0  0  0  0  0  0  0  0
   36.3770   32.9650   40.1920 H   0  0  0  0  0  0  0  0  0  0  0  0
   37.1000   32.3490   38.7130 H   0  0  0  0  0  0  0  0  0  0  0  0
   35.7970   30.6400   39.5090 H   0  0  0  0  0  0  0  0  0  0  0  0
   36.2260   30.9290   41.1920 H   0  0  0  0  0  0  0  0  0  0  0  0
   37.4900   29.1960   39.2750 H   0  0  0  0  0  0  0  0  0  0  0  0
   39.9670   29.7740   37.8440 C   0  0  0  0  0  0  0  0  0  0  0  0
   39.9560   29.5860   39.2330 C   0  0  0  0  0  0  0  0  0  0  0  0
   40.8970   28.6740   39.7880 C   0  0  0  0  0  0  0  0  0  0  0  0
   41.7370   28.0520   38.9410 N   0  0  0  0  0  0  0  0  0  0  0  0
   41.7190   28.2580   37.6140 C   0  0  0  0  0  0  0  0  0  0  0  0
   40.8320   29.1210   37.0600 N   0  0  0  0  0  0  0  0  0  0  0  0
   39.0390   30.6750   37.2890 N   0  0  0  0  0  0  0  0  0  0  0  0
   40.8930   28.5250   40.8540 H   0  0  0  0  0  0  0  0  0  0  0  0
   42.4330   27.7130   37.0130 H   0  0  0  0  0  0  0  0  0  0  0  0
   39.3710   31.4990   36.7530 H   0  0  0  0  0  0  0  0  0  0  0  0
   37.9950   30.5330   37.4040 H   0  0  0  0  0  0  0  0  0  0  0  0
   37.3910   26.9140   39.4450 Cl  0  0  0  0  0  0  0  0  0  0  0  0
   37.2940   27.4810   41.1210 C   0  0  0  0  0  0  0  0  0  0  0  0
   37.4750   28.8600   41.3200 C   0  0  0  0  0  0  0  0  0  0  0  0
   37.3770   29.1810   42.6670 C   0  0  0  0  0  0  0  0  0  0  0  0
   37.4900   30.1920   42.9610 H   0  0  0  0  0  0  0  0  0  0  0  0
   37.1360   28.2770   43.6780 C   0  0  0  0  0  0  0  0  0  0  0  0
   37.0720   28.5980   44.7090 H   0  0  0  0  0  0  0  0  0  0  0  0
   36.9750   26.9500   43.3640 C   0  0  0  0  0  0  0  0  0  0  0  0
   36.7870   26.2490   44.1600 H   0  0  0  0  0  0  0  0  0  0  0  0
   37.0540   26.5350   42.0660 C   0  0  0  0  0  0  0  0  0  0  0  0
   36.8530   24.8490   41.6460 Cl  0  0  0  0  0  0  0  0  0  0  0  0
  1  6  1  0  0  0  0
  1  2  1  0  0  0  0
  2  7  1  0  0  0  0
  3  2  1  0  0  0  0
  3 10  1  0  0  0  0
  4  5  1  0  0  0  0
  4 11  1  0  0  0  0
  4  3  1  0  0  0  0
  5  6  1  0  0  0  0
  5 14  1  0  0  0  0
  6 15  1  6  0  0  0
  6 29  1  0  0  0  0
  8  2  1  0  0  0  0
  9  3  1  0  0  0  0
 12  4  1  0  0  0  0
 13  5  1  0  0  0  0
 16 17  1  0  0  0  0
 17 18  2  0  0  0  0
 17  1  1  0  0  0  0
 18 23  1  0  0  0  0
 19 18  1  0  0  0  0
 20 19  2  0  0  0  0
 21 20  1  0  0  0  0
 21 16  2  0  0  0  0
 22 26  1  0  0  0  0
 22 16  1  0  0  0  0
 24 20  1  0  0  0  0
 25 22  1  0  0  0  0
 27 28  1  0  0  0  0
 28 29  2  0  0  0  0
 28 36  1  0  0  0  0
 29 30  1  0  0  0  0
 30 31  1  0  0  0  0
 30 32  2  0  0  0  0
 32 33  1  0  0  0  0
 34 32  1  0  0  0  0
 34 35  1  0  0  0  0
 36 34  2  0  0  0  0
 37 36  1  0  0  0  0
M  END
>  <minimizedAffinity>
-5.18326187

$$$$
