
 OpenBabel03252506343D

 35 37  0  0  1  0  0  0  0  0999 V2000
   44.4430   35.8010   45.0260 C   0  0  0  0  0  0  0  0  0  0  0  0
   45.0650   35.8070   43.7680 C   0  0  0  0  0  0  0  0  0  0  0  0
   45.9640   34.8270   43.4770 C   0  0  0  0  0  0  0  0  0  0  0  0
   46.1970   33.9030   44.4390 N   0  0  0  0  0  0  0  0  0  0  0  0
   45.5950   33.9100   45.6350 C   0  0  0  0  0  0  0  0  0  0  0  0
   44.7170   34.8500   45.9480 N   0  0  0  0  0  0  0  0  0  0  0  0
   45.9320   32.8680   46.5590 N   0  0  0  0  0  0  0  0  0  0  0  0
   45.1780   32.5810   47.7670 C   0  0  0  0  0  0  0  0  0  0  0  0
   46.2840   32.2300   48.7310 C   0  0  0  0  0  0  0  0  0  0  0  0
   47.5460   32.0710   47.9300 C   0  0  0  0  0  0  0  0  0  0  0  0
   47.0360   31.9250   46.4980 C   0  0  1  0  0  0  0  0  0  0  0  0
   43.7130   36.5650   45.3080 H   0  0  0  0  0  0  0  0  0  0  0  0
   46.4420   34.8260   42.5190 H   0  0  0  0  0  0  0  0  0  0  0  0
   44.5640   31.6700   47.6580 H   0  0  0  0  0  0  0  0  0  0  0  0
   44.5780   33.4580   48.0970 H   0  0  0  0  0  0  0  0  0  0  0  0
   46.0580   31.3920   49.3900 H   0  0  0  0  0  0  0  0  0  0  0  0
   46.4000   33.1310   49.3960 H   0  0  0  0  0  0  0  0  0  0  0  0
   48.1650   32.9770   48.0030 H   0  0  0  0  0  0  0  0  0  0  0  0
   48.0940   31.1730   48.2850 H   0  0  0  0  0  0  0  0  0  0  0  0
   47.7160   32.3250   45.7450 H   0  0  0  0  0  0  0  0  0  0  0  0
   44.6890   36.8670   42.8760 N   0  0  0  0  0  0  0  0  0  0  0  0
   43.7370   37.2620   42.8120 H   0  0  0  0  0  0  0  0  0  0  0  0
   45.4290   37.2770   42.2380 H   0  0  0  0  0  0  0  0  0  0  0  0
   46.4740   30.2490   46.2660 S   0  0  0  0  0  0  0  0  0  0  0  0
   49.1060   29.8210   44.3490 Cl  0  0  0  0  0  0  0  0  0  0  0  0
   48.8150   28.7240   45.6560 C   0  0  0  0  0  0  0  0  0  0  0  0
   47.6850   28.9930   46.3910 C   0  0  0  0  0  0  0  0  0  0  0  0
   47.4070   28.1100   47.4450 C   0  0  0  0  0  0  0  0  0  0  0  0
   46.5660   28.1400   48.1470 H   0  0  0  0  0  0  0  0  0  0  0  0
   48.2680   27.0330   47.6870 C   0  0  0  0  0  0  0  0  0  0  0  0
   48.0970   26.3140   48.4980 H   0  0  0  0  0  0  0  0  0  0  0  0
   49.3990   26.8120   46.9100 C   0  0  0  0  0  0  0  0  0  0  0  0
   50.0520   25.9890   47.1020 H   0  0  0  0  0  0  0  0  0  0  0  0
   49.6570   27.6830   45.8830 C   0  0  0  0  0  0  0  0  0  0  0  0
   51.0600   27.5020   44.8330 Cl  0  0  0  0  0  0  0  0  0  0  0  0
  1 12  1  0  0  0  0
  1  6  1  0  0  0  0
  2  1  2  0  0  0  0
  3  2  1  0  0  0  0
  3  4  2  0  0  0  0
  4  5  1  0  0  0  0
  5  6  2  0  0  0  0
  5  7  1  0  0  0  0
  7  8  1  0  0  0  0
  8 15  1  0  0  0  0
  8  9  1  0  0  0  0
  9 16  1  0  0  0  0
  9 17  1  0  0  0  0
 10 18  1  0  0  0  0
 10 19  1  0  0  0  0
 10  9  1  0  0  0  0
 11 20  1  6  0  0  0
 11  7  1  0  0  0  0
 11 10  1  0  0  0  0
 13  3  1  0  0  0  0
 14  8  1  0  0  0  0
 21  2  1  0  0  0  0
 22 21  1  0  0  0  0
 23 21  1  0  0  0  0
 24 27  1  0  0  0  0
 24 11  1  0  0  0  0
 25 26  1  0  0  0  0
 26 34  2  0  0  0  0
 26 27  1  0  0  0  0
 27 28  2  0  0  0  0
 28 30  1  0  0  0  0
 28 29  1  0  0  0  0
 30 31  1  0  0  0  0
 32 33  1  0  0  0  0
 32 30  2  0  0  0  0
 34 32  1  0  0  0  0
 35 34  1  0  0  0  0
M  END
>  <minimizedAffinity>
-5.14322948

>  <minimizedRMSD>
0.444077998

$$$$
