
 OpenBabel03242518413D

 41 44  0  0  1  0  0  0  0  0999 V2000
   38.2180   32.1630   39.6520 C   0  0  0  0  0  0  0  0  0  0  0  0
   38.3410   31.3270   38.7380 O   0  0  0  0  0  0  0  0  0  0  0  0
   39.0790   33.2610   39.9570 C   0  0  0  0  0  0  0  0  0  0  0  0
   38.4720   34.4750   40.0990 C   0  0  0  0  0  0  0  0  0  0  0  0
   39.2540   35.5880   40.3970 C   0  0  0  0  0  0  0  0  0  0  0  0
   40.5690   35.4110   40.5320 N   0  0  0  0  0  0  0  0  0  0  0  0
   41.1550   34.2210   40.3910 C   0  0  0  0  0  0  0  0  0  0  0  0
   40.3750   33.1680   40.1040 N   0  0  0  0  0  0  0  0  0  0  0  0
   37.4060   34.6300   39.9930 H   0  0  0  0  0  0  0  0  0  0  0  0
   38.7930   36.5600   40.5150 H   0  0  0  0  0  0  0  0  0  0  0  0
   42.6050   34.3320   37.8180 Cl  0  0  0  0  0  0  0  0  0  0  0  0
   43.3810   34.0810   39.3840 C   0  0  0  0  0  0  0  0  0  0  0  0
   42.6080   34.0440   40.5420 C   0  0  0  0  0  0  0  0  0  0  0  0
   43.1380   33.8510   41.8010 C   0  0  0  0  0  0  0  0  0  0  0  0
   42.5100   33.8280   42.6770 H   0  0  0  0  0  0  0  0  0  0  0  0
   44.5230   33.6860   41.9110 C   0  0  0  0  0  0  0  0  0  0  0  0
   44.9970   33.5300   42.8870 H   0  0  0  0  0  0  0  0  0  0  0  0
   45.3100   33.7180   40.7840 C   0  0  0  0  0  0  0  0  0  0  0  0
   46.3860   33.5980   40.7910 H   0  0  0  0  0  0  0  0  0  0  0  0
   44.7530   33.9130   39.5330 C   0  0  0  0  0  0  0  0  0  0  0  0
   45.6690   33.9710   38.0260 Cl  0  0  0  0  0  0  0  0  0  0  0  0
   37.0850   32.0110   40.4980 O   0  0  0  0  0  0  0  0  0  0  0  0
   36.6130   30.7020   40.7680 C   0  0  0  0  0  0  0  0  0  0  0  0
   35.5950   29.9450   40.1690 C   0  0  0  0  0  0  0  0  0  0  0  0
   35.5260   28.7150   40.8030 C   0  0  0  0  0  0  0  0  0  0  0  0
   36.5000   28.7850   41.7470 C   0  0  0  0  0  0  0  0  0  0  0  0
   37.1340   29.9460   41.7270 O   0  0  0  0  0  0  0  0  0  0  0  0
   35.0190   30.3550   39.3520 H   0  0  0  0  0  0  0  0  0  0  0  0
   34.8310   27.9340   40.5450 H   0  0  0  0  0  0  0  0  0  0  0  0
   36.8170   27.6930   42.6970 C   0  0  2  0  0  0  0  0  0  0  0  0
   37.3370   27.9870   44.0300 C   0  0  0  0  0  0  0  0  0  0  0  0
   38.3340   27.5760   43.0090 C   0  0  1  0  0  0  0  0  0  0  0  0
   36.3150   26.7360   42.4450 H   0  0  0  0  0  0  0  0  0  0  0  0
   37.3190   29.0430   44.4020 H   0  0  0  0  0  0  0  0  0  0  0  0
   37.1070   27.2830   44.8720 H   0  0  0  0  0  0  0  0  0  0  0  0
   38.9930   28.2830   42.5120 H   0  0  0  0  0  0  0  0  0  0  0  0
   39.9970   25.8830   43.7550 C   0  0  0  0  0  0  0  0  0  0  0  0
   40.7380   26.7650   44.2760 O   0  0  0  0  0  0  0  0  0  0  0  0
   38.7830   26.1880   43.0860 N   0  0  0  0  0  0  0  0  0  0  0  0
   40.3030   24.8340   43.8210 H   0  0  0  0  0  0  0  0  0  0  0  0
   38.2050   25.4370   42.6460 H   0  0  0  0  0  0  0  0  0  0  0  0
  1  3  1  0  0  0  0
  1 22  1  0  0  0  0
  2  1  2  0  0  0  0
  3  4  2  0  0  0  0
  3  8  1  0  0  0  0
  4  5  1  0  0  0  0
  5 10  1  0  0  0  0
  5  6  2  0  0  0  0
  7  6  1  0  0  0  0
  7 13  1  0  0  0  0
  8  7  2  0  0  0  0
  9  4  1  0  0  0  0
 11 12  1  0  0  0  0
 12 20  2  0  0  0  0
 12 13  1  0  0  0  0
 13 14  2  0  0  0  0
 14 16  1  0  0  0  0
 14 15  1  0  0  0  0
 16 17  1  0  0  0  0
 18 19  1  0  0  0  0
 18 16  2  0  0  0  0
 20 18  1  0  0  0  0
 21 20  1  0  0  0  0
 22 23  1  0  0  0  0
 23 27  1  0  0  0  0
 24 23  2  0  0  0  0
 24 25  1  0  0  0  0
 25 26  2  0  0  0  0
 26 30  1  0  0  0  0
 27 26  1  0  0  0  0
 28 24  1  0  0  0  0
 29 25  1  0  0  0  0
 30 33  1  6  0  0  0
 30 32  1  0  0  0  0
 30 31  1  0  0  0  0
 31 34  1  0  0  0  0
 31 35  1  0  0  0  0
 32 36  1  6  0  0  0
 32 39  1  0  0  0  0
 32 31  1  0  0  0  0
 37 40  1  0  0  0  0
 37 38  2  0  0  0  0
 39 37  1  0  0  0  0
 41 39  1  0  0  0  0
M  END
>  <minimizedAffinity>
-6.68906021

$$$$

 OpenBabel03242518413D

 41 44  0  0  1  0  0  0  0  0999 V2000
   37.3400   33.3970   39.6430 C   0  0  0  0  0  0  0  0  0  0  0  0
   36.7430   34.2250   38.9300 O   0  0  0  0  0  0  0  0  0  0  0  0
   37.3960   31.9800   39.4810 C   0  0  0  0  0  0  0  0  0  0  0  0
   37.3400   31.5210   38.1970 C   0  0  0  0  0  0  0  0  0  0  0  0
   37.3900   30.1490   37.9700 C   0  0  0  0  0  0  0  0  0  0  0  0
   37.4920   29.3420   39.0280 N   0  0  0  0  0  0  0  0  0  0  0  0
   37.5460   29.7980   40.2800 C   0  0  0  0  0  0  0  0  0  0  0  0
   37.4960   31.1260   40.4660 N   0  0  0  0  0  0  0  0  0  0  0  0
   37.2570   32.1660   37.3320 H   0  0  0  0  0  0  0  0  0  0  0  0
   37.3470   29.7630   36.9590 H   0  0  0  0  0  0  0  0  0  0  0  0
   40.3360   29.4090   41.1730 Cl  0  0  0  0  0  0  0  0  0  0  0  0
   38.9360   28.6470   41.9320 C   0  0  0  0  0  0  0  0  0  0  0  0
   37.6590   28.8940   41.4350 C   0  0  0  0  0  0  0  0  0  0  0  0
   36.5160   28.3360   41.9710 C   0  0  0  0  0  0  0  0  0  0  0  0
   35.5420   28.5500   41.5610 H   0  0  0  0  0  0  0  0  0  0  0  0
   36.6570   27.4810   43.0700 C   0  0  0  0  0  0  0  0  0  0  0  0
   35.7830   27.0110   43.5350 H   0  0  0  0  0  0  0  0  0  0  0  0
   37.9070   27.2190   43.5800 C   0  0  0  0  0  0  0  0  0  0  0  0
   38.0940   26.5700   44.4260 H   0  0  0  0  0  0  0  0  0  0  0  0
   39.0360   27.7910   43.0240 C   0  0  0  0  0  0  0  0  0  0  0  0
   40.6820   27.5240   43.5990 Cl  0  0  0  0  0  0  0  0  0  0  0  0
   38.0550   33.9220   40.7550 O   0  0  0  0  0  0  0  0  0  0  0  0
   39.3000   34.5580   40.5200 C   0  0  0  0  0  0  0  0  0  0  0  0
   39.6070   35.8380   40.0350 C   0  0  0  0  0  0  0  0  0  0  0  0
   40.9860   35.9750   39.9890 C   0  0  0  0  0  0  0  0  0  0  0  0
   41.4430   34.7820   40.4470 C   0  0  0  0  0  0  0  0  0  0  0  0
   40.4590   33.9540   40.7570 O   0  0  0  0  0  0  0  0  0  0  0  0
   38.8170   36.5250   39.7690 H   0  0  0  0  0  0  0  0  0  0  0  0
   41.4990   36.8610   39.6550 H   0  0  0  0  0  0  0  0  0  0  0  0
   42.8780   34.4370   40.5820 C   0  0  2  0  0  0  0  0  0  0  0  0
   43.3370   33.5450   41.6420 C   0  0  0  0  0  0  0  0  0  0  0  0
   43.5220   35.0000   41.8780 C   0  0  1  0  0  0  0  0  0  0  0  0
   43.4590   34.6170   39.6530 H   0  0  0  0  0  0  0  0  0  0  0  0
   42.5830   32.9720   42.2380 H   0  0  0  0  0  0  0  0  0  0  0  0
   44.2440   32.9090   41.4640 H   0  0  0  0  0  0  0  0  0  0  0  0
   42.8770   35.5750   42.5370 H   0  0  0  0  0  0  0  0  0  0  0  0
   45.6630   35.9030   42.7660 C   0  0  0  0  0  0  0  0  0  0  0  0
   45.2460   35.8590   43.9600 O   0  0  0  0  0  0  0  0  0  0  0  0
   44.8720   35.5110   41.6550 N   0  0  0  0  0  0  0  0  0  0  0  0
   46.6790   36.2620   42.5780 H   0  0  0  0  0  0  0  0  0  0  0  0
   45.2390   35.5810   40.6790 H   0  0  0  0  0  0  0  0  0  0  0  0
  1 22  1  0  0  0  0
  2  1  2  0  0  0  0
  3  1  1  0  0  0  0
  3  8  1  0  0  0  0
  4  3  2  0  0  0  0
  5  4  1  0  0  0  0
  5  6  2  0  0  0  0
  6  7  1  0  0  0  0
  7  8  2  0  0  0  0
  7 13  1  0  0  0  0
  9  4  1  0  0  0  0
 10  5  1  0  0  0  0
 11 12  1  0  0  0  0
 12 20  1  0  0  0  0
 13 12  2  0  0  0  0
 13 14  1  0  0  0  0
 14 16  2  0  0  0  0
 15 14  1  0  0  0  0
 16 17  1  0  0  0  0
 16 18  1  0  0  0  0
 18 19  1  0  0  0  0
 20 18  2  0  0  0  0
 20 21  1  0  0  0  0
 23 22  1  0  0  0  0
 23 27  1  0  0  0  0
 24 23  2  0  0  0  0
 25 24  1  0  0  0  0
 25 26  2  0  0  0  0
 26 30  1  0  0  0  0
 26 27  1  0  0  0  0
 28 24  1  0  0  0  0
 29 25  1  0  0  0  0
 30 33  1  6  0  0  0
 30 31  1  0  0  0  0
 30 32  1  0  0  0  0
 31 32  1  0  0  0  0
 31 34  1  0  0  0  0
 32 36  1  1  0  0  0
 35 31  1  0  0  0  0
 37 38  2  0  0  0  0
 39 32  1  0  0  0  0
 39 37  1  0  0  0  0
 40 37  1  0  0  0  0
 41 39  1  0  0  0  0
M  END
>  <minimizedAffinity>
-6.68626785

$$$$

 OpenBabel03242518413D

 41 44  0  0  1  0  0  0  0  0999 V2000
   37.5390   33.2460   39.7890 C   0  0  0  0  0  0  0  0  0  0  0  0
   36.8560   34.0890   39.1790 O   0  0  0  0  0  0  0  0  0  0  0  0
   37.5070   31.8250   39.6520 C   0  0  0  0  0  0  0  0  0  0  0  0
   37.3630   31.3500   38.3810 C   0  0  0  0  0  0  0  0  0  0  0  0
   37.3230   29.9730   38.1770 C   0  0  0  0  0  0  0  0  0  0  0  0
   37.4310   29.1790   39.2450 N   0  0  0  0  0  0  0  0  0  0  0  0
   37.5710   29.6510   40.4840 C   0  0  0  0  0  0  0  0  0  0  0  0
   37.6050   30.9830   40.6480 N   0  0  0  0  0  0  0  0  0  0  0  0
   37.2750   31.9840   37.5090 H   0  0  0  0  0  0  0  0  0  0  0  0
   37.2100   29.5750   37.1780 H   0  0  0  0  0  0  0  0  0  0  0  0
   40.3720   29.1710   41.2920 Cl  0  0  0  0  0  0  0  0  0  0  0  0
   38.9710   28.4730   42.1080 C   0  0  0  0  0  0  0  0  0  0  0  0
   37.6880   28.7610   41.6500 C   0  0  0  0  0  0  0  0  0  0  0  0
   36.5440   28.2550   42.2310 C   0  0  0  0  0  0  0  0  0  0  0  0
   35.5650   28.4990   41.8500 H   0  0  0  0  0  0  0  0  0  0  0  0
   36.6890   27.4120   43.3380 C   0  0  0  0  0  0  0  0  0  0  0  0
   35.8140   26.9820   43.8390 H   0  0  0  0  0  0  0  0  0  0  0  0
   37.9440   27.1110   43.8120 C   0  0  0  0  0  0  0  0  0  0  0  0
   38.1340   26.4670   44.6610 H   0  0  0  0  0  0  0  0  0  0  0  0
   39.0750   27.6310   43.2100 C   0  0  0  0  0  0  0  0  0  0  0  0
   40.7280   27.3100   43.7360 Cl  0  0  0  0  0  0  0  0  0  0  0  0
   38.4670   33.7550   40.7400 O   0  0  0  0  0  0  0  0  0  0  0  0
   39.5290   34.5730   40.2790 C   0  0  0  0  0  0  0  0  0  0  0  0
   39.9310   35.8630   40.6540 C   0  0  0  0  0  0  0  0  0  0  0  0
   41.0360   36.2210   39.8960 C   0  0  0  0  0  0  0  0  0  0  0  0
   41.2480   35.1370   39.1060 C   0  0  0  0  0  0  0  0  0  0  0  0
   40.3670   34.1740   39.3300 O   0  0  0  0  0  0  0  0  0  0  0  0
   39.3940   36.4010   41.4210 H   0  0  0  0  0  0  0  0  0  0  0  0
   41.5520   37.1620   39.9780 H   0  0  0  0  0  0  0  0  0  0  0  0
   42.3340   35.0380   38.1040 C   0  0  2  0  0  0  0  0  0  0  0  0
   42.5760   33.7920   37.3820 C   0  0  0  0  0  0  0  0  0  0  0  0
   43.4740   34.0730   38.5320 C   0  0  1  0  0  0  0  0  0  0  0  0
   42.6730   36.0260   37.7290 H   0  0  0  0  0  0  0  0  0  0  0  0
   41.8220   32.9680   37.4490 H   0  0  0  0  0  0  0  0  0  0  0  0
   43.0000   33.8370   36.3450 H   0  0  0  0  0  0  0  0  0  0  0  0
   43.3660   33.5830   39.4960 H   0  0  0  0  0  0  0  0  0  0  0  0
   45.8900   33.6850   38.0830 C   0  0  0  0  0  0  0  0  0  0  0  0
   45.7830   32.4430   38.2960 O   0  0  0  0  0  0  0  0  0  0  0  0
   44.7980   34.5860   38.1900 N   0  0  0  0  0  0  0  0  0  0  0  0
   46.8680   34.0880   37.8040 H   0  0  0  0  0  0  0  0  0  0  0  0
   44.9250   35.6100   38.0290 H   0  0  0  0  0  0  0  0  0  0  0  0
  1 22  1  0  0  0  0
  2  1  2  0  0  0  0
  3  1  1  0  0  0  0
  3  8  1  0  0  0  0
  4  3  2  0  0  0  0
  5  4  1  0  0  0  0
  5  6  2  0  0  0  0
  6  7  1  0  0  0  0
  7  8  2  0  0  0  0
  7 13  1  0  0  0  0
  9  4  1  0  0  0  0
 10  5  1  0  0  0  0
 11 12  1  0  0  0  0
 12 20  1  0  0  0  0
 13 12  2  0  0  0  0
 13 14  1  0  0  0  0
 14 16  2  0  0  0  0
 15 14  1  0  0  0  0
 16 18  1  0  0  0  0
 16 17  1  0  0  0  0
 18 19  1  0  0  0  0
 20 21  1  0  0  0  0
 20 18  2  0  0  0  0
 23 24  2  0  0  0  0
 23 22  1  0  0  0  0
 24 28  1  0  0  0  0
 25 29  1  0  0  0  0
 25 24  1  0  0  0  0
 26 27  1  0  0  0  0
 26 25  2  0  0  0  0
 27 23  1  0  0  0  0
 30 33  1  6  0  0  0
 30 32  1  0  0  0  0
 30 26  1  0  0  0  0
 31 34  1  0  0  0  0
 31 30  1  0  0  0  0
 31 32  1  0  0  0  0
 32 36  1  1  0  0  0
 35 31  1  0  0  0  0
 37 39  1  0  0  0  0
 37 38  2  0  0  0  0
 39 32  1  0  0  0  0
 40 37  1  0  0  0  0
 41 39  1  0  0  0  0
M  END
>  <minimizedAffinity>
-6.68117094

$$$$

 OpenBabel03242518413D

 41 44  0  0  1  0  0  0  0  0999 V2000
   39.0680   31.5750   41.3310 C   0  0  0  0  0  0  0  0  0  0  0  0
   40.1760   31.7940   41.8560 O   0  0  0  0  0  0  0  0  0  0  0  0
   38.2680   30.3970   41.4310 C   0  0  0  0  0  0  0  0  0  0  0  0
   36.9450   30.5450   41.1340 C   0  0  0  0  0  0  0  0  0  0  0  0
   36.1080   29.4350   41.2130 C   0  0  0  0  0  0  0  0  0  0  0  0
   36.6470   28.2700   41.5770 N   0  0  0  0  0  0  0  0  0  0  0  0
   37.9410   28.1330   41.8660 C   0  0  0  0  0  0  0  0  0  0  0  0
   38.7210   29.2210   41.7810 N   0  0  0  0  0  0  0  0  0  0  0  0
   36.4970   31.4850   40.8380 H   0  0  0  0  0  0  0  0  0  0  0  0
   35.0550   29.5310   40.9810 H   0  0  0  0  0  0  0  0  0  0  0  0
   37.1900   25.9240   40.0530 Cl  0  0  0  0  0  0  0  0  0  0  0  0
   38.2220   25.7340   41.4730 C   0  0  0  0  0  0  0  0  0  0  0  0
   38.5180   26.8400   42.2660 C   0  0  0  0  0  0  0  0  0  0  0  0
   39.3150   26.7740   43.3910 C   0  0  0  0  0  0  0  0  0  0  0  0
   39.5240   27.6510   43.9830 H   0  0  0  0  0  0  0  0  0  0  0  0
   39.8490   25.5300   43.7440 C   0  0  0  0  0  0  0  0  0  0  0  0
   40.4880   25.4210   44.6280 H   0  0  0  0  0  0  0  0  0  0  0  0
   39.5720   24.4210   42.9790 C   0  0  0  0  0  0  0  0  0  0  0  0
   39.9480   23.4290   43.1900 H   0  0  0  0  0  0  0  0  0  0  0  0
   38.7700   24.5150   41.8560 C   0  0  0  0  0  0  0  0  0  0  0  0
   38.3530   23.1600   40.8070 Cl  0  0  0  0  0  0  0  0  0  0  0  0
   38.5300   32.6220   40.5320 O   0  0  0  0  0  0  0  0  0  0  0  0
   39.3800   33.6950   40.1610 C   0  0  0  0  0  0  0  0  0  0  0  0
   39.4080   35.0360   40.5710 C   0  0  0  0  0  0  0  0  0  0  0  0
   40.4400   35.6810   39.9080 C   0  0  0  0  0  0  0  0  0  0  0  0
   40.9840   34.7060   39.1340 C   0  0  0  0  0  0  0  0  0  0  0  0
   40.3650   33.5450   39.2830 O   0  0  0  0  0  0  0  0  0  0  0  0
   38.6930   35.4010   41.2940 H   0  0  0  0  0  0  0  0  0  0  0  0
   40.6890   36.7210   40.0330 H   0  0  0  0  0  0  0  0  0  0  0  0
   42.1340   34.9110   38.2240 C   0  0  2  0  0  0  0  0  0  0  0  0
   42.5760   33.8490   37.3240 C   0  0  0  0  0  0  0  0  0  0  0  0
   43.3580   34.0210   38.5760 C   0  0  1  0  0  0  0  0  0  0  0  0
   42.3680   35.9820   38.0510 H   0  0  0  0  0  0  0  0  0  0  0  0
   41.9290   32.9460   37.1870 H   0  0  0  0  0  0  0  0  0  0  0  0
   43.0540   34.1260   36.3490 H   0  0  0  0  0  0  0  0  0  0  0  0
   43.2530   33.3580   39.4310 H   0  0  0  0  0  0  0  0  0  0  0  0
   45.8270   33.9960   38.2760 C   0  0  0  0  0  0  0  0  0  0  0  0
   45.8650   32.7310   38.2700 O   0  0  0  0  0  0  0  0  0  0  0  0
   44.6250   34.7330   38.4380 N   0  0  0  0  0  0  0  0  0  0  0  0
   46.7620   34.5500   38.1510 H   0  0  0  0  0  0  0  0  0  0  0  0
   44.6310   35.7780   38.4600 H   0  0  0  0  0  0  0  0  0  0  0  0
  1  3  1  0  0  0  0
  1  2  2  0  0  0  0
  3  8  1  0  0  0  0
  4  5  1  0  0  0  0
  4  3  2  0  0  0  0
  5  6  2  0  0  0  0
  6  7  1  0  0  0  0
  7 13  1  0  0  0  0
  8  7  2  0  0  0  0
  9  4  1  0  0  0  0
 10  5  1  0  0  0  0
 11 12  1  0  0  0  0
 12 20  2  0  0  0  0
 12 13  1  0  0  0  0
 13 14  2  0  0  0  0
 14 16  1  0  0  0  0
 14 15  1  0  0  0  0
 16 17  1  0  0  0  0
 18 19  1  0  0  0  0
 18 16  2  0  0  0  0
 20 18  1  0  0  0  0
 21 20  1  0  0  0  0
 22  1  1  0  0  0  0
 23 22  1  0  0  0  0
 23 24  2  0  0  0  0
 24 28  1  0  0  0  0
 25 29  1  0  0  0  0
 25 24  1  0  0  0  0
 26 27  1  0  0  0  0
 26 25  2  0  0  0  0
 27 23  1  0  0  0  0
 30 33  1  6  0  0  0
 30 32  1  0  0  0  0
 30 26  1  0  0  0  0
 31 30  1  0  0  0  0
 31 32  1  0  0  0  0
 32 36  1  1  0  0  0
 34 31  1  0  0  0  0
 35 31  1  0  0  0  0
 37 39  1  0  0  0  0
 38 37  2  0  0  0  0
 39 41  1  0  0  0  0
 39 32  1  0  0  0  0
 40 37  1  0  0  0  0
M  END
>  <minimizedAffinity>
-6.62005901

$$$$

 OpenBabel03242518413D

 41 44  0  0  1  0  0  0  0  0999 V2000
   36.4740   29.7820   41.1300 C   0  0  0  0  0  0  0  0  0  0  0  0
   35.4800   29.0460   40.9840 O   0  0  0  0  0  0  0  0  0  0  0  0
   37.0760   30.6430   40.1640 C   0  0  0  0  0  0  0  0  0  0  0  0
   36.8200   30.3480   38.8570 C   0  0  0  0  0  0  0  0  0  0  0  0
   37.3780   31.1490   37.8640 C   0  0  0  0  0  0  0  0  0  0  0  0
   38.1420   32.1760   38.2440 N   0  0  0  0  0  0  0  0  0  0  0  0
   38.3880   32.4570   39.5240 C   0  0  0  0  0  0  0  0  0  0  0  0
   37.8360   31.6670   40.4570 N   0  0  0  0  0  0  0  0  0  0  0  0
   36.2030   29.5190   38.5380 H   0  0  0  0  0  0  0  0  0  0  0  0
   37.1880   30.9330   36.8210 H   0  0  0  0  0  0  0  0  0  0  0  0
   41.2240   31.7140   39.8890 Cl  0  0  0  0  0  0  0  0  0  0  0  0
   40.5880   33.3440   40.1210 C   0  0  0  0  0  0  0  0  0  0  0  0
   39.2330   33.5940   39.9240 C   0  0  0  0  0  0  0  0  0  0  0  0
   38.6600   34.8380   40.0870 C   0  0  0  0  0  0  0  0  0  0  0  0
   37.6050   34.9960   39.9250 H   0  0  0  0  0  0  0  0  0  0  0  0
   39.4900   35.8980   40.4670 C   0  0  0  0  0  0  0  0  0  0  0  0
   39.0880   36.9070   40.6100 H   0  0  0  0  0  0  0  0  0  0  0  0
   40.8330   35.6800   40.6690 C   0  0  0  0  0  0  0  0  0  0  0  0
   41.5350   36.4480   40.9640 H   0  0  0  0  0  0  0  0  0  0  0  0
   41.3820   34.4220   40.5000 C   0  0  0  0  0  0  0  0  0  0  0  0
   43.0870   34.0330   40.7320 Cl  0  0  0  0  0  0  0  0  0  0  0  0
   37.0870   29.7660   42.4140 O   0  0  0  0  0  0  0  0  0  0  0  0
   38.1750   28.8840   42.6320 C   0  0  0  0  0  0  0  0  0  0  0  0
   39.5530   29.1260   42.7440 C   0  0  0  0  0  0  0  0  0  0  0  0
   40.1990   27.9190   42.9560 C   0  0  0  0  0  0  0  0  0  0  0  0
   39.1890   27.0110   42.9640 C   0  0  0  0  0  0  0  0  0  0  0  0
   38.0070   27.5740   42.7750 O   0  0  0  0  0  0  0  0  0  0  0  0
   39.9380   30.1310   42.6610 H   0  0  0  0  0  0  0  0  0  0  0  0
   41.2640   27.8110   43.0780 H   0  0  0  0  0  0  0  0  0  0  0  0
   39.3820   25.5550   43.1570 C   0  0  2  0  0  0  0  0  0  0  0  0
   40.6120   24.8980   42.7230 C   0  0  0  0  0  0  0  0  0  0  0  0
   39.4380   24.7630   41.8220 C   0  0  1  0  0  0  0  0  0  0  0  0
   38.7110   25.1240   43.9300 H   0  0  0  0  0  0  0  0  0  0  0  0
   41.4850   25.5250   42.4140 H   0  0  0  0  0  0  0  0  0  0  0  0
   40.9710   23.9920   43.2780 H   0  0  0  0  0  0  0  0  0  0  0  0
   39.3310   25.3380   40.9060 H   0  0  0  0  0  0  0  0  0  0  0  0
   37.7760   23.1610   40.8950 C   0  0  0  0  0  0  0  0  0  0  0  0
   37.4880   23.9350   39.9370 O   0  0  0  0  0  0  0  0  0  0  0  0
   38.7260   23.4900   41.8970 N   0  0  0  0  0  0  0  0  0  0  0  0
   37.2710   22.1920   40.9580 H   0  0  0  0  0  0  0  0  0  0  0  0
   38.9240   22.8370   42.6890 H   0  0  0  0  0  0  0  0  0  0  0  0
  1 22  1  0  0  0  0
  2  1  2  0  0  0  0
  3  8  1  0  0  0  0
  3  1  1  0  0  0  0
  4  3  2  0  0  0  0
  5  6  2  0  0  0  0
  5  4  1  0  0  0  0
  6  7  1  0  0  0  0
  7 13  1  0  0  0  0
  7  8  2  0  0  0  0
  9  4  1  0  0  0  0
 10  5  1  0  0  0  0
 11 12  1  0  0  0  0
 12 20  1  0  0  0  0
 13 14  1  0  0  0  0
 13 12  2  0  0  0  0
 14 16  2  0  0  0  0
 15 14  1  0  0  0  0
 16 17  1  0  0  0  0
 16 18  1  0  0  0  0
 18 19  1  0  0  0  0
 20 18  2  0  0  0  0
 20 21  1  0  0  0  0
 22 23  1  0  0  0  0
 23 24  2  0  0  0  0
 23 27  1  0  0  0  0
 24 25  1  0  0  0  0
 25 26  2  0  0  0  0
 25 29  1  0  0  0  0
 26 30  1  0  0  0  0
 27 26  1  0  0  0  0
 28 24  1  0  0  0  0
 30 33  1  1  0  0  0
 31 30  1  0  0  0  0
 31 35  1  0  0  0  0
 32 36  1  6  0  0  0
 32 39  1  0  0  0  0
 32 31  1  0  0  0  0
 32 30  1  0  0  0  0
 34 31  1  0  0  0  0
 37 40  1  0  0  0  0
 37 39  1  0  0  0  0
 38 37  2  0  0  0  0
 39 41  1  0  0  0  0
M  END
>  <minimizedAffinity>
-6.39982033

$$$$

 OpenBabel03242518413D

 41 44  0  0  1  0  0  0  0  0999 V2000
   37.3600   29.8100   41.2450 C   0  0  0  0  0  0  0  0  0  0  0  0
   36.3350   30.4030   41.6280 O   0  0  0  0  0  0  0  0  0  0  0  0
   37.9000   28.5830   41.7370 C   0  0  0  0  0  0  0  0  0  0  0  0
   38.1100   28.5200   43.0840 C   0  0  0  0  0  0  0  0  0  0  0  0
   38.6340   27.3510   43.6300 C   0  0  0  0  0  0  0  0  0  0  0  0
   38.9080   26.3420   42.8010 N   0  0  0  0  0  0  0  0  0  0  0  0
   38.7000   26.4110   41.4860 C   0  0  0  0  0  0  0  0  0  0  0  0
   38.1940   27.5510   40.9900 N   0  0  0  0  0  0  0  0  0  0  0  0
   37.8920   29.3320   43.7650 H   0  0  0  0  0  0  0  0  0  0  0  0
   38.8090   27.2800   44.6950 H   0  0  0  0  0  0  0  0  0  0  0  0
   36.6470   24.2870   41.5510 Cl  0  0  0  0  0  0  0  0  0  0  0  0
   38.0980   24.2340   40.5470 C   0  0  0  0  0  0  0  0  0  0  0  0
   39.0080   25.2870   40.5870 C   0  0  0  0  0  0  0  0  0  0  0  0
   40.1640   25.3200   39.8340 C   0  0  0  0  0  0  0  0  0  0  0  0
   40.8460   26.1530   39.8900 H   0  0  0  0  0  0  0  0  0  0  0  0
   40.4270   24.2370   38.9890 C   0  0  0  0  0  0  0  0  0  0  0  0
   41.3300   24.2110   38.3680 H   0  0  0  0  0  0  0  0  0  0  0  0
   39.5450   23.1830   38.9290 C   0  0  0  0  0  0  0  0  0  0  0  0
   39.6820   22.3120   38.3010 H   0  0  0  0  0  0  0  0  0  0  0  0
   38.3940   23.1740   39.6950 C   0  0  0  0  0  0  0  0  0  0  0  0
   37.2000   21.8760   39.6950 Cl  0  0  0  0  0  0  0  0  0  0  0  0
   38.0860   30.4250   40.1870 O   0  0  0  0  0  0  0  0  0  0  0  0
   38.0170   31.8340   40.0490 C   0  0  0  0  0  0  0  0  0  0  0  0
   37.1490   32.6480   39.3050 C   0  0  0  0  0  0  0  0  0  0  0  0
   37.5010   33.9720   39.5090 C   0  0  0  0  0  0  0  0  0  0  0  0
   38.5570   33.8980   40.3600 C   0  0  0  0  0  0  0  0  0  0  0  0
   38.8580   32.6480   40.6750 O   0  0  0  0  0  0  0  0  0  0  0  0
   36.3670   32.2060   38.7050 H   0  0  0  0  0  0  0  0  0  0  0  0
   37.0000   34.8120   39.0580 H   0  0  0  0  0  0  0  0  0  0  0  0
   39.2930   35.0740   40.8760 C   0  0  2  0  0  0  0  0  0  0  0  0
   39.5670   36.2230   40.0170 C   0  0  0  0  0  0  0  0  0  0  0  0
   40.6850   35.2640   40.2130 C   0  0  1  0  0  0  0  0  0  0  0  0
   39.2890   35.1400   41.9840 H   0  0  0  0  0  0  0  0  0  0  0  0
   39.0590   36.2940   39.0230 H   0  0  0  0  0  0  0  0  0  0  0  0
   39.6460   37.2420   40.4780 H   0  0  0  0  0  0  0  0  0  0  0  0
   40.9730   34.5340   39.4610 H   0  0  0  0  0  0  0  0  0  0  0  0
   42.7830   34.7930   41.4630 C   0  0  0  0  0  0  0  0  0  0  0  0
   42.8910   33.6410   40.9510 O   0  0  0  0  0  0  0  0  0  0  0  0
   41.7090   35.6730   41.1710 N   0  0  0  0  0  0  0  0  0  0  0  0
   43.5520   35.1280   42.1660 H   0  0  0  0  0  0  0  0  0  0  0  0
   41.6380   36.6090   41.6290 H   0  0  0  0  0  0  0  0  0  0  0  0
  1  2  2  0  0  0  0
  1  3  1  0  0  0  0
  3  4  1  0  0  0  0
  4  5  2  0  0  0  0
  4  9  1  0  0  0  0
  5 10  1  0  0  0  0
  6  5  1  0  0  0  0
  7  6  2  0  0  0  0
  8  7  1  0  0  0  0
  8  3  2  0  0  0  0
 12 13  1  0  0  0  0
 12 11  1  0  0  0  0
 13  7  1  0  0  0  0
 14 15  1  0  0  0  0
 14 13  2  0  0  0  0
 16 14  1  0  0  0  0
 17 16  1  0  0  0  0
 18 16  2  0  0  0  0
 18 20  1  0  0  0  0
 19 18  1  0  0  0  0
 20 12  2  0  0  0  0
 21 20  1  0  0  0  0
 22  1  1  0  0  0  0
 23 22  1  0  0  0  0
 23 27  1  0  0  0  0
 24 25  1  0  0  0  0
 24 23  2  0  0  0  0
 25 26  2  0  0  0  0
 26 27  1  0  0  0  0
 26 30  1  0  0  0  0
 28 24  1  0  0  0  0
 29 25  1  0  0  0  0
 30 33  1  1  0  0  0
 31 32  1  0  0  0  0
 31 35  1  0  0  0  0
 31 30  1  0  0  0  0
 32 36  1  6  0  0  0
 32 30  1  0  0  0  0
 32 39  1  0  0  0  0
 34 31  1  0  0  0  0
 37 40  1  0  0  0  0
 38 37  2  0  0  0  0
 39 37  1  0  0  0  0
 39 41  1  0  0  0  0
M  END
>  <minimizedAffinity>
-6.37024546

$$$$

 OpenBabel03242518413D

 41 44  0  0  1  0  0  0  0  0999 V2000
   36.4370   29.6570   41.1370 C   0  0  0  0  0  0  0  0  0  0  0  0
   35.4380   28.9230   41.0250 O   0  0  0  0  0  0  0  0  0  0  0  0
   36.9950   30.5340   40.1580 C   0  0  0  0  0  0  0  0  0  0  0  0
   36.7020   30.2430   38.8570 C   0  0  0  0  0  0  0  0  0  0  0  0
   37.2150   31.0590   37.8530 C   0  0  0  0  0  0  0  0  0  0  0  0
   37.9740   32.0950   38.2150 N   0  0  0  0  0  0  0  0  0  0  0  0
   38.2570   32.3730   39.4880 C   0  0  0  0  0  0  0  0  0  0  0  0
   37.7480   31.5670   40.4330 N   0  0  0  0  0  0  0  0  0  0  0  0
   36.0880   29.4050   38.5530 H   0  0  0  0  0  0  0  0  0  0  0  0
   36.9950   30.8470   36.8150 H   0  0  0  0  0  0  0  0  0  0  0  0
   41.1130   31.6700   39.7680 Cl  0  0  0  0  0  0  0  0  0  0  0  0
   40.4600   33.2900   40.0260 C   0  0  0  0  0  0  0  0  0  0  0  0
   39.0960   33.5200   39.8690 C   0  0  0  0  0  0  0  0  0  0  0  0
   38.5090   34.7550   40.0540 C   0  0  0  0  0  0  0  0  0  0  0  0
   37.4480   34.8970   39.9240 H   0  0  0  0  0  0  0  0  0  0  0  0
   39.3340   35.8250   40.4150 C   0  0  0  0  0  0  0  0  0  0  0  0
   38.9210   36.8280   40.5740 H   0  0  0  0  0  0  0  0  0  0  0  0
   40.6860   35.6270   40.5770 C   0  0  0  0  0  0  0  0  0  0  0  0
   41.3850   36.4040   40.8550 H   0  0  0  0  0  0  0  0  0  0  0  0
   41.2480   34.3780   40.3870 C   0  0  0  0  0  0  0  0  0  0  0  0
   42.9650   34.0140   40.5680 Cl  0  0  0  0  0  0  0  0  0  0  0  0
   37.1090   29.6200   42.3900 O   0  0  0  0  0  0  0  0  0  0  0  0
   38.3860   29.0080   42.4560 C   0  0  0  0  0  0  0  0  0  0  0  0
   39.6610   29.5520   42.6730 C   0  0  0  0  0  0  0  0  0  0  0  0
   40.5910   28.5250   42.6430 C   0  0  0  0  0  0  0  0  0  0  0  0
   39.8400   27.4170   42.4120 C   0  0  0  0  0  0  0  0  0  0  0  0
   38.5520   27.7000   42.3030 O   0  0  0  0  0  0  0  0  0  0  0  0
   39.7830   30.6140   42.8270 H   0  0  0  0  0  0  0  0  0  0  0  0
   41.6510   28.6590   42.7820 H   0  0  0  0  0  0  0  0  0  0  0  0
   40.3930   26.0480   42.2910 C   0  0  2  0  0  0  0  0  0  0  0  0
   39.9460   24.9790   43.1800 C   0  0  0  0  0  0  0  0  0  0  0  0
   41.2420   25.6210   43.5200 C   0  0  1  0  0  0  0  0  0  0  0  0
   40.8640   25.8540   41.3060 H   0  0  0  0  0  0  0  0  0  0  0  0
   39.0500   25.1480   43.8290 H   0  0  0  0  0  0  0  0  0  0  0  0
   39.9510   23.9220   42.8060 H   0  0  0  0  0  0  0  0  0  0  0  0
   41.3450   26.3480   44.3220 H   0  0  0  0  0  0  0  0  0  0  0  0
   43.7190   25.4170   43.4190 C   0  0  0  0  0  0  0  0  0  0  0  0
   43.8860   26.5460   43.9640 O   0  0  0  0  0  0  0  0  0  0  0  0
   42.4380   24.8730   43.1410 N   0  0  0  0  0  0  0  0  0  0  0  0
   44.6010   24.8290   43.1470 H   0  0  0  0  0  0  0  0  0  0  0  0
   42.3340   23.9470   42.6690 H   0  0  0  0  0  0  0  0  0  0  0  0
  1 22  1  0  0  0  0
  2  1  2  0  0  0  0
  3  8  1  0  0  0  0
  3  1  1  0  0  0  0
  4  3  2  0  0  0  0
  5  6  2  0  0  0  0
  5  4  1  0  0  0  0
  6  7  1  0  0  0  0
  7 13  1  0  0  0  0
  7  8  2  0  0  0  0
  9  4  1  0  0  0  0
 10  5  1  0  0  0  0
 11 12  1  0  0  0  0
 12 20  1  0  0  0  0
 13 12  2  0  0  0  0
 13 14  1  0  0  0  0
 14 16  2  0  0  0  0
 15 14  1  0  0  0  0
 16 17  1  0  0  0  0
 16 18  1  0  0  0  0
 18 19  1  0  0  0  0
 20 21  1  0  0  0  0
 20 18  2  0  0  0  0
 22 23  1  0  0  0  0
 23 24  2  0  0  0  0
 24 28  1  0  0  0  0
 25 24  1  0  0  0  0
 25 29  1  0  0  0  0
 26 25  2  0  0  0  0
 27 26  1  0  0  0  0
 27 23  1  0  0  0  0
 30 33  1  6  0  0  0
 30 26  1  0  0  0  0
 30 31  1  0  0  0  0
 30 32  1  0  0  0  0
 31 32  1  0  0  0  0
 31 34  1  0  0  0  0
 32 36  1  1  0  0  0
 35 31  1  0  0  0  0
 37 38  2  0  0  0  0
 39 37  1  0  0  0  0
 39 32  1  0  0  0  0
 40 37  1  0  0  0  0
 41 39  1  0  0  0  0
M  END
>  <minimizedAffinity>
-6.34868526

$$$$

 OpenBabel03242518413D

 41 44  0  0  1  0  0  0  0  0999 V2000
   38.1710   32.4280   39.6770 C   0  0  0  0  0  0  0  0  0  0  0  0
   37.8770   31.8290   38.6260 O   0  0  0  0  0  0  0  0  0  0  0  0
   39.0590   33.5340   39.8370 C   0  0  0  0  0  0  0  0  0  0  0  0
   38.4720   34.7590   39.9670 C   0  0  0  0  0  0  0  0  0  0  0  0
   39.2820   35.8810   40.1270 C   0  0  0  0  0  0  0  0  0  0  0  0
   40.6040   35.7000   40.1450 N   0  0  0  0  0  0  0  0  0  0  0  0
   41.1710   34.4990   40.0170 C   0  0  0  0  0  0  0  0  0  0  0  0
   40.3630   33.4390   39.8650 N   0  0  0  0  0  0  0  0  0  0  0  0
   37.4020   34.9170   39.9530 H   0  0  0  0  0  0  0  0  0  0  0  0
   38.8380   36.8620   40.2320 H   0  0  0  0  0  0  0  0  0  0  0  0
   42.3050   33.9350   37.3470 Cl  0  0  0  0  0  0  0  0  0  0  0  0
   43.2600   34.0480   38.8270 C   0  0  0  0  0  0  0  0  0  0  0  0
   42.6310   34.3190   40.0400 C   0  0  0  0  0  0  0  0  0  0  0  0
   43.3060   34.4220   41.2380 C   0  0  0  0  0  0  0  0  0  0  0  0
   42.7860   34.6330   42.1590 H   0  0  0  0  0  0  0  0  0  0  0  0
   44.6940   34.2460   41.2260 C   0  0  0  0  0  0  0  0  0  0  0  0
   45.2800   34.3170   42.1490 H   0  0  0  0  0  0  0  0  0  0  0  0
   45.3420   33.9770   40.0430 C   0  0  0  0  0  0  0  0  0  0  0  0
   46.4100   33.8290   39.9560 H   0  0  0  0  0  0  0  0  0  0  0  0
   44.6410   33.8780   38.8550 C   0  0  0  0  0  0  0  0  0  0  0  0
   45.3710   33.5390   37.2860 Cl  0  0  0  0  0  0  0  0  0  0  0  0
   37.5480   31.9570   40.8660 O   0  0  0  0  0  0  0  0  0  0  0  0
   38.1900   30.9310   41.6050 C   0  0  0  0  0  0  0  0  0  0  0  0
   39.5100   30.8110   42.0640 C   0  0  0  0  0  0  0  0  0  0  0  0
   39.6350   29.6080   42.7410 C   0  0  0  0  0  0  0  0  0  0  0  0
   38.3930   29.0630   42.6620 C   0  0  0  0  0  0  0  0  0  0  0  0
   37.5490   29.8370   41.9980 O   0  0  0  0  0  0  0  0  0  0  0  0
   40.2300   31.5900   41.8640 H   0  0  0  0  0  0  0  0  0  0  0  0
   40.5450   29.2590   43.2000 H   0  0  0  0  0  0  0  0  0  0  0  0
   38.0210   27.7530   43.2440 C   0  0  2  0  0  0  0  0  0  0  0  0
   39.0430   26.7660   43.5820 C   0  0  0  0  0  0  0  0  0  0  0  0
   38.3210   26.5570   42.3000 C   0  0  1  0  0  0  0  0  0  0  0  0
   37.0080   27.7500   43.6980 H   0  0  0  0  0  0  0  0  0  0  0  0
   40.1190   27.0720   43.5750 H   0  0  0  0  0  0  0  0  0  0  0  0
   38.8540   26.0550   44.4280 H   0  0  0  0  0  0  0  0  0  0  0  0
   38.7590   26.7920   41.3340 H   0  0  0  0  0  0  0  0  0  0  0  0
   37.5730   24.2080   41.9680 C   0  0  0  0  0  0  0  0  0  0  0  0
   38.7250   23.8390   41.5960 O   0  0  0  0  0  0  0  0  0  0  0  0
   37.2670   25.5470   42.3250 N   0  0  0  0  0  0  0  0  0  0  0  0
   36.7730   23.4630   42.0150 H   0  0  0  0  0  0  0  0  0  0  0  0
   36.2990   25.8230   42.6060 H   0  0  0  0  0  0  0  0  0  0  0  0
  1  3  1  0  0  0  0
  1 22  1  0  0  0  0
  2  1  2  0  0  0  0
  3  8  2  0  0  0  0
  3  4  1  0  0  0  0
  4  5  2  0  0  0  0
  5  6  1  0  0  0  0
  5 10  1  0  0  0  0
  7 13  1  0  0  0  0
  7  6  2  0  0  0  0
  8  7  1  0  0  0  0
  9  4  1  0  0  0  0
 11 12  1  0  0  0  0
 12 20  2  0  0  0  0
 12 13  1  0  0  0  0
 13 14  2  0  0  0  0
 14 15  1  0  0  0  0
 16 14  1  0  0  0  0
 16 17  1  0  0  0  0
 18 16  2  0  0  0  0
 19 18  1  0  0  0  0
 20 18  1  0  0  0  0
 21 20  1  0  0  0  0
 22 23  1  0  0  0  0
 23 27  1  0  0  0  0
 23 24  2  0  0  0  0
 24 25  1  0  0  0  0
 25 29  1  0  0  0  0
 26 25  2  0  0  0  0
 26 30  1  0  0  0  0
 27 26  1  0  0  0  0
 28 24  1  0  0  0  0
 30 31  1  0  0  0  0
 30 33  1  1  0  0  0
 31 35  1  0  0  0  0
 32 36  1  6  0  0  0
 32 39  1  0  0  0  0
 32 30  1  0  0  0  0
 32 31  1  0  0  0  0
 34 31  1  0  0  0  0
 37 40  1  0  0  0  0
 37 39  1  0  0  0  0
 38 37  2  0  0  0  0
 39 41  1  0  0  0  0
M  END
>  <minimizedAffinity>
-6.26699352

$$$$

 OpenBabel03242518413D

 41 44  0  0  1  0  0  0  0  0999 V2000
   37.4420   31.9480   39.6240 C   0  0  0  0  0  0  0  0  0  0  0  0
   37.5010   32.3890   38.4610 O   0  0  0  0  0  0  0  0  0  0  0  0
   37.1240   30.6200   40.0430 C   0  0  0  0  0  0  0  0  0  0  0  0
   35.8000   30.3560   40.2390 C   0  0  0  0  0  0  0  0  0  0  0  0
   35.4210   29.0800   40.6490 C   0  0  0  0  0  0  0  0  0  0  0  0
   36.3810   28.1710   40.8300 N   0  0  0  0  0  0  0  0  0  0  0  0
   37.6740   28.4370   40.6370 C   0  0  0  0  0  0  0  0  0  0  0  0
   38.0060   29.6760   40.2430 N   0  0  0  0  0  0  0  0  0  0  0  0
   35.0140   31.0850   40.0950 H   0  0  0  0  0  0  0  0  0  0  0  0
   34.3770   28.8490   40.8100 H   0  0  0  0  0  0  0  0  0  0  0  0
   38.4940   28.1820   43.4640 Cl  0  0  0  0  0  0  0  0  0  0  0  0
   39.1730   27.2270   42.1440 C   0  0  0  0  0  0  0  0  0  0  0  0
   38.7190   27.4220   40.8420 C   0  0  0  0  0  0  0  0  0  0  0  0
   39.1990   26.7170   39.7580 C   0  0  0  0  0  0  0  0  0  0  0  0
   38.8230   26.8950   38.7620 H   0  0  0  0  0  0  0  0  0  0  0  0
   40.1920   25.7590   39.9860 C   0  0  0  0  0  0  0  0  0  0  0  0
   40.6090   25.1700   39.1610 H   0  0  0  0  0  0  0  0  0  0  0  0
   40.6600   25.5450   41.2620 C   0  0  0  0  0  0  0  0  0  0  0  0
   41.4250   24.8230   41.5150 H   0  0  0  0  0  0  0  0  0  0  0  0
   40.1610   26.2660   42.3320 C   0  0  0  0  0  0  0  0  0  0  0  0
   40.6890   26.0720   44.0040 Cl  0  0  0  0  0  0  0  0  0  0  0  0
   37.7230   32.8750   40.6650 O   0  0  0  0  0  0  0  0  0  0  0  0
   38.8140   33.7650   40.5020 C   0  0  0  0  0  0  0  0  0  0  0  0
   38.8520   35.1510   40.2870 C   0  0  0  0  0  0  0  0  0  0  0  0
   40.1760   35.5490   40.1930 C   0  0  0  0  0  0  0  0  0  0  0  0
   40.8710   34.3930   40.3560 C   0  0  0  0  0  0  0  0  0  0  0  0
   40.0750   33.3520   40.5360 O   0  0  0  0  0  0  0  0  0  0  0  0
   37.9350   35.7180   40.2220 H   0  0  0  0  0  0  0  0  0  0  0  0
   40.4980   36.5630   40.0290 H   0  0  0  0  0  0  0  0  0  0  0  0
   42.3490   34.3020   40.3310 C   0  0  2  0  0  0  0  0  0  0  0  0
   43.0490   33.2750   41.0990 C   0  0  0  0  0  0  0  0  0  0  0  0
   43.0060   34.6340   41.6990 C   0  0  1  0  0  0  0  0  0  0  0  0
   42.8040   34.8130   39.4570 H   0  0  0  0  0  0  0  0  0  0  0  0
   42.4610   32.4420   41.5580 H   0  0  0  0  0  0  0  0  0  0  0  0
   44.0300   32.8860   40.7200 H   0  0  0  0  0  0  0  0  0  0  0  0
   42.3350   34.8960   42.5140 H   0  0  0  0  0  0  0  0  0  0  0  0
   45.0520   35.6440   42.6880 C   0  0  0  0  0  0  0  0  0  0  0  0
   44.7770   35.2000   43.8400 O   0  0  0  0  0  0  0  0  0  0  0  0
   44.2230   35.4280   41.5570 N   0  0  0  0  0  0  0  0  0  0  0  0
   45.9710   36.2230   42.5540 H   0  0  0  0  0  0  0  0  0  0  0  0
   44.4680   35.8280   40.6230 H   0  0  0  0  0  0  0  0  0  0  0  0
  1  3  1  0  0  0  0
  1 22  1  0  0  0  0
  2  1  2  0  0  0  0
  3  4  2  0  0  0  0
  3  8  1  0  0  0  0
  4  5  1  0  0  0  0
  5 10  1  0  0  0  0
  5  6  2  0  0  0  0
  7  6  1  0  0  0  0
  7 13  1  0  0  0  0
  8  7  2  0  0  0  0
  9  4  1  0  0  0  0
 12 20  1  0  0  0  0
 12 11  1  0  0  0  0
 13 12  2  0  0  0  0
 14 16  2  0  0  0  0
 14 13  1  0  0  0  0
 15 14  1  0  0  0  0
 16 18  1  0  0  0  0
 17 16  1  0  0  0  0
 18 19  1  0  0  0  0
 18 20  2  0  0  0  0
 20 21  1  0  0  0  0
 23 27  1  0  0  0  0
 23 22  1  0  0  0  0
 24 23  2  0  0  0  0
 25 24  1  0  0  0  0
 25 26  2  0  0  0  0
 26 27  1  0  0  0  0
 28 24  1  0  0  0  0
 29 25  1  0  0  0  0
 30 33  1  6  0  0  0
 30 26  1  0  0  0  0
 30 31  1  0  0  0  0
 30 32  1  0  0  0  0
 31 34  1  0  0  0  0
 31 32  1  0  0  0  0
 32 36  1  1  0  0  0
 35 31  1  0  0  0  0
 37 38  2  0  0  0  0
 39 32  1  0  0  0  0
 39 37  1  0  0  0  0
 40 37  1  0  0  0  0
 41 39  1  0  0  0  0
M  END
>  <minimizedAffinity>
-6.19320154

$$$$
