
 OpenBabel03252506533D

 33 36  0  0  0  0  0  0  0  0999 V2000
   47.1320   31.3330   45.1510 C   0  0  0  0  0  0  0  0  0  0  0  0
   46.8210   32.6880   45.1740 C   0  0  0  0  0  0  0  0  0  0  0  0
   46.2610   33.3160   46.2860 C   0  0  0  0  0  0  0  0  0  0  0  0
   45.9980   32.5630   47.4280 C   0  0  0  0  0  0  0  0  0  0  0  0
   45.4730   32.8260   48.6610 N   0  0  0  0  0  0  0  0  0  0  0  0
   45.4600   31.6710   49.3780 C   0  0  0  0  0  0  0  0  0  0  0  0
   45.9810   30.7000   48.5710 N   0  0  0  0  0  0  0  0  0  0  0  0
   46.3120   31.2280   47.3830 C   0  0  0  0  0  0  0  0  0  0  0  0
   46.8620   30.5870   46.3040 C   0  0  0  0  0  0  0  0  0  0  0  0
   47.5640   30.9050   44.2600 H   0  0  0  0  0  0  0  0  0  0  0  0
   46.0240   34.3700   46.2920 H   0  0  0  0  0  0  0  0  0  0  0  0
   45.1460   33.7670   48.9730 H   0  0  0  0  0  0  0  0  0  0  0  0
   45.1060   31.5580   50.3790 H   0  0  0  0  0  0  0  0  0  0  0  0
   44.5200   28.9000   45.6870 Cl  0  0  0  0  0  0  0  0  0  0  0  0
   46.1520   28.2910   45.9930 C   0  0  0  0  0  0  0  0  0  0  0  0
   47.1910   29.1640   46.2760 C   0  0  0  0  0  0  0  0  0  0  0  0
   48.4570   28.6710   46.5120 C   0  0  0  0  0  0  0  0  0  0  0  0
   49.2620   29.3590   46.7310 H   0  0  0  0  0  0  0  0  0  0  0  0
   48.6270   27.3110   46.4540 C   0  0  0  0  0  0  0  0  0  0  0  0
   49.6470   26.9470   46.6460 H   0  0  0  0  0  0  0  0  0  0  0  0
   47.6250   26.4010   46.1760 C   0  0  0  0  0  0  0  0  0  0  0  0
   47.9050   25.3480   46.1620 H   0  0  0  0  0  0  0  0  0  0  0  0
   46.3710   26.9430   45.9450 C   0  0  0  0  0  0  0  0  0  0  0  0
   45.0870   25.7960   45.5910 Cl  0  0  0  0  0  0  0  0  0  0  0  0
   46.4470   35.1980   42.5170 C   0  0  0  0  0  0  0  0  0  0  0  0
   47.6220   35.0270   41.7730 C   0  0  0  0  0  0  0  0  0  0  0  0
   48.5350   34.0500   42.1890 C   0  0  0  0  0  0  0  0  0  0  0  0
   48.2290   33.3140   43.3030 N   0  0  0  0  0  0  0  0  0  0  0  0
   47.0820   33.5040   44.0020 C   0  0  0  0  0  0  0  0  0  0  0  0
   46.2150   34.4340   43.6040 N   0  0  0  0  0  0  0  0  0  0  0  0
   45.6900   35.9280   42.2660 H   0  0  0  0  0  0  0  0  0  0  0  0
   47.7950   35.6430   40.9070 H   0  0  0  0  0  0  0  0  0  0  0  0
   49.4510   33.8900   41.6390 H   0  0  0  0  0  0  0  0  0  0  0  0
  1  2  2  0  0  0  0
  1  9  1  0  0  0  0
  2  3  1  0  0  0  0
  3 11  1  0  0  0  0
  3  4  2  0  0  0  0
  4  5  1  0  0  0  0
  5 12  1  0  0  0  0
  5  6  1  0  0  0  0
  6 13  1  0  0  0  0
  7  6  2  0  0  0  0
  8  4  1  0  0  0  0
  8  7  1  0  0  0  0
  9  8  2  0  0  0  0
 10  1  1  0  0  0  0
 14 15  1  0  0  0  0
 15 16  1  0  0  0  0
 16  9  1  0  0  0  0
 16 17  2  0  0  0  0
 17 18  1  0  0  0  0
 19 17  1  0  0  0  0
 19 20  1  0  0  0  0
 21 19  2  0  0  0  0
 22 21  1  0  0  0  0
 23 15  2  0  0  0  0
 23 21  1  0  0  0  0
 24 23  1  0  0  0  0
 25 30  1  0  0  0  0
 26 27  1  0  0  0  0
 26 25  2  0  0  0  0
 27 28  2  0  0  0  0
 28 29  1  0  0  0  0
 29  2  1  0  0  0  0
 30 29  2  0  0  0  0
 31 25  1  0  0  0  0
 32 26  1  0  0  0  0
 33 27  1  0  0  0  0
M  END
>  <minimizedAffinity>
-5.46996832

>  <minimizedRMSD>
0.154515028

$$$$
