
 OpenBabel03242514043D

 29 31  0  0  0  0  0  0  0  0999 V2000
   39.5420   32.4010   40.4570 C   0  0  0  0  0  0  0  0  0  0  0  0
   38.5060   33.1480   39.9090 C   0  0  0  0  0  0  0  0  0  0  0  0
   37.1820   32.7510   39.9270 C   0  0  0  0  0  0  0  0  0  0  0  0
   36.9570   31.5130   40.5510 C   0  0  0  0  0  0  0  0  0  0  0  0
   37.9860   30.7650   41.0980 C   0  0  0  0  0  0  0  0  0  0  0  0
   39.2600   31.2310   41.0370 N   0  0  0  0  0  0  0  0  0  0  0  0
   38.7680   34.0900   39.4480 H   0  0  0  0  0  0  0  0  0  0  0  0
   36.3840   33.3370   39.4980 H   0  0  0  0  0  0  0  0  0  0  0  0
   35.9380   31.1820   40.5770 H   0  0  0  0  0  0  0  0  0  0  0  0
   37.5640   28.4950   39.2260 Cl  0  0  0  0  0  0  0  0  0  0  0  0
   37.5290   28.3470   40.9880 C   0  0  0  0  0  0  0  0  0  0  0  0
   37.7410   29.4810   41.7440 C   0  0  0  0  0  0  0  0  0  0  0  0
   37.6970   29.2780   43.1040 C   0  0  0  0  0  0  0  0  0  0  0  0
   37.8540   30.1170   43.7600 H   0  0  0  0  0  0  0  0  0  0  0  0
   37.4620   28.0460   43.6790 C   0  0  0  0  0  0  0  0  0  0  0  0
   37.4440   27.9700   44.7750 H   0  0  0  0  0  0  0  0  0  0  0  0
   37.2570   26.9440   42.8760 C   0  0  0  0  0  0  0  0  0  0  0  0
   37.0750   25.9910   43.3510 H   0  0  0  0  0  0  0  0  0  0  0  0
   37.2890   27.0910   41.5050 C   0  0  0  0  0  0  0  0  0  0  0  0
   37.0330   25.7160   40.4530 Cl  0  0  0  0  0  0  0  0  0  0  0  0
   42.5670   34.1600   39.3620 C   0  0  0  0  0  0  0  0  0  0  0  0
   43.4970   33.8180   40.3470 C   0  0  0  0  0  0  0  0  0  0  0  0
   43.0730   32.9830   41.3810 C   0  0  0  0  0  0  0  0  0  0  0  0
   41.7710   32.5400   41.3810 N   0  0  0  0  0  0  0  0  0  0  0  0
   40.9070   32.9000   40.4000 C   0  0  0  0  0  0  0  0  0  0  0  0
   41.2870   33.6930   39.4080 N   0  0  0  0  0  0  0  0  0  0  0  0
   42.9180   34.8160   38.5600 H   0  0  0  0  0  0  0  0  0  0  0  0
   44.5110   34.1950   40.3020 H   0  0  0  0  0  0  0  0  0  0  0  0
   43.7590   32.6930   42.1650 H   0  0  0  0  0  0  0  0  0  0  0  0
  1  6  1  0  0  0  0
  2  3  1  0  0  0  0
  2  1  2  0  0  0  0
  3  4  2  0  0  0  0
  4  9  1  0  0  0  0
  4  5  1  0  0  0  0
  5 12  1  0  0  0  0
  6  5  2  0  0  0  0
  7  2  1  0  0  0  0
  8  3  1  0  0  0  0
 10 11  1  0  0  0  0
 11 19  2  0  0  0  0
 11 12  1  0  0  0  0
 12 13  2  0  0  0  0
 13 15  1  0  0  0  0
 13 14  1  0  0  0  0
 15 16  1  0  0  0  0
 17 18  1  0  0  0  0
 17 15  2  0  0  0  0
 19 17  1  0  0  0  0
 20 19  1  0  0  0  0
 21 26  2  0  0  0  0
 21 22  1  0  0  0  0
 22 23  2  0  0  0  0
 23 24  1  0  0  0  0
 23 29  1  0  0  0  0
 25  1  1  0  0  0  0
 25 24  2  0  0  0  0
 26 25  1  0  0  0  0
 27 21  1  0  0  0  0
 28 22  1  0  0  0  0
M  END
>  <minimizedAffinity>
-5.42170715

$$$$

 OpenBabel03242514043D

 29 31  0  0  0  0  0  0  0  0999 V2000
   39.1660   31.5540   39.1190 C   0  0  0  0  0  0  0  0  0  0  0  0
   38.1760   32.5220   39.0010 C   0  0  0  0  0  0  0  0  0  0  0  0
   36.9740   32.4770   39.6810 C   0  0  0  0  0  0  0  0  0  0  0  0
   36.8230   31.3570   40.5170 C   0  0  0  0  0  0  0  0  0  0  0  0
   37.8070   30.3890   40.6370 C   0  0  0  0  0  0  0  0  0  0  0  0
   38.9600   30.5130   39.9310 N   0  0  0  0  0  0  0  0  0  0  0  0
   38.3750   33.3510   38.3370 H   0  0  0  0  0  0  0  0  0  0  0  0
   36.2100   33.2330   39.5830 H   0  0  0  0  0  0  0  0  0  0  0  0
   35.8990   31.2970   41.0550 H   0  0  0  0  0  0  0  0  0  0  0  0
   37.1580   27.8570   39.2220 Cl  0  0  0  0  0  0  0  0  0  0  0  0
   37.3360   27.9940   40.9750 C   0  0  0  0  0  0  0  0  0  0  0  0
   37.6400   29.2310   41.5070 C   0  0  0  0  0  0  0  0  0  0  0  0
   37.7610   29.2500   42.8770 C   0  0  0  0  0  0  0  0  0  0  0  0
   37.9970   30.1800   43.3650 H   0  0  0  0  0  0  0  0  0  0  0  0
   37.5950   28.1320   43.6680 C   0  0  0  0  0  0  0  0  0  0  0  0
   37.7100   28.2330   44.7560 H   0  0  0  0  0  0  0  0  0  0  0  0
   37.2930   26.9190   43.0850 C   0  0  0  0  0  0  0  0  0  0  0  0
   37.1680   26.0590   43.7260 H   0  0  0  0  0  0  0  0  0  0  0  0
   37.1590   26.8440   41.7140 C   0  0  0  0  0  0  0  0  0  0  0  0
   36.7750   25.3230   40.9370 Cl  0  0  0  0  0  0  0  0  0  0  0  0
   42.1950   30.7370   37.2210 C   0  0  0  0  0  0  0  0  0  0  0  0
   42.7420   31.9960   36.9560 C   0  0  0  0  0  0  0  0  0  0  0  0
   42.0610   33.1160   37.4350 C   0  0  0  0  0  0  0  0  0  0  0  0
   40.8940   32.9290   38.1390 N   0  0  0  0  0  0  0  0  0  0  0  0
   40.4060   31.6860   38.3700 C   0  0  0  0  0  0  0  0  0  0  0  0
   41.0350   30.6070   37.9260 N   0  0  0  0  0  0  0  0  0  0  0  0
   42.7430   29.8720   36.8380 H   0  0  0  0  0  0  0  0  0  0  0  0
   43.6640   32.0880   36.3960 H   0  0  0  0  0  0  0  0  0  0  0  0
   42.4480   34.1080   37.2520 H   0  0  0  0  0  0  0  0  0  0  0  0
  1  6  1  0  0  0  0
  2  1  2  0  0  0  0
  2  3  1  0  0  0  0
  3  4  2  0  0  0  0
  4  5  1  0  0  0  0
  4  9  1  0  0  0  0
  5 12  1  0  0  0  0
  6  5  2  0  0  0  0
  7  2  1  0  0  0  0
  8  3  1  0  0  0  0
 10 11  1  0  0  0  0
 11 12  2  0  0  0  0
 11 19  1  0  0  0  0
 12 13  1  0  0  0  0
 13 14  1  0  0  0  0
 13 15  2  0  0  0  0
 15 16  1  0  0  0  0
 17 15  1  0  0  0  0
 17 18  1  0  0  0  0
 19 17  2  0  0  0  0
 20 19  1  0  0  0  0
 21 26  1  0  0  0  0
 22 21  2  0  0  0  0
 22 23  1  0  0  0  0
 23 24  2  0  0  0  0
 24 25  1  0  0  0  0
 25  1  1  0  0  0  0
 26 25  2  0  0  0  0
 27 21  1  0  0  0  0
 28 22  1  0  0  0  0
 29 23  1  0  0  0  0
M  END
>  <minimizedAffinity>
-5.33635616

$$$$

 OpenBabel03242514043D

 29 31  0  0  0  0  0  0  0  0999 V2000
   37.7770   28.6230   41.4840 C   0  0  0  0  0  0  0  0  0  0  0  0
   36.4190   28.6030   41.1950 C   0  0  0  0  0  0  0  0  0  0  0  0
   35.7500   29.6440   40.5790 C   0  0  0  0  0  0  0  0  0  0  0  0
   36.5610   30.7470   40.2610 C   0  0  0  0  0  0  0  0  0  0  0  0
   37.9170   30.7710   40.5480 C   0  0  0  0  0  0  0  0  0  0  0  0
   38.4940   29.7020   41.1550 N   0  0  0  0  0  0  0  0  0  0  0  0
   35.8690   27.7150   41.4720 H   0  0  0  0  0  0  0  0  0  0  0  0
   34.6940   29.6210   40.3590 H   0  0  0  0  0  0  0  0  0  0  0  0
   36.0670   31.5680   39.7840 H   0  0  0  0  0  0  0  0  0  0  0  0
   39.5680   30.4360   38.0990 Cl  0  0  0  0  0  0  0  0  0  0  0  0
   39.5650   31.8930   39.1010 C   0  0  0  0  0  0  0  0  0  0  0  0
   38.7500   31.9200   40.2140 C   0  0  0  0  0  0  0  0  0  0  0  0
   38.8080   33.0890   40.9370 C   0  0  0  0  0  0  0  0  0  0  0  0
   38.1990   33.1850   41.8200 H   0  0  0  0  0  0  0  0  0  0  0  0
   39.6110   34.1560   40.5890 C   0  0  0  0  0  0  0  0  0  0  0  0
   39.5980   35.0540   41.2210 H   0  0  0  0  0  0  0  0  0  0  0  0
   40.4060   34.0760   39.4650 C   0  0  0  0  0  0  0  0  0  0  0  0
   41.0260   34.9250   39.2150 H   0  0  0  0  0  0  0  0  0  0  0  0
   40.3880   32.9260   38.7040 C   0  0  0  0  0  0  0  0  0  0  0  0
   41.3840   32.7880   37.2720 Cl  0  0  0  0  0  0  0  0  0  0  0  0
   38.6080   25.1770   42.4190 C   0  0  0  0  0  0  0  0  0  0  0  0
   39.6180   25.3490   43.3700 C   0  0  0  0  0  0  0  0  0  0  0  0
   40.0040   26.6540   43.6800 C   0  0  0  0  0  0  0  0  0  0  0  0
   39.3770   27.6980   43.0410 N   0  0  0  0  0  0  0  0  0  0  0  0
   38.4010   27.4770   42.1270 C   0  0  0  0  0  0  0  0  0  0  0  0
   38.0180   26.2470   41.8160 N   0  0  0  0  0  0  0  0  0  0  0  0
   38.3200   24.1480   42.1890 H   0  0  0  0  0  0  0  0  0  0  0  0
   40.0810   24.4930   43.8420 H   0  0  0  0  0  0  0  0  0  0  0  0
   40.7820   26.8340   44.4080 H   0  0  0  0  0  0  0  0  0  0  0  0
  1 25  1  0  0  0  0
  2  7  1  0  0  0  0
  2  1  1  0  0  0  0
  3  2  2  0  0  0  0
  4  5  2  0  0  0  0
  4  3  1  0  0  0  0
  5  6  1  0  0  0  0
  6  1  2  0  0  0  0
  8  3  1  0  0  0  0
  9  4  1  0  0  0  0
 10 11  1  0  0  0  0
 11 12  1  0  0  0  0
 12  5  1  0  0  0  0
 12 13  2  0  0  0  0
 13 14  1  0  0  0  0
 15 13  1  0  0  0  0
 15 16  1  0  0  0  0
 17 15  2  0  0  0  0
 18 17  1  0  0  0  0
 19 11  2  0  0  0  0
 19 17  1  0  0  0  0
 20 19  1  0  0  0  0
 21 22  1  0  0  0  0
 22 23  2  0  0  0  0
 22 28  1  0  0  0  0
 23 29  1  0  0  0  0
 24 23  1  0  0  0  0
 25 24  2  0  0  0  0
 26 25  1  0  0  0  0
 26 21  2  0  0  0  0
 27 21  1  0  0  0  0
M  END
>  <minimizedAffinity>
-5.2164669

$$$$

 OpenBabel03242514043D

 29 31  0  0  0  0  0  0  0  0999 V2000
   37.2300   27.0160   41.3860 C   0  0  0  0  0  0  0  0  0  0  0  0
   37.0630   26.8590   42.7560 C   0  0  0  0  0  0  0  0  0  0  0  0
   37.1930   27.8890   43.6680 C   0  0  0  0  0  0  0  0  0  0  0  0
   37.5150   29.1320   43.0970 C   0  0  0  0  0  0  0  0  0  0  0  0
   37.6830   29.2940   41.7310 C   0  0  0  0  0  0  0  0  0  0  0  0
   37.5350   28.2250   40.9060 N   0  0  0  0  0  0  0  0  0  0  0  0
   36.8150   25.8690   43.1120 H   0  0  0  0  0  0  0  0  0  0  0  0
   37.0620   27.7580   44.7310 H   0  0  0  0  0  0  0  0  0  0  0  0
   37.6230   29.9480   43.7830 H   0  0  0  0  0  0  0  0  0  0  0  0
   40.5700   29.9910   41.8290 Cl  0  0  0  0  0  0  0  0  0  0  0  0
   39.3230   31.0310   41.1300 C   0  0  0  0  0  0  0  0  0  0  0  0
   38.0160   30.5880   41.1470 C   0  0  0  0  0  0  0  0  0  0  0  0
   37.1100   31.4560   40.5850 C   0  0  0  0  0  0  0  0  0  0  0  0
   36.0700   31.1780   40.5620 H   0  0  0  0  0  0  0  0  0  0  0  0
   37.4640   32.6740   40.0420 C   0  0  0  0  0  0  0  0  0  0  0  0
   36.6770   33.3080   39.6110 H   0  0  0  0  0  0  0  0  0  0  0  0
   38.7850   33.0680   40.0490 C   0  0  0  0  0  0  0  0  0  0  0  0
   39.0360   34.0270   39.6190 H   0  0  0  0  0  0  0  0  0  0  0  0
   39.7360   32.2360   40.6030 C   0  0  0  0  0  0  0  0  0  0  0  0
   41.4230   32.7030   40.6320 Cl  0  0  0  0  0  0  0  0  0  0  0  0
   36.7940   24.9900   38.3620 C   0  0  0  0  0  0  0  0  0  0  0  0
   36.7620   23.6860   38.8650 C   0  0  0  0  0  0  0  0  0  0  0  0
   36.8920   23.5180   40.2440 C   0  0  0  0  0  0  0  0  0  0  0  0
   37.0420   24.6330   41.0350 N   0  0  0  0  0  0  0  0  0  0  0  0
   37.0650   25.8770   40.4980 C   0  0  0  0  0  0  0  0  0  0  0  0
   36.9440   26.0620   39.1910 N   0  0  0  0  0  0  0  0  0  0  0  0
   36.6920   25.1020   37.2790 H   0  0  0  0  0  0  0  0  0  0  0  0
   36.6430   22.8420   38.1980 H   0  0  0  0  0  0  0  0  0  0  0  0
   36.8730   22.5270   40.6760 H   0  0  0  0  0  0  0  0  0  0  0  0
  1  2  1  0  0  0  0
  2  7  1  0  0  0  0
  2  3  2  0  0  0  0
  3  8  1  0  0  0  0
  4  3  1  0  0  0  0
  4  9  1  0  0  0  0
  5  4  2  0  0  0  0
  6  1  2  0  0  0  0
  6  5  1  0  0  0  0
 11 12  1  0  0  0  0
 11 10  1  0  0  0  0
 12  5  1  0  0  0  0
 13 12  2  0  0  0  0
 14 13  1  0  0  0  0
 15 17  2  0  0  0  0
 15 13  1  0  0  0  0
 16 15  1  0  0  0  0
 17 19  1  0  0  0  0
 18 17  1  0  0  0  0
 19 20  1  0  0  0  0
 19 11  2  0  0  0  0
 21 22  2  0  0  0  0
 21 26  1  0  0  0  0
 22 23  1  0  0  0  0
 23 29  1  0  0  0  0
 23 24  2  0  0  0  0
 25 24  1  0  0  0  0
 25  1  1  0  0  0  0
 26 25  2  0  0  0  0
 27 21  1  0  0  0  0
 28 22  1  0  0  0  0
M  END
>  <minimizedAffinity>
-5.18751097

$$$$

 OpenBabel03242514043D

 29 31  0  0  0  0  0  0  0  0999 V2000
   38.3170   30.6170   39.9900 C   0  0  0  0  0  0  0  0  0  0  0  0
   37.1920   31.3010   40.4310 C   0  0  0  0  0  0  0  0  0  0  0  0
   36.1140   30.6900   41.0440 C   0  0  0  0  0  0  0  0  0  0  0  0
   36.2430   29.2980   41.1910 C   0  0  0  0  0  0  0  0  0  0  0  0
   37.3630   28.6120   40.7520 C   0  0  0  0  0  0  0  0  0  0  0  0
   38.3780   29.2930   40.1590 N   0  0  0  0  0  0  0  0  0  0  0  0
   37.1740   32.3710   40.2800 H   0  0  0  0  0  0  0  0  0  0  0  0
   35.2430   31.2290   41.3840 H   0  0  0  0  0  0  0  0  0  0  0  0
   35.4200   28.8000   41.6630 H   0  0  0  0  0  0  0  0  0  0  0  0
   39.2440   27.7530   42.8880 Cl  0  0  0  0  0  0  0  0  0  0  0  0
   38.3290   26.6380   41.8650 C   0  0  0  0  0  0  0  0  0  0  0  0
   37.4880   27.1680   40.9090 C   0  0  0  0  0  0  0  0  0  0  0  0
   36.8150   26.2330   40.1570 C   0  0  0  0  0  0  0  0  0  0  0  0
   36.1400   26.5700   39.3890 H   0  0  0  0  0  0  0  0  0  0  0  0
   36.9590   24.8720   40.3340 C   0  0  0  0  0  0  0  0  0  0  0  0
   36.3840   24.1920   39.6910 H   0  0  0  0  0  0  0  0  0  0  0  0
   37.8140   24.3950   41.3070 C   0  0  0  0  0  0  0  0  0  0  0  0
   37.9090   23.3260   41.4250 H   0  0  0  0  0  0  0  0  0  0  0  0
   38.5140   25.2900   42.0880 C   0  0  0  0  0  0  0  0  0  0  0  0
   39.6090   24.7230   43.3310 Cl  0  0  0  0  0  0  0  0  0  0  0  0
   41.3850   32.5660   39.5100 C   0  0  0  0  0  0  0  0  0  0  0  0
   41.4540   32.6980   38.1210 C   0  0  0  0  0  0  0  0  0  0  0  0
   40.4400   32.1130   37.3610 C   0  0  0  0  0  0  0  0  0  0  0  0
   39.4310   31.4420   38.0100 N   0  0  0  0  0  0  0  0  0  0  0  0
   39.4100   31.3430   39.3620 C   0  0  0  0  0  0  0  0  0  0  0  0
   40.3620   31.8900   40.1050 N   0  0  0  0  0  0  0  0  0  0  0  0
   42.1890   33.0300   40.0890 H   0  0  0  0  0  0  0  0  0  0  0  0
   42.2710   33.2360   37.6580 H   0  0  0  0  0  0  0  0  0  0  0  0
   40.4530   32.1900   36.2820 H   0  0  0  0  0  0  0  0  0  0  0  0
  1  6  2  0  0  0  0
  1  2  1  0  0  0  0
  2  3  2  0  0  0  0
  3  4  1  0  0  0  0
  3  8  1  0  0  0  0
  4  9  1  0  0  0  0
  5 12  1  0  0  0  0
  5  4  2  0  0  0  0
  6  5  1  0  0  0  0
  7  2  1  0  0  0  0
 11 19  1  0  0  0  0
 11 10  1  0  0  0  0
 12 11  2  0  0  0  0
 13 15  2  0  0  0  0
 13 12  1  0  0  0  0
 14 13  1  0  0  0  0
 15 17  1  0  0  0  0
 16 15  1  0  0  0  0
 17 18  1  0  0  0  0
 17 19  2  0  0  0  0
 19 20  1  0  0  0  0
 21 27  1  0  0  0  0
 21 26  1  0  0  0  0
 22 21  2  0  0  0  0
 23 24  2  0  0  0  0
 23 22  1  0  0  0  0
 24 25  1  0  0  0  0
 25  1  1  0  0  0  0
 25 26  2  0  0  0  0
 28 22  1  0  0  0  0
 29 23  1  0  0  0  0
M  END
>  <minimizedAffinity>
-5.13553047

$$$$

 OpenBabel03242514043D

 29 31  0  0  0  0  0  0  0  0999 V2000
   37.8800   30.8110   38.9800 C   0  0  0  0  0  0  0  0  0  0  0  0
   36.9320   30.8150   37.9640 C   0  0  0  0  0  0  0  0  0  0  0  0
   35.9360   29.8650   37.8410 C   0  0  0  0  0  0  0  0  0  0  0  0
   35.9550   28.8740   38.8370 C   0  0  0  0  0  0  0  0  0  0  0  0
   36.8980   28.8650   39.8510 C   0  0  0  0  0  0  0  0  0  0  0  0
   37.8430   29.8400   39.8970 N   0  0  0  0  0  0  0  0  0  0  0  0
   36.9890   31.6150   37.2390 H   0  0  0  0  0  0  0  0  0  0  0  0
   35.2040   29.8750   37.0480 H   0  0  0  0  0  0  0  0  0  0  0  0
   35.1930   28.1230   38.7630 H   0  0  0  0  0  0  0  0  0  0  0  0
   37.6570   26.1590   38.8850 Cl  0  0  0  0  0  0  0  0  0  0  0  0
   37.2440   26.5320   40.5620 C   0  0  0  0  0  0  0  0  0  0  0  0
   36.9090   27.8320   40.8800 C   0  0  0  0  0  0  0  0  0  0  0  0
   36.6010   28.0370   42.2050 C   0  0  0  0  0  0  0  0  0  0  0  0
   36.3290   29.0270   42.5290 H   0  0  0  0  0  0  0  0  0  0  0  0
   36.6220   27.0330   43.1510 C   0  0  0  0  0  0  0  0  0  0  0  0
   36.3630   27.2800   44.1890 H   0  0  0  0  0  0  0  0  0  0  0  0
   36.9640   25.7490   42.7800 C   0  0  0  0  0  0  0  0  0  0  0  0
   36.9720   24.9810   43.5390 H   0  0  0  0  0  0  0  0  0  0  0  0
   37.2810   25.4890   41.4630 C   0  0  0  0  0  0  0  0  0  0  0  0
   37.7200   23.8720   40.9540 Cl  0  0  0  0  0  0  0  0  0  0  0  0
   39.7050   33.8430   39.9390 C   0  0  0  0  0  0  0  0  0  0  0  0
   40.8280   33.8050   39.1080 C   0  0  0  0  0  0  0  0  0  0  0  0
   40.9460   32.7320   38.2230 C   0  0  0  0  0  0  0  0  0  0  0  0
   39.9590   31.7730   38.2110 N   0  0  0  0  0  0  0  0  0  0  0  0
   38.8890   31.8580   39.0370 C   0  0  0  0  0  0  0  0  0  0  0  0
   38.7550   32.8670   39.8860 N   0  0  0  0  0  0  0  0  0  0  0  0
   39.6300   34.6910   40.6250 H   0  0  0  0  0  0  0  0  0  0  0  0
   41.5770   34.5840   39.1570 H   0  0  0  0  0  0  0  0  0  0  0  0
   41.7990   32.6610   37.5620 H   0  0  0  0  0  0  0  0  0  0  0  0
  1 25  1  0  0  0  0
  1  6  1  0  0  0  0
  2  1  2  0  0  0  0
  3  2  1  0  0  0  0
  3  4  2  0  0  0  0
  4  5  1  0  0  0  0
  5  6  2  0  0  0  0
  5 12  1  0  0  0  0
  7  2  1  0  0  0  0
  8  3  1  0  0  0  0
  9  4  1  0  0  0  0
 10 11  1  0  0  0  0
 11 12  2  0  0  0  0
 11 19  1  0  0  0  0
 12 13  1  0  0  0  0
 13 14  1  0  0  0  0
 13 15  2  0  0  0  0
 15 16  1  0  0  0  0
 17 15  1  0  0  0  0
 17 18  1  0  0  0  0
 19 17  2  0  0  0  0
 20 19  1  0  0  0  0
 21 27  1  0  0  0  0
 22 28  1  0  0  0  0
 22 21  2  0  0  0  0
 23 22  1  0  0  0  0
 24 23  2  0  0  0  0
 24 25  1  0  0  0  0
 25 26  2  0  0  0  0
 26 21  1  0  0  0  0
 29 23  1  0  0  0  0
M  END
>  <minimizedAffinity>
-5.11023331

$$$$

 OpenBabel03242514043D

 29 31  0  0  0  0  0  0  0  0999 V2000
   38.1930   31.2920   40.9500 C   0  0  0  0  0  0  0  0  0  0  0  0
   37.2240   32.1430   40.4330 C   0  0  0  0  0  0  0  0  0  0  0  0
   37.5120   33.3140   39.7590 C   0  0  0  0  0  0  0  0  0  0  0  0
   38.8850   33.5880   39.6330 C   0  0  0  0  0  0  0  0  0  0  0  0
   39.8550   32.7430   40.1470 C   0  0  0  0  0  0  0  0  0  0  0  0
   39.4820   31.6090   40.7960 N   0  0  0  0  0  0  0  0  0  0  0  0
   36.1910   31.8560   40.5740 H   0  0  0  0  0  0  0  0  0  0  0  0
   36.7530   33.9700   39.3610 H   0  0  0  0  0  0  0  0  0  0  0  0
   39.1350   34.4910   39.1150 H   0  0  0  0  0  0  0  0  0  0  0  0
   41.1080   31.6820   37.6690 Cl  0  0  0  0  0  0  0  0  0  0  0  0
   41.9780   32.5990   38.9060 C   0  0  0  0  0  0  0  0  0  0  0  0
   41.2770   33.0350   40.0110 C   0  0  0  0  0  0  0  0  0  0  0  0
   42.0270   33.7390   40.9240 C   0  0  0  0  0  0  0  0  0  0  0  0
   41.5490   34.1120   41.8130 H   0  0  0  0  0  0  0  0  0  0  0  0
   43.3730   33.9960   40.7610 C   0  0  0  0  0  0  0  0  0  0  0  0
   43.8990   34.5670   41.5380 H   0  0  0  0  0  0  0  0  0  0  0  0
   44.0260   33.5370   39.6360 C   0  0  0  0  0  0  0  0  0  0  0  0
   45.0800   33.7510   39.5320 H   0  0  0  0  0  0  0  0  0  0  0  0
   43.3210   32.8240   38.6890 C   0  0  0  0  0  0  0  0  0  0  0  0
   44.1150   32.2250   37.2490 Cl  0  0  0  0  0  0  0  0  0  0  0  0
   38.0500   28.5590   43.3900 C   0  0  0  0  0  0  0  0  0  0  0  0
   37.0070   27.7650   42.9040 C   0  0  0  0  0  0  0  0  0  0  0  0
   36.3620   28.1800   41.7390 C   0  0  0  0  0  0  0  0  0  0  0  0
   36.7800   29.3400   41.1290 N   0  0  0  0  0  0  0  0  0  0  0  0
   37.7980   30.0730   41.6390 C   0  0  0  0  0  0  0  0  0  0  0  0
   38.4260   29.7000   42.7450 N   0  0  0  0  0  0  0  0  0  0  0  0
   38.5430   28.2180   44.3040 H   0  0  0  0  0  0  0  0  0  0  0  0
   36.7160   26.8610   43.4240 H   0  0  0  0  0  0  0  0  0  0  0  0
   35.5500   27.5970   41.3280 H   0  0  0  0  0  0  0  0  0  0  0  0
  1 25  1  0  0  0  0
  2  7  1  0  0  0  0
  2  1  2  0  0  0  0
  3  2  1  0  0  0  0
  4  3  2  0  0  0  0
  4  5  1  0  0  0  0
  5  6  2  0  0  0  0
  6  1  1  0  0  0  0
  8  3  1  0  0  0  0
  9  4  1  0  0  0  0
 10 11  1  0  0  0  0
 11 12  1  0  0  0  0
 12  5  1  0  0  0  0
 12 13  2  0  0  0  0
 13 14  1  0  0  0  0
 15 13  1  0  0  0  0
 15 16  1  0  0  0  0
 17 15  2  0  0  0  0
 18 17  1  0  0  0  0
 19 11  2  0  0  0  0
 19 17  1  0  0  0  0
 20 19  1  0  0  0  0
 21 27  1  0  0  0  0
 22 21  1  0  0  0  0
 22 28  1  0  0  0  0
 23 22  2  0  0  0  0
 24 25  2  0  0  0  0
 24 23  1  0  0  0  0
 25 26  1  0  0  0  0
 26 21  2  0  0  0  0
 29 23  1  0  0  0  0
M  END
>  <minimizedAffinity>
-5.10793877

$$$$

 OpenBabel03242514043D

 29 31  0  0  0  0  0  0  0  0999 V2000
   37.5810   29.0990   41.3870 C   0  0  0  0  0  0  0  0  0  0  0  0
   37.6790   29.2160   42.7680 C   0  0  0  0  0  0  0  0  0  0  0  0
   37.7710   28.1350   43.6250 C   0  0  0  0  0  0  0  0  0  0  0  0
   37.7570   26.8850   42.9840 C   0  0  0  0  0  0  0  0  0  0  0  0
   37.6590   26.7630   41.6080 C   0  0  0  0  0  0  0  0  0  0  0  0
   37.5730   27.8800   40.8400 N   0  0  0  0  0  0  0  0  0  0  0  0
   37.6840   30.2160   43.1790 H   0  0  0  0  0  0  0  0  0  0  0  0
   37.8460   28.2350   44.6970 H   0  0  0  0  0  0  0  0  0  0  0  0
   37.8260   26.0300   43.6270 H   0  0  0  0  0  0  0  0  0  0  0  0
   40.1940   26.0370   40.2360 Cl  0  0  0  0  0  0  0  0  0  0  0  0
   38.7600   25.0050   40.2790 C   0  0  0  0  0  0  0  0  0  0  0  0
   37.6450   25.4610   40.9520 C   0  0  0  0  0  0  0  0  0  0  0  0
   36.5740   24.5970   40.9370 C   0  0  0  0  0  0  0  0  0  0  0  0
   35.6680   24.8840   41.4420 H   0  0  0  0  0  0  0  0  0  0  0  0
   36.5990   23.3710   40.3050 C   0  0  0  0  0  0  0  0  0  0  0  0
   35.7000   22.7410   40.3410 H   0  0  0  0  0  0  0  0  0  0  0  0
   37.7400   22.9630   39.6470 C   0  0  0  0  0  0  0  0  0  0  0  0
   37.7330   21.9990   39.1590 H   0  0  0  0  0  0  0  0  0  0  0  0
   38.8430   23.7910   39.6300 C   0  0  0  0  0  0  0  0  0  0  0  0
   40.3090   23.3080   38.8040 Cl  0  0  0  0  0  0  0  0  0  0  0  0
   37.7660   32.5870   40.2740 C   0  0  0  0  0  0  0  0  0  0  0  0
   37.3240   32.5130   38.9500 C   0  0  0  0  0  0  0  0  0  0  0  0
   36.9660   31.2600   38.4530 C   0  0  0  0  0  0  0  0  0  0  0  0
   37.0630   30.1670   39.2830 N   0  0  0  0  0  0  0  0  0  0  0  0
   37.4970   30.2920   40.5600 C   0  0  0  0  0  0  0  0  0  0  0  0
   37.8430   31.4720   41.0550 N   0  0  0  0  0  0  0  0  0  0  0  0
   38.0420   33.5780   40.6460 H   0  0  0  0  0  0  0  0  0  0  0  0
   37.2670   33.4040   38.3390 H   0  0  0  0  0  0  0  0  0  0  0  0
   36.6190   31.1560   37.4340 H   0  0  0  0  0  0  0  0  0  0  0  0
  1  2  1  0  0  0  0
  2  7  1  0  0  0  0
  2  3  2  0  0  0  0
  3  8  1  0  0  0  0
  4  3  1  0  0  0  0
  4  9  1  0  0  0  0
  5  4  2  0  0  0  0
  6  1  2  0  0  0  0
  6  5  1  0  0  0  0
 10 11  1  0  0  0  0
 11 12  1  0  0  0  0
 12  5  1  0  0  0  0
 13 12  2  0  0  0  0
 13 14  1  0  0  0  0
 15 16  1  0  0  0  0
 15 13  1  0  0  0  0
 17 15  2  0  0  0  0
 18 17  1  0  0  0  0
 19 17  1  0  0  0  0
 19 11  2  0  0  0  0
 20 19  1  0  0  0  0
 21 27  1  0  0  0  0
 21 26  1  0  0  0  0
 22 21  2  0  0  0  0
 23 22  1  0  0  0  0
 23 24  2  0  0  0  0
 24 25  1  0  0  0  0
 25 26  2  0  0  0  0
 25  1  1  0  0  0  0
 28 22  1  0  0  0  0
 29 23  1  0  0  0  0
M  END
>  <minimizedAffinity>
-5.0996995

$$$$

 OpenBabel03242514043D

 29 31  0  0  0  0  0  0  0  0999 V2000
   39.3400   27.7530   42.8580 C   0  0  0  0  0  0  0  0  0  0  0  0
   38.2800   27.1730   43.5420 C   0  0  0  0  0  0  0  0  0  0  0  0
   36.9550   27.5040   43.3270 C   0  0  0  0  0  0  0  0  0  0  0  0
   36.7560   28.4900   42.3460 C   0  0  0  0  0  0  0  0  0  0  0  0
   37.8110   29.0720   41.6620 C   0  0  0  0  0  0  0  0  0  0  0  0
   39.0840   28.6860   41.9360 N   0  0  0  0  0  0  0  0  0  0  0  0
   38.5210   26.4210   44.2800 H   0  0  0  0  0  0  0  0  0  0  0  0
   36.1370   27.0480   43.8630 H   0  0  0  0  0  0  0  0  0  0  0  0
   35.7380   28.7660   42.1600 H   0  0  0  0  0  0  0  0  0  0  0  0
   37.4800   28.0270   38.8990 Cl  0  0  0  0  0  0  0  0  0  0  0  0
   37.4260   29.7430   39.3220 C   0  0  0  0  0  0  0  0  0  0  0  0
   37.5940   30.0950   40.6460 C   0  0  0  0  0  0  0  0  0  0  0  0
   37.5390   31.4480   40.8890 C   0  0  0  0  0  0  0  0  0  0  0  0
   37.6610   31.8010   41.8990 H   0  0  0  0  0  0  0  0  0  0  0  0
   37.3320   32.3880   39.9000 C   0  0  0  0  0  0  0  0  0  0  0  0
   37.3000   33.4500   40.1780 H   0  0  0  0  0  0  0  0  0  0  0  0
   37.1690   31.9800   38.5920 C   0  0  0  0  0  0  0  0  0  0  0  0
   37.0090   32.7360   37.8360 H   0  0  0  0  0  0  0  0  0  0  0  0
   37.2170   30.6350   38.2920 C   0  0  0  0  0  0  0  0  0  0  0  0
   37.0160   30.0800   36.6440 Cl  0  0  0  0  0  0  0  0  0  0  0  0
   42.2800   25.6670   43.5260 C   0  0  0  0  0  0  0  0  0  0  0  0
   43.3000   26.6090   43.6780 C   0  0  0  0  0  0  0  0  0  0  0  0
   42.9650   27.9580   43.5480 C   0  0  0  0  0  0  0  0  0  0  0  0
   41.6580   28.2910   43.2810 N   0  0  0  0  0  0  0  0  0  0  0  0
   40.7050   27.3380   43.1440 C   0  0  0  0  0  0  0  0  0  0  0  0
   40.9990   26.0510   43.2620 N   0  0  0  0  0  0  0  0  0  0  0  0
   42.5620   24.6160   43.6300 H   0  0  0  0  0  0  0  0  0  0  0  0
   44.3150   26.2940   43.8870 H   0  0  0  0  0  0  0  0  0  0  0  0
   43.7230   28.7210   43.6580 H   0  0  0  0  0  0  0  0  0  0  0  0
  1 25  1  0  0  0  0
  1  2  1  0  0  0  0
  2  7  1  0  0  0  0
  3  2  2  0  0  0  0
  3  8  1  0  0  0  0
  4  3  1  0  0  0  0
  5  6  1  0  0  0  0
  5  4  2  0  0  0  0
  6  1  2  0  0  0  0
  9  4  1  0  0  0  0
 10 11  1  0  0  0  0
 11 12  1  0  0  0  0
 12 13  2  0  0  0  0
 12  5  1  0  0  0  0
 13 14  1  0  0  0  0
 15 16  1  0  0  0  0
 15 13  1  0  0  0  0
 17 15  2  0  0  0  0
 18 17  1  0  0  0  0
 19 17  1  0  0  0  0
 19 11  2  0  0  0  0
 20 19  1  0  0  0  0
 21 27  1  0  0  0  0
 21 22  1  0  0  0  0
 22 28  1  0  0  0  0
 23 29  1  0  0  0  0
 23 22  2  0  0  0  0
 24 23  1  0  0  0  0
 25 26  1  0  0  0  0
 25 24  2  0  0  0  0
 26 21  2  0  0  0  0
M  END
>  <minimizedAffinity>
-5.08410978

$$$$
