
 OpenBabel03242518263D

 47 51  0  0  1  0  0  0  0  0999 V2000
   46.9560   30.7940   43.4560 C   0  0  0  0  0  0  0  0  0  0  0  0
   46.1260   31.6980   44.0170 C   0  0  0  0  0  0  0  0  0  0  0  0
   46.2090   31.9130   45.3880 C   0  0  0  0  0  0  0  0  0  0  0  0
   47.1220   31.2150   46.1460 C   0  0  0  0  0  0  0  0  0  0  0  0
   47.9660   30.2860   45.5360 C   0  0  0  0  0  0  0  0  0  0  0  0
   47.8920   30.0630   44.1720 C   0  0  0  0  0  0  0  0  0  0  0  0
   48.7740   29.7420   46.5500 O   0  0  0  0  0  0  0  0  0  0  0  0
   48.1580   30.0580   47.7990 C   0  0  2  0  0  0  0  0  0  0  0  0
   47.4260   31.2210   47.5100 O   0  0  0  0  0  0  0  0  0  0  0  0
   46.8790   30.6370   42.3930 H   0  0  0  0  0  0  0  0  0  0  0  0
   45.5540   32.6380   45.8780 H   0  0  0  0  0  0  0  0  0  0  0  0
   48.5380   29.3550   43.7070 H   0  0  0  0  0  0  0  0  0  0  0  0
   47.3910   29.2720   48.0340 H   0  0  0  0  0  0  0  0  0  0  0  0
   49.3350   27.4710   48.7850 Cl  0  0  0  0  0  0  0  0  0  0  0  0
   49.7130   29.0590   49.4380 C   0  0  0  0  0  0  0  0  0  0  0  0
   49.1100   30.1820   48.9050 C   0  0  0  0  0  0  0  0  0  0  0  0
   49.3750   31.4420   49.3840 C   0  0  0  0  0  0  0  0  0  0  0  0
   48.8990   32.3160   48.9630 H   0  0  0  0  0  0  0  0  0  0  0  0
   50.2690   31.5850   50.4260 C   0  0  0  0  0  0  0  0  0  0  0  0
   50.4650   32.5950   50.7910 H   0  0  0  0  0  0  0  0  0  0  0  0
   50.8730   30.4650   50.9610 C   0  0  0  0  0  0  0  0  0  0  0  0
   51.5760   30.5990   51.7830 H   0  0  0  0  0  0  0  0  0  0  0  0
   50.6210   29.1910   50.4940 C   0  0  0  0  0  0  0  0  0  0  0  0
   51.3980   27.7800   51.1870 Cl  0  0  0  0  0  0  0  0  0  0  0  0
   44.2890   34.4450   42.3570 C   0  0  0  0  0  0  0  0  0  0  0  0
   43.2790   33.7740   41.6950 C   0  0  0  0  0  0  0  0  0  0  0  0
   43.2410   32.3850   41.8270 C   0  0  0  0  0  0  0  0  0  0  0  0
   44.1740   31.7550   42.5820 N   0  0  0  0  0  0  0  0  0  0  0  0
   45.1490   32.4490   43.2150 C   0  0  0  0  0  0  0  0  0  0  0  0
   45.1990   33.7790   43.0990 N   0  0  0  0  0  0  0  0  0  0  0  0
   44.3650   35.5350   42.2870 H   0  0  0  0  0  0  0  0  0  0  0  0
   42.4430   31.8740   41.3020 H   0  0  0  0  0  0  0  0  0  0  0  0
   42.3770   34.5550   40.9450 N   0  0  0  0  0  0  0  0  0  0  0  0
   42.4210   34.4540   39.5190 C   0  0  0  0  0  0  0  0  0  0  0  0
   41.4900   35.3740   38.8220 C   0  0  0  0  0  0  0  0  0  0  0  0
   40.1630   35.3480   39.3660 N   0  0  0  0  0  0  0  0  0  0  0  0
   40.0490   35.2570   40.7700 C   0  0  0  0  0  0  0  0  0  0  0  0
   41.3890   35.4680   41.4600 C   0  0  0  0  0  0  0  0  0  0  0  0
   42.1880   33.4080   39.2070 H   0  0  0  0  0  0  0  0  0  0  0  0
   43.4620   34.7230   39.2120 H   0  0  0  0  0  0  0  0  0  0  0  0
   41.4100   35.0270   37.7560 H   0  0  0  0  0  0  0  0  0  0  0  0
   41.8950   36.3890   38.8190 H   0  0  0  0  0  0  0  0  0  0  0  0
   39.6230   36.1480   38.9680 H   0  0  0  0  0  0  0  0  0  0  0  0
   39.3510   36.0140   41.1720 H   0  0  0  0  0  0  0  0  0  0  0  0
   39.7400   34.2150   41.0260 H   0  0  0  0  0  0  0  0  0  0  0  0
   41.2150   35.2140   42.5460 H   0  0  0  0  0  0  0  0  0  0  0  0
   41.6950   36.5220   41.4270 H   0  0  0  0  0  0  0  0  0  0  0  0
  1  2  2  0  0  0  0
  1  6  1  0  0  0  0
  2  3  1  0  0  0  0
  3 11  1  0  0  0  0
  3  4  2  0  0  0  0
  4  9  1  0  0  0  0
  5  4  1  0  0  0  0
  5  7  1  0  0  0  0
  6  5  2  0  0  0  0
  7  8  1  0  0  0  0
  8 13  1  1  0  0  0
  8 16  1  0  0  0  0
  9  8  1  0  0  0  0
 10  1  1  0  0  0  0
 12  6  1  0  0  0  0
 14 15  1  0  0  0  0
 15 23  1  0  0  0  0
 16 17  1  0  0  0  0
 16 15  2  0  0  0  0
 17 19  2  0  0  0  0
 18 17  1  0  0  0  0
 19 20  1  0  0  0  0
 19 21  1  0  0  0  0
 21 22  1  0  0  0  0
 23 21  2  0  0  0  0
 23 24  1  0  0  0  0
 25 30  1  0  0  0  0
 26 27  1  0  0  0  0
 26 25  2  0  0  0  0
 27 28  2  0  0  0  0
 28 29  1  0  0  0  0
 29  2  1  0  0  0  0
 30 29  2  0  0  0  0
 31 25  1  0  0  0  0
 32 27  1  0  0  0  0
 33 38  1  0  0  0  0
 33 26  1  0  0  0  0
 34 33  1  0  0  0  0
 35 36  1  0  0  0  0
 35 34  1  0  0  0  0
 36 37  1  0  0  0  0
 37 45  1  0  0  0  0
 37 44  1  0  0  0  0
 37 38  1  0  0  0  0
 38 46  1  0  0  0  0
 39 34  1  0  0  0  0
 40 34  1  0  0  0  0
 41 35  1  0  0  0  0
 42 35  1  0  0  0  0
 43 36  1  0  0  0  0
 47 38  1  0  0  0  0
M  END
>  <minimizedAffinity>
-5.9805274

>  <minimizedRMSD>
1.40387928

$$$$
