
 OpenBabel03252506523D

 33 36  0  0  0  0  0  0  0  0999 V2000
   47.1200   31.3280   45.1670 C   0  0  0  0  0  0  0  0  0  0  0  0
   46.8170   32.6850   45.1830 C   0  0  0  0  0  0  0  0  0  0  0  0
   46.2640   33.3220   46.2940 C   0  0  0  0  0  0  0  0  0  0  0  0
   46.0020   32.5770   47.4420 C   0  0  0  0  0  0  0  0  0  0  0  0
   45.4840   32.8510   48.6750 N   0  0  0  0  0  0  0  0  0  0  0  0
   45.4680   31.7010   49.3990 C   0  0  0  0  0  0  0  0  0  0  0  0
   45.9810   30.7220   48.5960 N   0  0  0  0  0  0  0  0  0  0  0  0
   46.3100   31.2400   47.4040 C   0  0  0  0  0  0  0  0  0  0  0  0
   46.8520   30.5910   46.3260 C   0  0  0  0  0  0  0  0  0  0  0  0
   47.5460   30.8930   44.2770 H   0  0  0  0  0  0  0  0  0  0  0  0
   46.0330   34.3770   46.2940 H   0  0  0  0  0  0  0  0  0  0  0  0
   45.1630   33.7960   48.9830 H   0  0  0  0  0  0  0  0  0  0  0  0
   45.1190   31.5950   50.4030 H   0  0  0  0  0  0  0  0  0  0  0  0
   44.4850   28.9070   45.8030 Cl  0  0  0  0  0  0  0  0  0  0  0  0
   46.1230   28.2930   46.0660 C   0  0  0  0  0  0  0  0  0  0  0  0
   47.1730   29.1650   46.3050 C   0  0  0  0  0  0  0  0  0  0  0  0
   48.4440   28.6710   46.5080 C   0  0  0  0  0  0  0  0  0  0  0  0
   49.2590   29.3580   46.6940 H   0  0  0  0  0  0  0  0  0  0  0  0
   48.6080   27.3090   46.4610 C   0  0  0  0  0  0  0  0  0  0  0  0
   49.6310   26.9430   46.6260 H   0  0  0  0  0  0  0  0  0  0  0  0
   47.5930   26.4000   46.2260 C   0  0  0  0  0  0  0  0  0  0  0  0
   47.8700   25.3460   46.2170 H   0  0  0  0  0  0  0  0  0  0  0  0
   46.3350   26.9450   46.0280 C   0  0  0  0  0  0  0  0  0  0  0  0
   45.0360   25.7980   45.7280 Cl  0  0  0  0  0  0  0  0  0  0  0  0
   46.4460   35.1840   42.5150 C   0  0  0  0  0  0  0  0  0  0  0  0
   47.6140   34.9980   41.7650 C   0  0  0  0  0  0  0  0  0  0  0  0
   48.5210   34.0150   42.1790 C   0  0  0  0  0  0  0  0  0  0  0  0
   48.2160   33.2870   43.2990 N   0  0  0  0  0  0  0  0  0  0  0  0
   47.0770   33.4920   44.0050 C   0  0  0  0  0  0  0  0  0  0  0  0
   46.2150   34.4280   43.6080 N   0  0  0  0  0  0  0  0  0  0  0  0
   45.6950   35.9200   42.2660 H   0  0  0  0  0  0  0  0  0  0  0  0
   47.7860   35.6080   40.8940 H   0  0  0  0  0  0  0  0  0  0  0  0
   49.4320   33.8440   41.6230 H   0  0  0  0  0  0  0  0  0  0  0  0
  1  2  2  0  0  0  0
  1  9  1  0  0  0  0
  2  3  1  0  0  0  0
  3 11  1  0  0  0  0
  3  4  2  0  0  0  0
  4  5  1  0  0  0  0
  5 12  1  0  0  0  0
  5  6  1  0  0  0  0
  6 13  1  0  0  0  0
  7  6  2  0  0  0  0
  8  4  1  0  0  0  0
  8  7  1  0  0  0  0
  9  8  2  0  0  0  0
 10  1  1  0  0  0  0
 14 15  1  0  0  0  0
 15 16  1  0  0  0  0
 16  9  1  0  0  0  0
 16 17  2  0  0  0  0
 17 18  1  0  0  0  0
 19 17  1  0  0  0  0
 19 20  1  0  0  0  0
 21 19  2  0  0  0  0
 22 21  1  0  0  0  0
 23 15  2  0  0  0  0
 23 21  1  0  0  0  0
 24 23  1  0  0  0  0
 25 30  1  0  0  0  0
 26 27  1  0  0  0  0
 26 25  2  0  0  0  0
 27 28  2  0  0  0  0
 28 29  1  0  0  0  0
 29  2  1  0  0  0  0
 30 29  2  0  0  0  0
 31 25  1  0  0  0  0
 32 26  1  0  0  0  0
 33 27  1  0  0  0  0
M  END
>  <minimizedAffinity>
-5.48750544

>  <minimizedRMSD>
0.802999318

$$$$
