
 OpenBabel03252508033D

 44 47  0  0  1  0  0  0  0  0999 V2000
   42.0460   33.2600   41.1120 C   0  0  0  0  0  0  0  0  0  0  0  0
   42.7850   34.3930   41.3040 C   0  0  0  0  0  0  0  0  0  0  0  0
   42.1140   35.6330   41.2820 C   0  0  0  0  0  0  0  0  0  0  0  0
   40.7590   35.7540   41.0780 C   0  0  0  0  0  0  0  0  0  0  0  0
   40.0260   34.6140   40.8880 C   0  0  0  0  0  0  0  0  0  0  0  0
   40.6690   33.4130   40.9070 C   0  0  0  0  0  0  0  0  0  0  0  0
   42.6150   36.5820   41.4160 H   0  0  0  0  0  0  0  0  0  0  0  0
   40.2570   36.6840   41.0620 H   0  0  0  0  0  0  0  0  0  0  0  0
   38.9770   34.6320   40.7260 H   0  0  0  0  0  0  0  0  0  0  0  0
   40.0690   32.5020   40.7520 H   0  0  0  0  0  0  0  0  0  0  0  0
   42.7000   31.7150   41.2240 S   0  0  0  0  0  0  0  0  0  0  0  0
   41.6210   30.9000   40.4380 O   0  0  0  0  0  0  0  0  0  0  0  0
   42.7230   31.1910   42.6130 O   0  0  0  0  0  0  0  0  0  0  0  0
   42.7590   32.6160   38.3080 Cl  0  0  0  0  0  0  0  0  0  0  0  0
   43.8900   31.3900   38.9240 C   0  0  0  0  0  0  0  0  0  0  0  0
   43.8520   30.9370   40.2740 C   0  0  0  0  0  0  0  0  0  0  0  0
   44.8400   29.9850   40.4840 C   0  0  0  0  0  0  0  0  0  0  0  0
   44.8280   29.6880   41.5500 H   0  0  0  0  0  0  0  0  0  0  0  0
   45.7920   29.4350   39.6600 C   0  0  0  0  0  0  0  0  0  0  0  0
   46.4620   28.7000   40.0480 H   0  0  0  0  0  0  0  0  0  0  0  0
   45.6690   29.9920   38.4220 C   0  0  0  0  0  0  0  0  0  0  0  0
   46.3820   29.6180   37.6870 H   0  0  0  0  0  0  0  0  0  0  0  0
   44.7830   30.9370   37.9870 C   0  0  0  0  0  0  0  0  0  0  0  0
   44.8290   31.5120   36.3350 Cl  0  0  0  0  0  0  0  0  0  0  0  0
   44.2190   34.3710   41.5280 C   0  0  0  0  0  0  0  0  0  0  0  0
   45.0870   34.2930   40.6100 O   0  0  0  0  0  0  0  0  0  0  0  0
   44.5750   34.4510   42.9250 C   0  0  0  0  0  0  0  0  0  0  0  0
   44.3120   35.7150   43.5620 C   0  0  0  0  0  0  0  0  0  0  0  0
   44.6430   35.8170   44.8990 C   0  0  0  0  0  0  0  0  0  0  0  0
   45.1870   34.7340   45.5190 N   0  0  0  0  0  0  0  0  0  0  0  0
   45.4160   33.5550   44.8630 C   0  0  0  0  0  0  0  0  0  0  0  0
   45.1130   33.4460   43.6150 N   0  0  0  0  0  0  0  0  0  0  0  0
   43.8970   36.5970   43.1530 H   0  0  0  0  0  0  0  0  0  0  0  0
   44.4890   36.7230   45.4830 H   0  0  0  0  0  0  0  0  0  0  0  0
   46.0090   32.4270   45.6180 C   0  0  1  0  0  0  0  0  0  0  0  0
   46.9740   32.7230   46.7430 C   0  0  0  0  0  0  0  0  0  0  0  0
   45.5570   32.3170   47.0220 C   0  0  1  0  0  0  0  0  0  0  0  0
   46.1670   31.4990   45.0680 H   0  0  0  0  0  0  0  0  0  0  0  0
   47.2930   33.7890   46.8250 H   0  0  0  0  0  0  0  0  0  0  0  0
   47.8040   31.9970   46.8740 H   0  0  0  0  0  0  0  0  0  0  0  0
   45.4290   31.3110   47.4870 H   0  0  0  0  0  0  0  0  0  0  0  0
   44.7780   33.3890   47.6250 N   0  0  0  0  0  0  0  0  0  0  0  0
   43.8000   33.1040   47.7550 H   0  0  0  0  0  0  0  0  0  0  0  0
   45.2560   33.8010   48.4410 H   0  0  0  0  0  0  0  0  0  0  0  0
  1 11  1  0  0  0  0
  1  2  1  0  0  0  0
  2 25  1  0  0  0  0
  3  2  2  0  0  0  0
  3  7  1  0  0  0  0
  4  3  1  0  0  0  0
  5  6  1  0  0  0  0
  5  4  2  0  0  0  0
  6  1  2  0  0  0  0
  8  4  1  0  0  0  0
  9  5  1  0  0  0  0
 10  6  1  0  0  0  0
 11 13  2  0  0  0  0
 12 11  2  0  0  0  0
 14 15  1  0  0  0  0
 15 16  1  0  0  0  0
 16 17  2  0  0  0  0
 16 11  1  0  0  0  0
 17 18  1  0  0  0  0
 19 20  1  0  0  0  0
 19 17  1  0  0  0  0
 21 19  2  0  0  0  0
 22 21  1  0  0  0  0
 23 21  1  0  0  0  0
 23 15  2  0  0  0  0
 24 23  1  0  0  0  0
 25 27  1  0  0  0  0
 26 25  2  0  0  0  0
 27 28  2  0  0  0  0
 27 32  1  0  0  0  0
 28 29  1  0  0  0  0
 29 34  1  0  0  0  0
 29 30  2  0  0  0  0
 31 30  1  0  0  0  0
 31 35  1  0  0  0  0
 32 31  2  0  0  0  0
 33 28  1  0  0  0  0
 35 38  1  6  0  0  0
 35 36  1  0  0  0  0
 35 37  1  0  0  0  0
 36 39  1  0  0  0  0
 36 40  1  0  0  0  0
 36 37  1  0  0  0  0
 37 41  1  1  0  0  0
 37 42  1  0  0  0  0
 42 43  1  0  0  0  0
 42 44  1  0  0  0  0
M  END
>  <minimizedAffinity>
-5.9986825

>  <minimizedRMSD>
1.36957574

$$$$
