
 OpenBabel03252507493D

 47 49  0  0  0  0  0  0  0  0999 V2000
   47.2710   35.2860   42.0200 C   0  0  0  0  0  0  0  0  0  0  0  0
   47.4150   36.3730   42.0750 H   0  0  0  0  0  0  0  0  0  0  0  0
   47.8100   34.8790   42.9210 H   0  0  0  0  0  0  0  0  0  0  0  0
   45.8500   34.9240   42.1800 C   0  0  0  0  0  0  0  0  0  0  0  0
   44.8590   35.9430   42.2780 C   0  0  0  0  0  0  0  0  0  0  0  0
   43.3010   35.0170   42.4590 S   0  0  0  0  0  0  0  0  0  0  0  0
   44.2570   33.3540   42.3710 C   0  0  0  0  0  0  0  0  0  0  0  0
   45.3260   33.7270   42.2490 N   0  0  0  0  0  0  0  0  0  0  0  0
   44.9850   37.0170   42.2530 H   0  0  0  0  0  0  0  0  0  0  0  0
   43.6340   32.1160   42.4530 O   0  0  0  0  0  0  0  0  0  0  0  0
   42.0740   30.3310   41.3010 O   0  0  0  0  0  0  0  0  0  0  0  0
   42.2970   31.8480   41.4210 P   0  0  1  0  0  0  0  0  0  0  0  0
   40.9440   32.5260   42.1780 O   0  0  0  0  0  0  0  0  0  0  0  0
   40.8950   33.4870   42.0580 H   0  0  0  0  0  0  0  0  0  0  0  0
   42.5700   32.5790   39.9420 O   0  0  0  0  0  0  0  0  0  0  0  0
   39.8310   31.5650   39.0400 Cl  0  0  0  0  0  0  0  0  0  0  0  0
   40.4780   33.1450   38.6550 C   0  0  0  0  0  0  0  0  0  0  0  0
   41.7330   33.3480   39.1850 C   0  0  0  0  0  0  0  0  0  0  0  0
   42.3410   34.5850   38.9330 C   0  0  0  0  0  0  0  0  0  0  0  0
   43.3310   34.9330   39.2680 H   0  0  0  0  0  0  0  0  0  0  0  0
   41.6980   35.5710   38.1750 C   0  0  0  0  0  0  0  0  0  0  0  0
   42.1280   36.5380   37.9560 H   0  0  0  0  0  0  0  0  0  0  0  0
   40.4420   35.3380   37.6580 C   0  0  0  0  0  0  0  0  0  0  0  0
   39.8950   36.0660   37.0620 H   0  0  0  0  0  0  0  0  0  0  0  0
   39.8490   34.1180   37.9090 C   0  0  0  0  0  0  0  0  0  0  0  0
   38.2650   33.6810   37.3210 Cl  0  0  0  0  0  0  0  0  0  0  0  0
   47.9400   34.6650   40.8280 C   0  0  0  0  0  0  0  0  0  0  0  0
   47.1470   34.1460   40.2550 H   0  0  0  0  0  0  0  0  0  0  0  0
   48.3140   35.4930   40.1750 H   0  0  0  0  0  0  0  0  0  0  0  0
   49.0610   33.7870   41.1630 C   0  0  0  0  0  0  0  0  0  0  0  0
   49.1780   32.6110   40.4310 C   0  0  0  0  0  0  0  0  0  0  0  0
   50.2010   31.7160   40.6730 C   0  0  0  0  0  0  0  0  0  0  0  0
   51.0960   32.0580   41.6780 N   0  0  0  0  0  0  0  0  0  0  0  0
   50.9420   33.2190   42.3680 C   0  0  0  0  0  0  0  0  0  0  0  0
   49.9430   34.0690   42.1150 N   0  0  0  0  0  0  0  0  0  0  0  0
   50.3160   30.8060   40.1260 H   0  0  0  0  0  0  0  0  0  0  0  0
   51.7040   33.3870   43.1370 H   0  0  0  0  0  0  0  0  0  0  0  0
   47.9840   32.2430   39.1520 S   0  0  0  0  0  0  0  0  0  0  0  0
   48.7710   32.2760   37.5330 C   0  0  0  0  0  0  0  0  0  0  0  0
   48.3930   31.4230   36.9060 H   0  0  0  0  0  0  0  0  0  0  0  0
   49.8700   32.0850   37.6760 H   0  0  0  0  0  0  0  0  0  0  0  0
   48.5060   33.6110   36.8900 C   0  0  0  0  0  0  0  0  0  0  0  0
   47.7130   34.1630   37.4170 H   0  0  0  0  0  0  0  0  0  0  0  0
   49.4220   34.2550   36.9250 H   0  0  0  0  0  0  0  0  0  0  0  0
   48.0590   33.3970   35.5510 N   0  0  0  0  0  0  0  0  0  0  0  0
   48.2300   32.4300   35.2510 H   0  0  0  0  0  0  0  0  0  0  0  0
   48.5840   34.0060   34.8560 H   0  0  0  0  0  0  0  0  0  0  0  0
  1  2  1  0  0  0  0
  1  4  1  0  0  0  0
  1  3  1  0  0  0  0
  4  8  1  0  0  0  0
  4  5  2  0  0  0  0
  5  6  1  0  0  0  0
  7 10  1  0  0  0  0
  7  6  1  0  0  0  0
  8  7  2  0  0  0  0
  9  5  1  0  0  0  0
 12 11  2  6  0  0  0
 12 13  1  0  0  0  0
 12 10  1  0  0  0  0
 14 13  1  0  0  0  0
 15 12  1  0  0  0  0
 17 16  1  0  0  0  0
 17 18  1  0  0  0  0
 18 15  1  0  0  0  0
 19 18  2  0  0  0  0
 19 20  1  0  0  0  0
 21 19  1  0  0  0  0
 22 21  1  0  0  0  0
 23 25  1  0  0  0  0
 23 21  2  0  0  0  0
 24 23  1  0  0  0  0
 25 17  2  0  0  0  0
 26 25  1  0  0  0  0
 27 30  1  0  0  0  0
 27  1  1  0  0  0  0
 28 27  1  0  0  0  0
 29 27  1  0  0  0  0
 30 35  1  0  0  0  0
 31 32  1  0  0  0  0
 31 30  2  0  0  0  0
 32 33  2  0  0  0  0
 33 34  1  0  0  0  0
 34 37  1  0  0  0  0
 35 34  2  0  0  0  0
 36 32  1  0  0  0  0
 38 31  1  0  0  0  0
 39 41  1  0  0  0  0
 39 38  1  0  0  0  0
 40 39  1  0  0  0  0
 42 44  1  0  0  0  0
 42 43  1  0  0  0  0
 42 39  1  0  0  0  0
 45 42  1  0  0  0  0
 46 45  1  0  0  0  0
 47 45  1  0  0  0  0
M  END
>  <minimizedAffinity>
-5.37439013

>  <minimizedRMSD>
3.07551241

$$$$
