
 OpenBabel03252502243D

 36 38  0  0  1  0  0  0  0  0999 V2000
   46.7430   34.5310   42.2800 N   0  0  0  0  0  0  0  0  0  0  0  0
   48.2060   34.5820   42.3020 C   0  0  0  0  0  0  0  0  0  0  0  0
   48.5440   35.3480   41.0030 C   0  0  0  0  0  0  0  0  0  0  0  0
   48.1710   34.4990   39.8230 C   0  0  0  0  0  0  0  0  0  0  0  0
   46.8520   33.8260   39.9460 C   0  0  0  0  0  0  0  0  0  0  0  0
   45.9740   34.2750   41.0820 C   0  0  1  0  0  0  0  0  0  0  0  0
   48.6720   33.5900   42.2570 H   0  0  0  0  0  0  0  0  0  0  0  0
   48.5260   35.2060   43.1460 H   0  0  0  0  0  0  0  0  0  0  0  0
   49.6300   35.5180   41.0280 H   0  0  0  0  0  0  0  0  0  0  0  0
   47.9750   36.3000   41.0430 H   0  0  0  0  0  0  0  0  0  0  0  0
   48.2490   35.1630   38.9280 H   0  0  0  0  0  0  0  0  0  0  0  0
   48.9760   33.7420   39.7010 H   0  0  0  0  0  0  0  0  0  0  0  0
   46.9790   32.7170   40.0350 H   0  0  0  0  0  0  0  0  0  0  0  0
   46.2840   33.9860   39.0060 H   0  0  0  0  0  0  0  0  0  0  0  0
   45.5640   35.2590   40.7860 H   0  0  0  0  0  0  0  0  0  0  0  0
   44.4550   35.9740   44.8720 C   0  0  0  0  0  0  0  0  0  0  0  0
   45.1320   35.8520   43.6440 C   0  0  0  0  0  0  0  0  0  0  0  0
   46.0080   34.7420   43.4900 C   0  0  0  0  0  0  0  0  0  0  0  0
   46.1230   33.8890   44.5370 N   0  0  0  0  0  0  0  0  0  0  0  0
   45.4550   34.0410   45.6970 C   0  0  0  0  0  0  0  0  0  0  0  0
   44.6160   35.0930   45.8620 N   0  0  0  0  0  0  0  0  0  0  0  0
   43.7780   36.8160   45.0150 H   0  0  0  0  0  0  0  0  0  0  0  0
   45.0200   36.5430   42.8400 H   0  0  0  0  0  0  0  0  0  0  0  0
   45.6590   33.2610   46.4440 H   0  0  0  0  0  0  0  0  0  0  0  0
   45.0540   33.3020   41.3420 O   0  0  0  0  0  0  0  0  0  0  0  0
   43.1100   35.5800   40.5020 Cl  0  0  0  0  0  0  0  0  0  0  0  0
   42.6590   34.0010   41.0360 C   0  0  0  0  0  0  0  0  0  0  0  0
   43.7220   33.1830   41.3480 C   0  0  0  0  0  0  0  0  0  0  0  0
   43.3650   31.8950   41.7840 C   0  0  0  0  0  0  0  0  0  0  0  0
   44.0370   31.0750   42.0860 H   0  0  0  0  0  0  0  0  0  0  0  0
   42.0330   31.4950   41.8870 C   0  0  0  0  0  0  0  0  0  0  0  0
   41.7070   30.5200   42.2160 H   0  0  0  0  0  0  0  0  0  0  0  0
   41.0570   32.3790   41.5560 C   0  0  0  0  0  0  0  0  0  0  0  0
   40.0020   32.1170   41.6180 H   0  0  0  0  0  0  0  0  0  0  0  0
   41.3350   33.6510   41.1230 C   0  0  0  0  0  0  0  0  0  0  0  0
   40.1380   34.8410   40.6790 Cl  0  0  0  0  0  0  0  0  0  0  0  0
  1  2  1  0  0  0  0
  1 18  1  0  0  0  0
  2  8  1  0  0  0  0
  3  9  1  0  0  0  0
  3 10  1  0  0  0  0
  3  2  1  0  0  0  0
  4  5  1  0  0  0  0
  4  3  1  0  0  0  0
  5 13  1  0  0  0  0
  5  6  1  0  0  0  0
  6 15  1  6  0  0  0
  6 25  1  0  0  0  0
  6  1  1  0  0  0  0
  7  2  1  0  0  0  0
 11  4  1  0  0  0  0
 12  4  1  0  0  0  0
 14  5  1  0  0  0  0
 16 22  1  0  0  0  0
 16 21  1  0  0  0  0
 17 16  2  0  0  0  0
 18 17  1  0  0  0  0
 18 19  2  0  0  0  0
 19 20  1  0  0  0  0
 20 21  2  0  0  0  0
 20 24  1  0  0  0  0
 23 17  1  0  0  0  0
 25 28  1  0  0  0  0
 26 27  1  0  0  0  0
 27 35  2  0  0  0  0
 27 28  1  0  0  0  0
 28 29  2  0  0  0  0
 29 31  1  0  0  0  0
 29 30  1  0  0  0  0
 31 32  1  0  0  0  0
 33 34  1  0  0  0  0
 33 31  2  0  0  0  0
 35 33  1  0  0  0  0
 36 35  1  0  0  0  0
M  END
>  <minimizedAffinity>
-6.11033154

>  <minimizedRMSD>
0.576765358

$$$$
