
 OpenBabel03252506493D

 31 33  0  0  0  0  0  0  0  0999 V2000
   44.4000   34.3050   42.5180 C   0  0  0  0  0  0  0  0  0  0  0  0
   44.7710   33.3510   43.4710 C   0  0  0  0  0  0  0  0  0  0  0  0
   45.2370   33.8120   44.7210 C   0  0  0  0  0  0  0  0  0  0  0  0
   45.2930   35.1560   44.9190 N   0  0  0  0  0  0  0  0  0  0  0  0
   44.9240   36.0400   43.9720 C   0  0  0  0  0  0  0  0  0  0  0  0
   44.4730   35.6290   42.7600 N   0  0  0  0  0  0  0  0  0  0  0  0
   44.7100   32.2790   43.2680 H   0  0  0  0  0  0  0  0  0  0  0  0
   45.5210   33.0740   45.4510 H   0  0  0  0  0  0  0  0  0  0  0  0
   45.2670   37.8300   41.6400 Cl  0  0  0  0  0  0  0  0  0  0  0  0
   45.1850   38.4090   43.2940 C   0  0  0  0  0  0  0  0  0  0  0  0
   45.0230   37.4620   44.2870 C   0  0  0  0  0  0  0  0  0  0  0  0
   44.9490   37.8290   45.6150 C   0  0  0  0  0  0  0  0  0  0  0  0
   44.8200   37.0960   46.4270 H   0  0  0  0  0  0  0  0  0  0  0  0
   45.0320   39.1590   46.0160 C   0  0  0  0  0  0  0  0  0  0  0  0
   44.9840   39.5230   47.0160 H   0  0  0  0  0  0  0  0  0  0  0  0
   45.1950   40.0840   44.9870 C   0  0  0  0  0  0  0  0  0  0  0  0
   45.2660   41.1270   45.2520 H   0  0  0  0  0  0  0  0  0  0  0  0
   45.2680   39.7210   43.6810 C   0  0  0  0  0  0  0  0  0  0  0  0
   45.4740   40.9100   42.4090 Cl  0  0  0  0  0  0  0  0  0  0  0  0
   43.8200   33.6260   40.9560 S   0  0  0  0  0  0  0  0  0  0  0  0
   41.3360   31.7090   41.5840 Cl  0  0  0  0  0  0  0  0  0  0  0  0
   41.0220   33.2790   40.8410 C   0  0  0  0  0  0  0  0  0  0  0  0
   42.1350   34.0330   40.6070 C   0  0  0  0  0  0  0  0  0  0  0  0
   41.9420   35.2830   40.0200 C   0  0  0  0  0  0  0  0  0  0  0  0
   40.6550   35.7020   39.7040 C   0  0  0  0  0  0  0  0  0  0  0  0
   39.5390   34.9370   39.9430 C   0  0  0  0  0  0  0  0  0  0  0  0
   39.7500   33.6930   40.5270 C   0  0  0  0  0  0  0  0  0  0  0  0
   38.4050   32.6130   40.8880 Cl  0  0  0  0  0  0  0  0  0  0  0  0
   42.7530   35.9580   39.7930 H   0  0  0  0  0  0  0  0  0  0  0  0
   40.4850   36.6660   39.2500 H   0  0  0  0  0  0  0  0  0  0  0  0
   38.5260   35.1780   39.7340 H   0  0  0  0  0  0  0  0  0  0  0  0
  1  6  2  0  0  0  0
  1  2  1  0  0  0  0
  2  3  2  0  0  0  0
  3  4  1  0  0  0  0
  3  8  1  0  0  0  0
  5 11  1  0  0  0  0
  5  4  2  0  0  0  0
  6  5  1  0  0  0  0
  7  2  1  0  0  0  0
  9 10  1  0  0  0  0
 10 18  2  0  0  0  0
 10 11  1  0  0  0  0
 11 12  2  0  0  0  0
 12 14  1  0  0  0  0
 12 13  1  0  0  0  0
 14 15  1  0  0  0  0
 16 17  1  0  0  0  0
 16 14  2  0  0  0  0
 18 16  1  0  0  0  0
 19 18  1  0  0  0  0
 20  1  1  0  0  0  0
 22 21  1  0  0  0  0
 23 22  1  0  0  0  0
 23 20  1  0  0  0  0
 24 23  2  0  0  0  0
 25 26  2  0  0  0  0
 25 24  1  0  0  0  0
 26 27  1  0  0  0  0
 27 22  2  0  0  0  0
 27 28  1  0  0  0  0
 29 24  1  0  0  0  0
 30 25  1  0  0  0  0
 31 26  1  0  0  0  0
M  END
>  <minimizedAffinity>
1.33649576

>  <minimizedRMSD>
1.73287988

$$$$
