
 OpenBabel03252502243D

 36 38  0  0  1  0  0  0  0  0999 V2000
   46.7650   34.5380   42.2790 N   0  0  0  0  0  0  0  0  0  0  0  0
   48.2270   34.6140   42.3030 C   0  0  0  0  0  0  0  0  0  0  0  0
   48.5540   35.3800   41.0010 C   0  0  0  0  0  0  0  0  0  0  0  0
   48.1970   34.5190   39.8250 C   0  0  0  0  0  0  0  0  0  0  0  0
   46.8890   33.8240   39.9490 C   0  0  0  0  0  0  0  0  0  0  0  0
   46.0010   34.2640   41.0810 C   0  0  1  0  0  0  0  0  0  0  0  0
   48.7090   33.6300   42.2630 H   0  0  0  0  0  0  0  0  0  0  0  0
   48.5340   35.2470   43.1450 H   0  0  0  0  0  0  0  0  0  0  0  0
   49.6370   35.5690   41.0270 H   0  0  0  0  0  0  0  0  0  0  0  0
   47.9680   36.3230   41.0360 H   0  0  0  0  0  0  0  0  0  0  0  0
   48.2650   35.1800   38.9260 H   0  0  0  0  0  0  0  0  0  0  0  0
   49.0150   33.7760   39.7070 H   0  0  0  0  0  0  0  0  0  0  0  0
   47.0350   32.7180   40.0430 H   0  0  0  0  0  0  0  0  0  0  0  0
   46.3200   33.9700   39.0070 H   0  0  0  0  0  0  0  0  0  0  0  0
   45.5760   35.2390   40.7800 H   0  0  0  0  0  0  0  0  0  0  0  0
   44.4580   35.9610   44.8660 C   0  0  0  0  0  0  0  0  0  0  0  0
   45.1400   35.8460   43.6390 C   0  0  0  0  0  0  0  0  0  0  0  0
   46.0240   34.7430   43.4870 C   0  0  0  0  0  0  0  0  0  0  0  0
   46.1410   33.8890   44.5330 N   0  0  0  0  0  0  0  0  0  0  0  0
   45.4680   34.0340   45.6910 C   0  0  0  0  0  0  0  0  0  0  0  0
   44.6220   35.0800   45.8550 N   0  0  0  0  0  0  0  0  0  0  0  0
   43.7740   36.7980   45.0070 H   0  0  0  0  0  0  0  0  0  0  0  0
   45.0260   36.5380   42.8370 H   0  0  0  0  0  0  0  0  0  0  0  0
   45.6750   33.2540   46.4370 H   0  0  0  0  0  0  0  0  0  0  0  0
   45.0980   33.2760   41.3450 O   0  0  0  0  0  0  0  0  0  0  0  0
   43.1150   35.5130   40.4840 Cl  0  0  0  0  0  0  0  0  0  0  0  0
   42.6910   33.9360   41.0450 C   0  0  0  0  0  0  0  0  0  0  0  0
   43.7680   33.1380   41.3600 C   0  0  0  0  0  0  0  0  0  0  0  0
   43.4330   31.8520   41.8190 C   0  0  0  0  0  0  0  0  0  0  0  0
   44.1190   31.0460   42.1290 H   0  0  0  0  0  0  0  0  0  0  0  0
   42.1080   31.4330   41.9380 C   0  0  0  0  0  0  0  0  0  0  0  0
   41.7980   30.4590   42.2830 H   0  0  0  0  0  0  0  0  0  0  0  0
   41.1170   32.2980   41.5990 C   0  0  0  0  0  0  0  0  0  0  0  0
   40.0650   32.0210   41.6730 H   0  0  0  0  0  0  0  0  0  0  0  0
   41.3730   33.5670   41.1440 C   0  0  0  0  0  0  0  0  0  0  0  0
   40.1560   34.7320   40.6910 Cl  0  0  0  0  0  0  0  0  0  0  0  0
  1  2  1  0  0  0  0
  1 18  1  0  0  0  0
  2  8  1  0  0  0  0
  3  9  1  0  0  0  0
  3 10  1  0  0  0  0
  3  2  1  0  0  0  0
  4  5  1  0  0  0  0
  4  3  1  0  0  0  0
  5 13  1  0  0  0  0
  5  6  1  0  0  0  0
  6 15  1  6  0  0  0
  6 25  1  0  0  0  0
  6  1  1  0  0  0  0
  7  2  1  0  0  0  0
 11  4  1  0  0  0  0
 12  4  1  0  0  0  0
 14  5  1  0  0  0  0
 16 22  1  0  0  0  0
 16 21  1  0  0  0  0
 17 16  2  0  0  0  0
 18 17  1  0  0  0  0
 18 19  2  0  0  0  0
 19 20  1  0  0  0  0
 20 21  2  0  0  0  0
 20 24  1  0  0  0  0
 23 17  1  0  0  0  0
 25 28  1  0  0  0  0
 26 27  1  0  0  0  0
 27 35  2  0  0  0  0
 27 28  1  0  0  0  0
 28 29  2  0  0  0  0
 29 31  1  0  0  0  0
 29 30  1  0  0  0  0
 31 32  1  0  0  0  0
 33 34  1  0  0  0  0
 33 31  2  0  0  0  0
 35 33  1  0  0  0  0
 36 35  1  0  0  0  0
M  END
>  <minimizedAffinity>
-6.10847044

>  <minimizedRMSD>
0.372675985

$$$$
