
 OpenBabel03252506263D

 47 51  0  0  0  0  0  0  0  0999 V2000
   45.5370   27.7170   47.8470 C   0  0  0  0  0  0  0  0  0  0  0  0
   44.9850   28.9770   47.7450 C   0  0  0  0  0  0  0  0  0  0  0  0
   44.1620   29.2080   46.6420 C   0  0  0  0  0  0  0  0  0  0  0  0
   43.9100   28.2330   45.7040 C   0  0  0  0  0  0  0  0  0  0  0  0
   43.1850   28.1550   44.5710 N   0  0  0  0  0  0  0  0  0  0  0  0
   43.2830   26.9400   44.0180 C   0  0  0  0  0  0  0  0  0  0  0  0
   44.1050   26.1500   44.7980 C   0  0  0  0  0  0  0  0  0  0  0  0
   44.4700   26.9840   45.8250 C   0  0  0  0  0  0  0  0  0  0  0  0
   45.2840   26.7490   46.9100 C   0  0  0  0  0  0  0  0  0  0  0  0
   46.1670   27.6090   48.7320 H   0  0  0  0  0  0  0  0  0  0  0  0
   43.6630   30.1390   46.4310 H   0  0  0  0  0  0  0  0  0  0  0  0
   42.6210   28.9410   44.1770 H   0  0  0  0  0  0  0  0  0  0  0  0
   42.7920   26.6210   43.0990 H   0  0  0  0  0  0  0  0  0  0  0  0
   44.3850   25.1230   44.6260 H   0  0  0  0  0  0  0  0  0  0  0  0
   47.9810   26.2220   45.5860 Cl  0  0  0  0  0  0  0  0  0  0  0  0
   47.1390   25.0880   46.6210 C   0  0  0  0  0  0  0  0  0  0  0  0
   45.9330   25.4630   47.1460 C   0  0  0  0  0  0  0  0  0  0  0  0
   45.1850   24.6300   47.9830 C   0  0  0  0  0  0  0  0  0  0  0  0
   44.2280   24.8940   48.4160 H   0  0  0  0  0  0  0  0  0  0  0  0
   45.7040   23.3760   48.2790 C   0  0  0  0  0  0  0  0  0  0  0  0
   45.1350   22.7140   48.9290 H   0  0  0  0  0  0  0  0  0  0  0  0
   46.9260   22.9880   47.7500 C   0  0  0  0  0  0  0  0  0  0  0  0
   47.2940   22.0040   48.0060 H   0  0  0  0  0  0  0  0  0  0  0  0
   47.6530   23.8230   46.9260 C   0  0  0  0  0  0  0  0  0  0  0  0
   49.1900   23.3500   46.2530 Cl  0  0  0  0  0  0  0  0  0  0  0  0
   45.1180   30.1440   48.6160 C   0  0  0  0  0  0  0  0  0  0  0  0
   44.2640   30.8430   48.5030 H   0  0  0  0  0  0  0  0  0  0  0  0
   45.0150   29.7540   49.6680 H   0  0  0  0  0  0  0  0  0  0  0  0
   46.4000   30.8850   48.5620 C   0  0  0  0  0  0  0  0  0  0  0  0
   47.2670   30.2610   48.7860 H   0  0  0  0  0  0  0  0  0  0  0  0
   46.3460   31.6920   49.3280 H   0  0  0  0  0  0  0  0  0  0  0  0
   46.2590   32.9720   45.6700 C   0  0  0  0  0  0  0  0  0  0  0  0
   47.1950   31.9990   45.2740 C   0  0  0  0  0  0  0  0  0  0  0  0
   47.3620   31.1140   46.2860 C   0  0  0  0  0  0  0  0  0  0  0  0
   46.5520   31.5310   47.2740 N   0  0  0  0  0  0  0  0  0  0  0  0
   45.8980   32.6360   46.9050 N   0  0  0  0  0  0  0  0  0  0  0  0
   47.7510   31.8850   44.3330 H   0  0  0  0  0  0  0  0  0  0  0  0
   47.9950   30.2240   46.3690 H   0  0  0  0  0  0  0  0  0  0  0  0
   44.4870   35.9470   44.5290 C   0  0  0  0  0  0  0  0  0  0  0  0
   45.0200   36.1840   43.2640 C   0  0  0  0  0  0  0  0  0  0  0  0
   45.9990   35.3020   42.8150 C   0  0  0  0  0  0  0  0  0  0  0  0
   46.3660   34.2850   43.6220 N   0  0  0  0  0  0  0  0  0  0  0  0
   45.8430   34.0770   44.8260 C   0  0  0  0  0  0  0  0  0  0  0  0
   44.8970   34.9190   45.2770 N   0  0  0  0  0  0  0  0  0  0  0  0
   43.7250   36.6640   44.8360 H   0  0  0  0  0  0  0  0  0  0  0  0
   44.7870   36.9600   42.5700 H   0  0  0  0  0  0  0  0  0  0  0  0
   46.5360   35.3000   41.8850 H   0  0  0  0  0  0  0  0  0  0  0  0
  1 10  1  0  0  0  0
  2  1  1  0  0  0  0
  2 26  1  0  0  0  0
  3  2  2  0  0  0  0
  4  8  2  0  0  0  0
  4  3  1  0  0  0  0
  5  4  1  0  0  0  0
  6  5  1  0  0  0  0
  6  7  2  0  0  0  0
  7  8  1  0  0  0  0
  8  9  1  0  0  0  0
  9 17  1  0  0  0  0
  9  1  2  0  0  0  0
 11  3  1  0  0  0  0
 12  5  1  0  0  0  0
 13  6  1  0  0  0  0
 14  7  1  0  0  0  0
 15 16  1  0  0  0  0
 16 24  2  0  0  0  0
 16 17  1  0  0  0  0
 17 18  2  0  0  0  0
 18 20  1  0  0  0  0
 18 19  1  0  0  0  0
 20 21  1  0  0  0  0
 22 23  1  0  0  0  0
 22 20  2  0  0  0  0
 24 22  1  0  0  0  0
 25 24  1  0  0  0  0
 26 28  1  0  0  0  0
 27 26  1  0  0  0  0
 29 26  1  0  0  0  0
 29 30  1  0  0  0  0
 29 31  1  0  0  0  0
 32 36  2  0  0  0  0
 33 32  1  0  0  0  0
 33 34  2  0  0  0  0
 34 38  1  0  0  0  0
 34 35  1  0  0  0  0
 35 29  1  0  0  0  0
 36 35  1  0  0  0  0
 37 33  1  0  0  0  0
 39 45  1  0  0  0  0
 39 44  1  0  0  0  0
 40 39  2  0  0  0  0
 41 40  1  0  0  0  0
 41 42  2  0  0  0  0
 42 43  1  0  0  0  0
 43 44  2  0  0  0  0
 43 32  1  0  0  0  0
 46 40  1  0  0  0  0
 47 41  1  0  0  0  0
M  END
>  <minimizedAffinity>
-5.38369274

>  <minimizedRMSD>
1.48262012

$$$$
