
 OpenBabel03252507493D

 47 49  0  0  0  0  0  0  0  0999 V2000
   48.0770   35.3370   41.8390 C   0  0  0  0  0  0  0  0  0  0  0  0
   48.3120   36.4080   41.8950 H   0  0  0  0  0  0  0  0  0  0  0  0
   48.8540   34.8400   42.4850 H   0  0  0  0  0  0  0  0  0  0  0  0
   46.7680   35.0420   42.4510 C   0  0  0  0  0  0  0  0  0  0  0  0
   45.9250   36.1060   42.8840 C   0  0  0  0  0  0  0  0  0  0  0  0
   44.4610   35.2540   43.5520 S   0  0  0  0  0  0  0  0  0  0  0  0
   45.2370   33.5480   43.1330 C   0  0  0  0  0  0  0  0  0  0  0  0
   46.2270   33.8710   42.6720 N   0  0  0  0  0  0  0  0  0  0  0  0
   46.0980   37.1720   42.8340 H   0  0  0  0  0  0  0  0  0  0  0  0
   44.6040   32.3410   43.3960 O   0  0  0  0  0  0  0  0  0  0  0  0
   44.3530   30.3980   41.6340 O   0  0  0  0  0  0  0  0  0  0  0  0
   43.6550   31.6700   42.1430 P   0  0  1  0  0  0  0  0  0  0  0  0
   42.1730   31.2250   42.8290 O   0  0  0  0  0  0  0  0  0  0  0  0
   41.5720   31.9780   42.9350 H   0  0  0  0  0  0  0  0  0  0  0  0
   43.4250   32.8060   40.9380 O   0  0  0  0  0  0  0  0  0  0  0  0
   41.2010   34.7590   41.7040 Cl  0  0  0  0  0  0  0  0  0  0  0  0
   41.2250   33.8130   40.2320 C   0  0  0  0  0  0  0  0  0  0  0  0
   42.3420   33.0130   40.1340 C   0  0  0  0  0  0  0  0  0  0  0  0
   42.4560   32.2140   38.9870 C   0  0  0  0  0  0  0  0  0  0  0  0
   43.2680   31.5150   38.7300 H   0  0  0  0  0  0  0  0  0  0  0  0
   41.4760   32.2310   37.9890 C   0  0  0  0  0  0  0  0  0  0  0  0
   41.5230   31.6320   37.0910 H   0  0  0  0  0  0  0  0  0  0  0  0
   40.3690   33.0420   38.1160 C   0  0  0  0  0  0  0  0  0  0  0  0
   39.5770   33.0950   37.3720 H   0  0  0  0  0  0  0  0  0  0  0  0
   40.2630   33.8260   39.2460 C   0  0  0  0  0  0  0  0  0  0  0  0
   38.9210   34.9000   39.5450 Cl  0  0  0  0  0  0  0  0  0  0  0  0
   48.2620   34.7670   40.4620 C   0  0  0  0  0  0  0  0  0  0  0  0
   47.3140   34.9410   39.9180 H   0  0  0  0  0  0  0  0  0  0  0  0
   49.0450   35.3740   39.9420 H   0  0  0  0  0  0  0  0  0  0  0  0
   48.6700   33.3620   40.4490 C   0  0  0  0  0  0  0  0  0  0  0  0
   47.8880   32.4870   39.7040 C   0  0  0  0  0  0  0  0  0  0  0  0
   48.1900   31.1420   39.6290 C   0  0  0  0  0  0  0  0  0  0  0  0
   49.3090   30.7210   40.3330 N   0  0  0  0  0  0  0  0  0  0  0  0
   50.0450   31.6120   41.0490 C   0  0  0  0  0  0  0  0  0  0  0  0
   49.7330   32.9090   41.1060 N   0  0  0  0  0  0  0  0  0  0  0  0
   47.6060   30.4480   39.0640 H   0  0  0  0  0  0  0  0  0  0  0  0
   50.9050   31.1700   41.5650 H   0  0  0  0  0  0  0  0  0  0  0  0
   46.4610   33.1090   38.8240 S   0  0  0  0  0  0  0  0  0  0  0  0
   46.7950   33.1750   37.0560 C   0  0  0  0  0  0  0  0  0  0  0  0
   45.9970   33.7730   36.5370 H   0  0  0  0  0  0  0  0  0  0  0  0
   46.7080   32.1320   36.6460 H   0  0  0  0  0  0  0  0  0  0  0  0
   48.1670   33.7560   36.8410 C   0  0  0  0  0  0  0  0  0  0  0  0
   48.1390   34.8550   36.7990 H   0  0  0  0  0  0  0  0  0  0  0  0
   48.8470   33.4850   37.6880 H   0  0  0  0  0  0  0  0  0  0  0  0
   48.6720   33.2950   35.5870 N   0  0  0  0  0  0  0  0  0  0  0  0
   48.1120   32.5140   35.2250 H   0  0  0  0  0  0  0  0  0  0  0  0
   49.6620   32.9180   35.6740 H   0  0  0  0  0  0  0  0  0  0  0  0
  1  2  1  0  0  0  0
  1  4  1  0  0  0  0
  1  3  1  0  0  0  0
  4  8  1  0  0  0  0
  4  5  2  0  0  0  0
  5  6  1  0  0  0  0
  7 10  1  0  0  0  0
  7  6  1  0  0  0  0
  8  7  2  0  0  0  0
  9  5  1  0  0  0  0
 12 11  2  6  0  0  0
 12 13  1  0  0  0  0
 12 10  1  0  0  0  0
 13 14  1  0  0  0  0
 15 12  1  0  0  0  0
 17 16  1  0  0  0  0
 18 17  1  0  0  0  0
 18 15  1  0  0  0  0
 19 18  2  0  0  0  0
 20 19  1  0  0  0  0
 21 23  2  0  0  0  0
 21 19  1  0  0  0  0
 22 21  1  0  0  0  0
 23 25  1  0  0  0  0
 24 23  1  0  0  0  0
 25 26  1  0  0  0  0
 25 17  2  0  0  0  0
 27  1  1  0  0  0  0
 28 27  1  0  0  0  0
 29 27  1  0  0  0  0
 30 27  1  0  0  0  0
 30 35  1  0  0  0  0
 31 30  2  0  0  0  0
 32 31  1  0  0  0  0
 32 33  2  0  0  0  0
 33 34  1  0  0  0  0
 34 35  2  0  0  0  0
 34 37  1  0  0  0  0
 36 32  1  0  0  0  0
 38 31  1  0  0  0  0
 39 38  1  0  0  0  0
 40 39  1  0  0  0  0
 41 39  1  0  0  0  0
 42 39  1  0  0  0  0
 42 44  1  0  0  0  0
 43 42  1  0  0  0  0
 45 47  1  0  0  0  0
 45 42  1  0  0  0  0
 46 45  1  0  0  0  0
M  END
>  <minimizedAffinity>
-4.97722769

>  <minimizedRMSD>
3.97917509

$$$$
