
 OpenBabel03252500223D

 38 40  0  0  1  0  0  0  0  0999 V2000
   43.9080   35.1620   40.9130 C   0  0  1  0  0  0  0  0  0  0  0  0
   43.8610   36.0720   42.1560 C   0  0  0  0  0  0  0  0  0  0  0  0
   44.8960   35.9310   43.1820 C   0  0  0  0  0  0  0  0  0  0  0  0
   45.9180   34.8240   42.8800 C   0  0  0  0  0  0  0  0  0  0  0  0
   45.0230   33.6570   42.5270 C   0  0  0  0  0  0  0  0  0  0  0  0
   44.6490   33.9180   41.0590 C   0  0  2  0  0  0  0  0  0  0  0  0
   44.4010   35.8890   40.2180 H   0  0  0  0  0  0  0  0  0  0  0  0
   43.0940   36.7930   42.2760 H   0  0  0  0  0  0  0  0  0  0  0  0
   44.8320   36.5780   44.0240 H   0  0  0  0  0  0  0  0  0  0  0  0
   46.5450   35.1650   42.0450 H   0  0  0  0  0  0  0  0  0  0  0  0
   46.3990   34.6300   43.8270 H   0  0  0  0  0  0  0  0  0  0  0  0
   45.4500   32.6690   42.6920 H   0  0  0  0  0  0  0  0  0  0  0  0
   44.0750   33.6980   43.0970 H   0  0  0  0  0  0  0  0  0  0  0  0
   43.9890   33.0370   40.7930 H   0  0  0  0  0  0  0  0  0  0  0  0
   44.4510   31.9220   38.7190 Cl  0  0  0  0  0  0  0  0  0  0  0  0
   45.8780   32.8340   39.1640 C   0  0  0  0  0  0  0  0  0  0  0  0
   45.8510   33.7140   40.2170 C   0  0  0  0  0  0  0  0  0  0  0  0
   47.0740   34.3240   40.4030 C   0  0  0  0  0  0  0  0  0  0  0  0
   47.2000   35.0300   41.2240 H   0  0  0  0  0  0  0  0  0  0  0  0
   48.2170   34.1210   39.6610 C   0  0  0  0  0  0  0  0  0  0  0  0
   49.1350   34.6310   39.8620 H   0  0  0  0  0  0  0  0  0  0  0  0
   48.1590   33.2250   38.6250 C   0  0  0  0  0  0  0  0  0  0  0  0
   49.0340   33.0510   38.0340 H   0  0  0  0  0  0  0  0  0  0  0  0
   46.9740   32.5700   38.3700 C   0  0  0  0  0  0  0  0  0  0  0  0
   46.9730   31.4470   37.0390 Cl  0  0  0  0  0  0  0  0  0  0  0  0
   41.4780   34.8620   41.5280 C   0  0  0  0  0  0  0  0  0  0  0  0
   42.4610   35.0210   40.5350 C   0  0  0  0  0  0  0  0  0  0  0  0
   42.0520   34.9110   39.2030 C   0  0  0  0  0  0  0  0  0  0  0  0
   40.7540   34.6560   38.9110 N   0  0  0  0  0  0  0  0  0  0  0  0
   39.8470   34.5070   39.9200 C   0  0  0  0  0  0  0  0  0  0  0  0
   40.2230   34.6140   41.2180 N   0  0  0  0  0  0  0  0  0  0  0  0
   38.4900   34.1920   39.6690 N   0  0  0  0  0  0  0  0  0  0  0  0
   41.6680   34.9410   42.5870 H   0  0  0  0  0  0  0  0  0  0  0  0
   37.9230   33.6650   40.3690 H   0  0  0  0  0  0  0  0  0  0  0  0
   37.9550   34.4430   38.8070 H   0  0  0  0  0  0  0  0  0  0  0  0
   43.0150   35.0950   38.1940 N   0  0  0  0  0  0  0  0  0  0  0  0
   43.4380   34.3990   37.5400 H   0  0  0  0  0  0  0  0  0  0  0  0
   43.4780   36.0050   37.9300 H   0  0  0  0  0  0  0  0  0  0  0  0
  1  7  1  6  0  0  0
  1  6  1  0  0  0  0
  1  2  1  0  0  0  0
  2  8  1  0  0  0  0
  2  3  2  0  0  0  0
  3  9  1  0  0  0  0
  4  3  1  0  0  0  0
  4 11  1  0  0  0  0
  5 12  1  0  0  0  0
  5  4  1  0  0  0  0
  5 13  1  0  0  0  0
  6 14  1  6  0  0  0
  6  5  1  0  0  0  0
 10  4  1  0  0  0  0
 15 16  1  0  0  0  0
 16 17  1  0  0  0  0
 17 18  2  0  0  0  0
 17  6  1  0  0  0  0
 18 19  1  0  0  0  0
 20 21  1  0  0  0  0
 20 18  1  0  0  0  0
 22 20  2  0  0  0  0
 23 22  1  0  0  0  0
 24 22  1  0  0  0  0
 24 16  2  0  0  0  0
 25 24  1  0  0  0  0
 26 33  1  0  0  0  0
 27  1  1  0  0  0  0
 27 26  2  0  0  0  0
 28 27  1  0  0  0  0
 29 28  2  0  0  0  0
 29 30  1  0  0  0  0
 30 31  2  0  0  0  0
 31 26  1  0  0  0  0
 32 30  1  0  0  0  0
 32 34  1  0  0  0  0
 35 32  1  0  0  0  0
 36 28  1  0  0  0  0
 37 36  1  0  0  0  0
 38 36  1  0  0  0  0
M  END
>  <minimizedAffinity>
-5.91544485

>  <minimizedRMSD>
6.25735617

$$$$
