
 OpenBabel03252507493D

 47 49  0  0  0  0  0  0  0  0999 V2000
   46.7580   35.0180   41.9820 C   0  0  0  0  0  0  0  0  0  0  0  0
   46.9050   36.0970   42.1260 H   0  0  0  0  0  0  0  0  0  0  0  0
   47.2210   34.5430   42.8920 H   0  0  0  0  0  0  0  0  0  0  0  0
   45.3260   34.6650   42.0020 C   0  0  0  0  0  0  0  0  0  0  0  0
   44.3360   35.6830   41.8970 C   0  0  0  0  0  0  0  0  0  0  0  0
   42.7630   34.7680   41.9680 S   0  0  0  0  0  0  0  0  0  0  0  0
   43.7140   33.1080   42.1350 C   0  0  0  0  0  0  0  0  0  0  0  0
   44.7920   33.4760   42.1100 N   0  0  0  0  0  0  0  0  0  0  0  0
   44.4700   36.7520   41.7960 H   0  0  0  0  0  0  0  0  0  0  0  0
   43.0790   31.8780   42.2460 O   0  0  0  0  0  0  0  0  0  0  0  0
   41.0880   30.2590   41.6490 O   0  0  0  0  0  0  0  0  0  0  0  0
   41.5720   31.7060   41.4590 P   0  0  1  0  0  0  0  0  0  0  0  0
   40.4830   32.7390   42.2430 O   0  0  0  0  0  0  0  0  0  0  0  0
   40.5740   33.6600   41.9550 H   0  0  0  0  0  0  0  0  0  0  0  0
   41.7240   32.1290   39.8490 O   0  0  0  0  0  0  0  0  0  0  0  0
   42.9500   34.6160   38.5600 Cl  0  0  0  0  0  0  0  0  0  0  0  0
   41.2660   34.1600   38.4260 C   0  0  0  0  0  0  0  0  0  0  0  0
   40.9770   32.9950   39.1030 C   0  0  0  0  0  0  0  0  0  0  0  0
   39.6510   32.5430   39.0570 C   0  0  0  0  0  0  0  0  0  0  0  0
   39.2290   31.6410   39.5290 H   0  0  0  0  0  0  0  0  0  0  0  0
   38.6660   33.2460   38.3560 C   0  0  0  0  0  0  0  0  0  0  0  0
   37.6330   32.9350   38.2940 H   0  0  0  0  0  0  0  0  0  0  0  0
   38.9870   34.4090   37.6890 C   0  0  0  0  0  0  0  0  0  0  0  0
   38.2630   34.9970   37.1280 H   0  0  0  0  0  0  0  0  0  0  0  0
   40.2920   34.8490   37.7370 C   0  0  0  0  0  0  0  0  0  0  0  0
   40.8460   36.3020   36.9430 Cl  0  0  0  0  0  0  0  0  0  0  0  0
   47.5160   34.4750   40.8050 C   0  0  0  0  0  0  0  0  0  0  0  0
   46.8180   33.8140   40.2570 H   0  0  0  0  0  0  0  0  0  0  0  0
   47.7480   35.3300   40.1220 H   0  0  0  0  0  0  0  0  0  0  0  0
   48.7660   33.8030   41.1600 C   0  0  0  0  0  0  0  0  0  0  0  0
   49.0930   32.6620   40.4390 C   0  0  0  0  0  0  0  0  0  0  0  0
   50.2510   31.9570   40.6990 C   0  0  0  0  0  0  0  0  0  0  0  0
   51.0610   32.4520   41.7120 N   0  0  0  0  0  0  0  0  0  0  0  0
   50.7010   33.5730   42.3920 C   0  0  0  0  0  0  0  0  0  0  0  0
   49.5750   34.2380   42.1220 N   0  0  0  0  0  0  0  0  0  0  0  0
   50.5280   31.0770   40.1600 H   0  0  0  0  0  0  0  0  0  0  0  0
   51.4130   33.8720   43.1690 H   0  0  0  0  0  0  0  0  0  0  0  0
   47.9970   32.0890   39.1480 S   0  0  0  0  0  0  0  0  0  0  0  0
   48.7960   32.2290   37.5400 C   0  0  0  0  0  0  0  0  0  0  0  0
   48.4590   31.3900   36.8710 H   0  0  0  0  0  0  0  0  0  0  0  0
   49.9000   32.0770   37.6860 H   0  0  0  0  0  0  0  0  0  0  0  0
   48.4800   33.5800   36.9560 C   0  0  0  0  0  0  0  0  0  0  0  0
   47.6680   34.0790   37.5070 H   0  0  0  0  0  0  0  0  0  0  0  0
   49.3710   34.2550   37.0180 H   0  0  0  0  0  0  0  0  0  0  0  0
   48.0380   33.4070   35.6090 N   0  0  0  0  0  0  0  0  0  0  0  0
   48.2440   32.4610   35.2670 H   0  0  0  0  0  0  0  0  0  0  0  0
   48.5380   34.0660   34.9410 H   0  0  0  0  0  0  0  0  0  0  0  0
  1  4  1  0  0  0  0
  1  2  1  0  0  0  0
  1  3  1  0  0  0  0
  4  8  1  0  0  0  0
  5  6  1  0  0  0  0
  5  4  2  0  0  0  0
  6  7  1  0  0  0  0
  7 10  1  0  0  0  0
  8  7  2  0  0  0  0
  9  5  1  0  0  0  0
 12 11  2  1  0  0  0
 12 13  1  0  0  0  0
 12 10  1  0  0  0  0
 14 13  1  0  0  0  0
 15 12  1  0  0  0  0
 17 16  1  0  0  0  0
 17 18  1  0  0  0  0
 18 15  1  0  0  0  0
 19 18  2  0  0  0  0
 19 20  1  0  0  0  0
 21 19  1  0  0  0  0
 22 21  1  0  0  0  0
 23 25  1  0  0  0  0
 23 21  2  0  0  0  0
 24 23  1  0  0  0  0
 25 17  2  0  0  0  0
 26 25  1  0  0  0  0
 27 30  1  0  0  0  0
 27  1  1  0  0  0  0
 28 27  1  0  0  0  0
 29 27  1  0  0  0  0
 30 35  1  0  0  0  0
 31 32  1  0  0  0  0
 31 30  2  0  0  0  0
 32 33  2  0  0  0  0
 33 34  1  0  0  0  0
 34 37  1  0  0  0  0
 35 34  2  0  0  0  0
 36 32  1  0  0  0  0
 38 31  1  0  0  0  0
 39 41  1  0  0  0  0
 39 38  1  0  0  0  0
 40 39  1  0  0  0  0
 42 44  1  0  0  0  0
 42 43  1  0  0  0  0
 42 39  1  0  0  0  0
 45 42  1  0  0  0  0
 46 45  1  0  0  0  0
 47 45  1  0  0  0  0
M  END
>  <minimizedAffinity>
-5.53645182

>  <minimizedRMSD>
3.15329242

$$$$
