
 OpenBabel03252502213D

 35 37  0  0  1  0  0  0  0  0999 V2000
   46.7310   34.5330   42.3110 N   0  0  0  0  0  0  0  0  0  0  0  0
   48.1890   34.5180   42.3180 C   0  0  0  0  0  0  0  0  0  0  0  0
   48.5920   35.2930   41.0450 C   0  0  0  0  0  0  0  0  0  0  0  0
   48.1680   34.5360   39.8310 C   0  0  0  0  0  0  0  0  0  0  0  0
   46.8290   33.9040   39.9380 C   0  0  0  0  0  0  0  0  0  0  0  0
   45.9990   34.3090   41.1030 C   0  0  1  0  0  0  0  0  0  0  0  0
   48.5800   33.4780   42.1630 H   0  0  0  0  0  0  0  0  0  0  0  0
   48.6260   34.9670   43.2070 H   0  0  0  0  0  0  0  0  0  0  0  0
   47.9830   36.2200   41.0940 H   0  0  0  0  0  0  0  0  0  0  0  0
   49.6810   35.4640   41.0110 H   0  0  0  0  0  0  0  0  0  0  0  0
   48.9190   33.7360   39.6520 H   0  0  0  0  0  0  0  0  0  0  0  0
   48.2490   35.2100   38.9490 H   0  0  0  0  0  0  0  0  0  0  0  0
   46.8740   32.7800   39.8790 H   0  0  0  0  0  0  0  0  0  0  0  0
   46.2390   34.1840   39.0170 H   0  0  0  0  0  0  0  0  0  0  0  0
   45.5010   35.2940   40.8640 H   0  0  0  0  0  0  0  0  0  0  0  0
   43.2410   35.3900   40.6820 Cl  0  0  0  0  0  0  0  0  0  0  0  0
   43.5650   33.7170   41.0510 C   0  0  0  0  0  0  0  0  0  0  0  0
   44.8870   33.3370   41.2240 C   0  0  0  0  0  0  0  0  0  0  0  0
   45.0980   32.0060   41.5150 C   0  0  0  0  0  0  0  0  0  0  0  0
   46.0890   31.6230   41.6650 H   0  0  0  0  0  0  0  0  0  0  0  0
   44.0600   31.0860   41.6310 C   0  0  0  0  0  0  0  0  0  0  0  0
   44.2340   30.0330   41.8610 H   0  0  0  0  0  0  0  0  0  0  0  0
   42.7520   31.5430   41.4440 C   0  0  0  0  0  0  0  0  0  0  0  0
   41.9230   30.8520   41.5280 H   0  0  0  0  0  0  0  0  0  0  0  0
   42.4910   32.8590   41.1520 C   0  0  0  0  0  0  0  0  0  0  0  0
   40.8420   33.4160   40.9190 Cl  0  0  0  0  0  0  0  0  0  0  0  0
   44.4670   36.0540   44.8660 C   0  0  0  0  0  0  0  0  0  0  0  0
   45.1590   35.8820   43.6700 C   0  0  0  0  0  0  0  0  0  0  0  0
   45.9960   34.7710   43.5000 C   0  0  0  0  0  0  0  0  0  0  0  0
   46.0830   33.9040   44.5430 N   0  0  0  0  0  0  0  0  0  0  0  0
   45.4020   34.0860   45.7020 C   0  0  0  0  0  0  0  0  0  0  0  0
   44.5970   35.1570   45.8610 N   0  0  0  0  0  0  0  0  0  0  0  0
   43.8180   36.9070   45.0090 H   0  0  0  0  0  0  0  0  0  0  0  0
   45.0670   36.5900   42.8630 H   0  0  0  0  0  0  0  0  0  0  0  0
   45.4560   33.4140   46.5380 H   0  0  0  0  0  0  0  0  0  0  0  0
  1  2  1  0  0  0  0
  1 29  1  0  0  0  0
  2  8  1  0  0  0  0
  3  9  1  0  0  0  0
  3  2  1  0  0  0  0
  4  5  1  0  0  0  0
  4  3  1  0  0  0  0
  5  6  1  0  0  0  0
  6 15  1  6  0  0  0
  6 18  1  0  0  0  0
  6  1  1  0  0  0  0
  7  2  1  0  0  0  0
 10  3  1  0  0  0  0
 11  4  1  0  0  0  0
 12  4  1  0  0  0  0
 13  5  1  0  0  0  0
 14  5  1  0  0  0  0
 16 17  1  0  0  0  0
 17 25  2  0  0  0  0
 17 18  1  0  0  0  0
 18 19  2  0  0  0  0
 19 21  1  0  0  0  0
 19 20  1  0  0  0  0
 21 22  1  0  0  0  0
 23 24  1  0  0  0  0
 23 21  2  0  0  0  0
 25 23  1  0  0  0  0
 26 25  1  0  0  0  0
 27 33  1  0  0  0  0
 27 32  1  0  0  0  0
 28 27  2  0  0  0  0
 29 28  1  0  0  0  0
 29 30  2  0  0  0  0
 30 31  1  0  0  0  0
 31 32  2  0  0  0  0
 31 35  1  0  0  0  0
 34 28  1  0  0  0  0
M  END
>  <minimizedAffinity>
-5.76996374

>  <minimizedRMSD>
1.30924439

$$$$
