
 OpenBabel03242523373D

 21 23  0  0  0  0  0  0  0  0999 V2000
   46.6210   32.9460   46.9240 C   0  0  0  0  0  3  0  0  0  0  0  0
   46.2270   32.6510   45.6410 C   0  0  0  0  0  0  0  0  0  0  0  0
   45.9550   31.3520   45.1950 C   0  0  0  0  0  0  0  0  0  0  0  0
   45.6510   31.1390   44.2010 H   0  0  0  0  0  0  0  0  0  0  0  0
   46.1160   30.3730   46.1720 C   0  0  0  0  0  0  0  0  0  0  0  0
   46.5060   30.5920   47.4760 C   0  0  0  0  0  0  0  0  0  0  0  0
   46.7510   31.9150   47.8080 C   0  0  0  0  0  3  0  0  0  0  0  0
   46.5370   29.3500   48.0930 O   0  0  0  0  0  0  0  0  0  0  0  0
   46.3550   28.3500   47.1270 C   0  0  0  0  0  3  0  0  0  0  0  0
   45.6000   27.6070   47.4650 H   0  0  0  0  0  0  0  0  0  0  0  0
   45.9020   28.9960   45.9710 O   0  0  0  0  0  0  0  0  0  0  0  0
   44.9350   35.6250   43.9020 C   0  0  0  0  0  0  0  0  0  0  0  0
   45.8340   35.7570   42.8140 C   0  0  0  0  0  0  0  0  0  0  0  0
   46.8730   34.8050   42.7070 C   0  0  0  0  0  0  0  0  0  0  0  0
   46.9520   33.8320   43.6400 N   0  0  0  0  0  0  0  0  0  0  0  0
   46.0770   33.7440   44.6580 C   0  0  0  0  0  0  0  0  0  0  0  0
   45.0850   34.6270   44.7870 N   0  0  0  0  0  0  0  0  0  0  0  0
   44.1880   36.3890   43.8960 H   0  0  0  0  0  0  0  0  0  0  0  0
   45.7540   36.5400   42.0810 H   0  0  0  0  0  0  0  0  0  0  0  0
   48.0310   34.9150   41.3660 S   0  0  0  0  0  0  0  0  0  0  0  0
   48.7470   33.6830   41.3220 H   0  0  0  0  0  0  0  0  0  0  0  0
  1  7  1  0  0  0  0
  2  1  2  0  0  0  0
  3  2  1  0  0  0  0
  3  5  2  0  0  0  0
  4  3  1  0  0  0  0
  5  6  1  0  0  0  0
  6  7  2  0  0  0  0
  6  8  1  0  0  0  0
  9 10  1  0  0  0  0
  9  8  1  0  0  0  0
 11  5  1  0  0  0  0
 11  9  1  0  0  0  0
 12 17  1  0  0  0  0
 13 12  2  0  0  0  0
 14 13  1  0  0  0  0
 14 15  2  0  0  0  0
 15 16  1  0  0  0  0
 16 17  2  0  0  0  0
 16  2  1  0  0  0  0
 18 12  1  0  0  0  0
 19 13  1  0  0  0  0
 20 14  1  0  0  0  0
 21 20  1  0  0  0  0
M  END
>  <minimizedAffinity>
-4.37285709

>  <minimizedRMSD>
1.28249383

$$$$
