
 OpenBabel03242513073D

 43 48  0  0  0  0  0  0  0  0999 V2000
   45.9390   33.2200   41.6170 C   0  0  0  0  0  0  0  0  0  0  0  0
   47.1170   33.9110   41.3090 C   0  0  0  0  0  0  0  0  0  0  0  0
   48.0820   33.9640   42.2920 C   0  0  0  0  0  0  0  0  0  0  0  0
   47.8200   33.3450   43.4800 N   0  0  0  0  0  0  0  0  0  0  0  0
   46.7000   32.6940   43.7600 C   0  0  0  0  0  0  0  0  0  0  0  0
   45.7420   32.6260   42.8200 N   0  0  0  0  0  0  0  0  0  0  0  0
   45.1570   33.1580   40.8690 H   0  0  0  0  0  0  0  0  0  0  0  0
   46.7290   30.7210   45.2210 C   0  0  0  0  0  0  0  0  0  0  0  0
   46.5130   32.0680   45.0510 C   0  0  0  0  0  0  0  0  0  0  0  0
   46.1070   32.9030   46.1000 C   0  0  0  0  0  0  0  0  0  0  0  0
   45.9050   32.3840   47.3730 C   0  0  0  0  0  0  0  0  0  0  0  0
   45.5270   32.8620   48.5840 N   0  0  0  0  0  0  0  0  0  0  0  0
   45.5160   31.8240   49.4660 C   0  0  0  0  0  0  0  0  0  0  0  0
   45.8870   30.7170   48.7830 N   0  0  0  0  0  0  0  0  0  0  0  0
   46.1310   31.0300   47.5010 C   0  0  0  0  0  0  0  0  0  0  0  0
   46.5330   30.1760   46.4890 C   0  0  0  0  0  0  0  0  0  0  0  0
   47.0420   30.0740   44.4170 H   0  0  0  0  0  0  0  0  0  0  0  0
   45.9370   33.9750   45.9600 H   0  0  0  0  0  0  0  0  0  0  0  0
   45.3020   33.8820   48.7170 H   0  0  0  0  0  0  0  0  0  0  0  0
   45.2410   31.9680   50.5130 H   0  0  0  0  0  0  0  0  0  0  0  0
   46.6880   29.1210   46.6770 H   0  0  0  0  0  0  0  0  0  0  0  0
   49.3530   34.6780   42.0320 C   0  0  0  0  0  0  0  0  0  0  0  0
   49.1250   35.8140   41.2410 F   0  0  0  0  0  0  0  0  0  0  0  0
   49.8980   35.1370   43.2070 F   0  0  0  0  0  0  0  0  0  0  0  0
   50.2030   33.8230   41.3730 F   0  0  0  0  0  0  0  0  0  0  0  0
   47.2480   34.4820   40.0860 O   0  0  0  0  0  0  0  0  0  0  0  0
   47.3740   33.7470   38.9330 C   0  0  0  0  0  0  0  0  0  0  0  0
   48.4000   34.3930   38.2530 C   0  0  0  0  0  0  0  0  0  0  0  0
   48.5610   33.3970   36.7040 S   0  0  0  0  0  0  0  0  0  0  0  0
   47.1820   32.2630   37.2680 C   0  0  0  0  0  0  0  0  0  0  0  0
   46.9510   32.7390   38.2360 N   0  0  0  0  0  0  0  0  0  0  0  0
   49.1760   35.2640   38.2410 H   0  0  0  0  0  0  0  0  0  0  0  0
   46.1510   30.0380   36.8470 C   0  0  0  0  0  3  0  0  0  0  0  0
   46.7910   31.1430   36.3800 C   0  0  0  0  0  0  0  0  0  0  0  0
   47.1570   31.3830   35.0770 C   0  0  0  0  0  0  0  0  0  0  0  0
   47.6660   32.2670   34.7190 H   0  0  0  0  0  0  0  0  0  0  0  0
   46.8440   30.4000   34.1320 C   0  0  0  0  0  0  0  0  0  0  0  0
   46.1900   29.2650   34.5970 C   0  0  0  0  0  0  0  0  0  0  0  0
   45.8290   29.0490   35.9320 C   0  0  0  0  0  3  0  0  0  0  0  0
   45.9900   28.4390   33.4770 O   0  0  0  0  0  0  0  0  0  0  0  0
   46.1070   29.2340   32.2940 C   0  0  0  0  0  3  0  0  0  0  0  0
   46.5180   28.6700   31.4560 H   0  0  0  0  0  0  0  0  0  0  0  0
   47.0260   30.2400   32.7490 O   0  0  0  0  0  0  0  0  0  0  0  0
  1  6  1  0  0  0  0
  2  1  2  0  0  0  0
  2  3  1  0  0  0  0
  3  4  2  0  0  0  0
  4  5  1  0  0  0  0
  5  9  1  0  0  0  0
  6  5  2  0  0  0  0
  7  1  1  0  0  0  0
  8 16  1  0  0  0  0
  9  8  2  0  0  0  0
  9 10  1  0  0  0  0
 10 11  2  0  0  0  0
 11 15  1  0  0  0  0
 11 12  1  0  0  0  0
 12 19  1  0  0  0  0
 12 13  1  0  0  0  0
 13 20  1  0  0  0  0
 14 13  2  0  0  0  0
 15 14  1  0  0  0  0
 16 21  1  0  0  0  0
 16 15  2  0  0  0  0
 17  8  1  0  0  0  0
 18 10  1  0  0  0  0
 22  3  1  0  0  0  0
 22 24  1  0  0  0  0
 23 22  1  0  0  0  0
 25 22  1  0  0  0  0
 26  2  1  0  0  0  0
 27 26  1  0  0  0  0
 28 27  2  0  0  0  0
 29 30  1  0  0  0  0
 29 28  1  0  0  0  0
 30 31  2  0  0  0  0
 31 27  1  0  0  0  0
 32 28  1  0  0  0  0
 34 33  1  0  0  0  0
 34 30  1  0  0  0  0
 35 34  2  0  0  0  0
 36 35  1  0  0  0  0
 37 38  2  0  0  0  0
 37 35  1  0  0  0  0
 38 39  1  0  0  0  0
 39 33  2  0  0  0  0
 40 38  1  0  0  0  0
 41 43  1  0  0  0  0
 41 40  1  0  0  0  0
 42 41  1  0  0  0  0
 43 37  1  0  0  0  0
M  END
>  <minimizedAffinity>
-6.77606153

>  <minimizedRMSD>
0.342507333

$$$$
