
 OpenBabel03252508323D

 34 37  0  0  1  0  0  0  0  0999 V2000
   43.1290   33.3000   41.0820 N   0  0  0  0  0  0  0  0  0  0  0  0
   41.7690   33.4710   41.4220 C   0  0  1  0  0  0  0  0  0  0  0  0
   41.2560   34.8630   41.3740 C   0  0  0  0  0  0  0  0  0  0  0  0
   42.1530   35.8910   41.7010 N   0  0  0  0  0  0  0  0  0  0  0  0
   43.5110   35.7070   41.3840 C   0  0  0  0  0  0  0  0  0  0  0  0
   43.7380   34.4730   40.5330 C   0  0  0  0  0  0  0  0  0  0  0  0
   41.6240   33.0880   42.4720 H   0  0  0  0  0  0  0  0  0  0  0  0
   40.3330   34.9450   41.9840 H   0  0  0  0  0  0  0  0  0  0  0  0
   40.9070   35.0510   40.3150 H   0  0  0  0  0  0  0  0  0  0  0  0
   42.0990   36.0450   42.7510 H   0  0  0  0  0  0  0  0  0  0  0  0
   44.2190   35.6830   42.2310 H   0  0  0  0  0  0  0  0  0  0  0  0
   43.8270   36.5720   40.7450 H   0  0  0  0  0  0  0  0  0  0  0  0
   43.3200   34.6650   39.5020 H   0  0  0  0  0  0  0  0  0  0  0  0
   44.8330   34.4240   40.3920 H   0  0  0  0  0  0  0  0  0  0  0  0
   40.6180   32.9350   39.2300 C   0  0  0  0  0  3  0  0  0  0  0  0
   40.8400   32.6580   40.5590 C   0  0  0  0  0  0  0  0  0  0  0  0
   40.1130   31.5630   41.0380 C   0  0  0  0  0  0  0  0  0  0  0  0
   40.2410   31.2880   42.0780 H   0  0  0  0  0  0  0  0  0  0  0  0
   39.2510   30.8190   40.2650 C   0  0  0  0  0  0  0  0  0  0  0  0
   39.0810   31.1590   38.9420 C   0  0  0  0  0  0  0  0  0  0  0  0
   39.7720   32.2310   38.4140 C   0  0  0  0  0  3  0  0  0  0  0  0
   38.1590   30.2410   38.4130 O   0  0  0  0  0  0  0  0  0  0  0  0
   37.5180   29.5570   39.4820 C   0  0  0  0  0  3  0  0  0  0  0  0
   36.5480   30.0620   39.6700 H   0  0  0  0  0  0  0  0  0  0  0  0
   38.4510   29.7210   40.5320 O   0  0  0  0  0  0  0  0  0  0  0  0
   44.3210   31.4340   40.1810 C   0  0  0  0  0  0  0  0  0  0  0  0
   43.7360   32.0430   41.2990 C   0  0  0  0  0  0  0  0  0  0  0  0
   43.8030   31.3670   42.5030 C   0  0  0  0  0  0  0  0  0  0  0  0
   44.4130   30.1540   42.6010 N   0  0  0  0  0  0  0  0  0  0  0  0
   44.9720   29.5900   41.4870 C   0  0  0  0  0  0  0  0  0  0  0  0
   44.9160   30.2360   40.3040 N   0  0  0  0  0  0  0  0  0  0  0  0
   44.3780   31.7830   39.1640 H   0  0  0  0  0  0  0  0  0  0  0  0
   43.3640   31.8270   43.3680 H   0  0  0  0  0  0  0  0  0  0  0  0
   45.4520   28.6240   41.5880 H   0  0  0  0  0  0  0  0  0  0  0  0
  1 27  1  0  0  0  0
  1  2  1  0  0  0  0
  2  7  1  1  0  0  0
  3  2  1  0  0  0  0
  3  4  1  0  0  0  0
  3  8  1  0  0  0  0
  4 10  1  0  0  0  0
  5  4  1  0  0  0  0
  5 11  1  0  0  0  0
  6  1  1  0  0  0  0
  6  5  1  0  0  0  0
  9  3  1  0  0  0  0
 12  5  1  0  0  0  0
 13  6  1  0  0  0  0
 14  6  1  0  0  0  0
 15 16  1  0  0  0  0
 16 17  2  0  0  0  0
 16  2  1  0  0  0  0
 17 18  1  0  0  0  0
 19 25  1  0  0  0  0
 19 17  1  0  0  0  0
 20 19  2  0  0  0  0
 21 20  1  0  0  0  0
 21 15  2  0  0  0  0
 22 20  1  0  0  0  0
 22 23  1  0  0  0  0
 23 24  1  0  0  0  0
 23 25  1  0  0  0  0
 26 31  2  0  0  0  0
 26 27  1  0  0  0  0
 27 28  2  0  0  0  0
 28 29  1  0  0  0  0
 28 33  1  0  0  0  0
 30 34  1  0  0  0  0
 30 29  2  0  0  0  0
 31 30  1  0  0  0  0
 32 26  1  0  0  0  0
M  END
>  <minimizedAffinity>
-3.7140677

>  <minimizedRMSD>
6.8546195

$$$$
