
 OpenBabel03242516163D

 45 49  0  0  1  0  0  0  0  0999 V2000
   46.2830   35.7910   42.6270 C   0  0  0  0  0  0  0  0  0  0  0  0
   46.8370   34.5140   42.4810 C   0  0  0  0  0  0  0  0  0  0  0  0
   46.4050   33.5080   43.3500 C   0  0  0  0  0  0  0  0  0  0  0  0
   45.4710   33.8220   44.2900 N   0  0  0  0  0  0  0  0  0  0  0  0
   44.9800   35.0600   44.3810 C   0  0  0  0  0  0  0  0  0  0  0  0
   45.3620   36.0280   43.5810 N   0  0  0  0  0  0  0  0  0  0  0  0
   43.9990   35.4130   45.3620 N   0  0  0  0  0  0  0  0  0  0  0  0
   46.6190   36.5710   41.9510 H   0  0  0  0  0  0  0  0  0  0  0  0
   44.3050   36.1780   46.0200 H   0  0  0  0  0  0  0  0  0  0  0  0
   43.0760   34.8910   45.3470 H   0  0  0  0  0  0  0  0  0  0  0  0
   47.8710   34.2580   41.4250 C   0  0  0  0  0  0  0  0  0  0  0  0
   48.7840   35.4370   41.1040 C   0  0  0  0  0  0  0  0  0  0  0  0
   49.2510   34.2540   41.8040 C   0  0  0  0  0  0  0  0  0  0  0  0
   49.1150   35.6070   40.0560 H   0  0  0  0  0  0  0  0  0  0  0  0
   48.4850   36.4020   41.5710 H   0  0  0  0  0  0  0  0  0  0  0  0
   49.9500   33.5820   41.2270 H   0  0  0  0  0  0  0  0  0  0  0  0
   49.7510   34.6180   42.7170 H   0  0  0  0  0  0  0  0  0  0  0  0
   47.4320   33.5300   40.2020 C   0  0  0  0  0  0  0  0  0  0  0  0
   47.9820   34.0620   38.8950 C   0  0  0  0  0  0  0  0  0  0  0  0
   47.4890   33.1040   37.8210 C   0  0  0  0  0  0  0  0  0  0  0  0
   46.1270   33.4120   37.6220 O   0  0  0  0  0  0  0  0  0  0  0  0
   45.5140   32.8660   38.7800 C   0  0  0  0  0  0  0  0  0  0  0  0
   45.9000   33.6830   40.0000 C   0  0  0  0  0  0  0  0  0  0  0  0
   47.6570   32.4660   40.2660 H   0  0  0  0  0  0  0  0  0  0  0  0
   49.1010   33.9540   38.8860 H   0  0  0  0  0  0  0  0  0  0  0  0
   47.6440   35.0920   38.6670 H   0  0  0  0  0  0  0  0  0  0  0  0
   48.0180   33.2700   36.8470 H   0  0  0  0  0  0  0  0  0  0  0  0
   47.5590   32.0580   38.1520 H   0  0  0  0  0  0  0  0  0  0  0  0
   44.4340   32.9720   38.6080 H   0  0  0  0  0  0  0  0  0  0  0  0
   45.8590   31.8360   38.9560 H   0  0  0  0  0  0  0  0  0  0  0  0
   45.4140   33.1630   40.8580 H   0  0  0  0  0  0  0  0  0  0  0  0
   45.6180   34.7370   39.9350 H   0  0  0  0  0  0  0  0  0  0  0  0
   46.9100   32.1760   43.3080 C   0  0  2  0  0  0  0  0  0  0  0  0
   46.4580   31.2160   42.5570 O   0  0  0  0  0  0  0  0  0  0  0  0
   48.9930   30.7450   43.2310 C   0  0  0  0  0  0  0  0  0  0  0  0
   47.8760   31.2520   43.8350 C   0  0  0  0  0  0  0  0  0  0  0  0
   47.6030   30.7120   45.0990 C   0  0  0  0  0  0  0  0  0  0  0  0
   46.7380   31.0530   45.6550 H   0  0  0  0  0  0  0  0  0  0  0  0
   48.3370   29.7590   45.7450 C   0  0  0  0  0  0  0  0  0  0  0  0
   49.4500   29.2780   45.1050 C   0  0  0  0  0  0  0  0  0  0  0  0
   49.7690   29.7660   43.8670 C   0  0  0  0  0  0  0  0  0  0  0  0
   50.0410   28.3220   45.9450 O   0  0  0  0  0  0  0  0  0  0  0  0
   49.0610   27.9150   46.8950 C   0  0  0  0  0  0  0  0  0  0  0  0
   49.5310   27.6390   47.8370 H   0  0  0  0  0  0  0  0  0  0  0  0
   48.2450   29.0940   46.9820 O   0  0  0  0  0  0  0  0  0  0  0  0
  1  6  1  0  0  0  0
  2  1  2  0  0  0  0
  2  3  1  0  0  0  0
  3  4  2  0  0  0  0
  4  5  1  0  0  0  0
  5  7  1  0  0  0  0
  6  5  2  0  0  0  0
  7  9  1  0  0  0  0
  8  1  1  0  0  0  0
 10  7  1  0  0  0  0
 11 13  1  0  0  0  0
 11  2  1  0  0  0  0
 12 11  1  0  0  0  0
 12 15  1  0  0  0  0
 12 13  1  0  0  0  0
 13 17  1  0  0  0  0
 14 12  1  0  0  0  0
 16 13  1  0  0  0  0
 18 24  1  0  0  0  0
 18 11  1  0  0  0  0
 19 18  1  0  0  0  0
 20 28  1  0  0  0  0
 20 19  1  0  0  0  0
 21 20  1  0  0  0  0
 21 22  1  0  0  0  0
 22 30  1  0  0  0  0
 22 23  1  0  0  0  0
 23 18  1  0  0  0  0
 23 31  1  0  0  0  0
 25 19  1  0  0  0  0
 26 19  1  0  0  0  0
 27 20  1  0  0  0  0
 29 22  1  0  0  0  0
 32 23  1  0  0  0  0
 33 34  1  1  0  0  0
 33  3  1  0  0  0  0
 33 36  1  0  0  0  0
 35 36  2  0  0  0  0
 35 41  1  0  0  0  0
 36 37  1  0  0  0  0
 37 38  1  0  0  0  0
 37 39  2  0  0  0  0
 39 45  1  0  0  0  0
 40 39  1  0  0  0  0
 40 42  1  0  0  0  0
 41 40  2  0  0  0  0
 42 43  1  0  0  0  0
 43 45  1  0  0  0  0
 43 44  1  0  0  0  0
M  END
>  <minimizedAffinity>
-5.50319958

>  <minimizedRMSD>
1.84009731

$$$$
