
 OpenBabel03242510233D

 40 44  0  0  1  0  0  0  0  0999 V2000
   48.0620   33.1980   43.2610 N   0  0  0  0  0  0  0  0  0  0  0  0
   49.2120   33.2130   42.4830 C   0  0  0  0  0  0  0  0  0  0  0  0
   50.3600   32.7400   42.6980 O   0  0  0  0  0  0  0  0  0  0  0  0
   47.5640   34.1140   43.2350 H   0  0  0  0  0  0  0  0  0  0  0  0
   46.2480   32.0820   44.5070 C   0  0  1  0  0  0  0  0  0  0  0  0
   46.4190   31.3430   43.3320 C   0  0  0  0  0  0  0  0  0  0  0  0
   47.6360   32.0630   43.9960 C   0  0  1  0  0  0  0  0  0  0  0  0
   46.0480   31.6200   45.5040 H   0  0  0  0  0  0  0  0  0  0  0  0
   46.1870   31.6340   42.2940 H   0  0  0  0  0  0  0  0  0  0  0  0
   46.4410   30.2120   43.4100 H   0  0  0  0  0  0  0  0  0  0  0  0
   48.3710   31.3340   44.3930 H   0  0  0  0  0  0  0  0  0  0  0  0
   45.0370   33.9570   43.1640 C   0  0  0  0  0  0  0  0  0  0  0  0
   45.5190   33.4340   44.4060 C   0  0  0  0  0  0  0  0  0  0  0  0
   45.3290   34.2010   45.5360 C   0  0  0  0  0  0  0  0  0  0  0  0
   44.7080   35.3940   45.4240 N   0  0  0  0  0  0  0  0  0  0  0  0
   44.2570   35.8780   44.2380 C   0  0  0  0  0  0  0  0  0  0  0  0
   44.4320   35.1250   43.0740 N   0  0  0  0  0  0  0  0  0  0  0  0
   45.1680   33.3510   42.2890 H   0  0  0  0  0  0  0  0  0  0  0  0
   45.6820   33.8330   46.4960 H   0  0  0  0  0  0  0  0  0  0  0  0
   43.7670   36.8420   44.2120 H   0  0  0  0  0  0  0  0  0  0  0  0
   49.1750   33.8850   41.1200 C   0  0  2  0  0  0  0  0  0  0  0  0
   48.7160   35.3910   41.1050 C   0  0  0  0  0  0  0  0  0  0  0  0
   47.9100   34.2820   40.4960 C   0  0  1  0  0  0  0  0  0  0  0  0
   50.0710   33.7760   40.4750 H   0  0  0  0  0  0  0  0  0  0  0  0
   48.4050   35.7350   42.1130 H   0  0  0  0  0  0  0  0  0  0  0  0
   49.2040   36.0660   40.4070 H   0  0  0  0  0  0  0  0  0  0  0  0
   47.0330   33.8080   40.9880 H   0  0  0  0  0  0  0  0  0  0  0  0
   47.8300   34.2310   38.9890 C   0  0  0  0  0  0  0  0  0  0  0  0
   48.6740   34.8210   38.3210 O   0  0  0  0  0  0  0  0  0  0  0  0
   46.7520   33.1920   36.9540 C   0  0  0  0  0  3  0  0  0  0  0  0
   46.7760   33.4950   38.2990 C   0  0  0  0  0  0  0  0  0  0  0  0
   45.6810   33.0350   38.9990 C   0  0  0  0  0  0  0  0  0  0  0  0
   45.5630   33.2000   40.0660 H   0  0  0  0  0  0  0  0  0  0  0  0
   44.6420   32.3330   38.4260 C   0  0  0  0  0  0  0  0  0  0  0  0
   44.6630   32.0540   37.0780 C   0  0  0  0  0  0  0  0  0  0  0  0
   45.7340   32.4930   36.3430 C   0  0  0  0  0  3  0  0  0  0  0  0
   43.5030   31.3410   36.7730 O   0  0  0  0  0  0  0  0  0  0  0  0
   42.5450   31.6170   37.8040 C   0  0  0  0  0  3  0  0  0  0  0  0
   42.1060   32.6430   37.6800 H   0  0  0  0  0  0  0  0  0  0  0  0
   43.4520   31.7720   38.9050 O   0  0  0  0  0  0  0  0  0  0  0  0
  1  7  1  0  0  0  0
  2  3  2  0  0  0  0
  2  1  1  0  0  0  0
  4  1  1  0  0  0  0
  5  8  1  1  0  0  0
  6 10  1  0  0  0  0
  6  7  1  0  0  0  0
  6  5  1  0  0  0  0
  7 11  1  1  0  0  0
  7  5  1  0  0  0  0
  9  6  1  0  0  0  0
 12 13  1  0  0  0  0
 13  5  1  0  0  0  0
 13 14  2  0  0  0  0
 14 19  1  0  0  0  0
 15 14  1  0  0  0  0
 16 15  2  0  0  0  0
 17 12  2  0  0  0  0
 17 16  1  0  0  0  0
 18 12  1  0  0  0  0
 20 16  1  0  0  0  0
 21 24  1  6  0  0  0
 21  2  1  0  0  0  0
 22 21  1  0  0  0  0
 22 25  1  0  0  0  0
 23 27  1  1  0  0  0
 23 22  1  0  0  0  0
 23 21  1  0  0  0  0
 26 22  1  0  0  0  0
 28 23  1  0  0  0  0
 29 28  2  0  0  0  0
 30 31  1  0  0  0  0
 31 28  1  0  0  0  0
 31 32  2  0  0  0  0
 32 33  1  0  0  0  0
 34 40  1  0  0  0  0
 34 32  1  0  0  0  0
 35 34  2  0  0  0  0
 36 30  2  0  0  0  0
 36 35  1  0  0  0  0
 37 35  1  0  0  0  0
 37 38  1  0  0  0  0
 38 40  1  0  0  0  0
 39 38  1  0  0  0  0
M  END
>  <minimizedAffinity>
-5.19239902

>  <minimizedRMSD>
0.657964706

$$$$
