
 OpenBabel03252508533D

 45 49  0  0  1  0  0  0  0  0999 V2000
   43.3230   34.5300   40.7030 C   0  0  0  0  0  0  0  0  0  0  0  0
   43.3940   35.7040   40.2050 O   0  0  0  0  0  0  0  0  0  0  0  0
   41.9120   34.2580   40.5030 N   0  0  0  0  0  0  0  0  0  0  0  0
   41.4850   34.2720   39.1190 C   0  0  0  0  0  0  0  0  0  0  0  0
   40.8380   35.6610   38.9210 C   0  0  0  0  0  0  0  0  0  0  0  0
   40.1320   35.9990   40.2430 C   0  0  0  0  0  0  0  0  0  0  0  0
   39.6570   34.7430   40.9400 C   0  0  0  0  0  0  0  0  0  0  0  0
   40.8800   33.9770   41.4750 C   0  0  1  0  0  0  0  0  0  0  0  0
   42.3130   34.2250   38.3940 H   0  0  0  0  0  0  0  0  0  0  0  0
   40.7550   33.4850   38.8690 H   0  0  0  0  0  0  0  0  0  0  0  0
   41.6480   36.4170   38.8090 H   0  0  0  0  0  0  0  0  0  0  0  0
   40.1710   35.6920   38.0600 H   0  0  0  0  0  0  0  0  0  0  0  0
   39.2180   36.5620   39.9640 H   0  0  0  0  0  0  0  0  0  0  0  0
   40.7870   36.5560   40.9340 H   0  0  0  0  0  0  0  0  0  0  0  0
   39.1870   34.1130   40.1440 H   0  0  0  0  0  0  0  0  0  0  0  0
   38.9870   35.0450   41.7430 H   0  0  0  0  0  0  0  0  0  0  0  0
   41.2110   34.3760   42.4390 H   0  0  0  0  0  0  0  0  0  0  0  0
   41.4680   31.5620   41.9720 C   0  0  0  0  0  3  0  0  0  0  0  0
   40.5620   32.5350   41.6110 C   0  0  0  0  0  0  0  0  0  0  0  0
   39.2560   32.1440   41.3570 C   0  0  0  0  0  0  0  0  0  0  0  0
   38.4520   32.8340   41.0630 H   0  0  0  0  0  0  0  0  0  0  0  0
   38.8620   30.8250   41.4570 C   0  0  0  0  0  0  0  0  0  0  0  0
   39.7940   29.8550   41.8240 C   0  0  0  0  0  0  0  0  0  0  0  0
   41.0940   30.2250   42.0800 C   0  0  0  0  0  3  0  0  0  0  0  0
   39.1380   28.6100   41.8500 O   0  0  0  0  0  0  0  0  0  0  0  0
   37.7630   28.9380   42.0980 C   0  0  0  0  0  3  0  0  0  0  0  0
   37.0770   28.1440   41.8030 H   0  0  0  0  0  0  0  0  0  0  0  0
   37.6630   30.1110   41.2750 O   0  0  0  0  0  0  0  0  0  0  0  0
   44.3450   33.8170   41.2470 O   0  0  0  0  0  0  0  0  0  0  0  0
   45.6930   34.0500   41.1220 C   0  0  0  0  0  0  0  0  0  0  0  0
   46.3530   34.6330   42.2010 C   0  0  0  0  0  0  0  0  0  0  0  0
   47.7290   34.8600   42.0490 C   0  0  0  0  0  0  0  0  0  0  0  0
   48.3300   34.5010   40.8690 N   0  0  0  0  0  0  0  0  0  0  0  0
   47.6420   33.9470   39.8730 C   0  0  0  0  0  0  0  0  0  0  0  0
   46.3280   33.7160   39.9870 N   0  0  0  0  0  0  0  0  0  0  0  0
   48.2420   35.3130   42.8830 H   0  0  0  0  0  0  0  0  0  0  0  0
   48.1380   33.6670   38.9420 H   0  0  0  0  0  0  0  0  0  0  0  0
   45.6230   34.9750   43.4030 C   0  0  0  0  0  0  0  0  0  0  0  0
   45.0360   36.2270   43.5980 C   0  0  0  0  0  0  0  0  0  0  0  0
   44.4620   36.1220   44.8380 C   0  0  0  0  0  0  0  0  0  0  0  0
   44.6780   34.8940   45.3700 N   0  0  0  0  0  0  0  0  0  0  0  0
   45.3800   34.2320   44.4770 N   0  0  0  0  0  0  0  0  0  0  0  0
   45.0530   37.0590   42.9080 H   0  0  0  0  0  0  0  0  0  0  0  0
   43.9090   36.9450   45.3000 H   0  0  0  0  0  0  0  0  0  0  0  0
   44.3080   34.6320   46.3200 H   0  0  0  0  0  0  0  0  0  0  0  0
  1 29  1  0  0  0  0
  2  1  2  0  0  0  0
  3  1  1  0  0  0  0
  3  8  1  0  0  0  0
  4  3  1  0  0  0  0
  5  4  1  0  0  0  0
  5  6  1  0  0  0  0
  6 14  1  0  0  0  0
  6  7  1  0  0  0  0
  7  8  1  0  0  0  0
  7 16  1  0  0  0  0
  8 19  1  0  0  0  0
  8 17  1  1  0  0  0
  9  4  1  0  0  0  0
 10  4  1  0  0  0  0
 11  5  1  0  0  0  0
 12  5  1  0  0  0  0
 13  6  1  0  0  0  0
 15  7  1  0  0  0  0
 18 24  1  0  0  0  0
 19 18  2  0  0  0  0
 20 22  2  0  0  0  0
 20 19  1  0  0  0  0
 21 20  1  0  0  0  0
 22 23  1  0  0  0  0
 23 25  1  0  0  0  0
 23 24  2  0  0  0  0
 25 26  1  0  0  0  0
 27 26  1  0  0  0  0
 28 22  1  0  0  0  0
 28 26  1  0  0  0  0
 30 29  1  0  0  0  0
 30 31  1  0  0  0  0
 31 38  1  0  0  0  0
 32 31  2  0  0  0  0
 32 36  1  0  0  0  0
 33 32  1  0  0  0  0
 34 35  1  0  0  0  0
 34 33  2  0  0  0  0
 35 30  2  0  0  0  0
 37 34  1  0  0  0  0
 38 39  1  0  0  0  0
 38 42  2  0  0  0  0
 39 40  2  0  0  0  0
 40 44  1  0  0  0  0
 40 41  1  0  0  0  0
 41 45  1  0  0  0  0
 42 41  1  0  0  0  0
 43 39  1  0  0  0  0
M  END
>  <minimizedAffinity>
-7.24212313

>  <minimizedRMSD>
1.5231328

$$$$
