
 OpenBabel03242516163D

 45 49  0  0  1  0  0  0  0  0999 V2000
   46.3280   35.8260   42.6720 C   0  0  0  0  0  0  0  0  0  0  0  0
   46.9160   34.5720   42.4690 C   0  0  0  0  0  0  0  0  0  0  0  0
   46.4950   33.5130   43.2780 C   0  0  0  0  0  0  0  0  0  0  0  0
   45.5400   33.7560   44.2170 N   0  0  0  0  0  0  0  0  0  0  0  0
   45.0180   34.9750   44.3640 C   0  0  0  0  0  0  0  0  0  0  0  0
   45.3890   35.9920   43.6220 N   0  0  0  0  0  0  0  0  0  0  0  0
   44.0140   35.2540   45.3470 N   0  0  0  0  0  0  0  0  0  0  0  0
   46.6560   36.6480   42.0420 H   0  0  0  0  0  0  0  0  0  0  0  0
   44.2910   35.9900   46.0470 H   0  0  0  0  0  0  0  0  0  0  0  0
   43.1040   34.7120   45.2900 H   0  0  0  0  0  0  0  0  0  0  0  0
   47.9720   34.3960   41.4180 C   0  0  0  0  0  0  0  0  0  0  0  0
   48.8020   35.6370   41.1100 C   0  0  0  0  0  0  0  0  0  0  0  0
   49.3460   34.4840   41.8060 C   0  0  0  0  0  0  0  0  0  0  0  0
   49.1270   35.8360   40.0660 H   0  0  0  0  0  0  0  0  0  0  0  0
   48.4340   36.5760   41.5810 H   0  0  0  0  0  0  0  0  0  0  0  0
   50.0930   33.8670   41.2290 H   0  0  0  0  0  0  0  0  0  0  0  0
   49.8140   34.8770   42.7240 H   0  0  0  0  0  0  0  0  0  0  0  0
   47.5910   33.6470   40.1880 C   0  0  0  0  0  0  0  0  0  0  0  0
   48.1320   34.2100   38.8900 C   0  0  0  0  0  0  0  0  0  0  0  0
   47.7080   33.2290   37.8070 C   0  0  0  0  0  0  0  0  0  0  0  0
   46.3340   33.4640   37.5880 O   0  0  0  0  0  0  0  0  0  0  0  0
   45.7340   32.8830   38.7360 C   0  0  0  0  0  0  0  0  0  0  0  0
   46.0570   33.7180   39.9620 C   0  0  0  0  0  0  0  0  0  0  0  0
   47.8710   32.5970   40.2550 H   0  0  0  0  0  0  0  0  0  0  0  0
   49.2550   34.1620   38.8990 H   0  0  0  0  0  0  0  0  0  0  0  0
   47.7430   35.2210   38.6570 H   0  0  0  0  0  0  0  0  0  0  0  0
   48.2430   33.4240   36.8420 H   0  0  0  0  0  0  0  0  0  0  0  0
   47.8290   32.1870   38.1390 H   0  0  0  0  0  0  0  0  0  0  0  0
   44.6530   32.9310   38.5470 H   0  0  0  0  0  0  0  0  0  0  0  0
   46.1300   31.8730   38.9160 H   0  0  0  0  0  0  0  0  0  0  0  0
   45.5850   33.1710   40.8120 H   0  0  0  0  0  0  0  0  0  0  0  0
   45.7190   34.7550   39.8930 H   0  0  0  0  0  0  0  0  0  0  0  0
   47.0330   32.1970   43.1760 C   0  0  2  0  0  3  0  0  0  0  0  0
   46.4750   31.1940   42.5670 O   0  0  0  0  0  1  0  0  0  0  0  0
   49.2820   31.0920   42.8340 C   0  0  0  0  0  3  0  0  0  0  0  0
   48.1230   31.3260   43.5210 C   0  0  0  0  0  0  0  0  0  0  0  0
   47.9520   30.5290   44.6600 C   0  0  0  0  0  0  0  0  0  0  0  0
   47.0640   30.6420   45.2690 H   0  0  0  0  0  0  0  0  0  0  0  0
   48.8180   29.5770   45.1170 C   0  0  0  0  0  0  0  0  0  0  0  0
   49.9690   29.3750   44.3990 C   0  0  0  0  0  0  0  0  0  0  0  0
   50.1940   30.1230   43.2750 C   0  0  0  0  0  3  0  0  0  0  0  0
   50.6980   28.3650   45.0460 O   0  0  0  0  0  0  0  0  0  0  0  0
   49.8020   27.6610   45.9000 C   0  0  0  0  0  3  0  0  0  0  0  0
   50.3260   27.2800   46.7730 H   0  0  0  0  0  0  0  0  0  0  0  0
   48.8420   28.6860   46.2060 O   0  0  0  0  0  0  0  0  0  0  0  0
  1  6  1  0  0  0  0
  2  1  2  0  0  0  0
  2  3  1  0  0  0  0
  3  4  2  0  0  0  0
  4  5  1  0  0  0  0
  5  7  1  0  0  0  0
  6  5  2  0  0  0  0
  7  9  1  0  0  0  0
  8  1  1  0  0  0  0
 10  7  1  0  0  0  0
 11 13  1  0  0  0  0
 11  2  1  0  0  0  0
 12 11  1  0  0  0  0
 12 15  1  0  0  0  0
 12 13  1  0  0  0  0
 13 17  1  0  0  0  0
 14 12  1  0  0  0  0
 16 13  1  0  0  0  0
 18 24  1  0  0  0  0
 18 11  1  0  0  0  0
 19 25  1  0  0  0  0
 19 18  1  0  0  0  0
 20 28  1  0  0  0  0
 20 19  1  0  0  0  0
 21 20  1  0  0  0  0
 21 22  1  0  0  0  0
 22 30  1  0  0  0  0
 22 23  1  0  0  0  0
 23 18  1  0  0  0  0
 23 31  1  0  0  0  0
 26 19  1  0  0  0  0
 27 20  1  0  0  0  0
 29 22  1  0  0  0  0
 32 23  1  0  0  0  0
 33 34  1  1  0  0  0
 33  3  1  0  0  0  0
 33 36  1  0  0  0  0
 35 41  2  0  0  0  0
 35 36  1  0  0  0  0
 36 37  2  0  0  0  0
 37 39  1  0  0  0  0
 37 38  1  0  0  0  0
 39 45  1  0  0  0  0
 40 42  1  0  0  0  0
 40 39  2  0  0  0  0
 41 40  1  0  0  0  0
 42 43  1  0  0  0  0
 43 45  1  0  0  0  0
 43 44  1  0  0  0  0
M  END
>  <minimizedAffinity>
-5.41634846

>  <minimizedRMSD>
1.41183496

$$$$
