
 OpenBabel03252508513D

 30 33  0  0  0  0  0  0  0  0999 V2000
   45.9410   34.1410   41.0370 C   0  0  0  0  0  0  0  0  0  0  0  0
   46.5170   34.7950   42.1200 C   0  0  0  0  0  0  0  0  0  0  0  0
   47.8520   35.1860   41.9670 C   0  0  0  0  0  0  0  0  0  0  0  0
   48.4940   34.9060   40.7880 N   0  0  0  0  0  0  0  0  0  0  0  0
   47.8900   34.2770   39.7890 C   0  0  0  0  0  0  0  0  0  0  0  0
   46.6110   33.8860   39.8930 N   0  0  0  0  0  0  0  0  0  0  0  0
   48.3270   35.6970   42.7930 H   0  0  0  0  0  0  0  0  0  0  0  0
   48.4050   34.0620   38.8650 H   0  0  0  0  0  0  0  0  0  0  0  0
   45.7460   35.0390   43.3200 C   0  0  0  0  0  0  0  0  0  0  0  0
   45.0530   36.2040   43.5480 C   0  0  0  0  0  0  0  0  0  0  0  0
   44.4810   36.0050   44.7870 C   0  0  0  0  0  0  0  0  0  0  0  0
   44.8080   34.7880   45.2820 N   0  0  0  0  0  0  0  0  0  0  0  0
   45.5740   34.2240   44.3770 N   0  0  0  0  0  0  0  0  0  0  0  0
   44.9300   37.1030   42.9630 H   0  0  0  0  0  0  0  0  0  0  0  0
   43.8350   36.6650   45.3830 H   0  0  0  0  0  0  0  0  0  0  0  0
   44.5590   34.3100   46.1730 H   0  0  0  0  0  0  0  0  0  0  0  0
   44.6200   33.7370   41.1450 O   0  0  0  0  0  0  0  0  0  0  0  0
   43.5150   34.3910   40.6770 C   0  0  0  0  0  0  0  0  0  0  0  0
   43.3840   35.6550   40.4870 O   0  0  0  0  0  0  0  0  0  0  0  0
   41.8650   33.4570   38.9930 C   0  0  0  0  0  3  0  0  0  0  0  0
   42.2490   33.6890   40.3090 C   0  0  0  0  0  0  0  0  0  0  0  0
   41.3420   33.2050   41.2210 C   0  0  0  0  0  0  0  0  0  0  0  0
   41.5520   33.3370   42.2780 H   0  0  0  0  0  0  0  0  0  0  0  0
   40.1790   32.5610   40.8970 C   0  0  0  0  0  0  0  0  0  0  0  0
   39.8810   32.3770   39.5670 C   0  0  0  0  0  0  0  0  0  0  0  0
   40.7190   32.8220   38.5770 C   0  0  0  0  0  3  0  0  0  0  0  0
   38.6700   31.7120   39.5240 O   0  0  0  0  0  0  0  0  0  0  0  0
   38.1620   31.4880   40.8320 C   0  0  0  0  0  3  0  0  0  0  0  0
   38.0680   30.4110   41.0790 H   0  0  0  0  0  0  0  0  0  0  0  0
   39.1640   32.0160   41.6710 O   0  0  0  0  0  0  0  0  0  0  0  0
  1 17  1  0  0  0  0
  1  2  1  0  0  0  0
  2  9  1  0  0  0  0
  3  2  2  0  0  0  0
  3  7  1  0  0  0  0
  4  3  1  0  0  0  0
  5  6  1  0  0  0  0
  5  4  2  0  0  0  0
  6  1  2  0  0  0  0
  8  5  1  0  0  0  0
  9 10  1  0  0  0  0
  9 13  2  0  0  0  0
 10 11  2  0  0  0  0
 11 12  1  0  0  0  0
 11 15  1  0  0  0  0
 12 16  1  0  0  0  0
 13 12  1  0  0  0  0
 14 10  1  0  0  0  0
 18 17  1  0  0  0  0
 19 18  2  0  0  0  0
 20 21  1  0  0  0  0
 21 18  1  0  0  0  0
 21 22  2  0  0  0  0
 22 23  1  0  0  0  0
 24 22  1  0  0  0  0
 24 30  1  0  0  0  0
 25 24  2  0  0  0  0
 26 20  2  0  0  0  0
 26 25  1  0  0  0  0
 27 25  1  0  0  0  0
 27 28  1  0  0  0  0
 28 29  1  0  0  0  0
 28 30  1  0  0  0  0
M  END
>  <minimizedAffinity>
-5.89091396

>  <minimizedRMSD>
1.34933567

$$$$
