
 OpenBabel03252506413D

 42 46  0  0  1  0  0  0  0  0999 V2000
   49.4350   33.3780   41.4050 N   0  0  1  0  0  0  0  0  0  0  0  0
   50.7020   33.1120   42.0450 C   0  0  0  0  0  0  0  0  0  0  0  0
   51.2980   31.7990   41.6020 C   0  0  0  0  0  0  0  0  0  0  0  0
   50.4540   30.7050   42.2030 C   0  0  0  0  0  0  0  0  0  0  0  0
   48.9890   31.0500   42.0800 C   0  0  0  0  0  0  0  0  0  0  0  0
   48.7710   32.1300   41.0720 C   0  0  2  0  0  0  0  0  0  0  0  0
   51.4150   33.9600   41.9520 H   0  0  0  0  0  0  0  0  0  0  0  0
   50.5120   32.9970   43.1410 H   0  0  0  0  0  0  0  0  0  0  0  0
   51.3580   31.7560   40.5150 H   0  0  0  0  0  0  0  0  0  0  0  0
   52.3400   31.7910   41.9840 H   0  0  0  0  0  0  0  0  0  0  0  0
   50.7400   30.4780   43.2500 H   0  0  0  0  0  0  0  0  0  0  0  0
   50.6360   29.7760   41.6380 H   0  0  0  0  0  0  0  0  0  0  0  0
   48.3740   30.1840   41.7760 H   0  0  0  0  0  0  0  0  0  0  0  0
   48.6560   31.4500   43.0530 H   0  0  0  0  0  0  0  0  0  0  0  0
   47.6710   32.3960   41.1850 H   0  0  0  0  0  0  0  0  0  0  0  0
   48.8850   32.8990   38.8600 C   0  0  0  0  0  3  0  0  0  0  0  0
   48.9290   31.7540   39.6670 C   0  0  0  0  0  0  0  0  0  0  0  0
   49.0950   30.5540   39.0460 C   0  0  0  0  0  0  0  0  0  0  0  0
   49.1140   29.7280   39.7250 H   0  0  0  0  0  0  0  0  0  0  0  0
   49.2150   30.4680   37.6770 C   0  0  0  0  0  0  0  0  0  0  0  0
   49.1800   31.5580   36.8350 C   0  0  0  0  0  0  0  0  0  0  0  0
   49.0110   32.7840   37.4690 C   0  0  0  0  0  3  0  0  0  0  0  0
   49.3260   31.1600   35.5140 O   0  0  0  0  0  0  0  0  0  0  0  0
   49.0990   29.7720   35.4920 C   0  0  0  0  0  3  0  0  0  0  0  0
   49.8630   29.3010   34.8500 H   0  0  0  0  0  0  0  0  0  0  0  0
   49.3890   29.3800   36.8330 O   0  0  0  0  0  0  0  0  0  0  0  0
   47.2850   34.7100   41.9490 C   0  0  1  0  0  0  0  0  0  0  0  0
   48.4110   35.5930   41.7280 C   0  0  0  0  0  0  0  0  0  0  0  0
   48.6920   34.2290   42.2780 C   0  0  2  0  0  0  0  0  0  0  0  0
   46.8340   34.0750   41.1530 H   0  0  0  0  0  0  0  0  0  0  0  0
   48.6590   35.7960   40.6450 H   0  0  0  0  0  0  0  0  0  0  0  0
   48.5590   36.4940   42.3360 H   0  0  0  0  0  0  0  0  0  0  0  0
   48.9200   34.2100   43.3660 H   0  0  0  0  0  0  0  0  0  0  0  0
   45.5250   36.0640   43.1610 C   0  0  0  0  0  0  0  0  0  0  0  0
   46.3470   34.9090   43.0910 C   0  0  0  0  0  0  0  0  0  0  0  0
   46.2480   33.9860   44.1130 C   0  0  0  0  0  0  0  0  0  0  0  0
   45.3660   34.2490   45.1190 N   0  0  0  0  0  0  0  0  0  0  0  0
   44.5960   35.3520   45.1640 C   0  0  0  0  0  0  0  0  0  0  0  0
   44.6680   36.2750   44.1830 N   0  0  0  0  0  0  0  0  0  0  0  0
   45.5760   36.8110   42.3770 H   0  0  0  0  0  0  0  0  0  0  0  0
   46.8430   33.0910   44.1180 H   0  0  0  0  0  0  0  0  0  0  0  0
   43.9450   35.4080   46.0380 H   0  0  0  0  0  0  0  0  0  0  0  0
  1  2  1  1  0  0  0
  1 29  1  0  0  0  0
  2  8  1  0  0  0  0
  3 10  1  0  0  0  0
  3  2  1  0  0  0  0
  3  4  1  0  0  0  0
  4 11  1  0  0  0  0
  5  4  1  0  0  0  0
  5 14  1  0  0  0  0
  6 15  1  1  0  0  0
  6  1  1  0  0  0  0
  6  5  1  0  0  0  0
  7  2  1  0  0  0  0
  9  3  1  0  0  0  0
 12  4  1  0  0  0  0
 13  5  1  0  0  0  0
 16 17  1  0  0  0  0
 17  6  1  0  0  0  0
 18 17  2  0  0  0  0
 18 19  1  0  0  0  0
 20 18  1  0  0  0  0
 21 22  1  0  0  0  0
 21 20  2  0  0  0  0
 22 16  2  0  0  0  0
 23 21  1  0  0  0  0
 24 23  1  0  0  0  0
 24 26  1  0  0  0  0
 25 24  1  0  0  0  0
 26 20  1  0  0  0  0
 27 30  1  6  0  0  0
 27 29  1  0  0  0  0
 27 35  1  0  0  0  0
 28 27  1  0  0  0  0
 28 29  1  0  0  0  0
 28 32  1  0  0  0  0
 29 33  1  1  0  0  0
 31 28  1  0  0  0  0
 34 39  1  0  0  0  0
 35 34  2  0  0  0  0
 35 36  1  0  0  0  0
 36 41  1  0  0  0  0
 36 37  2  0  0  0  0
 37 38  1  0  0  0  0
 38 42  1  0  0  0  0
 39 38  2  0  0  0  0
 40 34  1  0  0  0  0
M  END
>  <minimizedAffinity>
-5.22430754

>  <minimizedRMSD>
0.657783389

$$$$
