
 OpenBabel03252506413D

 42 46  0  0  1  0  0  0  0  0999 V2000
   49.4340   33.3790   41.4070 N   0  0  1  0  0  0  0  0  0  0  0  0
   50.7010   33.1140   42.0470 C   0  0  0  0  0  0  0  0  0  0  0  0
   51.2970   31.8010   41.6040 C   0  0  0  0  0  0  0  0  0  0  0  0
   50.4540   30.7060   42.2060 C   0  0  0  0  0  0  0  0  0  0  0  0
   48.9880   31.0510   42.0820 C   0  0  0  0  0  0  0  0  0  0  0  0
   48.7710   32.1310   41.0740 C   0  0  2  0  0  0  0  0  0  0  0  0
   51.4140   33.9620   41.9540 H   0  0  0  0  0  0  0  0  0  0  0  0
   50.5110   32.9990   43.1430 H   0  0  0  0  0  0  0  0  0  0  0  0
   51.3580   31.7580   40.5180 H   0  0  0  0  0  0  0  0  0  0  0  0
   52.3390   31.7930   41.9870 H   0  0  0  0  0  0  0  0  0  0  0  0
   50.7390   30.4800   43.2530 H   0  0  0  0  0  0  0  0  0  0  0  0
   50.6360   29.7780   41.6410 H   0  0  0  0  0  0  0  0  0  0  0  0
   48.3740   30.1850   41.7780 H   0  0  0  0  0  0  0  0  0  0  0  0
   48.6550   31.4510   43.0550 H   0  0  0  0  0  0  0  0  0  0  0  0
   47.6700   32.3970   41.1870 H   0  0  0  0  0  0  0  0  0  0  0  0
   48.8860   32.8990   38.8610 C   0  0  0  0  0  3  0  0  0  0  0  0
   48.9290   31.7540   39.6700 C   0  0  0  0  0  0  0  0  0  0  0  0
   49.0940   30.5540   39.0490 C   0  0  0  0  0  0  0  0  0  0  0  0
   49.1120   29.7290   39.7270 H   0  0  0  0  0  0  0  0  0  0  0  0
   49.2140   30.4690   37.6800 C   0  0  0  0  0  0  0  0  0  0  0  0
   49.1800   31.5590   36.8370 C   0  0  0  0  0  0  0  0  0  0  0  0
   49.0110   32.7840   37.4710 C   0  0  0  0  0  3  0  0  0  0  0  0
   49.3260   31.1600   35.5160 O   0  0  0  0  0  0  0  0  0  0  0  0
   49.0990   29.7720   35.4950 C   0  0  0  0  0  3  0  0  0  0  0  0
   49.8620   29.3010   34.8530 H   0  0  0  0  0  0  0  0  0  0  0  0
   49.3870   29.3810   36.8350 O   0  0  0  0  0  0  0  0  0  0  0  0
   47.2830   34.7100   41.9510 C   0  0  1  0  0  0  0  0  0  0  0  0
   48.4090   35.5940   41.7300 C   0  0  0  0  0  0  0  0  0  0  0  0
   48.6910   34.2310   42.2800 C   0  0  2  0  0  0  0  0  0  0  0  0
   46.8320   34.0750   41.1550 H   0  0  0  0  0  0  0  0  0  0  0  0
   48.6570   35.7970   40.6460 H   0  0  0  0  0  0  0  0  0  0  0  0
   48.5570   36.4960   42.3370 H   0  0  0  0  0  0  0  0  0  0  0  0
   48.9190   34.2120   43.3680 H   0  0  0  0  0  0  0  0  0  0  0  0
   45.5250   36.0650   43.1630 C   0  0  0  0  0  0  0  0  0  0  0  0
   46.3460   34.9100   43.0930 C   0  0  0  0  0  0  0  0  0  0  0  0
   46.2470   33.9860   44.1150 C   0  0  0  0  0  0  0  0  0  0  0  0
   45.3640   34.2500   45.1210 N   0  0  0  0  0  0  0  0  0  0  0  0
   44.5950   35.3530   45.1660 C   0  0  0  0  0  0  0  0  0  0  0  0
   44.6670   36.2760   44.1850 N   0  0  0  0  0  0  0  0  0  0  0  0
   45.5760   36.8120   42.3800 H   0  0  0  0  0  0  0  0  0  0  0  0
   46.8410   33.0910   44.1200 H   0  0  0  0  0  0  0  0  0  0  0  0
   43.9440   35.4090   46.0400 H   0  0  0  0  0  0  0  0  0  0  0  0
  1  2  1  1  0  0  0
  1 29  1  0  0  0  0
  2  8  1  0  0  0  0
  3 10  1  0  0  0  0
  3  2  1  0  0  0  0
  3  4  1  0  0  0  0
  4 11  1  0  0  0  0
  5  4  1  0  0  0  0
  5 14  1  0  0  0  0
  6 15  1  1  0  0  0
  6  1  1  0  0  0  0
  6  5  1  0  0  0  0
  7  2  1  0  0  0  0
  9  3  1  0  0  0  0
 12  4  1  0  0  0  0
 13  5  1  0  0  0  0
 16 17  1  0  0  0  0
 17  6  1  0  0  0  0
 18 17  2  0  0  0  0
 18 19  1  0  0  0  0
 20 18  1  0  0  0  0
 21 22  1  0  0  0  0
 21 20  2  0  0  0  0
 22 16  2  0  0  0  0
 23 21  1  0  0  0  0
 24 23  1  0  0  0  0
 24 26  1  0  0  0  0
 25 24  1  0  0  0  0
 26 20  1  0  0  0  0
 27 30  1  6  0  0  0
 27 29  1  0  0  0  0
 27 35  1  0  0  0  0
 28 27  1  0  0  0  0
 28 29  1  0  0  0  0
 28 32  1  0  0  0  0
 29 33  1  1  0  0  0
 31 28  1  0  0  0  0
 34 39  1  0  0  0  0
 35 34  2  0  0  0  0
 35 36  1  0  0  0  0
 36 41  1  0  0  0  0
 36 37  2  0  0  0  0
 37 38  1  0  0  0  0
 38 42  1  0  0  0  0
 39 38  2  0  0  0  0
 40 34  1  0  0  0  0
M  END
>  <minimizedAffinity>
-5.22348166

>  <minimizedRMSD>
0.797615588

$$$$
