
 OpenBabel03242523373D

 21 23  0  0  0  0  0  0  0  0999 V2000
   45.1370   33.2160   47.5600 C   0  0  0  0  0  3  0  0  0  0  0  0
   45.8960   33.1990   46.4140 C   0  0  0  0  0  0  0  0  0  0  0  0
   47.0090   32.3700   46.2370 C   0  0  0  0  0  0  0  0  0  0  0  0
   47.5870   32.3660   45.3460 H   0  0  0  0  0  0  0  0  0  0  0  0
   47.2890   31.5540   47.3310 C   0  0  0  0  0  0  0  0  0  0  0  0
   46.5750   31.5160   48.5110 C   0  0  0  0  0  0  0  0  0  0  0  0
   45.4920   32.3790   48.5760 C   0  0  0  0  0  3  0  0  0  0  0  0
   47.1940   30.5720   49.3170 O   0  0  0  0  0  0  0  0  0  0  0  0
   48.3950   30.1680   48.7170 C   0  0  0  0  0  3  0  0  0  0  0  0
   48.4880   29.0600   48.7220 H   0  0  0  0  0  0  0  0  0  0  0  0
   48.3530   30.6350   47.3970 O   0  0  0  0  0  0  0  0  0  0  0  0
   44.4100   35.9650   44.4950 C   0  0  0  0  0  0  0  0  0  0  0  0
   44.9010   35.7270   43.1870 C   0  0  0  0  0  0  0  0  0  0  0  0
   45.7400   34.6050   42.9990 C   0  0  0  0  0  0  0  0  0  0  0  0
   46.0270   33.8290   44.0680 N   0  0  0  0  0  0  0  0  0  0  0  0
   45.5390   34.0920   45.2940 C   0  0  0  0  0  0  0  0  0  0  0  0
   44.7440   35.1440   45.5040 N   0  0  0  0  0  0  0  0  0  0  0  0
   43.7870   36.8320   44.5350 H   0  0  0  0  0  0  0  0  0  0  0  0
   44.6620   36.3560   42.3480 H   0  0  0  0  0  0  0  0  0  0  0  0
   46.3870   34.2510   41.3840 S   0  0  0  0  0  0  0  0  0  0  0  0
   46.9150   32.9280   41.4190 H   0  0  0  0  0  0  0  0  0  0  0  0
  1  7  1  0  0  0  0
  2  1  2  0  0  0  0
  3  2  1  0  0  0  0
  3  5  2  0  0  0  0
  4  3  1  0  0  0  0
  5 11  1  0  0  0  0
  5  6  1  0  0  0  0
  6  7  2  0  0  0  0
  6  8  1  0  0  0  0
  9 10  1  0  0  0  0
  9  8  1  0  0  0  0
 11  9  1  0  0  0  0
 12 18  1  0  0  0  0
 12 17  1  0  0  0  0
 13 12  2  0  0  0  0
 14 13  1  0  0  0  0
 14 15  2  0  0  0  0
 15 16  1  0  0  0  0
 16 17  2  0  0  0  0
 16  2  1  0  0  0  0
 19 13  1  0  0  0  0
 20 21  1  0  0  0  0
 20 14  1  0  0  0  0
M  END
>  <minimizedAffinity>
-5.09933472

>  <minimizedRMSD>
1.07463849

$$$$
