
 OpenBabel03242520413D

 41 45  0  0  1  0  0  0  0  0999 V2000
   45.8780   33.5190   45.7850 C   0  0  0  0  0  0  0  0  0  0  0  0
   46.6730   33.6610   44.6170 C   0  0  0  0  0  0  0  0  0  0  0  0
   47.3340   32.5010   44.1150 C   0  0  0  0  0  0  0  0  0  0  0  0
   47.1760   31.3110   44.7720 N   0  0  0  0  0  0  0  0  0  0  0  0
   46.4030   31.2400   45.8850 C   0  0  0  0  0  0  0  0  0  0  0  0
   45.7670   32.3310   46.3780 N   0  0  0  0  0  0  0  0  0  0  0  0
   46.2960   29.9860   46.4960 N   0  0  0  0  0  0  0  0  0  0  0  0
   47.4550   29.3080   46.9780 C   0  0  2  0  0  0  0  0  0  0  0  0
   47.2400   27.8850   47.3570 C   0  0  0  0  0  0  0  0  0  0  0  0
   45.9560   27.5350   47.8320 N   0  0  0  0  0  0  0  0  0  0  0  0
   45.0520   28.6230   47.9580 C   0  0  0  0  0  0  0  0  0  0  0  0
   45.0000   29.3630   46.6470 C   0  0  0  0  0  0  0  0  0  0  0  0
   45.4150   34.4310   46.1000 H   0  0  0  0  0  0  0  0  0  0  0  0
   46.8450   34.5460   44.0500 H   0  0  0  0  0  0  0  0  0  0  0  0
   47.9500   32.5570   43.2280 H   0  0  0  0  0  0  0  0  0  0  0  0
   48.1570   29.2460   46.0880 H   0  0  0  0  0  0  0  0  0  0  0  0
   47.9780   27.6550   48.1780 H   0  0  0  0  0  0  0  0  0  0  0  0
   47.5020   27.1710   46.5500 H   0  0  0  0  0  0  0  0  0  0  0  0
   45.9400   26.8360   48.6050 H   0  0  0  0  0  0  0  0  0  0  0  0
   44.0250   28.1640   48.0910 H   0  0  0  0  0  0  0  0  0  0  0  0
   45.2000   29.2690   48.8240 H   0  0  0  0  0  0  0  0  0  0  0  0
   44.9230   28.6080   45.8560 H   0  0  0  0  0  0  0  0  0  0  0  0
   44.1910   30.1230   46.6020 H   0  0  0  0  0  0  0  0  0  0  0  0
   48.1610   30.0920   48.0270 C   0  0  0  0  0  0  0  0  0  0  0  0
   47.7180   30.8990   49.0440 C   0  0  0  0  0  0  0  0  0  0  0  0
   48.7300   31.3980   49.7610 N   0  0  0  0  0  0  0  0  0  0  0  0
   49.8330   30.9100   49.2040 C   0  0  0  0  0  0  0  0  0  0  0  0
   49.4970   30.1270   48.1650 N   0  0  0  0  0  0  0  0  0  0  0  0
   46.6760   31.1080   49.2390 H   0  0  0  0  0  0  0  0  0  0  0  0
   48.7020   32.0350   50.5860 H   0  0  0  0  0  0  0  0  0  0  0  0
   51.6930   31.7090   50.7190 C   0  0  0  0  0  3  0  0  0  0  0  0
   51.2450   31.1080   49.5600 C   0  0  0  0  0  0  0  0  0  0  0  0
   52.1890   30.6560   48.6600 C   0  0  0  0  0  0  0  0  0  0  0  0
   51.8770   30.1810   47.7430 H   0  0  0  0  0  0  0  0  0  0  0  0
   53.5460   30.7860   48.8860 C   0  0  0  0  0  0  0  0  0  0  0  0
   54.0000   31.3940   50.0560 C   0  0  0  0  0  0  0  0  0  0  0  0
   53.0480   31.8410   50.9480 C   0  0  0  0  0  3  0  0  0  0  0  0
   55.4060   31.4040   50.0470 O   0  0  0  0  0  0  0  0  0  0  0  0
   55.7310   31.2910   48.6540 C   0  0  0  0  0  3  0  0  0  0  0  0
   56.7350   30.8730   48.5990 H   0  0  0  0  0  0  0  0  0  0  0  0
   54.7030   30.4390   48.1850 O   0  0  0  0  0  0  0  0  0  0  0  0
  1 13  1  0  0  0  0
  1  6  1  0  0  0  0
  2  1  2  0  0  0  0
  3  2  1  0  0  0  0
  3  4  2  0  0  0  0
  4  5  1  0  0  0  0
  5  6  2  0  0  0  0
  5  7  1  0  0  0  0
  7 12  1  0  0  0  0
  7  8  1  0  0  0  0
  8 16  1  6  0  0  0
  8  9  1  0  0  0  0
  8 24  1  0  0  0  0
  9 10  1  0  0  0  0
  9 17  1  0  0  0  0
 10 11  1  0  0  0  0
 10 19  1  0  0  0  0
 11 20  1  0  0  0  0
 11 21  1  0  0  0  0
 12 11  1  0  0  0  0
 14  2  1  0  0  0  0
 15  3  1  0  0  0  0
 18  9  1  0  0  0  0
 22 12  1  0  0  0  0
 23 12  1  0  0  0  0
 24 28  1  0  0  0  0
 24 25  2  0  0  0  0
 25 29  1  0  0  0  0
 25 26  1  0  0  0  0
 26 30  1  0  0  0  0
 27 32  1  0  0  0  0
 27 26  1  0  0  0  0
 28 27  2  0  0  0  0
 31 37  1  0  0  0  0
 32 31  2  0  0  0  0
 33 35  2  0  0  0  0
 33 32  1  0  0  0  0
 34 33  1  0  0  0  0
 35 36  1  0  0  0  0
 36 37  2  0  0  0  0
 38 36  1  0  0  0  0
 39 38  1  0  0  0  0
 40 39  1  0  0  0  0
 41 39  1  0  0  0  0
 41 35  1  0  0  0  0
M  END
>  <minimizedAffinity>
-5.06555033

>  <minimizedRMSD>
0.221658617

$$$$
