
 OpenBabel03242520413D

 41 45  0  0  1  0  0  0  0  0999 V2000
   45.8550   33.4850   45.7740 C   0  0  0  0  0  0  0  0  0  0  0  0
   46.6670   33.6310   44.6190 C   0  0  0  0  0  0  0  0  0  0  0  0
   47.3400   32.4740   44.1250 C   0  0  0  0  0  0  0  0  0  0  0  0
   47.1760   31.2830   44.7780 N   0  0  0  0  0  0  0  0  0  0  0  0
   46.3860   31.2070   45.8780 C   0  0  0  0  0  0  0  0  0  0  0  0
   45.7390   32.2950   46.3630 N   0  0  0  0  0  0  0  0  0  0  0  0
   46.2750   29.9510   46.4860 N   0  0  0  0  0  0  0  0  0  0  0  0
   47.4270   29.2770   46.9840 C   0  0  2  0  0  0  0  0  0  0  0  0
   47.2110   27.8530   47.3570 C   0  0  0  0  0  0  0  0  0  0  0  0
   45.9220   27.4970   47.8120 N   0  0  0  0  0  0  0  0  0  0  0  0
   45.0120   28.5820   47.9260 C   0  0  0  0  0  0  0  0  0  0  0  0
   44.9780   29.3240   46.6150 C   0  0  0  0  0  0  0  0  0  0  0  0
   45.3850   34.3940   46.0830 H   0  0  0  0  0  0  0  0  0  0  0  0
   46.8460   34.5180   44.0560 H   0  0  0  0  0  0  0  0  0  0  0  0
   47.9700   32.5340   43.2480 H   0  0  0  0  0  0  0  0  0  0  0  0
   48.1440   29.2180   46.1050 H   0  0  0  0  0  0  0  0  0  0  0  0
   47.9370   27.6240   48.1890 H   0  0  0  0  0  0  0  0  0  0  0  0
   47.4890   27.1400   46.5530 H   0  0  0  0  0  0  0  0  0  0  0  0
   45.8960   26.7970   48.5830 H   0  0  0  0  0  0  0  0  0  0  0  0
   43.9850   28.1190   48.0430 H   0  0  0  0  0  0  0  0  0  0  0  0
   45.1450   29.2270   48.7950 H   0  0  0  0  0  0  0  0  0  0  0  0
   44.9150   28.5700   45.8220 H   0  0  0  0  0  0  0  0  0  0  0  0
   44.1670   30.0820   46.5600 H   0  0  0  0  0  0  0  0  0  0  0  0
   48.1150   30.0610   48.0450 C   0  0  0  0  0  0  0  0  0  0  0  0
   47.6580   30.7420   49.1450 C   0  0  0  0  0  0  0  0  0  0  0  0
   48.6560   31.3010   49.8360 N   0  0  0  0  0  0  0  0  0  0  0  0
   49.7660   30.9790   49.1790 C   0  0  0  0  0  0  0  0  0  0  0  0
   49.4460   30.2360   48.1050 N   0  0  0  0  0  0  0  0  0  0  0  0
   46.6160   30.8180   49.4170 H   0  0  0  0  0  0  0  0  0  0  0  0
   48.6160   31.8720   50.7070 H   0  0  0  0  0  0  0  0  0  0  0  0
   52.2390   30.4590   49.2590 C   0  0  0  0  0  3  0  0  0  0  0  0
   51.1690   31.3080   49.4630 C   0  0  0  0  0  0  0  0  0  0  0  0
   51.4300   32.5640   49.9720 C   0  0  0  0  0  0  0  0  0  0  0  0
   50.6180   33.2550   50.1440 H   0  0  0  0  0  0  0  0  0  0  0  0
   52.7090   32.9860   50.2770 C   0  0  0  0  0  0  0  0  0  0  0  0
   53.7900   32.1310   50.0720 C   0  0  0  0  0  0  0  0  0  0  0  0
   53.5190   30.8780   49.5630 C   0  0  0  0  0  3  0  0  0  0  0  0
   54.9710   32.7890   50.4570 O   0  0  0  0  0  0  0  0  0  0  0  0
   54.5090   33.8000   51.3640 C   0  0  0  0  0  3  0  0  0  0  0  0
   55.2600   34.5890   51.3670 H   0  0  0  0  0  0  0  0  0  0  0  0
   53.2670   34.1600   50.7880 O   0  0  0  0  0  0  0  0  0  0  0  0
  1 13  1  0  0  0  0
  1  6  1  0  0  0  0
  2  1  2  0  0  0  0
  3  2  1  0  0  0  0
  3  4  2  0  0  0  0
  4  5  1  0  0  0  0
  5  6  2  0  0  0  0
  5  7  1  0  0  0  0
  7 12  1  0  0  0  0
  7  8  1  0  0  0  0
  8 16  1  6  0  0  0
  8  9  1  0  0  0  0
  8 24  1  0  0  0  0
  9 10  1  0  0  0  0
  9 17  1  0  0  0  0
 10 11  1  0  0  0  0
 10 19  1  0  0  0  0
 11 20  1  0  0  0  0
 11 21  1  0  0  0  0
 12 11  1  0  0  0  0
 14  2  1  0  0  0  0
 15  3  1  0  0  0  0
 18  9  1  0  0  0  0
 22 12  1  0  0  0  0
 23 12  1  0  0  0  0
 24 28  1  0  0  0  0
 24 25  2  0  0  0  0
 25 29  1  0  0  0  0
 25 26  1  0  0  0  0
 26 30  1  0  0  0  0
 27 32  1  0  0  0  0
 27 26  1  0  0  0  0
 28 27  2  0  0  0  0
 31 32  2  0  0  0  0
 31 37  1  0  0  0  0
 32 33  1  0  0  0  0
 33 34  1  0  0  0  0
 33 35  2  0  0  0  0
 35 41  1  0  0  0  0
 36 35  1  0  0  0  0
 36 38  1  0  0  0  0
 37 36  2  0  0  0  0
 38 39  1  0  0  0  0
 39 40  1  0  0  0  0
 41 39  1  0  0  0  0
M  END
>  <minimizedAffinity>
-5.41761065

>  <minimizedRMSD>
0.549124181

$$$$
