
 OpenBabel03252509233D

 29 32  0  0  1  0  0  0  0  0999 V2000
   46.8150   34.8090   42.0000 C   0  0  1  0  0  0  0  0  0  0  0  0
   48.2240   35.4590   42.0950 C   0  0  0  0  0  0  0  0  0  0  0  0
   47.9230   33.9680   41.7210 C   0  0  2  0  0  0  0  0  0  0  0  0
   46.1730   35.2860   41.2360 H   0  0  0  0  0  0  0  0  0  0  0  0
   48.6900   35.5770   43.0690 H   0  0  0  0  0  0  0  0  0  0  0  0
   48.5240   36.0970   41.2420 H   0  0  0  0  0  0  0  0  0  0  0  0
   48.2200   33.2110   42.4770 H   0  0  0  0  0  0  0  0  0  0  0  0
   47.8410   34.2910   39.2030 C   0  0  0  0  0  3  0  0  0  0  0  0
   48.2770   33.6020   40.3150 C   0  0  0  0  0  0  0  0  0  0  0  0
   49.0980   32.5010   40.0500 C   0  0  0  0  0  0  0  0  0  0  0  0
   49.4560   31.9400   40.9120 H   0  0  0  0  0  0  0  0  0  0  0  0
   49.4750   32.0900   38.7980 C   0  0  0  0  0  0  0  0  0  0  0  0
   49.0170   32.8090   37.7130 C   0  0  0  0  0  0  0  0  0  0  0  0
   48.1930   33.9170   37.9210 C   0  0  0  0  0  3  0  0  0  0  0  0
   49.5380   32.1880   36.5960 O   0  0  0  0  0  0  0  0  0  0  0  0
   50.4750   31.2050   36.9770 C   0  0  0  0  0  3  0  0  0  0  0  0
   50.2520   30.2800   36.4130 H   0  0  0  0  0  0  0  0  0  0  0  0
   50.2690   31.0430   38.3590 O   0  0  0  0  0  0  0  0  0  0  0  0
   44.5800   35.5020   44.9370 C   0  0  0  0  0  0  0  0  0  0  0  0
   45.1830   35.6640   43.6420 C   0  0  0  0  0  0  0  0  0  0  0  0
   46.1770   34.7620   43.3670 C   0  0  0  0  0  0  0  0  0  0  0  0
   46.5560   33.7880   44.2760 N   0  0  0  0  0  0  0  0  0  0  0  0
   45.9570   33.6890   45.4650 C   0  0  0  0  0  0  0  0  0  0  0  0
   44.9700   34.5400   45.8050 N   0  0  0  0  0  0  0  0  0  0  0  0
   43.7930   36.1850   45.2000 H   0  0  0  0  0  0  0  0  0  0  0  0
   46.3730   32.8780   46.0480 H   0  0  0  0  0  0  0  0  0  0  0  0
   44.8040   36.6850   42.7390 N   0  0  0  0  0  0  0  0  0  0  0  0
   45.4790   37.4710   42.5340 H   0  0  0  0  0  0  0  0  0  0  0  0
   43.8650   36.6910   42.2600 H   0  0  0  0  0  0  0  0  0  0  0  0
  1  4  1  6  0  0  0
  1  2  1  0  0  0  0
  1 21  1  0  0  0  0
  2  5  1  0  0  0  0
  3  1  1  0  0  0  0
  3  2  1  0  0  0  0
  3  7  1  1  0  0  0
  6  2  1  0  0  0  0
  8  9  1  0  0  0  0
  9  3  1  0  0  0  0
 10  9  2  0  0  0  0
 10 11  1  0  0  0  0
 12 10  1  0  0  0  0
 13 14  1  0  0  0  0
 13 12  2  0  0  0  0
 14  8  2  0  0  0  0
 15 16  1  0  0  0  0
 15 13  1  0  0  0  0
 16 18  1  0  0  0  0
 17 16  1  0  0  0  0
 18 12  1  0  0  0  0
 19 25  1  0  0  0  0
 19 24  1  0  0  0  0
 20 19  2  0  0  0  0
 21 20  1  0  0  0  0
 21 22  2  0  0  0  0
 22 23  1  0  0  0  0
 23 24  2  0  0  0  0
 23 26  1  0  0  0  0
 27 20  1  0  0  0  0
 28 27  1  0  0  0  0
 29 27  1  0  0  0  0
M  END
>  <minimizedAffinity>
-5.44658613

>  <minimizedRMSD>
1.10447943

$$$$
