
 OpenBabel03242523373D

 21 23  0  0  0  0  0  0  0  0999 V2000
   46.8310   32.8530   47.0280 C   0  0  0  0  0  3  0  0  0  0  0  0
   46.2990   32.5810   45.7900 C   0  0  0  0  0  0  0  0  0  0  0  0
   45.9730   31.2920   45.3550 C   0  0  0  0  0  0  0  0  0  0  0  0
   45.5630   31.0970   44.3950 H   0  0  0  0  0  0  0  0  0  0  0  0
   46.2360   30.2950   46.2910 C   0  0  0  0  0  0  0  0  0  0  0  0
   46.7660   30.4900   47.5480 C   0  0  0  0  0  0  0  0  0  0  0  0
   47.0520   31.8070   47.8750 C   0  0  0  0  0  3  0  0  0  0  0  0
   46.8590   29.2370   48.1370 O   0  0  0  0  0  0  0  0  0  0  0  0
   46.5690   28.2540   47.1790 C   0  0  0  0  0  3  0  0  0  0  0  0
   45.8520   27.5070   47.5830 H   0  0  0  0  0  0  0  0  0  0  0  0
   45.9960   28.9230   46.0900 O   0  0  0  0  0  0  0  0  0  0  0  0
   44.8240   35.5780   44.2450 C   0  0  0  0  0  0  0  0  0  0  0  0
   45.6140   35.7400   43.0790 C   0  0  0  0  0  0  0  0  0  0  0  0
   46.6440   34.7990   42.8540 C   0  0  0  0  0  0  0  0  0  0  0  0
   46.8200   33.8080   43.7550 N   0  0  0  0  0  0  0  0  0  0  0  0
   46.0480   33.6920   44.8500 C   0  0  0  0  0  0  0  0  0  0  0  0
   45.0660   34.5630   45.0910 N   0  0  0  0  0  0  0  0  0  0  0  0
   44.0750   36.3350   44.3260 H   0  0  0  0  0  0  0  0  0  0  0  0
   45.4590   36.5360   42.3730 H   0  0  0  0  0  0  0  0  0  0  0  0
   47.6680   34.9460   41.4100 S   0  0  0  0  0  0  0  0  0  0  0  0
   48.3850   33.7220   41.2720 H   0  0  0  0  0  0  0  0  0  0  0  0
  1  7  1  0  0  0  0
  2  1  2  0  0  0  0
  3  2  1  0  0  0  0
  3  5  2  0  0  0  0
  4  3  1  0  0  0  0
  5  6  1  0  0  0  0
  6  7  2  0  0  0  0
  6  8  1  0  0  0  0
  9 10  1  0  0  0  0
  9  8  1  0  0  0  0
 11  5  1  0  0  0  0
 11  9  1  0  0  0  0
 12 18  1  0  0  0  0
 12 17  1  0  0  0  0
 13 12  2  0  0  0  0
 14 13  1  0  0  0  0
 14 15  2  0  0  0  0
 15 16  1  0  0  0  0
 16 17  2  0  0  0  0
 16  2  1  0  0  0  0
 19 13  1  0  0  0  0
 20 14  1  0  0  0  0
 21 20  1  0  0  0  0
M  END
>  <minimizedAffinity>
-4.40884495

>  <minimizedRMSD>
1.57345462

$$$$
