
 OpenBabel03242523373D

 21 23  0  0  0  0  0  0  0  0999 V2000
   47.0990   31.7890   45.2430 C   0  0  0  0  0  3  0  0  0  0  0  0
   46.3310   32.9060   45.4730 C   0  0  0  0  0  0  0  0  0  0  0  0
   45.6520   33.1430   46.6730 C   0  0  0  0  0  0  0  0  0  0  0  0
   45.0630   34.0120   46.8370 H   0  0  0  0  0  0  0  0  0  0  0  0
   45.8210   32.1430   47.6270 C   0  0  0  0  0  0  0  0  0  0  0  0
   46.5720   30.9980   47.4690 C   0  0  0  0  0  0  0  0  0  0  0  0
   47.2020   30.8660   46.2400 C   0  0  0  0  0  3  0  0  0  0  0  0
   46.4640   30.2880   48.6550 O   0  0  0  0  0  0  0  0  0  0  0  0
   45.4970   30.8950   49.4700 C   0  0  0  0  0  3  0  0  0  0  0  0
   45.8730   31.0140   50.5100 H   0  0  0  0  0  0  0  0  0  0  0  0
   45.2410   32.1520   48.9100 O   0  0  0  0  0  0  0  0  0  0  0  0
   45.0330   35.7040   43.4650 C   0  0  0  0  0  0  0  0  0  0  0  0
   45.9910   35.8040   42.4250 C   0  0  0  0  0  0  0  0  0  0  0  0
   47.0720   34.8920   42.4440 C   0  0  0  0  0  0  0  0  0  0  0  0
   47.1320   33.9860   43.4440 N   0  0  0  0  0  0  0  0  0  0  0  0
   46.2000   33.9260   44.4120 C   0  0  0  0  0  0  0  0  0  0  0  0
   45.1670   34.7720   44.4230 N   0  0  0  0  0  0  0  0  0  0  0  0
   44.2580   36.4330   43.3630 H   0  0  0  0  0  0  0  0  0  0  0  0
   45.9270   36.5330   41.6380 H   0  0  0  0  0  0  0  0  0  0  0  0
   48.3060   34.9650   41.1690 S   0  0  0  0  0  0  0  0  0  0  0  0
   49.0710   33.7650   41.2500 H   0  0  0  0  0  0  0  0  0  0  0  0
  1  2  2  0  0  0  0
  1  7  1  0  0  0  0
  2  3  1  0  0  0  0
  3  4  1  0  0  0  0
  3  5  2  0  0  0  0
  5 11  1  0  0  0  0
  6  5  1  0  0  0  0
  6  8  1  0  0  0  0
  7  6  2  0  0  0  0
  8  9  1  0  0  0  0
  9 10  1  0  0  0  0
 11  9  1  0  0  0  0
 12 17  1  0  0  0  0
 13 14  1  0  0  0  0
 13 12  2  0  0  0  0
 14 15  2  0  0  0  0
 15 16  1  0  0  0  0
 16 17  2  0  0  0  0
 16  2  1  0  0  0  0
 18 12  1  0  0  0  0
 19 13  1  0  0  0  0
 20 21  1  0  0  0  0
 20 14  1  0  0  0  0
M  END
>  <minimizedAffinity>
-4.72366428

>  <minimizedRMSD>
1.38049817

$$$$
