
 OpenBabel03242513073D

 43 48  0  0  0  0  0  0  0  0999 V2000
   45.9370   33.2040   41.6150 C   0  0  0  0  0  0  0  0  0  0  0  0
   47.1120   33.8990   41.3050 C   0  0  0  0  0  0  0  0  0  0  0  0
   48.0770   33.9570   42.2880 C   0  0  0  0  0  0  0  0  0  0  0  0
   47.8170   33.3410   43.4780 N   0  0  0  0  0  0  0  0  0  0  0  0
   46.7000   32.6860   43.7590 C   0  0  0  0  0  0  0  0  0  0  0  0
   45.7420   32.6120   42.8190 N   0  0  0  0  0  0  0  0  0  0  0  0
   45.1550   33.1360   40.8670 H   0  0  0  0  0  0  0  0  0  0  0  0
   46.7360   30.7180   45.2260 C   0  0  0  0  0  0  0  0  0  0  0  0
   46.5150   32.0630   45.0520 C   0  0  0  0  0  0  0  0  0  0  0  0
   46.1060   32.9000   46.0990 C   0  0  0  0  0  0  0  0  0  0  0  0
   45.9060   32.3830   47.3730 C   0  0  0  0  0  0  0  0  0  0  0  0
   45.5260   32.8630   48.5830 N   0  0  0  0  0  0  0  0  0  0  0  0
   45.5190   31.8280   49.4670 C   0  0  0  0  0  0  0  0  0  0  0  0
   45.8940   30.7200   48.7880 N   0  0  0  0  0  0  0  0  0  0  0  0
   46.1370   31.0300   47.5050 C   0  0  0  0  0  0  0  0  0  0  0  0
   46.5420   30.1750   46.4950 C   0  0  0  0  0  0  0  0  0  0  0  0
   47.0520   30.0690   44.4230 H   0  0  0  0  0  0  0  0  0  0  0  0
   45.9310   33.9710   45.9550 H   0  0  0  0  0  0  0  0  0  0  0  0
   45.2970   33.8830   48.7130 H   0  0  0  0  0  0  0  0  0  0  0  0
   45.2430   31.9730   50.5140 H   0  0  0  0  0  0  0  0  0  0  0  0
   46.7020   29.1220   46.6860 H   0  0  0  0  0  0  0  0  0  0  0  0
   49.3450   34.6760   42.0250 C   0  0  0  0  0  0  0  0  0  0  0  0
   49.1120   35.8110   41.2350 F   0  0  0  0  0  0  0  0  0  0  0  0
   49.8910   35.1360   43.2000 F   0  0  0  0  0  0  0  0  0  0  0  0
   50.1970   33.8230   41.3650 F   0  0  0  0  0  0  0  0  0  0  0  0
   47.2410   34.4660   40.0800 O   0  0  0  0  0  0  0  0  0  0  0  0
   47.3800   33.7290   38.9300 C   0  0  0  0  0  0  0  0  0  0  0  0
   48.3930   34.3910   38.2470 C   0  0  0  0  0  0  0  0  0  0  0  0
   48.5720   33.3910   36.7020 S   0  0  0  0  0  0  0  0  0  0  0  0
   47.2140   32.2340   37.2720 C   0  0  0  0  0  0  0  0  0  0  0  0
   46.9760   32.7100   38.2390 N   0  0  0  0  0  0  0  0  0  0  0  0
   49.1530   35.2760   38.2300 H   0  0  0  0  0  0  0  0  0  0  0  0
   46.2740   29.9660   36.8700 C   0  0  0  0  0  3  0  0  0  0  0  0
   46.8430   31.1030   36.3900 C   0  0  0  0  0  0  0  0  0  0  0  0
   47.1490   31.3700   35.0750 C   0  0  0  0  0  0  0  0  0  0  0  0
   47.6020   32.2800   34.7070 H   0  0  0  0  0  0  0  0  0  0  0  0
   46.8480   30.3800   34.1340 C   0  0  0  0  0  0  0  0  0  0  0  0
   46.2650   29.2120   34.6130 C   0  0  0  0  0  0  0  0  0  0  0  0
   45.9650   28.9690   35.9570 C   0  0  0  0  0  3  0  0  0  0  0  0
   46.0620   28.3870   33.4920 O   0  0  0  0  0  0  0  0  0  0  0  0
   46.0980   29.1950   32.3140 C   0  0  0  0  0  3  0  0  0  0  0  0
   46.5040   28.6570   31.4560 H   0  0  0  0  0  0  0  0  0  0  0  0
   46.9840   30.2380   32.7440 O   0  0  0  0  0  0  0  0  0  0  0  0
  1  6  1  0  0  0  0
  2  1  2  0  0  0  0
  2  3  1  0  0  0  0
  3  4  2  0  0  0  0
  4  5  1  0  0  0  0
  5  9  1  0  0  0  0
  6  5  2  0  0  0  0
  7  1  1  0  0  0  0
  8 16  1  0  0  0  0
  9  8  2  0  0  0  0
  9 10  1  0  0  0  0
 10 11  2  0  0  0  0
 11 15  1  0  0  0  0
 11 12  1  0  0  0  0
 12 19  1  0  0  0  0
 12 13  1  0  0  0  0
 13 20  1  0  0  0  0
 14 13  2  0  0  0  0
 15 14  1  0  0  0  0
 16 21  1  0  0  0  0
 16 15  2  0  0  0  0
 17  8  1  0  0  0  0
 18 10  1  0  0  0  0
 22  3  1  0  0  0  0
 22 24  1  0  0  0  0
 23 22  1  0  0  0  0
 25 22  1  0  0  0  0
 26  2  1  0  0  0  0
 27 26  1  0  0  0  0
 28 27  2  0  0  0  0
 29 30  1  0  0  0  0
 29 28  1  0  0  0  0
 30 31  2  0  0  0  0
 31 27  1  0  0  0  0
 32 28  1  0  0  0  0
 34 33  1  0  0  0  0
 34 30  1  0  0  0  0
 35 34  2  0  0  0  0
 36 35  1  0  0  0  0
 37 38  2  0  0  0  0
 37 35  1  0  0  0  0
 38 39  1  0  0  0  0
 39 33  2  0  0  0  0
 40 38  1  0  0  0  0
 41 43  1  0  0  0  0
 41 40  1  0  0  0  0
 42 41  1  0  0  0  0
 43 37  1  0  0  0  0
M  END
>  <minimizedAffinity>
-6.77086639

>  <minimizedRMSD>
0.271695703

$$$$
