
 OpenBabel03242516163D

 45 49  0  0  1  0  0  0  0  0999 V2000
   46.2590   35.7050   42.7100 C   0  0  0  0  0  0  0  0  0  0  0  0
   46.7990   34.4320   42.4890 C   0  0  0  0  0  0  0  0  0  0  0  0
   46.4070   33.3970   43.3420 C   0  0  0  0  0  0  0  0  0  0  0  0
   45.5250   33.6800   44.3400 N   0  0  0  0  0  0  0  0  0  0  0  0
   45.0460   34.9160   44.5020 C   0  0  0  0  0  0  0  0  0  0  0  0
   45.3920   35.9100   43.7190 N   0  0  0  0  0  0  0  0  0  0  0  0
   44.1190   35.2360   45.5450 N   0  0  0  0  0  0  0  0  0  0  0  0
   46.5640   36.5070   42.0450 H   0  0  0  0  0  0  0  0  0  0  0  0
   44.4640   35.9750   46.2130 H   0  0  0  0  0  0  0  0  0  0  0  0
   43.1940   34.7190   45.5590 H   0  0  0  0  0  0  0  0  0  0  0  0
   47.7750   34.2110   41.3710 C   0  0  0  0  0  0  0  0  0  0  0  0
   48.6230   35.4210   40.9950 C   0  0  0  0  0  0  0  0  0  0  0  0
   49.1740   34.2570   41.6650 C   0  0  0  0  0  0  0  0  0  0  0  0
   48.8830   35.6000   39.9290 H   0  0  0  0  0  0  0  0  0  0  0  0
   48.3180   36.3760   41.4790 H   0  0  0  0  0  0  0  0  0  0  0  0
   49.8600   33.6100   41.0460 H   0  0  0  0  0  0  0  0  0  0  0  0
   49.7160   34.6420   42.5460 H   0  0  0  0  0  0  0  0  0  0  0  0
   47.2870   33.4650   40.1780 C   0  0  0  0  0  0  0  0  0  0  0  0
   47.8400   33.9320   38.8470 C   0  0  0  0  0  0  0  0  0  0  0  0
   47.2930   32.9640   37.8100 C   0  0  0  0  0  0  0  0  0  0  0  0
   45.9410   33.3220   37.6200 O   0  0  0  0  0  0  0  0  0  0  0  0
   45.3240   32.8370   38.8030 C   0  0  0  0  0  0  0  0  0  0  0  0
   45.7610   33.6750   39.9920 C   0  0  0  0  0  0  0  0  0  0  0  0
   47.4690   32.3950   40.2730 H   0  0  0  0  0  0  0  0  0  0  0  0
   48.9540   33.7780   38.8270 H   0  0  0  0  0  0  0  0  0  0  0  0
   47.5420   34.9690   38.5920 H   0  0  0  0  0  0  0  0  0  0  0  0
   47.8140   33.0770   36.8250 H   0  0  0  0  0  0  0  0  0  0  0  0
   47.3240   31.9260   38.1730 H   0  0  0  0  0  0  0  0  0  0  0  0
   44.2470   32.9820   38.6420 H   0  0  0  0  0  0  0  0  0  0  0  0
   45.6280   31.8000   39.0070 H   0  0  0  0  0  0  0  0  0  0  0  0
   45.2660   33.2020   40.8720 H   0  0  0  0  0  0  0  0  0  0  0  0
   45.5210   34.7370   39.8970 H   0  0  0  0  0  0  0  0  0  0  0  0
   46.9020   32.0650   43.2260 C   0  0  2  0  0  3  0  0  0  0  0  0
   46.3970   31.1310   42.4760 O   0  0  0  0  0  1  0  0  0  0  0  0
   47.8980   30.3370   44.7800 C   0  0  0  0  0  3  0  0  0  0  0  0
   47.8950   31.1220   43.6600 C   0  0  0  0  0  0  0  0  0  0  0  0
   49.0690   31.0530   42.8970 C   0  0  0  0  0  0  0  0  0  0  0  0
   49.1590   31.6400   41.9910 H   0  0  0  0  0  0  0  0  0  0  0  0
   50.1690   30.2940   43.1780 C   0  0  0  0  0  0  0  0  0  0  0  0
   50.1300   29.5210   44.3090 C   0  0  0  0  0  0  0  0  0  0  0  0
   49.0110   29.5450   45.0960 C   0  0  0  0  0  3  0  0  0  0  0  0
   51.3520   28.8340   44.3930 O   0  0  0  0  0  0  0  0  0  0  0  0
   52.2880   29.5100   43.5590 C   0  0  0  0  0  3  0  0  0  0  0  0
   53.0130   28.8100   43.1510 H   0  0  0  0  0  0  0  0  0  0  0  0
   51.4190   30.0810   42.5660 O   0  0  0  0  0  0  0  0  0  0  0  0
  1  6  1  0  0  0  0
  2  1  2  0  0  0  0
  2  3  1  0  0  0  0
  3  4  2  0  0  0  0
  4  5  1  0  0  0  0
  5  7  1  0  0  0  0
  6  5  2  0  0  0  0
  7 10  1  0  0  0  0
  7  9  1  0  0  0  0
  8  1  1  0  0  0  0
 11 13  1  0  0  0  0
 11  2  1  0  0  0  0
 12 11  1  0  0  0  0
 12 15  1  0  0  0  0
 12 13  1  0  0  0  0
 13 17  1  0  0  0  0
 14 12  1  0  0  0  0
 16 13  1  0  0  0  0
 18 24  1  0  0  0  0
 18 11  1  0  0  0  0
 19 18  1  0  0  0  0
 20 28  1  0  0  0  0
 20 19  1  0  0  0  0
 21 20  1  0  0  0  0
 21 22  1  0  0  0  0
 22 30  1  0  0  0  0
 22 23  1  0  0  0  0
 23 18  1  0  0  0  0
 23 31  1  0  0  0  0
 25 19  1  0  0  0  0
 26 19  1  0  0  0  0
 27 20  1  0  0  0  0
 29 22  1  0  0  0  0
 32 23  1  0  0  0  0
 33 34  1  1  0  0  0
 33  3  1  0  0  0  0
 33 36  1  0  0  0  0
 35 41  1  0  0  0  0
 36 35  2  0  0  0  0
 37 39  2  0  0  0  0
 37 36  1  0  0  0  0
 38 37  1  0  0  0  0
 39 40  1  0  0  0  0
 40 42  1  0  0  0  0
 40 41  2  0  0  0  0
 43 42  1  0  0  0  0
 44 43  1  0  0  0  0
 45 39  1  0  0  0  0
 45 43  1  0  0  0  0
M  END
>  <minimizedAffinity>
-5.40446281

>  <minimizedRMSD>
1.46569192

$$$$
