
 OpenBabel03252508513D

 30 33  0  0  0  0  0  0  0  0999 V2000
   45.7360   34.1490   41.1050 C   0  0  0  0  0  0  0  0  0  0  0  0
   46.3750   34.7550   42.1810 C   0  0  0  0  0  0  0  0  0  0  0  0
   47.7310   35.0530   42.0080 C   0  0  0  0  0  0  0  0  0  0  0  0
   48.3310   34.7370   40.8160 N   0  0  0  0  0  0  0  0  0  0  0  0
   47.6690   34.1580   39.8240 C   0  0  0  0  0  0  0  0  0  0  0  0
   46.3680   33.8550   39.9480 N   0  0  0  0  0  0  0  0  0  0  0  0
   48.2540   35.5240   42.8270 H   0  0  0  0  0  0  0  0  0  0  0  0
   48.1520   33.9130   38.8910 H   0  0  0  0  0  0  0  0  0  0  0  0
   45.6430   35.0440   43.3960 C   0  0  0  0  0  0  0  0  0  0  0  0
   45.0400   36.2540   43.6440 C   0  0  0  0  0  0  0  0  0  0  0  0
   44.4740   36.0860   44.8910 C   0  0  0  0  0  0  0  0  0  0  0  0
   44.7200   34.8450   45.3710 N   0  0  0  0  0  0  0  0  0  0  0  0
   45.4280   34.2340   44.4490 N   0  0  0  0  0  0  0  0  0  0  0  0
   44.9740   37.1640   43.0680 H   0  0  0  0  0  0  0  0  0  0  0  0
   43.8870   36.7860   45.5020 H   0  0  0  0  0  0  0  0  0  0  0  0
   44.4510   34.3780   46.2620 H   0  0  0  0  0  0  0  0  0  0  0  0
   44.3930   33.8370   41.2340 O   0  0  0  0  0  0  0  0  0  0  0  0
   43.3270   34.5870   40.8230 C   0  0  0  0  0  0  0  0  0  0  0  0
   43.3000   35.8570   40.6330 O   0  0  0  0  0  0  0  0  0  0  0  0
   40.9320   34.0210   41.4350 C   0  0  0  0  0  3  0  0  0  0  0  0
   41.9850   34.0010   40.5270 C   0  0  0  0  0  0  0  0  0  0  0  0
   41.6550   33.3880   39.3420 C   0  0  0  0  0  0  0  0  0  0  0  0
   42.4110   33.3220   38.5660 H   0  0  0  0  0  0  0  0  0  0  0  0
   40.4300   32.8480   39.0590 C   0  0  0  0  0  0  0  0  0  0  0  0
   39.4480   32.9130   40.0200 C   0  0  0  0  0  0  0  0  0  0  0  0
   39.6750   33.5030   41.2370 C   0  0  0  0  0  3  0  0  0  0  0  0
   38.3310   32.3030   39.4820 O   0  0  0  0  0  0  0  0  0  0  0  0
   38.5950   31.8090   38.1760 C   0  0  0  0  0  3  0  0  0  0  0  0
   37.9710   32.2930   37.3970 H   0  0  0  0  0  0  0  0  0  0  0  0
   39.9290   32.2030   37.9380 O   0  0  0  0  0  0  0  0  0  0  0  0
  1 17  1  0  0  0  0
  1  2  1  0  0  0  0
  2  9  1  0  0  0  0
  3  2  2  0  0  0  0
  3  7  1  0  0  0  0
  4  3  1  0  0  0  0
  5  6  1  0  0  0  0
  5  4  2  0  0  0  0
  6  1  2  0  0  0  0
  8  5  1  0  0  0  0
  9 10  1  0  0  0  0
  9 13  2  0  0  0  0
 10 11  2  0  0  0  0
 11 12  1  0  0  0  0
 11 15  1  0  0  0  0
 12 16  1  0  0  0  0
 13 12  1  0  0  0  0
 14 10  1  0  0  0  0
 18 17  1  0  0  0  0
 19 18  2  0  0  0  0
 21 18  1  0  0  0  0
 21 20  2  0  0  0  0
 22 21  1  0  0  0  0
 23 22  1  0  0  0  0
 24 22  2  0  0  0  0
 24 25  1  0  0  0  0
 25 26  2  0  0  0  0
 26 20  1  0  0  0  0
 27 25  1  0  0  0  0
 28 27  1  0  0  0  0
 29 28  1  0  0  0  0
 30 28  1  0  0  0  0
 30 24  1  0  0  0  0
M  END
>  <minimizedAffinity>
-5.77737522

>  <minimizedRMSD>
1.67800403

$$$$
