
 OpenBabel03242523043D

 34 37  0  0  0  0  0  0  0  0999 V2000
   38.3380   29.6310   42.7550 C   0  0  0  0  0  0  0  0  0  0  0  0
   37.8760   29.9260   41.4800 C   0  0  0  0  0  0  0  0  0  0  0  0
   36.8780   29.1320   40.9830 C   0  0  0  0  0  0  0  0  0  0  0  0
   36.3670   28.1020   41.7220 N   0  0  0  0  0  0  0  0  0  0  0  0
   36.8490   27.8490   42.9670 C   0  0  0  0  0  0  0  0  0  0  0  0
   37.8180   28.6070   43.4650 N   0  0  0  0  0  0  0  0  0  0  0  0
   39.1130   30.1260   43.3110 H   0  0  0  0  0  0  0  0  0  0  0  0
   36.4600   27.0310   43.5840 H   0  0  0  0  0  0  0  0  0  0  0  0
   38.4150   31.0310   40.8110 N   0  0  0  0  0  0  0  0  0  0  0  0
   39.7010   31.0250   40.2670 C   0  0  0  0  0  0  0  0  0  0  0  0
   40.0640   32.2550   39.4700 C   0  0  0  0  0  0  0  0  0  0  0  0
   39.0530   32.7640   38.6360 N   0  0  0  0  0  0  0  0  0  0  0  0
   37.7570   32.7590   39.1730 C   0  0  0  0  0  0  0  0  0  0  0  0
   37.7290   32.2810   40.6130 C   0  0  0  0  0  0  0  0  0  0  0  0
   39.7830   30.2220   39.5270 H   0  0  0  0  0  0  0  0  0  0  0  0
   40.5240   31.0590   41.0410 H   0  0  0  0  0  0  0  0  0  0  0  0
   40.9960   32.0850   38.8990 H   0  0  0  0  0  0  0  0  0  0  0  0
   40.3170   33.0750   40.2060 H   0  0  0  0  0  0  0  0  0  0  0  0
   39.3150   33.7190   38.3270 H   0  0  0  0  0  0  0  0  0  0  0  0
   37.3060   33.7500   39.1560 H   0  0  0  0  0  0  0  0  0  0  0  0
   37.1370   32.0450   38.5700 H   0  0  0  0  0  0  0  0  0  0  0  0
   36.6610   32.1550   40.8510 H   0  0  0  0  0  0  0  0  0  0  0  0
   38.1900   33.0940   41.2280 H   0  0  0  0  0  0  0  0  0  0  0  0
   34.7760   29.0930   39.8900 C   0  0  0  0  0  3  0  0  0  0  0  0
   36.1830   29.1780   39.7430 C   0  0  0  0  0  0  0  0  0  0  0  0
   36.5180   29.2110   38.3890 C   0  0  0  0  0  0  0  0  0  0  0  0
   37.6150   29.2550   38.2970 H   0  0  0  0  0  0  0  0  0  0  0  0
   35.6370   29.1710   37.3410 C   0  0  0  0  0  0  0  0  0  0  0  0
   34.2900   29.0890   37.5910 C   0  0  0  0  0  0  0  0  0  0  0  0
   33.8340   29.0490   38.8720 C   0  0  0  0  0  3  0  0  0  0  0  0
   33.6950   29.0690   36.3420 O   0  0  0  0  0  0  0  0  0  0  0  0
   34.6800   29.1320   35.3280 C   0  0  0  0  0  3  0  0  0  0  0  0
   34.7000   28.2140   34.7010 H   0  0  0  0  0  0  0  0  0  0  0  0
   35.9360   29.2030   35.9890 O   0  0  0  0  0  0  0  0  0  0  0  0
  1  7  1  0  0  0  0
  1  6  1  0  0  0  0
  2  1  2  0  0  0  0
  3  2  1  0  0  0  0
  3  4  2  0  0  0  0
  4  5  1  0  0  0  0
  5  6  2  0  0  0  0
  5  8  1  0  0  0  0
  9  2  1  0  0  0  0
 10  9  1  0  0  0  0
 10 16  1  0  0  0  0
 11 18  1  0  0  0  0
 11 10  1  0  0  0  0
 12 13  1  0  0  0  0
 12 11  1  0  0  0  0
 13 14  1  0  0  0  0
 14  9  1  0  0  0  0
 14 22  1  0  0  0  0
 14 23  1  0  0  0  0
 15 10  1  0  0  0  0
 17 11  1  0  0  0  0
 19 12  1  0  0  0  0
 20 13  1  0  0  0  0
 21 13  1  0  0  0  0
 25 24  1  0  0  0  0
 25  3  1  0  0  0  0
 26 25  2  0  0  0  0
 27 26  1  0  0  0  0
 28 29  2  0  0  0  0
 28 26  1  0  0  0  0
 29 30  1  0  0  0  0
 30 24  2  0  0  0  0
 31 29  1  0  0  0  0
 32 34  1  0  0  0  0
 32 31  1  0  0  0  0
 33 32  1  0  0  0  0
 34 28  1  0  0  0  0
M  END
>  <minimizedAffinity>
-5.36790848

$$$$

 OpenBabel03242523043D

 34 37  0  0  0  0  0  0  0  0999 V2000
   42.0350   33.5680   40.5700 C   0  0  0  0  0  0  0  0  0  0  0  0
   41.0750   32.5880   40.7760 C   0  0  0  0  0  0  0  0  0  0  0  0
   41.2870   31.7190   41.8120 C   0  0  0  0  0  0  0  0  0  0  0  0
   42.3980   31.8270   42.6010 N   0  0  0  0  0  0  0  0  0  0  0  0
   43.3130   32.8030   42.3640 C   0  0  0  0  0  0  0  0  0  0  0  0
   43.1250   33.6530   41.3620 N   0  0  0  0  0  0  0  0  0  0  0  0
   42.0540   34.3300   39.8120 H   0  0  0  0  0  0  0  0  0  0  0  0
   44.2140   32.9150   42.9790 H   0  0  0  0  0  0  0  0  0  0  0  0
   39.9400   32.5790   39.9570 N   0  0  0  0  0  0  0  0  0  0  0  0
   39.8450   31.7800   38.8150 C   0  0  0  0  0  0  0  0  0  0  0  0
   38.5000   31.8030   38.1290 C   0  0  0  0  0  0  0  0  0  0  0  0
   37.3790   31.7870   38.9780 N   0  0  0  0  0  0  0  0  0  0  0  0
   37.4750   32.5770   40.1330 C   0  0  0  0  0  0  0  0  0  0  0  0
   38.7640   33.3790   40.1810 C   0  0  0  0  0  0  0  0  0  0  0  0
   39.9590   30.7280   39.0930 H   0  0  0  0  0  0  0  0  0  0  0  0
   40.4930   32.1290   37.9580 H   0  0  0  0  0  0  0  0  0  0  0  0
   38.4350   30.9940   37.3780 H   0  0  0  0  0  0  0  0  0  0  0  0
   38.4380   32.7620   37.5330 H   0  0  0  0  0  0  0  0  0  0  0  0
   36.5350   32.0420   38.4330 H   0  0  0  0  0  0  0  0  0  0  0  0
   36.6540   33.2870   40.2110 H   0  0  0  0  0  0  0  0  0  0  0  0
   37.4750   31.8910   41.0210 H   0  0  0  0  0  0  0  0  0  0  0  0
   38.7970   33.8050   41.1950 H   0  0  0  0  0  0  0  0  0  0  0  0
   38.6690   34.1800   39.4060 H   0  0  0  0  0  0  0  0  0  0  0  0
   41.2520   29.4500   42.4930 C   0  0  0  0  0  3  0  0  0  0  0  0
   40.5020   30.6360   42.2940 C   0  0  0  0  0  0  0  0  0  0  0  0
   39.1540   30.3950   42.5610 C   0  0  0  0  0  0  0  0  0  0  0  0
   38.5870   31.3220   42.3790 H   0  0  0  0  0  0  0  0  0  0  0  0
   38.6130   29.2010   42.9590 C   0  0  0  0  0  0  0  0  0  0  0  0
   39.4280   28.1100   43.1240 C   0  0  0  0  0  0  0  0  0  0  0  0
   40.7650   28.2140   42.8940 C   0  0  0  0  0  3  0  0  0  0  0  0
   38.5830   27.0890   43.5230 O   0  0  0  0  0  0  0  0  0  0  0  0
   37.2500   27.5560   43.5960 C   0  0  0  0  0  3  0  0  0  0  0  0
   36.5840   27.0490   42.8650 H   0  0  0  0  0  0  0  0  0  0  0  0
   37.2820   28.9300   43.2320 O   0  0  0  0  0  0  0  0  0  0  0  0
  1  2  2  0  0  0  0
  1  6  1  0  0  0  0
  2  3  1  0  0  0  0
  3 25  1  0  0  0  0
  3  4  2  0  0  0  0
  5  4  1  0  0  0  0
  5  8  1  0  0  0  0
  6  5  2  0  0  0  0
  7  1  1  0  0  0  0
  9 14  1  0  0  0  0
  9  2  1  0  0  0  0
 10 15  1  0  0  0  0
 10  9  1  0  0  0  0
 11 10  1  0  0  0  0
 11 12  1  0  0  0  0
 12 13  1  0  0  0  0
 13 14  1  0  0  0  0
 13 20  1  0  0  0  0
 13 21  1  0  0  0  0
 14 22  1  0  0  0  0
 16 10  1  0  0  0  0
 17 11  1  0  0  0  0
 18 11  1  0  0  0  0
 19 12  1  0  0  0  0
 23 14  1  0  0  0  0
 24 30  1  0  0  0  0
 25 24  2  0  0  0  0
 25 26  1  0  0  0  0
 26 28  2  0  0  0  0
 27 26  1  0  0  0  0
 28 29  1  0  0  0  0
 28 34  1  0  0  0  0
 29 31  1  0  0  0  0
 30 29  2  0  0  0  0
 31 32  1  0  0  0  0
 33 32  1  0  0  0  0
 34 32  1  0  0  0  0
M  END
>  <minimizedAffinity>
-5.27286577

$$$$

 OpenBabel03242523043D

 34 37  0  0  0  0  0  0  0  0999 V2000
   39.1920   32.2940   41.4170 C   0  0  0  0  0  0  0  0  0  0  0  0
   38.4520   31.2200   40.9430 C   0  0  0  0  0  0  0  0  0  0  0  0
   37.5180   31.4880   39.9790 C   0  0  0  0  0  0  0  0  0  0  0  0
   37.3370   32.7590   39.5120 N   0  0  0  0  0  0  0  0  0  0  0  0
   38.0850   33.7820   40.0030 C   0  0  0  0  0  0  0  0  0  0  0  0
   38.9930   33.5420   40.9400 N   0  0  0  0  0  0  0  0  0  0  0  0
   39.9580   32.2920   42.1710 H   0  0  0  0  0  0  0  0  0  0  0  0
   37.9630   34.8120   39.6480 H   0  0  0  0  0  0  0  0  0  0  0  0
   38.7360   29.9420   41.4360 N   0  0  0  0  0  0  0  0  0  0  0  0
   38.4410   29.5600   42.7470 C   0  0  0  0  0  0  0  0  0  0  0  0
   38.6980   28.1060   43.0620 C   0  0  0  0  0  0  0  0  0  0  0  0
   38.3270   27.1880   42.0630 N   0  0  0  0  0  0  0  0  0  0  0  0
   38.6090   27.5730   40.7440 C   0  0  0  0  0  0  0  0  0  0  0  0
   39.3580   28.8920   40.6730 C   0  0  0  0  0  0  0  0  0  0  0  0
   37.3660   29.6620   42.9260 H   0  0  0  0  0  0  0  0  0  0  0  0
   39.1110   30.0360   43.5230 H   0  0  0  0  0  0  0  0  0  0  0  0
   38.2420   27.8340   44.0330 H   0  0  0  0  0  0  0  0  0  0  0  0
   39.8110   27.9820   43.2150 H   0  0  0  0  0  0  0  0  0  0  0  0
   38.7550   26.2660   42.2710 H   0  0  0  0  0  0  0  0  0  0  0  0
   39.2140   26.8330   40.2230 H   0  0  0  0  0  0  0  0  0  0  0  0
   37.6320   27.7150   40.2100 H   0  0  0  0  0  0  0  0  0  0  0  0
   39.3580   29.1630   39.6060 H   0  0  0  0  0  0  0  0  0  0  0  0
   40.3960   28.6880   41.0400 H   0  0  0  0  0  0  0  0  0  0  0  0
   35.6330   30.0600   40.1200 C   0  0  0  0  0  3  0  0  0  0  0  0
   36.6260   30.6270   39.2830 C   0  0  0  0  0  0  0  0  0  0  0  0
   36.5020   30.1190   37.9900 C   0  0  0  0  0  0  0  0  0  0  0  0
   37.2960   30.5550   37.3620 H   0  0  0  0  0  0  0  0  0  0  0  0
   35.5680   29.2110   37.5670 C   0  0  0  0  0  0  0  0  0  0  0  0
   34.6470   28.7220   38.4580 C   0  0  0  0  0  0  0  0  0  0  0  0
   34.6620   29.1380   39.7530 C   0  0  0  0  0  3  0  0  0  0  0  0
   33.8680   27.8460   37.7240 O   0  0  0  0  0  0  0  0  0  0  0  0
   34.3180   27.7950   36.3840 C   0  0  0  0  0  3  0  0  0  0  0  0
   34.6990   26.7900   36.1030 H   0  0  0  0  0  0  0  0  0  0  0  0
   35.4180   28.6890   36.2920 O   0  0  0  0  0  0  0  0  0  0  0  0
  1  7  1  0  0  0  0
  2  1  1  0  0  0  0
  2  9  1  0  0  0  0
  3  2  2  0  0  0  0
  4  3  1  0  0  0  0
  4  5  2  0  0  0  0
  5  6  1  0  0  0  0
  6  1  2  0  0  0  0
  8  5  1  0  0  0  0
  9 10  1  0  0  0  0
 10 15  1  0  0  0  0
 10 11  1  0  0  0  0
 10 16  1  0  0  0  0
 11 18  1  0  0  0  0
 11 17  1  0  0  0  0
 12 19  1  0  0  0  0
 12 11  1  0  0  0  0
 13 12  1  0  0  0  0
 14 13  1  0  0  0  0
 14 23  1  0  0  0  0
 14  9  1  0  0  0  0
 20 13  1  0  0  0  0
 21 13  1  0  0  0  0
 22 14  1  0  0  0  0
 25  3  1  0  0  0  0
 25 24  2  0  0  0  0
 26 25  1  0  0  0  0
 27 26  1  0  0  0  0
 28 26  2  0  0  0  0
 28 29  1  0  0  0  0
 29 30  2  0  0  0  0
 30 24  1  0  0  0  0
 31 29  1  0  0  0  0
 32 31  1  0  0  0  0
 33 32  1  0  0  0  0
 34 32  1  0  0  0  0
 34 28  1  0  0  0  0
M  END
>  <minimizedAffinity>
-5.24289608

$$$$

 OpenBabel03242523043D

 34 37  0  0  0  0  0  0  0  0999 V2000
   41.1760   31.2910   37.4710 C   0  0  0  0  0  0  0  0  0  0  0  0
   40.2850   31.0360   38.5030 C   0  0  0  0  0  0  0  0  0  0  0  0
   40.4230   29.8430   39.1610 C   0  0  0  0  0  0  0  0  0  0  0  0
   41.4010   28.9570   38.8070 N   0  0  0  0  0  0  0  0  0  0  0  0
   42.2530   29.2480   37.7890 C   0  0  0  0  0  0  0  0  0  0  0  0
   42.1330   30.3980   37.1390 N   0  0  0  0  0  0  0  0  0  0  0  0
   41.2250   32.1570   36.8350 H   0  0  0  0  0  0  0  0  0  0  0  0
   43.0470   28.5570   37.4820 H   0  0  0  0  0  0  0  0  0  0  0  0
   39.3480   32.0190   38.8380 N   0  0  0  0  0  0  0  0  0  0  0  0
   38.0030   31.9320   38.4660 C   0  0  0  0  0  0  0  0  0  0  0  0
   37.1150   33.0170   39.0250 C   0  0  0  0  0  0  0  0  0  0  0  0
   37.3530   33.3750   40.3640 N   0  0  0  0  0  0  0  0  0  0  0  0
   38.7010   33.4510   40.7450 C   0  0  0  0  0  0  0  0  0  0  0  0
   39.6470   33.2150   39.5810 C   0  0  0  0  0  0  0  0  0  0  0  0
   37.5660   31.0200   38.8830 H   0  0  0  0  0  0  0  0  0  0  0  0
   37.8230   32.0980   37.3630 H   0  0  0  0  0  0  0  0  0  0  0  0
   36.0490   32.7610   38.8710 H   0  0  0  0  0  0  0  0  0  0  0  0
   37.2850   33.9490   38.4070 H   0  0  0  0  0  0  0  0  0  0  0  0
   36.8680   34.2680   40.5690 H   0  0  0  0  0  0  0  0  0  0  0  0
   38.9510   34.4220   41.1690 H   0  0  0  0  0  0  0  0  0  0  0  0
   38.8910   32.6430   41.4990 H   0  0  0  0  0  0  0  0  0  0  0  0
   40.6440   33.1240   40.0380 H   0  0  0  0  0  0  0  0  0  0  0  0
   39.5800   34.1220   38.9280 H   0  0  0  0  0  0  0  0  0  0  0  0
   40.5250   28.9710   41.3610 C   0  0  0  0  0  3  0  0  0  0  0  0
   39.7000   29.2950   40.2560 C   0  0  0  0  0  0  0  0  0  0  0  0
   38.3840   28.9150   40.5180 C   0  0  0  0  0  0  0  0  0  0  0  0
   37.7640   29.1560   39.6390 H   0  0  0  0  0  0  0  0  0  0  0  0
   37.9320   28.3180   41.6650 C   0  0  0  0  0  0  0  0  0  0  0  0
   38.8140   28.0450   42.6790 C   0  0  0  0  0  0  0  0  0  0  0  0
   40.1290   28.3670   42.5460 C   0  0  0  0  0  3  0  0  0  0  0  0
   38.0490   27.4550   43.6700 O   0  0  0  0  0  0  0  0  0  0  0  0
   36.6990   27.3620   43.2570 C   0  0  0  0  0  3  0  0  0  0  0  0
   36.3580   26.3080   43.1630 H   0  0  0  0  0  0  0  0  0  0  0  0
   36.6340   27.9290   41.9560 O   0  0  0  0  0  0  0  0  0  0  0  0
  1  2  1  0  0  0  0
  2  9  1  0  0  0  0
  2  3  2  0  0  0  0
  3 25  1  0  0  0  0
  4  3  1  0  0  0  0
  5  4  2  0  0  0  0
  6  1  2  0  0  0  0
  6  5  1  0  0  0  0
  7  1  1  0  0  0  0
  8  5  1  0  0  0  0
  9 14  1  0  0  0  0
 10  9  1  0  0  0  0
 10 15  1  0  0  0  0
 10 11  1  0  0  0  0
 11 12  1  0  0  0  0
 12 19  1  0  0  0  0
 12 13  1  0  0  0  0
 13 20  1  0  0  0  0
 13 21  1  0  0  0  0
 14 22  1  0  0  0  0
 14 13  1  0  0  0  0
 16 10  1  0  0  0  0
 17 11  1  0  0  0  0
 18 11  1  0  0  0  0
 23 14  1  0  0  0  0
 24 30  1  0  0  0  0
 25 26  1  0  0  0  0
 25 24  2  0  0  0  0
 26 28  2  0  0  0  0
 27 26  1  0  0  0  0
 28 34  1  0  0  0  0
 28 29  1  0  0  0  0
 29 31  1  0  0  0  0
 30 29  2  0  0  0  0
 32 31  1  0  0  0  0
 33 32  1  0  0  0  0
 34 32  1  0  0  0  0
M  END
>  <minimizedAffinity>
-5.0504179

$$$$

 OpenBabel03242523043D

 34 37  0  0  0  0  0  0  0  0999 V2000
   37.3160   33.1210   39.5170 C   0  0  0  0  0  0  0  0  0  0  0  0
   37.5500   31.8120   39.9120 C   0  0  0  0  0  0  0  0  0  0  0  0
   38.6260   31.5940   40.7300 C   0  0  0  0  0  0  0  0  0  0  0  0
   39.4200   32.6300   41.1350 N   0  0  0  0  0  0  0  0  0  0  0  0
   39.1530   33.8980   40.7250 C   0  0  0  0  0  0  0  0  0  0  0  0
   38.1160   34.1280   39.9290 N   0  0  0  0  0  0  0  0  0  0  0  0
   36.5360   33.4920   38.8770 H   0  0  0  0  0  0  0  0  0  0  0  0
   39.7720   34.7490   41.0320 H   0  0  0  0  0  0  0  0  0  0  0  0
   36.6590   30.8170   39.4970 N   0  0  0  0  0  0  0  0  0  0  0  0
   36.5860   30.3790   38.1730 C   0  0  0  0  0  0  0  0  0  0  0  0
   35.6590   29.2100   37.9360 C   0  0  0  0  0  0  0  0  0  0  0  0
   35.6900   28.1970   38.9110 N   0  0  0  0  0  0  0  0  0  0  0  0
   35.7770   28.6320   40.2420 C   0  0  0  0  0  0  0  0  0  0  0  0
   35.7240   30.1450   40.3620 C   0  0  0  0  0  0  0  0  0  0  0  0
   37.5590   29.9850   37.8620 H   0  0  0  0  0  0  0  0  0  0  0  0
   36.1180   31.1290   37.4690 H   0  0  0  0  0  0  0  0  0  0  0  0
   35.8200   28.7880   36.9270 H   0  0  0  0  0  0  0  0  0  0  0  0
   34.6020   29.6110   37.9220 H   0  0  0  0  0  0  0  0  0  0  0  0
   34.8690   27.5780   38.7850 H   0  0  0  0  0  0  0  0  0  0  0  0
   34.9700   28.2350   40.8540 H   0  0  0  0  0  0  0  0  0  0  0  0
   36.7680   28.2990   40.6490 H   0  0  0  0  0  0  0  0  0  0  0  0
   35.9780   30.3570   41.4120 H   0  0  0  0  0  0  0  0  0  0  0  0
   34.6720   30.4460   40.1290 H   0  0  0  0  0  0  0  0  0  0  0  0
   40.2790   29.8980   40.6740 C   0  0  0  0  0  3  0  0  0  0  0  0
   39.1200   30.3980   41.3190 C   0  0  0  0  0  0  0  0  0  0  0  0
   38.7280   29.5250   42.3330 C   0  0  0  0  0  0  0  0  0  0  0  0
   37.8140   29.9200   42.8070 H   0  0  0  0  0  0  0  0  0  0  0  0
   39.3520   28.3550   42.6750 C   0  0  0  0  0  0  0  0  0  0  0  0
   40.4710   27.9580   41.9870 C   0  0  0  0  0  0  0  0  0  0  0  0
   40.9560   28.7230   40.9720 C   0  0  0  0  0  3  0  0  0  0  0  0
   40.8460   26.7610   42.5710 O   0  0  0  0  0  0  0  0  0  0  0  0
   39.9510   26.4230   43.6130 C   0  0  0  0  0  3  0  0  0  0  0  0
   39.3910   25.4860   43.4030 H   0  0  0  0  0  0  0  0  0  0  0  0
   38.9890   27.4670   43.6750 O   0  0  0  0  0  0  0  0  0  0  0  0
  1  2  2  0  0  0  0
  1  6  1  0  0  0  0
  2  3  1  0  0  0  0
  3  4  2  0  0  0  0
  3 25  1  0  0  0  0
  5  8  1  0  0  0  0
  5  4  1  0  0  0  0
  6  5  2  0  0  0  0
  7  1  1  0  0  0  0
  9  2  1  0  0  0  0
  9 14  1  0  0  0  0
 10  9  1  0  0  0  0
 11 10  1  0  0  0  0
 11 12  1  0  0  0  0
 12 13  1  0  0  0  0
 13 14  1  0  0  0  0
 13 21  1  0  0  0  0
 13 20  1  0  0  0  0
 14 22  1  0  0  0  0
 15 10  1  0  0  0  0
 16 10  1  0  0  0  0
 17 11  1  0  0  0  0
 18 11  1  0  0  0  0
 19 12  1  0  0  0  0
 23 14  1  0  0  0  0
 24 30  2  0  0  0  0
 24 25  1  0  0  0  0
 25 26  2  0  0  0  0
 26 28  1  0  0  0  0
 26 27  1  0  0  0  0
 28 34  1  0  0  0  0
 29 31  1  0  0  0  0
 29 28  2  0  0  0  0
 30 29  1  0  0  0  0
 31 32  1  0  0  0  0
 32 34  1  0  0  0  0
 33 32  1  0  0  0  0
M  END
>  <minimizedAffinity>
-4.98338223

$$$$

 OpenBabel03242523043D

 34 37  0  0  0  0  0  0  0  0999 V2000
   35.8020   27.4430   38.7620 C   0  0  0  0  0  0  0  0  0  0  0  0
   36.6640   28.2950   39.4380 C   0  0  0  0  0  0  0  0  0  0  0  0
   36.9160   29.5100   38.8590 C   0  0  0  0  0  0  0  0  0  0  0  0
   36.3340   29.8550   37.6720 N   0  0  0  0  0  0  0  0  0  0  0  0
   35.4950   28.9890   37.0440 C   0  0  0  0  0  0  0  0  0  0  0  0
   35.2410   27.8060   37.5890 N   0  0  0  0  0  0  0  0  0  0  0  0
   35.4890   26.4540   39.0450 H   0  0  0  0  0  0  0  0  0  0  0  0
   35.0130   29.2370   36.0910 H   0  0  0  0  0  0  0  0  0  0  0  0
   37.1760   27.8880   40.6750 N   0  0  0  0  0  0  0  0  0  0  0  0
   38.3380   27.1220   40.7910 C   0  0  0  0  0  0  0  0  0  0  0  0
   38.8100   26.8870   42.2060 C   0  0  0  0  0  0  0  0  0  0  0  0
   38.7210   27.9910   43.0720 N   0  0  0  0  0  0  0  0  0  0  0  0
   37.5610   28.7720   42.9500 C   0  0  0  0  0  0  0  0  0  0  0  0
   36.5770   28.1940   41.9480 C   0  0  0  0  0  0  0  0  0  0  0  0
   39.1780   27.6580   40.3390 H   0  0  0  0  0  0  0  0  0  0  0  0
   38.2120   26.0480   40.4600 H   0  0  0  0  0  0  0  0  0  0  0  0
   39.8340   26.4690   42.2080 H   0  0  0  0  0  0  0  0  0  0  0  0
   38.1610   26.0750   42.6520 H   0  0  0  0  0  0  0  0  0  0  0  0
   38.8380   27.6680   44.0500 H   0  0  0  0  0  0  0  0  0  0  0  0
   37.0330   28.8690   43.8970 H   0  0  0  0  0  0  0  0  0  0  0  0
   37.8660   29.7840   42.5750 H   0  0  0  0  0  0  0  0  0  0  0  0
   35.8130   28.9760   41.8160 H   0  0  0  0  0  0  0  0  0  0  0  0
   36.1430   27.2770   42.4200 H   0  0  0  0  0  0  0  0  0  0  0  0
   36.9820   31.7920   39.4890 C   0  0  0  0  0  3  0  0  0  0  0  0
   37.7200   30.5990   39.2930 C   0  0  0  0  0  0  0  0  0  0  0  0
   39.0760   30.8380   39.5150 C   0  0  0  0  0  0  0  0  0  0  0  0
   39.6340   29.9040   39.3370 H   0  0  0  0  0  0  0  0  0  0  0  0
   39.6350   32.0370   39.8710 C   0  0  0  0  0  0  0  0  0  0  0  0
   38.8310   33.1360   40.0360 C   0  0  0  0  0  0  0  0  0  0  0  0
   37.4880   33.0340   39.8480 C   0  0  0  0  0  3  0  0  0  0  0  0
   39.6930   34.1600   40.3880 O   0  0  0  0  0  0  0  0  0  0  0  0
   41.0250   33.6870   40.4310 C   0  0  0  0  0  3  0  0  0  0  0  0
   41.6720   34.1750   39.6700 H   0  0  0  0  0  0  0  0  0  0  0  0
   40.9750   32.3060   40.0980 O   0  0  0  0  0  0  0  0  0  0  0  0
  1  7  1  0  0  0  0
  1  2  1  0  0  0  0
  2  9  1  0  0  0  0
  3 25  1  0  0  0  0
  3  2  2  0  0  0  0
  4  3  1  0  0  0  0
  5  6  1  0  0  0  0
  5  4  2  0  0  0  0
  6  1  2  0  0  0  0
  8  5  1  0  0  0  0
  9 10  1  0  0  0  0
  9 14  1  0  0  0  0
 10 11  1  0  0  0  0
 11 17  1  0  0  0  0
 11 18  1  0  0  0  0
 11 12  1  0  0  0  0
 12 19  1  0  0  0  0
 13 12  1  0  0  0  0
 13 20  1  0  0  0  0
 14 23  1  0  0  0  0
 14 13  1  0  0  0  0
 15 10  1  0  0  0  0
 16 10  1  0  0  0  0
 21 13  1  0  0  0  0
 22 14  1  0  0  0  0
 24 30  1  0  0  0  0
 25 24  2  0  0  0  0
 25 26  1  0  0  0  0
 26 28  2  0  0  0  0
 27 26  1  0  0  0  0
 28 29  1  0  0  0  0
 28 34  1  0  0  0  0
 29 31  1  0  0  0  0
 30 29  2  0  0  0  0
 31 32  1  0  0  0  0
 33 32  1  0  0  0  0
 34 32  1  0  0  0  0
M  END
>  <minimizedAffinity>
-4.96835804

$$$$

 OpenBabel03242523043D

 34 37  0  0  0  0  0  0  0  0999 V2000
   37.0060   30.6350   36.8020 C   0  0  0  0  0  0  0  0  0  0  0  0
   37.4220   30.3840   38.1010 C   0  0  0  0  0  0  0  0  0  0  0  0
   37.3450   29.0880   38.5380 C   0  0  0  0  0  0  0  0  0  0  0  0
   36.8820   28.0980   37.7180 N   0  0  0  0  0  0  0  0  0  0  0  0
   36.4860   28.3890   36.4500 C   0  0  0  0  0  0  0  0  0  0  0  0
   36.5500   29.6400   36.0110 N   0  0  0  0  0  0  0  0  0  0  0  0
   36.9810   31.5760   36.2820 H   0  0  0  0  0  0  0  0  0  0  0  0
   36.1090   27.6170   35.7690 H   0  0  0  0  0  0  0  0  0  0  0  0
   37.9340   31.4430   38.8580 N   0  0  0  0  0  0  0  0  0  0  0  0
   39.2780   31.8190   38.8110 C   0  0  0  0  0  0  0  0  0  0  0  0
   39.6220   33.0630   39.5940 C   0  0  0  0  0  0  0  0  0  0  0  0
   38.6930   34.1160   39.5100 N   0  0  0  0  0  0  0  0  0  0  0  0
   37.3410   33.7420   39.5440 C   0  0  0  0  0  0  0  0  0  0  0  0
   37.1580   32.2500   39.7630 C   0  0  0  0  0  0  0  0  0  0  0  0
   39.5470   32.0940   37.7860 H   0  0  0  0  0  0  0  0  0  0  0  0
   39.9750   31.0870   39.3160 H   0  0  0  0  0  0  0  0  0  0  0  0
   40.6380   33.4150   39.3340 H   0  0  0  0  0  0  0  0  0  0  0  0
   39.6820   32.7730   40.6860 H   0  0  0  0  0  0  0  0  0  0  0  0
   38.8960   34.8090   40.2540 H   0  0  0  0  0  0  0  0  0  0  0  0
   36.7970   34.2510   40.3380 H   0  0  0  0  0  0  0  0  0  0  0  0
   36.8900   33.9920   38.5480 H   0  0  0  0  0  0  0  0  0  0  0  0
   36.0860   32.0670   39.5920 H   0  0  0  0  0  0  0  0  0  0  0  0
   37.4400   32.0480   40.8260 H   0  0  0  0  0  0  0  0  0  0  0  0
   36.6020   28.3480   40.6620 C   0  0  0  0  0  3  0  0  0  0  0  0
   37.7030   28.5030   39.7830 C   0  0  0  0  0  0  0  0  0  0  0  0
   38.8770   28.0980   40.4170 C   0  0  0  0  0  0  0  0  0  0  0  0
   39.7220   28.2470   39.7260 H   0  0  0  0  0  0  0  0  0  0  0  0
   38.9770   27.6170   41.6960 C   0  0  0  0  0  0  0  0  0  0  0  0
   37.8490   27.5050   42.4680 C   0  0  0  0  0  0  0  0  0  0  0  0
   36.6380   27.8690   41.9640 C   0  0  0  0  0  3  0  0  0  0  0  0
   38.2900   26.9980   43.6770 O   0  0  0  0  0  0  0  0  0  0  0  0
   39.6910   26.8060   43.6460 C   0  0  0  0  0  3  0  0  0  0  0  0
   40.2230   27.4540   44.3760 H   0  0  0  0  0  0  0  0  0  0  0  0
   40.1260   27.2070   42.3540 O   0  0  0  0  0  0  0  0  0  0  0  0
  1  2  1  0  0  0  0
  2  3  2  0  0  0  0
  2  9  1  0  0  0  0
  3 25  1  0  0  0  0
  4  3  1  0  0  0  0
  5  4  2  0  0  0  0
  6  5  1  0  0  0  0
  6  1  2  0  0  0  0
  7  1  1  0  0  0  0
  8  5  1  0  0  0  0
  9 14  1  0  0  0  0
 10  9  1  0  0  0  0
 10 16  1  0  0  0  0
 10 11  1  0  0  0  0
 11 18  1  0  0  0  0
 12 13  1  0  0  0  0
 12 11  1  0  0  0  0
 12 19  1  0  0  0  0
 13 14  1  0  0  0  0
 13 20  1  0  0  0  0
 14 23  1  0  0  0  0
 15 10  1  0  0  0  0
 17 11  1  0  0  0  0
 21 13  1  0  0  0  0
 22 14  1  0  0  0  0
 24 30  1  0  0  0  0
 25 26  1  0  0  0  0
 25 24  2  0  0  0  0
 26 28  2  0  0  0  0
 27 26  1  0  0  0  0
 28 34  1  0  0  0  0
 28 29  1  0  0  0  0
 29 31  1  0  0  0  0
 30 29  2  0  0  0  0
 32 31  1  0  0  0  0
 32 33  1  0  0  0  0
 34 32  1  0  0  0  0
M  END
>  <minimizedAffinity>
-4.95562792

$$$$

 OpenBabel03242523043D

 34 37  0  0  0  0  0  0  0  0999 V2000
   37.0920   26.5610   41.1040 C   0  0  0  0  0  0  0  0  0  0  0  0
   37.5230   27.7490   40.5310 C   0  0  0  0  0  0  0  0  0  0  0  0
   37.6660   28.8240   41.3650 C   0  0  0  0  0  0  0  0  0  0  0  0
   37.3980   28.7160   42.7010 N   0  0  0  0  0  0  0  0  0  0  0  0
   36.9790   27.5320   43.2200 C   0  0  0  0  0  0  0  0  0  0  0  0
   36.8310   26.4800   42.4260 N   0  0  0  0  0  0  0  0  0  0  0  0
   36.9110   25.6180   40.6210 H   0  0  0  0  0  0  0  0  0  0  0  0
   36.7550   27.4150   44.2880 H   0  0  0  0  0  0  0  0  0  0  0  0
   37.8270   27.7620   39.1650 N   0  0  0  0  0  0  0  0  0  0  0  0
   36.8510   27.9280   38.1790 C   0  0  0  0  0  0  0  0  0  0  0  0
   37.3800   28.0460   36.7700 C   0  0  0  0  0  0  0  0  0  0  0  0
   38.5390   28.8260   36.6150 N   0  0  0  0  0  0  0  0  0  0  0  0
   39.5170   28.6740   37.6090 C   0  0  0  0  0  0  0  0  0  0  0  0
   39.1510   27.6030   38.6210 C   0  0  0  0  0  0  0  0  0  0  0  0
   36.3370   28.8820   38.3280 H   0  0  0  0  0  0  0  0  0  0  0  0
   36.1790   27.0290   38.0480 H   0  0  0  0  0  0  0  0  0  0  0  0
   36.5810   28.3890   36.0850 H   0  0  0  0  0  0  0  0  0  0  0  0
   37.6430   27.0050   36.4160 H   0  0  0  0  0  0  0  0  0  0  0  0
   38.9450   28.6500   35.6770 H   0  0  0  0  0  0  0  0  0  0  0  0
   40.4840   28.4020   37.1910 H   0  0  0  0  0  0  0  0  0  0  0  0
   39.5970   29.6450   38.1640 H   0  0  0  0  0  0  0  0  0  0  0  0
   39.8940   27.7070   39.4270 H   0  0  0  0  0  0  0  0  0  0  0  0
   39.2550   26.6200   38.0960 H   0  0  0  0  0  0  0  0  0  0  0  0
   37.0540   31.0040   40.6690 C   0  0  0  0  0  3  0  0  0  0  0  0
   38.1000   30.1530   41.1050 C   0  0  0  0  0  0  0  0  0  0  0  0
   39.3110   30.8450   41.0910 C   0  0  0  0  0  0  0  0  0  0  0  0
   40.1130   30.1600   41.4120 H   0  0  0  0  0  0  0  0  0  0  0  0
   39.4880   32.1510   40.7180 C   0  0  0  0  0  0  0  0  0  0  0  0
   38.4080   32.8920   40.3110 C   0  0  0  0  0  0  0  0  0  0  0  0
   37.1690   32.3320   40.2790 C   0  0  0  0  0  3  0  0  0  0  0  0
   38.9220   34.1410   40.0120 O   0  0  0  0  0  0  0  0  0  0  0  0
   40.3200   34.1610   40.2310 C   0  0  0  0  0  3  0  0  0  0  0  0
   40.8920   34.3330   39.2940 H   0  0  0  0  0  0  0  0  0  0  0  0
   40.6750   32.8650   40.6940 O   0  0  0  0  0  0  0  0  0  0  0  0
  1  6  1  0  0  0  0
  2  1  2  0  0  0  0
  2  3  1  0  0  0  0
  3  4  2  0  0  0  0
  4  5  1  0  0  0  0
  5  8  1  0  0  0  0
  6  5  2  0  0  0  0
  7  1  1  0  0  0  0
  9  2  1  0  0  0  0
 10 15  1  0  0  0  0
 10  9  1  0  0  0  0
 11 10  1  0  0  0  0
 12 11  1  0  0  0  0
 12 13  1  0  0  0  0
 13 21  1  0  0  0  0
 13 14  1  0  0  0  0
 14  9  1  0  0  0  0
 14 22  1  0  0  0  0
 16 10  1  0  0  0  0
 17 11  1  0  0  0  0
 18 11  1  0  0  0  0
 19 12  1  0  0  0  0
 20 13  1  0  0  0  0
 23 14  1  0  0  0  0
 24 25  1  0  0  0  0
 25  3  1  0  0  0  0
 26 25  2  0  0  0  0
 26 27  1  0  0  0  0
 28 26  1  0  0  0  0
 29 28  2  0  0  0  0
 30 29  1  0  0  0  0
 30 24  2  0  0  0  0
 31 32  1  0  0  0  0
 31 29  1  0  0  0  0
 32 34  1  0  0  0  0
 33 32  1  0  0  0  0
 34 28  1  0  0  0  0
M  END
>  <minimizedAffinity>
-4.840693

$$$$

 OpenBabel03242523043D

 34 37  0  0  0  0  0  0  0  0999 V2000
   36.9510   31.5380   38.7660 C   0  0  0  0  0  0  0  0  0  0  0  0
   36.7860   30.1650   38.8850 C   0  0  0  0  0  0  0  0  0  0  0  0
   37.2320   29.5850   40.0420 C   0  0  0  0  0  0  0  0  0  0  0  0
   37.8070   30.3370   41.0270 N   0  0  0  0  0  0  0  0  0  0  0  0
   37.9470   31.6800   40.8680 C   0  0  0  0  0  0  0  0  0  0  0  0
   37.5230   32.2590   39.7530 N   0  0  0  0  0  0  0  0  0  0  0  0
   36.6770   32.1700   37.9400 H   0  0  0  0  0  0  0  0  0  0  0  0
   38.4050   32.3100   41.6410 H   0  0  0  0  0  0  0  0  0  0  0  0
   36.1390   29.4750   37.8540 N   0  0  0  0  0  0  0  0  0  0  0  0
   34.7840   29.1410   37.9080 C   0  0  0  0  0  0  0  0  0  0  0  0
   34.2290   28.5130   36.6520 C   0  0  0  0  0  0  0  0  0  0  0  0
   34.6680   29.0770   35.4410 N   0  0  0  0  0  0  0  0  0  0  0  0
   36.0260   29.4260   35.3860 C   0  0  0  0  0  0  0  0  0  0  0  0
   36.7770   29.0280   36.6440 C   0  0  0  0  0  0  0  0  0  0  0  0
   34.1850   30.0520   38.0110 H   0  0  0  0  0  0  0  0  0  0  0  0
   34.5460   28.3180   38.6450 H   0  0  0  0  0  0  0  0  0  0  0  0
   33.1240   28.4810   36.6920 H   0  0  0  0  0  0  0  0  0  0  0  0
   34.5540   27.4300   36.6400 H   0  0  0  0  0  0  0  0  0  0  0  0
   34.4260   28.4380   34.6610 H   0  0  0  0  0  0  0  0  0  0  0  0
   36.5340   28.9550   34.5470 H   0  0  0  0  0  0  0  0  0  0  0  0
   36.0900   30.5420   35.2960 H   0  0  0  0  0  0  0  0  0  0  0  0
   37.7640   29.5080   36.5500 H   0  0  0  0  0  0  0  0  0  0  0  0
   36.8650   27.9120   36.6230 H   0  0  0  0  0  0  0  0  0  0  0  0
   36.9260   28.1010   41.8630 C   0  0  0  0  0  3  0  0  0  0  0  0
   37.1970   28.2320   40.4780 C   0  0  0  0  0  0  0  0  0  0  0  0
   37.4320   26.9760   39.9200 C   0  0  0  0  0  0  0  0  0  0  0  0
   37.6620   27.1020   38.8490 H   0  0  0  0  0  0  0  0  0  0  0  0
   37.4090   25.7810   40.5880 C   0  0  0  0  0  0  0  0  0  0  0  0
   37.1350   25.7610   41.9320 C   0  0  0  0  0  0  0  0  0  0  0  0
   36.8890   26.9230   42.5950 C   0  0  0  0  0  3  0  0  0  0  0  0
   37.1880   24.4250   42.2890 O   0  0  0  0  0  0  0  0  0  0  0  0
   37.5010   23.6290   41.1630 C   0  0  0  0  0  3  0  0  0  0  0  0
   38.4760   23.1050   41.2720 H   0  0  0  0  0  0  0  0  0  0  0  0
   37.6370   24.5180   40.0630 O   0  0  0  0  0  0  0  0  0  0  0  0
  1  2  2  0  0  0  0
  1  6  1  0  0  0  0
  2  3  1  0  0  0  0
  3 25  1  0  0  0  0
  3  4  2  0  0  0  0
  5  4  1  0  0  0  0
  5  8  1  0  0  0  0
  6  5  2  0  0  0  0
  7  1  1  0  0  0  0
  9 10  1  0  0  0  0
  9  2  1  0  0  0  0
 10 15  1  0  0  0  0
 10 16  1  0  0  0  0
 11 17  1  0  0  0  0
 11 10  1  0  0  0  0
 12 11  1  0  0  0  0
 13 12  1  0  0  0  0
 13 14  1  0  0  0  0
 14  9  1  0  0  0  0
 18 11  1  0  0  0  0
 19 12  1  0  0  0  0
 20 13  1  0  0  0  0
 21 13  1  0  0  0  0
 22 14  1  0  0  0  0
 23 14  1  0  0  0  0
 24 30  1  0  0  0  0
 25 24  2  0  0  0  0
 26 25  1  0  0  0  0
 26 28  2  0  0  0  0
 27 26  1  0  0  0  0
 28 29  1  0  0  0  0
 29 31  1  0  0  0  0
 29 30  2  0  0  0  0
 32 33  1  0  0  0  0
 32 31  1  0  0  0  0
 34 28  1  0  0  0  0
 34 32  1  0  0  0  0
M  END
>  <minimizedAffinity>
-4.83643866

$$$$
