
 OpenBabel03252508543D

 45 49  0  0  1  0  0  0  0  0999 V2000
   43.1620   34.3020   40.6290 C   0  0  0  0  0  0  0  0  0  0  0  0
   43.1420   35.4400   40.0500 O   0  0  0  0  0  0  0  0  0  0  0  0
   41.7750   33.9110   40.4610 N   0  0  0  0  0  0  0  0  0  0  0  0
   41.3410   33.7980   39.0840 C   0  0  0  0  0  0  0  0  0  0  0  0
   40.5910   35.1170   38.7970 C   0  0  0  0  0  0  0  0  0  0  0  0
   39.8680   35.4920   40.0990 C   0  0  0  0  0  0  0  0  0  0  0  0
   39.4910   34.2570   40.8850 C   0  0  0  0  0  0  0  0  0  0  0  0
   40.7700   33.6230   41.4600 C   0  0  1  0  0  0  0  0  0  0  0  0
   42.1680   33.7620   38.3560 H   0  0  0  0  0  0  0  0  0  0  0  0
   40.6720   32.9430   38.8960 H   0  0  0  0  0  0  0  0  0  0  0  0
   41.3420   35.9220   38.6250 H   0  0  0  0  0  0  0  0  0  0  0  0
   39.9200   35.0390   37.9420 H   0  0  0  0  0  0  0  0  0  0  0  0
   38.9120   35.9650   39.7900 H   0  0  0  0  0  0  0  0  0  0  0  0
   40.4810   36.1430   40.7440 H   0  0  0  0  0  0  0  0  0  0  0  0
   39.0660   33.5390   40.1380 H   0  0  0  0  0  0  0  0  0  0  0  0
   38.8040   34.5620   41.6710 H   0  0  0  0  0  0  0  0  0  0  0  0
   41.0750   34.1110   42.3910 H   0  0  0  0  0  0  0  0  0  0  0  0
   39.3900   31.4970   41.4390 C   0  0  0  0  0  3  0  0  0  0  0  0
   40.5620   32.1740   41.6980 C   0  0  0  0  0  0  0  0  0  0  0  0
   41.6250   31.4550   42.2190 C   0  0  0  0  0  0  0  0  0  0  0  0
   42.6040   31.8920   42.4640 H   0  0  0  0  0  0  0  0  0  0  0  0
   41.5290   30.1010   42.4760 C   0  0  0  0  0  0  0  0  0  0  0  0
   40.3350   29.4340   42.2070 C   0  0  0  0  0  0  0  0  0  0  0  0
   39.2680   30.1320   41.6890 C   0  0  0  0  0  3  0  0  0  0  0  0
   40.5050   28.0820   42.5560 O   0  0  0  0  0  0  0  0  0  0  0  0
   41.9180   27.8590   42.4420 C   0  0  0  0  0  3  0  0  0  0  0  0
   42.2580   26.9900   43.0030 H   0  0  0  0  0  0  0  0  0  0  0  0
   42.3840   29.1050   42.9850 O   0  0  0  0  0  0  0  0  0  0  0  0
   44.2370   33.7060   41.2110 O   0  0  0  0  0  0  0  0  0  0  0  0
   45.5660   33.9820   41.0030 C   0  0  0  0  0  0  0  0  0  0  0  0
   46.2680   34.6050   42.0320 C   0  0  0  0  0  0  0  0  0  0  0  0
   47.6240   34.8760   41.7950 C   0  0  0  0  0  0  0  0  0  0  0  0
   48.1660   34.5180   40.5870 N   0  0  0  0  0  0  0  0  0  0  0  0
   47.4410   33.9250   39.6420 C   0  0  0  0  0  0  0  0  0  0  0  0
   46.1440   33.6520   39.8360 N   0  0  0  0  0  0  0  0  0  0  0  0
   48.1700   35.3590   42.5910 H   0  0  0  0  0  0  0  0  0  0  0  0
   47.8900   33.6470   38.6870 H   0  0  0  0  0  0  0  0  0  0  0  0
   45.5990   34.9410   43.2700 C   0  0  0  0  0  0  0  0  0  0  0  0
   45.0050   36.1850   43.4930 C   0  0  0  0  0  0  0  0  0  0  0  0
   44.5000   36.0780   44.7620 C   0  0  0  0  0  0  0  0  0  0  0  0
   44.7620   34.8550   45.2860 N   0  0  0  0  0  0  0  0  0  0  0  0
   45.4250   34.1990   44.3590 N   0  0  0  0  0  0  0  0  0  0  0  0
   44.9730   37.0140   42.8000 H   0  0  0  0  0  0  0  0  0  0  0  0
   43.9610   36.8940   45.2510 H   0  0  0  0  0  0  0  0  0  0  0  0
   44.4480   34.5910   46.2550 H   0  0  0  0  0  0  0  0  0  0  0  0
  1 29  1  0  0  0  0
  2  1  2  0  0  0  0
  3  1  1  0  0  0  0
  3  8  1  0  0  0  0
  4  3  1  0  0  0  0
  5  4  1  0  0  0  0
  5  6  1  0  0  0  0
  6 14  1  0  0  0  0
  6  7  1  0  0  0  0
  7  8  1  0  0  0  0
  7 16  1  0  0  0  0
  8 19  1  0  0  0  0
  8 17  1  1  0  0  0
  9  4  1  0  0  0  0
 10  4  1  0  0  0  0
 11  5  1  0  0  0  0
 12  5  1  0  0  0  0
 13  6  1  0  0  0  0
 15  7  1  0  0  0  0
 18 24  2  0  0  0  0
 18 19  1  0  0  0  0
 19 20  2  0  0  0  0
 20 21  1  0  0  0  0
 20 22  1  0  0  0  0
 22 28  1  0  0  0  0
 23 22  2  0  0  0  0
 23 25  1  0  0  0  0
 24 23  1  0  0  0  0
 26 25  1  0  0  0  0
 26 28  1  0  0  0  0
 26 27  1  0  0  0  0
 30 29  1  0  0  0  0
 30 31  1  0  0  0  0
 31 38  1  0  0  0  0
 32 31  2  0  0  0  0
 32 36  1  0  0  0  0
 33 32  1  0  0  0  0
 34 35  1  0  0  0  0
 34 33  2  0  0  0  0
 35 30  2  0  0  0  0
 37 34  1  0  0  0  0
 38 39  1  0  0  0  0
 38 42  2  0  0  0  0
 39 40  2  0  0  0  0
 40 44  1  0  0  0  0
 40 41  1  0  0  0  0
 41 45  1  0  0  0  0
 42 41  1  0  0  0  0
 43 39  1  0  0  0  0
M  END
>  <minimizedAffinity>
-6.96069241

>  <minimizedRMSD>
0.79388839

$$$$
