
 OpenBabel03242510143D

 44 48  0  0  1  0  0  0  0  0999 V2000
   38.6240   30.1010   40.8900 N   0  0  0  0  0  0  0  0  0  0  0  0
   39.9980   30.6120   40.8890 C   0  0  0  0  0  0  0  0  0  0  0  0
   40.0410   32.1100   40.8090 C   0  0  0  0  0  0  0  0  0  0  0  0
   39.5050   32.5950   39.5650 N   0  0  0  0  0  0  0  0  0  0  0  0
   38.6590   31.5460   38.9770 C   0  0  0  0  0  0  0  0  0  0  0  0
   37.7870   30.9290   40.0440 C   0  0  1  0  0  0  0  0  0  0  0  0
   40.5140   30.2220   39.9860 H   0  0  0  0  0  0  0  0  0  0  0  0
   40.4910   30.2650   41.8040 H   0  0  0  0  0  0  0  0  0  0  0  0
   41.0360   32.4730   41.0540 H   0  0  0  0  0  0  0  0  0  0  0  0
   39.3270   32.4810   41.6030 H   0  0  0  0  0  0  0  0  0  0  0  0
   40.2950   32.8170   38.9510 H   0  0  0  0  0  0  0  0  0  0  0  0
   39.2380   30.8400   38.3820 H   0  0  0  0  0  0  0  0  0  0  0  0
   37.9570   32.1210   38.3110 H   0  0  0  0  0  0  0  0  0  0  0  0
   37.4870   31.7970   40.6990 H   0  0  0  0  0  0  0  0  0  0  0  0
   35.4850   29.8300   40.1570 C   0  0  0  0  0  3  0  0  0  0  0  0
   36.6020   30.2690   39.4940 C   0  0  0  0  0  0  0  0  0  0  0  0
   36.5680   30.0100   38.1360 C   0  0  0  0  0  0  0  0  0  0  0  0
   37.3260   30.2530   37.4090 H   0  0  0  0  0  0  0  0  0  0  0  0
   35.5080   29.3670   37.4860 C   0  0  0  0  0  0  0  0  0  0  0  0
   34.4070   28.9530   38.2460 C   0  0  0  0  0  0  0  0  0  0  0  0
   34.4050   29.1910   39.5900 C   0  0  0  0  0  3  0  0  0  0  0  0
   33.4390   28.3340   37.4700 O   0  0  0  0  0  0  0  0  0  0  0  0
   34.0320   28.1660   36.1970 C   0  0  0  0  0  3  0  0  0  0  0  0
   34.2660   27.0910   36.0830 H   0  0  0  0  0  0  0  0  0  0  0  0
   35.1900   28.9800   36.1960 O   0  0  0  0  0  0  0  0  0  0  0  0
   38.8200   27.3840   39.3580 Br  0  0  0  0  0  0  0  0  0  0  0  0
   38.1300   27.6930   41.0970 C   0  0  0  0  0  0  0  0  0  0  0  0
   37.6400   26.6580   41.8540 C   0  0  0  0  0  0  0  0  0  0  0  0
   37.1270   26.8810   43.1560 C   0  0  0  0  0  0  0  0  0  0  0  0
   37.1330   28.1520   43.6360 C   0  0  0  0  0  0  0  0  0  0  0  0
   37.6340   29.1660   42.8440 C   0  0  0  0  0  0  0  0  0  0  0  0
   38.1340   28.9730   41.5840 C   0  0  0  0  0  0  0  0  0  0  0  0
   36.7690   25.9890   43.6550 H   0  0  0  0  0  0  0  0  0  0  0  0
   36.7340   28.2850   44.6310 H   0  0  0  0  0  0  0  0  0  0  0  0
   37.6130   30.1630   43.2780 H   0  0  0  0  0  0  0  0  0  0  0  0
   36.5540   23.6250   40.1230 C   0  0  0  0  0  0  0  0  0  0  0  0
   37.6660   22.7660   40.2270 C   0  0  0  0  0  0  0  0  0  0  0  0
   38.7880   23.2670   40.9060 C   0  0  0  0  0  0  0  0  0  0  0  0
   38.7530   24.5150   41.4180 N   0  0  0  0  0  0  0  0  0  0  0  0
   37.6640   25.3150   41.2990 C   0  0  0  0  0  0  0  0  0  0  0  0
   36.5710   24.8420   40.6430 N   0  0  0  0  0  0  0  0  0  0  0  0
   35.7370   23.1680   39.5890 H   0  0  0  0  0  0  0  0  0  0  0  0
   37.7810   21.7660   39.8540 H   0  0  0  0  0  0  0  0  0  0  0  0
   39.6990   22.7020   41.0500 H   0  0  0  0  0  0  0  0  0  0  0  0
  1 32  1  0  0  0  0
  2  1  1  0  0  0  0
  2  8  1  0  0  0  0
  3  2  1  0  0  0  0
  3  9  1  0  0  0  0
  3 10  1  0  0  0  0
  4  3  1  0  0  0  0
  5  4  1  0  0  0  0
  5  6  1  0  0  0  0
  6 14  1  1  0  0  0
  6  1  1  0  0  0  0
  7  2  1  0  0  0  0
 11  4  1  0  0  0  0
 12  5  1  0  0  0  0
 13  5  1  0  0  0  0
 16  6  1  0  0  0  0
 16 15  2  0  0  0  0
 17 16  1  0  0  0  0
 18 17  1  0  0  0  0
 19 17  2  0  0  0  0
 19 20  1  0  0  0  0
 20 21  2  0  0  0  0
 21 15  1  0  0  0  0
 22 20  1  0  0  0  0
 23 22  1  0  0  0  0
 24 23  1  0  0  0  0
 25 23  1  0  0  0  0
 25 19  1  0  0  0  0
 26 27  1  0  0  0  0
 27 32  2  0  0  0  0
 27 28  1  0  0  0  0
 28 29  2  0  0  0  0
 29 30  1  0  0  0  0
 29 33  1  0  0  0  0
 30 34  1  0  0  0  0
 31 35  1  0  0  0  0
 31 30  2  0  0  0  0
 32 31  1  0  0  0  0
 36 37  2  0  0  0  0
 36 41  1  0  0  0  0
 37 38  1  0  0  0  0
 38 44  1  0  0  0  0
 38 39  2  0  0  0  0
 40 39  1  0  0  0  0
 40 28  1  0  0  0  0
 41 40  2  0  0  0  0
 42 36  1  0  0  0  0
 43 37  1  0  0  0  0
M  END
>  <minimizedAffinity>
-6.44474745

$$$$

 OpenBabel03242510143D

 44 48  0  0  1  0  0  0  0  0999 V2000
   37.0820   28.2980   37.9900 N   0  0  0  0  0  0  0  0  0  0  0  0
   36.4460   27.4300   36.9950 C   0  0  0  0  0  0  0  0  0  0  0  0
   37.2580   27.3260   35.7370 C   0  0  0  0  0  0  0  0  0  0  0  0
   37.3590   28.5910   35.0590 N   0  0  0  0  0  0  0  0  0  0  0  0
   37.0610   29.6640   36.0200 C   0  0  0  0  0  0  0  0  0  0  0  0
   37.7640   29.3930   37.3290 C   0  0  1  0  0  0  0  0  0  0  0  0
   35.4680   27.8790   36.7160 H   0  0  0  0  0  0  0  0  0  0  0  0
   36.3100   26.4400   37.4450 H   0  0  0  0  0  0  0  0  0  0  0  0
   36.9010   26.5030   35.1240 H   0  0  0  0  0  0  0  0  0  0  0  0
   38.3110   27.0850   36.0710 H   0  0  0  0  0  0  0  0  0  0  0  0
   36.6800   28.5870   34.2910 H   0  0  0  0  0  0  0  0  0  0  0  0
   35.9920   29.8590   36.0960 H   0  0  0  0  0  0  0  0  0  0  0  0
   37.5830   30.5590   35.5790 H   0  0  0  0  0  0  0  0  0  0  0  0
   38.7650   28.9690   37.0280 H   0  0  0  0  0  0  0  0  0  0  0  0
   37.0000   31.5300   38.5000 C   0  0  0  0  0  3  0  0  0  0  0  0
   37.9410   30.6020   38.1360 C   0  0  0  0  0  0  0  0  0  0  0  0
   39.2100   30.9020   38.5950 C   0  0  0  0  0  0  0  0  0  0  0  0
   40.1110   30.3320   38.4360 H   0  0  0  0  0  0  0  0  0  0  0  0
   39.5220   32.0350   39.3560 C   0  0  0  0  0  0  0  0  0  0  0  0
   38.4940   32.9290   39.6800 C   0  0  0  0  0  0  0  0  0  0  0  0
   37.2270   32.6650   39.2440 C   0  0  0  0  0  3  0  0  0  0  0  0
   38.9490   33.9990   40.4350 O   0  0  0  0  0  0  0  0  0  0  0  0
   40.3600   33.8900   40.4240 C   0  0  0  0  0  3  0  0  0  0  0  0
   40.7450   34.6860   39.7610 H   0  0  0  0  0  0  0  0  0  0  0  0
   40.6460   32.5910   39.9410 O   0  0  0  0  0  0  0  0  0  0  0  0
   39.6450   27.0260   39.2460 Br  0  0  0  0  0  0  0  0  0  0  0  0
   38.0790   27.6140   40.1400 C   0  0  0  0  0  0  0  0  0  0  0  0
   37.9690   27.5150   41.5040 C   0  0  0  0  0  0  0  0  0  0  0  0
   36.8040   27.9570   42.1800 C   0  0  0  0  0  0  0  0  0  0  0  0
   35.7950   28.4830   41.4360 C   0  0  0  0  0  0  0  0  0  0  0  0
   35.9450   28.5640   40.0660 C   0  0  0  0  0  0  0  0  0  0  0  0
   37.0610   28.1450   39.3930 C   0  0  0  0  0  0  0  0  0  0  0  0
   36.8320   27.8280   43.2540 H   0  0  0  0  0  0  0  0  0  0  0  0
   34.9220   28.8090   41.9830 H   0  0  0  0  0  0  0  0  0  0  0  0
   35.1060   28.9930   39.5210 H   0  0  0  0  0  0  0  0  0  0  0  0
   40.1430   25.0590   43.1220 C   0  0  0  0  0  0  0  0  0  0  0  0
   41.1740   25.8420   43.6800 C   0  0  0  0  0  0  0  0  0  0  0  0
   41.0890   27.2290   43.4780 C   0  0  0  0  0  0  0  0  0  0  0  0
   40.0540   27.7390   42.7800 N   0  0  0  0  0  0  0  0  0  0  0  0
   39.0790   26.9540   42.2560 C   0  0  0  0  0  0  0  0  0  0  0  0
   39.1490   25.6090   42.4440 N   0  0  0  0  0  0  0  0  0  0  0  0
   40.2810   24.0090   43.3190 H   0  0  0  0  0  0  0  0  0  0  0  0
   42.0280   25.5260   44.2450 H   0  0  0  0  0  0  0  0  0  0  0  0
   41.8190   27.9320   43.8580 H   0  0  0  0  0  0  0  0  0  0  0  0
  1 32  1  0  0  0  0
  2  8  1  0  0  0  0
  2  1  1  0  0  0  0
  3 10  1  0  0  0  0
  3  2  1  0  0  0  0
  4  3  1  0  0  0  0
  4  5  1  0  0  0  0
  5 12  1  0  0  0  0
  5  6  1  0  0  0  0
  6 14  1  6  0  0  0
  6  1  1  0  0  0  0
  6 16  1  0  0  0  0
  7  2  1  0  0  0  0
  9  3  1  0  0  0  0
 11  4  1  0  0  0  0
 13  5  1  0  0  0  0
 15 21  1  0  0  0  0
 16 15  2  0  0  0  0
 16 17  1  0  0  0  0
 17 19  2  0  0  0  0
 18 17  1  0  0  0  0
 19 20  1  0  0  0  0
 19 25  1  0  0  0  0
 20 22  1  0  0  0  0
 21 20  2  0  0  0  0
 23 22  1  0  0  0  0
 24 23  1  0  0  0  0
 25 23  1  0  0  0  0
 26 27  1  0  0  0  0
 27 28  1  0  0  0  0
 28 29  2  0  0  0  0
 28 40  1  0  0  0  0
 29 33  1  0  0  0  0
 30 34  1  0  0  0  0
 30 29  1  0  0  0  0
 31 30  2  0  0  0  0
 32 31  1  0  0  0  0
 32 27  2  0  0  0  0
 35 31  1  0  0  0  0
 36 42  1  0  0  0  0
 36 37  1  0  0  0  0
 37 43  1  0  0  0  0
 38 37  2  0  0  0  0
 38 44  1  0  0  0  0
 39 38  1  0  0  0  0
 40 41  1  0  0  0  0
 40 39  2  0  0  0  0
 41 36  2  0  0  0  0
M  END
>  <minimizedAffinity>
-6.30442858

$$$$

 OpenBabel03242510143D

 44 48  0  0  1  0  0  0  0  0999 V2000
   38.0440   29.6110   41.4300 N   0  0  0  0  0  0  0  0  0  0  0  0
   38.2030   29.3640   42.8660 C   0  0  0  0  0  0  0  0  0  0  0  0
   38.7830   28.0070   43.1430 C   0  0  0  0  0  0  0  0  0  0  0  0
   37.9010   26.9520   42.7190 N   0  0  0  0  0  0  0  0  0  0  0  0
   36.9530   27.4980   41.7360 C   0  0  0  0  0  0  0  0  0  0  0  0
   37.6840   28.3810   40.7530 C   0  0  1  0  0  0  0  0  0  0  0  0
   37.1970   29.3920   43.3380 H   0  0  0  0  0  0  0  0  0  0  0  0
   38.8520   30.1460   43.2760 H   0  0  0  0  0  0  0  0  0  0  0  0
   39.1150   27.9420   44.1760 H   0  0  0  0  0  0  0  0  0  0  0  0
   39.6900   27.9190   42.4750 H   0  0  0  0  0  0  0  0  0  0  0  0
   37.4100   26.6050   43.5490 H   0  0  0  0  0  0  0  0  0  0  0  0
   36.0850   27.9500   42.2140 H   0  0  0  0  0  0  0  0  0  0  0  0
   36.6380   26.5910   41.1480 H   0  0  0  0  0  0  0  0  0  0  0  0
   38.6640   27.8530   40.5740 H   0  0  0  0  0  0  0  0  0  0  0  0
   37.4610   28.7310   38.2330 C   0  0  0  0  0  3  0  0  0  0  0  0
   36.9550   28.5480   39.4940 C   0  0  0  0  0  0  0  0  0  0  0  0
   35.5730   28.5510   39.5330 C   0  0  0  0  0  0  0  0  0  0  0  0
   34.9470   28.4320   40.4020 H   0  0  0  0  0  0  0  0  0  0  0  0
   34.7560   28.7240   38.4080 C   0  0  0  0  0  0  0  0  0  0  0  0
   35.3640   28.9050   37.1600 C   0  0  0  0  0  0  0  0  0  0  0  0
   36.7260   28.9070   37.0820 C   0  0  0  0  0  3  0  0  0  0  0  0
   34.4330   29.0610   36.1440 O   0  0  0  0  0  0  0  0  0  0  0  0
   33.1840   29.1840   36.7960 C   0  0  0  0  0  3  0  0  0  0  0  0
   32.8780   30.2440   36.7210 H   0  0  0  0  0  0  0  0  0  0  0  0
   33.4010   28.7730   38.1330 O   0  0  0  0  0  0  0  0  0  0  0  0
   40.9300   30.2360   40.4080 Br  0  0  0  0  0  0  0  0  0  0  0  0
   39.3740   31.3040   40.2260 C   0  0  0  0  0  0  0  0  0  0  0  0
   39.4220   32.5120   39.5770 C   0  0  0  0  0  0  0  0  0  0  0  0
   38.2620   33.3140   39.4330 C   0  0  0  0  0  0  0  0  0  0  0  0
   37.0970   32.8520   39.9590 C   0  0  0  0  0  0  0  0  0  0  0  0
   37.0900   31.6320   40.6050 C   0  0  0  0  0  0  0  0  0  0  0  0
   38.1980   30.8410   40.7550 C   0  0  0  0  0  0  0  0  0  0  0  0
   38.4220   34.2440   38.9030 H   0  0  0  0  0  0  0  0  0  0  0  0
   36.2330   33.4880   39.8320 H   0  0  0  0  0  0  0  0  0  0  0  0
   36.1310   31.3120   41.0070 H   0  0  0  0  0  0  0  0  0  0  0  0
   42.7080   34.0980   39.3350 C   0  0  0  0  0  0  0  0  0  0  0  0
   43.1130   33.8260   38.0130 C   0  0  0  0  0  0  0  0  0  0  0  0
   42.2210   33.0860   37.2210 C   0  0  0  0  0  0  0  0  0  0  0  0
   41.0460   32.6780   37.7450 N   0  0  0  0  0  0  0  0  0  0  0  0
   40.6890   32.9580   39.0240 C   0  0  0  0  0  0  0  0  0  0  0  0
   41.5440   33.6740   39.8010 N   0  0  0  0  0  0  0  0  0  0  0  0
   43.4460   34.6680   39.8760 H   0  0  0  0  0  0  0  0  0  0  0  0
   44.0210   34.1090   37.5160 H   0  0  0  0  0  0  0  0  0  0  0  0
   42.4210   32.8160   36.1920 H   0  0  0  0  0  0  0  0  0  0  0  0
  1  2  1  0  0  0  0
  2  3  1  0  0  0  0
  2  8  1  0  0  0  0
  2  7  1  0  0  0  0
  3  9  1  0  0  0  0
  4  3  1  0  0  0  0
  4 11  1  0  0  0  0
  5 12  1  0  0  0  0
  5  4  1  0  0  0  0
  6 14  1  6  0  0  0
  6  1  1  0  0  0  0
  6  5  1  0  0  0  0
 10  3  1  0  0  0  0
 13  5  1  0  0  0  0
 15 16  1  0  0  0  0
 16 17  2  0  0  0  0
 16  6  1  0  0  0  0
 17 18  1  0  0  0  0
 19 17  1  0  0  0  0
 20 19  2  0  0  0  0
 21 20  1  0  0  0  0
 21 15  2  0  0  0  0
 22 23  1  0  0  0  0
 22 20  1  0  0  0  0
 23 25  1  0  0  0  0
 24 23  1  0  0  0  0
 25 19  1  0  0  0  0
 27 26  1  0  0  0  0
 27 32  1  0  0  0  0
 28 27  2  0  0  0  0
 29 28  1  0  0  0  0
 29 30  2  0  0  0  0
 30 31  1  0  0  0  0
 31 32  2  0  0  0  0
 31 35  1  0  0  0  0
 32  1  1  0  0  0  0
 33 29  1  0  0  0  0
 34 30  1  0  0  0  0
 36 41  1  0  0  0  0
 36 42  1  0  0  0  0
 37 36  2  0  0  0  0
 38 39  2  0  0  0  0
 38 37  1  0  0  0  0
 39 40  1  0  0  0  0
 40 28  1  0  0  0  0
 40 41  2  0  0  0  0
 43 37  1  0  0  0  0
 44 38  1  0  0  0  0
M  END
>  <minimizedAffinity>
-6.04816914

$$$$

 OpenBabel03242510143D

 44 48  0  0  1  0  0  0  0  0999 V2000
   38.0360   30.9340   40.5430 N   0  0  0  0  0  0  0  0  0  0  0  0
   38.1980   32.3870   40.6500 C   0  0  0  0  0  0  0  0  0  0  0  0
   39.6330   32.8050   40.5160 C   0  0  0  0  0  0  0  0  0  0  0  0
   40.4410   32.2990   41.5930 N   0  0  0  0  0  0  0  0  0  0  0  0
   39.7420   31.1630   42.2120 C   0  0  0  0  0  0  0  0  0  0  0  0
   39.1730   30.2630   41.1400 C   0  0  1  0  0  0  0  0  0  0  0  0
   37.8600   32.7010   41.6610 H   0  0  0  0  0  0  0  0  0  0  0  0
   37.5890   32.8560   39.8690 H   0  0  0  0  0  0  0  0  0  0  0  0
   39.7010   33.8780   40.3540 H   0  0  0  0  0  0  0  0  0  0  0  0
   40.0180   32.2850   39.5890 H   0  0  0  0  0  0  0  0  0  0  0  0
   40.5720   33.0600   42.2670 H   0  0  0  0  0  0  0  0  0  0  0  0
   39.0340   31.4850   42.9740 H   0  0  0  0  0  0  0  0  0  0  0  0
   40.5750   30.5730   42.6870 H   0  0  0  0  0  0  0  0  0  0  0  0
   39.9600   30.2560   40.3320 H   0  0  0  0  0  0  0  0  0  0  0  0
   38.4280   28.5060   42.8360 C   0  0  0  0  0  3  0  0  0  0  0  0
   38.9190   28.9040   41.6200 C   0  0  0  0  0  0  0  0  0  0  0  0
   39.2200   27.8460   40.7810 C   0  0  0  0  0  0  0  0  0  0  0  0
   39.6210   27.9030   39.7810 H   0  0  0  0  0  0  0  0  0  0  0  0
   39.0470   26.4990   41.1220 C   0  0  0  0  0  0  0  0  0  0  0  0
   38.5390   26.1890   42.3890 C   0  0  0  0  0  0  0  0  0  0  0  0
   38.2300   27.2060   43.2450 C   0  0  0  0  0  3  0  0  0  0  0  0
   38.4230   24.8210   42.5850 O   0  0  0  0  0  0  0  0  0  0  0  0
   39.0690   24.2280   41.4740 C   0  0  0  0  0  3  0  0  0  0  0  0
   40.0270   23.8130   41.8370 H   0  0  0  0  0  0  0  0  0  0  0  0
   39.2460   25.2660   40.5280 O   0  0  0  0  0  0  0  0  0  0  0  0
   38.4090   30.1120   37.5510 Br  0  0  0  0  0  0  0  0  0  0  0  0
   36.9130   29.7860   38.6700 C   0  0  0  0  0  0  0  0  0  0  0  0
   35.8170   29.1080   38.1990 C   0  0  0  0  0  0  0  0  0  0  0  0
   34.6970   28.8560   39.0310 C   0  0  0  0  0  0  0  0  0  0  0  0
   34.7400   29.3060   40.3130 C   0  0  0  0  0  0  0  0  0  0  0  0
   35.8610   29.9840   40.7480 C   0  0  0  0  0  0  0  0  0  0  0  0
   36.9530   30.2380   39.9620 C   0  0  0  0  0  0  0  0  0  0  0  0
   33.8940   28.3140   38.5500 H   0  0  0  0  0  0  0  0  0  0  0  0
   33.8700   29.0970   40.9180 H   0  0  0  0  0  0  0  0  0  0  0  0
   35.8400   30.3220   41.7820 H   0  0  0  0  0  0  0  0  0  0  0  0
   35.4090   29.0830   34.5650 C   0  0  0  0  0  0  0  0  0  0  0  0
   35.8200   27.7880   34.1920 C   0  0  0  0  0  0  0  0  0  0  0  0
   36.2380   26.9370   35.2280 C   0  0  0  0  0  0  0  0  0  0  0  0
   36.2260   27.3840   36.5020 N   0  0  0  0  0  0  0  0  0  0  0  0
   35.8240   28.6390   36.8240 C   0  0  0  0  0  0  0  0  0  0  0  0
   35.4170   29.4720   35.8300 N   0  0  0  0  0  0  0  0  0  0  0  0
   35.1060   29.6720   33.7150 H   0  0  0  0  0  0  0  0  0  0  0  0
   35.8620   27.3510   33.2130 H   0  0  0  0  0  0  0  0  0  0  0  0
   36.5750   25.9220   35.0660 H   0  0  0  0  0  0  0  0  0  0  0  0
  1  2  1  0  0  0  0
  1  6  1  0  0  0  0
  2  7  1  0  0  0  0
  3  2  1  0  0  0  0
  3  4  1  0  0  0  0
  4  5  1  0  0  0  0
  4 11  1  0  0  0  0
  5 13  1  0  0  0  0
  5 12  1  0  0  0  0
  6 14  1  6  0  0  0
  6 16  1  0  0  0  0
  6  5  1  0  0  0  0
  8  2  1  0  0  0  0
  9  3  1  0  0  0  0
 10  3  1  0  0  0  0
 15 21  1  0  0  0  0
 16 15  2  0  0  0  0
 17 19  2  0  0  0  0
 17 16  1  0  0  0  0
 18 17  1  0  0  0  0
 19 20  1  0  0  0  0
 20 22  1  0  0  0  0
 20 21  2  0  0  0  0
 23 24  1  0  0  0  0
 23 22  1  0  0  0  0
 25 19  1  0  0  0  0
 25 23  1  0  0  0  0
 26 27  1  0  0  0  0
 27 32  1  0  0  0  0
 28 27  2  0  0  0  0
 28 29  1  0  0  0  0
 29 30  2  0  0  0  0
 30 31  1  0  0  0  0
 30 34  1  0  0  0  0
 31 35  1  0  0  0  0
 32  1  1  0  0  0  0
 32 31  2  0  0  0  0
 33 29  1  0  0  0  0
 36 41  1  0  0  0  0
 37 36  2  0  0  0  0
 37 38  1  0  0  0  0
 38 39  2  0  0  0  0
 39 40  1  0  0  0  0
 40 28  1  0  0  0  0
 41 40  2  0  0  0  0
 42 36  1  0  0  0  0
 43 37  1  0  0  0  0
 44 38  1  0  0  0  0
M  END
>  <minimizedAffinity>
-6.03364229

$$$$

 OpenBabel03242510143D

 44 48  0  0  1  0  0  0  0  0999 V2000
   39.1190   31.1410   39.8360 N   0  0  0  0  0  0  0  0  0  0  0  0
   40.1180   32.0430   40.4160 C   0  0  0  0  0  0  0  0  0  0  0  0
   40.0960   33.3980   39.7710 C   0  0  0  0  0  0  0  0  0  0  0  0
   40.4700   33.3360   38.3830 N   0  0  0  0  0  0  0  0  0  0  0  0
   40.2920   31.9550   37.9100 C   0  0  0  0  0  0  0  0  0  0  0  0
   38.9810   31.4020   38.4170 C   0  0  1  0  0  0  0  0  0  0  0  0
   41.1250   31.6100   40.2330 H   0  0  0  0  0  0  0  0  0  0  0  0
   39.9160   32.1290   41.4900 H   0  0  0  0  0  0  0  0  0  0  0  0
   40.6600   34.1100   40.3680 H   0  0  0  0  0  0  0  0  0  0  0  0
   39.0130   33.7200   39.7710 H   0  0  0  0  0  0  0  0  0  0  0  0
   41.4510   33.6250   38.3120 H   0  0  0  0  0  0  0  0  0  0  0  0
   41.1670   31.3390   38.1110 H   0  0  0  0  0  0  0  0  0  0  0  0
   40.1560   32.0770   36.7990 H   0  0  0  0  0  0  0  0  0  0  0  0
   38.2650   32.2710   38.3520 H   0  0  0  0  0  0  0  0  0  0  0  0
   39.1390   29.1060   37.3100 C   0  0  0  0  0  3  0  0  0  0  0  0
   38.4950   30.2770   37.6160 C   0  0  0  0  0  0  0  0  0  0  0  0
   37.2350   30.3690   37.0540 C   0  0  0  0  0  0  0  0  0  0  0  0
   36.5420   31.1900   37.1440 H   0  0  0  0  0  0  0  0  0  0  0  0
   36.6590   29.3780   36.2500 C   0  0  0  0  0  0  0  0  0  0  0  0
   37.3940   28.2150   35.9910 C   0  0  0  0  0  0  0  0  0  0  0  0
   38.6410   28.0870   36.5300 C   0  0  0  0  0  3  0  0  0  0  0  0
   36.6990   27.3260   35.1850 O   0  0  0  0  0  0  0  0  0  0  0  0
   35.5560   28.0350   34.7470 C   0  0  0  0  0  3  0  0  0  0  0  0
   35.7130   28.2840   33.6810 H   0  0  0  0  0  0  0  0  0  0  0  0
   35.4700   29.1830   35.5700 O   0  0  0  0  0  0  0  0  0  0  0  0
   40.7180   28.5800   40.6400 Br  0  0  0  0  0  0  0  0  0  0  0  0
   38.8850   28.9520   40.9490 C   0  0  0  0  0  0  0  0  0  0  0  0
   38.0840   28.0500   41.6030 C   0  0  0  0  0  0  0  0  0  0  0  0
   36.7140   28.3230   41.8410 C   0  0  0  0  0  0  0  0  0  0  0  0
   36.2140   29.5080   41.4030 C   0  0  0  0  0  0  0  0  0  0  0  0
   37.0510   30.3890   40.7480 C   0  0  0  0  0  0  0  0  0  0  0  0
   38.3770   30.1460   40.5080 C   0  0  0  0  0  0  0  0  0  0  0  0
   36.1840   27.5380   42.3650 H   0  0  0  0  0  0  0  0  0  0  0  0
   35.1660   29.6830   41.6010 H   0  0  0  0  0  0  0  0  0  0  0  0
   36.5970   31.3210   40.4190 H   0  0  0  0  0  0  0  0  0  0  0  0
   39.0690   24.5290   41.6750 C   0  0  0  0  0  0  0  0  0  0  0  0
   39.7670   24.4020   42.8920 C   0  0  0  0  0  0  0  0  0  0  0  0
   39.8820   25.5620   43.6750 C   0  0  0  0  0  0  0  0  0  0  0  0
   39.3340   26.7160   43.2400 N   0  0  0  0  0  0  0  0  0  0  0  0
   38.6690   26.8010   42.0610 C   0  0  0  0  0  0  0  0  0  0  0  0
   38.5500   25.6850   41.2940 N   0  0  0  0  0  0  0  0  0  0  0  0
   39.0250   23.5970   41.1350 H   0  0  0  0  0  0  0  0  0  0  0  0
   40.2310   23.5330   43.3150 H   0  0  0  0  0  0  0  0  0  0  0  0
   40.3940   25.5900   44.6280 H   0  0  0  0  0  0  0  0  0  0  0  0
  1  2  1  0  0  0  0
  1 32  1  0  0  0  0
  2  8  1  0  0  0  0
  3  9  1  0  0  0  0
  3  2  1  0  0  0  0
  4  3  1  0  0  0  0
  5 12  1  0  0  0  0
  5  4  1  0  0  0  0
  5  6  1  0  0  0  0
  6 14  1  6  0  0  0
  6  1  1  0  0  0  0
  7  2  1  0  0  0  0
 10  3  1  0  0  0  0
 11  4  1  0  0  0  0
 13  5  1  0  0  0  0
 15 16  1  0  0  0  0
 16  6  1  0  0  0  0
 17 18  1  0  0  0  0
 17 16  2  0  0  0  0
 19 17  1  0  0  0  0
 20 19  2  0  0  0  0
 20 21  1  0  0  0  0
 21 15  2  0  0  0  0
 22 20  1  0  0  0  0
 23 22  1  0  0  0  0
 23 25  1  0  0  0  0
 24 23  1  0  0  0  0
 25 19  1  0  0  0  0
 26 27  1  0  0  0  0
 27 28  1  0  0  0  0
 28 29  2  0  0  0  0
 28 40  1  0  0  0  0
 29 33  1  0  0  0  0
 30 34  1  0  0  0  0
 30 29  1  0  0  0  0
 31 30  2  0  0  0  0
 32 31  1  0  0  0  0
 32 27  2  0  0  0  0
 35 31  1  0  0  0  0
 36 37  1  0  0  0  0
 37 43  1  0  0  0  0
 37 38  2  0  0  0  0
 38 44  1  0  0  0  0
 39 38  1  0  0  0  0
 40 39  2  0  0  0  0
 41 36  2  0  0  0  0
 41 40  1  0  0  0  0
 42 36  1  0  0  0  0
M  END
>  <minimizedAffinity>
-5.99605274

$$$$

 OpenBabel03242510143D

 44 48  0  0  1  0  0  0  0  0999 V2000
   37.4190   25.6080   40.6930 N   0  0  0  0  0  0  0  0  0  0  0  0
   36.4790   25.3470   39.6000 C   0  0  0  0  0  0  0  0  0  0  0  0
   36.1140   23.8940   39.5050 C   0  0  0  0  0  0  0  0  0  0  0  0
   37.2490   23.0770   39.1710 N   0  0  0  0  0  0  0  0  0  0  0  0
   38.4760   23.8230   39.4920 C   0  0  0  0  0  0  0  0  0  0  0  0
   38.3340   24.4930   40.8380 C   0  0  1  0  0  0  0  0  0  0  0  0
   36.9740   25.6210   38.6430 H   0  0  0  0  0  0  0  0  0  0  0  0
   35.5840   25.9560   39.7670 H   0  0  0  0  0  0  0  0  0  0  0  0
   35.2470   23.7630   38.8620 H   0  0  0  0  0  0  0  0  0  0  0  0
   35.8240   23.5830   40.5530 H   0  0  0  0  0  0  0  0  0  0  0  0
   37.1980   22.8680   38.1690 H   0  0  0  0  0  0  0  0  0  0  0  0
   38.7820   24.4760   38.6760 H   0  0  0  0  0  0  0  0  0  0  0  0
   39.2420   23.0110   39.6400 H   0  0  0  0  0  0  0  0  0  0  0  0
   37.7760   23.7430   41.4680 H   0  0  0  0  0  0  0  0  0  0  0  0
   39.9610   24.8270   42.7770 C   0  0  0  0  0  3  0  0  0  0  0  0
   39.6250   24.8150   41.4480 C   0  0  0  0  0  0  0  0  0  0  0  0
   40.6680   25.1830   40.6190 C   0  0  0  0  0  0  0  0  0  0  0  0
   40.6480   25.2540   39.5430 H   0  0  0  0  0  0  0  0  0  0  0  0
   41.9440   25.5370   41.0710 C   0  0  0  0  0  0  0  0  0  0  0  0
   42.1950   25.5210   42.4480 C   0  0  0  0  0  0  0  0  0  0  0  0
   41.1900   25.1610   43.2990 C   0  0  0  0  0  3  0  0  0  0  0  0
   43.4980   25.8920   42.7470 O   0  0  0  0  0  0  0  0  0  0  0  0
   44.0430   26.3560   41.5270 C   0  0  0  0  0  3  0  0  0  0  0  0
   44.1180   27.4570   41.6000 H   0  0  0  0  0  0  0  0  0  0  0  0
   43.1470   25.9350   40.5150 O   0  0  0  0  0  0  0  0  0  0  0  0
   38.7170   28.1320   39.3870 Br  0  0  0  0  0  0  0  0  0  0  0  0
   38.0000   27.9650   41.1340 C   0  0  0  0  0  0  0  0  0  0  0  0
   38.0010   29.0290   42.0000 C   0  0  0  0  0  0  0  0  0  0  0  0
   37.4630   28.9130   43.3060 C   0  0  0  0  0  0  0  0  0  0  0  0
   36.9440   27.7130   43.6780 C   0  0  0  0  0  0  0  0  0  0  0  0
   36.9620   26.6660   42.7780 C   0  0  0  0  0  0  0  0  0  0  0  0
   37.4760   26.7570   41.5120 C   0  0  0  0  0  0  0  0  0  0  0  0
   37.5190   29.8180   43.8970 H   0  0  0  0  0  0  0  0  0  0  0  0
   36.5430   27.6590   44.6800 H   0  0  0  0  0  0  0  0  0  0  0  0
   36.5340   25.7300   43.1290 H   0  0  0  0  0  0  0  0  0  0  0  0
   38.2200   32.3700   40.5280 C   0  0  0  0  0  0  0  0  0  0  0  0
   39.5780   32.7140   40.6830 C   0  0  0  0  0  0  0  0  0  0  0  0
   40.4010   31.7620   41.3060 C   0  0  0  0  0  0  0  0  0  0  0  0
   39.8720   30.5910   41.7170 N   0  0  0  0  0  0  0  0  0  0  0  0
   38.5590   30.2940   41.5520 C   0  0  0  0  0  0  0  0  0  0  0  0
   37.7510   31.2060   40.9500 N   0  0  0  0  0  0  0  0  0  0  0  0
   37.6570   33.1500   40.0430 H   0  0  0  0  0  0  0  0  0  0  0  0
   40.0820   33.6140   40.3890 H   0  0  0  0  0  0  0  0  0  0  0  0
   41.4590   31.9120   41.4800 H   0  0  0  0  0  0  0  0  0  0  0  0
  1  6  1  0  0  0  0
  1 32  1  0  0  0  0
  2  8  1  0  0  0  0
  2  1  1  0  0  0  0
  3  2  1  0  0  0  0
  3 10  1  0  0  0  0
  4  5  1  0  0  0  0
  4  3  1  0  0  0  0
  5 13  1  0  0  0  0
  5  6  1  0  0  0  0
  6 16  1  0  0  0  0
  6 14  1  1  0  0  0
  7  2  1  0  0  0  0
  9  3  1  0  0  0  0
 11  4  1  0  0  0  0
 12  5  1  0  0  0  0
 15 21  1  0  0  0  0
 16 15  2  0  0  0  0
 17 19  2  0  0  0  0
 17 16  1  0  0  0  0
 18 17  1  0  0  0  0
 19 20  1  0  0  0  0
 20 22  1  0  0  0  0
 20 21  2  0  0  0  0
 23 24  1  0  0  0  0
 23 22  1  0  0  0  0
 25 19  1  0  0  0  0
 25 23  1  0  0  0  0
 26 27  1  0  0  0  0
 27 32  2  0  0  0  0
 27 28  1  0  0  0  0
 28 29  2  0  0  0  0
 29 30  1  0  0  0  0
 29 33  1  0  0  0  0
 30 34  1  0  0  0  0
 31 35  1  0  0  0  0
 31 30  2  0  0  0  0
 32 31  1  0  0  0  0
 36 37  2  0  0  0  0
 36 41  1  0  0  0  0
 37 38  1  0  0  0  0
 38 44  1  0  0  0  0
 38 39  2  0  0  0  0
 40 39  1  0  0  0  0
 40 28  1  0  0  0  0
 41 40  2  0  0  0  0
 42 36  1  0  0  0  0
 43 37  1  0  0  0  0
M  END
>  <minimizedAffinity>
-5.91964817

$$$$

 OpenBabel03242510143D

 44 48  0  0  1  0  0  0  0  0999 V2000
   36.5980   29.8730   38.5700 N   0  0  0  0  0  0  0  0  0  0  0  0
   36.0020   29.6130   37.2570 C   0  0  0  0  0  0  0  0  0  0  0  0
   34.6220   29.0320   37.3700 C   0  0  0  0  0  0  0  0  0  0  0  0
   34.6370   27.7350   37.9920 N   0  0  0  0  0  0  0  0  0  0  0  0
   35.8920   27.5880   38.7440 C   0  0  0  0  0  0  0  0  0  0  0  0
   36.1820   28.8550   39.5140 C   0  0  1  0  0  0  0  0  0  0  0  0
   36.6300   28.8610   36.7320 H   0  0  0  0  0  0  0  0  0  0  0  0
   35.9740   30.5570   36.7020 H   0  0  0  0  0  0  0  0  0  0  0  0
   34.1130   29.0760   36.4110 H   0  0  0  0  0  0  0  0  0  0  0  0
   34.0670   29.7000   38.0930 H   0  0  0  0  0  0  0  0  0  0  0  0
   34.5700   27.0330   37.2490 H   0  0  0  0  0  0  0  0  0  0  0  0
   36.7050   27.2290   38.1140 H   0  0  0  0  0  0  0  0  0  0  0  0
   35.6400   26.8150   39.5220 H   0  0  0  0  0  0  0  0  0  0  0  0
   35.1730   29.1980   39.8810 H   0  0  0  0  0  0  0  0  0  0  0  0
   37.1320   29.2930   41.8430 C   0  0  0  0  0  3  0  0  0  0  0  0
   37.0900   28.6350   40.6410 C   0  0  0  0  0  0  0  0  0  0  0  0
   38.0650   27.6630   40.5170 C   0  0  0  0  0  0  0  0  0  0  0  0
   38.2370   27.0200   39.6690 H   0  0  0  0  0  0  0  0  0  0  0  0
   39.0100   27.3670   41.5080 C   0  0  0  0  0  0  0  0  0  0  0  0
   38.9760   28.0930   42.7040 C   0  0  0  0  0  0  0  0  0  0  0  0
   38.0260   29.0600   42.8640 C   0  0  0  0  0  3  0  0  0  0  0  0
   39.9660   27.6910   43.5880 O   0  0  0  0  0  0  0  0  0  0  0  0
   40.7910   26.8110   42.8490 C   0  0  0  0  0  3  0  0  0  0  0  0
   41.7330   27.3480   42.6340 H   0  0  0  0  0  0  0  0  0  0  0  0
   40.0660   26.4890   41.6770 O   0  0  0  0  0  0  0  0  0  0  0  0
   39.5950   29.4970   37.7660 Br  0  0  0  0  0  0  0  0  0  0  0  0
   38.8050   30.9730   38.6570 C   0  0  0  0  0  0  0  0  0  0  0  0
   39.5600   32.0570   39.0270 C   0  0  0  0  0  0  0  0  0  0  0  0
   38.9760   33.1660   39.6890 C   0  0  0  0  0  0  0  0  0  0  0  0
   37.6420   33.1250   39.9470 C   0  0  0  0  0  0  0  0  0  0  0  0
   36.9170   32.0160   39.5590 C   0  0  0  0  0  0  0  0  0  0  0  0
   37.4610   30.9350   38.9190 C   0  0  0  0  0  0  0  0  0  0  0  0
   39.6700   33.9600   39.9320 H   0  0  0  0  0  0  0  0  0  0  0  0
   37.2300   33.9860   40.4530 H   0  0  0  0  0  0  0  0  0  0  0  0
   35.8550   32.0370   39.7920 H   0  0  0  0  0  0  0  0  0  0  0  0
   42.6950   32.5910   37.2210 C   0  0  0  0  0  0  0  0  0  0  0  0
   43.6740   32.0780   38.0940 C   0  0  0  0  0  0  0  0  0  0  0  0
   43.2170   31.5480   39.3120 C   0  0  0  0  0  0  0  0  0  0  0  0
   41.8960   31.5530   39.5860 N   0  0  0  0  0  0  0  0  0  0  0  0
   40.9800   32.0570   38.7200 C   0  0  0  0  0  0  0  0  0  0  0  0
   41.4100   32.5720   37.5380 N   0  0  0  0  0  0  0  0  0  0  0  0
   43.1250   32.9780   36.3120 H   0  0  0  0  0  0  0  0  0  0  0  0
   44.7380   32.0320   37.9610 H   0  0  0  0  0  0  0  0  0  0  0  0
   43.8730   31.1260   40.0620 H   0  0  0  0  0  0  0  0  0  0  0  0
  1 32  1  0  0  0  0
  1  6  1  0  0  0  0
  2  3  1  0  0  0  0
  2  1  1  0  0  0  0
  3  4  1  0  0  0  0
  3 10  1  0  0  0  0
  4  5  1  0  0  0  0
  5  6  1  0  0  0  0
  5 13  1  0  0  0  0
  6 14  1  1  0  0  0
  6 16  1  0  0  0  0
  7  2  1  0  0  0  0
  8  2  1  0  0  0  0
  9  3  1  0  0  0  0
 11  4  1  0  0  0  0
 12  5  1  0  0  0  0
 15 21  1  0  0  0  0
 16 15  2  0  0  0  0
 17 16  1  0  0  0  0
 17 19  2  0  0  0  0
 18 17  1  0  0  0  0
 19 25  1  0  0  0  0
 19 20  1  0  0  0  0
 20 21  2  0  0  0  0
 20 22  1  0  0  0  0
 23 22  1  0  0  0  0
 24 23  1  0  0  0  0
 25 23  1  0  0  0  0
 26 27  1  0  0  0  0
 27 32  2  0  0  0  0
 27 28  1  0  0  0  0
 28 29  2  0  0  0  0
 29 33  1  0  0  0  0
 29 30  1  0  0  0  0
 30 34  1  0  0  0  0
 31 35  1  0  0  0  0
 31 30  2  0  0  0  0
 32 31  1  0  0  0  0
 36 41  2  0  0  0  0
 36 37  1  0  0  0  0
 37 38  2  0  0  0  0
 38 39  1  0  0  0  0
 38 44  1  0  0  0  0
 40 28  1  0  0  0  0
 40 39  2  0  0  0  0
 41 40  1  0  0  0  0
 42 36  1  0  0  0  0
 43 37  1  0  0  0  0
M  END
>  <minimizedAffinity>
-5.76965141

$$$$

 OpenBabel03242510143D

 44 48  0  0  1  0  0  0  0  0999 V2000
   36.3960   29.6200   38.1740 N   0  0  0  0  0  0  0  0  0  0  0  0
   35.8670   29.3370   36.8370 C   0  0  0  0  0  0  0  0  0  0  0  0
   34.4310   28.9040   36.8800 C   0  0  0  0  0  0  0  0  0  0  0  0
   34.2690   27.6540   37.5740 N   0  0  0  0  0  0  0  0  0  0  0  0
   35.4490   27.4320   38.4240 C   0  0  0  0  0  0  0  0  0  0  0  0
   35.8140   28.7100   39.1410 C   0  0  1  0  0  0  0  0  0  0  0  0
   36.4490   28.4950   36.4040 H   0  0  0  0  0  0  0  0  0  0  0  0
   35.9750   30.2430   36.2300 H   0  0  0  0  0  0  0  0  0  0  0  0
   33.9960   28.9360   35.8840 H   0  0  0  0  0  0  0  0  0  0  0  0
   33.8990   29.6680   37.5210 H   0  0  0  0  0  0  0  0  0  0  0  0
   34.1810   26.9160   36.8680 H   0  0  0  0  0  0  0  0  0  0  0  0
   36.2610   26.9550   37.8780 H   0  0  0  0  0  0  0  0  0  0  0  0
   35.0660   26.7390   39.2240 H   0  0  0  0  0  0  0  0  0  0  0  0
   34.8230   29.1740   39.4120 H   0  0  0  0  0  0  0  0  0  0  0  0
   36.6110   29.1750   41.5220 C   0  0  0  0  0  3  0  0  0  0  0  0
   36.6150   28.4750   40.3430 C   0  0  0  0  0  0  0  0  0  0  0  0
   37.5260   27.4350   40.3300 C   0  0  0  0  0  0  0  0  0  0  0  0
   37.7170   26.7480   39.5210 H   0  0  0  0  0  0  0  0  0  0  0  0
   38.3680   27.1150   41.4020 C   0  0  0  0  0  0  0  0  0  0  0  0
   38.2940   27.8880   42.5660 C   0  0  0  0  0  0  0  0  0  0  0  0
   37.4060   28.9230   42.6170 C   0  0  0  0  0  3  0  0  0  0  0  0
   39.1830   27.4550   43.5390 O   0  0  0  0  0  0  0  0  0  0  0  0
   39.9980   26.4920   42.8980 C   0  0  0  0  0  3  0  0  0  0  0  0
   40.9900   26.9560   42.7400 H   0  0  0  0  0  0  0  0  0  0  0  0
   39.3440   26.1750   41.6830 O   0  0  0  0  0  0  0  0  0  0  0  0
   39.3710   28.9660   37.4730 Br  0  0  0  0  0  0  0  0  0  0  0  0
   38.6870   30.5270   38.3050 C   0  0  0  0  0  0  0  0  0  0  0  0
   39.5230   31.5510   38.6740 C   0  0  0  0  0  0  0  0  0  0  0  0
   39.0180   32.7220   39.2930 C   0  0  0  0  0  0  0  0  0  0  0  0
   37.6790   32.8030   39.5100 C   0  0  0  0  0  0  0  0  0  0  0  0
   36.8720   31.7520   39.1250 C   0  0  0  0  0  0  0  0  0  0  0  0
   37.3380   30.6120   38.5260 C   0  0  0  0  0  0  0  0  0  0  0  0
   39.7720   33.4600   39.5390 H   0  0  0  0  0  0  0  0  0  0  0  0
   37.3290   33.7100   39.9840 H   0  0  0  0  0  0  0  0  0  0  0  0
   35.8090   31.8710   39.3240 H   0  0  0  0  0  0  0  0  0  0  0  0
   43.0600   30.7640   39.1690 C   0  0  0  0  0  0  0  0  0  0  0  0
   43.6610   31.1520   37.9550 C   0  0  0  0  0  0  0  0  0  0  0  0
   42.8100   31.6880   36.9740 C   0  0  0  0  0  0  0  0  0  0  0  0
   41.4900   31.8050   37.2300 N   0  0  0  0  0  0  0  0  0  0  0  0
   40.9460   31.4200   38.4120 C   0  0  0  0  0  0  0  0  0  0  0  0
   41.7590   30.9010   39.3700 N   0  0  0  0  0  0  0  0  0  0  0  0
   43.7770   30.3640   39.8660 H   0  0  0  0  0  0  0  0  0  0  0  0
   44.6920   31.0970   37.6660 H   0  0  0  0  0  0  0  0  0  0  0  0
   43.1540   32.0210   36.0040 H   0  0  0  0  0  0  0  0  0  0  0  0
  1 32  1  0  0  0  0
  1  6  1  0  0  0  0
  2  3  1  0  0  0  0
  2  1  1  0  0  0  0
  3 10  1  0  0  0  0
  3  4  1  0  0  0  0
  4  5  1  0  0  0  0
  5  6  1  0  0  0  0
  5 13  1  0  0  0  0
  6 14  1  1  0  0  0
  6 16  1  0  0  0  0
  7  2  1  0  0  0  0
  8  2  1  0  0  0  0
  9  3  1  0  0  0  0
 11  4  1  0  0  0  0
 12  5  1  0  0  0  0
 15 21  1  0  0  0  0
 16 15  2  0  0  0  0
 17 16  1  0  0  0  0
 17 19  2  0  0  0  0
 18 17  1  0  0  0  0
 19 25  1  0  0  0  0
 19 20  1  0  0  0  0
 20 21  2  0  0  0  0
 20 22  1  0  0  0  0
 23 22  1  0  0  0  0
 24 23  1  0  0  0  0
 25 23  1  0  0  0  0
 26 27  1  0  0  0  0
 27 32  2  0  0  0  0
 27 28  1  0  0  0  0
 28 29  2  0  0  0  0
 29 30  1  0  0  0  0
 29 33  1  0  0  0  0
 30 34  1  0  0  0  0
 31 35  1  0  0  0  0
 31 30  2  0  0  0  0
 32 31  1  0  0  0  0
 36 41  1  0  0  0  0
 36 42  1  0  0  0  0
 37 36  2  0  0  0  0
 38 39  2  0  0  0  0
 38 37  1  0  0  0  0
 39 40  1  0  0  0  0
 40 28  1  0  0  0  0
 40 41  2  0  0  0  0
 43 37  1  0  0  0  0
 44 38  1  0  0  0  0
M  END
>  <minimizedAffinity>
-5.6793437

$$$$

 OpenBabel03242510143D

 44 48  0  0  1  0  0  0  0  0999 V2000
   38.4360   30.1550   40.0150 N   0  0  0  0  0  0  0  0  0  0  0  0
   37.3270   30.8010   39.3080 C   0  0  0  0  0  0  0  0  0  0  0  0
   36.5410   31.7120   40.2060 C   0  0  0  0  0  0  0  0  0  0  0  0
   35.8870   30.9890   41.2630 N   0  0  0  0  0  0  0  0  0  0  0  0
   36.5550   29.6890   41.4270 C   0  0  0  0  0  0  0  0  0  0  0  0
   38.0540   29.8730   41.3840 C   0  0  1  0  0  0  0  0  0  0  0  0
   36.6300   30.0090   38.9570 H   0  0  0  0  0  0  0  0  0  0  0  0
   37.7420   31.3620   38.4630 H   0  0  0  0  0  0  0  0  0  0  0  0
   35.8920   32.3550   39.6170 H   0  0  0  0  0  0  0  0  0  0  0  0
   37.3050   32.3650   40.7240 H   0  0  0  0  0  0  0  0  0  0  0  0
   34.9060   30.8650   40.9930 H   0  0  0  0  0  0  0  0  0  0  0  0
   36.1580   28.9360   40.7470 H   0  0  0  0  0  0  0  0  0  0  0  0
   36.3180   29.4080   42.4910 H   0  0  0  0  0  0  0  0  0  0  0  0
   38.2350   30.8380   41.9380 H   0  0  0  0  0  0  0  0  0  0  0  0
   39.9680   28.8120   42.7010 C   0  0  0  0  0  3  0  0  0  0  0  0
   38.7760   28.7720   42.0240 C   0  0  0  0  0  0  0  0  0  0  0  0
   38.2390   27.5010   41.9430 C   0  0  0  0  0  0  0  0  0  0  0  0
   37.3180   27.2140   41.4600 H   0  0  0  0  0  0  0  0  0  0  0  0
   38.8360   26.3580   42.4890 C   0  0  0  0  0  0  0  0  0  0  0  0
   40.0550   26.4970   43.1630 C   0  0  0  0  0  0  0  0  0  0  0  0
   40.6170   27.7370   43.2650 C   0  0  0  0  0  3  0  0  0  0  0  0
   40.5250   25.2860   43.6490 O   0  0  0  0  0  0  0  0  0  0  0  0
   39.6720   24.3040   43.0920 C   0  0  0  0  0  3  0  0  0  0  0  0
   40.2480   23.7770   42.3080 H   0  0  0  0  0  0  0  0  0  0  0  0
   38.5580   25.0050   42.5720 O   0  0  0  0  0  0  0  0  0  0  0  0
   40.6710   32.2950   40.4510 Br  0  0  0  0  0  0  0  0  0  0  0  0
   40.8190   30.6200   39.5750 C   0  0  0  0  0  0  0  0  0  0  0  0
   42.0140   30.2080   39.0410 C   0  0  0  0  0  0  0  0  0  0  0  0
   42.1330   28.9550   38.3890 C   0  0  0  0  0  0  0  0  0  0  0  0
   41.0260   28.1710   38.3070 C   0  0  0  0  0  0  0  0  0  0  0  0
   39.8430   28.6210   38.8560 C   0  0  0  0  0  0  0  0  0  0  0  0
   39.7050   29.8270   39.4900 C   0  0  0  0  0  0  0  0  0  0  0  0
   43.1230   28.7400   38.0090 H   0  0  0  0  0  0  0  0  0  0  0  0
   41.1530   27.2230   37.8030 H   0  0  0  0  0  0  0  0  0  0  0  0
   38.9900   27.9530   38.7610 H   0  0  0  0  0  0  0  0  0  0  0  0
   44.4830   32.7880   38.2510 C   0  0  0  0  0  0  0  0  0  0  0  0
   45.3610   32.7580   39.3530 C   0  0  0  0  0  0  0  0  0  0  0  0
   45.0710   31.8270   40.3640 C   0  0  0  0  0  0  0  0  0  0  0  0
   43.9950   31.0220   40.2390 N   0  0  0  0  0  0  0  0  0  0  0  0
   43.1700   31.0790   39.1630 C   0  0  0  0  0  0  0  0  0  0  0  0
   43.4400   31.9760   38.1780 N   0  0  0  0  0  0  0  0  0  0  0  0
   44.7720   33.5270   37.5230 H   0  0  0  0  0  0  0  0  0  0  0  0
   46.2330   33.3540   39.5350 H   0  0  0  0  0  0  0  0  0  0  0  0
   45.6710   31.7100   41.2560 H   0  0  0  0  0  0  0  0  0  0  0  0
  1  6  1  0  0  0  0
  2  1  1  0  0  0  0
  2  3  1  0  0  0  0
  3 10  1  0  0  0  0
  3  4  1  0  0  0  0
  4  5  1  0  0  0  0
  5 13  1  0  0  0  0
  6  5  1  0  0  0  0
  6 14  1  1  0  0  0
  6 16  1  0  0  0  0
  7  2  1  0  0  0  0
  8  2  1  0  0  0  0
  9  3  1  0  0  0  0
 11  4  1  0  0  0  0
 12  5  1  0  0  0  0
 15 21  1  0  0  0  0
 16 15  2  0  0  0  0
 17 16  1  0  0  0  0
 17 19  2  0  0  0  0
 18 17  1  0  0  0  0
 19 25  1  0  0  0  0
 19 20  1  0  0  0  0
 20 21  2  0  0  0  0
 20 22  1  0  0  0  0
 23 22  1  0  0  0  0
 24 23  1  0  0  0  0
 25 23  1  0  0  0  0
 27 26  1  0  0  0  0
 28 40  1  0  0  0  0
 28 27  2  0  0  0  0
 29 28  1  0  0  0  0
 30 29  2  0  0  0  0
 30 31  1  0  0  0  0
 31 32  2  0  0  0  0
 32 27  1  0  0  0  0
 32  1  1  0  0  0  0
 33 29  1  0  0  0  0
 34 30  1  0  0  0  0
 35 31  1  0  0  0  0
 36 37  1  0  0  0  0
 37 43  1  0  0  0  0
 37 38  2  0  0  0  0
 38 44  1  0  0  0  0
 39 38  1  0  0  0  0
 40 39  2  0  0  0  0
 41 36  2  0  0  0  0
 41 40  1  0  0  0  0
 42 36  1  0  0  0  0
M  END
>  <minimizedAffinity>
-5.67430258

$$$$
