
 OpenBabel03242523383D

 21 23  0  0  0  0  0  0  0  0999 V2000
   45.2810   33.2050   47.2410 C   0  0  0  0  0  3  0  0  0  0  0  0
   45.6410   32.9540   45.9390 C   0  0  0  0  0  0  0  0  0  0  0  0
   46.0620   31.7000   45.4810 C   0  0  0  0  0  0  0  0  0  0  0  0
   46.3390   31.5210   44.4720 H   0  0  0  0  0  0  0  0  0  0  0  0
   46.0840   30.7170   46.4660 C   0  0  0  0  0  0  0  0  0  0  0  0
   45.7360   30.8920   47.7890 C   0  0  0  0  0  0  0  0  0  0  0  0
   45.3360   32.1740   48.1320 C   0  0  0  0  0  3  0  0  0  0  0  0
   45.9040   29.6620   48.4080 O   0  0  0  0  0  0  0  0  0  0  0  0
   46.5340   28.7790   47.5190 C   0  0  0  0  0  3  0  0  0  0  0  0
   46.0130   27.7970   47.5000 H   0  0  0  0  0  0  0  0  0  0  0  0
   46.4690   29.3790   46.2550 O   0  0  0  0  0  0  0  0  0  0  0  0
   44.7060   36.0810   44.2380 C   0  0  0  0  0  0  0  0  0  0  0  0
   45.5340   36.0620   43.0880 C   0  0  0  0  0  0  0  0  0  0  0  0
   46.4030   34.9590   42.9280 C   0  0  0  0  0  0  0  0  0  0  0  0
   46.3960   33.9920   43.8710 N   0  0  0  0  0  0  0  0  0  0  0  0
   45.5930   34.0500   44.9490 C   0  0  0  0  0  0  0  0  0  0  0  0
   44.7620   35.0780   45.1300 N   0  0  0  0  0  0  0  0  0  0  0  0
   44.0880   36.9520   44.2690 H   0  0  0  0  0  0  0  0  0  0  0  0
   45.5250   36.8420   42.3480 H   0  0  0  0  0  0  0  0  0  0  0  0
   47.4660   34.8760   41.5070 S   0  0  0  0  0  0  0  0  0  0  0  0
   47.9770   33.5470   41.4370 H   0  0  0  0  0  0  0  0  0  0  0  0
  1  7  1  0  0  0  0
  2  1  2  0  0  0  0
  3  2  1  0  0  0  0
  3  5  2  0  0  0  0
  4  3  1  0  0  0  0
  5  6  1  0  0  0  0
  6  7  2  0  0  0  0
  6  8  1  0  0  0  0
  9  8  1  0  0  0  0
 10  9  1  0  0  0  0
 11  5  1  0  0  0  0
 11  9  1  0  0  0  0
 12 18  1  0  0  0  0
 12 17  1  0  0  0  0
 13 12  2  0  0  0  0
 14 13  1  0  0  0  0
 14 15  2  0  0  0  0
 15 16  1  0  0  0  0
 16 17  2  0  0  0  0
 16  2  1  0  0  0  0
 19 13  1  0  0  0  0
 20 14  1  0  0  0  0
 21 20  1  0  0  0  0
M  END
>  <minimizedAffinity>
-4.65018797

>  <minimizedRMSD>
0.724411964

$$$$
