
 OpenBabel03252509233D

 29 32  0  0  1  0  0  0  0  0999 V2000
   46.8030   34.6680   42.0600 C   0  0  1  0  0  0  0  0  0  0  0  0
   48.1410   35.4570   42.0940 C   0  0  0  0  0  0  0  0  0  0  0  0
   47.9930   33.9090   41.9140 C   0  0  2  0  0  0  0  0  0  0  0  0
   46.1430   34.9790   41.2290 H   0  0  0  0  0  0  0  0  0  0  0  0
   48.5660   35.7450   43.0520 H   0  0  0  0  0  0  0  0  0  0  0  0
   48.4070   36.0060   41.1710 H   0  0  0  0  0  0  0  0  0  0  0  0
   48.3370   33.2880   42.7680 H   0  0  0  0  0  0  0  0  0  0  0  0
   49.2790   32.3360   40.3910 C   0  0  0  0  0  3  0  0  0  0  0  0
   48.4220   33.4000   40.5750 C   0  0  0  0  0  0  0  0  0  0  0  0
   47.9580   34.0020   39.4010 C   0  0  0  0  0  0  0  0  0  0  0  0
   47.2790   34.8450   39.5200 H   0  0  0  0  0  0  0  0  0  0  0  0
   48.2960   33.6060   38.1330 C   0  0  0  0  0  0  0  0  0  0  0  0
   49.1570   32.5360   37.9940 C   0  0  0  0  0  0  0  0  0  0  0  0
   49.6500   31.8990   39.1340 C   0  0  0  0  0  3  0  0  0  0  0  0
   49.3240   32.3550   36.6360 O   0  0  0  0  0  0  0  0  0  0  0  0
   48.4280   33.1770   35.9190 C   0  0  0  0  0  3  0  0  0  0  0  0
   48.9940   33.6890   35.1200 H   0  0  0  0  0  0  0  0  0  0  0  0
   47.9360   34.0780   36.8810 O   0  0  0  0  0  0  0  0  0  0  0  0
   44.5260   35.6380   44.8840 C   0  0  0  0  0  0  0  0  0  0  0  0
   45.1650   35.6890   43.5970 C   0  0  0  0  0  0  0  0  0  0  0  0
   46.1320   34.7370   43.4100 C   0  0  0  0  0  0  0  0  0  0  0  0
   46.4520   33.8140   44.3920 N   0  0  0  0  0  0  0  0  0  0  0  0
   45.8220   33.8180   45.5680 C   0  0  0  0  0  0  0  0  0  0  0  0
   44.8590   34.7230   45.8240 N   0  0  0  0  0  0  0  0  0  0  0  0
   43.7580   36.3640   45.0800 H   0  0  0  0  0  0  0  0  0  0  0  0
   46.1940   33.0330   46.2150 H   0  0  0  0  0  0  0  0  0  0  0  0
   44.8450   36.6590   42.6180 N   0  0  0  0  0  0  0  0  0  0  0  0
   45.5540   37.4050   42.3790 H   0  0  0  0  0  0  0  0  0  0  0  0
   43.9200   36.6660   42.1150 H   0  0  0  0  0  0  0  0  0  0  0  0
  1  4  1  6  0  0  0
  1  2  1  0  0  0  0
  1 21  1  0  0  0  0
  2  5  1  0  0  0  0
  3  1  1  0  0  0  0
  3  2  1  0  0  0  0
  3  7  1  1  0  0  0
  6  2  1  0  0  0  0
  8  9  1  0  0  0  0
  9  3  1  0  0  0  0
 10 11  1  0  0  0  0
 10  9  2  0  0  0  0
 12 10  1  0  0  0  0
 13 12  2  0  0  0  0
 13 14  1  0  0  0  0
 14  8  2  0  0  0  0
 15 13  1  0  0  0  0
 16 15  1  0  0  0  0
 16 18  1  0  0  0  0
 17 16  1  0  0  0  0
 18 12  1  0  0  0  0
 19 25  1  0  0  0  0
 19 24  1  0  0  0  0
 20 19  2  0  0  0  0
 21 20  1  0  0  0  0
 21 22  2  0  0  0  0
 22 23  1  0  0  0  0
 23 24  2  0  0  0  0
 23 26  1  0  0  0  0
 27 20  1  0  0  0  0
 28 27  1  0  0  0  0
 29 27  1  0  0  0  0
M  END
>  <minimizedAffinity>
-5.54740477

>  <minimizedRMSD>
1.33162153

$$$$
