
 OpenBabel03252508323D

 34 37  0  0  1  0  0  0  0  0999 V2000
   44.7250   34.4440   42.1070 N   0  0  0  0  0  0  0  0  0  0  0  0
   45.0750   33.3800   41.2470 C   0  0  1  0  0  0  0  0  0  0  0  0
   44.6790   33.5340   39.8250 C   0  0  0  0  0  0  0  0  0  0  0  0
   43.4920   34.2330   39.5610 N   0  0  0  0  0  0  0  0  0  0  0  0
   43.1310   35.2760   40.4330 C   0  0  0  0  0  0  0  0  0  0  0  0
   44.2340   35.6010   41.4220 C   0  0  0  0  0  0  0  0  0  0  0  0
   44.5880   32.4430   41.6390 H   0  0  0  0  0  0  0  0  0  0  0  0
   44.6630   32.5420   39.3290 H   0  0  0  0  0  0  0  0  0  0  0  0
   45.5150   34.0910   39.3070 H   0  0  0  0  0  0  0  0  0  0  0  0
   42.6930   33.5310   39.5730 H   0  0  0  0  0  0  0  0  0  0  0  0
   42.1860   35.1520   40.9910 H   0  0  0  0  0  0  0  0  0  0  0  0
   43.0030   36.2020   39.8160 H   0  0  0  0  0  0  0  0  0  0  0  0
   45.0830   36.0950   40.8650 H   0  0  0  0  0  0  0  0  0  0  0  0
   43.8120   36.3950   42.0640 H   0  0  0  0  0  0  0  0  0  0  0  0
   47.0930   31.9460   40.7070 C   0  0  0  0  0  3  0  0  0  0  0  0
   46.5540   33.0960   41.2360 C   0  0  0  0  0  0  0  0  0  0  0  0
   47.5050   33.9700   41.7750 C   0  0  0  0  0  0  0  0  0  0  0  0
   47.1490   34.8970   42.2080 H   0  0  0  0  0  0  0  0  0  0  0  0
   48.8580   33.7180   41.7850 C   0  0  0  0  0  0  0  0  0  0  0  0
   49.3200   32.5430   41.2360 C   0  0  0  0  0  0  0  0  0  0  0  0
   48.4290   31.6430   40.6900 C   0  0  0  0  0  3  0  0  0  0  0  0
   50.7170   32.5610   41.3870 O   0  0  0  0  0  0  0  0  0  0  0  0
   51.0730   33.5750   42.3150 C   0  0  0  0  0  3  0  0  0  0  0  0
   51.2080   33.0940   43.3050 H   0  0  0  0  0  0  0  0  0  0  0  0
   49.9480   34.4310   42.2560 O   0  0  0  0  0  0  0  0  0  0  0  0
   44.5500   35.3810   44.2990 C   0  0  0  0  0  0  0  0  0  0  0  0
   44.8860   34.2800   43.5010 C   0  0  0  0  0  0  0  0  0  0  0  0
   45.3440   33.1430   44.1410 C   0  0  0  0  0  0  0  0  0  0  0  0
   45.4650   33.0940   45.4960 N   0  0  0  0  0  0  0  0  0  0  0  0
   45.1270   34.1900   46.2420 C   0  0  0  0  0  0  0  0  0  0  0  0
   44.6780   35.3070   45.6340 N   0  0  0  0  0  0  0  0  0  0  0  0
   44.1800   36.3500   44.0070 H   0  0  0  0  0  0  0  0  0  0  0  0
   45.6000   32.2910   43.5400 H   0  0  0  0  0  0  0  0  0  0  0  0
   45.2310   34.1280   47.3180 H   0  0  0  0  0  0  0  0  0  0  0  0
  1 27  1  0  0  0  0
  2  7  1  1  0  0  0
  2  1  1  0  0  0  0
  3  2  1  0  0  0  0
  4 10  1  0  0  0  0
  4  3  1  0  0  0  0
  4  5  1  0  0  0  0
  5 11  1  0  0  0  0
  5  6  1  0  0  0  0
  6 14  1  0  0  0  0
  6  1  1  0  0  0  0
  8  3  1  0  0  0  0
  9  3  1  0  0  0  0
 12  5  1  0  0  0  0
 13  6  1  0  0  0  0
 15 16  1  0  0  0  0
 16  2  1  0  0  0  0
 16 17  2  0  0  0  0
 17 19  1  0  0  0  0
 17 18  1  0  0  0  0
 19 25  1  0  0  0  0
 20 22  1  0  0  0  0
 20 19  2  0  0  0  0
 21 15  2  0  0  0  0
 21 20  1  0  0  0  0
 22 23  1  0  0  0  0
 23 24  1  0  0  0  0
 25 23  1  0  0  0  0
 26 31  1  0  0  0  0
 27 28  1  0  0  0  0
 27 26  2  0  0  0  0
 28 29  2  0  0  0  0
 29 30  1  0  0  0  0
 30 34  1  0  0  0  0
 31 30  2  0  0  0  0
 32 26  1  0  0  0  0
 33 28  1  0  0  0  0
M  END
>  <minimizedAffinity>
-4.71991062

>  <minimizedRMSD>
1.0238291

$$$$
