
 OpenBabel03242523383D

 21 23  0  0  0  0  0  0  0  0999 V2000
   46.9790   32.0290   45.5210 C   0  0  0  0  0  3  0  0  0  0  0  0
   46.0250   32.9880   45.7710 C   0  0  0  0  0  0  0  0  0  0  0  0
   45.3180   33.0800   46.9750 C   0  0  0  0  0  0  0  0  0  0  0  0
   44.5830   33.8250   47.1530 H   0  0  0  0  0  0  0  0  0  0  0  0
   45.6640   32.1090   47.9100 C   0  0  0  0  0  0  0  0  0  0  0  0
   46.6070   31.1190   47.7330 C   0  0  0  0  0  0  0  0  0  0  0  0
   47.2470   31.1220   46.5030 C   0  0  0  0  0  3  0  0  0  0  0  0
   46.6300   30.3800   48.9070 O   0  0  0  0  0  0  0  0  0  0  0  0
   45.5730   30.7900   49.7330 C   0  0  0  0  0  3  0  0  0  0  0  0
   45.9250   30.9560   50.7730 H   0  0  0  0  0  0  0  0  0  0  0  0
   45.0960   31.9920   49.1930 O   0  0  0  0  0  0  0  0  0  0  0  0
   44.7160   35.9950   44.1010 C   0  0  0  0  0  0  0  0  0  0  0  0
   45.1470   35.8130   42.7640 C   0  0  0  0  0  0  0  0  0  0  0  0
   45.8860   34.6450   42.4690 C   0  0  0  0  0  0  0  0  0  0  0  0
   46.1390   33.7740   43.4710 N   0  0  0  0  0  0  0  0  0  0  0  0
   45.7100   33.9850   44.7280 C   0  0  0  0  0  0  0  0  0  0  0  0
   45.0100   35.0790   45.0390 N   0  0  0  0  0  0  0  0  0  0  0  0
   44.1670   36.9040   44.2230 H   0  0  0  0  0  0  0  0  0  0  0  0
   44.9360   36.5190   41.9800 H   0  0  0  0  0  0  0  0  0  0  0  0
   46.4540   34.3580   40.8110 S   0  0  0  0  0  0  0  0  0  0  0  0
   46.8730   32.9980   40.7360 H   0  0  0  0  0  0  0  0  0  0  0  0
  1  2  2  0  0  0  0
  1  7  1  0  0  0  0
  2  3  1  0  0  0  0
  3  4  1  0  0  0  0
  3  5  2  0  0  0  0
  5 11  1  0  0  0  0
  6  5  1  0  0  0  0
  6  8  1  0  0  0  0
  7  6  2  0  0  0  0
  8  9  1  0  0  0  0
  9 10  1  0  0  0  0
 11  9  1  0  0  0  0
 12 18  1  0  0  0  0
 12 17  1  0  0  0  0
 13 12  2  0  0  0  0
 14 13  1  0  0  0  0
 14 15  2  0  0  0  0
 15 16  1  0  0  0  0
 16 17  2  0  0  0  0
 16  2  1  0  0  0  0
 19 13  1  0  0  0  0
 20 14  1  0  0  0  0
 21 20  1  0  0  0  0
M  END
>  <minimizedAffinity>
-4.39728594

>  <minimizedRMSD>
1.15952969

$$$$
