
 OpenBabel03252506413D

 42 46  0  0  1  0  0  0  0  0999 V2000
   49.3280   33.3080   41.3870 N   0  0  1  0  0  0  0  0  0  0  0  0
   50.6390   33.0900   41.9510 C   0  0  0  0  0  0  0  0  0  0  0  0
   51.2360   31.7780   41.5070 C   0  0  0  0  0  0  0  0  0  0  0  0
   50.4600   30.6830   42.1920 C   0  0  0  0  0  0  0  0  0  0  0  0
   48.9820   30.9920   42.1550 C   0  0  0  0  0  0  0  0  0  0  0  0
   48.6740   32.0360   41.1330 C   0  0  2  0  0  0  0  0  0  0  0  0
   51.3240   33.9510   41.7870 H   0  0  0  0  0  0  0  0  0  0  0  0
   50.5230   33.0030   43.0600 H   0  0  0  0  0  0  0  0  0  0  0  0
   51.2280   31.7040   40.4200 H   0  0  0  0  0  0  0  0  0  0  0  0
   52.3010   31.8040   41.8210 H   0  0  0  0  0  0  0  0  0  0  0  0
   50.8180   30.4940   43.2250 H   0  0  0  0  0  0  0  0  0  0  0  0
   50.6280   29.7430   41.6430 H   0  0  0  0  0  0  0  0  0  0  0  0
   48.3700   30.1040   41.9160 H   0  0  0  0  0  0  0  0  0  0  0  0
   48.7020   31.4130   43.1360 H   0  0  0  0  0  0  0  0  0  0  0  0
   47.5770   32.2810   41.3100 H   0  0  0  0  0  0  0  0  0  0  0  0
   48.2360   30.3260   39.5890 C   0  0  0  0  0  3  0  0  0  0  0  0
   48.7500   31.6220   39.7320 C   0  0  0  0  0  0  0  0  0  0  0  0
   49.2130   32.2400   38.6120 C   0  0  0  0  0  0  0  0  0  0  0  0
   49.5940   33.2210   38.8000 H   0  0  0  0  0  0  0  0  0  0  0  0
   49.1790   31.6160   37.3850 C   0  0  0  0  0  0  0  0  0  0  0  0
   48.6850   30.3440   37.1860 C   0  0  0  0  0  0  0  0  0  0  0  0
   48.2120   29.7130   38.3310 C   0  0  0  0  0  3  0  0  0  0  0  0
   48.7820   29.9870   35.8490 O   0  0  0  0  0  0  0  0  0  0  0  0
   49.6680   30.9050   35.2570 C   0  0  0  0  0  3  0  0  0  0  0  0
   49.2500   31.2190   34.2840 H   0  0  0  0  0  0  0  0  0  0  0  0
   49.5840   32.0330   36.1250 O   0  0  0  0  0  0  0  0  0  0  0  0
   47.2340   34.7120   41.9700 C   0  0  1  0  0  0  0  0  0  0  0  0
   48.3940   35.5540   41.7650 C   0  0  0  0  0  0  0  0  0  0  0  0
   48.6220   34.1680   42.2820 C   0  0  2  0  0  0  0  0  0  0  0  0
   46.7550   34.1150   41.1610 H   0  0  0  0  0  0  0  0  0  0  0  0
   48.6470   35.7720   40.6850 H   0  0  0  0  0  0  0  0  0  0  0  0
   48.5800   36.4350   42.3920 H   0  0  0  0  0  0  0  0  0  0  0  0
   48.8520   34.1150   43.3690 H   0  0  0  0  0  0  0  0  0  0  0  0
   45.4940   36.0830   43.1920 C   0  0  0  0  0  0  0  0  0  0  0  0
   46.3080   34.9230   43.1200 C   0  0  0  0  0  0  0  0  0  0  0  0
   46.2140   34.0050   44.1470 C   0  0  0  0  0  0  0  0  0  0  0  0
   45.3420   34.2790   45.1600 N   0  0  0  0  0  0  0  0  0  0  0  0
   44.5800   35.3870   45.2070 C   0  0  0  0  0  0  0  0  0  0  0  0
   44.6480   36.3050   44.2200 N   0  0  0  0  0  0  0  0  0  0  0  0
   45.5420   36.8260   42.4040 H   0  0  0  0  0  0  0  0  0  0  0  0
   46.8030   33.1070   44.1510 H   0  0  0  0  0  0  0  0  0  0  0  0
   43.9380   35.4510   46.0870 H   0  0  0  0  0  0  0  0  0  0  0  0
  1  2  1  1  0  0  0
  1 29  1  0  0  0  0
  2  8  1  0  0  0  0
  3 10  1  0  0  0  0
  3  2  1  0  0  0  0
  3  4  1  0  0  0  0
  4 11  1  0  0  0  0
  5  4  1  0  0  0  0
  5 14  1  0  0  0  0
  6 15  1  1  0  0  0
  6  1  1  0  0  0  0
  6  5  1  0  0  0  0
  7  2  1  0  0  0  0
  9  3  1  0  0  0  0
 12  4  1  0  0  0  0
 13  5  1  0  0  0  0
 16 17  1  0  0  0  0
 17  6  1  0  0  0  0
 18 19  1  0  0  0  0
 18 17  2  0  0  0  0
 20 18  1  0  0  0  0
 21 20  2  0  0  0  0
 21 22  1  0  0  0  0
 22 16  2  0  0  0  0
 23 21  1  0  0  0  0
 24 23  1  0  0  0  0
 24 26  1  0  0  0  0
 25 24  1  0  0  0  0
 26 20  1  0  0  0  0
 27 30  1  6  0  0  0
 27 29  1  0  0  0  0
 27 35  1  0  0  0  0
 28 27  1  0  0  0  0
 28 29  1  0  0  0  0
 28 32  1  0  0  0  0
 29 33  1  1  0  0  0
 31 28  1  0  0  0  0
 34 39  1  0  0  0  0
 35 34  2  0  0  0  0
 35 36  1  0  0  0  0
 36 41  1  0  0  0  0
 36 37  2  0  0  0  0
 37 38  1  0  0  0  0
 38 42  1  0  0  0  0
 39 38  2  0  0  0  0
 40 34  1  0  0  0  0
M  END
>  <minimizedAffinity>
-5.17544127

>  <minimizedRMSD>
0.83890146

$$$$
