
 OpenBabel03252507373D

 40 45  0  0  0  0  0  0  0  0999 V2000
   48.2820   30.3200   43.4680 C   0  0  0  0  0  0  0  0  0  0  0  0
   48.9730   29.7920   44.5760 C   0  0  0  0  0  0  0  0  0  0  0  0
   48.3940   29.9330   45.8230 C   0  0  0  0  0  0  0  0  0  0  0  0
   47.2100   30.5570   45.9280 N   0  0  0  0  0  0  0  0  0  0  0  0
   46.5540   31.0610   44.8480 C   0  0  0  0  0  0  0  0  0  0  0  0
   47.0910   30.9400   43.6410 N   0  0  0  0  0  0  0  0  0  0  0  0
   49.9220   29.2900   44.4980 H   0  0  0  0  0  0  0  0  0  0  0  0
   45.6110   31.5390   45.0820 H   0  0  0  0  0  0  0  0  0  0  0  0
   48.8270   30.2000   48.2050 C   0  0  0  0  0  0  0  0  0  0  0  0
   49.0010   29.4320   47.0560 C   0  0  0  0  0  0  0  0  0  0  0  0
   49.7210   28.2650   47.1510 C   0  0  0  0  0  0  0  0  0  0  0  0
   50.2710   27.8390   48.3390 C   0  0  0  0  0  0  0  0  0  0  0  0
   51.0070   26.7370   48.6550 N   0  0  0  0  0  0  0  0  0  0  0  0
   51.2910   26.8230   50.0080 C   0  0  0  0  0  0  0  0  0  0  0  0
   50.7380   27.9460   50.4780 N   0  0  0  0  0  0  0  0  0  0  0  0
   50.1050   28.5870   49.4740 C   0  0  0  0  0  0  0  0  0  0  0  0
   49.3880   29.7610   49.4060 C   0  0  0  0  0  0  0  0  0  0  0  0
   48.2730   31.1370   48.2250 H   0  0  0  0  0  0  0  0  0  0  0  0
   49.8520   27.6710   46.2500 H   0  0  0  0  0  0  0  0  0  0  0  0
   51.2930   25.9790   47.9850 H   0  0  0  0  0  0  0  0  0  0  0  0
   51.8600   26.1030   50.5730 H   0  0  0  0  0  0  0  0  0  0  0  0
   49.2630   30.3470   50.3110 H   0  0  0  0  0  0  0  0  0  0  0  0
   48.8540   30.1850   42.2060 O   0  0  0  0  0  0  0  0  0  0  0  0
   48.3290   29.2800   41.2920 C   0  0  0  0  0  0  0  0  0  0  0  0
   47.0110   29.5380   41.4130 C   0  0  0  0  0  0  0  0  0  0  0  0
   46.2700   28.3000   40.1550 S   0  0  0  0  0  0  0  0  0  0  0  0
   48.0130   27.7050   39.7520 C   0  0  0  0  0  0  0  0  0  0  0  0
   48.6080   28.3420   40.4200 N   0  0  0  0  0  0  0  0  0  0  0  0
   46.0050   30.0470   41.8040 H   0  0  0  0  0  0  0  0  0  0  0  0
   49.3850   26.1820   38.3080 C   0  0  0  0  0  3  0  0  0  0  0  0
   48.1560   26.6140   38.7200 C   0  0  0  0  0  0  0  0  0  0  0  0
   46.9420   26.1670   38.3010 C   0  0  0  0  0  0  0  0  0  0  0  0
   45.9860   26.5320   38.6480 H   0  0  0  0  0  0  0  0  0  0  0  0
   46.9750   25.1500   37.3390 C   0  0  0  0  0  0  0  0  0  0  0  0
   48.2000   24.6670   36.8790 C   0  0  0  0  0  0  0  0  0  0  0  0
   49.4020   25.1780   37.3580 C   0  0  0  0  0  3  0  0  0  0  0  0
   47.9230   23.6650   35.9320 O   0  0  0  0  0  0  0  0  0  0  0  0
   46.5600   23.2790   36.0900 C   0  0  0  0  0  3  0  0  0  0  0  0
   46.0850   23.0070   35.1420 H   0  0  0  0  0  0  0  0  0  0  0  0
   45.9700   24.4340   36.6640 O   0  0  0  0  0  0  0  0  0  0  0  0
  1  6  2  0  0  0  0
  1  2  1  0  0  0  0
  2  3  2  0  0  0  0
  3  4  1  0  0  0  0
  3 10  1  0  0  0  0
  5  8  1  0  0  0  0
  5  4  2  0  0  0  0
  6  5  1  0  0  0  0
  7  2  1  0  0  0  0
  9 18  1  0  0  0  0
  9 17  1  0  0  0  0
 10 11  1  0  0  0  0
 10  9  2  0  0  0  0
 11 12  2  0  0  0  0
 12 13  1  0  0  0  0
 12 16  1  0  0  0  0
 13 14  1  0  0  0  0
 14 15  2  0  0  0  0
 14 21  1  0  0  0  0
 16 15  1  0  0  0  0
 17 16  2  0  0  0  0
 17 22  1  0  0  0  0
 19 11  1  0  0  0  0
 20 13  1  0  0  0  0
 23  1  1  0  0  0  0
 24 25  2  0  0  0  0
 24 23  1  0  0  0  0
 25 29  1  0  0  0  0
 26 25  1  0  0  0  0
 27 26  1  0  0  0  0
 27 28  2  0  0  0  0
 28 24  1  0  0  0  0
 30 31  1  0  0  0  0
 31 27  1  0  0  0  0
 32 33  1  0  0  0  0
 32 31  2  0  0  0  0
 34 32  1  0  0  0  0
 35 34  2  0  0  0  0
 35 36  1  0  0  0  0
 36 30  2  0  0  0  0
 37 38  1  0  0  0  0
 37 35  1  0  0  0  0
 38 40  1  0  0  0  0
 39 38  1  0  0  0  0
 40 34  1  0  0  0  0
M  END
>  <minimizedAffinity>
-2.04908013

>  <minimizedRMSD>
8.5912323

$$$$
