
 OpenBabel03252508543D

 45 49  0  0  1  0  0  0  0  0999 V2000
   43.2800   34.4050   40.7390 C   0  0  0  0  0  0  0  0  0  0  0  0
   43.2280   35.6190   40.3470 O   0  0  0  0  0  0  0  0  0  0  0  0
   41.9240   33.9860   40.4330 N   0  0  0  0  0  0  0  0  0  0  0  0
   41.5660   34.0760   39.0330 C   0  0  0  0  0  0  0  0  0  0  0  0
   40.7630   35.3890   38.9150 C   0  0  0  0  0  0  0  0  0  0  0  0
   39.9570   35.5190   40.2170 C   0  0  0  0  0  0  0  0  0  0  0  0
   39.6080   34.1580   40.7750 C   0  0  0  0  0  0  0  0  0  0  0  0
   40.8880   33.4960   41.3150 C   0  0  1  0  0  0  0  0  0  0  0  0
   42.4290   34.1940   38.3560 H   0  0  0  0  0  0  0  0  0  0  0  0
   40.9520   33.2330   38.6740 H   0  0  0  0  0  0  0  0  0  0  0  0
   41.4770   36.2440   38.9150 H   0  0  0  0  0  0  0  0  0  0  0  0
   40.1400   35.4190   38.0210 H   0  0  0  0  0  0  0  0  0  0  0  0
   38.9950   35.9920   39.9330 H   0  0  0  0  0  0  0  0  0  0  0  0
   40.5030   36.0840   40.9900 H   0  0  0  0  0  0  0  0  0  0  0  0
   39.2580   33.5510   39.9020 H   0  0  0  0  0  0  0  0  0  0  0  0
   38.8670   34.3020   41.5600 H   0  0  0  0  0  0  0  0  0  0  0  0
   41.1210   33.8420   42.3270 H   0  0  0  0  0  0  0  0  0  0  0  0
   40.8810   31.2230   40.1940 C   0  0  0  0  0  3  0  0  0  0  0  0
   40.7450   32.0200   41.3100 C   0  0  0  0  0  0  0  0  0  0  0  0
   40.4510   31.4050   42.5160 C   0  0  0  0  0  0  0  0  0  0  0  0
   40.3200   31.9420   43.4660 H   0  0  0  0  0  0  0  0  0  0  0  0
   40.2970   30.0360   42.6130 C   0  0  0  0  0  0  0  0  0  0  0  0
   40.4400   29.2460   41.4730 C   0  0  0  0  0  0  0  0  0  0  0  0
   40.7320   29.8400   40.2670 C   0  0  0  0  0  3  0  0  0  0  0  0
   40.2370   27.9050   41.8460 O   0  0  0  0  0  0  0  0  0  0  0  0
   40.5790   27.8660   43.2390 C   0  0  0  0  0  3  0  0  0  0  0  0
   40.1500   27.0090   43.7580 H   0  0  0  0  0  0  0  0  0  0  0  0
   40.0090   29.1210   43.6420 O   0  0  0  0  0  0  0  0  0  0  0  0
   44.3540   33.7720   41.2800 O   0  0  0  0  0  0  0  0  0  0  0  0
   45.6820   34.0830   41.1190 C   0  0  0  0  0  0  0  0  0  0  0  0
   46.3350   34.7080   42.1790 C   0  0  0  0  0  0  0  0  0  0  0  0
   47.6910   35.0150   41.9900 C   0  0  0  0  0  0  0  0  0  0  0  0
   48.2810   34.6870   40.7960 N   0  0  0  0  0  0  0  0  0  0  0  0
   47.6010   34.0890   39.8200 C   0  0  0  0  0  0  0  0  0  0  0  0
   46.3060   33.7830   39.9680 N   0  0  0  0  0  0  0  0  0  0  0  0
   48.1980   35.5010   42.8100 H   0  0  0  0  0  0  0  0  0  0  0  0
   48.0880   33.8360   38.8770 H   0  0  0  0  0  0  0  0  0  0  0  0
   45.6170   35.0110   43.3990 C   0  0  0  0  0  0  0  0  0  0  0  0
   44.9990   36.2420   43.6230 C   0  0  0  0  0  0  0  0  0  0  0  0
   44.4500   36.1030   44.8720 C   0  0  0  0  0  0  0  0  0  0  0  0
   44.7110   34.8740   45.3810 N   0  0  0  0  0  0  0  0  0  0  0  0
   45.4160   34.2460   44.4660 N   0  0  0  0  0  0  0  0  0  0  0  0
   44.9790   37.0840   42.9460 H   0  0  0  0  0  0  0  0  0  0  0  0
   43.8830   36.9030   45.3570 H   0  0  0  0  0  0  0  0  0  0  0  0
   44.3670   34.5870   46.3340 H   0  0  0  0  0  0  0  0  0  0  0  0
  1 29  1  0  0  0  0
  2  1  2  0  0  0  0
  3  1  1  0  0  0  0
  3  8  1  0  0  0  0
  4  3  1  0  0  0  0
  5 11  1  0  0  0  0
  5  4  1  0  0  0  0
  5  6  1  0  0  0  0
  6  7  1  0  0  0  0
  6 14  1  0  0  0  0
  7  8  1  0  0  0  0
  7 16  1  0  0  0  0
  8 17  1  1  0  0  0
  9  4  1  0  0  0  0
 10  4  1  0  0  0  0
 12  5  1  0  0  0  0
 13  6  1  0  0  0  0
 15  7  1  0  0  0  0
 18 24  2  0  0  0  0
 18 19  1  0  0  0  0
 19  8  1  0  0  0  0
 19 20  2  0  0  0  0
 20 22  1  0  0  0  0
 20 21  1  0  0  0  0
 22 28  1  0  0  0  0
 23 25  1  0  0  0  0
 23 22  2  0  0  0  0
 24 23  1  0  0  0  0
 25 26  1  0  0  0  0
 26 28  1  0  0  0  0
 26 27  1  0  0  0  0
 30 29  1  0  0  0  0
 30 31  1  0  0  0  0
 31 38  1  0  0  0  0
 32 31  2  0  0  0  0
 32 36  1  0  0  0  0
 33 32  1  0  0  0  0
 34 35  1  0  0  0  0
 34 33  2  0  0  0  0
 35 30  2  0  0  0  0
 37 34  1  0  0  0  0
 38 39  1  0  0  0  0
 38 42  2  0  0  0  0
 39 40  2  0  0  0  0
 40 44  1  0  0  0  0
 40 41  1  0  0  0  0
 41 45  1  0  0  0  0
 42 41  1  0  0  0  0
 43 39  1  0  0  0  0
M  END
>  <minimizedAffinity>
-7.15916777

>  <minimizedRMSD>
0.418893337

$$$$
