
 OpenBabel03252507383D

 40 45  0  0  0  0  0  0  0  0999 V2000
   45.8380   34.7130   43.6560 C   0  0  0  0  0  0  0  0  0  0  0  0
   46.5460   33.6760   44.2940 C   0  0  0  0  0  0  0  0  0  0  0  0
   46.2400   33.4050   45.6140 C   0  0  0  0  0  0  0  0  0  0  0  0
   45.2930   34.1300   46.2290 N   0  0  0  0  0  0  0  0  0  0  0  0
   44.6170   35.1290   45.5990 C   0  0  0  0  0  0  0  0  0  0  0  0
   44.8930   35.4090   44.3320 N   0  0  0  0  0  0  0  0  0  0  0  0
   47.3070   33.0910   43.8060 H   0  0  0  0  0  0  0  0  0  0  0  0
   43.8820   35.6290   46.2180 H   0  0  0  0  0  0  0  0  0  0  0  0
   47.1720   32.6400   47.7310 C   0  0  0  0  0  0  0  0  0  0  0  0
   46.8960   32.3570   46.3960 C   0  0  0  0  0  0  0  0  0  0  0  0
   47.2520   31.1250   45.9010 C   0  0  0  0  0  0  0  0  0  0  0  0
   47.8670   30.1720   46.6820 C   0  0  0  0  0  0  0  0  0  0  0  0
   48.2970   28.9100   46.4040 N   0  0  0  0  0  0  0  0  0  0  0  0
   48.8420   28.4090   47.5740 C   0  0  0  0  0  0  0  0  0  0  0  0
   48.7370   29.3500   48.5180 N   0  0  0  0  0  0  0  0  0  0  0  0
   48.1420   30.4420   47.9960 C   0  0  0  0  0  0  0  0  0  0  0  0
   47.7960   31.6700   48.5170 C   0  0  0  0  0  0  0  0  0  0  0  0
   46.9270   33.5880   48.2080 H   0  0  0  0  0  0  0  0  0  0  0  0
   47.0330   30.9100   44.8580 H   0  0  0  0  0  0  0  0  0  0  0  0
   48.2200   28.4280   45.4720 H   0  0  0  0  0  0  0  0  0  0  0  0
   49.2740   27.4280   47.6920 H   0  0  0  0  0  0  0  0  0  0  0  0
   48.0180   31.8730   49.5590 H   0  0  0  0  0  0  0  0  0  0  0  0
   46.1350   34.9970   42.3260 O   0  0  0  0  0  0  0  0  0  0  0  0
   45.2640   34.6100   41.3150 C   0  0  0  0  0  0  0  0  0  0  0  0
   46.0040   33.6720   40.6910 C   0  0  0  0  0  0  0  0  0  0  0  0
   44.8150   33.1240   39.2950 S   0  0  0  0  0  0  0  0  0  0  0  0
   43.5410   34.3610   39.9280 C   0  0  0  0  0  0  0  0  0  0  0  0
   44.0820   34.7960   40.7790 N   0  0  0  0  0  0  0  0  0  0  0  0
   46.9320   32.9600   40.4500 H   0  0  0  0  0  0  0  0  0  0  0  0
   41.9670   35.4640   38.3180 C   0  0  0  0  0  3  0  0  0  0  0  0
   42.2270   34.4470   39.1930 C   0  0  0  0  0  0  0  0  0  0  0  0
   41.4050   33.4160   39.5260 C   0  0  0  0  0  0  0  0  0  0  0  0
   41.6440   32.6250   40.2240 H   0  0  0  0  0  0  0  0  0  0  0  0
   40.1580   33.4110   38.8910 C   0  0  0  0  0  0  0  0  0  0  0  0
   39.8340   34.4220   37.9870 C   0  0  0  0  0  0  0  0  0  0  0  0
   40.7300   35.4460   37.6980 C   0  0  0  0  0  3  0  0  0  0  0  0
   38.5350   34.1590   37.5150 O   0  0  0  0  0  0  0  0  0  0  0  0
   38.2200   32.8060   37.8360 C   0  0  0  0  0  3  0  0  0  0  0  0
   37.1600   32.6630   38.0710 H   0  0  0  0  0  0  0  0  0  0  0  0
   39.0510   32.5460   38.9560 O   0  0  0  0  0  0  0  0  0  0  0  0
  1  2  2  0  0  0  0
  1  6  1  0  0  0  0
  2  3  1  0  0  0  0
  3  4  2  0  0  0  0
  3 10  1  0  0  0  0
  5  8  1  0  0  0  0
  5  4  1  0  0  0  0
  6  5  2  0  0  0  0
  7  2  1  0  0  0  0
  9 18  1  0  0  0  0
  9 17  1  0  0  0  0
 10  9  2  0  0  0  0
 11 10  1  0  0  0  0
 11 12  2  0  0  0  0
 12 16  1  0  0  0  0
 13 12  1  0  0  0  0
 13 14  1  0  0  0  0
 14 21  1  0  0  0  0
 14 15  2  0  0  0  0
 16 17  2  0  0  0  0
 16 15  1  0  0  0  0
 17 22  1  0  0  0  0
 19 11  1  0  0  0  0
 20 13  1  0  0  0  0
 23  1  1  0  0  0  0
 24 23  1  0  0  0  0
 25 24  2  0  0  0  0
 26 27  1  0  0  0  0
 26 25  1  0  0  0  0
 27 28  2  0  0  0  0
 28 24  1  0  0  0  0
 29 25  1  0  0  0  0
 30 31  1  0  0  0  0
 31 32  2  0  0  0  0
 31 27  1  0  0  0  0
 32 33  1  0  0  0  0
 34 40  1  0  0  0  0
 34 32  1  0  0  0  0
 35 34  2  0  0  0  0
 36 35  1  0  0  0  0
 36 30  2  0  0  0  0
 37 38  1  0  0  0  0
 37 35  1  0  0  0  0
 38 39  1  0  0  0  0
 38 40  1  0  0  0  0
M  END
>  <minimizedAffinity>
-7.31830788

>  <minimizedRMSD>
1.1107533

$$$$
