
 OpenBabel03242523373D

 21 23  0  0  0  0  0  0  0  0999 V2000
   47.0800   31.8070   45.2550 C   0  0  0  0  0  3  0  0  0  0  0  0
   46.3100   32.9230   45.4850 C   0  0  0  0  0  0  0  0  0  0  0  0
   45.6340   33.1600   46.6860 C   0  0  0  0  0  0  0  0  0  0  0  0
   45.0430   34.0270   46.8500 H   0  0  0  0  0  0  0  0  0  0  0  0
   45.8060   32.1610   47.6410 C   0  0  0  0  0  0  0  0  0  0  0  0
   46.5590   31.0180   47.4830 C   0  0  0  0  0  0  0  0  0  0  0  0
   47.1860   30.8850   46.2530 C   0  0  0  0  0  3  0  0  0  0  0  0
   46.4550   30.3080   48.6710 O   0  0  0  0  0  0  0  0  0  0  0  0
   45.4880   30.9140   49.4870 C   0  0  0  0  0  3  0  0  0  0  0  0
   45.8660   31.0340   50.5250 H   0  0  0  0  0  0  0  0  0  0  0  0
   45.2290   32.1700   48.9250 O   0  0  0  0  0  0  0  0  0  0  0  0
   44.9950   35.7070   43.4690 C   0  0  0  0  0  0  0  0  0  0  0  0
   45.9590   35.8170   42.4360 C   0  0  0  0  0  0  0  0  0  0  0  0
   47.0480   34.9170   42.4610 C   0  0  0  0  0  0  0  0  0  0  0  0
   47.1110   34.0110   43.4610 N   0  0  0  0  0  0  0  0  0  0  0  0
   46.1740   33.9410   44.4240 C   0  0  0  0  0  0  0  0  0  0  0  0
   45.1330   34.7760   44.4280 N   0  0  0  0  0  0  0  0  0  0  0  0
   44.2140   36.4280   43.3630 H   0  0  0  0  0  0  0  0  0  0  0  0
   45.8920   36.5460   41.6480 H   0  0  0  0  0  0  0  0  0  0  0  0
   48.2890   35.0030   41.1940 S   0  0  0  0  0  0  0  0  0  0  0  0
   49.0660   33.8110   41.2800 H   0  0  0  0  0  0  0  0  0  0  0  0
  1  2  2  0  0  0  0
  1  7  1  0  0  0  0
  2  3  1  0  0  0  0
  3  4  1  0  0  0  0
  3  5  2  0  0  0  0
  5 11  1  0  0  0  0
  6  5  1  0  0  0  0
  6  8  1  0  0  0  0
  7  6  2  0  0  0  0
  8  9  1  0  0  0  0
  9 10  1  0  0  0  0
 11  9  1  0  0  0  0
 12 17  1  0  0  0  0
 13 14  1  0  0  0  0
 13 12  2  0  0  0  0
 14 15  2  0  0  0  0
 15 16  1  0  0  0  0
 16 17  2  0  0  0  0
 16  2  1  0  0  0  0
 18 12  1  0  0  0  0
 19 13  1  0  0  0  0
 20 21  1  0  0  0  0
 20 14  1  0  0  0  0
M  END
>  <minimizedAffinity>
-4.72870398

>  <minimizedRMSD>
1.24232829

$$$$
