
 OpenBabel03242517183D

 35 38  0  0  0  0  0  0  0  0999 V2000
   34.6110   29.0950   39.5710 C   0  0  0  0  0  0  0  0  0  0  0  0
   34.8780   28.6950   38.2340 C   0  0  0  0  0  0  0  0  0  0  0  0
   36.0220   27.9610   37.9860 C   0  0  0  0  0  0  0  0  0  0  0  0
   36.8160   27.6730   39.0620 N   0  0  0  0  0  0  0  0  0  0  0  0
   36.5530   28.0540   40.3100 C   0  0  0  0  0  0  0  0  0  0  0  0
   35.4470   28.7630   40.5390 N   0  0  0  0  0  0  0  0  0  0  0  0
   33.7000   29.6720   39.7190 H   0  0  0  0  0  0  0  0  0  0  0  0
   36.2870   27.6210   36.9860 H   0  0  0  0  0  0  0  0  0  0  0  0
   37.0260   27.9100   42.7080 C   0  0  0  0  0  3  0  0  0  0  0  0
   37.4490   27.7090   41.4090 C   0  0  0  0  0  0  0  0  0  0  0  0
   38.7150   27.1850   41.1280 C   0  0  0  0  0  0  0  0  0  0  0  0
   39.0660   27.0200   40.1090 H   0  0  0  0  0  0  0  0  0  0  0  0
   39.5570   26.8630   42.1980 C   0  0  0  0  0  0  0  0  0  0  0  0
   39.1220   27.0680   43.5080 C   0  0  0  0  0  0  0  0  0  0  0  0
   37.8690   27.5860   43.7730 C   0  0  0  0  0  3  0  0  0  0  0  0
   40.1730   26.6550   44.3510 O   0  0  0  0  0  0  0  0  0  0  0  0
   41.0330   25.7940   43.6020 C   0  0  0  0  0  3  0  0  0  0  0  0
   40.5810   24.7720   43.5700 H   0  0  0  0  0  0  0  0  0  0  0  0
   40.8510   26.3340   42.2850 O   0  0  0  0  0  0  0  0  0  0  0  0
   33.9690   29.0480   37.1350 C   0  0  0  0  0  3  0  0  0  0  0  0
   32.8650   28.4260   36.8330 C   0  0  0  0  0  3  0  0  0  0  0  0
   31.9860   28.8350   35.7080 C   0  0  0  0  0  0  0  0  0  0  0  0
   31.2740   28.0190   35.4950 H   0  0  0  0  0  0  0  0  0  0  0  0
   32.6450   28.9600   34.8050 H   0  0  0  0  0  0  0  0  0  0  0  0
   31.8720   30.9120   33.8430 F   0  0  0  0  0  0  0  0  0  0  0  0
   31.2670   31.1140   35.0330 C   0  0  0  0  0  0  0  0  0  0  0  0
   31.3100   30.0870   35.9900 C   0  0  0  0  0  0  0  0  0  0  0  0
   30.6580   30.4300   37.1470 C   0  0  0  0  0  0  0  0  0  0  0  0
   30.0090   31.5960   37.4540 C   0  0  0  0  0  0  0  0  0  0  0  0
   30.0240   32.5540   36.4340 C   0  0  0  0  0  0  0  0  0  0  0  0
   30.6380   32.3460   35.2250 C   0  0  0  0  0  0  0  0  0  0  0  0
   30.6410   29.6880   37.9530 H   0  0  0  0  0  0  0  0  0  0  0  0
   29.5270   31.7740   38.3850 H   0  0  0  0  0  0  0  0  0  0  0  0
   29.5410   33.5140   36.5660 H   0  0  0  0  0  0  0  0  0  0  0  0
   30.6600   33.0750   34.4260 H   0  0  0  0  0  0  0  0  0  0  0  0
  1  7  1  0  0  0  0
  1  6  1  0  0  0  0
  2  1  2  0  0  0  0
  3  2  1  0  0  0  0
  3  4  2  0  0  0  0
  4  5  1  0  0  0  0
  5  6  2  0  0  0  0
  5 10  1  0  0  0  0
  8  3  1  0  0  0  0
  9 15  1  0  0  0  0
 10  9  2  0  0  0  0
 11 10  1  0  0  0  0
 11 13  2  0  0  0  0
 12 11  1  0  0  0  0
 13 19  1  0  0  0  0
 13 14  1  0  0  0  0
 14 15  2  0  0  0  0
 14 16  1  0  0  0  0
 17 16  1  0  0  0  0
 18 17  1  0  0  0  0
 19 17  1  0  0  0  0
 20  2  1  0  0  0  0
 21 20  2  0  0  0  0
 22 27  1  0  0  0  0
 22 21  1  0  0  0  0
 23 22  1  0  0  0  0
 24 22  1  0  0  0  0
 25 26  1  0  0  0  0
 26 31  2  0  0  0  0
 26 27  1  0  0  0  0
 27 28  2  0  0  0  0
 28 29  1  0  0  0  0
 28 32  1  0  0  0  0
 29 33  1  0  0  0  0
 30 34  1  0  0  0  0
 30 29  2  0  0  0  0
 31 30  1  0  0  0  0
 35 31  1  0  0  0  0
M  END
>  <minimizedAffinity>
-6.24027205

$$$$

 OpenBabel03242517183D

 35 38  0  0  0  0  0  0  0  0999 V2000
   38.9070   28.3640   41.3520 C   0  0  0  0  0  0  0  0  0  0  0  0
   37.5730   27.9940   41.6740 C   0  0  0  0  0  0  0  0  0  0  0  0
   36.6020   28.9760   41.6700 C   0  0  0  0  0  0  0  0  0  0  0  0
   37.0070   30.2440   41.3510 N   0  0  0  0  0  0  0  0  0  0  0  0
   38.2610   30.5750   41.0500 C   0  0  0  0  0  0  0  0  0  0  0  0
   39.1910   29.6200   41.0570 N   0  0  0  0  0  0  0  0  0  0  0  0
   39.6380   27.5580   41.3680 H   0  0  0  0  0  0  0  0  0  0  0  0
   35.5610   28.7630   41.9070 H   0  0  0  0  0  0  0  0  0  0  0  0
   37.6450   32.7990   40.2320 C   0  0  0  0  0  3  0  0  0  0  0  0
   38.6190   31.9510   40.7190 C   0  0  0  0  0  0  0  0  0  0  0  0
   39.9370   32.3830   40.8990 C   0  0  0  0  0  0  0  0  0  0  0  0
   40.7200   31.7270   41.2830 H   0  0  0  0  0  0  0  0  0  0  0  0
   40.2570   33.7060   40.5750 C   0  0  0  0  0  0  0  0  0  0  0  0
   39.2670   34.5570   40.0840 C   0  0  0  0  0  0  0  0  0  0  0  0
   37.9680   34.1190   39.9100 C   0  0  0  0  0  3  0  0  0  0  0  0
   39.8840   35.8030   39.8530 O   0  0  0  0  0  0  0  0  0  0  0  0
   41.0940   35.8480   40.6140 C   0  0  0  0  0  3  0  0  0  0  0  0
   40.8440   36.1040   41.6730 H   0  0  0  0  0  0  0  0  0  0  0  0
   41.4380   34.4560   40.6280 O   0  0  0  0  0  0  0  0  0  0  0  0
   37.2240   26.6060   42.0060 C   0  0  0  0  0  3  0  0  0  0  0  0
   37.0640   25.6380   41.1500 C   0  0  0  0  0  3  0  0  0  0  0  0
   36.7120   24.2510   41.5500 C   0  0  0  0  0  0  0  0  0  0  0  0
   35.8390   24.2830   42.2230 H   0  0  0  0  0  0  0  0  0  0  0  0
   37.5840   23.8470   42.1360 H   0  0  0  0  0  0  0  0  0  0  0  0
   38.5820   22.3640   40.6830 F   0  0  0  0  0  0  0  0  0  0  0  0
   37.4340   22.4670   39.9810 C   0  0  0  0  0  0  0  0  0  0  0  0
   36.4770   23.4070   40.3930 C   0  0  0  0  0  0  0  0  0  0  0  0
   35.3650   23.4020   39.5900 C   0  0  0  0  0  0  0  0  0  0  0  0
   35.1010   22.6260   38.4930 C   0  0  0  0  0  0  0  0  0  0  0  0
   36.1180   21.7210   38.1660 C   0  0  0  0  0  0  0  0  0  0  0  0
   37.2830   21.6180   38.8820 C   0  0  0  0  0  0  0  0  0  0  0  0
   34.5640   24.1080   39.8370 H   0  0  0  0  0  0  0  0  0  0  0  0
   34.2040   22.6910   37.9270 H   0  0  0  0  0  0  0  0  0  0  0  0
   36.0180   21.0560   37.3180 H   0  0  0  0  0  0  0  0  0  0  0  0
   38.0790   20.9250   38.6430 H   0  0  0  0  0  0  0  0  0  0  0  0
  1  7  1  0  0  0  0
  1  2  1  0  0  0  0
  2 20  1  0  0  0  0
  3  2  2  0  0  0  0
  3  8  1  0  0  0  0
  4  3  1  0  0  0  0
  5  6  1  0  0  0  0
  5  4  2  0  0  0  0
  6  1  2  0  0  0  0
  9 10  1  0  0  0  0
 10 11  2  0  0  0  0
 10  5  1  0  0  0  0
 11 12  1  0  0  0  0
 13 19  1  0  0  0  0
 13 11  1  0  0  0  0
 14 13  2  0  0  0  0
 15 14  1  0  0  0  0
 15  9  2  0  0  0  0
 16 14  1  0  0  0  0
 16 17  1  0  0  0  0
 17 19  1  0  0  0  0
 17 18  1  0  0  0  0
 21 22  1  0  0  0  0
 21 20  2  0  0  0  0
 22 24  1  0  0  0  0
 22 23  1  0  0  0  0
 26 27  1  0  0  0  0
 26 25  1  0  0  0  0
 27 22  1  0  0  0  0
 28 32  1  0  0  0  0
 28 27  2  0  0  0  0
 29 28  1  0  0  0  0
 30 29  2  0  0  0  0
 30 31  1  0  0  0  0
 31 26  2  0  0  0  0
 33 29  1  0  0  0  0
 34 30  1  0  0  0  0
 35 31  1  0  0  0  0
M  END
>  <minimizedAffinity>
-6.08582115

$$$$

 OpenBabel03242517183D

 35 38  0  0  0  0  0  0  0  0999 V2000
   38.4480   28.3550   40.0360 C   0  0  0  0  0  0  0  0  0  0  0  0
   37.3660   27.9910   40.8820 C   0  0  0  0  0  0  0  0  0  0  0  0
   36.7100   28.9910   41.5720 C   0  0  0  0  0  0  0  0  0  0  0  0
   37.1600   30.2690   41.3840 N   0  0  0  0  0  0  0  0  0  0  0  0
   38.1760   30.5950   40.5870 C   0  0  0  0  0  0  0  0  0  0  0  0
   38.8030   29.6230   39.9250 N   0  0  0  0  0  0  0  0  0  0  0  0
   38.9350   27.5340   39.5130 H   0  0  0  0  0  0  0  0  0  0  0  0
   35.8730   28.7830   42.2370 H   0  0  0  0  0  0  0  0  0  0  0  0
   37.6660   32.9380   40.0900 C   0  0  0  0  0  3  0  0  0  0  0  0
   38.6010   31.9830   40.4360 C   0  0  0  0  0  0  0  0  0  0  0  0
   39.9420   32.3200   40.6440 C   0  0  0  0  0  0  0  0  0  0  0  0
   40.6950   31.5800   40.9180 H   0  0  0  0  0  0  0  0  0  0  0  0
   40.3270   33.6570   40.4930 C   0  0  0  0  0  0  0  0  0  0  0  0
   39.3750   34.6160   40.1430 C   0  0  0  0  0  0  0  0  0  0  0  0
   38.0520   34.2710   39.9410 C   0  0  0  0  0  3  0  0  0  0  0  0
   40.0530   35.8490   40.0680 O   0  0  0  0  0  0  0  0  0  0  0  0
   41.2760   35.7300   40.8010 C   0  0  0  0  0  3  0  0  0  0  0  0
   41.0560   35.8520   41.8900 H   0  0  0  0  0  0  0  0  0  0  0  0
   41.5470   34.3330   40.6190 O   0  0  0  0  0  0  0  0  0  0  0  0
   36.9470   26.5900   41.0270 C   0  0  0  0  0  3  0  0  0  0  0  0
   37.4250   25.7400   41.8900 C   0  0  0  0  0  3  0  0  0  0  0  0
   36.9560   24.3340   41.9880 C   0  0  0  0  0  0  0  0  0  0  0  0
   35.8740   24.3310   42.1980 H   0  0  0  0  0  0  0  0  0  0  0  0
   37.4790   23.8730   42.8710 H   0  0  0  0  0  0  0  0  0  0  0  0
   34.9870   23.4510   40.2130 F   0  0  0  0  0  0  0  0  0  0  0  0
   36.2690   23.1510   39.9150 C   0  0  0  0  0  0  0  0  0  0  0  0
   37.2790   23.5810   40.7890 C   0  0  0  0  0  0  0  0  0  0  0  0
   38.5280   23.2060   40.3640 C   0  0  0  0  0  0  0  0  0  0  0  0
   38.8770   22.4980   39.2440 C   0  0  0  0  0  0  0  0  0  0  0  0
   37.7980   22.1170   38.4390 C   0  0  0  0  0  0  0  0  0  0  0  0
   36.4960   22.4240   38.7440 C   0  0  0  0  0  0  0  0  0  0  0  0
   39.3800   23.4990   40.9870 H   0  0  0  0  0  0  0  0  0  0  0  0
   39.8800   22.2520   38.9920 H   0  0  0  0  0  0  0  0  0  0  0  0
   37.9550   21.5540   37.5290 H   0  0  0  0  0  0  0  0  0  0  0  0
   35.6500   22.1370   38.1340 H   0  0  0  0  0  0  0  0  0  0  0  0
  1  2  1  0  0  0  0
  2 20  1  0  0  0  0
  2  3  2  0  0  0  0
  3  8  1  0  0  0  0
  4  3  1  0  0  0  0
  5  4  2  0  0  0  0
  6  1  2  0  0  0  0
  6  5  1  0  0  0  0
  7  1  1  0  0  0  0
  9 10  1  0  0  0  0
 10  5  1  0  0  0  0
 10 11  2  0  0  0  0
 11 12  1  0  0  0  0
 13 19  1  0  0  0  0
 13 11  1  0  0  0  0
 14 13  2  0  0  0  0
 15  9  2  0  0  0  0
 15 14  1  0  0  0  0
 16 14  1  0  0  0  0
 16 17  1  0  0  0  0
 17 18  1  0  0  0  0
 19 17  1  0  0  0  0
 20 21  2  0  0  0  0
 21 22  1  0  0  0  0
 22 23  1  0  0  0  0
 22 24  1  0  0  0  0
 26 25  1  0  0  0  0
 26 27  1  0  0  0  0
 27 22  1  0  0  0  0
 28 27  2  0  0  0  0
 28 32  1  0  0  0  0
 29 28  1  0  0  0  0
 30 31  1  0  0  0  0
 30 29  2  0  0  0  0
 31 26  2  0  0  0  0
 33 29  1  0  0  0  0
 34 30  1  0  0  0  0
 35 31  1  0  0  0  0
M  END
>  <minimizedAffinity>
-5.97867012

$$$$

 OpenBabel03242517183D

 35 38  0  0  0  0  0  0  0  0999 V2000
   34.5830   29.0880   39.6190 C   0  0  0  0  0  0  0  0  0  0  0  0
   34.7330   29.0790   38.2060 C   0  0  0  0  0  0  0  0  0  0  0  0
   35.9650   29.4120   37.6760 C   0  0  0  0  0  0  0  0  0  0  0  0
   36.9550   29.7280   38.5660 N   0  0  0  0  0  0  0  0  0  0  0  0
   36.7990   29.7310   39.8890 C   0  0  0  0  0  0  0  0  0  0  0  0
   35.6070   29.4080   40.3900 N   0  0  0  0  0  0  0  0  0  0  0  0
   33.5960   28.8190   39.9900 H   0  0  0  0  0  0  0  0  0  0  0  0
   36.1500   29.4260   36.6030 H   0  0  0  0  0  0  0  0  0  0  0  0
   37.9430   29.5330   42.0440 C   0  0  0  0  0  3  0  0  0  0  0  0
   37.9030   30.0790   40.7770 C   0  0  0  0  0  0  0  0  0  0  0  0
   38.8970   30.9570   40.3320 C   0  0  0  0  0  0  0  0  0  0  0  0
   38.8820   31.3990   39.3350 H   0  0  0  0  0  0  0  0  0  0  0  0
   39.9450   31.2770   41.2010 C   0  0  0  0  0  0  0  0  0  0  0  0
   39.9780   30.7200   42.4800 C   0  0  0  0  0  0  0  0  0  0  0  0
   38.9910   29.8540   42.9090 C   0  0  0  0  0  3  0  0  0  0  0  0
   41.1350   31.2230   43.1090 O   0  0  0  0  0  0  0  0  0  0  0  0
   42.0230   31.6980   42.0940 C   0  0  0  0  0  3  0  0  0  0  0  0
   42.5700   30.8260   41.6570 H   0  0  0  0  0  0  0  0  0  0  0  0
   41.0760   32.0960   41.0930 O   0  0  0  0  0  0  0  0  0  0  0  0
   33.6150   28.7270   37.3210 C   0  0  0  0  0  3  0  0  0  0  0  0
   32.5020   29.3930   37.2020 C   0  0  0  0  0  3  0  0  0  0  0  0
   31.4070   28.9860   36.2850 C   0  0  0  0  0  0  0  0  0  0  0  0
   30.5590   28.6130   36.8830 H   0  0  0  0  0  0  0  0  0  0  0  0
   31.7960   28.1280   35.6690 H   0  0  0  0  0  0  0  0  0  0  0  0
   30.8090   28.5730   33.5870 F   0  0  0  0  0  0  0  0  0  0  0  0
   30.7210   29.8360   34.0540 C   0  0  0  0  0  0  0  0  0  0  0  0
   31.0160   30.0730   35.4060 C   0  0  0  0  0  0  0  0  0  0  0  0
   30.8860   31.3960   35.7410 C   0  0  0  0  0  0  0  0  0  0  0  0
   30.5220   32.4520   34.9470 C   0  0  0  0  0  0  0  0  0  0  0  0
   30.2480   32.1090   33.6180 C   0  0  0  0  0  0  0  0  0  0  0  0
   30.3370   30.8250   33.1450 C   0  0  0  0  0  0  0  0  0  0  0  0
   31.0990   31.6750   36.7790 H   0  0  0  0  0  0  0  0  0  0  0  0
   30.4460   33.4530   35.2960 H   0  0  0  0  0  0  0  0  0  0  0  0
   29.9500   32.8620   32.9000 H   0  0  0  0  0  0  0  0  0  0  0  0
   30.1300   30.5420   32.1220 H   0  0  0  0  0  0  0  0  0  0  0  0
  1  7  1  0  0  0  0
  1  6  1  0  0  0  0
  2  1  2  0  0  0  0
  3  2  1  0  0  0  0
  3  4  2  0  0  0  0
  4  5  1  0  0  0  0
  5  6  2  0  0  0  0
  5 10  1  0  0  0  0
  8  3  1  0  0  0  0
  9 15  1  0  0  0  0
 10  9  2  0  0  0  0
 11 10  1  0  0  0  0
 11 13  2  0  0  0  0
 12 11  1  0  0  0  0
 13 14  1  0  0  0  0
 14 15  2  0  0  0  0
 14 16  1  0  0  0  0
 17 16  1  0  0  0  0
 18 17  1  0  0  0  0
 19 13  1  0  0  0  0
 19 17  1  0  0  0  0
 20  2  1  0  0  0  0
 21 20  2  0  0  0  0
 22 23  1  0  0  0  0
 22 21  1  0  0  0  0
 24 22  1  0  0  0  0
 25 26  1  0  0  0  0
 26 27  1  0  0  0  0
 27 28  2  0  0  0  0
 27 22  1  0  0  0  0
 28 32  1  0  0  0  0
 29 33  1  0  0  0  0
 29 28  1  0  0  0  0
 30 29  2  0  0  0  0
 31 30  1  0  0  0  0
 31 26  2  0  0  0  0
 34 30  1  0  0  0  0
 35 31  1  0  0  0  0
M  END
>  <minimizedAffinity>
-5.50516176

$$$$

 OpenBabel03242517183D

 35 38  0  0  0  0  0  0  0  0999 V2000
   37.7360   28.6610   39.6300 C   0  0  0  0  0  0  0  0  0  0  0  0
   36.7910   29.4920   38.9690 C   0  0  0  0  0  0  0  0  0  0  0  0
   35.7260   28.8900   38.3270 C   0  0  0  0  0  0  0  0  0  0  0  0
   35.6660   27.5240   38.3790 N   0  0  0  0  0  0  0  0  0  0  0  0
   36.5580   26.7590   39.0030 C   0  0  0  0  0  0  0  0  0  0  0  0
   37.5830   27.3490   39.6200 N   0  0  0  0  0  0  0  0  0  0  0  0
   38.5570   29.1790   40.1210 H   0  0  0  0  0  0  0  0  0  0  0  0
   34.9660   29.4660   37.8010 H   0  0  0  0  0  0  0  0  0  0  0  0
   35.4060   24.7160   38.2990 C   0  0  0  0  0  3  0  0  0  0  0  0
   36.4280   25.3050   39.0170 C   0  0  0  0  0  0  0  0  0  0  0  0
   37.3360   24.5380   39.7540 C   0  0  0  0  0  0  0  0  0  0  0  0
   38.1490   24.9850   40.3270 H   0  0  0  0  0  0  0  0  0  0  0  0
   37.1910   23.1460   39.7520 C   0  0  0  0  0  0  0  0  0  0  0  0
   36.1550   22.5590   39.0240 C   0  0  0  0  0  0  0  0  0  0  0  0
   35.2650   23.3280   38.2990 C   0  0  0  0  0  3  0  0  0  0  0  0
   36.2670   21.1670   39.2140 O   0  0  0  0  0  0  0  0  0  0  0  0
   37.5970   20.8840   39.6580 C   0  0  0  0  0  3  0  0  0  0  0  0
   38.2790   20.8750   38.7720 H   0  0  0  0  0  0  0  0  0  0  0  0
   37.8960   22.1000   40.3590 O   0  0  0  0  0  0  0  0  0  0  0  0
   36.9330   30.9540   38.9610 C   0  0  0  0  0  3  0  0  0  0  0  0
   37.3520   31.6820   39.9570 C   0  0  0  0  0  3  0  0  0  0  0  0
   37.4750   33.1600   39.8860 C   0  0  0  0  0  0  0  0  0  0  0  0
   36.7690   33.6130   40.6010 H   0  0  0  0  0  0  0  0  0  0  0  0
   37.1600   33.4670   38.8500 H   0  0  0  0  0  0  0  0  0  0  0  0
   38.2330   35.8440   39.7220 F   0  0  0  0  0  0  0  0  0  0  0  0
   39.1930   34.9480   40.0330 C   0  0  0  0  0  0  0  0  0  0  0  0
   38.8410   33.5920   40.1220 C   0  0  0  0  0  0  0  0  0  0  0  0
   39.9120   32.7980   40.4440 C   0  0  0  0  0  0  0  0  0  0  0  0
   41.2120   33.1610   40.6750 C   0  0  0  0  0  0  0  0  0  0  0  0
   41.4580   34.5350   40.5630 C   0  0  0  0  0  0  0  0  0  0  0  0
   40.4810   35.4440   40.2470 C   0  0  0  0  0  0  0  0  0  0  0  0
   39.7300   31.7210   40.5330 H   0  0  0  0  0  0  0  0  0  0  0  0
   41.9820   32.4710   40.9210 H   0  0  0  0  0  0  0  0  0  0  0  0
   42.4500   34.9360   40.7240 H   0  0  0  0  0  0  0  0  0  0  0  0
   40.6540   36.5080   40.1550 H   0  0  0  0  0  0  0  0  0  0  0  0
  1  7  1  0  0  0  0
  2  1  2  0  0  0  0
  3  4  2  0  0  0  0
  3  2  1  0  0  0  0
  4  5  1  0  0  0  0
  5 10  1  0  0  0  0
  5  6  2  0  0  0  0
  6  1  1  0  0  0  0
  8  3  1  0  0  0  0
  9 10  1  0  0  0  0
 10 11  2  0  0  0  0
 11 12  1  0  0  0  0
 13 11  1  0  0  0  0
 13 19  1  0  0  0  0
 14 16  1  0  0  0  0
 14 13  2  0  0  0  0
 15  9  2  0  0  0  0
 15 14  1  0  0  0  0
 16 17  1  0  0  0  0
 17 19  1  0  0  0  0
 18 17  1  0  0  0  0
 20  2  1  0  0  0  0
 20 21  2  0  0  0  0
 22 21  1  0  0  0  0
 22 27  1  0  0  0  0
 22 23  1  0  0  0  0
 24 22  1  0  0  0  0
 25 26  1  0  0  0  0
 26 27  2  0  0  0  0
 26 31  1  0  0  0  0
 27 28  1  0  0  0  0
 28 32  1  0  0  0  0
 28 29  2  0  0  0  0
 29 33  1  0  0  0  0
 30 29  1  0  0  0  0
 30 34  1  0  0  0  0
 31 30  2  0  0  0  0
 35 31  1  0  0  0  0
M  END
>  <minimizedAffinity>
-5.44551849

$$$$

 OpenBabel03242517183D

 35 38  0  0  0  0  0  0  0  0999 V2000
   35.5250   28.8970   36.1580 C   0  0  0  0  0  0  0  0  0  0  0  0
   35.2880   28.4890   37.4990 C   0  0  0  0  0  0  0  0  0  0  0  0
   33.9850   28.4660   37.9570 C   0  0  0  0  0  0  0  0  0  0  0  0
   33.0130   28.8440   37.0710 N   0  0  0  0  0  0  0  0  0  0  0  0
   33.2490   29.2240   35.8170 C   0  0  0  0  0  0  0  0  0  0  0  0
   34.5110   29.2430   35.3850 N   0  0  0  0  0  0  0  0  0  0  0  0
   36.5660   28.8990   35.8420 H   0  0  0  0  0  0  0  0  0  0  0  0
   33.7330   28.1640   38.9720 H   0  0  0  0  0  0  0  0  0  0  0  0
   31.4000   28.6320   34.3260 C   0  0  0  0  0  3  0  0  0  0  0  0
   32.1590   29.6150   34.9290 C   0  0  0  0  0  0  0  0  0  0  0  0
   31.9050   30.9710   34.7050 C   0  0  0  0  0  0  0  0  0  0  0  0
   32.4930   31.7610   35.1720 H   0  0  0  0  0  0  0  0  0  0  0  0
   30.8550   31.3220   33.8490 C   0  0  0  0  0  0  0  0  0  0  0  0
   30.0920   30.3220   33.2430 C   0  0  0  0  0  0  0  0  0  0  0  0
   30.3530   28.9850   33.4730 C   0  0  0  0  0  3  0  0  0  0  0  0
   29.1260   30.9760   32.4520 O   0  0  0  0  0  0  0  0  0  0  0  0
   29.0010   32.3210   32.9220 C   0  0  0  0  0  3  0  0  0  0  0  0
   28.3460   32.3270   33.8280 H   0  0  0  0  0  0  0  0  0  0  0  0
   30.3320   32.5440   33.4100 O   0  0  0  0  0  0  0  0  0  0  0  0
   36.3940   28.0980   38.3840 C   0  0  0  0  0  3  0  0  0  0  0  0
   36.4420   27.0150   39.1070 C   0  0  0  0  0  3  0  0  0  0  0  0
   37.5920   26.6750   39.9820 C   0  0  0  0  0  0  0  0  0  0  0  0
   38.5290   26.9030   39.4470 H   0  0  0  0  0  0  0  0  0  0  0  0
   37.5570   25.5640   40.1560 H   0  0  0  0  0  0  0  0  0  0  0  0
   36.5820   25.4430   42.2770 F   0  0  0  0  0  0  0  0  0  0  0  0
   37.0010   26.7200   42.3940 C   0  0  0  0  0  0  0  0  0  0  0  0
   37.5120   27.3650   41.2570 C   0  0  0  0  0  0  0  0  0  0  0  0
   37.8970   28.6550   41.5210 C   0  0  0  0  0  0  0  0  0  0  0  0
   37.8410   29.3430   42.7040 C   0  0  0  0  0  0  0  0  0  0  0  0
   37.3160   28.6120   43.7750 C   0  0  0  0  0  0  0  0  0  0  0  0
   36.8910   27.3130   43.6550 C   0  0  0  0  0  0  0  0  0  0  0  0
   38.3090   29.2370   40.6890 H   0  0  0  0  0  0  0  0  0  0  0  0
   38.1650   30.3490   42.8160 H   0  0  0  0  0  0  0  0  0  0  0  0
   37.2240   29.0540   44.7580 H   0  0  0  0  0  0  0  0  0  0  0  0
   36.4830   26.7330   44.4710 H   0  0  0  0  0  0  0  0  0  0  0  0
  1  2  1  0  0  0  0
  2  3  2  0  0  0  0
  2 20  1  0  0  0  0
  3  8  1  0  0  0  0
  4  3  1  0  0  0  0
  5  4  2  0  0  0  0
  6  5  1  0  0  0  0
  6  1  2  0  0  0  0
  7  1  1  0  0  0  0
  9 10  1  0  0  0  0
 10  5  1  0  0  0  0
 11 10  2  0  0  0  0
 11 12  1  0  0  0  0
 13 11  1  0  0  0  0
 14 15  1  0  0  0  0
 14 13  2  0  0  0  0
 15  9  2  0  0  0  0
 16 17  1  0  0  0  0
 16 14  1  0  0  0  0
 17 19  1  0  0  0  0
 17 18  1  0  0  0  0
 19 13  1  0  0  0  0
 20 21  2  0  0  0  0
 21 22  1  0  0  0  0
 22 24  1  0  0  0  0
 22 27  1  0  0  0  0
 23 22  1  0  0  0  0
 25 26  1  0  0  0  0
 26 31  1  0  0  0  0
 27 28  1  0  0  0  0
 27 26  2  0  0  0  0
 28 29  2  0  0  0  0
 29 33  1  0  0  0  0
 29 30  1  0  0  0  0
 30 34  1  0  0  0  0
 31 30  2  0  0  0  0
 31 35  1  0  0  0  0
 32 28  1  0  0  0  0
M  END
>  <minimizedAffinity>
-5.41462088

$$$$

 OpenBabel03242517183D

 35 38  0  0  0  0  0  0  0  0999 V2000
   38.3210   29.6340   37.4360 C   0  0  0  0  0  0  0  0  0  0  0  0
   37.0170   30.1220   37.7210 C   0  0  0  0  0  0  0  0  0  0  0  0
   36.9000   31.3070   38.4210 C   0  0  0  0  0  0  0  0  0  0  0  0
   38.0640   31.9250   38.7880 N   0  0  0  0  0  0  0  0  0  0  0  0
   39.2800   31.4560   38.5130 C   0  0  0  0  0  0  0  0  0  0  0  0
   39.3820   30.3110   37.8370 N   0  0  0  0  0  0  0  0  0  0  0  0
   38.3640   28.6980   36.8830 H   0  0  0  0  0  0  0  0  0  0  0  0
   35.9320   31.7380   38.6740 H   0  0  0  0  0  0  0  0  0  0  0  0
   40.7280   32.3210   40.2880 C   0  0  0  0  0  3  0  0  0  0  0  0
   40.4790   32.1710   38.9380 C   0  0  0  0  0  0  0  0  0  0  0  0
   41.3490   32.6910   37.9750 C   0  0  0  0  0  0  0  0  0  0  0  0
   41.1690   32.5830   36.9050 H   0  0  0  0  0  0  0  0  0  0  0  0
   42.4920   33.3740   38.4070 C   0  0  0  0  0  0  0  0  0  0  0  0
   42.7370   33.5200   39.7730 C   0  0  0  0  0  0  0  0  0  0  0  0
   41.8690   33.0010   40.7140 C   0  0  0  0  0  3  0  0  0  0  0  0
   43.9430   34.2400   39.8920 O   0  0  0  0  0  0  0  0  0  0  0  0
   44.6510   34.1300   38.6540 C   0  0  0  0  0  3  0  0  0  0  0  0
   45.1760   33.1440   38.6250 H   0  0  0  0  0  0  0  0  0  0  0  0
   43.5500   34.0050   37.7410 O   0  0  0  0  0  0  0  0  0  0  0  0
   35.8170   29.3940   37.2890 C   0  0  0  0  0  3  0  0  0  0  0  0
   34.8020   29.0850   38.0450 C   0  0  0  0  0  3  0  0  0  0  0  0
   33.6140   28.3460   37.5450 C   0  0  0  0  0  0  0  0  0  0  0  0
   33.0980   27.8780   38.4000 H   0  0  0  0  0  0  0  0  0  0  0  0
   33.9940   27.5220   36.8800 H   0  0  0  0  0  0  0  0  0  0  0  0
   31.5400   29.7810   38.7490 F   0  0  0  0  0  0  0  0  0  0  0  0
   31.6980   29.9210   37.4160 C   0  0  0  0  0  0  0  0  0  0  0  0
   32.7310   29.2120   36.7850 C   0  0  0  0  0  0  0  0  0  0  0  0
   32.7730   29.4480   35.4340 C   0  0  0  0  0  0  0  0  0  0  0  0
   31.9640   30.2540   34.6780 C   0  0  0  0  0  0  0  0  0  0  0  0
   30.9660   30.9170   35.4020 C   0  0  0  0  0  0  0  0  0  0  0  0
   30.8080   30.7730   36.7570 C   0  0  0  0  0  0  0  0  0  0  0  0
   33.5500   28.9340   34.8580 H   0  0  0  0  0  0  0  0  0  0  0  0
   32.0710   30.3780   33.6280 H   0  0  0  0  0  0  0  0  0  0  0  0
   30.2680   31.5800   34.9080 H   0  0  0  0  0  0  0  0  0  0  0  0
   30.0430   31.2760   37.3320 H   0  0  0  0  0  0  0  0  0  0  0  0
  1  2  2  0  0  0  0
  1  6  1  0  0  0  0
  2  3  1  0  0  0  0
  3  8  1  0  0  0  0
  3  4  2  0  0  0  0
  5  4  1  0  0  0  0
  5 10  1  0  0  0  0
  6  5  2  0  0  0  0
  7  1  1  0  0  0  0
  9 15  1  0  0  0  0
 10  9  2  0  0  0  0
 11 13  2  0  0  0  0
 11 10  1  0  0  0  0
 12 11  1  0  0  0  0
 13 14  1  0  0  0  0
 14 16  1  0  0  0  0
 14 15  2  0  0  0  0
 17 16  1  0  0  0  0
 18 17  1  0  0  0  0
 19 13  1  0  0  0  0
 19 17  1  0  0  0  0
 20  2  1  0  0  0  0
 20 21  2  0  0  0  0
 22 21  1  0  0  0  0
 22 23  1  0  0  0  0
 24 22  1  0  0  0  0
 26 25  1  0  0  0  0
 27 26  1  0  0  0  0
 27 22  1  0  0  0  0
 28 27  2  0  0  0  0
 29 30  2  0  0  0  0
 29 28  1  0  0  0  0
 30 31  1  0  0  0  0
 31 35  1  0  0  0  0
 31 26  2  0  0  0  0
 32 28  1  0  0  0  0
 33 29  1  0  0  0  0
 34 30  1  0  0  0  0
M  END
>  <minimizedAffinity>
-5.3558774

$$$$

 OpenBabel03242517183D

 35 38  0  0  0  0  0  0  0  0999 V2000
   36.0630   29.2820   37.3230 C   0  0  0  0  0  0  0  0  0  0  0  0
   35.2500   28.4820   38.1710 C   0  0  0  0  0  0  0  0  0  0  0  0
   35.2570   28.7470   39.5260 C   0  0  0  0  0  0  0  0  0  0  0  0
   36.0550   29.7740   39.9500 N   0  0  0  0  0  0  0  0  0  0  0  0
   36.8110   30.5160   39.1440 C   0  0  0  0  0  0  0  0  0  0  0  0
   36.7990   30.2520   37.8380 N   0  0  0  0  0  0  0  0  0  0  0  0
   36.0260   29.0370   36.2640 H   0  0  0  0  0  0  0  0  0  0  0  0
   34.6580   28.1730   40.2320 H   0  0  0  0  0  0  0  0  0  0  0  0
   38.7370   31.2840   40.4460 C   0  0  0  0  0  3  0  0  0  0  0  0
   37.6390   31.5970   39.6700 C   0  0  0  0  0  0  0  0  0  0  0  0
   37.3070   32.9240   39.3810 C   0  0  0  0  0  0  0  0  0  0  0  0
   36.4440   33.1900   38.7700 H   0  0  0  0  0  0  0  0  0  0  0  0
   38.1160   33.9430   39.8960 C   0  0  0  0  0  0  0  0  0  0  0  0
   39.2240   33.6190   40.6800 C   0  0  0  0  0  0  0  0  0  0  0  0
   39.5420   32.3030   40.9580 C   0  0  0  0  0  3  0  0  0  0  0  0
   39.8300   34.8370   41.0460 O   0  0  0  0  0  0  0  0  0  0  0  0
   39.3850   35.8470   40.1360 C   0  0  0  0  0  3  0  0  0  0  0  0
   39.9790   35.7690   39.1920 H   0  0  0  0  0  0  0  0  0  0  0  0
   38.0820   35.3400   39.8110 O   0  0  0  0  0  0  0  0  0  0  0  0
   34.4210   27.3960   37.6300 C   0  0  0  0  0  3  0  0  0  0  0  0
   34.8530   26.3860   36.9310 C   0  0  0  0  0  3  0  0  0  0  0  0
   33.9610   25.3170   36.4140 C   0  0  0  0  0  0  0  0  0  0  0  0
   34.4480   24.8290   35.5530 H   0  0  0  0  0  0  0  0  0  0  0  0
   33.0270   25.8200   36.0400 H   0  0  0  0  0  0  0  0  0  0  0  0
   31.3200   24.5430   36.8960 F   0  0  0  0  0  0  0  0  0  0  0  0
   32.2780   23.9940   37.6720 C   0  0  0  0  0  0  0  0  0  0  0  0
   33.6140   24.3650   37.4530 C   0  0  0  0  0  0  0  0  0  0  0  0
   34.4750   23.7320   38.3120 C   0  0  0  0  0  0  0  0  0  0  0  0
   34.1930   22.8300   39.3030 C   0  0  0  0  0  0  0  0  0  0  0  0
   32.8330   22.5270   39.4400 C   0  0  0  0  0  0  0  0  0  0  0  0
   31.8610   23.0860   38.6490 C   0  0  0  0  0  0  0  0  0  0  0  0
   35.5420   23.9630   38.2140 H   0  0  0  0  0  0  0  0  0  0  0  0
   34.9320   22.3870   39.9250 H   0  0  0  0  0  0  0  0  0  0  0  0
   32.4930   21.8260   40.1910 H   0  0  0  0  0  0  0  0  0  0  0  0
   30.8070   22.8640   38.7410 H   0  0  0  0  0  0  0  0  0  0  0  0
  1  6  2  0  0  0  0
  1  2  1  0  0  0  0
  2  3  2  0  0  0  0
  3  4  1  0  0  0  0
  3  8  1  0  0  0  0
  5 10  1  0  0  0  0
  5  4  2  0  0  0  0
  6  5  1  0  0  0  0
  7  1  1  0  0  0  0
  9 15  1  0  0  0  0
 10  9  2  0  0  0  0
 11 10  1  0  0  0  0
 11 13  2  0  0  0  0
 12 11  1  0  0  0  0
 13 14  1  0  0  0  0
 14 15  2  0  0  0  0
 14 16  1  0  0  0  0
 17 16  1  0  0  0  0
 18 17  1  0  0  0  0
 19 13  1  0  0  0  0
 19 17  1  0  0  0  0
 20  2  1  0  0  0  0
 21 20  2  0  0  0  0
 22 21  1  0  0  0  0
 22 27  1  0  0  0  0
 23 22  1  0  0  0  0
 24 22  1  0  0  0  0
 25 26  1  0  0  0  0
 26 31  1  0  0  0  0
 27 26  2  0  0  0  0
 27 28  1  0  0  0  0
 28 29  2  0  0  0  0
 29 30  1  0  0  0  0
 29 33  1  0  0  0  0
 30 34  1  0  0  0  0
 31 35  1  0  0  0  0
 31 30  2  0  0  0  0
 32 28  1  0  0  0  0
M  END
>  <minimizedAffinity>
-5.30972242

$$$$

 OpenBabel03242517183D

 35 38  0  0  0  0  0  0  0  0999 V2000
   36.9570   31.8830   39.9340 C   0  0  0  0  0  0  0  0  0  0  0  0
   37.1980   30.9630   38.8770 C   0  0  0  0  0  0  0  0  0  0  0  0
   38.4610   30.9230   38.3190 C   0  0  0  0  0  0  0  0  0  0  0  0
   39.3920   31.7830   38.8360 N   0  0  0  0  0  0  0  0  0  0  0  0
   39.1520   32.6390   39.8280 C   0  0  0  0  0  0  0  0  0  0  0  0
   37.9290   32.6700   40.3590 N   0  0  0  0  0  0  0  0  0  0  0  0
   35.9480   31.8790   40.3420 H   0  0  0  0  0  0  0  0  0  0  0  0
   38.7150   30.2440   37.5070 H   0  0  0  0  0  0  0  0  0  0  0  0
   39.9970   34.8920   40.2780 C   0  0  0  0  0  3  0  0  0  0  0  0
   40.1960   33.5270   40.3270 C   0  0  0  0  0  0  0  0  0  0  0  0
   41.3760   32.9820   40.8450 C   0  0  0  0  0  0  0  0  0  0  0  0
   41.5510   31.9070   40.8920 H   0  0  0  0  0  0  0  0  0  0  0  0
   42.3630   33.8530   41.3180 C   0  0  0  0  0  0  0  0  0  0  0  0
   42.1540   35.2320   41.2640 C   0  0  0  0  0  0  0  0  0  0  0  0
   40.9840   35.7580   40.7510 C   0  0  0  0  0  3  0  0  0  0  0  0
   43.3070   35.8360   41.8040 O   0  0  0  0  0  0  0  0  0  0  0  0
   43.9970   34.8580   42.5880 C   0  0  0  0  0  3  0  0  0  0  0  0
   43.5000   34.7820   43.5870 H   0  0  0  0  0  0  0  0  0  0  0  0
   43.6300   33.6630   41.8850 O   0  0  0  0  0  0  0  0  0  0  0  0
   36.1390   30.0740   38.3820 C   0  0  0  0  0  3  0  0  0  0  0  0
   36.3160   29.0360   37.6150 C   0  0  0  0  0  3  0  0  0  0  0  0
   35.2010   28.1730   37.1480 C   0  0  0  0  0  0  0  0  0  0  0  0
   35.1690   28.1920   36.0460 H   0  0  0  0  0  0  0  0  0  0  0  0
   34.2470   28.6350   37.5270 H   0  0  0  0  0  0  0  0  0  0  0  0
   33.5060   26.1100   36.3230 F   0  0  0  0  0  0  0  0  0  0  0  0
   34.4560   25.8050   37.2320 C   0  0  0  0  0  0  0  0  0  0  0  0
   35.3210   26.8220   37.6660 C   0  0  0  0  0  0  0  0  0  0  0  0
   36.2320   26.3710   38.5860 C   0  0  0  0  0  0  0  0  0  0  0  0
   36.3810   25.1110   39.1010 C   0  0  0  0  0  0  0  0  0  0  0  0
   35.4710   24.1700   38.6040 C   0  0  0  0  0  0  0  0  0  0  0  0
   34.5070   24.4830   37.6790 C   0  0  0  0  0  0  0  0  0  0  0  0
   36.9480   27.0990   38.9830 H   0  0  0  0  0  0  0  0  0  0  0  0
   37.1220   24.8500   39.8170 H   0  0  0  0  0  0  0  0  0  0  0  0
   35.4960   23.1420   38.9390 H   0  0  0  0  0  0  0  0  0  0  0  0
   33.7950   23.7700   37.2850 H   0  0  0  0  0  0  0  0  0  0  0  0
  1  7  1  0  0  0  0
  1  6  1  0  0  0  0
  2  1  2  0  0  0  0
  3  4  2  0  0  0  0
  3  2  1  0  0  0  0
  4  5  1  0  0  0  0
  5 10  1  0  0  0  0
  5  6  2  0  0  0  0
  8  3  1  0  0  0  0
  9 10  2  0  0  0  0
  9 15  1  0  0  0  0
 10 11  1  0  0  0  0
 11 12  1  0  0  0  0
 11 13  2  0  0  0  0
 13 19  1  0  0  0  0
 14 13  1  0  0  0  0
 14 16  1  0  0  0  0
 15 14  2  0  0  0  0
 16 17  1  0  0  0  0
 17 18  1  0  0  0  0
 19 17  1  0  0  0  0
 20  2  1  0  0  0  0
 21 20  2  0  0  0  0
 22 24  1  0  0  0  0
 22 21  1  0  0  0  0
 22 27  1  0  0  0  0
 23 22  1  0  0  0  0
 25 26  1  0  0  0  0
 26 27  2  0  0  0  0
 26 31  1  0  0  0  0
 27 28  1  0  0  0  0
 28 32  1  0  0  0  0
 28 29  2  0  0  0  0
 29 33  1  0  0  0  0
 30 34  1  0  0  0  0
 30 29  1  0  0  0  0
 31 30  2  0  0  0  0
 35 31  1  0  0  0  0
M  END
>  <minimizedAffinity>
-5.26233721

$$$$
