
 OpenBabel03252508323D

 34 37  0  0  1  0  0  0  0  0999 V2000
   44.3800   34.5420   41.9640 N   0  0  0  0  0  0  0  0  0  0  0  0
   44.7360   33.4900   41.0910 C   0  0  1  0  0  0  0  0  0  0  0  0
   44.2140   33.5890   39.7050 C   0  0  0  0  0  0  0  0  0  0  0  0
   42.9610   34.1960   39.5320 N   0  0  0  0  0  0  0  0  0  0  0  0
   42.5970   35.2250   40.4190 C   0  0  0  0  0  0  0  0  0  0  0  0
   43.7510   35.6470   41.3080 C   0  0  0  0  0  0  0  0  0  0  0  0
   44.3530   32.5280   41.5340 H   0  0  0  0  0  0  0  0  0  0  0  0
   44.2310   32.5900   39.2240 H   0  0  0  0  0  0  0  0  0  0  0  0
   44.9610   34.1960   39.1120 H   0  0  0  0  0  0  0  0  0  0  0  0
   42.2200   33.4380   39.6200 H   0  0  0  0  0  0  0  0  0  0  0  0
   41.7130   35.0430   41.0550 H   0  0  0  0  0  0  0  0  0  0  0  0
   42.3510   36.1290   39.8030 H   0  0  0  0  0  0  0  0  0  0  0  0
   44.5120   36.1920   40.6760 H   0  0  0  0  0  0  0  0  0  0  0  0
   43.3260   36.4210   41.9730 H   0  0  0  0  0  0  0  0  0  0  0  0
   47.0890   34.3650   40.7460 C   0  0  0  0  0  3  0  0  0  0  0  0
   46.2260   33.3150   40.9590 C   0  0  0  0  0  0  0  0  0  0  0  0
   46.8580   32.0680   41.0270 C   0  0  0  0  0  0  0  0  0  0  0  0
   46.2370   31.1960   41.1930 H   0  0  0  0  0  0  0  0  0  0  0  0
   48.2170   31.8890   40.8940 C   0  0  0  0  0  0  0  0  0  0  0  0
   49.0150   32.9920   40.6820 C   0  0  0  0  0  0  0  0  0  0  0  0
   48.4470   34.2470   40.6070 C   0  0  0  0  0  3  0  0  0  0  0  0
   50.3310   32.5120   40.5870 O   0  0  0  0  0  0  0  0  0  0  0  0
   50.3030   31.1040   40.4070 C   0  0  0  0  0  3  0  0  0  0  0  0
   50.4020   30.9020   39.3200 H   0  0  0  0  0  0  0  0  0  0  0  0
   49.0300   30.7700   40.9260 O   0  0  0  0  0  0  0  0  0  0  0  0
   44.3520   35.5190   44.1460 C   0  0  0  0  0  0  0  0  0  0  0  0
   44.6680   34.4160   43.3410 C   0  0  0  0  0  0  0  0  0  0  0  0
   45.2290   33.3140   43.9600 C   0  0  0  0  0  0  0  0  0  0  0  0
   45.4680   33.2990   45.3000 N   0  0  0  0  0  0  0  0  0  0  0  0
   45.1460   34.3960   46.0520 C   0  0  0  0  0  0  0  0  0  0  0  0
   44.5970   35.4800   45.4650 N   0  0  0  0  0  0  0  0  0  0  0  0
   43.9160   36.4640   43.8690 H   0  0  0  0  0  0  0  0  0  0  0  0
   45.4700   32.4610   43.3550 H   0  0  0  0  0  0  0  0  0  0  0  0
   45.3440   34.3630   47.1170 H   0  0  0  0  0  0  0  0  0  0  0  0
  1 27  1  0  0  0  0
  2  7  1  1  0  0  0
  2  1  1  0  0  0  0
  3  2  1  0  0  0  0
  4 10  1  0  0  0  0
  4  3  1  0  0  0  0
  4  5  1  0  0  0  0
  5 11  1  0  0  0  0
  5  6  1  0  0  0  0
  6  1  1  0  0  0  0
  6 14  1  0  0  0  0
  8  3  1  0  0  0  0
  9  3  1  0  0  0  0
 12  5  1  0  0  0  0
 13  6  1  0  0  0  0
 15 16  1  0  0  0  0
 16 17  2  0  0  0  0
 16  2  1  0  0  0  0
 17 18  1  0  0  0  0
 19 25  1  0  0  0  0
 19 17  1  0  0  0  0
 20 19  2  0  0  0  0
 21 20  1  0  0  0  0
 21 15  2  0  0  0  0
 22 20  1  0  0  0  0
 23 22  1  0  0  0  0
 23 25  1  0  0  0  0
 24 23  1  0  0  0  0
 26 31  1  0  0  0  0
 27 28  1  0  0  0  0
 27 26  2  0  0  0  0
 28 29  2  0  0  0  0
 29 30  1  0  0  0  0
 30 34  1  0  0  0  0
 31 30  2  0  0  0  0
 32 26  1  0  0  0  0
 33 28  1  0  0  0  0
M  END
>  <minimizedAffinity>
-4.69500446

>  <minimizedRMSD>
0.651984096

$$$$
