
 OpenBabel03252508323D

 34 37  0  0  1  0  0  0  0  0999 V2000
   44.2930   34.5070   41.7810 N   0  0  0  0  0  0  0  0  0  0  0  0
   44.6020   33.4350   40.9140 C   0  0  1  0  0  0  0  0  0  0  0  0
   44.0300   33.5170   39.5470 C   0  0  0  0  0  0  0  0  0  0  0  0
   42.7800   34.1390   39.4090 N   0  0  0  0  0  0  0  0  0  0  0  0
   42.4640   35.1890   40.2890 C   0  0  0  0  0  0  0  0  0  0  0  0
   43.6550   35.6100   41.1280 C   0  0  0  0  0  0  0  0  0  0  0  0
   44.2220   32.4870   41.3890 H   0  0  0  0  0  0  0  0  0  0  0  0
   44.0150   32.5090   39.0840 H   0  0  0  0  0  0  0  0  0  0  0  0
   44.7630   34.1020   38.9160 H   0  0  0  0  0  0  0  0  0  0  0  0
   42.0320   33.3930   39.5380 H   0  0  0  0  0  0  0  0  0  0  0  0
   41.6010   35.0310   40.9610 H   0  0  0  0  0  0  0  0  0  0  0  0
   42.2070   36.0840   39.6670 H   0  0  0  0  0  0  0  0  0  0  0  0
   44.4000   36.1320   40.4590 H   0  0  0  0  0  0  0  0  0  0  0  0
   43.2660   36.4020   41.7930 H   0  0  0  0  0  0  0  0  0  0  0  0
   46.9670   34.2790   40.5690 C   0  0  0  0  0  3  0  0  0  0  0  0
   46.0830   33.2360   40.7310 C   0  0  0  0  0  0  0  0  0  0  0  0
   46.6870   31.9730   40.6960 C   0  0  0  0  0  0  0  0  0  0  0  0
   46.0480   31.1060   40.8190 H   0  0  0  0  0  0  0  0  0  0  0  0
   48.0360   31.7740   40.5150 C   0  0  0  0  0  0  0  0  0  0  0  0
   48.8550   32.8710   40.3590 C   0  0  0  0  0  0  0  0  0  0  0  0
   48.3160   34.1400   40.3850 C   0  0  0  0  0  3  0  0  0  0  0  0
   50.1580   32.3690   40.1960 O   0  0  0  0  0  0  0  0  0  0  0  0
   50.0900   30.9770   39.9200 C   0  0  0  0  0  3  0  0  0  0  0  0
   50.1570   30.8490   38.8200 H   0  0  0  0  0  0  0  0  0  0  0  0
   48.8230   30.6370   40.4490 O   0  0  0  0  0  0  0  0  0  0  0  0
   44.3600   35.5240   43.9430 C   0  0  0  0  0  0  0  0  0  0  0  0
   44.6300   34.4020   43.1480 C   0  0  0  0  0  0  0  0  0  0  0  0
   45.1970   33.3030   43.7670 C   0  0  0  0  0  0  0  0  0  0  0  0
   45.4850   33.3090   45.0970 N   0  0  0  0  0  0  0  0  0  0  0  0
   45.2080   34.4240   45.8400 C   0  0  0  0  0  0  0  0  0  0  0  0
   44.6540   35.5050   45.2530 N   0  0  0  0  0  0  0  0  0  0  0  0
   43.9280   36.4710   43.6650 H   0  0  0  0  0  0  0  0  0  0  0  0
   45.4030   32.4350   43.1690 H   0  0  0  0  0  0  0  0  0  0  0  0
   45.4450   34.4070   46.8970 H   0  0  0  0  0  0  0  0  0  0  0  0
  1 27  1  0  0  0  0
  2  7  1  1  0  0  0
  2  1  1  0  0  0  0
  3  2  1  0  0  0  0
  4 10  1  0  0  0  0
  4  3  1  0  0  0  0
  4  5  1  0  0  0  0
  5 11  1  0  0  0  0
  5  6  1  0  0  0  0
  6  1  1  0  0  0  0
  6 14  1  0  0  0  0
  8  3  1  0  0  0  0
  9  3  1  0  0  0  0
 12  5  1  0  0  0  0
 13  6  1  0  0  0  0
 15 16  1  0  0  0  0
 16  2  1  0  0  0  0
 17 16  2  0  0  0  0
 17 18  1  0  0  0  0
 19 17  1  0  0  0  0
 20 21  1  0  0  0  0
 20 19  2  0  0  0  0
 21 15  2  0  0  0  0
 22 20  1  0  0  0  0
 23 22  1  0  0  0  0
 23 25  1  0  0  0  0
 24 23  1  0  0  0  0
 25 19  1  0  0  0  0
 26 31  1  0  0  0  0
 27 28  1  0  0  0  0
 27 26  2  0  0  0  0
 28 29  2  0  0  0  0
 29 30  1  0  0  0  0
 30 34  1  0  0  0  0
 31 30  2  0  0  0  0
 32 26  1  0  0  0  0
 33 28  1  0  0  0  0
M  END
>  <minimizedAffinity>
-4.73852539

>  <minimizedRMSD>
0.490909219

$$$$
