
 OpenBabel03252508503D

 30 33  0  0  0  0  0  0  0  0999 V2000
   45.9250   34.2240   41.0430 C   0  0  0  0  0  0  0  0  0  0  0  0
   46.5210   34.8070   42.1550 C   0  0  0  0  0  0  0  0  0  0  0  0
   47.8790   35.1240   42.0350 C   0  0  0  0  0  0  0  0  0  0  0  0
   48.5220   34.8460   40.8550 N   0  0  0  0  0  0  0  0  0  0  0  0
   47.8980   34.2870   39.8270 C   0  0  0  0  0  0  0  0  0  0  0  0
   46.5970   33.9690   39.9000 N   0  0  0  0  0  0  0  0  0  0  0  0
   48.3700   35.5780   42.8830 H   0  0  0  0  0  0  0  0  0  0  0  0
   48.4130   34.0730   38.9040 H   0  0  0  0  0  0  0  0  0  0  0  0
   45.7470   35.0560   43.3530 C   0  0  0  0  0  0  0  0  0  0  0  0
   45.1000   36.2430   43.6000 C   0  0  0  0  0  0  0  0  0  0  0  0
   44.5050   36.0390   44.8280 C   0  0  0  0  0  0  0  0  0  0  0  0
   44.7760   34.7990   45.2980 N   0  0  0  0  0  0  0  0  0  0  0  0
   45.5290   34.2240   44.3880 N   0  0  0  0  0  0  0  0  0  0  0  0
   45.0210   37.1590   43.0340 H   0  0  0  0  0  0  0  0  0  0  0  0
   43.8800   36.7120   45.4320 H   0  0  0  0  0  0  0  0  0  0  0  0
   44.4980   34.3120   46.1750 H   0  0  0  0  0  0  0  0  0  0  0  0
   44.5810   33.8960   41.1190 O   0  0  0  0  0  0  0  0  0  0  0  0
   43.5260   34.6160   40.6370 C   0  0  0  0  0  0  0  0  0  0  0  0
   43.3040   35.8720   40.7990 O   0  0  0  0  0  0  0  0  0  0  0  0
   42.6330   32.9330   38.9630 C   0  0  0  0  0  3  0  0  0  0  0  0
   42.4320   34.0110   39.8180 C   0  0  0  0  0  0  0  0  0  0  0  0
   41.1310   34.4500   39.8240 C   0  0  0  0  0  0  0  0  0  0  0  0
   40.8710   35.2910   40.4610 H   0  0  0  0  0  0  0  0  0  0  0  0
   40.1200   33.9050   39.0800 C   0  0  0  0  0  0  0  0  0  0  0  0
   40.4130   32.8390   38.2600 C   0  0  0  0  0  0  0  0  0  0  0  0
   41.6800   32.3240   38.1810 C   0  0  0  0  0  3  0  0  0  0  0  0
   39.2310   32.4910   37.6330 O   0  0  0  0  0  0  0  0  0  0  0  0
   38.1710   33.3520   38.0220 C   0  0  0  0  0  3  0  0  0  0  0  0
   37.3530   32.8190   38.5500 H   0  0  0  0  0  0  0  0  0  0  0  0
   38.7730   34.2140   38.9610 O   0  0  0  0  0  0  0  0  0  0  0  0
  1 17  1  0  0  0  0
  1  2  1  0  0  0  0
  2  9  1  0  0  0  0
  3  2  2  0  0  0  0
  3  7  1  0  0  0  0
  4  3  1  0  0  0  0
  5  6  1  0  0  0  0
  5  4  2  0  0  0  0
  6  1  2  0  0  0  0
  8  5  1  0  0  0  0
  9 10  1  0  0  0  0
  9 13  2  0  0  0  0
 10 11  2  0  0  0  0
 11 12  1  0  0  0  0
 11 15  1  0  0  0  0
 12 16  1  0  0  0  0
 13 12  1  0  0  0  0
 14 10  1  0  0  0  0
 18 19  2  0  0  0  0
 18 17  1  0  0  0  0
 20 21  1  0  0  0  0
 21 22  2  0  0  0  0
 21 18  1  0  0  0  0
 22 23  1  0  0  0  0
 24 22  1  0  0  0  0
 25 24  2  0  0  0  0
 26 25  1  0  0  0  0
 26 20  2  0  0  0  0
 27 28  1  0  0  0  0
 27 25  1  0  0  0  0
 28 29  1  0  0  0  0
 28 30  1  0  0  0  0
 30 24  1  0  0  0  0
M  END
>  <minimizedAffinity>
-5.96533966

>  <minimizedRMSD>
0.919794917

$$$$
