
 OpenBabel03252508513D

 30 33  0  0  0  0  0  0  0  0999 V2000
   45.9410   34.2150   41.0370 C   0  0  0  0  0  0  0  0  0  0  0  0
   46.5300   34.8090   42.1470 C   0  0  0  0  0  0  0  0  0  0  0  0
   47.8840   35.1400   42.0260 C   0  0  0  0  0  0  0  0  0  0  0  0
   48.5310   34.8650   40.8490 N   0  0  0  0  0  0  0  0  0  0  0  0
   47.9140   34.2950   39.8220 C   0  0  0  0  0  0  0  0  0  0  0  0
   46.6170   33.9620   39.8950 N   0  0  0  0  0  0  0  0  0  0  0  0
   48.3690   35.6030   42.8730 H   0  0  0  0  0  0  0  0  0  0  0  0
   48.4330   34.0830   38.9000 H   0  0  0  0  0  0  0  0  0  0  0  0
   45.7520   35.0540   43.3430 C   0  0  0  0  0  0  0  0  0  0  0  0
   45.0960   36.2370   43.5870 C   0  0  0  0  0  0  0  0  0  0  0  0
   44.5010   36.0310   44.8140 C   0  0  0  0  0  0  0  0  0  0  0  0
   44.7790   34.7940   45.2870 N   0  0  0  0  0  0  0  0  0  0  0  0
   45.5370   34.2220   44.3790 N   0  0  0  0  0  0  0  0  0  0  0  0
   45.0120   37.1510   43.0200 H   0  0  0  0  0  0  0  0  0  0  0  0
   43.8700   36.7000   45.4160 H   0  0  0  0  0  0  0  0  0  0  0  0
   44.5020   34.3060   46.1640 H   0  0  0  0  0  0  0  0  0  0  0  0
   44.6010   33.8720   41.1130 O   0  0  0  0  0  0  0  0  0  0  0  0
   43.5380   34.5760   40.6220 C   0  0  0  0  0  0  0  0  0  0  0  0
   43.3110   35.8330   40.7590 O   0  0  0  0  0  0  0  0  0  0  0  0
   42.5850   32.7290   39.1700 C   0  0  0  0  0  3  0  0  0  0  0  0
   42.4430   33.9470   39.8240 C   0  0  0  0  0  0  0  0  0  0  0  0
   41.1970   34.4990   39.6550 C   0  0  0  0  0  0  0  0  0  0  0  0
   40.9860   35.4540   40.1290 H   0  0  0  0  0  0  0  0  0  0  0  0
   40.1850   33.9340   38.9270 C   0  0  0  0  0  0  0  0  0  0  0  0
   40.4180   32.7250   38.3130 C   0  0  0  0  0  0  0  0  0  0  0  0
   41.6270   32.0890   38.4190 C   0  0  0  0  0  3  0  0  0  0  0  0
   39.2490   32.3880   37.6560 O   0  0  0  0  0  0  0  0  0  0  0  0
   38.2610   33.3960   37.8170 C   0  0  0  0  0  3  0  0  0  0  0  0
   37.3610   33.0340   38.3540 H   0  0  0  0  0  0  0  0  0  0  0  0
   38.8880   34.3420   38.6530 O   0  0  0  0  0  0  0  0  0  0  0  0
  1 17  1  0  0  0  0
  1  2  1  0  0  0  0
  2  9  1  0  0  0  0
  3  2  2  0  0  0  0
  3  7  1  0  0  0  0
  4  3  1  0  0  0  0
  5  6  1  0  0  0  0
  5  4  2  0  0  0  0
  6  1  2  0  0  0  0
  8  5  1  0  0  0  0
  9 10  1  0  0  0  0
  9 13  2  0  0  0  0
 10 11  2  0  0  0  0
 11 12  1  0  0  0  0
 11 15  1  0  0  0  0
 12 16  1  0  0  0  0
 13 12  1  0  0  0  0
 14 10  1  0  0  0  0
 18 19  2  0  0  0  0
 18 17  1  0  0  0  0
 20 21  1  0  0  0  0
 21 18  1  0  0  0  0
 22 21  2  0  0  0  0
 22 23  1  0  0  0  0
 24 22  1  0  0  0  0
 25 26  1  0  0  0  0
 25 24  2  0  0  0  0
 26 20  2  0  0  0  0
 27 28  1  0  0  0  0
 27 25  1  0  0  0  0
 28 29  1  0  0  0  0
 28 30  1  0  0  0  0
 30 24  1  0  0  0  0
M  END
>  <minimizedAffinity>
-5.94000912

>  <minimizedRMSD>
0.849251747

$$$$
