
 OpenBabel03242520413D

 41 45  0  0  1  0  0  0  0  0999 V2000
   45.8970   33.4790   45.8360 C   0  0  0  0  0  0  0  0  0  0  0  0
   46.6930   33.6290   44.6700 C   0  0  0  0  0  0  0  0  0  0  0  0
   47.3560   32.4720   44.1620 C   0  0  0  0  0  0  0  0  0  0  0  0
   47.1990   31.2790   44.8120 N   0  0  0  0  0  0  0  0  0  0  0  0
   46.4250   31.1990   45.9230 C   0  0  0  0  0  0  0  0  0  0  0  0
   45.7870   32.2870   46.4220 N   0  0  0  0  0  0  0  0  0  0  0  0
   46.3200   29.9410   46.5260 N   0  0  0  0  0  0  0  0  0  0  0  0
   47.4790   29.2630   47.0050 C   0  0  2  0  0  0  0  0  0  0  0  0
   47.2650   27.8370   47.3760 C   0  0  0  0  0  0  0  0  0  0  0  0
   45.9810   27.4820   47.8470 N   0  0  0  0  0  0  0  0  0  0  0  0
   45.0750   28.5680   47.9790 C   0  0  0  0  0  0  0  0  0  0  0  0
   45.0240   29.3150   46.6720 C   0  0  0  0  0  0  0  0  0  0  0  0
   45.4320   34.3870   46.1560 H   0  0  0  0  0  0  0  0  0  0  0  0
   46.8640   34.5170   44.1090 H   0  0  0  0  0  0  0  0  0  0  0  0
   47.9740   32.5350   43.2760 H   0  0  0  0  0  0  0  0  0  0  0  0
   48.1820   29.2070   46.1170 H   0  0  0  0  0  0  0  0  0  0  0  0
   48.0030   27.6030   48.1970 H   0  0  0  0  0  0  0  0  0  0  0  0
   47.5300   27.1280   46.5650 H   0  0  0  0  0  0  0  0  0  0  0  0
   45.9650   26.7790   48.6160 H   0  0  0  0  0  0  0  0  0  0  0  0
   44.0500   28.1060   48.1080 H   0  0  0  0  0  0  0  0  0  0  0  0
   45.2210   29.2090   48.8480 H   0  0  0  0  0  0  0  0  0  0  0  0
   44.9490   28.5650   45.8760 H   0  0  0  0  0  0  0  0  0  0  0  0
   44.2140   30.0750   46.6310 H   0  0  0  0  0  0  0  0  0  0  0  0
   48.1830   30.0410   48.0600 C   0  0  0  0  0  0  0  0  0  0  0  0
   47.7370   30.8490   49.0770 C   0  0  0  0  0  0  0  0  0  0  0  0
   48.7470   31.3420   49.8000 N   0  0  0  0  0  0  0  0  0  0  0  0
   49.8520   30.8490   49.2490 C   0  0  0  0  0  0  0  0  0  0  0  0
   49.5170   30.0700   48.2060 N   0  0  0  0  0  0  0  0  0  0  0  0
   46.6960   31.0620   49.2650 H   0  0  0  0  0  0  0  0  0  0  0  0
   48.7170   31.9770   50.6260 H   0  0  0  0  0  0  0  0  0  0  0  0
   51.7600   30.9990   50.9000 C   0  0  0  0  0  3  0  0  0  0  0  0
   51.2620   31.0390   49.6130 C   0  0  0  0  0  0  0  0  0  0  0  0
   52.1510   31.2760   48.5840 C   0  0  0  0  0  0  0  0  0  0  0  0
   51.7980   31.3150   47.5650 H   0  0  0  0  0  0  0  0  0  0  0  0
   53.5010   31.4700   48.8050 C   0  0  0  0  0  0  0  0  0  0  0  0
   54.0060   31.4300   50.1030 C   0  0  0  0  0  0  0  0  0  0  0  0
   53.1090   31.1920   51.1250 C   0  0  0  0  0  3  0  0  0  0  0  0
   55.3920   31.6540   50.0600 O   0  0  0  0  0  0  0  0  0  0  0  0
   55.5790   32.3420   48.8160 C   0  0  0  0  0  3  0  0  0  0  0  0
   56.6130   32.1720   48.5140 H   0  0  0  0  0  0  0  0  0  0  0  0
   54.6090   31.7220   47.9920 O   0  0  0  0  0  0  0  0  0  0  0  0
  1 13  1  0  0  0  0
  1  6  1  0  0  0  0
  2  1  2  0  0  0  0
  3  2  1  0  0  0  0
  3  4  2  0  0  0  0
  4  5  1  0  0  0  0
  5  6  2  0  0  0  0
  5  7  1  0  0  0  0
  7 12  1  0  0  0  0
  7  8  1  0  0  0  0
  8 16  1  6  0  0  0
  8  9  1  0  0  0  0
  8 24  1  0  0  0  0
  9 10  1  0  0  0  0
  9 17  1  0  0  0  0
 10 11  1  0  0  0  0
 10 19  1  0  0  0  0
 11 20  1  0  0  0  0
 11 21  1  0  0  0  0
 12 11  1  0  0  0  0
 14  2  1  0  0  0  0
 15  3  1  0  0  0  0
 18  9  1  0  0  0  0
 22 12  1  0  0  0  0
 23 12  1  0  0  0  0
 24 28  1  0  0  0  0
 24 25  2  0  0  0  0
 25 29  1  0  0  0  0
 25 26  1  0  0  0  0
 26 30  1  0  0  0  0
 27 32  1  0  0  0  0
 27 26  1  0  0  0  0
 28 27  2  0  0  0  0
 31 37  1  0  0  0  0
 32 31  2  0  0  0  0
 33 35  2  0  0  0  0
 33 32  1  0  0  0  0
 34 33  1  0  0  0  0
 35 36  1  0  0  0  0
 36 37  2  0  0  0  0
 38 36  1  0  0  0  0
 39 38  1  0  0  0  0
 40 39  1  0  0  0  0
 41 35  1  0  0  0  0
 41 39  1  0  0  0  0
M  END
>  <minimizedAffinity>
-5.0447197

>  <minimizedRMSD>
0.222696513

$$$$
