
 OpenBabel03252506413D

 42 46  0  0  1  0  0  0  0  0999 V2000
   49.4350   33.3800   41.4090 N   0  0  1  0  0  0  0  0  0  0  0  0
   50.7020   33.1160   42.0480 C   0  0  0  0  0  0  0  0  0  0  0  0
   51.2980   31.8030   41.6050 C   0  0  0  0  0  0  0  0  0  0  0  0
   50.4560   30.7080   42.2070 C   0  0  0  0  0  0  0  0  0  0  0  0
   48.9900   31.0520   42.0850 C   0  0  0  0  0  0  0  0  0  0  0  0
   48.7720   32.1320   41.0760 C   0  0  2  0  0  0  0  0  0  0  0  0
   51.4140   33.9640   41.9550 H   0  0  0  0  0  0  0  0  0  0  0  0
   50.5130   33.0010   43.1450 H   0  0  0  0  0  0  0  0  0  0  0  0
   51.3590   31.7600   40.5190 H   0  0  0  0  0  0  0  0  0  0  0  0
   52.3410   31.7960   41.9880 H   0  0  0  0  0  0  0  0  0  0  0  0
   50.7420   30.4820   43.2540 H   0  0  0  0  0  0  0  0  0  0  0  0
   50.6390   29.7800   41.6430 H   0  0  0  0  0  0  0  0  0  0  0  0
   48.3760   30.1860   41.7810 H   0  0  0  0  0  0  0  0  0  0  0  0
   48.6570   31.4520   43.0580 H   0  0  0  0  0  0  0  0  0  0  0  0
   47.6710   32.3970   41.1890 H   0  0  0  0  0  0  0  0  0  0  0  0
   48.8850   32.8990   38.8640 C   0  0  0  0  0  3  0  0  0  0  0  0
   48.9300   31.7550   39.6720 C   0  0  0  0  0  0  0  0  0  0  0  0
   49.0950   30.5550   39.0520 C   0  0  0  0  0  0  0  0  0  0  0  0
   49.1140   29.7300   39.7300 H   0  0  0  0  0  0  0  0  0  0  0  0
   49.2160   30.4700   37.6820 C   0  0  0  0  0  0  0  0  0  0  0  0
   49.1790   31.5600   36.8390 C   0  0  0  0  0  0  0  0  0  0  0  0
   49.0100   32.7850   37.4730 C   0  0  0  0  0  3  0  0  0  0  0  0
   49.3260   31.1610   35.5190 O   0  0  0  0  0  0  0  0  0  0  0  0
   49.0990   29.7730   35.4960 C   0  0  0  0  0  3  0  0  0  0  0  0
   49.8640   29.3020   34.8550 H   0  0  0  0  0  0  0  0  0  0  0  0
   49.3890   29.3820   36.8360 O   0  0  0  0  0  0  0  0  0  0  0  0
   47.2840   34.7120   41.9530 C   0  0  1  0  0  0  0  0  0  0  0  0
   48.4110   35.5950   41.7330 C   0  0  0  0  0  0  0  0  0  0  0  0
   48.6920   34.2310   42.2820 C   0  0  2  0  0  0  0  0  0  0  0  0
   46.8340   34.0780   41.1560 H   0  0  0  0  0  0  0  0  0  0  0  0
   48.6600   35.7990   40.6500 H   0  0  0  0  0  0  0  0  0  0  0  0
   48.5590   36.4960   42.3410 H   0  0  0  0  0  0  0  0  0  0  0  0
   48.9190   34.2110   43.3700 H   0  0  0  0  0  0  0  0  0  0  0  0
   45.5240   36.0650   43.1640 C   0  0  0  0  0  0  0  0  0  0  0  0
   46.3460   34.9110   43.0940 C   0  0  0  0  0  0  0  0  0  0  0  0
   46.2470   33.9880   44.1160 C   0  0  0  0  0  0  0  0  0  0  0  0
   45.3640   34.2510   45.1220 N   0  0  0  0  0  0  0  0  0  0  0  0
   44.5940   35.3530   45.1660 C   0  0  0  0  0  0  0  0  0  0  0  0
   44.6660   36.2760   44.1850 N   0  0  0  0  0  0  0  0  0  0  0  0
   45.5750   36.8130   42.3800 H   0  0  0  0  0  0  0  0  0  0  0  0
   46.8420   33.0930   44.1210 H   0  0  0  0  0  0  0  0  0  0  0  0
   43.9430   35.4090   46.0400 H   0  0  0  0  0  0  0  0  0  0  0  0
  1  2  1  1  0  0  0
  1 29  1  0  0  0  0
  2  8  1  0  0  0  0
  3 10  1  0  0  0  0
  3  2  1  0  0  0  0
  3  4  1  0  0  0  0
  4 11  1  0  0  0  0
  5  4  1  0  0  0  0
  5 14  1  0  0  0  0
  6 15  1  1  0  0  0
  6  1  1  0  0  0  0
  6  5  1  0  0  0  0
  7  2  1  0  0  0  0
  9  3  1  0  0  0  0
 12  4  1  0  0  0  0
 13  5  1  0  0  0  0
 16 17  1  0  0  0  0
 17  6  1  0  0  0  0
 18 17  2  0  0  0  0
 18 19  1  0  0  0  0
 20 18  1  0  0  0  0
 21 22  1  0  0  0  0
 21 20  2  0  0  0  0
 22 16  2  0  0  0  0
 23 21  1  0  0  0  0
 24 23  1  0  0  0  0
 24 26  1  0  0  0  0
 25 24  1  0  0  0  0
 26 20  1  0  0  0  0
 27 30  1  6  0  0  0
 27 29  1  0  0  0  0
 27 35  1  0  0  0  0
 28 27  1  0  0  0  0
 28 29  1  0  0  0  0
 28 32  1  0  0  0  0
 29 33  1  1  0  0  0
 31 28  1  0  0  0  0
 34 39  1  0  0  0  0
 35 34  2  0  0  0  0
 35 36  1  0  0  0  0
 36 41  1  0  0  0  0
 36 37  2  0  0  0  0
 37 38  1  0  0  0  0
 38 42  1  0  0  0  0
 39 38  2  0  0  0  0
 40 34  1  0  0  0  0
M  END
>  <minimizedAffinity>
-5.22554159

>  <minimizedRMSD>
0.716573238

$$$$
