
 OpenBabel03242510223D

 40 44  0  0  1  0  0  0  0  0999 V2000
   48.0600   33.2280   43.1620 N   0  0  0  0  0  0  0  0  0  0  0  0
   49.2040   33.2630   42.3750 C   0  0  0  0  0  0  0  0  0  0  0  0
   50.3700   32.8410   42.5950 O   0  0  0  0  0  0  0  0  0  0  0  0
   47.5270   34.1230   43.1130 H   0  0  0  0  0  0  0  0  0  0  0  0
   46.3150   32.1040   44.4970 C   0  0  1  0  0  0  0  0  0  0  0  0
   46.4530   31.3470   43.3290 C   0  0  0  0  0  0  0  0  0  0  0  0
   47.6820   32.0980   43.9330 C   0  0  1  0  0  0  0  0  0  0  0  0
   46.1630   31.6560   45.5090 H   0  0  0  0  0  0  0  0  0  0  0  0
   46.1750   31.6160   42.2960 H   0  0  0  0  0  0  0  0  0  0  0  0
   46.4970   30.2180   43.4250 H   0  0  0  0  0  0  0  0  0  0  0  0
   48.4450   31.3890   44.3130 H   0  0  0  0  0  0  0  0  0  0  0  0
   45.0760   33.9650   43.1610 C   0  0  0  0  0  0  0  0  0  0  0  0
   45.5600   33.4420   44.4020 C   0  0  0  0  0  0  0  0  0  0  0  0
   45.3480   34.1960   45.5370 C   0  0  0  0  0  0  0  0  0  0  0  0
   44.7030   35.3770   45.4300 N   0  0  0  0  0  0  0  0  0  0  0  0
   44.2500   35.8620   44.2450 C   0  0  0  0  0  0  0  0  0  0  0  0
   44.4490   35.1210   43.0760 N   0  0  0  0  0  0  0  0  0  0  0  0
   45.2240   33.3690   42.2820 H   0  0  0  0  0  0  0  0  0  0  0  0
   45.7020   33.8280   46.4960 H   0  0  0  0  0  0  0  0  0  0  0  0
   43.7420   36.8150   44.2230 H   0  0  0  0  0  0  0  0  0  0  0  0
   49.1330   33.8940   40.9930 C   0  0  2  0  0  0  0  0  0  0  0  0
   48.6360   35.3870   40.9410 C   0  0  0  0  0  0  0  0  0  0  0  0
   47.8490   34.2420   40.3760 C   0  0  1  0  0  0  0  0  0  0  0  0
   50.0220   33.7880   40.3400 H   0  0  0  0  0  0  0  0  0  0  0  0
   48.3310   35.7530   41.9430 H   0  0  0  0  0  0  0  0  0  0  0  0
   49.0980   36.0530   40.2170 H   0  0  0  0  0  0  0  0  0  0  0  0
   46.9910   33.7610   40.8940 H   0  0  0  0  0  0  0  0  0  0  0  0
   47.7510   34.1440   38.8730 C   0  0  0  0  0  0  0  0  0  0  0  0
   48.5960   34.7000   38.1770 O   0  0  0  0  0  0  0  0  0  0  0  0
   46.6770   32.9730   36.9090 C   0  0  0  0  0  3  0  0  0  0  0  0
   46.6780   33.4040   38.2190 C   0  0  0  0  0  0  0  0  0  0  0  0
   45.5370   33.0780   38.9200 C   0  0  0  0  0  0  0  0  0  0  0  0
   45.3950   33.3530   39.9610 H   0  0  0  0  0  0  0  0  0  0  0  0
   44.4750   32.3810   38.3800 C   0  0  0  0  0  0  0  0  0  0  0  0
   44.5210   31.9710   37.0660 C   0  0  0  0  0  0  0  0  0  0  0  0
   45.6380   32.2740   36.3320 C   0  0  0  0  0  3  0  0  0  0  0  0
   43.3310   31.2970   36.7890 O   0  0  0  0  0  0  0  0  0  0  0  0
   42.3600   31.7270   37.7540 C   0  0  0  0  0  3  0  0  0  0  0  0
   41.9860   32.7580   37.5160 H   0  0  0  0  0  0  0  0  0  0  0  0
   43.2400   31.9380   38.8670 O   0  0  0  0  0  0  0  0  0  0  0  0
  1  7  1  0  0  0  0
  2  3  2  0  0  0  0
  2  1  1  0  0  0  0
  4  1  1  0  0  0  0
  5  8  1  1  0  0  0
  6 10  1  0  0  0  0
  6  7  1  0  0  0  0
  6  5  1  0  0  0  0
  7 11  1  1  0  0  0
  7  5  1  0  0  0  0
  9  6  1  0  0  0  0
 12 13  1  0  0  0  0
 13  5  1  0  0  0  0
 13 14  2  0  0  0  0
 14 19  1  0  0  0  0
 15 14  1  0  0  0  0
 16 15  2  0  0  0  0
 17 12  2  0  0  0  0
 17 16  1  0  0  0  0
 18 12  1  0  0  0  0
 20 16  1  0  0  0  0
 21 24  1  6  0  0  0
 21  2  1  0  0  0  0
 22 21  1  0  0  0  0
 22 25  1  0  0  0  0
 23 27  1  1  0  0  0
 23 22  1  0  0  0  0
 23 21  1  0  0  0  0
 26 22  1  0  0  0  0
 28 23  1  0  0  0  0
 29 28  2  0  0  0  0
 30 31  1  0  0  0  0
 31 28  1  0  0  0  0
 31 32  2  0  0  0  0
 32 33  1  0  0  0  0
 34 40  1  0  0  0  0
 34 32  1  0  0  0  0
 35 34  2  0  0  0  0
 36 30  2  0  0  0  0
 36 35  1  0  0  0  0
 37 35  1  0  0  0  0
 37 38  1  0  0  0  0
 38 40  1  0  0  0  0
 39 38  1  0  0  0  0
M  END
>  <minimizedAffinity>
-5.21114731

>  <minimizedRMSD>
0.637260854

$$$$
