
 OpenBabel03242523373D

 21 23  0  0  0  0  0  0  0  0999 V2000
   46.0150   31.2750   45.3320 C   0  0  0  0  0  3  0  0  0  0  0  0
   46.1570   32.5760   45.7470 C   0  0  0  0  0  0  0  0  0  0  0  0
   46.8490   32.9470   46.9060 C   0  0  0  0  0  0  0  0  0  0  0  0
   46.9510   33.9580   47.2150 H   0  0  0  0  0  0  0  0  0  0  0  0
   47.3870   31.8750   47.6120 C   0  0  0  0  0  0  0  0  0  0  0  0
   47.2860   30.5450   47.2600 C   0  0  0  0  0  0  0  0  0  0  0  0
   46.5790   30.2940   46.0930 C   0  0  0  0  0  3  0  0  0  0  0  0
   47.9600   29.8250   48.2340 O   0  0  0  0  0  0  0  0  0  0  0  0
   48.3110   30.6870   49.2850 C   0  0  0  0  0  3  0  0  0  0  0  0
   49.3730   30.5400   49.5790 H   0  0  0  0  0  0  0  0  0  0  0  0
   48.1240   31.9890   48.8070 O   0  0  0  0  0  0  0  0  0  0  0  0
   44.5120   35.7400   44.8350 C   0  0  0  0  0  0  0  0  0  0  0  0
   44.4550   35.6570   43.4220 C   0  0  0  0  0  0  0  0  0  0  0  0
   44.9900   34.4990   42.8140 C   0  0  0  0  0  0  0  0  0  0  0  0
   45.5230   33.5440   43.6060 N   0  0  0  0  0  0  0  0  0  0  0  0
   45.5580   33.6630   44.9460 C   0  0  0  0  0  0  0  0  0  0  0  0
   45.0610   34.7440   45.5510 N   0  0  0  0  0  0  0  0  0  0  0  0
   44.0840   36.6490   45.1980 H   0  0  0  0  0  0  0  0  0  0  0  0
   44.0260   36.4290   42.8070 H   0  0  0  0  0  0  0  0  0  0  0  0
   44.9470   34.3340   41.0460 S   0  0  0  0  0  0  0  0  0  0  0  0
   45.2470   32.9750   40.7390 H   0  0  0  0  0  0  0  0  0  0  0  0
  1  2  2  0  0  0  0
  1  7  1  0  0  0  0
  2  3  1  0  0  0  0
  3  4  1  0  0  0  0
  3  5  2  0  0  0  0
  5 11  1  0  0  0  0
  6  5  1  0  0  0  0
  6  8  1  0  0  0  0
  7  6  2  0  0  0  0
  8  9  1  0  0  0  0
  9 10  1  0  0  0  0
 11  9  1  0  0  0  0
 12 18  1  0  0  0  0
 12 17  1  0  0  0  0
 13 12  2  0  0  0  0
 14 13  1  0  0  0  0
 14 15  2  0  0  0  0
 15 16  1  0  0  0  0
 16 17  2  0  0  0  0
 16  2  1  0  0  0  0
 19 13  1  0  0  0  0
 20 14  1  0  0  0  0
 21 20  1  0  0  0  0
M  END
>  <minimizedAffinity>
-4.74257946

>  <minimizedRMSD>
1.49255073

$$$$
