
 OpenBabel03242520413D

 41 45  0  0  1  0  0  0  0  0999 V2000
   45.8790   33.5370   45.7880 C   0  0  0  0  0  0  0  0  0  0  0  0
   46.6550   33.6590   44.6050 C   0  0  0  0  0  0  0  0  0  0  0  0
   47.2900   32.4860   44.1000 C   0  0  0  0  0  0  0  0  0  0  0  0
   47.1250   31.3030   44.7680 N   0  0  0  0  0  0  0  0  0  0  0  0
   46.3710   31.2510   45.8940 C   0  0  0  0  0  0  0  0  0  0  0  0
   45.7600   32.3550   46.3900 N   0  0  0  0  0  0  0  0  0  0  0  0
   46.2560   30.0020   46.5160 N   0  0  0  0  0  0  0  0  0  0  0  0
   47.4120   29.3110   46.9820 C   0  0  2  0  0  0  0  0  0  0  0  0
   47.1820   27.8940   47.3750 C   0  0  0  0  0  0  0  0  0  0  0  0
   45.9020   27.5660   47.8740 N   0  0  0  0  0  0  0  0  0  0  0  0
   45.0160   28.6690   48.0080 C   0  0  0  0  0  0  0  0  0  0  0  0
   44.9530   29.4000   46.6920 C   0  0  0  0  0  0  0  0  0  0  0  0
   45.4350   34.4570   46.1040 H   0  0  0  0  0  0  0  0  0  0  0  0
   46.8310   34.5380   44.0290 H   0  0  0  0  0  0  0  0  0  0  0  0
   47.8920   32.5270   43.2030 H   0  0  0  0  0  0  0  0  0  0  0  0
   48.0980   29.2320   46.0810 H   0  0  0  0  0  0  0  0  0  0  0  0
   47.9310   27.6580   48.1850 H   0  0  0  0  0  0  0  0  0  0  0  0
   47.4200   27.1700   46.5680 H   0  0  0  0  0  0  0  0  0  0  0  0
   45.8880   26.8730   48.6520 H   0  0  0  0  0  0  0  0  0  0  0  0
   43.9850   28.2260   48.1620 H   0  0  0  0  0  0  0  0  0  0  0  0
   45.1890   29.3180   48.8660 H   0  0  0  0  0  0  0  0  0  0  0  0
   44.8510   28.6410   45.9080 H   0  0  0  0  0  0  0  0  0  0  0  0
   44.1550   30.1730   46.6570 H   0  0  0  0  0  0  0  0  0  0  0  0
   48.1480   30.0900   48.0130 C   0  0  0  0  0  0  0  0  0  0  0  0
   47.7340   30.8610   49.0710 C   0  0  0  0  0  0  0  0  0  0  0  0
   48.7660   31.3730   49.7490 N   0  0  0  0  0  0  0  0  0  0  0  0
   49.8540   30.9300   49.1260 C   0  0  0  0  0  0  0  0  0  0  0  0
   49.4880   30.1620   48.0860 N   0  0  0  0  0  0  0  0  0  0  0  0
   46.6980   31.0340   49.3220 H   0  0  0  0  0  0  0  0  0  0  0  0
   48.7620   31.9890   50.5890 H   0  0  0  0  0  0  0  0  0  0  0  0
   51.8260   32.3800   49.7550 C   0  0  0  0  0  3  0  0  0  0  0  0
   51.2760   31.1600   49.4160 C   0  0  0  0  0  0  0  0  0  0  0  0
   52.1180   30.0700   49.3400 C   0  0  0  0  0  0  0  0  0  0  0  0
   51.7230   29.1000   49.0780 H   0  0  0  0  0  0  0  0  0  0  0  0
   53.4740   30.1660   49.5910 C   0  0  0  0  0  0  0  0  0  0  0  0
   54.0320   31.3960   49.9340 C   0  0  0  0  0  0  0  0  0  0  0  0
   53.1810   32.4800   50.0060 C   0  0  0  0  0  3  0  0  0  0  0  0
   55.4120   31.2290   50.1360 O   0  0  0  0  0  0  0  0  0  0  0  0
   55.7160   30.0380   49.3970 C   0  0  0  0  0  3  0  0  0  0  0  0
   56.6200   29.6170   49.8350 H   0  0  0  0  0  0  0  0  0  0  0  0
   54.5440   29.2680   49.5940 O   0  0  0  0  0  0  0  0  0  0  0  0
  1 13  1  0  0  0  0
  1  6  1  0  0  0  0
  2  1  2  0  0  0  0
  3  2  1  0  0  0  0
  3  4  2  0  0  0  0
  4  5  1  0  0  0  0
  5  6  2  0  0  0  0
  5  7  1  0  0  0  0
  7 12  1  0  0  0  0
  7  8  1  0  0  0  0
  8 16  1  6  0  0  0
  8  9  1  0  0  0  0
  8 24  1  0  0  0  0
  9 10  1  0  0  0  0
  9 17  1  0  0  0  0
 10 11  1  0  0  0  0
 10 19  1  0  0  0  0
 11 20  1  0  0  0  0
 11 21  1  0  0  0  0
 12 11  1  0  0  0  0
 14  2  1  0  0  0  0
 15  3  1  0  0  0  0
 18  9  1  0  0  0  0
 22 12  1  0  0  0  0
 23 12  1  0  0  0  0
 24 28  1  0  0  0  0
 24 25  2  0  0  0  0
 25 29  1  0  0  0  0
 25 26  1  0  0  0  0
 26 30  1  0  0  0  0
 27 32  1  0  0  0  0
 27 26  1  0  0  0  0
 28 27  2  0  0  0  0
 31 37  1  0  0  0  0
 32 31  2  0  0  0  0
 33 32  1  0  0  0  0
 33 35  2  0  0  0  0
 34 33  1  0  0  0  0
 35 41  1  0  0  0  0
 35 36  1  0  0  0  0
 36 37  2  0  0  0  0
 36 38  1  0  0  0  0
 39 41  1  0  0  0  0
 39 40  1  0  0  0  0
 39 38  1  0  0  0  0
M  END
>  <minimizedAffinity>
-5.22839069

>  <minimizedRMSD>
0.210043833

$$$$
