
 OpenBabel03252508513D

 30 33  0  0  0  0  0  0  0  0999 V2000
   46.0480   34.6910   41.6940 C   0  0  0  0  0  0  0  0  0  0  0  0
   45.3070   33.9000   40.8230 C   0  0  0  0  0  0  0  0  0  0  0  0
   43.9220   34.0990   40.8330 C   0  0  0  0  0  0  0  0  0  0  0  0
   43.3930   35.0380   41.6800 N   0  0  0  0  0  0  0  0  0  0  0  0
   44.1530   35.7640   42.4910 C   0  0  0  0  0  0  0  0  0  0  0  0
   45.4840   35.6060   42.5130 N   0  0  0  0  0  0  0  0  0  0  0  0
   43.3200   33.4980   40.1660 H   0  0  0  0  0  0  0  0  0  0  0  0
   43.7260   36.5000   43.1530 H   0  0  0  0  0  0  0  0  0  0  0  0
   45.9690   32.9360   39.9700 C   0  0  0  0  0  0  0  0  0  0  0  0
   46.3070   33.1920   38.6630 C   0  0  0  0  0  0  0  0  0  0  0  0
   46.9030   32.0190   38.2460 C   0  0  0  0  0  0  0  0  0  0  0  0
   46.9250   31.1050   39.2440 N   0  0  0  0  0  0  0  0  0  0  0  0
   46.3550   31.6830   40.2760 N   0  0  0  0  0  0  0  0  0  0  0  0
   46.1780   34.0600   38.0360 H   0  0  0  0  0  0  0  0  0  0  0  0
   47.3330   31.7520   37.2710 H   0  0  0  0  0  0  0  0  0  0  0  0
   47.2900   30.1310   39.2860 H   0  0  0  0  0  0  0  0  0  0  0  0
   47.4230   34.5270   41.7160 O   0  0  0  0  0  0  0  0  0  0  0  0
   48.1810   34.0420   42.7440 C   0  0  0  0  0  0  0  0  0  0  0  0
   49.3990   34.3470   43.0210 O   0  0  0  0  0  0  0  0  0  0  0  0
   47.8750   31.6730   43.5950 C   0  0  0  0  0  3  0  0  0  0  0  0
   47.6720   33.0430   43.7310 C   0  0  0  0  0  0  0  0  0  0  0  0
   46.9600   33.3670   44.8600 C   0  0  0  0  0  0  0  0  0  0  0  0
   46.7490   34.4140   45.0560 H   0  0  0  0  0  0  0  0  0  0  0  0
   46.4870   32.4600   45.7700 C   0  0  0  0  0  0  0  0  0  0  0  0
   46.7360   31.1240   45.5540 C   0  0  0  0  0  0  0  0  0  0  0  0
   47.4380   30.6960   44.4580 C   0  0  0  0  0  3  0  0  0  0  0  0
   46.1570   30.4420   46.6070 O   0  0  0  0  0  0  0  0  0  0  0  0
   45.5040   31.3340   47.4990 C   0  0  0  0  0  3  0  0  0  0  0  0
   45.9440   31.3290   48.5160 H   0  0  0  0  0  0  0  0  0  0  0  0
   45.7630   32.6050   46.9450 O   0  0  0  0  0  0  0  0  0  0  0  0
  1 17  1  0  0  0  0
  1  6  1  0  0  0  0
  2  3  1  0  0  0  0
  2  1  2  0  0  0  0
  3  4  2  0  0  0  0
  4  5  1  0  0  0  0
  5  6  2  0  0  0  0
  5  8  1  0  0  0  0
  7  3  1  0  0  0  0
  9 13  2  0  0  0  0
  9  2  1  0  0  0  0
 10  9  1  0  0  0  0
 11 10  2  0  0  0  0
 11 12  1  0  0  0  0
 12 16  1  0  0  0  0
 12 13  1  0  0  0  0
 14 10  1  0  0  0  0
 15 11  1  0  0  0  0
 17 18  1  0  0  0  0
 18 19  2  0  0  0  0
 18 21  1  0  0  0  0
 20 21  2  0  0  0  0
 20 26  1  0  0  0  0
 21 22  1  0  0  0  0
 22 23  1  0  0  0  0
 22 24  2  0  0  0  0
 24 30  1  0  0  0  0
 25 24  1  0  0  0  0
 25 27  1  0  0  0  0
 26 25  2  0  0  0  0
 27 28  1  0  0  0  0
 28 29  1  0  0  0  0
 30 28  1  0  0  0  0
M  END
>  <minimizedAffinity>
-4.43227243

>  <minimizedRMSD>
7.14382505

$$$$
