
 OpenBabel03252500323D

 45 49  0  0  1  0  0  0  0  0999 V2000
   45.8910   31.5980   47.0510 N   0  0  0  0  0  0  0  0  0  0  0  0
   46.4190   32.4890   48.0290 C   0  0  0  0  0  0  0  0  0  0  0  0
   47.8680   32.1560   48.3570 C   0  0  0  0  0  0  0  0  0  0  0  0
   47.8490   30.7970   49.0220 C   0  0  0  0  0  0  0  0  0  0  0  0
   47.3260   29.8300   47.9660 C   0  0  0  0  0  0  0  0  0  0  0  0
   45.9740   30.2700   47.4280 C   0  0  2  0  0  0  0  0  0  0  0  0
   45.8670   32.1790   48.9730 H   0  0  0  0  0  0  0  0  0  0  0  0
   46.1820   33.5360   47.9570 H   0  0  0  0  0  0  0  0  0  0  0  0
   48.4390   32.0830   47.4120 H   0  0  0  0  0  0  0  0  0  0  0  0
   48.2690   32.9460   49.0260 H   0  0  0  0  0  0  0  0  0  0  0  0
   48.8870   30.5090   49.2420 H   0  0  0  0  0  0  0  0  0  0  0  0
   47.1930   30.8030   49.9040 H   0  0  0  0  0  0  0  0  0  0  0  0
   48.0740   29.7250   47.1700 H   0  0  0  0  0  0  0  0  0  0  0  0
   47.2160   28.8530   48.4770 H   0  0  0  0  0  0  0  0  0  0  0  0
   45.3520   30.2220   48.3900 H   0  0  0  0  0  0  0  0  0  0  0  0
   44.1420   28.8560   46.3340 C   0  0  0  0  0  3  0  0  0  0  0  0
   45.4480   29.2100   46.5860 C   0  0  0  0  0  0  0  0  0  0  0  0
   46.3120   28.3490   45.8860 C   0  0  0  0  0  0  0  0  0  0  0  0
   47.4030   28.4900   45.9740 H   0  0  0  0  0  0  0  0  0  0  0  0
   45.9520   27.3150   45.0770 C   0  0  0  0  0  0  0  0  0  0  0  0
   44.6250   27.0520   44.8990 C   0  0  0  0  0  0  0  0  0  0  0  0
   43.6890   27.8320   45.5360 C   0  0  0  0  0  3  0  0  0  0  0  0
   44.4950   25.9740   44.0510 O   0  0  0  0  0  0  0  0  0  0  0  0
   45.7310   25.7870   43.3800 C   0  0  0  0  0  3  0  0  0  0  0  0
   45.7820   26.2690   42.3950 H   0  0  0  0  0  0  0  0  0  0  0  0
   46.6410   26.3770   44.3210 O   0  0  0  0  0  0  0  0  0  0  0  0
   45.9770   32.0340   45.7110 C   0  0  0  0  0  0  0  0  0  0  0  0
   46.8890   31.5810   45.2150 H   0  0  0  0  0  0  0  0  0  0  0  0
   45.1200   31.7600   45.0720 H   0  0  0  0  0  0  0  0  0  0  0  0
   46.0990   34.2780   44.3860 C   0  0  1  0  0  0  0  0  0  0  0  0
   45.0950   34.4250   45.3740 C   0  0  0  0  0  0  0  0  0  0  0  0
   46.2040   33.5040   45.7170 C   0  0  1  0  0  0  0  0  0  0  0  0
   46.8570   35.0920   44.2330 H   0  0  0  0  0  0  0  0  0  0  0  0
   44.1040   33.9290   45.2130 H   0  0  0  0  0  0  0  0  0  0  0  0
   44.9440   35.3860   45.9280 H   0  0  0  0  0  0  0  0  0  0  0  0
   47.1120   33.8170   46.2530 H   0  0  0  0  0  0  0  0  0  0  0  0
   44.6650   33.2350   42.6370 C   0  0  0  0  0  0  0  0  0  0  0  0
   45.9740   33.4700   43.1460 C   0  0  0  0  0  0  0  0  0  0  0  0
   47.0380   32.9380   42.4650 C   0  0  0  0  0  0  0  0  0  0  0  0
   46.7710   32.2110   41.3350 N   0  0  0  0  0  0  0  0  0  0  0  0
   45.5270   32.0010   40.8680 C   0  0  0  0  0  0  0  0  0  0  0  0
   44.4370   32.5140   41.5160 N   0  0  0  0  0  0  0  0  0  0  0  0
   43.8270   33.6480   43.1630 H   0  0  0  0  0  0  0  0  0  0  0  0
   48.0160   33.1130   42.8460 H   0  0  0  0  0  0  0  0  0  0  0  0
   45.3750   31.4150   39.9640 H   0  0  0  0  0  0  0  0  0  0  0  0
  1  6  1  0  0  0  0
  1  2  1  0  0  0  0
  2  3  1  0  0  0  0
  2  7  1  0  0  0  0
  3  4  1  0  0  0  0
  3 10  1  0  0  0  0
  4 11  1  0  0  0  0
  4 12  1  0  0  0  0
  5 14  1  0  0  0  0
  5  4  1  0  0  0  0
  6  5  1  0  0  0  0
  6 15  1  1  0  0  0
  8  2  1  0  0  0  0
  9  3  1  0  0  0  0
 13  5  1  0  0  0  0
 16 17  1  0  0  0  0
 17  6  1  0  0  0  0
 18 19  1  0  0  0  0
 18 17  2  0  0  0  0
 20 18  1  0  0  0  0
 21 20  2  0  0  0  0
 21 22  1  0  0  0  0
 22 16  2  0  0  0  0
 23 21  1  0  0  0  0
 24 23  1  0  0  0  0
 24 26  1  0  0  0  0
 25 24  1  0  0  0  0
 26 20  1  0  0  0  0
 27 32  1  0  0  0  0
 27  1  1  0  0  0  0
 28 27  1  0  0  0  0
 29 27  1  0  0  0  0
 30 33  1  6  0  0  0
 30 31  1  0  0  0  0
 30 32  1  0  0  0  0
 31 32  1  0  0  0  0
 31 35  1  0  0  0  0
 32 36  1  1  0  0  0
 34 31  1  0  0  0  0
 37 38  1  0  0  0  0
 37 43  1  0  0  0  0
 38 30  1  0  0  0  0
 39 44  1  0  0  0  0
 39 38  2  0  0  0  0
 40 39  1  0  0  0  0
 41 40  2  0  0  0  0
 41 42  1  0  0  0  0
 42 37  2  0  0  0  0
 45 41  1  0  0  0  0
M  END
>  <minimizedAffinity>
-4.23276854

>  <minimizedRMSD>
0.796426713

$$$$
