
 OpenBabel03242513073D

 43 48  0  0  0  0  0  0  0  0999 V2000
   46.0170   33.1590   41.7450 C   0  0  0  0  0  0  0  0  0  0  0  0
   47.1690   33.8700   41.3900 C   0  0  0  0  0  0  0  0  0  0  0  0
   48.1590   33.9660   42.3450 C   0  0  0  0  0  0  0  0  0  0  0  0
   47.9440   33.3660   43.5520 N   0  0  0  0  0  0  0  0  0  0  0  0
   46.8480   32.6960   43.8760 C   0  0  0  0  0  0  0  0  0  0  0  0
   45.8660   32.5860   42.9650 N   0  0  0  0  0  0  0  0  0  0  0  0
   45.2160   33.0620   41.0210 H   0  0  0  0  0  0  0  0  0  0  0  0
   47.1500   30.8130   45.4220 C   0  0  0  0  0  0  0  0  0  0  0  0
   46.7110   32.0930   45.1850 C   0  0  0  0  0  0  0  0  0  0  0  0
   46.1160   32.8810   46.1790 C   0  0  0  0  0  0  0  0  0  0  0  0
   45.9460   32.3810   47.4630 C   0  0  0  0  0  0  0  0  0  0  0  0
   45.4330   32.8280   48.6360 N   0  0  0  0  0  0  0  0  0  0  0  0
   45.5600   31.8370   49.5610 C   0  0  0  0  0  0  0  0  0  0  0  0
   46.1510   30.7880   48.9440 N   0  0  0  0  0  0  0  0  0  0  0  0
   46.3990   31.0930   47.6600 C   0  0  0  0  0  0  0  0  0  0  0  0
   46.9910   30.2870   46.7040 C   0  0  0  0  0  0  0  0  0  0  0  0
   47.6090   30.2020   44.6600 H   0  0  0  0  0  0  0  0  0  0  0  0
   45.7680   33.9010   45.9850 H   0  0  0  0  0  0  0  0  0  0  0  0
   45.0280   33.7970   48.7150 H   0  0  0  0  0  0  0  0  0  0  0  0
   45.2150   31.9670   50.5890 H   0  0  0  0  0  0  0  0  0  0  0  0
   47.3190   29.2840   46.9440 H   0  0  0  0  0  0  0  0  0  0  0  0
   49.4050   34.7030   42.0340 C   0  0  0  0  0  0  0  0  0  0  0  0
   49.1460   35.7520   41.1400 F   0  0  0  0  0  0  0  0  0  0  0  0
   49.9150   35.2880   43.1680 F   0  0  0  0  0  0  0  0  0  0  0  0
   50.2980   33.8260   41.4660 F   0  0  0  0  0  0  0  0  0  0  0  0
   47.2540   34.4170   40.1520 O   0  0  0  0  0  0  0  0  0  0  0  0
   47.0650   33.6890   39.0030 C   0  0  0  0  0  0  0  0  0  0  0  0
   48.3610   33.4370   38.5690 C   0  0  0  0  0  0  0  0  0  0  0  0
   48.0970   32.4570   37.0240 S   0  0  0  0  0  0  0  0  0  0  0  0
   46.2420   32.5690   37.2490 C   0  0  0  0  0  0  0  0  0  0  0  0
   46.2150   33.1570   38.1820 N   0  0  0  0  0  0  0  0  0  0  0  0
   49.5050   33.5730   38.7550 H   0  0  0  0  0  0  0  0  0  0  0  0
   45.7220   31.8350   34.9300 C   0  0  0  0  0  0  0  0  0  0  0  0
   45.3740   31.9160   36.2400 C   0  0  0  0  0  0  0  0  0  0  0  0
   44.2200   31.4320   36.8090 C   0  0  0  0  0  0  0  0  0  0  0  0
   43.9550   31.5030   37.8540 H   0  0  0  0  0  0  0  0  0  0  0  0
   43.3090   30.7900   35.9620 C   0  0  0  0  0  0  0  0  0  0  0  0
   43.6550   30.7000   34.6180 C   0  0  0  0  0  0  0  0  0  0  0  0
   44.8380   31.2040   34.0690 C   0  0  0  0  0  0  0  0  0  0  0  0
   42.5960   30.0250   33.9840 O   0  0  0  0  0  0  0  0  0  0  0  0
   41.8400   29.3240   34.9750 C   0  0  0  0  0  0  0  0  0  0  0  0
   40.7810   29.2640   34.7210 H   0  0  0  0  0  0  0  0  0  0  0  0
   42.0570   30.1710   36.1140 O   0  0  0  0  0  0  0  0  0  0  0  0
  1  6  1  0  0  0  0
  2  1  2  0  0  0  0
  2  3  1  0  0  0  0
  3  4  2  0  0  0  0
  4  5  1  0  0  0  0
  5  9  1  0  0  0  0
  6  5  2  0  0  0  0
  7  1  1  0  0  0  0
  8 16  1  0  0  0  0
  9  8  2  0  0  0  0
  9 10  1  0  0  0  0
 10 11  2  0  0  0  0
 11 15  1  0  0  0  0
 11 12  1  0  0  0  0
 12 19  1  0  0  0  0
 12 13  1  0  0  0  0
 13 20  1  0  0  0  0
 14 13  2  0  0  0  0
 15 14  1  0  0  0  0
 16 21  1  0  0  0  0
 16 15  2  0  0  0  0
 17  8  1  0  0  0  0
 18 10  1  0  0  0  0
 22  3  1  0  0  0  0
 22 24  1  0  0  0  0
 23 22  1  0  0  0  0
 25 22  1  0  0  0  0
 26  2  1  0  0  0  0
 27 26  1  0  0  0  0
 28 32  1  0  0  0  0
 28 27  2  0  0  0  0
 29 30  1  0  0  0  0
 29 28  1  0  0  0  0
 30 31  2  0  0  0  0
 31 27  1  0  0  0  0
 33 34  1  0  0  0  0
 34 35  2  0  0  0  0
 34 30  1  0  0  0  0
 35 36  1  0  0  0  0
 37 43  1  0  0  0  0
 37 35  1  0  0  0  0
 38 37  2  0  0  0  0
 39 38  1  0  0  0  0
 39 33  2  0  0  0  0
 40 38  1  0  0  0  0
 40 41  1  0  0  0  0
 41 43  1  0  0  0  0
 42 41  1  0  0  0  0
M  END
>  <minimizedAffinity>
-6.95595074

>  <minimizedRMSD>
2.0900898

$$$$
