
 OpenBabel03242520413D

 41 45  0  0  1  0  0  0  0  0999 V2000
   45.9030   33.4950   45.8270 C   0  0  0  0  0  0  0  0  0  0  0  0
   46.6890   33.6360   44.6530 C   0  0  0  0  0  0  0  0  0  0  0  0
   47.3420   32.4740   44.1440 C   0  0  0  0  0  0  0  0  0  0  0  0
   47.1860   31.2850   44.8010 N   0  0  0  0  0  0  0  0  0  0  0  0
   46.4210   31.2140   45.9190 C   0  0  0  0  0  0  0  0  0  0  0  0
   45.7930   32.3060   46.4190 N   0  0  0  0  0  0  0  0  0  0  0  0
   46.3160   29.9590   46.5300 N   0  0  0  0  0  0  0  0  0  0  0  0
   47.4760   29.2770   47.0010 C   0  0  2  0  0  0  0  0  0  0  0  0
   47.2600   27.8550   47.3800 C   0  0  0  0  0  0  0  0  0  0  0  0
   45.9780   27.5070   47.8650 N   0  0  0  0  0  0  0  0  0  0  0  0
   45.0790   28.5980   48.0000 C   0  0  0  0  0  0  0  0  0  0  0  0
   45.0190   29.3400   46.6900 C   0  0  0  0  0  0  0  0  0  0  0  0
   45.4460   34.4070   46.1470 H   0  0  0  0  0  0  0  0  0  0  0  0
   46.8590   34.5210   44.0860 H   0  0  0  0  0  0  0  0  0  0  0  0
   47.9510   32.5300   43.2520 H   0  0  0  0  0  0  0  0  0  0  0  0
   48.1710   29.2140   46.1060 H   0  0  0  0  0  0  0  0  0  0  0  0
   48.0030   27.6210   48.1950 H   0  0  0  0  0  0  0  0  0  0  0  0
   47.5130   27.1400   46.5700 H   0  0  0  0  0  0  0  0  0  0  0  0
   45.9660   26.8080   48.6370 H   0  0  0  0  0  0  0  0  0  0  0  0
   44.0520   28.1420   48.1410 H   0  0  0  0  0  0  0  0  0  0  0  0
   45.2360   29.2420   48.8650 H   0  0  0  0  0  0  0  0  0  0  0  0
   44.9330   28.5870   45.8990 H   0  0  0  0  0  0  0  0  0  0  0  0
   44.2120   30.1030   46.6530 H   0  0  0  0  0  0  0  0  0  0  0  0
   48.1930   30.0570   48.0450 C   0  0  0  0  0  0  0  0  0  0  0  0
   47.7610   30.8000   49.1160 C   0  0  0  0  0  0  0  0  0  0  0  0
   48.7810   31.3250   49.8020 N   0  0  0  0  0  0  0  0  0  0  0  0
   49.8780   30.9190   49.1720 C   0  0  0  0  0  0  0  0  0  0  0  0
   49.5310   30.1600   48.1190 N   0  0  0  0  0  0  0  0  0  0  0  0
   46.7210   30.9440   49.3700 H   0  0  0  0  0  0  0  0  0  0  0  0
   48.7620   31.9270   50.6530 H   0  0  0  0  0  0  0  0  0  0  0  0
   51.7860   31.5920   50.6880 C   0  0  0  0  0  3  0  0  0  0  0  0
   51.2950   31.1790   49.4660 C   0  0  0  0  0  0  0  0  0  0  0  0
   52.1950   30.9940   48.4360 C   0  0  0  0  0  0  0  0  0  0  0  0
   51.8450   30.6710   47.4660 H   0  0  0  0  0  0  0  0  0  0  0  0
   53.5500   31.2080   48.5940 C   0  0  0  0  0  0  0  0  0  0  0  0
   54.0500   31.6250   49.8260 C   0  0  0  0  0  0  0  0  0  0  0  0
   53.1410   31.8060   50.8490 C   0  0  0  0  0  3  0  0  0  0  0  0
   55.4440   31.7690   49.7270 O   0  0  0  0  0  0  0  0  0  0  0  0
   55.6620   31.9500   48.3210 C   0  0  0  0  0  3  0  0  0  0  0  0
   56.6880   31.6460   48.1190 H   0  0  0  0  0  0  0  0  0  0  0  0
   54.6690   31.1080   47.7640 O   0  0  0  0  0  0  0  0  0  0  0  0
  1 13  1  0  0  0  0
  1  6  1  0  0  0  0
  2  1  2  0  0  0  0
  3  2  1  0  0  0  0
  3  4  2  0  0  0  0
  4  5  1  0  0  0  0
  5  6  2  0  0  0  0
  5  7  1  0  0  0  0
  7 12  1  0  0  0  0
  7  8  1  0  0  0  0
  8 16  1  6  0  0  0
  8  9  1  0  0  0  0
  8 24  1  0  0  0  0
  9 10  1  0  0  0  0
  9 17  1  0  0  0  0
 10 11  1  0  0  0  0
 10 19  1  0  0  0  0
 11 20  1  0  0  0  0
 11 21  1  0  0  0  0
 12 11  1  0  0  0  0
 14  2  1  0  0  0  0
 15  3  1  0  0  0  0
 18  9  1  0  0  0  0
 22 12  1  0  0  0  0
 23 12  1  0  0  0  0
 24 28  1  0  0  0  0
 24 25  2  0  0  0  0
 25 29  1  0  0  0  0
 25 26  1  0  0  0  0
 26 30  1  0  0  0  0
 27 32  1  0  0  0  0
 27 26  1  0  0  0  0
 28 27  2  0  0  0  0
 31 37  1  0  0  0  0
 32 31  2  0  0  0  0
 33 35  2  0  0  0  0
 33 32  1  0  0  0  0
 34 33  1  0  0  0  0
 35 36  1  0  0  0  0
 36 37  2  0  0  0  0
 38 36  1  0  0  0  0
 39 38  1  0  0  0  0
 40 39  1  0  0  0  0
 41 39  1  0  0  0  0
 41 35  1  0  0  0  0
M  END
>  <minimizedAffinity>
-5.03541851

>  <minimizedRMSD>
0.204819158

$$$$
