
 OpenBabel03252509233D

 29 32  0  0  1  0  0  0  0  0999 V2000
   46.3940   34.9620   41.9900 C   0  0  1  0  0  0  0  0  0  0  0  0
   47.9160   35.2750   41.9510 C   0  0  0  0  0  0  0  0  0  0  0  0
   47.2340   33.9680   41.4240 C   0  0  2  0  0  0  0  0  0  0  0  0
   45.7920   35.6880   41.4130 H   0  0  0  0  0  0  0  0  0  0  0  0
   48.5130   35.1220   42.8460 H   0  0  0  0  0  0  0  0  0  0  0  0
   48.2490   35.9730   41.1610 H   0  0  0  0  0  0  0  0  0  0  0  0
   47.4380   33.0470   42.0090 H   0  0  0  0  0  0  0  0  0  0  0  0
   48.2570   34.3970   39.1400 C   0  0  0  0  0  3  0  0  0  0  0  0
   47.3180   33.7840   39.9420 C   0  0  0  0  0  0  0  0  0  0  0  0
   46.4150   32.9500   39.2740 C   0  0  0  0  0  0  0  0  0  0  0  0
   45.6640   32.4550   39.8860 H   0  0  0  0  0  0  0  0  0  0  0  0
   46.4150   32.7210   37.9230 C   0  0  0  0  0  0  0  0  0  0  0  0
   47.3730   33.3550   37.1570 C   0  0  0  0  0  0  0  0  0  0  0  0
   48.2980   34.1980   37.7730 C   0  0  0  0  0  3  0  0  0  0  0  0
   47.1460   32.9540   35.8550 O   0  0  0  0  0  0  0  0  0  0  0  0
   46.1790   31.9270   35.8220 C   0  0  0  0  0  3  0  0  0  0  0  0
   45.4400   32.1750   35.0380 H   0  0  0  0  0  0  0  0  0  0  0  0
   45.6100   31.9410   37.1080 O   0  0  0  0  0  0  0  0  0  0  0  0
   44.6210   35.4930   45.2570 C   0  0  0  0  0  0  0  0  0  0  0  0
   45.0640   35.7490   43.9140 C   0  0  0  0  0  0  0  0  0  0  0  0
   45.9350   34.8140   43.4200 C   0  0  0  0  0  0  0  0  0  0  0  0
   46.3440   33.7240   44.1710 N   0  0  0  0  0  0  0  0  0  0  0  0
   45.8960   33.5410   45.4150 C   0  0  0  0  0  0  0  0  0  0  0  0
   45.0360   34.4180   45.9670 N   0  0  0  0  0  0  0  0  0  0  0  0
   43.9350   36.1970   45.6900 H   0  0  0  0  0  0  0  0  0  0  0  0
   46.3140   32.6440   45.8540 H   0  0  0  0  0  0  0  0  0  0  0  0
   44.6600   36.8850   43.1740 N   0  0  0  0  0  0  0  0  0  0  0  0
   45.3670   37.6390   42.9560 H   0  0  0  0  0  0  0  0  0  0  0  0
   43.6720   37.0090   42.8310 H   0  0  0  0  0  0  0  0  0  0  0  0
  1  4  1  6  0  0  0
  1 21  1  0  0  0  0
  2  1  1  0  0  0  0
  2  5  1  0  0  0  0
  3  2  1  0  0  0  0
  3  1  1  0  0  0  0
  3  7  1  1  0  0  0
  6  2  1  0  0  0  0
  8  9  1  0  0  0  0
  9  3  1  0  0  0  0
 10 11  1  0  0  0  0
 10  9  2  0  0  0  0
 12 10  1  0  0  0  0
 13 14  1  0  0  0  0
 13 12  2  0  0  0  0
 14  8  2  0  0  0  0
 15 13  1  0  0  0  0
 16 15  1  0  0  0  0
 16 18  1  0  0  0  0
 17 16  1  0  0  0  0
 18 12  1  0  0  0  0
 19 25  1  0  0  0  0
 19 24  1  0  0  0  0
 20 19  2  0  0  0  0
 21 20  1  0  0  0  0
 21 22  2  0  0  0  0
 22 23  1  0  0  0  0
 23 26  1  0  0  0  0
 23 24  2  0  0  0  0
 27 20  1  0  0  0  0
 28 27  1  0  0  0  0
 29 27  1  0  0  0  0
M  END
>  <minimizedAffinity>
-5.73398638

>  <minimizedRMSD>
0.236608952

$$$$
