
 OpenBabel03242516163D

 45 49  0  0  1  0  0  0  0  0999 V2000
   46.2160   35.6300   42.6370 C   0  0  0  0  0  0  0  0  0  0  0  0
   46.6830   34.3360   42.3780 C   0  0  0  0  0  0  0  0  0  0  0  0
   46.2740   33.3090   43.2330 C   0  0  0  0  0  0  0  0  0  0  0  0
   45.4470   33.6200   44.2690 N   0  0  0  0  0  0  0  0  0  0  0  0
   45.0360   34.8750   44.4650 C   0  0  0  0  0  0  0  0  0  0  0  0
   45.4000   35.8630   43.6820 N   0  0  0  0  0  0  0  0  0  0  0  0
   44.1680   35.2250   45.5490 N   0  0  0  0  0  0  0  0  0  0  0  0
   46.5340   36.4260   41.9710 H   0  0  0  0  0  0  0  0  0  0  0  0
   44.5740   35.9370   46.2110 H   0  0  0  0  0  0  0  0  0  0  0  0
   43.2200   34.7530   45.5930 H   0  0  0  0  0  0  0  0  0  0  0  0
   47.6020   34.0840   41.2200 C   0  0  0  0  0  0  0  0  0  0  0  0
   48.4810   35.2620   40.8150 C   0  0  0  0  0  0  0  0  0  0  0  0
   49.0140   34.0730   41.4560 C   0  0  0  0  0  0  0  0  0  0  0  0
   48.7040   35.4370   39.7390 H   0  0  0  0  0  0  0  0  0  0  0  0
   48.2350   36.2250   41.3150 H   0  0  0  0  0  0  0  0  0  0  0  0
   49.6470   33.4030   40.8060 H   0  0  0  0  0  0  0  0  0  0  0  0
   49.6050   34.4300   42.3150 H   0  0  0  0  0  0  0  0  0  0  0  0
   47.0370   33.3650   40.0450 C   0  0  0  0  0  0  0  0  0  0  0  0
   47.5800   33.7930   38.6970 C   0  0  0  0  0  0  0  0  0  0  0  0
   46.9460   32.8560   37.6800 C   0  0  0  0  0  0  0  0  0  0  0  0
   45.6140   33.2960   37.5260 O   0  0  0  0  0  0  0  0  0  0  0  0
   45.0010   32.8550   38.7280 C   0  0  0  0  0  0  0  0  0  0  0  0
   45.5220   33.6680   39.8990 C   0  0  0  0  0  0  0  0  0  0  0  0
   47.1550   32.2860   40.1400 H   0  0  0  0  0  0  0  0  0  0  0  0
   48.6810   33.5700   38.6470 H   0  0  0  0  0  0  0  0  0  0  0  0
   47.3390   34.8440   38.4440 H   0  0  0  0  0  0  0  0  0  0  0  0
   47.4450   32.9340   36.6800 H   0  0  0  0  0  0  0  0  0  0  0  0
   46.9230   31.8190   38.0480 H   0  0  0  0  0  0  0  0  0  0  0  0
   43.9310   33.0660   38.5960 H   0  0  0  0  0  0  0  0  0  0  0  0
   45.2460   31.8010   38.9280 H   0  0  0  0  0  0  0  0  0  0  0  0
   45.0230   33.2300   40.7950 H   0  0  0  0  0  0  0  0  0  0  0  0
   45.3450   34.7420   39.8060 H   0  0  0  0  0  0  0  0  0  0  0  0
   46.6970   31.9560   43.0800 C   0  0  2  0  0  3  0  0  0  0  0  0
   45.9250   30.9110   43.1090 O   0  0  0  0  0  1  0  0  0  0  0  0
   48.9430   30.9360   43.6360 C   0  0  0  0  0  3  0  0  0  0  0  0
   47.8130   31.0740   42.8780 C   0  0  0  0  0  0  0  0  0  0  0  0
   47.8070   30.3140   41.7000 C   0  0  0  0  0  0  0  0  0  0  0  0
   46.9530   30.3600   41.0350 H   0  0  0  0  0  0  0  0  0  0  0  0
   48.8010   29.4840   41.2700 C   0  0  0  0  0  0  0  0  0  0  0  0
   49.9160   29.3720   42.0600 C   0  0  0  0  0  0  0  0  0  0  0  0
   49.9820   30.0890   43.2250 C   0  0  0  0  0  3  0  0  0  0  0  0
   50.7920   28.4760   41.4300 O   0  0  0  0  0  0  0  0  0  0  0  0
   50.4020   28.3760   40.0650 C   0  0  0  0  0  3  0  0  0  0  0  0
   50.6280   27.3860   39.6730 H   0  0  0  0  0  0  0  0  0  0  0  0
   48.9950   28.6530   40.1520 O   0  0  0  0  0  0  0  0  0  0  0  0
  1  6  1  0  0  0  0
  2  1  2  0  0  0  0
  2  3  1  0  0  0  0
  3  4  2  0  0  0  0
  4  5  1  0  0  0  0
  5  7  1  0  0  0  0
  6  5  2  0  0  0  0
  7 10  1  0  0  0  0
  7  9  1  0  0  0  0
  8  1  1  0  0  0  0
 11 13  1  0  0  0  0
 11  2  1  0  0  0  0
 12 11  1  0  0  0  0
 12 15  1  0  0  0  0
 12 13  1  0  0  0  0
 13 17  1  0  0  0  0
 14 12  1  0  0  0  0
 16 13  1  0  0  0  0
 18 24  1  0  0  0  0
 18 11  1  0  0  0  0
 19 18  1  0  0  0  0
 20 28  1  0  0  0  0
 20 19  1  0  0  0  0
 21 20  1  0  0  0  0
 21 22  1  0  0  0  0
 22 30  1  0  0  0  0
 22 23  1  0  0  0  0
 23 18  1  0  0  0  0
 23 31  1  0  0  0  0
 25 19  1  0  0  0  0
 26 19  1  0  0  0  0
 27 20  1  0  0  0  0
 29 22  1  0  0  0  0
 32 23  1  0  0  0  0
 33 34  1  1  0  0  0
 33  3  1  0  0  0  0
 36 33  1  0  0  0  0
 36 35  2  0  0  0  0
 37 36  1  0  0  0  0
 38 37  1  0  0  0  0
 39 37  2  0  0  0  0
 39 40  1  0  0  0  0
 40 41  2  0  0  0  0
 41 35  1  0  0  0  0
 42 40  1  0  0  0  0
 43 45  1  0  0  0  0
 43 42  1  0  0  0  0
 44 43  1  0  0  0  0
 45 39  1  0  0  0  0
M  END
>  <minimizedAffinity>
-4.84368229

>  <minimizedRMSD>
1.6216538

$$$$
