
 OpenBabel03252508503D

 30 33  0  0  0  0  0  0  0  0999 V2000
   45.8830   34.1250   41.0370 C   0  0  0  0  0  0  0  0  0  0  0  0
   46.4820   34.7700   42.1140 C   0  0  0  0  0  0  0  0  0  0  0  0
   47.8230   35.1340   41.9490 C   0  0  0  0  0  0  0  0  0  0  0  0
   48.4490   34.8390   40.7650 N   0  0  0  0  0  0  0  0  0  0  0  0
   47.8240   34.2210   39.7720 C   0  0  0  0  0  0  0  0  0  0  0  0
   46.5390   33.8550   39.8880 N   0  0  0  0  0  0  0  0  0  0  0  0
   48.3150   35.6360   42.7700 H   0  0  0  0  0  0  0  0  0  0  0  0
   48.3260   33.9940   38.8450 H   0  0  0  0  0  0  0  0  0  0  0  0
   45.7260   35.0310   43.3210 C   0  0  0  0  0  0  0  0  0  0  0  0
   45.0610   36.2120   43.5530 C   0  0  0  0  0  0  0  0  0  0  0  0
   44.4940   36.0250   44.7970 C   0  0  0  0  0  0  0  0  0  0  0  0
   44.7980   34.8020   45.2900 N   0  0  0  0  0  0  0  0  0  0  0  0
   45.5440   34.2200   44.3780 N   0  0  0  0  0  0  0  0  0  0  0  0
   44.9530   37.1120   42.9690 H   0  0  0  0  0  0  0  0  0  0  0  0
   43.8670   36.6990   45.3980 H   0  0  0  0  0  0  0  0  0  0  0  0
   44.5460   34.3290   46.1830 H   0  0  0  0  0  0  0  0  0  0  0  0
   44.5560   33.7490   41.1570 O   0  0  0  0  0  0  0  0  0  0  0  0
   43.4590   34.4300   40.7100 C   0  0  0  0  0  0  0  0  0  0  0  0
   43.3570   35.6970   40.5230 O   0  0  0  0  0  0  0  0  0  0  0  0
   41.6600   33.7150   39.0720 C   0  0  0  0  0  3  0  0  0  0  0  0
   42.1690   33.7610   40.3650 C   0  0  0  0  0  0  0  0  0  0  0  0
   41.3600   33.1280   41.2780 C   0  0  0  0  0  0  0  0  0  0  0  0
   41.6720   33.1090   42.3190 H   0  0  0  0  0  0  0  0  0  0  0  0
   40.1770   32.5130   40.9760 C   0  0  0  0  0  0  0  0  0  0  0  0
   39.7510   32.5180   39.6670 C   0  0  0  0  0  0  0  0  0  0  0  0
   40.4850   33.1220   38.6790 C   0  0  0  0  0  3  0  0  0  0  0  0
   38.5480   31.8380   39.6430 O   0  0  0  0  0  0  0  0  0  0  0  0
   38.1720   31.4140   40.9460 C   0  0  0  0  0  3  0  0  0  0  0  0
   38.1110   30.3110   41.0400 H   0  0  0  0  0  0  0  0  0  0  0  0
   39.2470   31.8370   41.7550 O   0  0  0  0  0  0  0  0  0  0  0  0
  1 17  1  0  0  0  0
  1  2  1  0  0  0  0
  2  9  1  0  0  0  0
  3  2  2  0  0  0  0
  3  7  1  0  0  0  0
  4  3  1  0  0  0  0
  5  6  1  0  0  0  0
  5  4  2  0  0  0  0
  6  1  2  0  0  0  0
  8  5  1  0  0  0  0
  9 10  1  0  0  0  0
  9 13  2  0  0  0  0
 10 11  2  0  0  0  0
 11 12  1  0  0  0  0
 11 15  1  0  0  0  0
 12 16  1  0  0  0  0
 13 12  1  0  0  0  0
 14 10  1  0  0  0  0
 18 17  1  0  0  0  0
 19 18  2  0  0  0  0
 20 21  1  0  0  0  0
 21 18  1  0  0  0  0
 21 22  2  0  0  0  0
 22 23  1  0  0  0  0
 24 22  1  0  0  0  0
 24 30  1  0  0  0  0
 25 24  2  0  0  0  0
 26 20  2  0  0  0  0
 26 25  1  0  0  0  0
 27 25  1  0  0  0  0
 27 28  1  0  0  0  0
 28 29  1  0  0  0  0
 28 30  1  0  0  0  0
M  END
>  <minimizedAffinity>
-5.89102888

>  <minimizedRMSD>
1.48833466

$$$$
