
 OpenBabel03252508323D

 34 37  0  0  1  0  0  0  0  0999 V2000
   44.2450   34.2390   42.0800 N   0  0  0  0  0  0  0  0  0  0  0  0
   44.2680   33.5220   40.8630 C   0  0  1  0  0  0  0  0  0  0  0  0
   43.4340   34.0750   39.7660 C   0  0  0  0  0  0  0  0  0  0  0  0
   42.2440   34.7230   40.1280 N   0  0  0  0  0  0  0  0  0  0  0  0
   42.2140   35.4140   41.3520 C   0  0  0  0  0  0  0  0  0  0  0  0
   43.5870   35.5070   41.9900 C   0  0  0  0  0  0  0  0  0  0  0  0
   43.9120   32.4740   41.0710 H   0  0  0  0  0  0  0  0  0  0  0  0
   43.2320   33.2860   39.0130 H   0  0  0  0  0  0  0  0  0  0  0  0
   44.0700   34.8290   39.2150 H   0  0  0  0  0  0  0  0  0  0  0  0
   41.4760   33.9890   40.1690 H   0  0  0  0  0  0  0  0  0  0  0  0
   41.5000   35.0490   42.1110 H   0  0  0  0  0  0  0  0  0  0  0  0
   41.9160   36.4720   41.1350 H   0  0  0  0  0  0  0  0  0  0  0  0
   44.2210   36.2150   41.3800 H   0  0  0  0  0  0  0  0  0  0  0  0
   43.4180   36.0290   42.9490 H   0  0  0  0  0  0  0  0  0  0  0  0
   46.6720   34.2630   40.5610 C   0  0  0  0  0  3  0  0  0  0  0  0
   45.6550   33.3770   40.2940 C   0  0  0  0  0  0  0  0  0  0  0  0
   46.0230   32.3360   39.4340 C   0  0  0  0  0  0  0  0  0  0  0  0
   45.2690   31.6000   39.1800 H   0  0  0  0  0  0  0  0  0  0  0  0
   47.2820   32.1970   38.8950 C   0  0  0  0  0  0  0  0  0  0  0  0
   48.2470   33.1280   39.2100 C   0  0  0  0  0  0  0  0  0  0  0  0
   47.9420   34.1750   40.0540 C   0  0  0  0  0  3  0  0  0  0  0  0
   49.4110   32.7350   38.5270 O   0  0  0  0  0  0  0  0  0  0  0  0
   49.0700   31.7700   37.5410 C   0  0  0  0  0  3  0  0  0  0  0  0
   48.9640   32.3020   36.5730 H   0  0  0  0  0  0  0  0  0  0  0  0
   47.8470   31.2640   38.0410 O   0  0  0  0  0  0  0  0  0  0  0  0
   45.1840   34.5520   44.2560 C   0  0  0  0  0  0  0  0  0  0  0  0
   44.8480   33.6670   43.2220 C   0  0  0  0  0  0  0  0  0  0  0  0
   45.1350   32.3280   43.4100 C   0  0  0  0  0  0  0  0  0  0  0  0
   45.7230   31.8830   44.5540 N   0  0  0  0  0  0  0  0  0  0  0  0
   46.0370   32.7780   45.5400 C   0  0  0  0  0  0  0  0  0  0  0  0
   45.7630   34.0890   45.3750 N   0  0  0  0  0  0  0  0  0  0  0  0
   45.0500   35.6200   44.3120 H   0  0  0  0  0  0  0  0  0  0  0  0
   44.8770   31.6400   42.6270 H   0  0  0  0  0  0  0  0  0  0  0  0
   46.5050   32.4020   46.4430 H   0  0  0  0  0  0  0  0  0  0  0  0
  1 27  1  0  0  0  0
  2  7  1  1  0  0  0
  2  1  1  0  0  0  0
  3  4  1  0  0  0  0
  3  2  1  0  0  0  0
  4 10  1  0  0  0  0
  4  5  1  0  0  0  0
  5  6  1  0  0  0  0
  5 11  1  0  0  0  0
  6  1  1  0  0  0  0
  6 14  1  0  0  0  0
  8  3  1  0  0  0  0
  9  3  1  0  0  0  0
 12  5  1  0  0  0  0
 13  6  1  0  0  0  0
 16 15  1  0  0  0  0
 16  2  1  0  0  0  0
 17 16  2  0  0  0  0
 18 17  1  0  0  0  0
 19 20  2  0  0  0  0
 19 17  1  0  0  0  0
 20 21  1  0  0  0  0
 21 15  2  0  0  0  0
 22 20  1  0  0  0  0
 23 25  1  0  0  0  0
 23 22  1  0  0  0  0
 24 23  1  0  0  0  0
 25 19  1  0  0  0  0
 26 32  1  0  0  0  0
 26 31  1  0  0  0  0
 27 28  1  0  0  0  0
 27 26  2  0  0  0  0
 28 29  2  0  0  0  0
 29 30  1  0  0  0  0
 30 34  1  0  0  0  0
 31 30  2  0  0  0  0
 33 28  1  0  0  0  0
M  END
>  <minimizedAffinity>
-4.4964819

>  <minimizedRMSD>
0.732464731

$$$$
