
 OpenBabel03242510233D

 40 44  0  0  1  0  0  0  0  0999 V2000
   48.0310   33.2060   43.1330 N   0  0  0  0  0  0  0  0  0  0  0  0
   49.1740   33.2410   42.3470 C   0  0  0  0  0  0  0  0  0  0  0  0
   50.3410   32.8220   42.5690 O   0  0  0  0  0  0  0  0  0  0  0  0
   47.4960   34.1000   43.0820 H   0  0  0  0  0  0  0  0  0  0  0  0
   46.2930   32.0920   44.4870 C   0  0  1  0  0  0  0  0  0  0  0  0
   46.4120   31.3360   43.3160 C   0  0  0  0  0  0  0  0  0  0  0  0
   47.6540   32.0780   43.9060 C   0  0  1  0  0  0  0  0  0  0  0  0
   46.1500   31.6430   45.5000 H   0  0  0  0  0  0  0  0  0  0  0  0
   46.1240   31.6090   42.2870 H   0  0  0  0  0  0  0  0  0  0  0  0
   46.4500   30.2070   43.4090 H   0  0  0  0  0  0  0  0  0  0  0  0
   48.4160   31.3620   44.2760 H   0  0  0  0  0  0  0  0  0  0  0  0
   45.0560   33.9660   43.1680 C   0  0  0  0  0  0  0  0  0  0  0  0
   45.5470   33.4350   44.4040 C   0  0  0  0  0  0  0  0  0  0  0  0
   45.3480   34.1860   45.5430 C   0  0  0  0  0  0  0  0  0  0  0  0
   44.7110   35.3710   45.4460 N   0  0  0  0  0  0  0  0  0  0  0  0
   44.2520   35.8640   44.2670 C   0  0  0  0  0  0  0  0  0  0  0  0
   44.4370   35.1280   43.0930 N   0  0  0  0  0  0  0  0  0  0  0  0
   45.1940   33.3730   42.2860 H   0  0  0  0  0  0  0  0  0  0  0  0
   45.7070   33.8110   46.4980 H   0  0  0  0  0  0  0  0  0  0  0  0
   43.7500   36.8210   44.2530 H   0  0  0  0  0  0  0  0  0  0  0  0
   49.1030   33.8690   40.9640 C   0  0  2  0  0  0  0  0  0  0  0  0
   48.5780   35.3520   40.9050 C   0  0  0  0  0  0  0  0  0  0  0  0
   47.8190   34.1900   40.3350 C   0  0  1  0  0  0  0  0  0  0  0  0
   50.0000   33.7790   40.3190 H   0  0  0  0  0  0  0  0  0  0  0  0
   48.2560   35.7130   41.9030 H   0  0  0  0  0  0  0  0  0  0  0  0
   49.0330   36.0250   40.1840 H   0  0  0  0  0  0  0  0  0  0  0  0
   46.9660   33.6930   40.8460 H   0  0  0  0  0  0  0  0  0  0  0  0
   47.7360   34.0890   38.8300 C   0  0  0  0  0  0  0  0  0  0  0  0
   48.5420   34.7060   38.1400 O   0  0  0  0  0  0  0  0  0  0  0  0
   45.8320   32.4300   38.7960 C   0  0  0  0  0  3  0  0  0  0  0  0
   46.7230   33.2740   38.1690 C   0  0  0  0  0  0  0  0  0  0  0  0
   46.5950   33.3090   36.7970 C   0  0  0  0  0  0  0  0  0  0  0  0
   47.2290   33.9290   36.1690 H   0  0  0  0  0  0  0  0  0  0  0  0
   45.6650   32.5720   36.0920 C   0  0  0  0  0  0  0  0  0  0  0  0
   44.7960   31.7420   36.7650 C   0  0  0  0  0  0  0  0  0  0  0  0
   44.8890   31.6770   38.1310 C   0  0  0  0  0  3  0  0  0  0  0  0
   43.9770   31.1290   35.8180 O   0  0  0  0  0  0  0  0  0  0  0  0
   44.6580   31.1860   34.5570 C   0  0  0  0  0  3  0  0  0  0  0  0
   45.4920   30.4350   34.5150 H   0  0  0  0  0  0  0  0  0  0  0  0
   45.3420   32.4350   34.7380 O   0  0  0  0  0  0  0  0  0  0  0  0
  1  7  1  0  0  0  0
  2  3  2  0  0  0  0
  2  1  1  0  0  0  0
  4  1  1  0  0  0  0
  5  8  1  1  0  0  0
  6 10  1  0  0  0  0
  6  7  1  0  0  0  0
  6  5  1  0  0  0  0
  7 11  1  1  0  0  0
  7  5  1  0  0  0  0
  9  6  1  0  0  0  0
 12 13  1  0  0  0  0
 13  5  1  0  0  0  0
 13 14  2  0  0  0  0
 14 19  1  0  0  0  0
 15 14  1  0  0  0  0
 16 15  2  0  0  0  0
 17 12  2  0  0  0  0
 17 16  1  0  0  0  0
 18 12  1  0  0  0  0
 20 16  1  0  0  0  0
 21 24  1  6  0  0  0
 21  2  1  0  0  0  0
 22 21  1  0  0  0  0
 22 25  1  0  0  0  0
 23 27  1  1  0  0  0
 23 22  1  0  0  0  0
 23 21  1  0  0  0  0
 26 22  1  0  0  0  0
 28 23  1  0  0  0  0
 29 28  2  0  0  0  0
 31 30  1  0  0  0  0
 31 28  1  0  0  0  0
 32 31  2  0  0  0  0
 33 32  1  0  0  0  0
 34 35  2  0  0  0  0
 34 32  1  0  0  0  0
 35 36  1  0  0  0  0
 36 30  2  0  0  0  0
 37 35  1  0  0  0  0
 38 40  1  0  0  0  0
 38 37  1  0  0  0  0
 39 38  1  0  0  0  0
 40 34  1  0  0  0  0
M  END
>  <minimizedAffinity>
-5.40323353

>  <minimizedRMSD>
1.07764292

$$$$
