
 OpenBabel03252508513D

 30 33  0  0  0  0  0  0  0  0999 V2000
   45.8950   34.1810   41.0210 C   0  0  0  0  0  0  0  0  0  0  0  0
   46.4970   34.7870   42.1180 C   0  0  0  0  0  0  0  0  0  0  0  0
   47.8490   35.1180   41.9770 C   0  0  0  0  0  0  0  0  0  0  0  0
   48.4820   34.8310   40.7950 N   0  0  0  0  0  0  0  0  0  0  0  0
   47.8530   34.2500   39.7810 C   0  0  0  0  0  0  0  0  0  0  0  0
   46.5570   33.9180   39.8730 N   0  0  0  0  0  0  0  0  0  0  0  0
   48.3440   35.5900   42.8140 H   0  0  0  0  0  0  0  0  0  0  0  0
   48.3610   34.0300   38.8550 H   0  0  0  0  0  0  0  0  0  0  0  0
   45.7330   35.0430   43.3210 C   0  0  0  0  0  0  0  0  0  0  0  0
   45.0860   36.2320   43.5640 C   0  0  0  0  0  0  0  0  0  0  0  0
   44.5030   36.0360   44.7990 C   0  0  0  0  0  0  0  0  0  0  0  0
   44.7800   34.8000   45.2760 N   0  0  0  0  0  0  0  0  0  0  0  0
   45.5260   34.2190   44.3640 N   0  0  0  0  0  0  0  0  0  0  0  0
   45.0010   37.1430   42.9930 H   0  0  0  0  0  0  0  0  0  0  0  0
   43.8830   36.7120   45.4040 H   0  0  0  0  0  0  0  0  0  0  0  0
   44.5110   34.3190   46.1590 H   0  0  0  0  0  0  0  0  0  0  0  0
   44.5570   33.8380   41.1170 O   0  0  0  0  0  0  0  0  0  0  0  0
   43.4860   34.5420   40.6410 C   0  0  0  0  0  0  0  0  0  0  0  0
   43.3300   35.8170   40.6520 O   0  0  0  0  0  0  0  0  0  0  0  0
   42.0060   32.5390   40.1660 C   0  0  0  0  0  3  0  0  0  0  0  0
   42.2960   33.8910   40.0170 C   0  0  0  0  0  0  0  0  0  0  0  0
   41.3740   34.5500   39.2400 C   0  0  0  0  0  0  0  0  0  0  0  0
   41.5130   35.6120   39.0630 H   0  0  0  0  0  0  0  0  0  0  0  0
   40.2810   33.9640   38.6620 C   0  0  0  0  0  0  0  0  0  0  0  0
   40.0740   32.6200   38.8650 C   0  0  0  0  0  0  0  0  0  0  0  0
   40.9340   31.8700   39.6240 C   0  0  0  0  0  3  0  0  0  0  0  0
   38.9180   32.2930   38.1800 O   0  0  0  0  0  0  0  0  0  0  0  0
   38.3860   33.4230   37.5050 C   0  0  0  0  0  3  0  0  0  0  0  0
   37.3780   33.7100   37.8700 H   0  0  0  0  0  0  0  0  0  0  0  0
   39.2640   34.4670   37.8620 O   0  0  0  0  0  0  0  0  0  0  0  0
  1 17  1  0  0  0  0
  1  2  1  0  0  0  0
  2  9  1  0  0  0  0
  3  2  2  0  0  0  0
  3  7  1  0  0  0  0
  4  3  1  0  0  0  0
  5  6  1  0  0  0  0
  5  4  2  0  0  0  0
  6  1  2  0  0  0  0
  8  5  1  0  0  0  0
  9 10  1  0  0  0  0
  9 13  2  0  0  0  0
 10 11  2  0  0  0  0
 11 12  1  0  0  0  0
 11 15  1  0  0  0  0
 12 16  1  0  0  0  0
 13 12  1  0  0  0  0
 14 10  1  0  0  0  0
 18 19  2  0  0  0  0
 18 17  1  0  0  0  0
 21 20  1  0  0  0  0
 21 18  1  0  0  0  0
 22 21  2  0  0  0  0
 23 22  1  0  0  0  0
 24 25  2  0  0  0  0
 24 22  1  0  0  0  0
 25 26  1  0  0  0  0
 26 20  2  0  0  0  0
 27 25  1  0  0  0  0
 28 30  1  0  0  0  0
 28 29  1  0  0  0  0
 28 27  1  0  0  0  0
 30 24  1  0  0  0  0
M  END
>  <minimizedAffinity>
-5.88427925

>  <minimizedRMSD>
1.08859205

$$$$
