
 OpenBabel03242510233D

 40 44  0  0  1  0  0  0  0  0999 V2000
   48.0340   33.1180   43.3000 N   0  0  0  0  0  0  0  0  0  0  0  0
   49.1410   33.0750   42.4630 C   0  0  0  0  0  0  0  0  0  0  0  0
   50.2690   32.5350   42.6150 O   0  0  0  0  0  0  0  0  0  0  0  0
   47.5890   34.0610   43.3070 H   0  0  0  0  0  0  0  0  0  0  0  0
   46.1890   32.0530   44.5460 C   0  0  1  0  0  0  0  0  0  0  0  0
   46.3550   31.2950   43.3830 C   0  0  0  0  0  0  0  0  0  0  0  0
   47.5800   32.0010   44.0470 C   0  0  1  0  0  0  0  0  0  0  0  0
   45.9730   31.6090   45.5480 H   0  0  0  0  0  0  0  0  0  0  0  0
   46.1360   31.5760   42.3390 H   0  0  0  0  0  0  0  0  0  0  0  0
   46.3560   30.1650   43.4760 H   0  0  0  0  0  0  0  0  0  0  0  0
   48.2980   31.2640   44.4600 H   0  0  0  0  0  0  0  0  0  0  0  0
   45.0130   33.9260   43.1700 C   0  0  0  0  0  0  0  0  0  0  0  0
   45.4860   33.4170   44.4210 C   0  0  0  0  0  0  0  0  0  0  0  0
   45.3130   34.2080   45.5370 C   0  0  0  0  0  0  0  0  0  0  0  0
   44.7150   35.4110   45.4040 N   0  0  0  0  0  0  0  0  0  0  0  0
   44.2720   35.8820   44.2090 C   0  0  0  0  0  0  0  0  0  0  0  0
   44.4320   35.1040   43.0590 N   0  0  0  0  0  0  0  0  0  0  0  0
   45.1310   33.3020   42.3060 H   0  0  0  0  0  0  0  0  0  0  0  0
   45.6600   33.8520   46.5030 H   0  0  0  0  0  0  0  0  0  0  0  0
   43.8010   36.8540   44.1660 H   0  0  0  0  0  0  0  0  0  0  0  0
   49.0740   33.7630   41.1090 C   0  0  2  0  0  0  0  0  0  0  0  0
   48.5820   35.2590   41.1190 C   0  0  0  0  0  0  0  0  0  0  0  0
   47.7920   34.1400   40.5060 C   0  0  1  0  0  0  0  0  0  0  0  0
   49.9630   33.6810   40.4530 H   0  0  0  0  0  0  0  0  0  0  0  0
   48.2760   35.5830   42.1350 H   0  0  0  0  0  0  0  0  0  0  0  0
   49.0470   35.9520   40.4240 H   0  0  0  0  0  0  0  0  0  0  0  0
   46.9320   33.6410   41.0010 H   0  0  0  0  0  0  0  0  0  0  0  0
   47.6960   34.1060   38.9990 C   0  0  0  0  0  0  0  0  0  0  0  0
   48.5320   34.7040   38.3280 O   0  0  0  0  0  0  0  0  0  0  0  0
   46.6590   32.9640   36.9980 C   0  0  0  0  0  3  0  0  0  0  0  0
   46.6350   33.3780   38.3130 C   0  0  0  0  0  0  0  0  0  0  0  0
   45.4780   33.0450   38.9860 C   0  0  0  0  0  0  0  0  0  0  0  0
   45.3170   33.3050   40.0280 H   0  0  0  0  0  0  0  0  0  0  0  0
   44.4270   32.3580   38.4150 C   0  0  0  0  0  0  0  0  0  0  0  0
   44.4990   31.9650   37.0980 C   0  0  0  0  0  0  0  0  0  0  0  0
   45.6310   32.2760   36.3900 C   0  0  0  0  0  3  0  0  0  0  0  0
   43.3140   31.2990   36.7870 O   0  0  0  0  0  0  0  0  0  0  0  0
   42.3230   31.7170   37.7360 C   0  0  0  0  0  3  0  0  0  0  0  0
   41.9570   32.7530   37.5050 H   0  0  0  0  0  0  0  0  0  0  0  0
   43.1810   31.9120   38.8710 O   0  0  0  0  0  0  0  0  0  0  0  0
  1  4  1  0  0  0  0
  1  7  1  0  0  0  0
  2  3  2  0  0  0  0
  2  1  1  0  0  0  0
  5  8  1  1  0  0  0
  6 10  1  0  0  0  0
  6  7  1  0  0  0  0
  6  5  1  0  0  0  0
  7 11  1  1  0  0  0
  7  5  1  0  0  0  0
  9  6  1  0  0  0  0
 12 13  1  0  0  0  0
 13  5  1  0  0  0  0
 13 14  2  0  0  0  0
 14 19  1  0  0  0  0
 15 14  1  0  0  0  0
 16 15  2  0  0  0  0
 17 12  2  0  0  0  0
 17 16  1  0  0  0  0
 18 12  1  0  0  0  0
 20 16  1  0  0  0  0
 21 24  1  6  0  0  0
 21 22  1  0  0  0  0
 21  2  1  0  0  0  0
 22 25  1  0  0  0  0
 23 27  1  1  0  0  0
 23 21  1  0  0  0  0
 23 22  1  0  0  0  0
 26 22  1  0  0  0  0
 28 23  1  0  0  0  0
 29 28  2  0  0  0  0
 30 31  1  0  0  0  0
 31 32  2  0  0  0  0
 31 28  1  0  0  0  0
 32 33  1  0  0  0  0
 34 40  1  0  0  0  0
 34 32  1  0  0  0  0
 35 34  2  0  0  0  0
 36 30  2  0  0  0  0
 36 35  1  0  0  0  0
 37 35  1  0  0  0  0
 37 38  1  0  0  0  0
 38 40  1  0  0  0  0
 39 38  1  0  0  0  0
M  END
>  <minimizedAffinity>
-5.18153763

>  <minimizedRMSD>
0.819783688

$$$$
