
 OpenBabel03242520403D

 41 45  0  0  1  0  0  0  0  0999 V2000
   45.8570   33.4840   45.7710 C   0  0  0  0  0  0  0  0  0  0  0  0
   46.6700   33.6300   44.6160 C   0  0  0  0  0  0  0  0  0  0  0  0
   47.3420   32.4720   44.1230 C   0  0  0  0  0  0  0  0  0  0  0  0
   47.1780   31.2810   44.7760 N   0  0  0  0  0  0  0  0  0  0  0  0
   46.3870   31.2060   45.8760 C   0  0  0  0  0  0  0  0  0  0  0  0
   45.7410   32.2950   46.3610 N   0  0  0  0  0  0  0  0  0  0  0  0
   46.2750   29.9510   46.4840 N   0  0  0  0  0  0  0  0  0  0  0  0
   47.4280   29.2760   46.9830 C   0  0  2  0  0  0  0  0  0  0  0  0
   47.2120   27.8520   47.3580 C   0  0  0  0  0  0  0  0  0  0  0  0
   45.9210   27.4970   47.8120 N   0  0  0  0  0  0  0  0  0  0  0  0
   45.0120   28.5830   47.9250 C   0  0  0  0  0  0  0  0  0  0  0  0
   44.9790   29.3230   46.6140 C   0  0  0  0  0  0  0  0  0  0  0  0
   45.3870   34.3930   46.0800 H   0  0  0  0  0  0  0  0  0  0  0  0
   46.8480   34.5160   44.0530 H   0  0  0  0  0  0  0  0  0  0  0  0
   47.9720   32.5310   43.2460 H   0  0  0  0  0  0  0  0  0  0  0  0
   48.1450   29.2170   46.1050 H   0  0  0  0  0  0  0  0  0  0  0  0
   47.9370   27.6230   48.1900 H   0  0  0  0  0  0  0  0  0  0  0  0
   47.4890   27.1390   46.5540 H   0  0  0  0  0  0  0  0  0  0  0  0
   45.8950   26.7970   48.5830 H   0  0  0  0  0  0  0  0  0  0  0  0
   43.9850   28.1200   48.0410 H   0  0  0  0  0  0  0  0  0  0  0  0
   45.1440   29.2280   48.7940 H   0  0  0  0  0  0  0  0  0  0  0  0
   44.9160   28.5700   45.8210 H   0  0  0  0  0  0  0  0  0  0  0  0
   44.1680   30.0820   46.5580 H   0  0  0  0  0  0  0  0  0  0  0  0
   48.1150   30.0610   48.0440 C   0  0  0  0  0  0  0  0  0  0  0  0
   47.6580   30.7420   49.1440 C   0  0  0  0  0  0  0  0  0  0  0  0
   48.6560   31.3010   49.8350 N   0  0  0  0  0  0  0  0  0  0  0  0
   49.7660   30.9790   49.1790 C   0  0  0  0  0  0  0  0  0  0  0  0
   49.4460   30.2360   48.1050 N   0  0  0  0  0  0  0  0  0  0  0  0
   46.6150   30.8190   49.4160 H   0  0  0  0  0  0  0  0  0  0  0  0
   48.6160   31.8730   50.7060 H   0  0  0  0  0  0  0  0  0  0  0  0
   52.2370   30.4590   49.2590 C   0  0  0  0  0  3  0  0  0  0  0  0
   51.1690   31.3080   49.4630 C   0  0  0  0  0  0  0  0  0  0  0  0
   51.4300   32.5650   49.9720 C   0  0  0  0  0  0  0  0  0  0  0  0
   50.6180   33.2550   50.1440 H   0  0  0  0  0  0  0  0  0  0  0  0
   52.7100   32.9870   50.2770 C   0  0  0  0  0  0  0  0  0  0  0  0
   53.7900   32.1300   50.0720 C   0  0  0  0  0  0  0  0  0  0  0  0
   53.5180   30.8780   49.5640 C   0  0  0  0  0  3  0  0  0  0  0  0
   54.9710   32.7890   50.4570 O   0  0  0  0  0  0  0  0  0  0  0  0
   54.5090   33.7990   51.3640 C   0  0  0  0  0  3  0  0  0  0  0  0
   55.2600   34.5880   51.3670 H   0  0  0  0  0  0  0  0  0  0  0  0
   53.2680   34.1600   50.7880 O   0  0  0  0  0  0  0  0  0  0  0  0
  1 13  1  0  0  0  0
  1  6  1  0  0  0  0
  2  1  2  0  0  0  0
  3  2  1  0  0  0  0
  3  4  2  0  0  0  0
  4  5  1  0  0  0  0
  5  6  2  0  0  0  0
  5  7  1  0  0  0  0
  7 12  1  0  0  0  0
  7  8  1  0  0  0  0
  8 16  1  6  0  0  0
  8  9  1  0  0  0  0
  8 24  1  0  0  0  0
  9 10  1  0  0  0  0
  9 17  1  0  0  0  0
 10 11  1  0  0  0  0
 10 19  1  0  0  0  0
 11 20  1  0  0  0  0
 11 21  1  0  0  0  0
 12 11  1  0  0  0  0
 14  2  1  0  0  0  0
 15  3  1  0  0  0  0
 18  9  1  0  0  0  0
 22 12  1  0  0  0  0
 23 12  1  0  0  0  0
 24 28  1  0  0  0  0
 24 25  2  0  0  0  0
 25 29  1  0  0  0  0
 25 26  1  0  0  0  0
 26 30  1  0  0  0  0
 27 32  1  0  0  0  0
 27 26  1  0  0  0  0
 28 27  2  0  0  0  0
 31 32  2  0  0  0  0
 31 37  1  0  0  0  0
 32 33  1  0  0  0  0
 33 34  1  0  0  0  0
 33 35  2  0  0  0  0
 35 41  1  0  0  0  0
 36 35  1  0  0  0  0
 36 38  1  0  0  0  0
 37 36  2  0  0  0  0
 38 39  1  0  0  0  0
 39 40  1  0  0  0  0
 41 39  1  0  0  0  0
M  END
>  <minimizedAffinity>
-5.41843987

>  <minimizedRMSD>
0.420434445

$$$$
