
 OpenBabel03242523383D

 21 23  0  0  0  0  0  0  0  0999 V2000
   45.2800   33.2040   47.2440 C   0  0  0  0  0  3  0  0  0  0  0  0
   45.6410   32.9540   45.9410 C   0  0  0  0  0  0  0  0  0  0  0  0
   46.0610   31.7000   45.4830 C   0  0  0  0  0  0  0  0  0  0  0  0
   46.3370   31.5200   44.4740 H   0  0  0  0  0  0  0  0  0  0  0  0
   46.0820   30.7150   46.4680 C   0  0  0  0  0  0  0  0  0  0  0  0
   45.7360   30.8910   47.7910 C   0  0  0  0  0  0  0  0  0  0  0  0
   45.3360   32.1740   48.1340 C   0  0  0  0  0  3  0  0  0  0  0  0
   45.9030   29.6610   48.4090 O   0  0  0  0  0  0  0  0  0  0  0  0
   46.5330   28.7770   47.5200 C   0  0  0  0  0  3  0  0  0  0  0  0
   46.0120   27.7960   47.5010 H   0  0  0  0  0  0  0  0  0  0  0  0
   46.4670   29.3780   46.2570 O   0  0  0  0  0  0  0  0  0  0  0  0
   44.7050   36.0810   44.2420 C   0  0  0  0  0  0  0  0  0  0  0  0
   45.5330   36.0620   43.0910 C   0  0  0  0  0  0  0  0  0  0  0  0
   46.4010   34.9590   42.9300 C   0  0  0  0  0  0  0  0  0  0  0  0
   46.3950   33.9920   43.8740 N   0  0  0  0  0  0  0  0  0  0  0  0
   45.5920   34.0490   44.9520 C   0  0  0  0  0  0  0  0  0  0  0  0
   44.7610   35.0780   45.1330 N   0  0  0  0  0  0  0  0  0  0  0  0
   44.0870   36.9520   44.2730 H   0  0  0  0  0  0  0  0  0  0  0  0
   45.5240   36.8420   42.3510 H   0  0  0  0  0  0  0  0  0  0  0  0
   47.4630   34.8760   41.5090 S   0  0  0  0  0  0  0  0  0  0  0  0
   47.9730   33.5470   41.4380 H   0  0  0  0  0  0  0  0  0  0  0  0
  1  7  1  0  0  0  0
  2  1  2  0  0  0  0
  3  2  1  0  0  0  0
  3  5  2  0  0  0  0
  4  3  1  0  0  0  0
  5  6  1  0  0  0  0
  6  7  2  0  0  0  0
  6  8  1  0  0  0  0
  9  8  1  0  0  0  0
 10  9  1  0  0  0  0
 11  5  1  0  0  0  0
 11  9  1  0  0  0  0
 12 18  1  0  0  0  0
 12 17  1  0  0  0  0
 13 12  2  0  0  0  0
 14 13  1  0  0  0  0
 14 15  2  0  0  0  0
 15 16  1  0  0  0  0
 16 17  2  0  0  0  0
 16  2  1  0  0  0  0
 19 13  1  0  0  0  0
 20 14  1  0  0  0  0
 21 20  1  0  0  0  0
M  END
>  <minimizedAffinity>
-4.64732981

>  <minimizedRMSD>
0.857249856

$$$$
