
 OpenBabel03242516173D

 45 49  0  0  1  0  0  0  0  0999 V2000
   37.3820   31.5750   37.6440 C   0  0  0  0  0  0  0  0  0  0  0  0
   36.8680   30.3950   38.1920 C   0  0  0  0  0  0  0  0  0  0  0  0
   36.5800   30.3780   39.5600 C   0  0  0  0  0  0  0  0  0  0  0  0
   36.8140   31.5070   40.2840 N   0  0  0  0  0  0  0  0  0  0  0  0
   37.3070   32.6040   39.7040 C   0  0  0  0  0  0  0  0  0  0  0  0
   37.5880   32.6540   38.4230 N   0  0  0  0  0  0  0  0  0  0  0  0
   37.5630   33.8010   40.4470 N   0  0  0  0  0  0  0  0  0  0  0  0
   37.6040   31.5870   36.5820 H   0  0  0  0  0  0  0  0  0  0  0  0
   38.5680   34.1160   40.4210 H   0  0  0  0  0  0  0  0  0  0  0  0
   36.7450   34.2560   40.9450 H   0  0  0  0  0  0  0  0  0  0  0  0
   36.6520   29.1910   37.3230 C   0  0  0  0  0  0  0  0  0  0  0  0
   35.2090   28.7090   37.2210 C   0  0  0  0  0  0  0  0  0  0  0  0
   35.9010   29.3450   36.1150 C   0  0  0  0  0  0  0  0  0  0  0  0
   34.9960   27.6190   37.1650 H   0  0  0  0  0  0  0  0  0  0  0  0
   34.5000   29.2010   37.9230 H   0  0  0  0  0  0  0  0  0  0  0  0
   36.1650   28.6760   35.2460 H   0  0  0  0  0  0  0  0  0  0  0  0
   35.2420   30.1610   35.7720 H   0  0  0  0  0  0  0  0  0  0  0  0
   37.6190   28.0670   37.4620 C   0  0  0  0  0  0  0  0  0  0  0  0
   39.0000   28.4540   37.9510 C   0  0  0  0  0  0  0  0  0  0  0  0
   39.7590   27.1460   38.1160 C   0  0  0  0  0  0  0  0  0  0  0  0
   40.1020   26.7300   36.8120 O   0  0  0  0  0  0  0  0  0  0  0  0
   38.8620   26.2660   36.3000 C   0  0  0  0  0  0  0  0  0  0  0  0
   37.9260   27.4400   36.0760 C   0  0  0  0  0  0  0  0  0  0  0  0
   37.2300   27.2810   38.1070 H   0  0  0  0  0  0  0  0  0  0  0  0
   38.9260   28.8770   38.9900 H   0  0  0  0  0  0  0  0  0  0  0  0
   39.5400   29.1190   37.2500 H   0  0  0  0  0  0  0  0  0  0  0  0
   40.7140   27.2930   38.6850 H   0  0  0  0  0  0  0  0  0  0  0  0
   39.1280   26.3680   38.5690 H   0  0  0  0  0  0  0  0  0  0  0  0
   39.1060   25.8140   35.3290 H   0  0  0  0  0  0  0  0  0  0  0  0
   38.3710   25.5910   37.0170 H   0  0  0  0  0  0  0  0  0  0  0  0
   36.9750   26.9830   35.7170 H   0  0  0  0  0  0  0  0  0  0  0  0
   38.3160   28.1910   35.3840 H   0  0  0  0  0  0  0  0  0  0  0  0
   36.0700   29.2290   40.2320 C   0  0  2  0  0  3  0  0  0  0  0  0
   34.8140   28.9240   40.3670 O   0  0  0  0  0  1  0  0  0  0  0  0
   36.6550   27.9080   42.3060 C   0  0  0  0  0  3  0  0  0  0  0  0
   36.3940   28.0400   40.9710 C   0  0  0  0  0  0  0  0  0  0  0  0
   36.5660   26.8660   40.2260 C   0  0  0  0  0  0  0  0  0  0  0  0
   36.3820   26.8740   39.1580 H   0  0  0  0  0  0  0  0  0  0  0  0
   36.9570   25.6510   40.7120 C   0  0  0  0  0  0  0  0  0  0  0  0
   37.2080   25.5610   42.0580 C   0  0  0  0  0  0  0  0  0  0  0  0
   37.0580   26.6750   42.8390 C   0  0  0  0  0  3  0  0  0  0  0  0
   37.5890   24.2390   42.3280 O   0  0  0  0  0  0  0  0  0  0  0  0
   37.9830   23.6400   41.0980 C   0  0  0  0  0  3  0  0  0  0  0  0
   37.7690   22.5730   41.1050 H   0  0  0  0  0  0  0  0  0  0  0  0
   37.1870   24.3790   40.1570 O   0  0  0  0  0  0  0  0  0  0  0  0
  1  2  2  0  0  0  0
  1  6  1  0  0  0  0
  2  3  1  0  0  0  0
  3 33  1  0  0  0  0
  3  4  2  0  0  0  0
  5  4  1  0  0  0  0
  5  7  1  0  0  0  0
  6  5  2  0  0  0  0
  7 10  1  0  0  0  0
  8  1  1  0  0  0  0
  9  7  1  0  0  0  0
 11 18  1  0  0  0  0
 11  2  1  0  0  0  0
 12 11  1  0  0  0  0
 12 15  1  0  0  0  0
 13 12  1  0  0  0  0
 13 11  1  0  0  0  0
 14 12  1  0  0  0  0
 16 13  1  0  0  0  0
 17 13  1  0  0  0  0
 18 19  1  0  0  0  0
 18 24  1  0  0  0  0
 19 20  1  0  0  0  0
 19 25  1  0  0  0  0
 20 28  1  0  0  0  0
 20 27  1  0  0  0  0
 21 20  1  0  0  0  0
 22 21  1  0  0  0  0
 22 30  1  0  0  0  0
 23 22  1  0  0  0  0
 23 18  1  0  0  0  0
 26 19  1  0  0  0  0
 29 22  1  0  0  0  0
 31 23  1  0  0  0  0
 32 23  1  0  0  0  0
 33 34  1  1  0  0  0
 33 36  1  0  0  0  0
 35 41  1  0  0  0  0
 36 35  2  0  0  0  0
 37 39  2  0  0  0  0
 37 36  1  0  0  0  0
 38 37  1  0  0  0  0
 39 40  1  0  0  0  0
 40 42  1  0  0  0  0
 40 41  2  0  0  0  0
 43 44  1  0  0  0  0
 43 42  1  0  0  0  0
 45 39  1  0  0  0  0
 45 43  1  0  0  0  0
M  END
>  <minimizedAffinity>
-6.20275879

$$$$

 OpenBabel03242516173D

 45 49  0  0  1  0  0  0  0  0999 V2000
   40.2860   29.2540   42.6110 C   0  0  0  0  0  0  0  0  0  0  0  0
   38.9870   29.1960   42.0940 C   0  0  0  0  0  0  0  0  0  0  0  0
   38.4910   30.3270   41.4390 C   0  0  0  0  0  0  0  0  0  0  0  0
   39.2940   31.4210   41.3400 N   0  0  0  0  0  0  0  0  0  0  0  0
   40.5260   31.4170   41.8550 C   0  0  0  0  0  0  0  0  0  0  0  0
   41.0230   30.3730   42.4760 N   0  0  0  0  0  0  0  0  0  0  0  0
   41.3870   32.5570   41.7640 N   0  0  0  0  0  0  0  0  0  0  0  0
   40.6700   28.3750   43.1190 H   0  0  0  0  0  0  0  0  0  0  0  0
   41.6930   32.9400   42.6970 H   0  0  0  0  0  0  0  0  0  0  0  0
   41.6360   32.9110   40.7960 H   0  0  0  0  0  0  0  0  0  0  0  0
   38.1650   27.9520   42.2590 C   0  0  0  0  0  0  0  0  0  0  0  0
   38.0880   27.4030   43.6800 C   0  0  0  0  0  0  0  0  0  0  0  0
   36.9550   28.0260   43.0190 C   0  0  0  0  0  0  0  0  0  0  0  0
   38.0750   26.3030   43.8440 H   0  0  0  0  0  0  0  0  0  0  0  0
   38.7730   27.8900   44.4080 H   0  0  0  0  0  0  0  0  0  0  0  0
   36.1110   27.3360   42.7280 H   0  0  0  0  0  0  0  0  0  0  0  0
   36.5840   28.7980   43.7140 H   0  0  0  0  0  0  0  0  0  0  0  0
   38.3420   26.8780   41.2430 C   0  0  0  0  0  0  0  0  0  0  0  0
   39.0300   27.3010   39.9610 C   0  0  0  0  0  0  0  0  0  0  0  0
   39.1940   26.0310   39.1410 C   0  0  0  0  0  0  0  0  0  0  0  0
   37.9170   25.7420   38.6150 O   0  0  0  0  0  0  0  0  0  0  0  0
   37.2190   25.2500   39.7500 C   0  0  0  0  0  0  0  0  0  0  0  0
   36.9640   26.3830   40.7280 C   0  0  0  0  0  0  0  0  0  0  0  0
   38.8740   26.0200   41.6540 H   0  0  0  0  0  0  0  0  0  0  0  0
   40.0790   27.6350   40.1890 H   0  0  0  0  0  0  0  0  0  0  0  0
   38.4530   28.0520   39.3850 H   0  0  0  0  0  0  0  0  0  0  0  0
   39.8880   26.1850   38.2750 H   0  0  0  0  0  0  0  0  0  0  0  0
   39.5050   25.1840   39.7700 H   0  0  0  0  0  0  0  0  0  0  0  0
   36.2560   24.8930   39.3590 H   0  0  0  0  0  0  0  0  0  0  0  0
   37.8160   24.4920   40.2780 H   0  0  0  0  0  0  0  0  0  0  0  0
   36.4550   25.9020   41.5950 H   0  0  0  0  0  0  0  0  0  0  0  0
   36.3850   27.2090   40.3070 H   0  0  0  0  0  0  0  0  0  0  0  0
   37.1780   30.3910   40.8870 C   0  0  2  0  0  3  0  0  0  0  0  0
   36.1820   31.0670   41.3760 O   0  0  0  0  0  1  0  0  0  0  0  0
   35.0890   29.3340   39.9330 C   0  0  0  0  0  3  0  0  0  0  0  0
   36.3060   29.9490   39.8340 C   0  0  0  0  0  0  0  0  0  0  0  0
   36.7930   30.0670   38.5250 C   0  0  0  0  0  0  0  0  0  0  0  0
   37.7500   30.5420   38.3470 H   0  0  0  0  0  0  0  0  0  0  0  0
   36.1690   29.6330   37.3900 C   0  0  0  0  0  0  0  0  0  0  0  0
   34.9500   29.0220   37.5340 C   0  0  0  0  0  0  0  0  0  0  0  0
   34.4220   28.8760   38.7880 C   0  0  0  0  0  3  0  0  0  0  0  0
   34.5040   28.6650   36.2530 O   0  0  0  0  0  0  0  0  0  0  0  0
   35.6310   28.6700   35.3830 C   0  0  0  0  0  3  0  0  0  0  0  0
   35.3330   28.9400   34.3710 H   0  0  0  0  0  0  0  0  0  0  0  0
   36.4710   29.6490   36.0150 O   0  0  0  0  0  0  0  0  0  0  0  0
  1  8  1  0  0  0  0
  2 11  1  0  0  0  0
  2  1  2  0  0  0  0
  3  2  1  0  0  0  0
  4  3  2  0  0  0  0
  4  5  1  0  0  0  0
  5  6  2  0  0  0  0
  6  1  1  0  0  0  0
  7  5  1  0  0  0  0
  7  9  1  0  0  0  0
 10  7  1  0  0  0  0
 11 13  1  0  0  0  0
 11 12  1  0  0  0  0
 12 14  1  0  0  0  0
 12 15  1  0  0  0  0
 13 12  1  0  0  0  0
 13 17  1  0  0  0  0
 16 13  1  0  0  0  0
 18 24  1  0  0  0  0
 18 11  1  0  0  0  0
 19 25  1  0  0  0  0
 19 18  1  0  0  0  0
 20 28  1  0  0  0  0
 20 19  1  0  0  0  0
 21 20  1  0  0  0  0
 21 22  1  0  0  0  0
 22 30  1  0  0  0  0
 22 23  1  0  0  0  0
 23 18  1  0  0  0  0
 23 31  1  0  0  0  0
 26 19  1  0  0  0  0
 27 20  1  0  0  0  0
 29 22  1  0  0  0  0
 32 23  1  0  0  0  0
 33 34  1  1  0  0  0
 33  3  1  0  0  0  0
 36 35  1  0  0  0  0
 36 33  1  0  0  0  0
 37 36  2  0  0  0  0
 38 37  1  0  0  0  0
 39 40  2  0  0  0  0
 39 37  1  0  0  0  0
 40 41  1  0  0  0  0
 41 35  2  0  0  0  0
 42 40  1  0  0  0  0
 43 45  1  0  0  0  0
 43 42  1  0  0  0  0
 44 43  1  0  0  0  0
 45 39  1  0  0  0  0
M  END
>  <minimizedAffinity>
-5.96900463

$$$$

 OpenBabel03242516173D

 45 49  0  0  1  0  0  0  0  0999 V2000
   36.1740   29.6450   36.9990 C   0  0  0  0  0  0  0  0  0  0  0  0
   36.7880   29.5970   38.2550 C   0  0  0  0  0  0  0  0  0  0  0  0
   36.0210   29.1740   39.3440 C   0  0  0  0  0  0  0  0  0  0  0  0
   34.7210   28.8330   39.1250 N   0  0  0  0  0  0  0  0  0  0  0  0
   34.1910   28.9010   37.9020 C   0  0  0  0  0  0  0  0  0  0  0  0
   34.8820   29.2930   36.8580 N   0  0  0  0  0  0  0  0  0  0  0  0
   32.8250   28.5490   37.6500 N   0  0  0  0  0  0  0  0  0  0  0  0
   36.7720   29.9740   36.1540 H   0  0  0  0  0  0  0  0  0  0  0  0
   32.2490   29.3320   37.2440 H   0  0  0  0  0  0  0  0  0  0  0  0
   32.5190   27.5620   37.8860 H   0  0  0  0  0  0  0  0  0  0  0  0
   38.2240   30.0030   38.4090 C   0  0  0  0  0  0  0  0  0  0  0  0
   39.2080   28.8570   38.6270 C   0  0  0  0  0  0  0  0  0  0  0  0
   39.1560   29.6210   37.3930 C   0  0  0  0  0  0  0  0  0  0  0  0
   40.0740   28.9990   39.3100 H   0  0  0  0  0  0  0  0  0  0  0  0
   38.7380   27.8650   38.8060 H   0  0  0  0  0  0  0  0  0  0  0  0
   40.0300   30.3070   37.2000 H   0  0  0  0  0  0  0  0  0  0  0  0
   39.0760   28.8790   36.5800 H   0  0  0  0  0  0  0  0  0  0  0  0
   38.5120   31.1740   39.2830 C   0  0  0  0  0  0  0  0  0  0  0  0
   37.5430   32.3320   39.1590 C   0  0  0  0  0  0  0  0  0  0  0  0
   37.9730   33.3430   40.2110 C   0  0  0  0  0  0  0  0  0  0  0  0
   39.1260   33.9710   39.6950 O   0  0  0  0  0  0  0  0  0  0  0  0
   40.1210   32.9700   39.8530 C   0  0  0  0  0  0  0  0  0  0  0  0
   39.8610   31.8310   38.8840 C   0  0  0  0  0  0  0  0  0  0  0  0
   38.5770   30.8860   40.3310 H   0  0  0  0  0  0  0  0  0  0  0  0
   36.5180   32.0000   39.4800 H   0  0  0  0  0  0  0  0  0  0  0  0
   37.5520   32.8020   38.1560 H   0  0  0  0  0  0  0  0  0  0  0  0
   37.1960   34.1360   40.3620 H   0  0  0  0  0  0  0  0  0  0  0  0
   38.2450   32.8500   41.1560 H   0  0  0  0  0  0  0  0  0  0  0  0
   41.0650   33.4610   39.5800 H   0  0  0  0  0  0  0  0  0  0  0  0
   40.0920   32.5470   40.8680 H   0  0  0  0  0  0  0  0  0  0  0  0
   40.6560   31.0810   39.1050 H   0  0  0  0  0  0  0  0  0  0  0  0
   39.8520   32.1350   37.8340 H   0  0  0  0  0  0  0  0  0  0  0  0
   36.5320   29.1000   40.6730 C   0  0  2  0  0  3  0  0  0  0  0  0
   36.2850   29.9460   41.6280 O   0  0  0  0  0  1  0  0  0  0  0  0
   38.2070   28.8530   42.5500 C   0  0  0  0  0  3  0  0  0  0  0  0
   37.3600   28.3700   41.5910 C   0  0  0  0  0  0  0  0  0  0  0  0
   37.3930   26.9770   41.4350 C   0  0  0  0  0  0  0  0  0  0  0  0
   36.7550   26.5030   40.6990 H   0  0  0  0  0  0  0  0  0  0  0  0
   38.1720   26.1040   42.1380 C   0  0  0  0  0  0  0  0  0  0  0  0
   39.0070   26.6300   43.0910 C   0  0  0  0  0  0  0  0  0  0  0  0
   39.0210   27.9840   43.2900 C   0  0  0  0  0  3  0  0  0  0  0  0
   39.7010   25.5620   43.6790 O   0  0  0  0  0  0  0  0  0  0  0  0
   39.6080   24.4470   42.8000 C   0  0  0  0  0  3  0  0  0  0  0  0
   39.6190   23.5140   43.3610 H   0  0  0  0  0  0  0  0  0  0  0  0
   38.3590   24.7090   42.1420 O   0  0  0  0  0  0  0  0  0  0  0  0
  1  2  1  0  0  0  0
  2 11  1  0  0  0  0
  2  3  2  0  0  0  0
  3 33  1  0  0  0  0
  4  3  1  0  0  0  0
  5  4  2  0  0  0  0
  6  1  2  0  0  0  0
  6  5  1  0  0  0  0
  7 10  1  0  0  0  0
  7  5  1  0  0  0  0
  8  1  1  0  0  0  0
  9  7  1  0  0  0  0
 11 12  1  0  0  0  0
 11 18  1  0  0  0  0
 12 15  1  0  0  0  0
 12 14  1  0  0  0  0
 13 11  1  0  0  0  0
 13 12  1  0  0  0  0
 16 13  1  0  0  0  0
 17 13  1  0  0  0  0
 18 24  1  0  0  0  0
 19 18  1  0  0  0  0
 19 25  1  0  0  0  0
 19 20  1  0  0  0  0
 20 27  1  0  0  0  0
 20 28  1  0  0  0  0
 21 22  1  0  0  0  0
 21 20  1  0  0  0  0
 22 30  1  0  0  0  0
 23 31  1  0  0  0  0
 23 18  1  0  0  0  0
 23 22  1  0  0  0  0
 26 19  1  0  0  0  0
 29 22  1  0  0  0  0
 32 23  1  0  0  0  0
 33 36  1  0  0  0  0
 33 34  1  6  0  0  0
 35 41  1  0  0  0  0
 36 35  2  0  0  0  0
 37 36  1  0  0  0  0
 37 39  2  0  0  0  0
 38 37  1  0  0  0  0
 39 45  1  0  0  0  0
 39 40  1  0  0  0  0
 40 41  2  0  0  0  0
 40 42  1  0  0  0  0
 43 44  1  0  0  0  0
 43 42  1  0  0  0  0
 45 43  1  0  0  0  0
M  END
>  <minimizedAffinity>
-5.95850611

$$$$

 OpenBabel03242516173D

 45 49  0  0  1  0  0  0  0  0999 V2000
   38.9320   25.4930   42.9060 C   0  0  0  0  0  0  0  0  0  0  0  0
   38.8760   26.8540   42.5850 C   0  0  0  0  0  0  0  0  0  0  0  0
   40.0820   27.5320   42.3910 C   0  0  0  0  0  0  0  0  0  0  0  0
   41.2440   26.8350   42.5240 N   0  0  0  0  0  0  0  0  0  0  0  0
   41.2340   25.5360   42.8330 C   0  0  0  0  0  0  0  0  0  0  0  0
   40.1200   24.8690   43.0220 N   0  0  0  0  0  0  0  0  0  0  0  0
   42.4440   24.7850   42.9800 N   0  0  0  0  0  0  0  0  0  0  0  0
   37.9930   24.9670   43.0560 H   0  0  0  0  0  0  0  0  0  0  0  0
   42.5670   24.3510   43.9320 H   0  0  0  0  0  0  0  0  0  0  0  0
   43.0940   24.7300   42.1440 H   0  0  0  0  0  0  0  0  0  0  0  0
   37.5500   27.5470   42.4710 C   0  0  0  0  0  0  0  0  0  0  0  0
   36.6300   27.4020   43.6780 C   0  0  0  0  0  0  0  0  0  0  0  0
   37.2790   28.6550   43.3350 C   0  0  0  0  0  0  0  0  0  0  0  0
   35.5330   27.3070   43.5240 H   0  0  0  0  0  0  0  0  0  0  0  0
   36.9730   26.6720   44.4440 H   0  0  0  0  0  0  0  0  0  0  0  0
   36.6050   29.4700   42.9440 H   0  0  0  0  0  0  0  0  0  0  0  0
   37.7860   28.9960   44.2530 H   0  0  0  0  0  0  0  0  0  0  0  0
   36.8200   27.4120   41.1790 C   0  0  0  0  0  0  0  0  0  0  0  0
   37.6270   26.8390   40.0320 C   0  0  0  0  0  0  0  0  0  0  0  0
   36.6530   26.6970   38.8730 C   0  0  0  0  0  0  0  0  0  0  0  0
   36.4580   28.0000   38.3690 O   0  0  0  0  0  0  0  0  0  0  0  0
   35.6280   28.5930   39.3570 C   0  0  0  0  0  0  0  0  0  0  0  0
   36.4210   28.8090   40.6330 C   0  0  0  0  0  0  0  0  0  0  0  0
   35.9110   26.8240   41.2920 H   0  0  0  0  0  0  0  0  0  0  0  0
   37.9370   25.7870   40.2800 H   0  0  0  0  0  0  0  0  0  0  0  0
   38.4790   27.4820   39.7340 H   0  0  0  0  0  0  0  0  0  0  0  0
   37.0830   26.0760   38.0460 H   0  0  0  0  0  0  0  0  0  0  0  0
   35.6790   26.3110   39.2110 H   0  0  0  0  0  0  0  0  0  0  0  0
   35.3460   29.5710   38.9420 H   0  0  0  0  0  0  0  0  0  0  0  0
   34.7840   27.9330   39.6060 H   0  0  0  0  0  0  0  0  0  0  0  0
   35.6870   29.2350   41.3570 H   0  0  0  0  0  0  0  0  0  0  0  0
   37.3000   29.4460   40.5060 H   0  0  0  0  0  0  0  0  0  0  0  0
   40.1510   28.9210   42.0780 C   0  0  2  0  0  3  0  0  0  0  0  0
   40.3540   29.8810   42.9300 O   0  0  0  0  0  1  0  0  0  0  0  0
   39.7730   29.7460   39.7190 C   0  0  0  0  0  3  0  0  0  0  0  0
   40.0730   29.9130   41.0420 C   0  0  0  0  0  0  0  0  0  0  0  0
   40.4450   31.2180   41.3940 C   0  0  0  0  0  0  0  0  0  0  0  0
   40.7000   31.4470   42.4210 H   0  0  0  0  0  0  0  0  0  0  0  0
   40.5260   32.2890   40.5510 C   0  0  0  0  0  0  0  0  0  0  0  0
   40.2160   32.0790   39.2310 C   0  0  0  0  0  0  0  0  0  0  0  0
   39.8460   30.8240   38.8260 C   0  0  0  0  0  3  0  0  0  0  0  0
   40.3670   33.3020   38.5620 O   0  0  0  0  0  0  0  0  0  0  0  0
   41.1740   34.1460   39.3770 C   0  0  0  0  0  3  0  0  0  0  0  0
   40.9020   35.1900   39.2340 H   0  0  0  0  0  0  0  0  0  0  0  0
   40.8690   33.6470   40.6890 O   0  0  0  0  0  0  0  0  0  0  0  0
  1  6  1  0  0  0  0
  1  8  1  0  0  0  0
  2  1  2  0  0  0  0
  3  4  2  0  0  0  0
  3  2  1  0  0  0  0
  4  5  1  0  0  0  0
  5  7  1  0  0  0  0
  5  6  2  0  0  0  0
  7  9  1  0  0  0  0
 10  7  1  0  0  0  0
 11  2  1  0  0  0  0
 11 13  1  0  0  0  0
 11 12  1  0  0  0  0
 12 15  1  0  0  0  0
 13 12  1  0  0  0  0
 13 17  1  0  0  0  0
 14 12  1  0  0  0  0
 16 13  1  0  0  0  0
 18 24  1  0  0  0  0
 18 11  1  0  0  0  0
 19 25  1  0  0  0  0
 19 18  1  0  0  0  0
 20 28  1  0  0  0  0
 20 19  1  0  0  0  0
 21 20  1  0  0  0  0
 21 22  1  0  0  0  0
 22 30  1  0  0  0  0
 22 23  1  0  0  0  0
 23 18  1  0  0  0  0
 23 31  1  0  0  0  0
 26 19  1  0  0  0  0
 27 20  1  0  0  0  0
 29 22  1  0  0  0  0
 32 23  1  0  0  0  0
 33  3  1  0  0  0  0
 33 34  1  1  0  0  0
 35 36  1  0  0  0  0
 36 37  2  0  0  0  0
 36 33  1  0  0  0  0
 37 38  1  0  0  0  0
 39 45  1  0  0  0  0
 39 37  1  0  0  0  0
 40 39  2  0  0  0  0
 41 40  1  0  0  0  0
 41 35  2  0  0  0  0
 42 40  1  0  0  0  0
 42 43  1  0  0  0  0
 43 45  1  0  0  0  0
 44 43  1  0  0  0  0
M  END
>  <minimizedAffinity>
-5.92095709

$$$$

 OpenBabel03242516173D

 45 49  0  0  1  0  0  0  0  0999 V2000
   41.1520   31.4300   39.5790 C   0  0  0  0  0  0  0  0  0  0  0  0
   40.2460   30.7520   40.4030 C   0  0  0  0  0  0  0  0  0  0  0  0
   38.9420   30.5700   39.9330 C   0  0  0  0  0  0  0  0  0  0  0  0
   38.6240   31.0590   38.7030 N   0  0  0  0  0  0  0  0  0  0  0  0
   39.5320   31.6990   37.9640 C   0  0  0  0  0  0  0  0  0  0  0  0
   40.7640   31.8870   38.3740 N   0  0  0  0  0  0  0  0  0  0  0  0
   39.2180   32.2240   36.6690 N   0  0  0  0  0  0  0  0  0  0  0  0
   42.1640   31.5700   39.9460 H   0  0  0  0  0  0  0  0  0  0  0  0
   39.3570   33.2650   36.5820 H   0  0  0  0  0  0  0  0  0  0  0  0
   38.8820   31.5430   35.9290 H   0  0  0  0  0  0  0  0  0  0  0  0
   40.6790   30.2560   41.7510 C   0  0  0  0  0  0  0  0  0  0  0  0
   41.3970   31.2790   42.6250 C   0  0  0  0  0  0  0  0  0  0  0  0
   40.0550   30.8050   42.9160 C   0  0  0  0  0  0  0  0  0  0  0  0
   42.2350   30.9520   43.2790 H   0  0  0  0  0  0  0  0  0  0  0  0
   41.6610   32.2300   42.1120 H   0  0  0  0  0  0  0  0  0  0  0  0
   39.9530   30.1360   43.8180 H   0  0  0  0  0  0  0  0  0  0  0  0
   39.4360   31.7080   43.0460 H   0  0  0  0  0  0  0  0  0  0  0  0
   41.3150   28.9110   41.8100 C   0  0  0  0  0  0  0  0  0  0  0  0
   41.1890   28.0750   40.5520 C   0  0  0  0  0  0  0  0  0  0  0  0
   41.9990   26.8140   40.8120 C   0  0  0  0  0  0  0  0  0  0  0  0
   41.2150   26.0220   41.6770 O   0  0  0  0  0  0  0  0  0  0  0  0
   41.3480   26.6950   42.9190 C   0  0  0  0  0  0  0  0  0  0  0  0
   40.6090   28.0210   42.8670 C   0  0  0  0  0  0  0  0  0  0  0  0
   42.3690   28.9770   42.0780 H   0  0  0  0  0  0  0  0  0  0  0  0
   41.7190   28.5890   39.7040 H   0  0  0  0  0  0  0  0  0  0  0  0
   40.1410   27.8090   40.3100 H   0  0  0  0  0  0  0  0  0  0  0  0
   42.1610   26.2280   39.8710 H   0  0  0  0  0  0  0  0  0  0  0  0
   42.9460   27.0430   41.3210 H   0  0  0  0  0  0  0  0  0  0  0  0
   40.8550   26.0420   43.6520 H   0  0  0  0  0  0  0  0  0  0  0  0
   42.4030   26.9200   43.1320 H   0  0  0  0  0  0  0  0  0  0  0  0
   40.8000   28.4940   43.8590 H   0  0  0  0  0  0  0  0  0  0  0  0
   39.5420   27.9250   42.6480 H   0  0  0  0  0  0  0  0  0  0  0  0
   37.9290   29.9110   40.6890 C   0  0  2  0  0  3  0  0  0  0  0  0
   36.8380   30.4590   41.1360 O   0  0  0  0  0  1  0  0  0  0  0  0
   37.0430   28.4630   42.5630 C   0  0  0  0  0  3  0  0  0  0  0  0
   37.5080   28.6780   41.2950 C   0  0  0  0  0  0  0  0  0  0  0  0
   37.6780   27.5140   40.5330 C   0  0  0  0  0  0  0  0  0  0  0  0
   38.0410   27.5860   39.5150 H   0  0  0  0  0  0  0  0  0  0  0  0
   37.4260   26.2370   40.9440 C   0  0  0  0  0  0  0  0  0  0  0  0
   36.9610   26.0650   42.2230 C   0  0  0  0  0  0  0  0  0  0  0  0
   36.7740   27.1640   43.0170 C   0  0  0  0  0  3  0  0  0  0  0  0
   36.7740   24.6890   42.4220 O   0  0  0  0  0  0  0  0  0  0  0  0
   37.5240   24.0000   41.4280 C   0  0  0  0  0  3  0  0  0  0  0  0
   37.0430   23.0590   41.1680 H   0  0  0  0  0  0  0  0  0  0  0  0
   37.5250   24.9600   40.3600 O   0  0  0  0  0  0  0  0  0  0  0  0
  1  8  1  0  0  0  0
  1  2  1  0  0  0  0
  2 11  1  0  0  0  0
  3  2  2  0  0  0  0
  3 33  1  0  0  0  0
  4  3  1  0  0  0  0
  5  6  1  0  0  0  0
  5  4  2  0  0  0  0
  6  1  2  0  0  0  0
  7  5  1  0  0  0  0
  9  7  1  0  0  0  0
 10  7  1  0  0  0  0
 11 18  1  0  0  0  0
 11 12  1  0  0  0  0
 11 13  1  0  0  0  0
 12 13  1  0  0  0  0
 12 14  1  0  0  0  0
 13 17  1  0  0  0  0
 13 16  1  0  0  0  0
 15 12  1  0  0  0  0
 18 24  1  0  0  0  0
 18 23  1  0  0  0  0
 19 20  1  0  0  0  0
 19 18  1  0  0  0  0
 20 28  1  0  0  0  0
 20 21  1  0  0  0  0
 21 22  1  0  0  0  0
 22 30  1  0  0  0  0
 22 29  1  0  0  0  0
 23 22  1  0  0  0  0
 23 31  1  0  0  0  0
 25 19  1  0  0  0  0
 26 19  1  0  0  0  0
 27 20  1  0  0  0  0
 32 23  1  0  0  0  0
 33 34  1  1  0  0  0
 33 36  1  0  0  0  0
 35 41  1  0  0  0  0
 36 35  2  0  0  0  0
 37 39  2  0  0  0  0
 37 36  1  0  0  0  0
 38 37  1  0  0  0  0
 39 40  1  0  0  0  0
 40 42  1  0  0  0  0
 40 41  2  0  0  0  0
 43 42  1  0  0  0  0
 44 43  1  0  0  0  0
 45 39  1  0  0  0  0
 45 43  1  0  0  0  0
M  END
>  <minimizedAffinity>
-5.81668329

$$$$

 OpenBabel03242516173D

 45 49  0  0  1  0  0  0  0  0999 V2000
   36.9640   31.1510   38.8500 C   0  0  0  0  0  0  0  0  0  0  0  0
   37.2830   29.8060   39.0670 C   0  0  0  0  0  0  0  0  0  0  0  0
   38.4740   29.3190   38.5220 C   0  0  0  0  0  0  0  0  0  0  0  0
   39.2580   30.1760   37.8110 N   0  0  0  0  0  0  0  0  0  0  0  0
   38.8990   31.4500   37.6370 C   0  0  0  0  0  0  0  0  0  0  0  0
   37.7890   31.9400   38.1350 N   0  0  0  0  0  0  0  0  0  0  0  0
   39.7070   32.3680   36.8920 N   0  0  0  0  0  0  0  0  0  0  0  0
   36.0380   31.5280   39.2750 H   0  0  0  0  0  0  0  0  0  0  0  0
   39.2200   32.7890   36.0580 H   0  0  0  0  0  0  0  0  0  0  0  0
   40.6970   32.5410   37.2310 H   0  0  0  0  0  0  0  0  0  0  0  0
   36.3550   28.9280   39.8530 C   0  0  0  0  0  0  0  0  0  0  0  0
   34.8740   29.0790   39.5200 C   0  0  0  0  0  0  0  0  0  0  0  0
   35.6400   27.8970   39.1650 C   0  0  0  0  0  0  0  0  0  0  0  0
   34.1180   29.0040   40.3320 H   0  0  0  0  0  0  0  0  0  0  0  0
   34.6290   29.9300   38.8470 H   0  0  0  0  0  0  0  0  0  0  0  0
   35.3950   26.9580   39.7400 H   0  0  0  0  0  0  0  0  0  0  0  0
   35.4650   27.7340   38.0890 H   0  0  0  0  0  0  0  0  0  0  0  0
   36.6000   28.8160   41.3180 C   0  0  0  0  0  0  0  0  0  0  0  0
   37.8910   29.4360   41.8110 C   0  0  0  0  0  0  0  0  0  0  0  0
   37.8640   29.2960   43.3250 C   0  0  0  0  0  0  0  0  0  0  0  0
   38.1590   27.9420   43.5940 O   0  0  0  0  0  0  0  0  0  0  0  0
   36.9520   27.2860   43.2340 C   0  0  0  0  0  0  0  0  0  0  0  0
   36.7730   27.3290   41.7270 C   0  0  0  0  0  0  0  0  0  0  0  0
   35.7740   29.2290   41.8960 H   0  0  0  0  0  0  0  0  0  0  0  0
   37.8720   30.5450   41.6240 H   0  0  0  0  0  0  0  0  0  0  0  0
   38.7950   28.9440   41.4010 H   0  0  0  0  0  0  0  0  0  0  0  0
   38.6600   29.9170   43.8110 H   0  0  0  0  0  0  0  0  0  0  0  0
   36.8660   29.5160   43.7320 H   0  0  0  0  0  0  0  0  0  0  0  0
   37.0920   26.2410   43.5460 H   0  0  0  0  0  0  0  0  0  0  0  0
   36.0840   27.7920   43.6800 H   0  0  0  0  0  0  0  0  0  0  0  0
   35.7920   26.8330   41.5420 H   0  0  0  0  0  0  0  0  0  0  0  0
   37.5890   26.8620   41.1700 H   0  0  0  0  0  0  0  0  0  0  0  0
   38.8960   27.9640   38.6610 C   0  0  2  0  0  3  0  0  0  0  0  0
   38.8410   27.0540   37.7360 O   0  0  0  0  0  1  0  0  0  0  0  0
   39.1620   25.6420   39.6240 C   0  0  0  0  0  3  0  0  0  0  0  0
   39.4520   26.9760   39.5420 C   0  0  0  0  0  0  0  0  0  0  0  0
   40.3430   27.4370   40.5210 C   0  0  0  0  0  0  0  0  0  0  0  0
   40.6330   28.4810   40.5360 H   0  0  0  0  0  0  0  0  0  0  0  0
   40.9180   26.6880   41.5070 C   0  0  0  0  0  0  0  0  0  0  0  0
   40.6000   25.3540   41.5530 C   0  0  0  0  0  0  0  0  0  0  0  0
   39.7350   24.8440   40.6240 C   0  0  0  0  0  3  0  0  0  0  0  0
   41.2980   24.7910   42.6310 O   0  0  0  0  0  0  0  0  0  0  0  0
   41.6970   25.8530   43.4920 C   0  0  0  0  0  3  0  0  0  0  0  0
   42.6300   25.6080   43.9960 H   0  0  0  0  0  0  0  0  0  0  0  0
   41.8130   26.9420   42.5630 O   0  0  0  0  0  0  0  0  0  0  0  0
  1  2  1  0  0  0  0
  1  8  1  0  0  0  0
  2 11  1  0  0  0  0
  3 33  1  0  0  0  0
  3  2  2  0  0  0  0
  4  3  1  0  0  0  0
  5  4  2  0  0  0  0
  5  6  1  0  0  0  0
  6  1  2  0  0  0  0
  7 10  1  0  0  0  0
  7  5  1  0  0  0  0
  9  7  1  0  0  0  0
 11 18  1  0  0  0  0
 12 11  1  0  0  0  0
 12 14  1  0  0  0  0
 13 12  1  0  0  0  0
 13 16  1  0  0  0  0
 13 11  1  0  0  0  0
 15 12  1  0  0  0  0
 17 13  1  0  0  0  0
 18 23  1  0  0  0  0
 18 19  1  0  0  0  0
 18 24  1  0  0  0  0
 19 20  1  0  0  0  0
 20 21  1  0  0  0  0
 20 28  1  0  0  0  0
 20 27  1  0  0  0  0
 22 29  1  0  0  0  0
 22 21  1  0  0  0  0
 22 30  1  0  0  0  0
 23 22  1  0  0  0  0
 25 19  1  0  0  0  0
 26 19  1  0  0  0  0
 31 23  1  0  0  0  0
 32 23  1  0  0  0  0
 33 34  1  1  0  0  0
 33 36  1  0  0  0  0
 35 41  1  0  0  0  0
 36 35  2  0  0  0  0
 36 37  1  0  0  0  0
 37 38  1  0  0  0  0
 37 39  2  0  0  0  0
 39 40  1  0  0  0  0
 39 45  1  0  0  0  0
 40 42  1  0  0  0  0
 41 40  2  0  0  0  0
 42 43  1  0  0  0  0
 43 44  1  0  0  0  0
 45 43  1  0  0  0  0
M  END
>  <minimizedAffinity>
-5.81433392

$$$$

 OpenBabel03242516173D

 45 49  0  0  1  0  0  0  0  0999 V2000
   37.5990   31.1250   37.5800 C   0  0  0  0  0  0  0  0  0  0  0  0
   37.5170   29.9840   38.3870 C   0  0  0  0  0  0  0  0  0  0  0  0
   37.2440   30.1620   39.7460 C   0  0  0  0  0  0  0  0  0  0  0  0
   37.0730   31.4300   40.2110 N   0  0  0  0  0  0  0  0  0  0  0  0
   37.1650   32.4790   39.3920 C   0  0  0  0  0  0  0  0  0  0  0  0
   37.4190   32.3490   38.1110 N   0  0  0  0  0  0  0  0  0  0  0  0
   36.9910   33.8210   39.8600 N   0  0  0  0  0  0  0  0  0  0  0  0
   37.8110   30.9860   36.5240 H   0  0  0  0  0  0  0  0  0  0  0  0
   37.8270   34.4420   39.7040 H   0  0  0  0  0  0  0  0  0  0  0  0
   36.0640   34.0690   40.3110 H   0  0  0  0  0  0  0  0  0  0  0  0
   37.7310   28.6240   37.7930 C   0  0  0  0  0  0  0  0  0  0  0  0
   38.9760   28.4790   36.9230 C   0  0  0  0  0  0  0  0  0  0  0  0
   38.8570   27.8550   38.2290 C   0  0  0  0  0  0  0  0  0  0  0  0
   38.9410   27.8360   36.0160 H   0  0  0  0  0  0  0  0  0  0  0  0
   39.5020   29.4320   36.6950 H   0  0  0  0  0  0  0  0  0  0  0  0
   38.7530   26.7320   38.2320 H   0  0  0  0  0  0  0  0  0  0  0  0
   39.7600   28.1500   38.7900 H   0  0  0  0  0  0  0  0  0  0  0  0
   36.5450   27.9420   37.2060 C   0  0  0  0  0  0  0  0  0  0  0  0
   35.2370   28.6980   37.3200 C   0  0  0  0  0  0  0  0  0  0  0  0
   34.2120   27.8660   36.5650 C   0  0  0  0  0  0  0  0  0  0  0  0
   33.9040   26.7750   37.4040 O   0  0  0  0  0  0  0  0  0  0  0  0
   35.0600   25.9590   37.2890 C   0  0  0  0  0  0  0  0  0  0  0  0
   36.2340   26.6310   37.9780 C   0  0  0  0  0  0  0  0  0  0  0  0
   36.7060   27.6840   36.1600 H   0  0  0  0  0  0  0  0  0  0  0  0
   35.3080   29.6610   36.7450 H   0  0  0  0  0  0  0  0  0  0  0  0
   34.9080   28.8430   38.3680 H   0  0  0  0  0  0  0  0  0  0  0  0
   33.2640   28.4370   36.3920 H   0  0  0  0  0  0  0  0  0  0  0  0
   34.6280   27.4700   35.6270 H   0  0  0  0  0  0  0  0  0  0  0  0
   34.8120   25.0350   37.8280 H   0  0  0  0  0  0  0  0  0  0  0  0
   35.3380   25.8220   36.2330 H   0  0  0  0  0  0  0  0  0  0  0  0
   37.0980   25.9480   37.8030 H   0  0  0  0  0  0  0  0  0  0  0  0
   36.0690   26.8330   39.0390 H   0  0  0  0  0  0  0  0  0  0  0  0
   37.1540   29.0780   40.6680 C   0  0  2  0  0  3  0  0  0  0  0  0
   36.0700   28.4290   40.9720 O   0  0  0  0  0  1  0  0  0  0  0  0
   38.7700   28.5890   42.5490 C   0  0  0  0  0  3  0  0  0  0  0  0
   37.8670   28.2340   41.5860 C   0  0  0  0  0  0  0  0  0  0  0  0
   37.7030   26.8510   41.4240 C   0  0  0  0  0  0  0  0  0  0  0  0
   37.0070   26.4750   40.6840 H   0  0  0  0  0  0  0  0  0  0  0  0
   38.3480   25.8740   42.1270 C   0  0  0  0  0  0  0  0  0  0  0  0
   39.2450   26.2730   43.0850 C   0  0  0  0  0  0  0  0  0  0  0  0
   39.4500   27.6110   43.2890 C   0  0  0  0  0  3  0  0  0  0  0  0
   39.7790   25.1160   43.6710 O   0  0  0  0  0  0  0  0  0  0  0  0
   39.5320   24.0280   42.7870 C   0  0  0  0  0  3  0  0  0  0  0  0
   39.4080   23.1010   43.3440 H   0  0  0  0  0  0  0  0  0  0  0  0
   38.3350   24.4670   42.1260 O   0  0  0  0  0  0  0  0  0  0  0  0
  1  6  2  0  0  0  0
  1  2  1  0  0  0  0
  2  3  2  0  0  0  0
  3  4  1  0  0  0  0
  3 33  1  0  0  0  0
  5  7  1  0  0  0  0
  5  4  2  0  0  0  0
  6  5  1  0  0  0  0
  7 10  1  0  0  0  0
  8  1  1  0  0  0  0
  9  7  1  0  0  0  0
 11 13  1  0  0  0  0
 11  2  1  0  0  0  0
 12 11  1  0  0  0  0
 12 13  1  0  0  0  0
 13 16  1  0  0  0  0
 13 17  1  0  0  0  0
 14 12  1  0  0  0  0
 15 12  1  0  0  0  0
 18 19  1  0  0  0  0
 18 11  1  0  0  0  0
 18 23  1  0  0  0  0
 19 26  1  0  0  0  0
 20 19  1  0  0  0  0
 20 21  1  0  0  0  0
 22 21  1  0  0  0  0
 22 29  1  0  0  0  0
 22 23  1  0  0  0  0
 23 32  1  0  0  0  0
 24 18  1  0  0  0  0
 25 19  1  0  0  0  0
 27 20  1  0  0  0  0
 28 20  1  0  0  0  0
 30 22  1  0  0  0  0
 31 23  1  0  0  0  0
 33 34  1  1  0  0  0
 33 36  1  0  0  0  0
 35 41  1  0  0  0  0
 36 35  2  0  0  0  0
 37 36  1  0  0  0  0
 37 39  2  0  0  0  0
 38 37  1  0  0  0  0
 39 40  1  0  0  0  0
 40 41  2  0  0  0  0
 40 42  1  0  0  0  0
 43 44  1  0  0  0  0
 43 42  1  0  0  0  0
 45 39  1  0  0  0  0
 45 43  1  0  0  0  0
M  END
>  <minimizedAffinity>
-5.79308462

$$$$

 OpenBabel03242516173D

 45 49  0  0  1  0  0  0  0  0999 V2000
   36.5000   29.9680   36.7050 C   0  0  0  0  0  0  0  0  0  0  0  0
   36.3700   29.5100   38.0210 C   0  0  0  0  0  0  0  0  0  0  0  0
   37.2450   30.0220   38.9830 C   0  0  0  0  0  0  0  0  0  0  0  0
   38.1750   30.9360   38.5900 N   0  0  0  0  0  0  0  0  0  0  0  0
   38.2510   31.3340   37.3180 C   0  0  0  0  0  0  0  0  0  0  0  0
   37.4450   30.8740   36.3900 N   0  0  0  0  0  0  0  0  0  0  0  0
   39.2220   32.2920   36.8820 N   0  0  0  0  0  0  0  0  0  0  0  0
   35.8180   29.5700   35.9600 H   0  0  0  0  0  0  0  0  0  0  0  0
   39.8730   31.9330   36.1360 H   0  0  0  0  0  0  0  0  0  0  0  0
   39.2040   33.2510   37.3330 H   0  0  0  0  0  0  0  0  0  0  0  0
   35.3240   28.4910   38.3650 C   0  0  0  0  0  0  0  0  0  0  0  0
   34.3220   28.9180   39.4330 C   0  0  0  0  0  0  0  0  0  0  0  0
   33.9600   28.7710   38.0340 C   0  0  0  0  0  0  0  0  0  0  0  0
   33.9470   28.1700   40.1650 H   0  0  0  0  0  0  0  0  0  0  0  0
   34.5670   29.8710   39.9510 H   0  0  0  0  0  0  0  0  0  0  0  0
   33.2930   27.8960   37.7860 H   0  0  0  0  0  0  0  0  0  0  0  0
   33.4650   29.7130   37.7470 H   0  0  0  0  0  0  0  0  0  0  0  0
   35.7750   27.0830   38.5390 C   0  0  0  0  0  0  0  0  0  0  0  0
   37.1700   26.7790   38.0320 C   0  0  0  0  0  0  0  0  0  0  0  0
   37.4420   25.3330   38.4150 C   0  0  0  0  0  0  0  0  0  0  0  0
   36.7060   24.5450   37.5050 O   0  0  0  0  0  0  0  0  0  0  0  0
   35.3730   24.7060   37.9660 C   0  0  0  0  0  0  0  0  0  0  0  0
   34.9010   26.1230   37.6900 C   0  0  0  0  0  0  0  0  0  0  0  0
   35.7080   26.7660   39.5790 H   0  0  0  0  0  0  0  0  0  0  0  0
   37.9220   27.3790   38.6150 H   0  0  0  0  0  0  0  0  0  0  0  0
   37.2720   26.9050   36.9360 H   0  0  0  0  0  0  0  0  0  0  0  0
   38.5240   25.0690   38.2900 H   0  0  0  0  0  0  0  0  0  0  0  0
   37.0810   25.1110   39.4300 H   0  0  0  0  0  0  0  0  0  0  0  0
   34.7760   24.0080   37.3620 H   0  0  0  0  0  0  0  0  0  0  0  0
   35.3120   24.5490   39.0530 H   0  0  0  0  0  0  0  0  0  0  0  0
   33.8720   26.1690   38.1170 H   0  0  0  0  0  0  0  0  0  0  0  0
   34.9280   26.4010   36.6330 H   0  0  0  0  0  0  0  0  0  0  0  0
   37.2200   29.6180   40.3500 C   0  0  2  0  0  3  0  0  0  0  0  0
   36.6640   30.2740   41.3240 O   0  0  0  0  0  1  0  0  0  0  0  0
   37.0600   28.3230   42.5150 C   0  0  0  0  0  3  0  0  0  0  0  0
   37.6210   28.6220   41.3040 C   0  0  0  0  0  0  0  0  0  0  0  0
   38.7980   27.9170   41.0190 C   0  0  0  0  0  0  0  0  0  0  0  0
   39.3140   28.0870   40.0820 H   0  0  0  0  0  0  0  0  0  0  0  0
   39.4010   26.9940   41.8240 C   0  0  0  0  0  0  0  0  0  0  0  0
   38.8060   26.7230   43.0300 C   0  0  0  0  0  0  0  0  0  0  0  0
   37.6530   27.3800   43.3660 C   0  0  0  0  0  3  0  0  0  0  0  0
   39.5890   25.7570   43.6790 O   0  0  0  0  0  0  0  0  0  0  0  0
   40.8750   25.7590   43.0680 C   0  0  0  0  0  3  0  0  0  0  0  0
   41.3190   24.7660   43.1080 H   0  0  0  0  0  0  0  0  0  0  0  0
   40.5550   26.1920   41.7370 O   0  0  0  0  0  0  0  0  0  0  0  0
  1  2  1  0  0  0  0
  2 11  1  0  0  0  0
  2  3  2  0  0  0  0
  3 33  1  0  0  0  0
  4  3  1  0  0  0  0
  5  4  2  0  0  0  0
  6  1  2  0  0  0  0
  6  5  1  0  0  0  0
  7  5  1  0  0  0  0
  7 10  1  0  0  0  0
  8  1  1  0  0  0  0
  9  7  1  0  0  0  0
 11 18  1  0  0  0  0
 11 12  1  0  0  0  0
 12 15  1  0  0  0  0
 12 14  1  0  0  0  0
 13 11  1  0  0  0  0
 13 12  1  0  0  0  0
 16 13  1  0  0  0  0
 17 13  1  0  0  0  0
 18 24  1  0  0  0  0
 19 20  1  0  0  0  0
 19 18  1  0  0  0  0
 19 25  1  0  0  0  0
 20 28  1  0  0  0  0
 21 22  1  0  0  0  0
 21 20  1  0  0  0  0
 22 30  1  0  0  0  0
 23 22  1  0  0  0  0
 23 31  1  0  0  0  0
 23 18  1  0  0  0  0
 26 19  1  0  0  0  0
 27 20  1  0  0  0  0
 29 22  1  0  0  0  0
 32 23  1  0  0  0  0
 33 36  1  0  0  0  0
 33 34  1  1  0  0  0
 35 41  1  0  0  0  0
 36 35  2  0  0  0  0
 37 36  1  0  0  0  0
 37 39  2  0  0  0  0
 38 37  1  0  0  0  0
 39 40  1  0  0  0  0
 40 41  2  0  0  0  0
 40 42  1  0  0  0  0
 43 44  1  0  0  0  0
 43 42  1  0  0  0  0
 45 39  1  0  0  0  0
 45 43  1  0  0  0  0
M  END
>  <minimizedAffinity>
-5.76548719

$$$$

 OpenBabel03242516173D

 45 49  0  0  1  0  0  0  0  0999 V2000
   39.8110   30.7560   41.0500 C   0  0  0  0  0  0  0  0  0  0  0  0
   39.3010   29.5120   41.4380 C   0  0  0  0  0  0  0  0  0  0  0  0
   37.9130   29.3510   41.4620 C   0  0  0  0  0  0  0  0  0  0  0  0
   37.1330   30.4100   41.1080 N   0  0  0  0  0  0  0  0  0  0  0  0
   37.6790   31.5730   40.7460 C   0  0  0  0  0  0  0  0  0  0  0  0
   38.9780   31.7580   40.7130 N   0  0  0  0  0  0  0  0  0  0  0  0
   36.8780   32.7000   40.3720 N   0  0  0  0  0  0  0  0  0  0  0  0
   40.8900   30.8790   41.0310 H   0  0  0  0  0  0  0  0  0  0  0  0
   37.0280   33.5510   40.9730 H   0  0  0  0  0  0  0  0  0  0  0  0
   36.2220   32.5850   39.5470 H   0  0  0  0  0  0  0  0  0  0  0  0
   40.2340   28.4020   41.8250 C   0  0  0  0  0  0  0  0  0  0  0  0
   41.3080   28.7760   42.8410 C   0  0  0  0  0  0  0  0  0  0  0  0
   40.1910   27.9080   43.1670 C   0  0  0  0  0  0  0  0  0  0  0  0
   42.3240   28.3330   42.7550 H   0  0  0  0  0  0  0  0  0  0  0  0
   41.3830   29.8630   43.0650 H   0  0  0  0  0  0  0  0  0  0  0  0
   40.4410   26.8210   43.3320 H   0  0  0  0  0  0  0  0  0  0  0  0
   39.7340   28.3300   44.0780 H   0  0  0  0  0  0  0  0  0  0  0  0
   40.7610   27.5420   40.7300 C   0  0  0  0  0  0  0  0  0  0  0  0
   40.1020   27.7320   39.3790 C   0  0  0  0  0  0  0  0  0  0  0  0
   40.8720   26.8410   38.4160 C   0  0  0  0  0  0  0  0  0  0  0  0
   40.4430   25.5230   38.6810 O   0  0  0  0  0  0  0  0  0  0  0  0
   41.0920   25.2280   39.9090 C   0  0  0  0  0  0  0  0  0  0  0  0
   40.4730   26.0460   41.0280 C   0  0  0  0  0  0  0  0  0  0  0  0
   41.8370   27.6590   40.6110 H   0  0  0  0  0  0  0  0  0  0  0  0
   40.2880   28.7790   39.0140 H   0  0  0  0  0  0  0  0  0  0  0  0
   39.0290   27.4560   39.3740 H   0  0  0  0  0  0  0  0  0  0  0  0
   40.6180   27.0700   37.3490 H   0  0  0  0  0  0  0  0  0  0  0  0
   41.9550   26.8920   38.5990 H   0  0  0  0  0  0  0  0  0  0  0  0
   40.8870   24.1640   40.0910 H   0  0  0  0  0  0  0  0  0  0  0  0
   42.1580   25.4950   39.8620 H   0  0  0  0  0  0  0  0  0  0  0  0
   41.0650   25.7840   41.9350 H   0  0  0  0  0  0  0  0  0  0  0  0
   39.4020   25.8730   41.1630 H   0  0  0  0  0  0  0  0  0  0  0  0
   37.2780   28.1370   41.8570 C   0  0  2  0  0  3  0  0  0  0  0  0
   36.5980   27.9580   42.9500 O   0  0  0  0  0  1  0  0  0  0  0  0
   37.0720   25.6610   42.3220 C   0  0  0  0  0  3  0  0  0  0  0  0
   37.0170   26.7660   41.5180 C   0  0  0  0  0  0  0  0  0  0  0  0
   36.7630   26.4910   40.1680 C   0  0  0  0  0  0  0  0  0  0  0  0
   36.7010   27.3040   39.4550 H   0  0  0  0  0  0  0  0  0  0  0  0
   36.5750   25.2550   39.6180 C   0  0  0  0  0  0  0  0  0  0  0  0
   36.6380   24.1730   40.4580 C   0  0  0  0  0  0  0  0  0  0  0  0
   36.8830   24.3780   41.7890 C   0  0  0  0  0  3  0  0  0  0  0  0
   36.4170   23.0240   39.6850 O   0  0  0  0  0  0  0  0  0  0  0  0
   36.6470   23.3680   38.3220 C   0  0  0  0  0  3  0  0  0  0  0  0
   36.0170   22.7710   37.6650 H   0  0  0  0  0  0  0  0  0  0  0  0
   36.3170   24.7650   38.3230 O   0  0  0  0  0  0  0  0  0  0  0  0
  1  2  1  0  0  0  0
  2  3  2  0  0  0  0
  2 11  1  0  0  0  0
  3 33  1  0  0  0  0
  4  3  1  0  0  0  0
  5  4  2  0  0  0  0
  6  5  1  0  0  0  0
  6  1  2  0  0  0  0
  7  5  1  0  0  0  0
  7  9  1  0  0  0  0
  8  1  1  0  0  0  0
 10  7  1  0  0  0  0
 11 12  1  0  0  0  0
 11 13  1  0  0  0  0
 12 15  1  0  0  0  0
 12 13  1  0  0  0  0
 13 16  1  0  0  0  0
 13 17  1  0  0  0  0
 14 12  1  0  0  0  0
 18 23  1  0  0  0  0
 18 11  1  0  0  0  0
 19 18  1  0  0  0  0
 20 28  1  0  0  0  0
 20 21  1  0  0  0  0
 20 19  1  0  0  0  0
 21 22  1  0  0  0  0
 22 29  1  0  0  0  0
 22 23  1  0  0  0  0
 23 32  1  0  0  0  0
 23 31  1  0  0  0  0
 24 18  1  0  0  0  0
 25 19  1  0  0  0  0
 26 19  1  0  0  0  0
 27 20  1  0  0  0  0
 30 22  1  0  0  0  0
 33 34  1  1  0  0  0
 36 33  1  0  0  0  0
 36 35  2  0  0  0  0
 37 36  1  0  0  0  0
 38 37  1  0  0  0  0
 39 37  2  0  0  0  0
 39 40  1  0  0  0  0
 40 41  2  0  0  0  0
 41 35  1  0  0  0  0
 42 40  1  0  0  0  0
 43 45  1  0  0  0  0
 43 42  1  0  0  0  0
 44 43  1  0  0  0  0
 45 39  1  0  0  0  0
M  END
>  <minimizedAffinity>
-5.70229387

$$$$
