
 OpenBabel03252500323D

 45 49  0  0  1  0  0  0  0  0999 V2000
   46.0390   31.7520   46.9020 N   0  0  0  0  0  0  0  0  0  0  0  0
   46.6980   32.6030   47.8350 C   0  0  0  0  0  0  0  0  0  0  0  0
   48.0240   32.0070   48.2880 C   0  0  0  0  0  0  0  0  0  0  0  0
   47.6820   30.7540   49.0630 C   0  0  0  0  0  0  0  0  0  0  0  0
   47.0140   29.8200   48.0600 C   0  0  0  0  0  0  0  0  0  0  0  0
   45.8170   30.4790   47.3960 C   0  0  2  0  0  0  0  0  0  0  0  0
   46.0480   32.5090   48.7620 H   0  0  0  0  0  0  0  0  0  0  0  0
   46.6960   33.6640   47.6580 H   0  0  0  0  0  0  0  0  0  0  0  0
   48.6120   31.7240   47.3940 H   0  0  0  0  0  0  0  0  0  0  0  0
   48.5530   32.7570   48.9140 H   0  0  0  0  0  0  0  0  0  0  0  0
   48.6210   30.2770   49.3770 H   0  0  0  0  0  0  0  0  0  0  0  0
   47.0000   30.9830   49.8950 H   0  0  0  0  0  0  0  0  0  0  0  0
   47.7600   29.4830   47.3280 H   0  0  0  0  0  0  0  0  0  0  0  0
   46.6720   28.9420   48.6440 H   0  0  0  0  0  0  0  0  0  0  0  0
   45.1520   30.6570   48.3140 H   0  0  0  0  0  0  0  0  0  0  0  0
   44.5630   28.2810   47.0100 C   0  0  0  0  0  3  0  0  0  0  0  0
   45.1160   29.4770   46.6120 C   0  0  0  0  0  0  0  0  0  0  0  0
   44.9300   29.6440   45.2280 C   0  0  0  0  0  0  0  0  0  0  0  0
   45.3130   30.5550   44.7380 H   0  0  0  0  0  0  0  0  0  0  0  0
   44.3060   28.7810   44.3790 C   0  0  0  0  0  0  0  0  0  0  0  0
   43.7930   27.6220   44.8830 C   0  0  0  0  0  0  0  0  0  0  0  0
   43.9170   27.3530   46.2270 C   0  0  0  0  0  3  0  0  0  0  0  0
   43.2120   26.9090   43.8560 O   0  0  0  0  0  0  0  0  0  0  0  0
   43.0150   27.7900   42.7630 C   0  0  0  0  0  3  0  0  0  0  0  0
   42.0110   28.2330   42.7210 H   0  0  0  0  0  0  0  0  0  0  0  0
   44.0310   28.7710   43.0190 O   0  0  0  0  0  0  0  0  0  0  0  0
   46.2830   32.0280   45.5390 C   0  0  0  0  0  0  0  0  0  0  0  0
   47.2860   31.6000   45.2310 H   0  0  0  0  0  0  0  0  0  0  0  0
   45.5460   31.6020   44.8350 H   0  0  0  0  0  0  0  0  0  0  0  0
   46.0680   34.1300   44.0110 C   0  0  1  0  0  0  0  0  0  0  0  0
   45.1940   34.3160   45.1080 C   0  0  0  0  0  0  0  0  0  0  0  0
   46.4020   33.5010   45.3790 C   0  0  1  0  0  0  0  0  0  0  0  0
   46.7390   34.9680   43.6810 H   0  0  0  0  0  0  0  0  0  0  0  0
   44.2280   33.7480   45.1310 H   0  0  0  0  0  0  0  0  0  0  0  0
   45.0470   35.3170   45.5870 H   0  0  0  0  0  0  0  0  0  0  0  0
   47.3470   33.9200   45.7550 H   0  0  0  0  0  0  0  0  0  0  0  0
   44.5060   32.7680   42.6290 C   0  0  0  0  0  0  0  0  0  0  0  0
   45.8410   33.1960   42.8780 C   0  0  0  0  0  0  0  0  0  0  0  0
   46.8360   32.7210   42.0630 C   0  0  0  0  0  0  0  0  0  0  0  0
   46.4780   31.8620   41.0570 N   0  0  0  0  0  0  0  0  0  0  0  0
   45.2100   31.4700   40.8360 C   0  0  0  0  0  0  0  0  0  0  0  0
   44.1880   31.9200   41.6250 N   0  0  0  0  0  0  0  0  0  0  0  0
   43.7220   33.1350   43.2610 H   0  0  0  0  0  0  0  0  0  0  0  0
   47.8340   33.0400   42.2490 H   0  0  0  0  0  0  0  0  0  0  0  0
   44.9850   30.7860   40.0210 H   0  0  0  0  0  0  0  0  0  0  0  0
  1  6  1  0  0  0  0
  1  2  1  0  0  0  0
  2  3  1  0  0  0  0
  2  7  1  0  0  0  0
  3 10  1  0  0  0  0
  3  4  1  0  0  0  0
  4 11  1  0  0  0  0
  4 12  1  0  0  0  0
  5 14  1  0  0  0  0
  5  4  1  0  0  0  0
  6  5  1  0  0  0  0
  6 15  1  1  0  0  0
  8  2  1  0  0  0  0
  9  3  1  0  0  0  0
 13  5  1  0  0  0  0
 17 16  1  0  0  0  0
 17  6  1  0  0  0  0
 18 17  2  0  0  0  0
 19 18  1  0  0  0  0
 20 21  2  0  0  0  0
 20 18  1  0  0  0  0
 21 22  1  0  0  0  0
 22 16  2  0  0  0  0
 23 21  1  0  0  0  0
 24 26  1  0  0  0  0
 24 23  1  0  0  0  0
 25 24  1  0  0  0  0
 26 20  1  0  0  0  0
 27  1  1  0  0  0  0
 28 27  1  0  0  0  0
 29 27  1  0  0  0  0
 30 33  1  6  0  0  0
 30 31  1  0  0  0  0
 30 32  1  0  0  0  0
 31 34  1  0  0  0  0
 31 32  1  0  0  0  0
 31 35  1  0  0  0  0
 32 27  1  0  0  0  0
 32 36  1  1  0  0  0
 37 38  1  0  0  0  0
 37 43  1  0  0  0  0
 38 30  1  0  0  0  0
 39 44  1  0  0  0  0
 39 38  2  0  0  0  0
 40 39  1  0  0  0  0
 41 40  2  0  0  0  0
 41 42  1  0  0  0  0
 42 37  2  0  0  0  0
 45 41  1  0  0  0  0
M  END
>  <minimizedAffinity>
-4.25271225

>  <minimizedRMSD>
0.47208041

$$$$
