
 OpenBabel03242515363D

 34 38  0  0  0  0  0  0  0  0999 V2000
   33.6780   28.8680   36.5000 C   0  0  0  0  0  0  0  0  0  0  0  0
   34.4700   29.0820   35.3770 C   0  0  0  0  0  0  0  0  0  0  0  0
   35.8270   29.3730   35.5700 C   0  0  0  0  0  0  0  0  0  0  0  0
   36.2650   29.4220   36.8460 N   0  0  0  0  0  0  0  0  0  0  0  0
   35.4950   29.2140   37.9200 C   0  0  0  0  0  0  0  0  0  0  0  0
   34.1870   28.9340   37.7300 N   0  0  0  0  0  0  0  0  0  0  0  0
   34.0640   29.0290   34.3760 H   0  0  0  0  0  0  0  0  0  0  0  0
   36.4770   29.5460   34.7250 H   0  0  0  0  0  0  0  0  0  0  0  0
   36.4170   30.4790   39.8240 C   0  0  0  0  0  3  0  0  0  0  0  0
   35.9990   29.2760   39.2880 C   0  0  0  0  0  0  0  0  0  0  0  0
   36.0730   28.1450   40.0810 C   0  0  0  0  0  0  0  0  0  0  0  0
   35.7400   27.2020   39.6490 H   0  0  0  0  0  0  0  0  0  0  0  0
   36.5420   28.1610   41.3780 C   0  0  0  0  0  0  0  0  0  0  0  0
   36.9350   29.3840   41.8330 C   0  0  0  0  0  0  0  0  0  0  0  0
   36.9080   30.5860   41.1310 C   0  0  0  0  0  3  0  0  0  0  0  0
   37.3710   29.2050   43.1350 O   0  0  0  0  0  0  0  0  0  0  0  0
   37.1580   27.8870   43.5480 C   0  0  0  0  0  3  0  0  0  0  0  0
   38.1350   27.4680   43.8790 H   0  0  0  0  0  0  0  0  0  0  0  0
   36.7250   27.2220   42.3740 O   0  0  0  0  0  0  0  0  0  0  0  0
   31.9340   28.4970   36.1470 S   0  0  0  0  0  0  0  0  0  0  0  0
   31.2050   31.0400   35.6020 C   0  0  0  0  0  0  0  0  0  0  0  0
   31.2620   29.7640   35.0690 C   0  0  0  0  0  0  0  0  0  0  0  0
   30.8260   29.5000   33.7860 C   0  0  0  0  0  0  0  0  0  0  0  0
   30.3170   30.5310   33.0060 C   0  0  0  0  0  0  0  0  0  0  0  0
   30.2500   31.8300   33.5270 C   0  0  0  0  0  0  0  0  0  0  0  0
   30.6910   32.0780   34.8130 C   0  0  0  0  0  0  0  0  0  0  0  0
   29.7030   32.6550   32.5390 O   0  0  0  0  0  0  0  0  0  0  0  0
   29.0900   31.7740   31.5940 C   0  0  0  0  0  0  0  0  0  0  0  0
   29.8060   30.5620   31.6880 O   0  0  0  0  0  0  0  0  0  0  0  0
   31.5220   31.3370   36.5900 H   0  0  0  0  0  0  0  0  0  0  0  0
   30.8900   28.4890   33.4110 H   0  0  0  0  0  0  0  0  0  0  0  0
   30.6260   33.0920   35.1860 H   0  0  0  0  0  0  0  0  0  0  0  0
   27.9980   31.6570   31.7780 H   0  0  0  0  0  0  0  0  0  0  0  0
   29.2660   32.1440   30.5560 H   0  0  0  0  0  0  0  0  0  0  0  0
  1  6  1  0  0  0  0
  2  3  1  0  0  0  0
  2  1  2  0  0  0  0
  3  4  2  0  0  0  0
  4  5  1  0  0  0  0
  5 10  1  0  0  0  0
  6  5  2  0  0  0  0
  7  2  1  0  0  0  0
  8  3  1  0  0  0  0
  9 15  1  0  0  0  0
 10  9  2  0  0  0  0
 10 11  1  0  0  0  0
 11 13  2  0  0  0  0
 12 11  1  0  0  0  0
 13 14  1  0  0  0  0
 13 19  1  0  0  0  0
 14 16  1  0  0  0  0
 15 14  2  0  0  0  0
 16 17  1  0  0  0  0
 17 18  1  0  0  0  0
 19 17  1  0  0  0  0
 20  1  1  0  0  0  0
 21 30  1  0  0  0  0
 22 21  1  0  0  0  0
 22 20  1  0  0  0  0
 23 22  2  0  0  0  0
 24 25  2  0  0  0  0
 24 23  1  0  0  0  0
 25 26  1  0  0  0  0
 26 32  1  0  0  0  0
 26 21  2  0  0  0  0
 27 25  1  0  0  0  0
 28 29  1  0  0  0  0
 28 33  1  0  0  0  0
 28 27  1  0  0  0  0
 29 24  1  0  0  0  0
 31 23  1  0  0  0  0
 34 28  1  0  0  0  0
M  END
>  <minimizedAffinity>
-5.99564838

$$$$

 OpenBabel03242515363D

 34 38  0  0  0  0  0  0  0  0999 V2000
   37.5170   29.3150   41.9700 C   0  0  0  0  0  0  0  0  0  0  0  0
   36.1970   29.2920   41.5330 C   0  0  0  0  0  0  0  0  0  0  0  0
   35.8160   30.1920   40.5290 C   0  0  0  0  0  0  0  0  0  0  0  0
   36.7710   31.0210   40.0580 N   0  0  0  0  0  0  0  0  0  0  0  0
   38.0400   31.0360   40.4840 C   0  0  0  0  0  0  0  0  0  0  0  0
   38.4030   30.1660   41.4520 N   0  0  0  0  0  0  0  0  0  0  0  0
   35.4730   28.6040   41.9470 H   0  0  0  0  0  0  0  0  0  0  0  0
   34.8000   30.2070   40.1620 H   0  0  0  0  0  0  0  0  0  0  0  0
   39.3350   33.1290   40.6110 C   0  0  0  0  0  3  0  0  0  0  0  0
   39.0500   31.9470   39.9550 C   0  0  0  0  0  0  0  0  0  0  0  0
   39.7430   31.6580   38.7950 C   0  0  0  0  0  0  0  0  0  0  0  0
   39.5100   30.7230   38.2860 H   0  0  0  0  0  0  0  0  0  0  0  0
   40.7050   32.4910   38.2620 C   0  0  0  0  0  0  0  0  0  0  0  0
   40.9290   33.6360   38.9660 C   0  0  0  0  0  0  0  0  0  0  0  0
   40.2960   34.0330   40.1410 C   0  0  0  0  0  3  0  0  0  0  0  0
   41.9120   34.3370   38.2880 O   0  0  0  0  0  0  0  0  0  0  0  0
   42.3910   33.5900   37.2080 C   0  0  0  0  0  3  0  0  0  0  0  0
   42.2680   34.2010   36.2860 H   0  0  0  0  0  0  0  0  0  0  0  0
   41.5320   32.4650   37.1560 O   0  0  0  0  0  0  0  0  0  0  0  0
   37.9140   28.1110   43.2710 S   0  0  0  0  0  0  0  0  0  0  0  0
   39.2370   25.8190   42.7290 C   0  0  0  0  0  0  0  0  0  0  0  0
   38.0290   26.4710   42.5520 C   0  0  0  0  0  0  0  0  0  0  0  0
   36.9880   25.8820   41.8620 C   0  0  0  0  0  0  0  0  0  0  0  0
   37.1480   24.6090   41.3310 C   0  0  0  0  0  0  0  0  0  0  0  0
   38.3630   23.9310   41.4990 C   0  0  0  0  0  0  0  0  0  0  0  0
   39.3950   24.5340   42.1920 C   0  0  0  0  0  0  0  0  0  0  0  0
   38.2450   22.6880   40.8710 O   0  0  0  0  0  0  0  0  0  0  0  0
   37.1120   22.7960   40.0050 C   0  0  0  0  0  0  0  0  0  0  0  0
   36.2790   23.7710   40.5930 O   0  0  0  0  0  0  0  0  0  0  0  0
   40.1000   26.2010   43.2520 H   0  0  0  0  0  0  0  0  0  0  0  0
   36.0630   26.4290   41.7480 H   0  0  0  0  0  0  0  0  0  0  0  0
   40.3210   23.9850   42.3050 H   0  0  0  0  0  0  0  0  0  0  0  0
   37.4060   23.0400   38.9590 H   0  0  0  0  0  0  0  0  0  0  0  0
   36.5210   21.8490   40.0260 H   0  0  0  0  0  0  0  0  0  0  0  0
  1 20  1  0  0  0  0
  2  7  1  0  0  0  0
  2  1  1  0  0  0  0
  3  2  2  0  0  0  0
  4  5  2  0  0  0  0
  4  3  1  0  0  0  0
  5  6  1  0  0  0  0
  6  1  2  0  0  0  0
  8  3  1  0  0  0  0
 10  5  1  0  0  0  0
 10  9  2  0  0  0  0
 11 10  1  0  0  0  0
 12 11  1  0  0  0  0
 13 11  2  0  0  0  0
 13 14  1  0  0  0  0
 14 15  2  0  0  0  0
 15  9  1  0  0  0  0
 16 14  1  0  0  0  0
 17 16  1  0  0  0  0
 18 17  1  0  0  0  0
 19 17  1  0  0  0  0
 19 13  1  0  0  0  0
 21 30  1  0  0  0  0
 22 21  1  0  0  0  0
 22 20  1  0  0  0  0
 23 22  2  0  0  0  0
 24 25  2  0  0  0  0
 24 23  1  0  0  0  0
 25 26  1  0  0  0  0
 26 32  1  0  0  0  0
 26 21  2  0  0  0  0
 27 25  1  0  0  0  0
 28 34  1  0  0  0  0
 28 29  1  0  0  0  0
 28 27  1  0  0  0  0
 29 24  1  0  0  0  0
 31 23  1  0  0  0  0
 33 28  1  0  0  0  0
M  END
>  <minimizedAffinity>
-5.99441957

$$$$

 OpenBabel03242515363D

 34 38  0  0  0  0  0  0  0  0999 V2000
   38.8890   31.6460   41.0580 C   0  0  0  0  0  0  0  0  0  0  0  0
   38.8200   33.0310   40.9570 C   0  0  0  0  0  0  0  0  0  0  0  0
   38.0470   33.5830   39.9260 C   0  0  0  0  0  0  0  0  0  0  0  0
   37.4220   32.7160   39.1020 N   0  0  0  0  0  0  0  0  0  0  0  0
   37.4950   31.3840   39.2070 C   0  0  0  0  0  0  0  0  0  0  0  0
   38.2410   30.8560   40.2020 N   0  0  0  0  0  0  0  0  0  0  0  0
   39.3430   33.6790   41.6480 H   0  0  0  0  0  0  0  0  0  0  0  0
   37.9670   34.6540   39.8120 H   0  0  0  0  0  0  0  0  0  0  0  0
   35.7880   29.6630   38.7590 C   0  0  0  0  0  3  0  0  0  0  0  0
   36.8080   30.4720   38.2970 C   0  0  0  0  0  0  0  0  0  0  0  0
   37.1530   30.3920   36.9610 C   0  0  0  0  0  0  0  0  0  0  0  0
   37.9580   31.0350   36.6070 H   0  0  0  0  0  0  0  0  0  0  0  0
   36.5290   29.5450   36.0690 C   0  0  0  0  0  0  0  0  0  0  0  0
   35.5350   28.7800   36.6010 C   0  0  0  0  0  0  0  0  0  0  0  0
   35.1010   28.7740   37.9240 C   0  0  0  0  0  3  0  0  0  0  0  0
   35.0330   28.0030   35.5700 O   0  0  0  0  0  0  0  0  0  0  0  0
   35.6350   28.3480   34.3570 C   0  0  0  0  0  3  0  0  0  0  0  0
   36.0890   27.4280   33.9240 H   0  0  0  0  0  0  0  0  0  0  0  0
   36.6560   29.2590   34.7240 O   0  0  0  0  0  0  0  0  0  0  0  0
   39.9140   31.0290   42.4260 S   0  0  0  0  0  0  0  0  0  0  0  0
   38.4430   28.9000   43.1970 C   0  0  0  0  0  0  0  0  0  0  0  0
   39.6470   29.2660   42.6220 C   0  0  0  0  0  0  0  0  0  0  0  0
   40.5740   28.3210   42.2300 C   0  0  0  0  0  0  0  0  0  0  0  0
   40.3000   26.9710   42.4130 C   0  0  0  0  0  0  0  0  0  0  0  0
   39.0860   26.5790   42.9930 C   0  0  0  0  0  0  0  0  0  0  0  0
   38.1690   27.5380   43.3800 C   0  0  0  0  0  0  0  0  0  0  0  0
   39.0780   25.1830   43.0550 O   0  0  0  0  0  0  0  0  0  0  0  0
   40.4370   24.7780   42.8760 C   0  0  0  0  0  0  0  0  0  0  0  0
   41.0400   25.8030   42.1170 O   0  0  0  0  0  0  0  0  0  0  0  0
   37.6630   29.5670   43.5310 H   0  0  0  0  0  0  0  0  0  0  0  0
   41.5010   28.6530   41.7860 H   0  0  0  0  0  0  0  0  0  0  0  0
   37.2410   27.2030   43.8250 H   0  0  0  0  0  0  0  0  0  0  0  0
   40.9490   24.5900   43.8480 H   0  0  0  0  0  0  0  0  0  0  0  0
   40.4850   23.8660   42.2350 H   0  0  0  0  0  0  0  0  0  0  0  0
  1 20  1  0  0  0  0
  2  1  1  0  0  0  0
  2  7  1  0  0  0  0
  3  2  2  0  0  0  0
  4  5  2  0  0  0  0
  4  3  1  0  0  0  0
  5  6  1  0  0  0  0
  6  1  2  0  0  0  0
  8  3  1  0  0  0  0
 10  9  1  0  0  0  0
 10  5  1  0  0  0  0
 11 10  2  0  0  0  0
 12 11  1  0  0  0  0
 13 14  2  0  0  0  0
 13 11  1  0  0  0  0
 14 15  1  0  0  0  0
 15  9  2  0  0  0  0
 16 14  1  0  0  0  0
 17 19  1  0  0  0  0
 17 16  1  0  0  0  0
 18 17  1  0  0  0  0
 19 13  1  0  0  0  0
 20 22  1  0  0  0  0
 21 26  1  0  0  0  0
 21 30  1  0  0  0  0
 22 21  2  0  0  0  0
 23 24  2  0  0  0  0
 23 22  1  0  0  0  0
 24 25  1  0  0  0  0
 25 27  1  0  0  0  0
 25 26  2  0  0  0  0
 26 32  1  0  0  0  0
 28 27  1  0  0  0  0
 28 33  1  0  0  0  0
 29 24  1  0  0  0  0
 29 28  1  0  0  0  0
 31 23  1  0  0  0  0
 34 28  1  0  0  0  0
M  END
>  <minimizedAffinity>
-5.95059538

$$$$

 OpenBabel03242515363D

 34 38  0  0  0  0  0  0  0  0999 V2000
   37.1670   30.7210   39.8860 C   0  0  0  0  0  0  0  0  0  0  0  0
   37.1460   32.0500   40.2940 C   0  0  0  0  0  0  0  0  0  0  0  0
   38.2040   32.8810   39.9000 C   0  0  0  0  0  0  0  0  0  0  0  0
   39.1720   32.3190   39.1450 N   0  0  0  0  0  0  0  0  0  0  0  0
   39.1820   31.0390   38.7570 C   0  0  0  0  0  0  0  0  0  0  0  0
   38.1610   30.2420   39.1390 N   0  0  0  0  0  0  0  0  0  0  0  0
   36.3430   32.4470   40.9000 H   0  0  0  0  0  0  0  0  0  0  0  0
   38.2270   33.9190   40.1960 H   0  0  0  0  0  0  0  0  0  0  0  0
   40.1980   29.1300   37.5730 C   0  0  0  0  0  3  0  0  0  0  0  0
   40.2460   30.4600   37.9410 C   0  0  0  0  0  0  0  0  0  0  0  0
   41.3210   31.2190   37.5160 C   0  0  0  0  0  0  0  0  0  0  0  0
   41.3490   32.2670   37.8110 H   0  0  0  0  0  0  0  0  0  0  0  0
   42.3460   30.7110   36.7440 C   0  0  0  0  0  0  0  0  0  0  0  0
   42.2260   29.3920   36.4240 C   0  0  0  0  0  0  0  0  0  0  0  0
   41.1940   28.5320   36.7920 C   0  0  0  0  0  3  0  0  0  0  0  0
   43.3320   29.0650   35.6580 O   0  0  0  0  0  0  0  0  0  0  0  0
   44.1040   30.2000   35.4000 C   0  0  0  0  0  3  0  0  0  0  0  0
   45.1390   30.0020   35.7610 H   0  0  0  0  0  0  0  0  0  0  0  0
   43.5070   31.2130   36.1910 O   0  0  0  0  0  0  0  0  0  0  0  0
   35.7520   29.7270   40.4460 S   0  0  0  0  0  0  0  0  0  0  0  0
   36.5230   28.0100   42.3820 C   0  0  0  0  0  0  0  0  0  0  0  0
   36.3360   28.1290   41.0170 C   0  0  0  0  0  0  0  0  0  0  0  0
   36.5860   27.0760   40.1610 C   0  0  0  0  0  0  0  0  0  0  0  0
   37.0370   25.8650   40.6730 C   0  0  0  0  0  0  0  0  0  0  0  0
   37.2330   25.7230   42.0530 C   0  0  0  0  0  0  0  0  0  0  0  0
   36.9770   26.7870   42.8960 C   0  0  0  0  0  0  0  0  0  0  0  0
   37.6840   24.4200   42.2840 O   0  0  0  0  0  0  0  0  0  0  0  0
   38.1240   23.9300   41.0150 C   0  0  0  0  0  0  0  0  0  0  0  0
   37.3700   24.6370   40.0550 O   0  0  0  0  0  0  0  0  0  0  0  0
   36.3520   28.7760   43.1220 H   0  0  0  0  0  0  0  0  0  0  0  0
   36.4260   27.2140   39.1010 H   0  0  0  0  0  0  0  0  0  0  0  0
   37.1380   26.6460   43.9570 H   0  0  0  0  0  0  0  0  0  0  0  0
   39.2240   24.0430   40.8820 H   0  0  0  0  0  0  0  0  0  0  0  0
   37.8310   22.8600   40.8940 H   0  0  0  0  0  0  0  0  0  0  0  0
  1  2  1  0  0  0  0
  1 20  1  0  0  0  0
  2  7  1  0  0  0  0
  3  8  1  0  0  0  0
  3  2  2  0  0  0  0
  4  3  1  0  0  0  0
  5  6  1  0  0  0  0
  5  4  2  0  0  0  0
  6  1  2  0  0  0  0
  9 10  1  0  0  0  0
 10  5  1  0  0  0  0
 11 12  1  0  0  0  0
 11 10  2  0  0  0  0
 13 11  1  0  0  0  0
 14 13  2  0  0  0  0
 14 15  1  0  0  0  0
 15  9  2  0  0  0  0
 16 14  1  0  0  0  0
 17 16  1  0  0  0  0
 17 18  1  0  0  0  0
 17 19  1  0  0  0  0
 19 13  1  0  0  0  0
 20 22  1  0  0  0  0
 21 26  1  0  0  0  0
 21 30  1  0  0  0  0
 22 21  2  0  0  0  0
 23 24  2  0  0  0  0
 23 22  1  0  0  0  0
 24 25  1  0  0  0  0
 25 27  1  0  0  0  0
 25 26  2  0  0  0  0
 26 32  1  0  0  0  0
 28 27  1  0  0  0  0
 29 24  1  0  0  0  0
 29 28  1  0  0  0  0
 31 23  1  0  0  0  0
 33 28  1  0  0  0  0
 34 28  1  0  0  0  0
M  END
>  <minimizedAffinity>
-5.91758251

$$$$

 OpenBabel03242515363D

 34 38  0  0  0  0  0  0  0  0999 V2000
   37.6270   29.5560   42.3370 C   0  0  0  0  0  0  0  0  0  0  0  0
   36.3970   29.6700   41.7000 C   0  0  0  0  0  0  0  0  0  0  0  0
   36.2540   30.6480   40.7060 C   0  0  0  0  0  0  0  0  0  0  0  0
   37.3340   31.4120   40.4420 N   0  0  0  0  0  0  0  0  0  0  0  0
   38.5150   31.2940   41.0610 C   0  0  0  0  0  0  0  0  0  0  0  0
   38.6490   30.3510   42.0180 N   0  0  0  0  0  0  0  0  0  0  0  0
   35.5630   29.0290   41.9530 H   0  0  0  0  0  0  0  0  0  0  0  0
   35.3150   30.7700   40.1860 H   0  0  0  0  0  0  0  0  0  0  0  0
   39.5200   33.2480   39.9430 C   0  0  0  0  0  3  0  0  0  0  0  0
   39.6660   32.1380   40.7530 C   0  0  0  0  0  0  0  0  0  0  0  0
   40.9220   31.8550   41.2570 C   0  0  0  0  0  0  0  0  0  0  0  0
   41.0250   30.9780   41.8940 H   0  0  0  0  0  0  0  0  0  0  0  0
   42.0340   32.6270   40.9910 C   0  0  0  0  0  0  0  0  0  0  0  0
   41.8090   33.7020   40.1850 C   0  0  0  0  0  0  0  0  0  0  0  0
   40.5950   34.0860   39.6210 C   0  0  0  0  0  3  0  0  0  0  0  0
   43.0250   34.3480   40.0310 O   0  0  0  0  0  0  0  0  0  0  0  0
   44.0050   33.7450   40.8230 C   0  0  0  0  0  3  0  0  0  0  0  0
   44.8470   33.4450   40.1600 H   0  0  0  0  0  0  0  0  0  0  0  0
   43.3690   32.5900   41.3420 O   0  0  0  0  0  0  0  0  0  0  0  0
   37.7130   28.2600   43.6080 S   0  0  0  0  0  0  0  0  0  0  0  0
   39.2310   26.1320   42.9280 C   0  0  0  0  0  0  0  0  0  0  0  0
   37.9600   26.6670   42.8200 C   0  0  0  0  0  0  0  0  0  0  0  0
   36.9550   26.0040   42.1440 C   0  0  0  0  0  0  0  0  0  0  0  0
   37.2170   24.7730   41.5560 C   0  0  0  0  0  0  0  0  0  0  0  0
   38.4980   24.2130   41.6550 C   0  0  0  0  0  0  0  0  0  0  0  0
   39.4920   24.8890   42.3350 C   0  0  0  0  0  0  0  0  0  0  0  0
   38.4770   22.9880   40.9820 O   0  0  0  0  0  0  0  0  0  0  0  0
   37.3070   23.0150   40.1610 C   0  0  0  0  0  0  0  0  0  0  0  0
   36.4070   23.8810   40.8170 O   0  0  0  0  0  0  0  0  0  0  0  0
   40.0730   26.5780   43.4360 H   0  0  0  0  0  0  0  0  0  0  0  0
   35.9780   26.4600   42.0840 H   0  0  0  0  0  0  0  0  0  0  0  0
   40.4710   24.4310   42.3940 H   0  0  0  0  0  0  0  0  0  0  0  0
   37.5350   23.3260   39.1160 H   0  0  0  0  0  0  0  0  0  0  0  0
   36.8130   22.0150   40.1650 H   0  0  0  0  0  0  0  0  0  0  0  0
  1 20  1  0  0  0  0
  2  7  1  0  0  0  0
  2  1  2  0  0  0  0
  3  2  1  0  0  0  0
  4  3  2  0  0  0  0
  4  5  1  0  0  0  0
  5  6  2  0  0  0  0
  6  1  1  0  0  0  0
  8  3  1  0  0  0  0
  9 10  1  0  0  0  0
 10  5  1  0  0  0  0
 10 11  2  0  0  0  0
 11 12  1  0  0  0  0
 13 11  1  0  0  0  0
 13 19  1  0  0  0  0
 14 13  2  0  0  0  0
 15  9  2  0  0  0  0
 15 14  1  0  0  0  0
 16 14  1  0  0  0  0
 16 17  1  0  0  0  0
 17 19  1  0  0  0  0
 18 17  1  0  0  0  0
 21 30  1  0  0  0  0
 22 21  1  0  0  0  0
 22 20  1  0  0  0  0
 23 22  2  0  0  0  0
 24 25  2  0  0  0  0
 24 23  1  0  0  0  0
 25 26  1  0  0  0  0
 26 32  1  0  0  0  0
 26 21  2  0  0  0  0
 27 25  1  0  0  0  0
 28 34  1  0  0  0  0
 28 29  1  0  0  0  0
 28 27  1  0  0  0  0
 29 24  1  0  0  0  0
 31 23  1  0  0  0  0
 33 28  1  0  0  0  0
M  END
>  <minimizedAffinity>
-5.89763546

$$$$

 OpenBabel03242515363D

 34 38  0  0  0  0  0  0  0  0999 V2000
   37.0610   30.6280   39.5680 C   0  0  0  0  0  0  0  0  0  0  0  0
   36.8010   30.5250   38.2060 C   0  0  0  0  0  0  0  0  0  0  0  0
   37.7110   31.1060   37.3120 C   0  0  0  0  0  0  0  0  0  0  0  0
   38.7820   31.7260   37.8500 N   0  0  0  0  0  0  0  0  0  0  0  0
   39.0240   31.8190   39.1630 C   0  0  0  0  0  0  0  0  0  0  0  0
   38.1450   31.2580   40.0210 N   0  0  0  0  0  0  0  0  0  0  0  0
   35.9240   30.0150   37.8310 H   0  0  0  0  0  0  0  0  0  0  0  0
   37.5460   31.0490   36.2460 H   0  0  0  0  0  0  0  0  0  0  0  0
   40.6600   33.6620   39.1340 C   0  0  0  0  0  3  0  0  0  0  0  0
   40.1930   32.4990   39.7130 C   0  0  0  0  0  0  0  0  0  0  0  0
   40.8590   32.0040   40.8190 C   0  0  0  0  0  0  0  0  0  0  0  0
   40.4820   31.0870   41.2690 H   0  0  0  0  0  0  0  0  0  0  0  0
   41.9660   32.6160   41.3710 C   0  0  0  0  0  0  0  0  0  0  0  0
   42.3650   33.7570   40.7420 C   0  0  0  0  0  0  0  0  0  0  0  0
   41.7770   34.3490   39.6270 C   0  0  0  0  0  3  0  0  0  0  0  0
   43.4760   34.2230   41.4260 O   0  0  0  0  0  0  0  0  0  0  0  0
   43.7230   33.4370   42.5550 C   0  0  0  0  0  3  0  0  0  0  0  0
   44.7660   33.0530   42.4860 H   0  0  0  0  0  0  0  0  0  0  0  0
   42.8080   32.3620   42.4350 O   0  0  0  0  0  0  0  0  0  0  0  0
   35.8240   29.8440   40.6440 S   0  0  0  0  0  0  0  0  0  0  0  0
   36.6750   28.0540   42.4790 C   0  0  0  0  0  0  0  0  0  0  0  0
   36.4040   28.2170   41.1320 C   0  0  0  0  0  0  0  0  0  0  0  0
   36.5740   27.1830   40.2340 C   0  0  0  0  0  0  0  0  0  0  0  0
   37.0280   25.9490   40.6820 C   0  0  0  0  0  0  0  0  0  0  0  0
   37.3080   25.7630   42.0420 C   0  0  0  0  0  0  0  0  0  0  0  0
   37.1310   26.8070   42.9290 C   0  0  0  0  0  0  0  0  0  0  0  0
   37.7410   24.4440   42.2080 O   0  0  0  0  0  0  0  0  0  0  0  0
   38.0880   23.9810   40.9010 C   0  0  0  0  0  0  0  0  0  0  0  0
   37.2920   24.7330   40.0110 O   0  0  0  0  0  0  0  0  0  0  0  0
   36.5700   28.8030   43.2500 H   0  0  0  0  0  0  0  0  0  0  0  0
   36.3510   27.3570   39.1910 H   0  0  0  0  0  0  0  0  0  0  0  0
   37.3560   26.6320   43.9730 H   0  0  0  0  0  0  0  0  0  0  0  0
   39.1800   24.0730   40.7010 H   0  0  0  0  0  0  0  0  0  0  0  0
   37.7620   22.9220   40.7700 H   0  0  0  0  0  0  0  0  0  0  0  0
  1  6  1  0  0  0  0
  1 20  1  0  0  0  0
  2  1  2  0  0  0  0
  3  4  2  0  0  0  0
  3  2  1  0  0  0  0
  4  5  1  0  0  0  0
  5 10  1  0  0  0  0
  5  6  2  0  0  0  0
  7  2  1  0  0  0  0
  8  3  1  0  0  0  0
  9 15  2  0  0  0  0
  9 10  1  0  0  0  0
 10 11  2  0  0  0  0
 11 12  1  0  0  0  0
 11 13  1  0  0  0  0
 13 19  1  0  0  0  0
 14 13  2  0  0  0  0
 14 16  1  0  0  0  0
 15 14  1  0  0  0  0
 16 17  1  0  0  0  0
 18 17  1  0  0  0  0
 19 17  1  0  0  0  0
 20 22  1  0  0  0  0
 21 26  1  0  0  0  0
 21 30  1  0  0  0  0
 22 21  2  0  0  0  0
 23 24  2  0  0  0  0
 23 22  1  0  0  0  0
 24 25  1  0  0  0  0
 25 27  1  0  0  0  0
 25 26  2  0  0  0  0
 26 32  1  0  0  0  0
 28 27  1  0  0  0  0
 29 24  1  0  0  0  0
 29 28  1  0  0  0  0
 31 23  1  0  0  0  0
 33 28  1  0  0  0  0
 34 28  1  0  0  0  0
M  END
>  <minimizedAffinity>
-5.87189484

$$$$

 OpenBabel03242515363D

 34 38  0  0  0  0  0  0  0  0999 V2000
   38.1500   32.2160   39.1600 C   0  0  0  0  0  0  0  0  0  0  0  0
   37.7460   33.2930   39.9410 C   0  0  0  0  0  0  0  0  0  0  0  0
   38.6890   34.2880   40.2350 C   0  0  0  0  0  0  0  0  0  0  0  0
   39.9300   34.1210   39.7310 N   0  0  0  0  0  0  0  0  0  0  0  0
   40.3090   33.0800   38.9800 C   0  0  0  0  0  0  0  0  0  0  0  0
   39.3970   32.1240   38.6980 N   0  0  0  0  0  0  0  0  0  0  0  0
   36.7360   33.3750   40.3180 H   0  0  0  0  0  0  0  0  0  0  0  0
   38.4170   35.1410   40.8380 H   0  0  0  0  0  0  0  0  0  0  0  0
   42.6720   33.7700   38.8670 C   0  0  0  0  0  3  0  0  0  0  0  0
   41.6600   32.9270   38.4500 C   0  0  0  0  0  0  0  0  0  0  0  0
   41.9650   31.9460   37.5260 C   0  0  0  0  0  0  0  0  0  0  0  0
   41.1600   31.2860   37.2040 H   0  0  0  0  0  0  0  0  0  0  0  0
   43.2290   31.7670   37.0020 C   0  0  0  0  0  0  0  0  0  0  0  0
   44.1710   32.6370   37.4620 C   0  0  0  0  0  0  0  0  0  0  0  0
   43.9830   33.6610   38.3870 C   0  0  0  0  0  3  0  0  0  0  0  0
   45.3600   32.3100   36.8320 O   0  0  0  0  0  0  0  0  0  0  0  0
   45.2010   31.1640   36.0480 C   0  0  0  0  0  3  0  0  0  0  0  0
   45.5020   31.4150   35.0060 H   0  0  0  0  0  0  0  0  0  0  0  0
   43.8090   30.9020   36.0950 O   0  0  0  0  0  0  0  0  0  0  0  0
   36.8570   30.9810   38.8330 S   0  0  0  0  0  0  0  0  0  0  0  0
   37.1770   30.0930   41.3640 C   0  0  0  0  0  0  0  0  0  0  0  0
   36.9540   29.6780   40.0630 C   0  0  0  0  0  0  0  0  0  0  0  0
   36.8150   28.3410   39.7470 C   0  0  0  0  0  0  0  0  0  0  0  0
   36.9020   27.3840   40.7520 C   0  0  0  0  0  0  0  0  0  0  0  0
   37.1270   27.7830   42.0760 C   0  0  0  0  0  0  0  0  0  0  0  0
   37.2620   29.1260   42.3750 C   0  0  0  0  0  0  0  0  0  0  0  0
   37.1680   26.6300   42.8640 O   0  0  0  0  0  0  0  0  0  0  0  0
   37.3590   25.5440   41.9550 C   0  0  0  0  0  0  0  0  0  0  0  0
   36.8040   25.9740   40.7310 O   0  0  0  0  0  0  0  0  0  0  0  0
   37.2950   31.1110   41.7000 H   0  0  0  0  0  0  0  0  0  0  0  0
   36.6430   28.0630   38.7180 H   0  0  0  0  0  0  0  0  0  0  0  0
   37.4360   29.4020   43.4070 H   0  0  0  0  0  0  0  0  0  0  0  0
   38.4310   25.2500   41.8730 H   0  0  0  0  0  0  0  0  0  0  0  0
   36.7440   24.6670   42.2690 H   0  0  0  0  0  0  0  0  0  0  0  0
  1  2  1  0  0  0  0
  2  3  2  0  0  0  0
  2  7  1  0  0  0  0
  3  8  1  0  0  0  0
  4  3  1  0  0  0  0
  5  4  2  0  0  0  0
  6  5  1  0  0  0  0
  6  1  2  0  0  0  0
 10  9  1  0  0  0  0
 10  5  1  0  0  0  0
 11 10  2  0  0  0  0
 12 11  1  0  0  0  0
 13 14  2  0  0  0  0
 13 11  1  0  0  0  0
 14 15  1  0  0  0  0
 15  9  2  0  0  0  0
 16 14  1  0  0  0  0
 17 19  1  0  0  0  0
 17 16  1  0  0  0  0
 18 17  1  0  0  0  0
 19 13  1  0  0  0  0
 20  1  1  0  0  0  0
 20 22  1  0  0  0  0
 21 30  1  0  0  0  0
 21 26  1  0  0  0  0
 22 21  2  0  0  0  0
 23 22  1  0  0  0  0
 23 24  2  0  0  0  0
 24 25  1  0  0  0  0
 25 26  2  0  0  0  0
 25 27  1  0  0  0  0
 26 32  1  0  0  0  0
 28 34  1  0  0  0  0
 28 27  1  0  0  0  0
 29 24  1  0  0  0  0
 29 28  1  0  0  0  0
 31 23  1  0  0  0  0
 33 28  1  0  0  0  0
M  END
>  <minimizedAffinity>
-5.83082724

$$$$

 OpenBabel03242515363D

 34 38  0  0  0  0  0  0  0  0999 V2000
   36.9960   29.0300   41.6850 C   0  0  0  0  0  0  0  0  0  0  0  0
   37.5730   29.1190   42.9470 C   0  0  0  0  0  0  0  0  0  0  0  0
   38.0280   27.9400   43.5510 C   0  0  0  0  0  0  0  0  0  0  0  0
   37.8700   26.7960   42.8530 N   0  0  0  0  0  0  0  0  0  0  0  0
   37.3140   26.7200   41.6380 C   0  0  0  0  0  0  0  0  0  0  0  0
   36.8760   27.8590   41.0590 N   0  0  0  0  0  0  0  0  0  0  0  0
   37.6740   30.0660   43.4610 H   0  0  0  0  0  0  0  0  0  0  0  0
   38.4820   27.9650   44.5310 H   0  0  0  0  0  0  0  0  0  0  0  0
   37.6930   24.2960   41.4090 C   0  0  0  0  0  3  0  0  0  0  0  0
   37.1560   25.4660   40.9090 C   0  0  0  0  0  0  0  0  0  0  0  0
   36.4710   25.4120   39.7090 C   0  0  0  0  0  0  0  0  0  0  0  0
   36.0510   26.3400   39.3240 H   0  0  0  0  0  0  0  0  0  0  0  0
   36.2980   24.2480   38.9890 C   0  0  0  0  0  0  0  0  0  0  0  0
   36.8580   23.1380   39.5480 C   0  0  0  0  0  0  0  0  0  0  0  0
   37.5670   23.0690   40.7440 C   0  0  0  0  0  3  0  0  0  0  0  0
   36.5860   22.0810   38.6950 O   0  0  0  0  0  0  0  0  0  0  0  0
   35.7640   22.4960   37.6450 C   0  0  0  0  0  3  0  0  0  0  0  0
   36.2780   22.2540   36.6870 H   0  0  0  0  0  0  0  0  0  0  0  0
   35.6820   23.9010   37.8030 O   0  0  0  0  0  0  0  0  0  0  0  0
   36.4380   30.6120   40.9850 S   0  0  0  0  0  0  0  0  0  0  0  0
   38.0040   32.7590   40.5030 C   0  0  0  0  0  0  0  0  0  0  0  0
   37.8180   31.4270   40.1790 C   0  0  0  0  0  0  0  0  0  0  0  0
   38.6520   30.7800   39.2890 C   0  0  0  0  0  0  0  0  0  0  0  0
   39.7030   31.4740   38.7010 C   0  0  0  0  0  0  0  0  0  0  0  0
   39.9080   32.8240   39.0160 C   0  0  0  0  0  0  0  0  0  0  0  0
   39.0650   33.4560   39.9090 C   0  0  0  0  0  0  0  0  0  0  0  0
   41.0190   33.2630   38.2900 O   0  0  0  0  0  0  0  0  0  0  0  0
   41.2210   32.2910   37.2620 C   0  0  0  0  0  0  0  0  0  0  0  0
   40.6980   31.0850   37.7750 O   0  0  0  0  0  0  0  0  0  0  0  0
   37.4040   33.3420   41.1860 H   0  0  0  0  0  0  0  0  0  0  0  0
   38.4700   29.7390   39.0660 H   0  0  0  0  0  0  0  0  0  0  0  0
   39.2490   34.4990   40.1320 H   0  0  0  0  0  0  0  0  0  0  0  0
   40.7560   32.5990   36.2980 H   0  0  0  0  0  0  0  0  0  0  0  0
   42.3120   32.1040   37.1190 H   0  0  0  0  0  0  0  0  0  0  0  0
  1  2  1  0  0  0  0
  2  7  1  0  0  0  0
  2  3  2  0  0  0  0
  3  8  1  0  0  0  0
  4  3  1  0  0  0  0
  5  4  2  0  0  0  0
  6  5  1  0  0  0  0
  6  1  2  0  0  0  0
 10  9  1  0  0  0  0
 10  5  1  0  0  0  0
 11 10  2  0  0  0  0
 12 11  1  0  0  0  0
 13 14  2  0  0  0  0
 13 11  1  0  0  0  0
 14 15  1  0  0  0  0
 15  9  2  0  0  0  0
 16 14  1  0  0  0  0
 17 19  1  0  0  0  0
 17 16  1  0  0  0  0
 18 17  1  0  0  0  0
 19 13  1  0  0  0  0
 20  1  1  0  0  0  0
 21 30  1  0  0  0  0
 22 21  1  0  0  0  0
 22 20  1  0  0  0  0
 23 22  2  0  0  0  0
 24 25  2  0  0  0  0
 24 23  1  0  0  0  0
 25 26  1  0  0  0  0
 26 32  1  0  0  0  0
 26 21  2  0  0  0  0
 27 25  1  0  0  0  0
 28 29  1  0  0  0  0
 28 27  1  0  0  0  0
 29 24  1  0  0  0  0
 31 23  1  0  0  0  0
 33 28  1  0  0  0  0
 34 28  1  0  0  0  0
M  END
>  <minimizedAffinity>
-5.75928068

$$$$

 OpenBabel03242515363D

 34 38  0  0  0  0  0  0  0  0999 V2000
   35.9050   26.8300   38.2390 C   0  0  0  0  0  0  0  0  0  0  0  0
   34.7890   27.0920   37.4530 C   0  0  0  0  0  0  0  0  0  0  0  0
   34.3810   28.4250   37.3050 C   0  0  0  0  0  0  0  0  0  0  0  0
   35.1140   29.3610   37.9430 N   0  0  0  0  0  0  0  0  0  0  0  0
   36.1880   29.0990   38.6980 C   0  0  0  0  0  0  0  0  0  0  0  0
   36.5770   27.8130   38.8380 N   0  0  0  0  0  0  0  0  0  0  0  0
   34.2390   26.3000   36.9630 H   0  0  0  0  0  0  0  0  0  0  0  0
   33.5190   28.6720   36.7030 H   0  0  0  0  0  0  0  0  0  0  0  0
   37.8970   29.7930   40.3320 C   0  0  0  0  0  3  0  0  0  0  0  0
   36.9580   30.1350   39.3780 C   0  0  0  0  0  0  0  0  0  0  0  0
   36.7750   31.4750   39.0910 C   0  0  0  0  0  0  0  0  0  0  0  0
   36.0320   31.7330   38.3370 H   0  0  0  0  0  0  0  0  0  0  0  0
   37.4820   32.4850   39.7100 C   0  0  0  0  0  0  0  0  0  0  0  0
   38.3880   32.0670   40.6380 C   0  0  0  0  0  0  0  0  0  0  0  0
   38.6600   30.7530   41.0090 C   0  0  0  0  0  3  0  0  0  0  0  0
   38.9930   33.2040   41.1470 O   0  0  0  0  0  0  0  0  0  0  0  0
   38.5490   34.3410   40.4680 C   0  0  0  0  0  3  0  0  0  0  0  0
   38.1290   35.0490   41.2190 H   0  0  0  0  0  0  0  0  0  0  0  0
   37.5120   33.8630   39.6300 O   0  0  0  0  0  0  0  0  0  0  0  0
   36.3540   25.0740   38.3690 S   0  0  0  0  0  0  0  0  0  0  0  0
   36.6850   24.3560   40.9510 C   0  0  0  0  0  0  0  0  0  0  0  0
   37.3570   24.8210   39.8350 C   0  0  0  0  0  0  0  0  0  0  0  0
   38.7140   25.0710   39.8630 C   0  0  0  0  0  0  0  0  0  0  0  0
   39.4300   24.8530   41.0350 C   0  0  0  0  0  0  0  0  0  0  0  0
   38.7680   24.3820   42.1760 C   0  0  0  0  0  0  0  0  0  0  0  0
   37.4090   24.1360   42.1310 C   0  0  0  0  0  0  0  0  0  0  0  0
   39.7190   24.2550   43.1940 O   0  0  0  0  0  0  0  0  0  0  0  0
   40.8490   25.0200   42.7670 C   0  0  0  0  0  0  0  0  0  0  0  0
   40.7960   25.0160   41.3580 O   0  0  0  0  0  0  0  0  0  0  0  0
   35.6310   24.1330   41.0180 H   0  0  0  0  0  0  0  0  0  0  0  0
   39.1970   25.4340   38.9680 H   0  0  0  0  0  0  0  0  0  0  0  0
   36.9280   23.7720   43.0290 H   0  0  0  0  0  0  0  0  0  0  0  0
   40.8500   26.0440   43.2060 H   0  0  0  0  0  0  0  0  0  0  0  0
   41.7930   24.4880   43.0310 H   0  0  0  0  0  0  0  0  0  0  0  0
  1 20  1  0  0  0  0
  1  6  1  0  0  0  0
  2  1  2  0  0  0  0
  3  2  1  0  0  0  0
  3  4  2  0  0  0  0
  4  5  1  0  0  0  0
  5  6  2  0  0  0  0
  5 10  1  0  0  0  0
  7  2  1  0  0  0  0
  8  3  1  0  0  0  0
  9 15  1  0  0  0  0
 10  9  2  0  0  0  0
 11 10  1  0  0  0  0
 11 13  2  0  0  0  0
 12 11  1  0  0  0  0
 13 14  1  0  0  0  0
 14 15  2  0  0  0  0
 14 16  1  0  0  0  0
 17 16  1  0  0  0  0
 17 18  1  0  0  0  0
 19 13  1  0  0  0  0
 19 17  1  0  0  0  0
 20 22  1  0  0  0  0
 21 30  1  0  0  0  0
 21 26  1  0  0  0  0
 22 23  1  0  0  0  0
 22 21  2  0  0  0  0
 23 24  2  0  0  0  0
 24 29  1  0  0  0  0
 24 25  1  0  0  0  0
 25 27  1  0  0  0  0
 26 25  2  0  0  0  0
 26 32  1  0  0  0  0
 28 34  1  0  0  0  0
 28 27  1  0  0  0  0
 28 33  1  0  0  0  0
 29 28  1  0  0  0  0
 31 23  1  0  0  0  0
M  END
>  <minimizedAffinity>
-5.72052097

$$$$
