
 OpenBabel03242523383D

 21 23  0  0  0  0  0  0  0  0999 V2000
   46.1200   31.5270   45.0560 C   0  0  0  0  0  3  0  0  0  0  0  0
   45.9060   32.8230   45.4620 C   0  0  0  0  0  0  0  0  0  0  0  0
   45.6890   33.1890   46.7960 C   0  0  0  0  0  0  0  0  0  0  0  0
   45.5250   34.1950   47.0950 H   0  0  0  0  0  0  0  0  0  0  0  0
   45.7070   32.1190   47.6870 C   0  0  0  0  0  0  0  0  0  0  0  0
   45.9130   30.7980   47.3550 C   0  0  0  0  0  0  0  0  0  0  0  0
   46.1190   30.5490   46.0060 C   0  0  0  0  0  3  0  0  0  0  0  0
   45.8490   30.0780   48.5390 O   0  0  0  0  0  0  0  0  0  0  0  0
   45.4150   30.9240   49.5710 C   0  0  0  0  0  3  0  0  0  0  0  0
   46.0560   30.8110   50.4720 H   0  0  0  0  0  0  0  0  0  0  0  0
   45.5130   32.2310   49.0770 O   0  0  0  0  0  0  0  0  0  0  0  0
   44.9790   35.8750   43.6280 C   0  0  0  0  0  0  0  0  0  0  0  0
   45.9280   35.8980   42.5750 C   0  0  0  0  0  0  0  0  0  0  0  0
   46.8720   34.8470   42.5240 C   0  0  0  0  0  0  0  0  0  0  0  0
   46.8190   33.8890   43.4750 N   0  0  0  0  0  0  0  0  0  0  0  0
   45.9020   33.9060   44.4580 C   0  0  0  0  0  0  0  0  0  0  0  0
   44.9970   34.8840   44.5340 N   0  0  0  0  0  0  0  0  0  0  0  0
   44.3120   36.7080   43.5800 H   0  0  0  0  0  0  0  0  0  0  0  0
   45.9540   36.6700   41.8270 H   0  0  0  0  0  0  0  0  0  0  0  0
   48.0860   34.8170   41.2280 S   0  0  0  0  0  0  0  0  0  0  0  0
   48.6790   33.5210   41.2320 H   0  0  0  0  0  0  0  0  0  0  0  0
  1  2  2  0  0  0  0
  1  7  1  0  0  0  0
  2  3  1  0  0  0  0
  3  4  1  0  0  0  0
  3  5  2  0  0  0  0
  5 11  1  0  0  0  0
  6  5  1  0  0  0  0
  6  8  1  0  0  0  0
  7  6  2  0  0  0  0
  8  9  1  0  0  0  0
  9 10  1  0  0  0  0
 11  9  1  0  0  0  0
 12 17  1  0  0  0  0
 13 12  2  0  0  0  0
 14 13  1  0  0  0  0
 14 15  2  0  0  0  0
 15 16  1  0  0  0  0
 16 17  2  0  0  0  0
 16  2  1  0  0  0  0
 18 12  1  0  0  0  0
 19 13  1  0  0  0  0
 20 21  1  0  0  0  0
 20 14  1  0  0  0  0
M  END
>  <minimizedAffinity>
-4.76230717

>  <minimizedRMSD>
1.1575166

$$$$
