
 OpenBabel03252508323D

 34 37  0  0  1  0  0  0  0  0999 V2000
   44.9160   34.7030   42.5640 N   0  0  0  0  0  0  0  0  0  0  0  0
   45.5690   33.8050   41.6910 C   0  0  1  0  0  0  0  0  0  0  0  0
   45.2910   33.9850   40.2440 C   0  0  0  0  0  0  0  0  0  0  0  0
   44.0140   34.4430   39.8860 N   0  0  0  0  0  0  0  0  0  0  0  0
   43.3550   35.3170   40.7690 C   0  0  0  0  0  0  0  0  0  0  0  0
   44.2590   35.7840   41.8930 C   0  0  0  0  0  0  0  0  0  0  0  0
   45.2570   32.7600   41.9720 H   0  0  0  0  0  0  0  0  0  0  0  0
   45.5370   33.0540   39.6940 H   0  0  0  0  0  0  0  0  0  0  0  0
   46.0350   34.7420   39.8550 H   0  0  0  0  0  0  0  0  0  0  0  0
   43.3870   33.5920   39.7690 H   0  0  0  0  0  0  0  0  0  0  0  0
   42.4080   34.9570   41.2090 H   0  0  0  0  0  0  0  0  0  0  0  0
   43.0930   36.2420   40.1940 H   0  0  0  0  0  0  0  0  0  0  0  0
   45.0340   36.4850   41.4640 H   0  0  0  0  0  0  0  0  0  0  0  0
   43.6160   36.4220   42.5260 H   0  0  0  0  0  0  0  0  0  0  0  0
   47.7970   35.0020   41.8510 C   0  0  0  0  0  3  0  0  0  0  0  0
   47.0680   33.8350   41.8300 C   0  0  0  0  0  0  0  0  0  0  0  0
   47.8500   32.6790   41.9360 C   0  0  0  0  0  0  0  0  0  0  0  0
   47.3400   31.7230   41.9270 H   0  0  0  0  0  0  0  0  0  0  0  0
   49.2210   32.6900   42.0500 C   0  0  0  0  0  0  0  0  0  0  0  0
   49.8780   33.8990   42.0610 C   0  0  0  0  0  0  0  0  0  0  0  0
   49.1590   35.0740   41.9610 C   0  0  0  0  0  3  0  0  0  0  0  0
   51.2460   33.6040   42.1850 O   0  0  0  0  0  0  0  0  0  0  0  0
   51.4520   32.2250   41.9140 C   0  0  0  0  0  3  0  0  0  0  0  0
   51.7700   32.1340   40.8550 H   0  0  0  0  0  0  0  0  0  0  0  0
   50.1670   31.6860   42.1640 O   0  0  0  0  0  0  0  0  0  0  0  0
   44.4550   35.4780   44.7770 C   0  0  0  0  0  0  0  0  0  0  0  0
   44.9710   34.4670   43.9550 C   0  0  0  0  0  0  0  0  0  0  0  0
   45.4840   33.3420   44.5730 C   0  0  0  0  0  0  0  0  0  0  0  0
   45.4900   33.2180   45.9280 N   0  0  0  0  0  0  0  0  0  0  0  0
   44.9780   34.2270   46.6980 C   0  0  0  0  0  0  0  0  0  0  0  0
   44.4730   35.3320   46.1120 N   0  0  0  0  0  0  0  0  0  0  0  0
   44.0160   36.4230   44.5050 H   0  0  0  0  0  0  0  0  0  0  0  0
   45.8760   32.5580   43.9520 H   0  0  0  0  0  0  0  0  0  0  0  0
   44.9930   34.1070   47.7740 H   0  0  0  0  0  0  0  0  0  0  0  0
  1 27  1  0  0  0  0
  2 16  1  0  0  0  0
  2  7  1  1  0  0  0
  2  1  1  0  0  0  0
  3  2  1  0  0  0  0
  4  3  1  0  0  0  0
  4  5  1  0  0  0  0
  5 11  1  0  0  0  0
  5  6  1  0  0  0  0
  6 14  1  0  0  0  0
  6  1  1  0  0  0  0
  8  3  1  0  0  0  0
  9  3  1  0  0  0  0
 10  4  1  0  0  0  0
 12  5  1  0  0  0  0
 13  6  1  0  0  0  0
 15 21  1  0  0  0  0
 16 15  2  0  0  0  0
 16 17  1  0  0  0  0
 17 19  2  0  0  0  0
 18 17  1  0  0  0  0
 19 20  1  0  0  0  0
 19 25  1  0  0  0  0
 20 22  1  0  0  0  0
 21 20  2  0  0  0  0
 23 25  1  0  0  0  0
 23 22  1  0  0  0  0
 24 23  1  0  0  0  0
 26 31  1  0  0  0  0
 27 28  1  0  0  0  0
 27 26  2  0  0  0  0
 28 29  2  0  0  0  0
 29 30  1  0  0  0  0
 30 34  1  0  0  0  0
 31 30  2  0  0  0  0
 32 26  1  0  0  0  0
 33 28  1  0  0  0  0
M  END
>  <minimizedAffinity>
-5.23361588

>  <minimizedRMSD>
1.77667797

$$$$
