
 OpenBabel03242523373D

 21 23  0  0  0  0  0  0  0  0999 V2000
   45.2810   33.2040   47.2430 C   0  0  0  0  0  3  0  0  0  0  0  0
   45.6410   32.9540   45.9410 C   0  0  0  0  0  0  0  0  0  0  0  0
   46.0620   31.7000   45.4820 C   0  0  0  0  0  0  0  0  0  0  0  0
   46.3380   31.5210   44.4730 H   0  0  0  0  0  0  0  0  0  0  0  0
   46.0840   30.7160   46.4660 C   0  0  0  0  0  0  0  0  0  0  0  0
   45.7370   30.8910   47.7890 C   0  0  0  0  0  0  0  0  0  0  0  0
   45.3360   32.1730   48.1330 C   0  0  0  0  0  3  0  0  0  0  0  0
   45.9050   29.6600   48.4090 O   0  0  0  0  0  0  0  0  0  0  0  0
   46.5360   28.7780   47.5190 C   0  0  0  0  0  3  0  0  0  0  0  0
   46.0150   27.7960   47.4990 H   0  0  0  0  0  0  0  0  0  0  0  0
   46.4690   29.3780   46.2550 O   0  0  0  0  0  0  0  0  0  0  0  0
   44.7050   36.0810   44.2410 C   0  0  0  0  0  0  0  0  0  0  0  0
   45.5320   36.0630   43.0910 C   0  0  0  0  0  0  0  0  0  0  0  0
   46.4010   34.9590   42.9300 C   0  0  0  0  0  0  0  0  0  0  0  0
   46.3950   33.9920   43.8730 N   0  0  0  0  0  0  0  0  0  0  0  0
   45.5930   34.0490   44.9510 C   0  0  0  0  0  0  0  0  0  0  0  0
   44.7610   35.0780   45.1330 N   0  0  0  0  0  0  0  0  0  0  0  0
   44.0870   36.9520   44.2730 H   0  0  0  0  0  0  0  0  0  0  0  0
   45.5230   36.8420   42.3510 H   0  0  0  0  0  0  0  0  0  0  0  0
   47.4630   34.8760   41.5090 S   0  0  0  0  0  0  0  0  0  0  0  0
   47.9740   33.5470   41.4380 H   0  0  0  0  0  0  0  0  0  0  0  0
  1  7  1  0  0  0  0
  2  1  2  0  0  0  0
  3  2  1  0  0  0  0
  3  5  2  0  0  0  0
  4  3  1  0  0  0  0
  5  6  1  0  0  0  0
  6  7  2  0  0  0  0
  6  8  1  0  0  0  0
  9  8  1  0  0  0  0
 10  9  1  0  0  0  0
 11  5  1  0  0  0  0
 11  9  1  0  0  0  0
 12 18  1  0  0  0  0
 12 17  1  0  0  0  0
 13 12  2  0  0  0  0
 14 13  1  0  0  0  0
 14 15  2  0  0  0  0
 15 16  1  0  0  0  0
 16 17  2  0  0  0  0
 16  2  1  0  0  0  0
 19 13  1  0  0  0  0
 20 14  1  0  0  0  0
 21 20  1  0  0  0  0
M  END
>  <minimizedAffinity>
-4.64407539

>  <minimizedRMSD>
0.67570585

$$$$
