
 OpenBabel03252508543D

 45 49  0  0  1  0  0  0  0  0999 V2000
   43.4070   34.5280   40.7570 C   0  0  0  0  0  0  0  0  0  0  0  0
   43.3610   35.7770   40.4990 O   0  0  0  0  0  0  0  0  0  0  0  0
   42.0430   34.1540   40.4290 N   0  0  0  0  0  0  0  0  0  0  0  0
   41.6650   34.3980   39.0530 C   0  0  0  0  0  0  0  0  0  0  0  0
   40.8730   35.7230   39.0900 C   0  0  0  0  0  0  0  0  0  0  0  0
   40.0880   35.7170   40.4100 C   0  0  0  0  0  0  0  0  0  0  0  0
   39.7330   34.3070   40.8240 C   0  0  0  0  0  0  0  0  0  0  0  0
   41.0160   33.5810   41.2700 C   0  0  1  0  0  0  0  0  0  0  0  0
   42.5190   34.5820   38.3790 H   0  0  0  0  0  0  0  0  0  0  0  0
   41.0380   33.6040   38.6150 H   0  0  0  0  0  0  0  0  0  0  0  0
   41.5950   36.5670   39.1710 H   0  0  0  0  0  0  0  0  0  0  0  0
   40.2370   35.8540   38.2150 H   0  0  0  0  0  0  0  0  0  0  0  0
   39.1260   36.2260   40.1940 H   0  0  0  0  0  0  0  0  0  0  0  0
   40.6500   36.1920   41.2320 H   0  0  0  0  0  0  0  0  0  0  0  0
   39.3660   33.8010   39.8960 H   0  0  0  0  0  0  0  0  0  0  0  0
   39.0060   34.3720   41.6310 H   0  0  0  0  0  0  0  0  0  0  0  0
   41.2660   33.8140   42.3090 H   0  0  0  0  0  0  0  0  0  0  0  0
   41.3200   31.3920   40.0300 C   0  0  0  0  0  3  0  0  0  0  0  0
   40.8580   32.1150   41.1070 C   0  0  0  0  0  0  0  0  0  0  0  0
   40.1970   31.4310   42.1140 C   0  0  0  0  0  0  0  0  0  0  0  0
   39.7870   31.9060   43.0170 H   0  0  0  0  0  0  0  0  0  0  0  0
   40.0000   30.0660   42.0540 C   0  0  0  0  0  0  0  0  0  0  0  0
   40.4750   29.3500   40.9560 C   0  0  0  0  0  0  0  0  0  0  0  0
   41.1340   30.0140   39.9470 C   0  0  0  0  0  3  0  0  0  0  0  0
   40.1460   27.9960   41.1450 O   0  0  0  0  0  0  0  0  0  0  0  0
   40.0400   27.8480   42.5680 C   0  0  0  0  0  3  0  0  0  0  0  0
   39.4580   26.9750   42.8640 H   0  0  0  0  0  0  0  0  0  0  0  0
   39.3930   29.0940   42.8730 O   0  0  0  0  0  0  0  0  0  0  0  0
   44.4830   33.8310   41.2100 O   0  0  0  0  0  0  0  0  0  0  0  0
   45.8110   34.1570   41.0790 C   0  0  0  0  0  0  0  0  0  0  0  0
   46.4390   34.7670   42.1630 C   0  0  0  0  0  0  0  0  0  0  0  0
   47.7950   35.0890   42.0050 C   0  0  0  0  0  0  0  0  0  0  0  0
   48.4090   34.7910   40.8150 N   0  0  0  0  0  0  0  0  0  0  0  0
   47.7520   34.2070   39.8150 C   0  0  0  0  0  0  0  0  0  0  0  0
   46.4570   33.8860   39.9340 N   0  0  0  0  0  0  0  0  0  0  0  0
   48.2840   35.5620   42.8430 H   0  0  0  0  0  0  0  0  0  0  0  0
   48.2580   33.9770   38.8760 H   0  0  0  0  0  0  0  0  0  0  0  0
   45.6970   35.0380   43.3760 C   0  0  0  0  0  0  0  0  0  0  0  0
   45.0510   36.2540   43.6080 C   0  0  0  0  0  0  0  0  0  0  0  0
   44.4870   36.0870   44.8450 C   0  0  0  0  0  0  0  0  0  0  0  0
   44.7650   34.8560   45.3420 N   0  0  0  0  0  0  0  0  0  0  0  0
   45.4950   34.2540   44.4300 N   0  0  0  0  0  0  0  0  0  0  0  0
   45.0250   37.1050   42.9410 H   0  0  0  0  0  0  0  0  0  0  0  0
   43.8970   36.8680   45.3320 H   0  0  0  0  0  0  0  0  0  0  0  0
   44.4120   34.5490   46.2850 H   0  0  0  0  0  0  0  0  0  0  0  0
  1 29  1  0  0  0  0
  2  1  2  0  0  0  0
  3  1  1  0  0  0  0
  3  8  1  0  0  0  0
  4  5  1  0  0  0  0
  4  3  1  0  0  0  0
  5 11  1  0  0  0  0
  5  6  1  0  0  0  0
  6  7  1  0  0  0  0
  6 14  1  0  0  0  0
  7  8  1  0  0  0  0
  7 16  1  0  0  0  0
  8 17  1  1  0  0  0
  9  4  1  0  0  0  0
 10  4  1  0  0  0  0
 12  5  1  0  0  0  0
 13  6  1  0  0  0  0
 15  7  1  0  0  0  0
 18 19  1  0  0  0  0
 19  8  1  0  0  0  0
 19 20  2  0  0  0  0
 20 21  1  0  0  0  0
 22 20  1  0  0  0  0
 22 28  1  0  0  0  0
 23 25  1  0  0  0  0
 23 22  2  0  0  0  0
 24 18  2  0  0  0  0
 24 23  1  0  0  0  0
 25 26  1  0  0  0  0
 26 27  1  0  0  0  0
 26 28  1  0  0  0  0
 30 29  1  0  0  0  0
 30 31  1  0  0  0  0
 31 38  1  0  0  0  0
 32 31  2  0  0  0  0
 32 36  1  0  0  0  0
 33 32  1  0  0  0  0
 34 35  1  0  0  0  0
 34 33  2  0  0  0  0
 35 30  2  0  0  0  0
 37 34  1  0  0  0  0
 38 39  1  0  0  0  0
 38 42  2  0  0  0  0
 39 40  2  0  0  0  0
 40 44  1  0  0  0  0
 40 41  1  0  0  0  0
 41 45  1  0  0  0  0
 42 41  1  0  0  0  0
 43 39  1  0  0  0  0
M  END
>  <minimizedAffinity>
-7.10800886

>  <minimizedRMSD>
0.184125885

$$$$
