
 OpenBabel03242522403D

 42 45  0  0  0  0  0  0  0  0999 V2000
   47.3820   32.2010   47.8390 C   0  0  0  0  0  0  0  0  0  0  0  0
   47.1350   31.2480   46.8140 C   0  0  0  0  0  0  0  0  0  0  0  0
   47.7180   29.9890   46.9510 C   0  0  0  0  0  0  0  0  0  0  0  0
   48.4870   29.7470   48.0570 N   0  0  0  0  0  0  0  0  0  0  0  0
   48.6860   30.6690   48.9850 C   0  0  0  0  0  0  0  0  0  0  0  0
   48.1470   31.8810   48.8850 N   0  0  0  0  0  0  0  0  0  0  0  0
   46.9750   33.1920   47.8140 H   0  0  0  0  0  0  0  0  0  0  0  0
   47.5470   29.2470   46.1880 H   0  0  0  0  0  0  0  0  0  0  0  0
   46.2900   31.6130   45.6750 C   0  0  0  0  0  0  0  0  0  0  0  0
   46.2170   30.6880   45.0280 H   0  0  0  0  0  0  0  0  0  0  0  0
   45.2530   31.8620   45.9050 H   0  0  0  0  0  0  0  0  0  0  0  0
   47.0330   32.6560   44.8680 C   0  0  0  0  0  0  0  0  0  0  0  0
   47.9470   33.0270   45.4170 H   0  0  0  0  0  0  0  0  0  0  0  0
   47.4600   32.2090   43.9360 H   0  0  0  0  0  0  0  0  0  0  0  0
   46.5060   34.4900   43.3260 C   0  0  0  0  0  0  0  0  0  0  0  0
   46.2610   33.8470   44.5270 C   0  0  0  0  0  0  0  0  0  0  0  0
   45.3230   34.2760   45.4160 C   0  0  0  0  0  0  0  0  0  0  0  0
   44.5830   35.3990   45.1080 C   0  0  0  0  0  0  0  0  0  0  0  0
   44.7680   36.0890   43.9410 C   0  0  0  0  0  0  0  0  0  0  0  0
   45.7380   35.5970   43.0820 C   0  0  0  0  0  0  0  0  0  0  0  0
   45.0630   33.8530   46.3600 H   0  0  0  0  0  0  0  0  0  0  0  0
   43.8070   35.8180   45.7620 H   0  0  0  0  0  0  0  0  0  0  0  0
   44.2260   36.9800   43.6290 H   0  0  0  0  0  0  0  0  0  0  0  0
   45.9090   36.1240   42.1450 H   0  0  0  0  0  0  0  0  0  0  0  0
   47.6970   33.9760   42.1630 S   0  0  0  0  0  0  0  0  0  0  0  0
   49.0920   34.4480   42.5080 O   0  0  0  0  0  0  0  0  0  0  0  0
   47.4010   34.6520   40.8320 O   0  0  0  0  0  0  0  0  0  0  0  0
   47.7370   32.6400   41.9640 H   0  0  0  0  0  0  0  0  0  0  0  0
   49.5310   30.2980   50.1750 C   0  0  0  0  0  0  0  0  0  0  0  0
   49.8050   29.2220   50.1610 H   0  0  0  0  0  0  0  0  0  0  0  0
   48.8970   30.4940   51.0640 H   0  0  0  0  0  0  0  0  0  0  0  0
   51.6120   31.2680   49.2290 C   0  0  0  0  0  3  0  0  0  0  0  0
   50.7160   31.1800   50.2750 C   0  0  0  0  0  0  0  0  0  0  0  0
   50.8780   31.9020   51.4590 C   0  0  0  0  0  0  0  0  0  0  0  0
   50.1640   31.8060   52.2430 H   0  0  0  0  0  0  0  0  0  0  0  0
   51.9930   32.7120   51.5160 C   0  0  0  0  0  0  0  0  0  0  0  0
   52.9140   32.8310   50.4950 C   0  0  0  0  0  0  0  0  0  0  0  0
   52.7100   32.0940   49.3410 C   0  0  0  0  0  3  0  0  0  0  0  0
   53.8880   33.7220   50.9010 O   0  0  0  0  0  0  0  0  0  0  0  0
   53.6530   34.0430   52.2600 C   0  0  0  0  0  3  0  0  0  0  0  0
   53.6380   35.1470   52.4330 H   0  0  0  0  0  0  0  0  0  0  0  0
   52.3800   33.5260   52.5720 O   0  0  0  0  0  0  0  0  0  0  0  0
  1  6  1  0  0  0  0
  2  3  1  0  0  0  0
  2  1  2  0  0  0  0
  3  4  2  0  0  0  0
  4  5  1  0  0  0  0
  5 29  1  0  0  0  0
  6  5  2  0  0  0  0
  7  1  1  0  0  0  0
  8  3  1  0  0  0  0
  9 11  1  0  0  0  0
  9  2  1  0  0  0  0
 10  9  1  0  0  0  0
 12 13  1  0  0  0  0
 12  9  1  0  0  0  0
 14 12  1  0  0  0  0
 15 16  1  0  0  0  0
 16 12  1  0  0  0  0
 16 17  2  0  0  0  0
 17 21  1  0  0  0  0
 18 17  1  0  0  0  0
 18 22  1  0  0  0  0
 19 18  2  0  0  0  0
 20 15  2  0  0  0  0
 20 19  1  0  0  0  0
 23 19  1  0  0  0  0
 24 20  1  0  0  0  0
 25 26  2  0  0  0  0
 25 15  1  0  0  0  0
 27 25  2  0  0  0  0
 28 25  1  0  0  0  0
 29 33  1  0  0  0  0
 29 31  1  0  0  0  0
 30 29  1  0  0  0  0
 32 38  2  0  0  0  0
 32 33  1  0  0  0  0
 33 34  2  0  0  0  0
 34 36  1  0  0  0  0
 34 35  1  0  0  0  0
 36 42  1  0  0  0  0
 37 39  1  0  0  0  0
 37 36  2  0  0  0  0
 38 37  1  0  0  0  0
 39 40  1  0  0  0  0
 40 41  1  0  0  0  0
 40 42  1  0  0  0  0
M  END
>  <minimizedAffinity>
-6.12677002

>  <minimizedRMSD>
1.46442068

$$$$
