
 OpenBabel03252503193D

 41 45  0  0  0  0  0  0  0  0999 V2000
   46.4080   33.6720   40.9310 C   0  0  0  0  0  0  0  0  0  0  0  0
   45.1350   33.2200   40.7540 C   0  0  0  0  0  0  0  0  0  0  0  0
   45.1860   32.3500   39.7200 N   0  0  0  0  0  0  0  0  0  0  0  0
   46.4450   32.2770   39.2840 C   0  0  0  0  0  0  0  0  0  0  0  0
   47.1980   33.0900   40.0300 N   0  0  0  0  0  0  0  0  0  0  0  0
   47.0140   31.5150   38.2330 N   0  0  0  0  0  0  0  0  0  0  0  0
   44.2540   33.4940   41.3200 H   0  0  0  0  0  0  0  0  0  0  0  0
   47.3130   30.5040   38.1700 H   0  0  0  0  0  0  0  0  0  0  0  0
   47.2520   31.8470   37.2780 H   0  0  0  0  0  0  0  0  0  0  0  0
   44.0990   31.5900   39.1290 C   0  0  0  0  0  0  0  0  0  0  0  0
   44.4370   31.0880   38.2030 H   0  0  0  0  0  0  0  0  0  0  0  0
   43.6820   30.8450   39.8200 H   0  0  0  0  0  0  0  0  0  0  0  0
   41.7490   32.0020   38.6340 C   0  0  0  0  0  3  0  0  0  0  0  0
   43.0260   32.5350   38.7160 C   0  0  0  0  0  0  0  0  0  0  0  0
   43.1590   33.8710   38.4090 C   0  0  0  0  0  0  0  0  0  0  0  0
   44.1660   34.2570   38.4820 H   0  0  0  0  0  0  0  0  0  0  0  0
   42.0450   34.5990   38.0430 C   0  0  0  0  0  0  0  0  0  0  0  0
   40.7830   34.0530   37.9670 C   0  0  0  0  0  0  0  0  0  0  0  0
   40.6340   32.7210   38.2710 C   0  0  0  0  0  3  0  0  0  0  0  0
   39.9120   35.0820   37.5660 O   0  0  0  0  0  0  0  0  0  0  0  0
   40.5650   36.3220   37.6990 C   0  0  0  0  0  3  0  0  0  0  0  0
   40.3200   37.0260   36.8810 H   0  0  0  0  0  0  0  0  0  0  0  0
   41.9270   35.9380   37.6930 O   0  0  0  0  0  0  0  0  0  0  0  0
   46.8880   34.6570   41.9530 C   0  0  0  0  0  0  0  0  0  0  0  0
   47.9610   35.3240   41.8700 O   0  0  0  0  0  0  0  0  0  0  0  0
   45.4480   36.1210   43.2860 C   0  0  0  0  0  0  0  0  0  0  0  0
   46.1180   34.8930   43.1190 C   0  0  0  0  0  0  0  0  0  0  0  0
   45.9390   34.0030   44.1670 C   0  0  0  0  0  0  0  0  0  0  0  0
   45.2030   34.2730   45.2430 N   0  0  0  0  0  0  0  0  0  0  0  0
   44.5790   35.4800   45.3480 C   0  0  0  0  0  0  0  0  0  0  0  0
   44.7070   36.3850   44.3770 N   0  0  0  0  0  0  0  0  0  0  0  0
   45.5090   36.9000   42.5350 H   0  0  0  0  0  0  0  0  0  0  0  0
   43.9950   35.6340   46.2530 H   0  0  0  0  0  0  0  0  0  0  0  0
   46.5870   32.7330   44.0790 C   0  0  0  0  0  0  0  0  0  0  0  0
   47.8690   32.2930   44.0710 C   0  0  0  0  0  0  0  0  0  0  0  0
   48.1900   31.0240   43.9750 C   0  0  0  0  0  0  0  0  0  0  0  0
   47.1660   30.1670   43.8830 C   0  0  0  0  0  0  0  0  0  0  0  0
   45.6740   31.2040   43.9350 S   0  0  0  0  0  0  0  0  0  0  0  0
   48.6100   33.1150   44.1540 H   0  0  0  0  0  0  0  0  0  0  0  0
   49.1920   30.6150   43.9640 H   0  0  0  0  0  0  0  0  0  0  0  0
   47.1730   29.0130   43.7900 H   0  0  0  0  0  0  0  0  0  0  0  0
  1 24  1  0  0  0  0
  2  1  2  0  0  0  0
  2  7  1  0  0  0  0
  3  2  1  0  0  0  0
  4  3  1  0  0  0  0
  4  5  2  0  0  0  0
  5  1  1  0  0  0  0
  6  4  1  0  0  0  0
  8  6  1  0  0  0  0
  9  6  1  0  0  0  0
 10  3  1  0  0  0  0
 10 12  1  0  0  0  0
 11 10  1  0  0  0  0
 13 14  1  0  0  0  0
 14 10  1  0  0  0  0
 15 16  1  0  0  0  0
 15 14  2  0  0  0  0
 17 15  1  0  0  0  0
 18 17  2  0  0  0  0
 18 19  1  0  0  0  0
 19 13  2  0  0  0  0
 20 21  1  0  0  0  0
 20 18  1  0  0  0  0
 22 21  1  0  0  0  0
 23 21  1  0  0  0  0
 23 17  1  0  0  0  0
 24 27  1  0  0  0  0
 25 24  2  0  0  0  0
 26 31  1  0  0  0  0
 27 26  2  0  0  0  0
 27 28  1  0  0  0  0
 28 29  2  0  0  0  0
 29 30  1  0  0  0  0
 30 33  1  0  0  0  0
 31 30  2  0  0  0  0
 32 26  1  0  0  0  0
 34 28  1  0  0  0  0
 35 34  2  0  0  0  0
 35 39  1  0  0  0  0
 36 35  1  0  0  0  0
 37 38  1  0  0  0  0
 37 36  2  0  0  0  0
 38 34  1  0  0  0  0
 40 36  1  0  0  0  0
 41 37  1  0  0  0  0
M  END
>  <minimizedAffinity>
-4.96553516

>  <minimizedRMSD>
1.73029733

$$$$
