
 OpenBabel03252503193D

 41 45  0  0  0  0  0  0  0  0999 V2000
   43.8700   34.6840   41.1130 C   0  0  0  0  0  0  0  0  0  0  0  0
   45.0200   34.0460   41.4690 C   0  0  0  0  0  0  0  0  0  0  0  0
   45.5630   34.7810   42.4650 N   0  0  0  0  0  0  0  0  0  0  0  0
   44.7710   35.8270   42.7070 C   0  0  0  0  0  0  0  0  0  0  0  0
   43.7280   35.7680   41.8750 N   0  0  0  0  0  0  0  0  0  0  0  0
   44.8970   36.8810   43.6460 N   0  0  0  0  0  0  0  0  0  0  0  0
   45.4260   33.1370   41.0460 H   0  0  0  0  0  0  0  0  0  0  0  0
   44.6880   36.9400   44.6800 H   0  0  0  0  0  0  0  0  0  0  0  0
   45.2410   37.8440   43.4620 H   0  0  0  0  0  0  0  0  0  0  0  0
   46.7950   34.5360   43.1950 C   0  0  0  0  0  0  0  0  0  0  0  0
   47.5210   33.9960   42.5580 H   0  0  0  0  0  0  0  0  0  0  0  0
   47.2510   35.4610   43.5720 H   0  0  0  0  0  0  0  0  0  0  0  0
   46.9500   32.3260   44.2110 C   0  0  0  0  0  3  0  0  0  0  0  0
   46.4990   33.6300   44.3380 C   0  0  0  0  0  0  0  0  0  0  0  0
   45.8300   33.9420   45.5030 C   0  0  0  0  0  0  0  0  0  0  0  0
   45.4910   34.9670   45.5730 H   0  0  0  0  0  0  0  0  0  0  0  0
   45.6450   32.9670   46.4620 C   0  0  0  0  0  0  0  0  0  0  0  0
   46.1010   31.6760   46.3180 C   0  0  0  0  0  0  0  0  0  0  0  0
   46.7690   31.3500   45.1630 C   0  0  0  0  0  3  0  0  0  0  0  0
   45.7330   30.9780   47.4840 O   0  0  0  0  0  0  0  0  0  0  0  0
   45.3350   31.8980   48.4720 C   0  0  0  0  0  3  0  0  0  0  0  0
   44.4770   31.5390   49.0720 H   0  0  0  0  0  0  0  0  0  0  0  0
   45.0130   33.0380   47.6970 O   0  0  0  0  0  0  0  0  0  0  0  0
   42.8950   34.2740   40.0520 C   0  0  0  0  0  0  0  0  0  0  0  0
   41.7930   34.8530   39.8160 O   0  0  0  0  0  0  0  0  0  0  0  0
   44.0820   33.2910   38.1500 C   0  0  0  0  0  0  0  0  0  0  0  0
   43.1820   33.1600   39.2250 C   0  0  0  0  0  0  0  0  0  0  0  0
   42.6480   31.8870   39.3650 C   0  0  0  0  0  0  0  0  0  0  0  0
   42.9510   30.8710   38.5610 N   0  0  0  0  0  0  0  0  0  0  0  0
   43.8290   31.0600   37.5360 C   0  0  0  0  0  0  0  0  0  0  0  0
   44.3820   32.2580   37.3410 N   0  0  0  0  0  0  0  0  0  0  0  0
   44.5660   34.2360   37.9360 H   0  0  0  0  0  0  0  0  0  0  0  0
   44.0310   30.1880   36.9180 H   0  0  0  0  0  0  0  0  0  0  0  0
   41.7230   31.6680   40.4310 C   0  0  0  0  0  0  0  0  0  0  0  0
   40.3780   31.7440   40.5840 C   0  0  0  0  0  0  0  0  0  0  0  0
   39.7700   31.4790   41.7160 C   0  0  0  0  0  0  0  0  0  0  0  0
   40.5610   31.1210   42.7350 C   0  0  0  0  0  0  0  0  0  0  0  0
   42.2480   31.1600   42.0620 S   0  0  0  0  0  0  0  0  0  0  0  0
   39.8540   32.0530   39.6560 H   0  0  0  0  0  0  0  0  0  0  0  0
   38.7040   31.5220   41.8970 H   0  0  0  0  0  0  0  0  0  0  0  0
   40.2830   30.8380   43.8230 H   0  0  0  0  0  0  0  0  0  0  0  0
  1  2  2  0  0  0  0
  1  5  1  0  0  0  0
  2  3  1  0  0  0  0
  3  4  1  0  0  0  0
  3 10  1  0  0  0  0
  4  6  1  0  0  0  0
  5  4  2  0  0  0  0
  6  8  1  0  0  0  0
  7  2  1  0  0  0  0
  9  6  1  0  0  0  0
 10 12  1  0  0  0  0
 10 14  1  0  0  0  0
 11 10  1  0  0  0  0
 13 14  2  0  0  0  0
 13 19  1  0  0  0  0
 14 15  1  0  0  0  0
 15 16  1  0  0  0  0
 15 17  2  0  0  0  0
 17 23  1  0  0  0  0
 18 17  1  0  0  0  0
 18 20  1  0  0  0  0
 19 18  2  0  0  0  0
 20 21  1  0  0  0  0
 21 22  1  0  0  0  0
 23 21  1  0  0  0  0
 24  1  1  0  0  0  0
 25 24  2  0  0  0  0
 26 27  1  0  0  0  0
 27 28  2  0  0  0  0
 27 24  1  0  0  0  0
 28 34  1  0  0  0  0
 29 28  1  0  0  0  0
 30 29  2  0  0  0  0
 31 30  1  0  0  0  0
 31 26  2  0  0  0  0
 32 26  1  0  0  0  0
 33 30  1  0  0  0  0
 34 35  2  0  0  0  0
 34 38  1  0  0  0  0
 35 36  1  0  0  0  0
 36 40  1  0  0  0  0
 36 37  2  0  0  0  0
 37 41  1  0  0  0  0
 38 37  1  0  0  0  0
 39 35  1  0  0  0  0
M  END
>  <minimizedAffinity>
-5.992589

>  <minimizedRMSD>
8.25259018

$$$$
