
 OpenBabel03242522403D

 42 45  0  0  0  0  0  0  0  0999 V2000
   47.3810   32.2010   47.8400 C   0  0  0  0  0  0  0  0  0  0  0  0
   47.1350   31.2490   46.8140 C   0  0  0  0  0  0  0  0  0  0  0  0
   47.7180   29.9900   46.9510 C   0  0  0  0  0  0  0  0  0  0  0  0
   48.4870   29.7480   48.0560 N   0  0  0  0  0  0  0  0  0  0  0  0
   48.6860   30.6690   48.9850 C   0  0  0  0  0  0  0  0  0  0  0  0
   48.1460   31.8810   48.8860 N   0  0  0  0  0  0  0  0  0  0  0  0
   46.9730   33.1920   47.8150 H   0  0  0  0  0  0  0  0  0  0  0  0
   47.5480   29.2480   46.1870 H   0  0  0  0  0  0  0  0  0  0  0  0
   46.2900   31.6140   45.6750 C   0  0  0  0  0  0  0  0  0  0  0  0
   46.2160   30.6890   45.0280 H   0  0  0  0  0  0  0  0  0  0  0  0
   45.2530   31.8630   45.9060 H   0  0  0  0  0  0  0  0  0  0  0  0
   47.0320   32.6570   44.8680 C   0  0  0  0  0  0  0  0  0  0  0  0
   47.9470   33.0280   45.4180 H   0  0  0  0  0  0  0  0  0  0  0  0
   47.4600   32.2100   43.9370 H   0  0  0  0  0  0  0  0  0  0  0  0
   46.5050   34.4900   43.3260 C   0  0  0  0  0  0  0  0  0  0  0  0
   46.2600   33.8480   44.5270 C   0  0  0  0  0  0  0  0  0  0  0  0
   45.3230   34.2770   45.4150 C   0  0  0  0  0  0  0  0  0  0  0  0
   44.5830   35.4000   45.1070 C   0  0  0  0  0  0  0  0  0  0  0  0
   44.7680   36.0900   43.9400 C   0  0  0  0  0  0  0  0  0  0  0  0
   45.7380   35.5970   43.0810 C   0  0  0  0  0  0  0  0  0  0  0  0
   45.0630   33.8550   46.3590 H   0  0  0  0  0  0  0  0  0  0  0  0
   43.8070   35.8190   45.7610 H   0  0  0  0  0  0  0  0  0  0  0  0
   44.2260   36.9810   43.6280 H   0  0  0  0  0  0  0  0  0  0  0  0
   45.9090   36.1240   42.1430 H   0  0  0  0  0  0  0  0  0  0  0  0
   47.6960   33.9760   42.1630 S   0  0  0  0  0  0  0  0  0  0  0  0
   49.0920   34.4460   42.5090 O   0  0  0  0  0  0  0  0  0  0  0  0
   47.4020   34.6520   40.8320 O   0  0  0  0  0  0  0  0  0  0  0  0
   47.7360   32.6390   41.9630 H   0  0  0  0  0  0  0  0  0  0  0  0
   49.5310   30.2980   50.1750 C   0  0  0  0  0  0  0  0  0  0  0  0
   49.8050   29.2220   50.1600 H   0  0  0  0  0  0  0  0  0  0  0  0
   48.8970   30.4930   51.0640 H   0  0  0  0  0  0  0  0  0  0  0  0
   51.6110   31.2680   49.2290 C   0  0  0  0  0  3  0  0  0  0  0  0
   50.7160   31.1790   50.2750 C   0  0  0  0  0  0  0  0  0  0  0  0
   50.8780   31.9020   51.4580 C   0  0  0  0  0  0  0  0  0  0  0  0
   50.1640   31.8070   52.2420 H   0  0  0  0  0  0  0  0  0  0  0  0
   51.9930   32.7110   51.5160 C   0  0  0  0  0  0  0  0  0  0  0  0
   52.9140   32.8310   50.4960 C   0  0  0  0  0  0  0  0  0  0  0  0
   52.7100   32.0940   49.3410 C   0  0  0  0  0  3  0  0  0  0  0  0
   53.8890   33.7220   50.9010 O   0  0  0  0  0  0  0  0  0  0  0  0
   53.6520   34.0430   52.2590 C   0  0  0  0  0  3  0  0  0  0  0  0
   53.6370   35.1470   52.4320 H   0  0  0  0  0  0  0  0  0  0  0  0
   52.3790   33.5260   52.5720 O   0  0  0  0  0  0  0  0  0  0  0  0
  1  6  1  0  0  0  0
  2  3  1  0  0  0  0
  2  1  2  0  0  0  0
  3  4  2  0  0  0  0
  4  5  1  0  0  0  0
  5 29  1  0  0  0  0
  6  5  2  0  0  0  0
  7  1  1  0  0  0  0
  8  3  1  0  0  0  0
  9 11  1  0  0  0  0
  9  2  1  0  0  0  0
 10  9  1  0  0  0  0
 12 13  1  0  0  0  0
 12  9  1  0  0  0  0
 14 12  1  0  0  0  0
 15 16  1  0  0  0  0
 16 12  1  0  0  0  0
 16 17  2  0  0  0  0
 17 21  1  0  0  0  0
 18 17  1  0  0  0  0
 18 22  1  0  0  0  0
 19 18  2  0  0  0  0
 20 15  2  0  0  0  0
 20 19  1  0  0  0  0
 23 19  1  0  0  0  0
 24 20  1  0  0  0  0
 25 26  2  0  0  0  0
 25 15  1  0  0  0  0
 27 25  2  0  0  0  0
 28 25  1  0  0  0  0
 29 33  1  0  0  0  0
 29 31  1  0  0  0  0
 30 29  1  0  0  0  0
 32 38  2  0  0  0  0
 32 33  1  0  0  0  0
 33 34  2  0  0  0  0
 34 36  1  0  0  0  0
 34 35  1  0  0  0  0
 36 42  1  0  0  0  0
 37 39  1  0  0  0  0
 37 36  2  0  0  0  0
 38 37  1  0  0  0  0
 39 40  1  0  0  0  0
 40 41  1  0  0  0  0
 40 42  1  0  0  0  0
M  END
>  <minimizedAffinity>
-6.12661219

>  <minimizedRMSD>
1.36357796

$$$$
