
 OpenBabel03242517533D

 40 43  0  0  0  0  0  0  0  0999 V2000
   45.2720   34.2640   43.8240 C   0  0  0  0  0  0  0  0  0  0  0  0
   46.2790   34.8650   43.0370 C   0  0  0  0  0  0  0  0  0  0  0  0
   47.5710   34.3790   43.0930 C   0  0  0  0  0  0  0  0  0  0  0  0
   47.7550   33.3440   43.9210 N   0  0  0  0  0  0  0  0  0  0  0  0
   46.8240   32.7740   44.6600 C   0  0  0  0  0  0  0  0  0  0  0  0
   45.5750   33.2410   44.6070 N   0  0  0  0  0  0  0  0  0  0  0  0
   44.2910   34.7000   43.7260 H   0  0  0  0  0  0  0  0  0  0  0  0
   46.0560   35.7000   42.3910 H   0  0  0  0  0  0  0  0  0  0  0  0
   48.6870   34.9360   42.3140 C   0  0  0  0  0  0  0  0  0  0  0  0
   49.0110   35.8970   42.7580 H   0  0  0  0  0  0  0  0  0  0  0  0
   49.5350   34.2520   42.3500 H   0  0  0  0  0  0  0  0  0  0  0  0
   48.3320   35.0890   40.8470 C   0  0  0  0  0  0  0  0  0  0  0  0
   49.0670   35.7370   40.3360 H   0  0  0  0  0  0  0  0  0  0  0  0
   47.3640   35.6370   40.8280 H   0  0  0  0  0  0  0  0  0  0  0  0
   47.0070   33.6490   39.4260 C   0  0  0  0  0  3  0  0  0  0  0  0
   48.1740   33.7960   40.1650 C   0  0  0  0  0  0  0  0  0  0  0  0
   49.0470   32.7280   40.1800 C   0  0  0  0  0  0  0  0  0  0  0  0
   49.9450   32.8680   40.7620 H   0  0  0  0  0  0  0  0  0  0  0  0
   48.7900   31.5600   39.4980 C   0  0  0  0  0  0  0  0  0  0  0  0
   47.6080   31.4570   38.7700 C   0  0  0  0  0  0  0  0  0  0  0  0
   46.6930   32.5040   38.7210 C   0  0  0  0  0  3  0  0  0  0  0  0
   47.6210   30.1740   38.1930 O   0  0  0  0  0  0  0  0  0  0  0  0
   48.6290   29.3850   38.7970 C   0  0  0  0  0  3  0  0  0  0  0  0
   49.1510   28.7190   38.0820 H   0  0  0  0  0  0  0  0  0  0  0  0
   49.4820   30.3650   39.3510 O   0  0  0  0  0  0  0  0  0  0  0  0
   47.0630   31.7040   45.5010 O   0  0  0  0  0  0  0  0  0  0  0  0
   45.5810   30.3910   47.0030 C   0  0  0  0  0  0  0  0  0  0  0  0
   46.3900   31.4430   46.6840 C   0  0  0  0  0  0  0  0  0  0  0  0
   46.5930   32.4120   47.6600 C   0  0  0  0  0  0  0  0  0  0  0  0
   45.9950   32.3150   48.9140 C   0  0  0  0  0  0  0  0  0  0  0  0
   45.1880   31.2420   49.1980 C   0  0  0  0  0  0  0  0  0  0  0  0
   44.9830   30.2730   48.2260 C   0  0  0  0  0  0  0  0  0  0  0  0
   47.2150   33.2860   47.5160 H   0  0  0  0  0  0  0  0  0  0  0  0
   46.1710   33.0950   49.6700 H   0  0  0  0  0  0  0  0  0  0  0  0
   44.6970   31.1170   50.1580 H   0  0  0  0  0  0  0  0  0  0  0  0
   44.3660   29.3960   48.3580 H   0  0  0  0  0  0  0  0  0  0  0  0
   45.3810   29.2230   45.7230 S   0  0  0  0  0  0  0  0  0  0  0  0
   44.6920   29.8220   44.5260 O   0  0  0  0  0  0  0  0  0  0  0  0
   44.4330   28.1470   46.2360 O   0  0  0  0  0  0  0  0  0  0  0  0
   46.5790   28.6710   45.3190 H   0  0  0  0  0  0  0  0  0  0  0  0
  1  6  1  0  0  0  0
  2  3  1  0  0  0  0
  2  1  2  0  0  0  0
  3  4  2  0  0  0  0
  4  5  1  0  0  0  0
  5 26  1  0  0  0  0
  6  5  2  0  0  0  0
  7  1  1  0  0  0  0
  8  2  1  0  0  0  0
  9 11  1  0  0  0  0
  9 10  1  0  0  0  0
  9  3  1  0  0  0  0
 12  9  1  0  0  0  0
 13 12  1  0  0  0  0
 14 12  1  0  0  0  0
 15 16  1  0  0  0  0
 16 17  2  0  0  0  0
 16 12  1  0  0  0  0
 17 18  1  0  0  0  0
 19 17  1  0  0  0  0
 20 19  2  0  0  0  0
 21 20  1  0  0  0  0
 21 15  2  0  0  0  0
 22 20  1  0  0  0  0
 22 23  1  0  0  0  0
 23 25  1  0  0  0  0
 24 23  1  0  0  0  0
 25 19  1  0  0  0  0
 26 28  1  0  0  0  0
 27 32  1  0  0  0  0
 28 27  2  0  0  0  0
 28 29  1  0  0  0  0
 29 30  2  0  0  0  0
 30 31  1  0  0  0  0
 30 34  1  0  0  0  0
 31 35  1  0  0  0  0
 32 36  1  0  0  0  0
 32 31  2  0  0  0  0
 33 29  1  0  0  0  0
 37 39  2  0  0  0  0
 37 27  1  0  0  0  0
 38 37  2  0  0  0  0
 40 37  1  0  0  0  0
M  END
>  <minimizedAffinity>
-5.45139551

>  <minimizedRMSD>
0.622658968

$$$$
