
 OpenBabel03252503193D

 41 45  0  0  0  0  0  0  0  0999 V2000
   45.0250   33.7040   40.6370 C   0  0  0  0  0  0  0  0  0  0  0  0
   45.9340   33.9680   41.6170 C   0  0  0  0  0  0  0  0  0  0  0  0
   45.3180   34.8010   42.4850 N   0  0  0  0  0  0  0  0  0  0  0  0
   44.0790   35.0360   42.0480 C   0  0  0  0  0  0  0  0  0  0  0  0
   43.8980   34.3600   40.9090 N   0  0  0  0  0  0  0  0  0  0  0  0
   43.0430   35.8340   42.5950 N   0  0  0  0  0  0  0  0  0  0  0  0
   46.9460   33.5930   41.6950 H   0  0  0  0  0  0  0  0  0  0  0  0
   42.3510   35.6620   43.3740 H   0  0  0  0  0  0  0  0  0  0  0  0
   42.7710   36.7920   42.3010 H   0  0  0  0  0  0  0  0  0  0  0  0
   45.8490   35.3830   43.7050 C   0  0  0  0  0  0  0  0  0  0  0  0
   46.8580   35.8000   43.5280 H   0  0  0  0  0  0  0  0  0  0  0  0
   45.1950   36.1630   44.1190 H   0  0  0  0  0  0  0  0  0  0  0  0
   46.7980   33.2220   44.3160 C   0  0  0  0  0  3  0  0  0  0  0  0
   46.0230   34.3010   44.7120 C   0  0  0  0  0  0  0  0  0  0  0  0
   45.5030   34.2540   45.9890 C   0  0  0  0  0  0  0  0  0  0  0  0
   44.9040   35.1090   46.2680 H   0  0  0  0  0  0  0  0  0  0  0  0
   45.7710   33.1630   46.7910 C   0  0  0  0  0  0  0  0  0  0  0  0
   46.5430   32.0990   46.3800 C   0  0  0  0  0  0  0  0  0  0  0  0
   47.0670   32.1340   45.1100 C   0  0  0  0  0  3  0  0  0  0  0  0
   46.5940   31.1900   47.4520 O   0  0  0  0  0  0  0  0  0  0  0  0
   46.1270   31.8190   48.6200 C   0  0  0  0  0  3  0  0  0  0  0  0
   45.5230   31.1470   49.2580 H   0  0  0  0  0  0  0  0  0  0  0  0
   45.3660   32.8900   48.0920 O   0  0  0  0  0  0  0  0  0  0  0  0
   45.2150   32.8310   39.4350 C   0  0  0  0  0  0  0  0  0  0  0  0
   45.2700   33.2440   38.2390 O   0  0  0  0  0  0  0  0  0  0  0  0
   46.5660   30.7930   39.2970 C   0  0  0  0  0  0  0  0  0  0  0  0
   45.3450   31.4290   39.5970 C   0  0  0  0  0  0  0  0  0  0  0  0
   44.3530   30.5680   40.0430 C   0  0  0  0  0  0  0  0  0  0  0  0
   44.5260   29.2550   40.1790 N   0  0  0  0  0  0  0  0  0  0  0  0
   45.7310   28.6980   39.8720 C   0  0  0  0  0  0  0  0  0  0  0  0
   46.7310   29.4660   39.4370 N   0  0  0  0  0  0  0  0  0  0  0  0
   47.4190   31.3580   38.9400 H   0  0  0  0  0  0  0  0  0  0  0  0
   45.8030   27.6210   40.0060 H   0  0  0  0  0  0  0  0  0  0  0  0
   43.0810   31.1310   40.3660 C   0  0  0  0  0  0  0  0  0  0  0  0
   42.0220   31.6100   39.6680 C   0  0  0  0  0  0  0  0  0  0  0  0
   40.9420   32.0860   40.2420 C   0  0  0  0  0  0  0  0  0  0  0  0
   40.9370   32.0740   41.5810 C   0  0  0  0  0  0  0  0  0  0  0  0
   42.5380   31.3550   42.0540 S   0  0  0  0  0  0  0  0  0  0  0  0
   42.1680   31.5570   38.5700 H   0  0  0  0  0  0  0  0  0  0  0  0
   40.0680   32.4790   39.7390 H   0  0  0  0  0  0  0  0  0  0  0  0
   40.1210   32.4300   42.3210 H   0  0  0  0  0  0  0  0  0  0  0  0
  1  5  1  0  0  0  0
  1  2  2  0  0  0  0
  2  7  1  0  0  0  0
  2  3  1  0  0  0  0
  3 10  1  0  0  0  0
  4  3  1  0  0  0  0
  4  6  1  0  0  0  0
  5  4  2  0  0  0  0
  6  8  1  0  0  0  0
  9  6  1  0  0  0  0
 10 12  1  0  0  0  0
 10 14  1  0  0  0  0
 11 10  1  0  0  0  0
 13 14  2  0  0  0  0
 13 19  1  0  0  0  0
 14 15  1  0  0  0  0
 15 16  1  0  0  0  0
 15 17  2  0  0  0  0
 17 23  1  0  0  0  0
 18 17  1  0  0  0  0
 18 20  1  0  0  0  0
 19 18  2  0  0  0  0
 20 21  1  0  0  0  0
 21 22  1  0  0  0  0
 23 21  1  0  0  0  0
 24 27  1  0  0  0  0
 24  1  1  0  0  0  0
 25 24  2  0  0  0  0
 26 31  2  0  0  0  0
 26 27  1  0  0  0  0
 27 28  2  0  0  0  0
 28 29  1  0  0  0  0
 28 34  1  0  0  0  0
 30 33  1  0  0  0  0
 30 29  2  0  0  0  0
 31 30  1  0  0  0  0
 32 26  1  0  0  0  0
 34 38  1  0  0  0  0
 35 36  1  0  0  0  0
 35 34  2  0  0  0  0
 36 37  2  0  0  0  0
 37 38  1  0  0  0  0
 37 41  1  0  0  0  0
 39 35  1  0  0  0  0
 40 36  1  0  0  0  0
M  END
>  <minimizedAffinity>
-4.46672821

>  <minimizedRMSD>
8.10485363

$$$$
