
 OpenBabel03242517533D

 40 43  0  0  0  0  0  0  0  0999 V2000
   45.2730   34.2310   43.7990 C   0  0  0  0  0  0  0  0  0  0  0  0
   46.2820   34.8390   43.0190 C   0  0  0  0  0  0  0  0  0  0  0  0
   47.5790   34.3680   43.0900 C   0  0  0  0  0  0  0  0  0  0  0  0
   47.7650   33.3390   43.9260 N   0  0  0  0  0  0  0  0  0  0  0  0
   46.8330   32.7630   44.6580 C   0  0  0  0  0  0  0  0  0  0  0  0
   45.5790   33.2160   44.5910 N   0  0  0  0  0  0  0  0  0  0  0  0
   44.2890   34.6560   43.6880 H   0  0  0  0  0  0  0  0  0  0  0  0
   46.0560   35.6680   42.3660 H   0  0  0  0  0  0  0  0  0  0  0  0
   48.6960   34.9330   42.3200 C   0  0  0  0  0  0  0  0  0  0  0  0
   49.0410   35.8720   42.7950 H   0  0  0  0  0  0  0  0  0  0  0  0
   49.5320   34.2340   42.3230 H   0  0  0  0  0  0  0  0  0  0  0  0
   48.3300   35.1430   40.8630 C   0  0  0  0  0  0  0  0  0  0  0  0
   48.9760   35.9150   40.4080 H   0  0  0  0  0  0  0  0  0  0  0  0
   47.2990   35.5620   40.8700 H   0  0  0  0  0  0  0  0  0  0  0  0
   47.5060   33.8680   38.9800 C   0  0  0  0  0  3  0  0  0  0  0  0
   48.3430   33.8920   40.0900 C   0  0  0  0  0  0  0  0  0  0  0  0
   49.0840   32.7580   40.3440 C   0  0  0  0  0  0  0  0  0  0  0  0
   49.7240   32.8040   41.2120 H   0  0  0  0  0  0  0  0  0  0  0  0
   49.0120   31.6390   39.5450 C   0  0  0  0  0  0  0  0  0  0  0  0
   48.1610   31.6590   38.4440 C   0  0  0  0  0  0  0  0  0  0  0  0
   47.3910   32.7780   38.1420 C   0  0  0  0  0  3  0  0  0  0  0  0
   48.2980   30.4000   37.8280 O   0  0  0  0  0  0  0  0  0  0  0  0
   48.9740   29.5110   38.6980 C   0  0  0  0  0  3  0  0  0  0  0  0
   49.6710   28.8310   38.1720 H   0  0  0  0  0  0  0  0  0  0  0  0
   49.6340   30.3980   39.5760 O   0  0  0  0  0  0  0  0  0  0  0  0
   47.0750   31.7000   45.5080 O   0  0  0  0  0  0  0  0  0  0  0  0
   45.5910   30.3860   47.0070 C   0  0  0  0  0  0  0  0  0  0  0  0
   46.3960   31.4400   46.6880 C   0  0  0  0  0  0  0  0  0  0  0  0
   46.5880   32.4150   47.6600 C   0  0  0  0  0  0  0  0  0  0  0  0
   45.9830   32.3200   48.9110 C   0  0  0  0  0  0  0  0  0  0  0  0
   45.1790   31.2440   49.1950 C   0  0  0  0  0  0  0  0  0  0  0  0
   44.9860   30.2690   48.2270 C   0  0  0  0  0  0  0  0  0  0  0  0
   47.2060   33.2920   47.5170 H   0  0  0  0  0  0  0  0  0  0  0  0
   46.1500   33.1040   49.6640 H   0  0  0  0  0  0  0  0  0  0  0  0
   44.6840   31.1200   50.1520 H   0  0  0  0  0  0  0  0  0  0  0  0
   44.3730   29.3900   48.3580 H   0  0  0  0  0  0  0  0  0  0  0  0
   45.4050   29.2110   45.7300 S   0  0  0  0  0  0  0  0  0  0  0  0
   44.6850   29.7900   44.5410 O   0  0  0  0  0  0  0  0  0  0  0  0
   44.4920   28.1110   46.2570 O   0  0  0  0  0  0  0  0  0  0  0  0
   46.6120   28.6900   45.3110 H   0  0  0  0  0  0  0  0  0  0  0  0
  1  6  1  0  0  0  0
  2  3  1  0  0  0  0
  2  1  2  0  0  0  0
  3  4  2  0  0  0  0
  4  5  1  0  0  0  0
  5 26  1  0  0  0  0
  6  5  2  0  0  0  0
  7  1  1  0  0  0  0
  8  2  1  0  0  0  0
  9 11  1  0  0  0  0
  9 10  1  0  0  0  0
  9  3  1  0  0  0  0
 12 14  1  0  0  0  0
 12  9  1  0  0  0  0
 13 12  1  0  0  0  0
 15 16  1  0  0  0  0
 16 17  2  0  0  0  0
 16 12  1  0  0  0  0
 17 18  1  0  0  0  0
 19 25  1  0  0  0  0
 19 17  1  0  0  0  0
 20 19  2  0  0  0  0
 21 20  1  0  0  0  0
 21 15  2  0  0  0  0
 22 20  1  0  0  0  0
 22 23  1  0  0  0  0
 23 25  1  0  0  0  0
 24 23  1  0  0  0  0
 26 28  1  0  0  0  0
 27 32  1  0  0  0  0
 28 27  2  0  0  0  0
 28 29  1  0  0  0  0
 29 30  2  0  0  0  0
 30 31  1  0  0  0  0
 30 34  1  0  0  0  0
 31 35  1  0  0  0  0
 32 36  1  0  0  0  0
 32 31  2  0  0  0  0
 33 29  1  0  0  0  0
 37 39  2  0  0  0  0
 37 27  1  0  0  0  0
 38 37  2  0  0  0  0
 40 37  1  0  0  0  0
M  END
>  <minimizedAffinity>
-5.52640867

>  <minimizedRMSD>
0.802140176

$$$$
