
 OpenBabel03242522403D

 42 45  0  0  0  0  0  0  0  0999 V2000
   37.5660   29.7100   42.1040 C   0  0  0  0  0  0  0  0  0  0  0  0
   36.6790   28.6090   41.9590 C   0  0  0  0  0  0  0  0  0  0  0  0
   35.9000   28.5570   40.8040 C   0  0  0  0  0  0  0  0  0  0  0  0
   36.0360   29.5610   39.8840 N   0  0  0  0  0  0  0  0  0  0  0  0
   36.8770   30.5660   40.0660 C   0  0  0  0  0  0  0  0  0  0  0  0
   37.6340   30.6480   41.1560 N   0  0  0  0  0  0  0  0  0  0  0  0
   38.2000   29.8290   42.9600 H   0  0  0  0  0  0  0  0  0  0  0  0
   35.2180   27.7330   40.6680 H   0  0  0  0  0  0  0  0  0  0  0  0
   36.6180   27.5850   43.0050 C   0  0  0  0  0  0  0  0  0  0  0  0
   37.3180   27.9300   43.8240 H   0  0  0  0  0  0  0  0  0  0  0  0
   35.6560   27.4660   43.5060 H   0  0  0  0  0  0  0  0  0  0  0  0
   37.2020   26.3110   42.4350 C   0  0  0  0  0  0  0  0  0  0  0  0
   36.6590   25.4000   42.8230 H   0  0  0  0  0  0  0  0  0  0  0  0
   37.0350   26.2550   41.3300 H   0  0  0  0  0  0  0  0  0  0  0  0
   39.3420   25.2250   41.9230 C   0  0  0  0  0  0  0  0  0  0  0  0
   38.6150   26.0870   42.7250 C   0  0  0  0  0  0  0  0  0  0  0  0
   39.1610   26.7470   43.7840 C   0  0  0  0  0  0  0  0  0  0  0  0
   40.4960   26.5480   44.0710 C   0  0  0  0  0  0  0  0  0  0  0  0
   41.2790   25.7100   43.3250 C   0  0  0  0  0  0  0  0  0  0  0  0
   40.6590   25.0720   42.2630 C   0  0  0  0  0  0  0  0  0  0  0  0
   38.6880   27.4250   44.4570 H   0  0  0  0  0  0  0  0  0  0  0  0
   41.0210   27.0350   44.9030 H   0  0  0  0  0  0  0  0  0  0  0  0
   42.3350   25.5030   43.4890 H   0  0  0  0  0  0  0  0  0  0  0  0
   41.2560   24.3990   41.6490 H   0  0  0  0  0  0  0  0  0  0  0  0
   38.6820   24.3610   40.5620 S   0  0  0  0  0  0  0  0  0  0  0  0
   38.0870   23.0250   40.9500 O   0  0  0  0  0  0  0  0  0  0  0  0
   39.8190   23.9940   39.6200 O   0  0  0  0  0  0  0  0  0  0  0  0
   37.7540   25.0520   39.8630 H   0  0  0  0  0  0  0  0  0  0  0  0
   36.9690   31.6110   38.9860 C   0  0  0  0  0  0  0  0  0  0  0  0
   35.9820   32.0810   38.7890 H   0  0  0  0  0  0  0  0  0  0  0  0
   37.2960   31.0700   38.0730 H   0  0  0  0  0  0  0  0  0  0  0  0
   37.6810   33.7980   39.9190 C   0  0  0  0  0  3  0  0  0  0  0  0
   38.0140   32.6090   39.3050 C   0  0  0  0  0  0  0  0  0  0  0  0
   39.3290   32.2900   38.9590 C   0  0  0  0  0  0  0  0  0  0  0  0
   39.5450   31.3620   38.4860 H   0  0  0  0  0  0  0  0  0  0  0  0
   40.2760   33.2440   39.2720 C   0  0  0  0  0  0  0  0  0  0  0  0
   39.9880   34.4460   39.8850 C   0  0  0  0  0  0  0  0  0  0  0  0
   38.6690   34.7160   40.2090 C   0  0  0  0  0  3  0  0  0  0  0  0
   41.1720   35.1410   40.0400 O   0  0  0  0  0  0  0  0  0  0  0  0
   42.1930   34.4260   39.3700 C   0  0  0  0  0  3  0  0  0  0  0  0
   43.0840   34.2570   40.0220 H   0  0  0  0  0  0  0  0  0  0  0  0
   41.6430   33.1720   39.0360 O   0  0  0  0  0  0  0  0  0  0  0  0
  1  7  1  0  0  0  0
  2  1  1  0  0  0  0
  2  9  1  0  0  0  0
  3  2  2  0  0  0  0
  4  5  2  0  0  0  0
  4  3  1  0  0  0  0
  5  6  1  0  0  0  0
  6  1  2  0  0  0  0
  8  3  1  0  0  0  0
  9 11  1  0  0  0  0
  9 10  1  0  0  0  0
 12 16  1  0  0  0  0
 12 13  1  0  0  0  0
 12  9  1  0  0  0  0
 14 12  1  0  0  0  0
 15 20  2  0  0  0  0
 15 16  1  0  0  0  0
 16 17  2  0  0  0  0
 17 18  1  0  0  0  0
 17 21  1  0  0  0  0
 18 22  1  0  0  0  0
 19 23  1  0  0  0  0
 19 18  2  0  0  0  0
 20 19  1  0  0  0  0
 24 20  1  0  0  0  0
 25 26  2  0  0  0  0
 25 15  1  0  0  0  0
 27 25  2  0  0  0  0
 28 25  1  0  0  0  0
 29 33  1  0  0  0  0
 29  5  1  0  0  0  0
 30 29  1  0  0  0  0
 31 29  1  0  0  0  0
 32 38  1  0  0  0  0
 33 32  2  0  0  0  0
 34 36  2  0  0  0  0
 34 33  1  0  0  0  0
 35 34  1  0  0  0  0
 36 37  1  0  0  0  0
 37 39  1  0  0  0  0
 37 38  2  0  0  0  0
 40 41  1  0  0  0  0
 40 39  1  0  0  0  0
 42 36  1  0  0  0  0
 42 40  1  0  0  0  0
M  END
>  <minimizedAffinity>
-6.54467106

$$$$

 OpenBabel03242522403D

 42 45  0  0  0  0  0  0  0  0999 V2000
   36.5660   30.3310   41.1910 C   0  0  0  0  0  0  0  0  0  0  0  0
   36.4780   29.3550   40.1610 C   0  0  0  0  0  0  0  0  0  0  0  0
   36.6530   29.7870   38.8480 C   0  0  0  0  0  0  0  0  0  0  0  0
   36.8970   31.1160   38.6290 N   0  0  0  0  0  0  0  0  0  0  0  0
   36.9690   31.9860   39.6230 C   0  0  0  0  0  0  0  0  0  0  0  0
   36.8060   31.6090   40.8880 N   0  0  0  0  0  0  0  0  0  0  0  0
   36.4440   30.0860   42.2270 H   0  0  0  0  0  0  0  0  0  0  0  0
   36.5920   29.0680   38.0460 H   0  0  0  0  0  0  0  0  0  0  0  0
   36.2190   27.9560   40.5100 C   0  0  0  0  0  0  0  0  0  0  0  0
   35.0950   27.8300   40.4870 H   0  0  0  0  0  0  0  0  0  0  0  0
   36.5870   27.2090   39.8060 H   0  0  0  0  0  0  0  0  0  0  0  0
   36.6550   27.7520   41.9440 C   0  0  0  0  0  0  0  0  0  0  0  0
   37.2160   28.6500   42.3350 H   0  0  0  0  0  0  0  0  0  0  0  0
   35.7700   27.6880   42.6250 H   0  0  0  0  0  0  0  0  0  0  0  0
   38.8580   26.8210   42.4910 C   0  0  0  0  0  0  0  0  0  0  0  0
   37.5290   26.6050   42.1730 C   0  0  0  0  0  0  0  0  0  0  0  0
   36.9900   25.3600   42.0630 C   0  0  0  0  0  0  0  0  0  0  0  0
   37.8010   24.2650   42.2790 C   0  0  0  0  0  0  0  0  0  0  0  0
   39.1250   24.3980   42.5960 C   0  0  0  0  0  0  0  0  0  0  0  0
   39.6080   25.6930   42.6920 C   0  0  0  0  0  0  0  0  0  0  0  0
   35.9860   25.0910   41.8230 H   0  0  0  0  0  0  0  0  0  0  0  0
   37.4550   23.2250   42.2120 H   0  0  0  0  0  0  0  0  0  0  0  0
   39.8270   23.5860   42.7790 H   0  0  0  0  0  0  0  0  0  0  0  0
   40.6580   25.8330   42.9440 H   0  0  0  0  0  0  0  0  0  0  0  0
   39.5880   28.3960   42.6400 S   0  0  0  0  0  0  0  0  0  0  0  0
   39.8580   29.0430   41.2990 O   0  0  0  0  0  0  0  0  0  0  0  0
   40.9700   28.2370   43.2540 O   0  0  0  0  0  0  0  0  0  0  0  0
   38.8810   29.2660   43.3970 H   0  0  0  0  0  0  0  0  0  0  0  0
   37.2620   33.4230   39.2800 C   0  0  0  0  0  0  0  0  0  0  0  0
   36.4890   34.1050   39.6910 H   0  0  0  0  0  0  0  0  0  0  0  0
   37.2350   33.4770   38.1720 H   0  0  0  0  0  0  0  0  0  0  0  0
   38.8450   34.9520   40.4280 C   0  0  0  0  0  3  0  0  0  0  0  0
   38.6300   33.7970   39.7060 C   0  0  0  0  0  0  0  0  0  0  0  0
   39.6700   32.9380   39.3460 C   0  0  0  0  0  0  0  0  0  0  0  0
   39.4620   32.0560   38.7880 H   0  0  0  0  0  0  0  0  0  0  0  0
   40.9290   33.3190   39.7600 C   0  0  0  0  0  0  0  0  0  0  0  0
   41.1910   34.4650   40.4830 C   0  0  0  0  0  0  0  0  0  0  0  0
   40.1260   35.2860   40.8160 C   0  0  0  0  0  3  0  0  0  0  0  0
   42.5510   34.5210   40.7170 O   0  0  0  0  0  0  0  0  0  0  0  0
   43.1660   33.4730   39.9940 C   0  0  0  0  0  3  0  0  0  0  0  0
   43.8440   32.8610   40.6360 H   0  0  0  0  0  0  0  0  0  0  0  0
   42.1220   32.6450   39.5330 O   0  0  0  0  0  0  0  0  0  0  0  0
  1  7  1  0  0  0  0
  2  9  1  0  0  0  0
  2  1  2  0  0  0  0
  3  2  1  0  0  0  0
  4  3  2  0  0  0  0
  4  5  1  0  0  0  0
  5  6  2  0  0  0  0
  6  1  1  0  0  0  0
  8  3  1  0  0  0  0
  9 12  1  0  0  0  0
 10  9  1  0  0  0  0
 11  9  1  0  0  0  0
 12 16  1  0  0  0  0
 12 13  1  0  0  0  0
 12 14  1  0  0  0  0
 15 25  1  0  0  0  0
 15 20  1  0  0  0  0
 16 15  2  0  0  0  0
 17 16  1  0  0  0  0
 17 18  2  0  0  0  0
 18 19  1  0  0  0  0
 19 20  2  0  0  0  0
 19 23  1  0  0  0  0
 20 24  1  0  0  0  0
 21 17  1  0  0  0  0
 22 18  1  0  0  0  0
 25 27  2  0  0  0  0
 25 28  1  0  0  0  0
 26 25  2  0  0  0  0
 29  5  1  0  0  0  0
 29 30  1  0  0  0  0
 29 33  1  0  0  0  0
 31 29  1  0  0  0  0
 32 38  1  0  0  0  0
 33 32  2  0  0  0  0
 34 33  1  0  0  0  0
 34 36  2  0  0  0  0
 35 34  1  0  0  0  0
 36 37  1  0  0  0  0
 37 39  1  0  0  0  0
 37 38  2  0  0  0  0
 40 41  1  0  0  0  0
 40 39  1  0  0  0  0
 42 36  1  0  0  0  0
 42 40  1  0  0  0  0
M  END
>  <minimizedAffinity>
-6.32897854

$$$$

 OpenBabel03242522403D

 42 45  0  0  0  0  0  0  0  0999 V2000
   36.0170   30.2350   40.7400 C   0  0  0  0  0  0  0  0  0  0  0  0
   36.8160   29.3830   41.5510 C   0  0  0  0  0  0  0  0  0  0  0  0
   38.0800   29.8410   41.9150 C   0  0  0  0  0  0  0  0  0  0  0  0
   38.4760   31.0750   41.4740 N   0  0  0  0  0  0  0  0  0  0  0  0
   37.6940   31.8310   40.7210 C   0  0  0  0  0  0  0  0  0  0  0  0
   36.4820   31.4250   40.3540 N   0  0  0  0  0  0  0  0  0  0  0  0
   35.0330   29.9620   40.4140 H   0  0  0  0  0  0  0  0  0  0  0  0
   38.7080   29.2150   42.5300 H   0  0  0  0  0  0  0  0  0  0  0  0
   36.2900   28.0830   41.9710 C   0  0  0  0  0  0  0  0  0  0  0  0
   35.3430   28.2980   42.5510 H   0  0  0  0  0  0  0  0  0  0  0  0
   35.9680   27.4130   41.1720 H   0  0  0  0  0  0  0  0  0  0  0  0
   37.2770   27.4820   42.9480 C   0  0  0  0  0  0  0  0  0  0  0  0
   38.1550   28.1710   43.1210 H   0  0  0  0  0  0  0  0  0  0  0  0
   36.8230   27.3880   43.9660 H   0  0  0  0  0  0  0  0  0  0  0  0
   39.1870   25.9510   42.7930 C   0  0  0  0  0  0  0  0  0  0  0  0
   37.8480   26.1990   42.5490 C   0  0  0  0  0  0  0  0  0  0  0  0
   37.0270   25.2940   41.9500 C   0  0  0  0  0  0  0  0  0  0  0  0
   37.5510   24.0750   41.5690 C   0  0  0  0  0  0  0  0  0  0  0  0
   38.8650   23.7570   41.7750 C   0  0  0  0  0  0  0  0  0  0  0  0
   39.6430   24.7240   42.3900 C   0  0  0  0  0  0  0  0  0  0  0  0
   35.9900   25.3910   41.7190 H   0  0  0  0  0  0  0  0  0  0  0  0
   36.9660   23.2850   41.0790 H   0  0  0  0  0  0  0  0  0  0  0  0
   39.3490   22.8210   41.5030 H   0  0  0  0  0  0  0  0  0  0  0  0
   40.6940   24.5010   42.5690 H   0  0  0  0  0  0  0  0  0  0  0  0
   40.2720   27.0810   43.5550 S   0  0  0  0  0  0  0  0  0  0  0  0
   41.0240   27.9330   42.5570 O   0  0  0  0  0  0  0  0  0  0  0  0
   41.3670   26.3020   44.2680 O   0  0  0  0  0  0  0  0  0  0  0  0
   39.6780   27.9010   44.4510 H   0  0  0  0  0  0  0  0  0  0  0  0
   38.2130   33.1820   40.3050 C   0  0  0  0  0  0  0  0  0  0  0  0
   38.4620   33.8120   41.1840 H   0  0  0  0  0  0  0  0  0  0  0  0
   37.3820   33.6620   39.7460 H   0  0  0  0  0  0  0  0  0  0  0  0
   39.3160   32.1080   38.3570 C   0  0  0  0  0  3  0  0  0  0  0  0
   39.3520   33.0440   39.3690 C   0  0  0  0  0  0  0  0  0  0  0  0
   40.4440   33.8930   39.5630 C   0  0  0  0  0  0  0  0  0  0  0  0
   40.4340   34.6020   40.3560 H   0  0  0  0  0  0  0  0  0  0  0  0
   41.4870   33.7350   38.6730 C   0  0  0  0  0  0  0  0  0  0  0  0
   41.4940   32.8130   37.6470 C   0  0  0  0  0  0  0  0  0  0  0  0
   40.3880   31.9930   37.4960 C   0  0  0  0  0  3  0  0  0  0  0  0
   42.6890   32.9390   36.9670 O   0  0  0  0  0  0  0  0  0  0  0  0
   43.5060   33.8490   37.6780 C   0  0  0  0  0  3  0  0  0  0  0  0
   43.9150   34.6520   37.0180 H   0  0  0  0  0  0  0  0  0  0  0  0
   42.6780   34.4500   38.6480 O   0  0  0  0  0  0  0  0  0  0  0  0
  1  2  1  0  0  0  0
  2  3  2  0  0  0  0
  2  9  1  0  0  0  0
  3  8  1  0  0  0  0
  4  3  1  0  0  0  0
  5  4  2  0  0  0  0
  6  5  1  0  0  0  0
  6  1  2  0  0  0  0
  7  1  1  0  0  0  0
  9 10  1  0  0  0  0
  9 12  1  0  0  0  0
 11  9  1  0  0  0  0
 12 13  1  0  0  0  0
 12 14  1  0  0  0  0
 15 25  1  0  0  0  0
 16 15  1  0  0  0  0
 16 12  1  0  0  0  0
 17 16  2  0  0  0  0
 18 19  2  0  0  0  0
 18 17  1  0  0  0  0
 19 20  1  0  0  0  0
 20 24  1  0  0  0  0
 20 15  2  0  0  0  0
 21 17  1  0  0  0  0
 22 18  1  0  0  0  0
 23 19  1  0  0  0  0
 25 27  2  0  0  0  0
 25 28  1  0  0  0  0
 26 25  2  0  0  0  0
 29  5  1  0  0  0  0
 29 30  1  0  0  0  0
 31 29  1  0  0  0  0
 32 33  1  0  0  0  0
 33 34  2  0  0  0  0
 33 29  1  0  0  0  0
 34 35  1  0  0  0  0
 36 34  1  0  0  0  0
 37 36  2  0  0  0  0
 38 37  1  0  0  0  0
 38 32  2  0  0  0  0
 39 37  1  0  0  0  0
 39 40  1  0  0  0  0
 40 42  1  0  0  0  0
 41 40  1  0  0  0  0
 42 36  1  0  0  0  0
M  END
>  <minimizedAffinity>
-6.24338484

$$$$

 OpenBabel03242522403D

 42 45  0  0  0  0  0  0  0  0999 V2000
   36.2240   28.2450   40.5530 C   0  0  0  0  0  0  0  0  0  0  0  0
   36.7240   28.4620   41.8660 C   0  0  0  0  0  0  0  0  0  0  0  0
   37.2820   29.7080   42.1440 C   0  0  0  0  0  0  0  0  0  0  0  0
   37.3150   30.6420   41.1440 N   0  0  0  0  0  0  0  0  0  0  0  0
   36.8350   30.3910   39.9380 C   0  0  0  0  0  0  0  0  0  0  0  0
   36.2970   29.2130   39.6370 N   0  0  0  0  0  0  0  0  0  0  0  0
   35.7790   27.3160   40.2530 H   0  0  0  0  0  0  0  0  0  0  0  0
   37.6690   29.9000   43.1320 H   0  0  0  0  0  0  0  0  0  0  0  0
   36.6320   27.3920   42.8610 C   0  0  0  0  0  0  0  0  0  0  0  0
   36.4340   27.8990   43.8520 H   0  0  0  0  0  0  0  0  0  0  0  0
   35.8000   26.6960   42.7450 H   0  0  0  0  0  0  0  0  0  0  0  0
   37.9950   26.7430   42.9650 C   0  0  0  0  0  0  0  0  0  0  0  0
   38.8220   27.4920   42.7860 H   0  0  0  0  0  0  0  0  0  0  0  0
   38.1920   26.3930   44.0090 H   0  0  0  0  0  0  0  0  0  0  0  0
   39.2650   25.7620   41.1090 C   0  0  0  0  0  0  0  0  0  0  0  0
   38.2390   25.6480   42.0300 C   0  0  0  0  0  0  0  0  0  0  0  0
   37.4360   24.5510   42.1090 C   0  0  0  0  0  0  0  0  0  0  0  0
   37.6540   23.5070   41.2340 C   0  0  0  0  0  0  0  0  0  0  0  0
   38.6480   23.5460   40.2950 C   0  0  0  0  0  0  0  0  0  0  0  0
   39.4270   24.6910   40.2710 C   0  0  0  0  0  0  0  0  0  0  0  0
   36.6250   24.3710   42.7770 H   0  0  0  0  0  0  0  0  0  0  0  0
   37.0580   22.5850   41.2230 H   0  0  0  0  0  0  0  0  0  0  0  0
   38.8800   22.7650   39.5730 H   0  0  0  0  0  0  0  0  0  0  0  0
   40.2280   24.7530   39.5360 H   0  0  0  0  0  0  0  0  0  0  0  0
   40.3130   27.1470   40.9740 S   0  0  0  0  0  0  0  0  0  0  0  0
   39.7590   28.2110   40.0520 O   0  0  0  0  0  0  0  0  0  0  0  0
   41.6060   26.7160   40.2980 O   0  0  0  0  0  0  0  0  0  0  0  0
   40.6220   27.7270   42.1550 H   0  0  0  0  0  0  0  0  0  0  0  0
   36.8990   31.4920   38.9120 C   0  0  0  0  0  0  0  0  0  0  0  0
   35.9070   31.9660   38.7600 H   0  0  0  0  0  0  0  0  0  0  0  0
   37.2100   31.0020   37.9660 H   0  0  0  0  0  0  0  0  0  0  0  0
   37.6070   33.6810   39.8470 C   0  0  0  0  0  3  0  0  0  0  0  0
   37.9460   32.4790   39.2630 C   0  0  0  0  0  0  0  0  0  0  0  0
   39.2690   32.1350   38.9760 C   0  0  0  0  0  0  0  0  0  0  0  0
   39.4900   31.1980   38.5250 H   0  0  0  0  0  0  0  0  0  0  0  0
   40.2170   33.0790   39.3160 C   0  0  0  0  0  0  0  0  0  0  0  0
   39.9230   34.2930   39.9010 C   0  0  0  0  0  0  0  0  0  0  0  0
   38.5960   34.5880   40.1660 C   0  0  0  0  0  3  0  0  0  0  0  0
   41.1100   34.9720   40.0960 O   0  0  0  0  0  0  0  0  0  0  0  0
   42.1460   34.2330   39.4800 C   0  0  0  0  0  3  0  0  0  0  0  0
   43.0070   34.0590   40.1710 H   0  0  0  0  0  0  0  0  0  0  0  0
   41.5910   32.9820   39.1390 O   0  0  0  0  0  0  0  0  0  0  0  0
  1  2  1  0  0  0  0
  2  3  2  0  0  0  0
  2  9  1  0  0  0  0
  3  8  1  0  0  0  0
  4  3  1  0  0  0  0
  5  4  2  0  0  0  0
  6  5  1  0  0  0  0
  6  1  2  0  0  0  0
  7  1  1  0  0  0  0
  9 12  1  0  0  0  0
  9 10  1  0  0  0  0
 11  9  1  0  0  0  0
 12 14  1  0  0  0  0
 13 12  1  0  0  0  0
 15 16  1  0  0  0  0
 16 17  2  0  0  0  0
 16 12  1  0  0  0  0
 17 21  1  0  0  0  0
 18 17  1  0  0  0  0
 19 18  2  0  0  0  0
 20 19  1  0  0  0  0
 20 15  2  0  0  0  0
 22 18  1  0  0  0  0
 23 19  1  0  0  0  0
 24 20  1  0  0  0  0
 25 15  1  0  0  0  0
 25 28  1  0  0  0  0
 26 25  2  0  0  0  0
 27 25  2  0  0  0  0
 29 33  1  0  0  0  0
 29  5  1  0  0  0  0
 30 29  1  0  0  0  0
 31 29  1  0  0  0  0
 32 38  1  0  0  0  0
 33 32  2  0  0  0  0
 34 33  1  0  0  0  0
 34 36  2  0  0  0  0
 35 34  1  0  0  0  0
 36 37  1  0  0  0  0
 37 39  1  0  0  0  0
 37 38  2  0  0  0  0
 40 39  1  0  0  0  0
 40 41  1  0  0  0  0
 42 36  1  0  0  0  0
 42 40  1  0  0  0  0
M  END
>  <minimizedAffinity>
-6.06415462

$$$$

 OpenBabel03242522403D

 42 45  0  0  0  0  0  0  0  0999 V2000
   38.5140   26.8090   39.0580 C   0  0  0  0  0  0  0  0  0  0  0  0
   37.2980   26.1310   39.3440 C   0  0  0  0  0  0  0  0  0  0  0  0
   36.1090   26.7670   38.9930 C   0  0  0  0  0  0  0  0  0  0  0  0
   36.1810   27.9970   38.3970 N   0  0  0  0  0  0  0  0  0  0  0  0
   37.3400   28.5860   38.1510 C   0  0  0  0  0  0  0  0  0  0  0  0
   38.4940   28.0090   38.4740 N   0  0  0  0  0  0  0  0  0  0  0  0
   39.4740   26.3930   39.2940 H   0  0  0  0  0  0  0  0  0  0  0  0
   35.1710   26.2760   39.1990 H   0  0  0  0  0  0  0  0  0  0  0  0
   37.3370   24.8130   39.9810 C   0  0  0  0  0  0  0  0  0  0  0  0
   36.4570   24.2360   39.5650 H   0  0  0  0  0  0  0  0  0  0  0  0
   38.2010   24.1900   39.7460 H   0  0  0  0  0  0  0  0  0  0  0  0
   37.0750   25.0080   41.4580 C   0  0  0  0  0  0  0  0  0  0  0  0
   36.3340   25.8420   41.6380 H   0  0  0  0  0  0  0  0  0  0  0  0
   36.5620   24.1150   41.8940 H   0  0  0  0  0  0  0  0  0  0  0  0
   38.2750   26.5310   42.9620 C   0  0  0  0  0  0  0  0  0  0  0  0
   38.2480   25.3370   42.2630 C   0  0  0  0  0  0  0  0  0  0  0  0
   39.2740   24.4430   42.2900 C   0  0  0  0  0  0  0  0  0  0  0  0
   40.3890   24.7370   43.0470 C   0  0  0  0  0  0  0  0  0  0  0  0
   40.4900   25.8970   43.7640 C   0  0  0  0  0  0  0  0  0  0  0  0
   39.4100   26.7620   43.6920 C   0  0  0  0  0  0  0  0  0  0  0  0
   39.3480   23.5040   41.7890 H   0  0  0  0  0  0  0  0  0  0  0  0
   41.2630   24.0780   43.1280 H   0  0  0  0  0  0  0  0  0  0  0  0
   41.3350   26.1990   44.3820 H   0  0  0  0  0  0  0  0  0  0  0  0
   39.4590   27.6940   44.2530 H   0  0  0  0  0  0  0  0  0  0  0  0
   36.9860   27.7030   42.9530 S   0  0  0  0  0  0  0  0  0  0  0  0
   37.1590   28.7540   41.8790 O   0  0  0  0  0  0  0  0  0  0  0  0
   37.0370   28.4940   44.2510 O   0  0  0  0  0  0  0  0  0  0  0  0
   35.7500   27.1680   42.8270 H   0  0  0  0  0  0  0  0  0  0  0  0
   37.3150   29.9300   37.4720 C   0  0  0  0  0  0  0  0  0  0  0  0
   36.3410   30.1170   36.9750 H   0  0  0  0  0  0  0  0  0  0  0  0
   38.1100   29.8890   36.6990 H   0  0  0  0  0  0  0  0  0  0  0  0
   36.8340   31.3380   39.4600 C   0  0  0  0  0  3  0  0  0  0  0  0
   37.6790   31.0070   38.4220 C   0  0  0  0  0  0  0  0  0  0  0  0
   38.8970   31.6570   38.2150 C   0  0  0  0  0  0  0  0  0  0  0  0
   39.5210   31.3720   37.4020 H   0  0  0  0  0  0  0  0  0  0  0  0
   39.2020   32.6530   39.1190 C   0  0  0  0  0  0  0  0  0  0  0  0
   38.3870   33.0180   40.1710 C   0  0  0  0  0  0  0  0  0  0  0  0
   37.1890   32.3440   40.3340 C   0  0  0  0  0  3  0  0  0  0  0  0
   39.0090   34.0420   40.8580 O   0  0  0  0  0  0  0  0  0  0  0  0
   40.1590   34.4270   40.1290 C   0  0  0  0  0  3  0  0  0  0  0  0
   41.0730   34.4560   40.7700 H   0  0  0  0  0  0  0  0  0  0  0  0
   40.3440   33.4450   39.1350 O   0  0  0  0  0  0  0  0  0  0  0  0
  1  7  1  0  0  0  0
  1  2  1  0  0  0  0
  2  9  1  0  0  0  0
  3  8  1  0  0  0  0
  3  2  2  0  0  0  0
  4  3  1  0  0  0  0
  5  4  2  0  0  0  0
  5  6  1  0  0  0  0
  6  1  2  0  0  0  0
  9 12  1  0  0  0  0
 10  9  1  0  0  0  0
 11  9  1  0  0  0  0
 12 13  1  0  0  0  0
 12 14  1  0  0  0  0
 12 16  1  0  0  0  0
 15 20  1  0  0  0  0
 16 17  1  0  0  0  0
 16 15  2  0  0  0  0
 17 18  2  0  0  0  0
 18 22  1  0  0  0  0
 18 19  1  0  0  0  0
 19 23  1  0  0  0  0
 20 19  2  0  0  0  0
 20 24  1  0  0  0  0
 21 17  1  0  0  0  0
 25 15  1  0  0  0  0
 25 27  2  0  0  0  0
 26 25  2  0  0  0  0
 28 25  1  0  0  0  0
 29  5  1  0  0  0  0
 29 33  1  0  0  0  0
 30 29  1  0  0  0  0
 31 29  1  0  0  0  0
 32 38  1  0  0  0  0
 33 32  2  0  0  0  0
 34 33  1  0  0  0  0
 34 36  2  0  0  0  0
 35 34  1  0  0  0  0
 36 42  1  0  0  0  0
 36 37  1  0  0  0  0
 37 38  2  0  0  0  0
 37 39  1  0  0  0  0
 40 41  1  0  0  0  0
 40 39  1  0  0  0  0
 42 40  1  0  0  0  0
M  END
>  <minimizedAffinity>
-6.04449511

$$$$

 OpenBabel03242522403D

 42 45  0  0  0  0  0  0  0  0999 V2000
   36.9200   27.7720   39.2540 C   0  0  0  0  0  0  0  0  0  0  0  0
   36.4180   29.0830   39.4720 C   0  0  0  0  0  0  0  0  0  0  0  0
   36.0910   29.4380   40.7800 C   0  0  0  0  0  0  0  0  0  0  0  0
   36.2730   28.5090   41.7690 N   0  0  0  0  0  0  0  0  0  0  0  0
   36.7450   27.3000   41.5130 C   0  0  0  0  0  0  0  0  0  0  0  0
   37.0660   26.9280   40.2770 N   0  0  0  0  0  0  0  0  0  0  0  0
   37.1950   27.4160   38.2800 H   0  0  0  0  0  0  0  0  0  0  0  0
   35.7070   30.4260   40.9750 H   0  0  0  0  0  0  0  0  0  0  0  0
   36.2680   29.9990   38.3400 C   0  0  0  0  0  0  0  0  0  0  0  0
   35.9950   29.3580   37.4490 H   0  0  0  0  0  0  0  0  0  0  0  0
   35.4540   30.7220   38.4100 H   0  0  0  0  0  0  0  0  0  0  0  0
   37.6280   30.5970   38.0500 C   0  0  0  0  0  0  0  0  0  0  0  0
   38.4430   29.8190   38.1210 H   0  0  0  0  0  0  0  0  0  0  0  0
   37.6950   30.9380   36.9870 H   0  0  0  0  0  0  0  0  0  0  0  0
   39.1770   31.5380   39.7030 C   0  0  0  0  0  0  0  0  0  0  0  0
   38.0340   31.6830   38.9360 C   0  0  0  0  0  0  0  0  0  0  0  0
   37.2620   32.8040   38.9680 C   0  0  0  0  0  0  0  0  0  0  0  0
   37.6340   33.8410   39.7990 C   0  0  0  0  0  0  0  0  0  0  0  0
   38.7490   33.7710   40.5880 C   0  0  0  0  0  0  0  0  0  0  0  0
   39.4890   32.6020   40.5050 C   0  0  0  0  0  0  0  0  0  0  0  0
   36.3700   33.0100   38.4210 H   0  0  0  0  0  0  0  0  0  0  0  0
   37.0740   34.7810   39.8910 H   0  0  0  0  0  0  0  0  0  0  0  0
   39.1050   34.5440   41.2670 H   0  0  0  0  0  0  0  0  0  0  0  0
   40.3840   32.5160   41.1210 H   0  0  0  0  0  0  0  0  0  0  0  0
   40.1910   30.1210   39.6940 S   0  0  0  0  0  0  0  0  0  0  0  0
   39.8360   29.1410   40.7910 O   0  0  0  0  0  0  0  0  0  0  0  0
   41.6160   30.5390   40.0250 O   0  0  0  0  0  0  0  0  0  0  0  0
   40.2030   29.4550   38.5170 H   0  0  0  0  0  0  0  0  0  0  0  0
   36.9290   26.3570   42.6730 C   0  0  0  0  0  0  0  0  0  0  0  0
   36.2910   25.4540   42.5690 H   0  0  0  0  0  0  0  0  0  0  0  0
   36.6050   26.9220   43.5720 H   0  0  0  0  0  0  0  0  0  0  0  0
   38.8630   24.8300   42.3730 C   0  0  0  0  0  3  0  0  0  0  0  0
   38.3590   26.0190   42.8560 C   0  0  0  0  0  0  0  0  0  0  0  0
   39.1550   26.9480   43.5290 C   0  0  0  0  0  0  0  0  0  0  0  0
   38.7280   27.8550   43.8870 H   0  0  0  0  0  0  0  0  0  0  0  0
   40.4800   26.5990   43.6810 C   0  0  0  0  0  0  0  0  0  0  0  0
   41.0270   25.4210   43.2150 C   0  0  0  0  0  0  0  0  0  0  0  0
   40.1980   24.5310   42.5530 C   0  0  0  0  0  3  0  0  0  0  0  0
   42.3680   25.4130   43.5450 O   0  0  0  0  0  0  0  0  0  0  0  0
   42.6270   26.5350   44.3660 C   0  0  0  0  0  3  0  0  0  0  0  0
   43.4950   27.1340   43.9990 H   0  0  0  0  0  0  0  0  0  0  0  0
   41.4730   27.3430   44.3070 O   0  0  0  0  0  0  0  0  0  0  0  0
  1  2  2  0  0  0  0
  1  6  1  0  0  0  0
  2  3  1  0  0  0  0
  3  8  1  0  0  0  0
  3  4  2  0  0  0  0
  5  4  1  0  0  0  0
  5 29  1  0  0  0  0
  6  5  2  0  0  0  0
  7  1  1  0  0  0  0
  9 11  1  0  0  0  0
  9  2  1  0  0  0  0
 10  9  1  0  0  0  0
 12 13  1  0  0  0  0
 12  9  1  0  0  0  0
 12 16  1  0  0  0  0
 14 12  1  0  0  0  0
 15 20  1  0  0  0  0
 16 17  1  0  0  0  0
 16 15  2  0  0  0  0
 17 18  2  0  0  0  0
 18 22  1  0  0  0  0
 18 19  1  0  0  0  0
 19 23  1  0  0  0  0
 20 19  2  0  0  0  0
 20 24  1  0  0  0  0
 21 17  1  0  0  0  0
 25 15  1  0  0  0  0
 25 27  2  0  0  0  0
 25 26  2  0  0  0  0
 28 25  1  0  0  0  0
 29 33  1  0  0  0  0
 29 31  1  0  0  0  0
 30 29  1  0  0  0  0
 32 38  2  0  0  0  0
 32 33  1  0  0  0  0
 33 34  2  0  0  0  0
 34 36  1  0  0  0  0
 34 35  1  0  0  0  0
 36 42  1  0  0  0  0
 37 39  1  0  0  0  0
 37 36  2  0  0  0  0
 38 37  1  0  0  0  0
 39 40  1  0  0  0  0
 41 40  1  0  0  0  0
 42 40  1  0  0  0  0
M  END
>  <minimizedAffinity>
-5.9208684

$$$$

 OpenBabel03242522403D

 42 45  0  0  0  0  0  0  0  0999 V2000
   37.6810   27.4250   43.2920 C   0  0  0  0  0  0  0  0  0  0  0  0
   39.0860   27.6390   43.2780 C   0  0  0  0  0  0  0  0  0  0  0  0
   39.5560   28.7900   42.6470 C   0  0  0  0  0  0  0  0  0  0  0  0
   38.6430   29.6400   42.0840 N   0  0  0  0  0  0  0  0  0  0  0  0
   37.3430   29.3960   42.1260 C   0  0  0  0  0  0  0  0  0  0  0  0
   36.8610   28.3070   42.7170 N   0  0  0  0  0  0  0  0  0  0  0  0
   37.2350   26.5670   43.7540 H   0  0  0  0  0  0  0  0  0  0  0  0
   40.6180   28.9770   42.6210 H   0  0  0  0  0  0  0  0  0  0  0  0
   39.9740   26.6650   43.9170 C   0  0  0  0  0  0  0  0  0  0  0  0
   41.0250   26.9480   43.6110 H   0  0  0  0  0  0  0  0  0  0  0  0
   39.9980   26.6790   45.0070 H   0  0  0  0  0  0  0  0  0  0  0  0
   39.6880   25.3110   43.3030 C   0  0  0  0  0  0  0  0  0  0  0  0
   40.1240   24.4770   43.9260 H   0  0  0  0  0  0  0  0  0  0  0  0
   38.5920   25.0910   43.3150 H   0  0  0  0  0  0  0  0  0  0  0  0
   39.3680   24.6240   40.9690 C   0  0  0  0  0  0  0  0  0  0  0  0
   40.2090   25.1160   41.9530 C   0  0  0  0  0  0  0  0  0  0  0  0
   41.5120   25.4310   41.7200 C   0  0  0  0  0  0  0  0  0  0  0  0
   42.0190   25.2540   40.4490 C   0  0  0  0  0  0  0  0  0  0  0  0
   41.2510   24.7710   39.4250 C   0  0  0  0  0  0  0  0  0  0  0  0
   39.9340   24.4720   39.7320 C   0  0  0  0  0  0  0  0  0  0  0  0
   42.2350   25.8120   42.4060 H   0  0  0  0  0  0  0  0  0  0  0  0
   43.0560   25.4800   40.1680 H   0  0  0  0  0  0  0  0  0  0  0  0
   41.5790   24.6050   38.4000 H   0  0  0  0  0  0  0  0  0  0  0  0
   39.2960   24.0860   38.9380 H   0  0  0  0  0  0  0  0  0  0  0  0
   37.6960   24.2070   41.2260 S   0  0  0  0  0  0  0  0  0  0  0  0
   37.2940   22.9370   40.5080 O   0  0  0  0  0  0  0  0  0  0  0  0
   36.8230   25.2780   40.5900 O   0  0  0  0  0  0  0  0  0  0  0  0
   37.3480   24.0870   42.5270 H   0  0  0  0  0  0  0  0  0  0  0  0
   36.4180   30.4040   41.4960 C   0  0  0  0  0  0  0  0  0  0  0  0
   36.8550   31.4240   41.5120 H   0  0  0  0  0  0  0  0  0  0  0  0
   35.5000   30.3980   42.1190 H   0  0  0  0  0  0  0  0  0  0  0  0
   34.8970   29.2160   39.9340 C   0  0  0  0  0  3  0  0  0  0  0  0
   36.0280   29.9790   40.1320 C   0  0  0  0  0  0  0  0  0  0  0  0
   36.8480   30.3840   39.0770 C   0  0  0  0  0  0  0  0  0  0  0  0
   37.7130   30.9730   39.2710 H   0  0  0  0  0  0  0  0  0  0  0  0
   36.4540   29.9700   37.8220 C   0  0  0  0  0  0  0  0  0  0  0  0
   35.3310   29.2060   37.5780 C   0  0  0  0  0  0  0  0  0  0  0  0
   34.5490   28.8290   38.6570 C   0  0  0  0  0  3  0  0  0  0  0  0
   35.2520   28.9850   36.2170 O   0  0  0  0  0  0  0  0  0  0  0  0
   36.4310   29.4890   35.6190 C   0  0  0  0  0  3  0  0  0  0  0  0
   36.2100   30.1660   34.7590 H   0  0  0  0  0  0  0  0  0  0  0  0
   37.0910   30.2370   36.6160 O   0  0  0  0  0  0  0  0  0  0  0  0
  1  7  1  0  0  0  0
  2  1  1  0  0  0  0
  2  9  1  0  0  0  0
  3  2  2  0  0  0  0
  4  5  2  0  0  0  0
  4  3  1  0  0  0  0
  5  6  1  0  0  0  0
  6  1  2  0  0  0  0
  8  3  1  0  0  0  0
  9 11  1  0  0  0  0
 10  9  1  0  0  0  0
 12 14  1  0  0  0  0
 12  9  1  0  0  0  0
 12 13  1  0  0  0  0
 15 25  1  0  0  0  0
 15 16  1  0  0  0  0
 16 12  1  0  0  0  0
 17 16  2  0  0  0  0
 17 21  1  0  0  0  0
 18 17  1  0  0  0  0
 19 20  1  0  0  0  0
 19 18  2  0  0  0  0
 20 15  2  0  0  0  0
 22 18  1  0  0  0  0
 23 19  1  0  0  0  0
 24 20  1  0  0  0  0
 25 28  1  0  0  0  0
 26 25  2  0  0  0  0
 27 25  2  0  0  0  0
 29 30  1  0  0  0  0
 29 31  1  0  0  0  0
 29  5  1  0  0  0  0
 32 33  1  0  0  0  0
 33 29  1  0  0  0  0
 34 35  1  0  0  0  0
 34 33  2  0  0  0  0
 36 34  1  0  0  0  0
 37 36  2  0  0  0  0
 37 38  1  0  0  0  0
 38 32  2  0  0  0  0
 39 37  1  0  0  0  0
 40 39  1  0  0  0  0
 40 42  1  0  0  0  0
 41 40  1  0  0  0  0
 42 36  1  0  0  0  0
M  END
>  <minimizedAffinity>
-5.90767527

$$$$

 OpenBabel03242522403D

 42 45  0  0  0  0  0  0  0  0999 V2000
   35.9660   28.2060   39.4010 C   0  0  0  0  0  0  0  0  0  0  0  0
   36.8930   27.1570   39.1550 C   0  0  0  0  0  0  0  0  0  0  0  0
   37.9400   27.4160   38.2720 C   0  0  0  0  0  0  0  0  0  0  0  0
   38.0130   28.6570   37.6990 N   0  0  0  0  0  0  0  0  0  0  0  0
   37.1250   29.6010   37.9610 C   0  0  0  0  0  0  0  0  0  0  0  0
   36.1130   29.3880   38.7970 N   0  0  0  0  0  0  0  0  0  0  0  0
   35.1320   28.0930   40.0640 H   0  0  0  0  0  0  0  0  0  0  0  0
   38.6580   26.6380   38.0670 H   0  0  0  0  0  0  0  0  0  0  0  0
   36.7220   25.8670   39.8280 C   0  0  0  0  0  0  0  0  0  0  0  0
   35.7320   25.9250   40.3730 H   0  0  0  0  0  0  0  0  0  0  0  0
   36.6200   24.9960   39.1790 H   0  0  0  0  0  0  0  0  0  0  0  0
   37.7990   25.7540   40.8840 C   0  0  0  0  0  0  0  0  0  0  0  0
   37.8470   24.7100   41.3120 H   0  0  0  0  0  0  0  0  0  0  0  0
   38.8140   25.8900   40.4350 H   0  0  0  0  0  0  0  0  0  0  0  0
   38.6390   27.5780   42.2940 C   0  0  0  0  0  0  0  0  0  0  0  0
   37.6490   26.6480   42.0280 C   0  0  0  0  0  0  0  0  0  0  0  0
   36.5270   26.5270   42.7900 C   0  0  0  0  0  0  0  0  0  0  0  0
   36.3680   27.3670   43.8730 C   0  0  0  0  0  0  0  0  0  0  0  0
   37.3040   28.3090   44.2000 C   0  0  0  0  0  0  0  0  0  0  0  0
   38.4200   28.3780   43.3830 C   0  0  0  0  0  0  0  0  0  0  0  0
   35.7140   25.8480   42.6680 H   0  0  0  0  0  0  0  0  0  0  0  0
   35.4990   27.3420   44.5430 H   0  0  0  0  0  0  0  0  0  0  0  0
   37.2500   29.0050   45.0370 H   0  0  0  0  0  0  0  0  0  0  0  0
   39.1830   29.1190   43.6160 H   0  0  0  0  0  0  0  0  0  0  0  0
   40.0900   27.7640   41.3470 S   0  0  0  0  0  0  0  0  0  0  0  0
   41.3270   27.9290   42.2010 O   0  0  0  0  0  0  0  0  0  0  0  0
   40.0020   29.0710   40.5730 O   0  0  0  0  0  0  0  0  0  0  0  0
   40.3110   26.7610   40.4680 H   0  0  0  0  0  0  0  0  0  0  0  0
   37.3050   30.9400   37.2960 C   0  0  0  0  0  0  0  0  0  0  0  0
   36.3490   31.3180   36.8760 H   0  0  0  0  0  0  0  0  0  0  0  0
   38.0180   30.7670   36.4640 H   0  0  0  0  0  0  0  0  0  0  0  0
   37.1560   32.7460   38.9940 C   0  0  0  0  0  3  0  0  0  0  0  0
   37.9340   31.9080   38.2230 C   0  0  0  0  0  0  0  0  0  0  0  0
   39.3300   31.9290   38.2740 C   0  0  0  0  0  0  0  0  0  0  0  0
   39.8950   31.2660   37.6630 H   0  0  0  0  0  0  0  0  0  0  0  0
   39.8810   32.8430   39.1480 C   0  0  0  0  0  0  0  0  0  0  0  0
   39.1410   33.7000   39.9370 C   0  0  0  0  0  0  0  0  0  0  0  0
   37.7600   33.6420   39.8510 C   0  0  0  0  0  3  0  0  0  0  0  0
   40.0210   34.4650   40.6780 O   0  0  0  0  0  0  0  0  0  0  0  0
   41.3330   34.1880   40.2270 C   0  0  0  0  0  3  0  0  0  0  0  0
   42.0220   33.9370   41.0700 H   0  0  0  0  0  0  0  0  0  0  0  0
   41.2320   33.0620   39.3850 O   0  0  0  0  0  0  0  0  0  0  0  0
  1  7  1  0  0  0  0
  2  1  1  0  0  0  0
  2  9  1  0  0  0  0
  3  2  2  0  0  0  0
  4  5  2  0  0  0  0
  4  3  1  0  0  0  0
  5  6  1  0  0  0  0
  6  1  2  0  0  0  0
  8  3  1  0  0  0  0
  9 10  1  0  0  0  0
  9 12  1  0  0  0  0
 11  9  1  0  0  0  0
 12 13  1  0  0  0  0
 12 16  1  0  0  0  0
 14 12  1  0  0  0  0
 15 20  1  0  0  0  0
 16 15  2  0  0  0  0
 16 17  1  0  0  0  0
 17 18  2  0  0  0  0
 18 19  1  0  0  0  0
 18 22  1  0  0  0  0
 19 23  1  0  0  0  0
 20 24  1  0  0  0  0
 20 19  2  0  0  0  0
 21 17  1  0  0  0  0
 25 26  2  0  0  0  0
 25 15  1  0  0  0  0
 27 25  2  0  0  0  0
 28 25  1  0  0  0  0
 29  5  1  0  0  0  0
 29 33  1  0  0  0  0
 30 29  1  0  0  0  0
 31 29  1  0  0  0  0
 32 38  1  0  0  0  0
 33 34  1  0  0  0  0
 33 32  2  0  0  0  0
 34 36  2  0  0  0  0
 35 34  1  0  0  0  0
 36 42  1  0  0  0  0
 36 37  1  0  0  0  0
 37 39  1  0  0  0  0
 38 37  2  0  0  0  0
 40 39  1  0  0  0  0
 40 41  1  0  0  0  0
 42 40  1  0  0  0  0
M  END
>  <minimizedAffinity>
-5.87313461

$$$$

 OpenBabel03242522403D

 42 45  0  0  0  0  0  0  0  0999 V2000
   38.4590   30.9050   41.2080 C   0  0  0  0  0  0  0  0  0  0  0  0
   37.3180   30.6400   40.4030 C   0  0  0  0  0  0  0  0  0  0  0  0
   36.8510   31.6700   39.5890 C   0  0  0  0  0  0  0  0  0  0  0  0
   37.5130   32.8670   39.6130 N   0  0  0  0  0  0  0  0  0  0  0  0
   38.5720   33.0640   40.3810 C   0  0  0  0  0  0  0  0  0  0  0  0
   39.0450   32.1040   41.1710 N   0  0  0  0  0  0  0  0  0  0  0  0
   38.8840   30.1700   41.8630 H   0  0  0  0  0  0  0  0  0  0  0  0
   35.9870   31.4970   38.9680 H   0  0  0  0  0  0  0  0  0  0  0  0
   36.6890   29.3180   40.4520 C   0  0  0  0  0  0  0  0  0  0  0  0
   36.3250   29.1810   41.5140 H   0  0  0  0  0  0  0  0  0  0  0  0
   35.7940   29.1880   39.8420 H   0  0  0  0  0  0  0  0  0  0  0  0
   37.7720   28.2850   40.2220 C   0  0  0  0  0  0  0  0  0  0  0  0
   38.0390   28.2060   39.1280 H   0  0  0  0  0  0  0  0  0  0  0  0
   38.7340   28.6040   40.6950 H   0  0  0  0  0  0  0  0  0  0  0  0
   37.8040   26.5190   41.9240 C   0  0  0  0  0  0  0  0  0  0  0  0
   37.4430   26.9300   40.6530 C   0  0  0  0  0  0  0  0  0  0  0  0
   36.7870   26.1230   39.7750 C   0  0  0  0  0  0  0  0  0  0  0  0
   36.4670   24.8390   40.1670 C   0  0  0  0  0  0  0  0  0  0  0  0
   36.7910   24.3600   41.4070 C   0  0  0  0  0  0  0  0  0  0  0  0
   37.4580   25.2350   42.2500 C   0  0  0  0  0  0  0  0  0  0  0  0
   36.4690   26.3450   38.7820 H   0  0  0  0  0  0  0  0  0  0  0  0
   35.9400   24.1190   39.5280 H   0  0  0  0  0  0  0  0  0  0  0  0
   36.5740   23.3630   41.7870 H   0  0  0  0  0  0  0  0  0  0  0  0
   37.7290   24.8840   43.2440 H   0  0  0  0  0  0  0  0  0  0  0  0
   38.6460   27.5180   43.0770 S   0  0  0  0  0  0  0  0  0  0  0  0
   39.3440   26.7120   44.1490 O   0  0  0  0  0  0  0  0  0  0  0  0
   37.6240   28.3410   43.8460 O   0  0  0  0  0  0  0  0  0  0  0  0
   39.5470   28.3620   42.5250 H   0  0  0  0  0  0  0  0  0  0  0  0
   39.2440   34.4100   40.3200 C   0  0  0  0  0  0  0  0  0  0  0  0
   39.0560   35.0020   41.2400 H   0  0  0  0  0  0  0  0  0  0  0  0
   38.7850   34.9350   39.4570 H   0  0  0  0  0  0  0  0  0  0  0  0
   41.6310   34.6230   40.9720 C   0  0  0  0  0  3  0  0  0  0  0  0
   40.6890   34.2650   40.0300 C   0  0  0  0  0  0  0  0  0  0  0  0
   41.0420   33.7590   38.7770 C   0  0  0  0  0  0  0  0  0  0  0  0
   40.2850   33.4950   38.0780 H   0  0  0  0  0  0  0  0  0  0  0  0
   42.3960   33.6380   38.5430 C   0  0  0  0  0  0  0  0  0  0  0  0
   43.3720   33.9840   39.4550 C   0  0  0  0  0  0  0  0  0  0  0  0
   42.9720   34.4820   40.6840 C   0  0  0  0  0  3  0  0  0  0  0  0
   44.6020   33.7300   38.8810 O   0  0  0  0  0  0  0  0  0  0  0  0
   44.3910   33.3670   37.5300 C   0  0  0  0  0  3  0  0  0  0  0  0
   44.9160   32.4170   37.2640 H   0  0  0  0  0  0  0  0  0  0  0  0
   43.0040   33.1640   37.3870 O   0  0  0  0  0  0  0  0  0  0  0  0
  1  7  1  0  0  0  0
  2  9  1  0  0  0  0
  2  1  2  0  0  0  0
  3  4  2  0  0  0  0
  3  2  1  0  0  0  0
  4  5  1  0  0  0  0
  5  6  2  0  0  0  0
  6  1  1  0  0  0  0
  8  3  1  0  0  0  0
  9 10  1  0  0  0  0
 11  9  1  0  0  0  0
 12  9  1  0  0  0  0
 12 16  1  0  0  0  0
 12 14  1  0  0  0  0
 13 12  1  0  0  0  0
 15 20  1  0  0  0  0
 15 25  1  0  0  0  0
 16 15  2  0  0  0  0
 17 18  2  0  0  0  0
 17 16  1  0  0  0  0
 18 19  1  0  0  0  0
 19 23  1  0  0  0  0
 19 20  2  0  0  0  0
 20 24  1  0  0  0  0
 21 17  1  0  0  0  0
 22 18  1  0  0  0  0
 25 27  2  0  0  0  0
 25 26  2  0  0  0  0
 28 25  1  0  0  0  0
 29  5  1  0  0  0  0
 29 30  1  0  0  0  0
 31 29  1  0  0  0  0
 33 29  1  0  0  0  0
 33 32  2  0  0  0  0
 34 33  1  0  0  0  0
 35 34  1  0  0  0  0
 36 34  2  0  0  0  0
 36 37  1  0  0  0  0
 37 38  2  0  0  0  0
 38 32  1  0  0  0  0
 39 37  1  0  0  0  0
 40 39  1  0  0  0  0
 41 40  1  0  0  0  0
 42 40  1  0  0  0  0
 42 36  1  0  0  0  0
M  END
>  <minimizedAffinity>
-5.85946512

$$$$
