
 OpenBabel03252503193D

 41 45  0  0  0  0  0  0  0  0999 V2000
   46.4050   33.6670   40.9340 C   0  0  0  0  0  0  0  0  0  0  0  0
   45.1300   33.2210   40.7510 C   0  0  0  0  0  0  0  0  0  0  0  0
   45.1840   32.3440   39.7230 N   0  0  0  0  0  0  0  0  0  0  0  0
   46.4460   32.2600   39.2970 C   0  0  0  0  0  0  0  0  0  0  0  0
   47.1980   33.0740   40.0430 N   0  0  0  0  0  0  0  0  0  0  0  0
   47.0180   31.4870   38.2560 N   0  0  0  0  0  0  0  0  0  0  0  0
   44.2470   33.5050   41.3080 H   0  0  0  0  0  0  0  0  0  0  0  0
   47.3100   30.4740   38.2020 H   0  0  0  0  0  0  0  0  0  0  0  0
   47.2650   31.8110   37.3000 H   0  0  0  0  0  0  0  0  0  0  0  0
   44.0970   31.5860   39.1300 C   0  0  0  0  0  0  0  0  0  0  0  0
   44.4350   31.0860   38.2020 H   0  0  0  0  0  0  0  0  0  0  0  0
   43.6780   30.8410   39.8190 H   0  0  0  0  0  0  0  0  0  0  0  0
   41.7460   32.0040   38.6370 C   0  0  0  0  0  3  0  0  0  0  0  0
   43.0250   32.5330   38.7180 C   0  0  0  0  0  0  0  0  0  0  0  0
   43.1610   33.8690   38.4080 C   0  0  0  0  0  0  0  0  0  0  0  0
   44.1690   34.2530   38.4810 H   0  0  0  0  0  0  0  0  0  0  0  0
   42.0480   34.5990   38.0430 C   0  0  0  0  0  0  0  0  0  0  0  0
   40.7850   34.0570   37.9680 C   0  0  0  0  0  0  0  0  0  0  0  0
   40.6340   32.7250   38.2730 C   0  0  0  0  0  3  0  0  0  0  0  0
   39.9170   35.0890   37.5680 O   0  0  0  0  0  0  0  0  0  0  0  0
   40.5730   36.3270   37.6990 C   0  0  0  0  0  3  0  0  0  0  0  0
   40.3300   37.0310   36.8810 H   0  0  0  0  0  0  0  0  0  0  0  0
   41.9350   35.9390   37.6920 O   0  0  0  0  0  0  0  0  0  0  0  0
   46.8830   34.6560   41.9520 C   0  0  0  0  0  0  0  0  0  0  0  0
   47.9540   35.3270   41.8650 O   0  0  0  0  0  0  0  0  0  0  0  0
   45.4460   36.1200   43.2880 C   0  0  0  0  0  0  0  0  0  0  0  0
   46.1150   34.8930   43.1190 C   0  0  0  0  0  0  0  0  0  0  0  0
   45.9370   34.0020   44.1680 C   0  0  0  0  0  0  0  0  0  0  0  0
   45.2030   34.2720   45.2450 N   0  0  0  0  0  0  0  0  0  0  0  0
   44.5790   35.4790   45.3510 C   0  0  0  0  0  0  0  0  0  0  0  0
   44.7060   36.3850   44.3800 N   0  0  0  0  0  0  0  0  0  0  0  0
   45.5060   36.9000   42.5370 H   0  0  0  0  0  0  0  0  0  0  0  0
   43.9970   35.6330   46.2560 H   0  0  0  0  0  0  0  0  0  0  0  0
   46.5850   32.7320   44.0780 C   0  0  0  0  0  0  0  0  0  0  0  0
   47.8670   32.2910   44.0720 C   0  0  0  0  0  0  0  0  0  0  0  0
   48.1870   31.0230   43.9740 C   0  0  0  0  0  0  0  0  0  0  0  0
   47.1630   30.1660   43.8780 C   0  0  0  0  0  0  0  0  0  0  0  0
   45.6720   31.2030   43.9290 S   0  0  0  0  0  0  0  0  0  0  0  0
   48.6080   33.1130   44.1580 H   0  0  0  0  0  0  0  0  0  0  0  0
   49.1890   30.6130   43.9650 H   0  0  0  0  0  0  0  0  0  0  0  0
   47.1700   29.0120   43.7830 H   0  0  0  0  0  0  0  0  0  0  0  0
  1 24  1  0  0  0  0
  2  1  2  0  0  0  0
  2  7  1  0  0  0  0
  3  2  1  0  0  0  0
  4  3  1  0  0  0  0
  4  5  2  0  0  0  0
  5  1  1  0  0  0  0
  6  4  1  0  0  0  0
  8  6  1  0  0  0  0
  9  6  1  0  0  0  0
 10  3  1  0  0  0  0
 10 12  1  0  0  0  0
 11 10  1  0  0  0  0
 13 14  1  0  0  0  0
 14 10  1  0  0  0  0
 15 16  1  0  0  0  0
 15 14  2  0  0  0  0
 17 15  1  0  0  0  0
 18 17  2  0  0  0  0
 18 19  1  0  0  0  0
 19 13  2  0  0  0  0
 20 21  1  0  0  0  0
 20 18  1  0  0  0  0
 22 21  1  0  0  0  0
 23 21  1  0  0  0  0
 23 17  1  0  0  0  0
 24 27  1  0  0  0  0
 25 24  2  0  0  0  0
 26 31  1  0  0  0  0
 27 26  2  0  0  0  0
 27 28  1  0  0  0  0
 28 29  2  0  0  0  0
 29 30  1  0  0  0  0
 30 33  1  0  0  0  0
 31 30  2  0  0  0  0
 32 26  1  0  0  0  0
 34 28  1  0  0  0  0
 35 34  2  0  0  0  0
 35 39  1  0  0  0  0
 36 35  1  0  0  0  0
 37 38  1  0  0  0  0
 37 36  2  0  0  0  0
 38 34  1  0  0  0  0
 40 36  1  0  0  0  0
 41 37  1  0  0  0  0
M  END
>  <minimizedAffinity>
-4.96615601

>  <minimizedRMSD>
1.89248919

$$$$
