
 OpenBabel03242517533D

 40 43  0  0  0  0  0  0  0  0999 V2000
   45.2880   34.2640   43.8630 C   0  0  0  0  0  0  0  0  0  0  0  0
   46.3100   34.8480   43.0810 C   0  0  0  0  0  0  0  0  0  0  0  0
   47.5890   34.3280   43.1310 C   0  0  0  0  0  0  0  0  0  0  0  0
   47.7460   33.2780   43.9460 N   0  0  0  0  0  0  0  0  0  0  0  0
   46.8010   32.7240   44.6800 C   0  0  0  0  0  0  0  0  0  0  0  0
   45.5650   33.2250   44.6340 N   0  0  0  0  0  0  0  0  0  0  0  0
   44.3190   34.7270   43.7700 H   0  0  0  0  0  0  0  0  0  0  0  0
   46.1090   35.6960   42.4460 H   0  0  0  0  0  0  0  0  0  0  0  0
   48.7190   34.8640   42.3570 C   0  0  0  0  0  0  0  0  0  0  0  0
   49.1250   35.7630   42.8620 H   0  0  0  0  0  0  0  0  0  0  0  0
   49.5150   34.1220   42.3110 H   0  0  0  0  0  0  0  0  0  0  0  0
   48.3320   35.1560   40.9200 C   0  0  0  0  0  0  0  0  0  0  0  0
   49.0690   35.8320   40.4500 H   0  0  0  0  0  0  0  0  0  0  0  0
   47.3760   35.7230   40.9750 H   0  0  0  0  0  0  0  0  0  0  0  0
   49.0960   32.9480   40.2920 C   0  0  0  0  0  3  0  0  0  0  0  0
   48.1280   33.9330   40.1290 C   0  0  0  0  0  0  0  0  0  0  0  0
   47.0950   33.6620   39.2560 C   0  0  0  0  0  0  0  0  0  0  0  0
   46.3590   34.4440   39.1480 H   0  0  0  0  0  0  0  0  0  0  0  0
   47.0100   32.4730   38.5660 C   0  0  0  0  0  0  0  0  0  0  0  0
   48.0010   31.5160   38.7610 C   0  0  0  0  0  0  0  0  0  0  0  0
   49.0640   31.7380   39.6300 C   0  0  0  0  0  3  0  0  0  0  0  0
   47.6520   30.4280   37.9380 O   0  0  0  0  0  0  0  0  0  0  0  0
   46.6460   30.8200   37.0220 C   0  0  0  0  0  3  0  0  0  0  0  0
   45.8920   30.0320   36.8360 H   0  0  0  0  0  0  0  0  0  0  0  0
   46.1010   31.9610   37.6520 O   0  0  0  0  0  0  0  0  0  0  0  0
   47.0120   31.6390   45.5090 O   0  0  0  0  0  0  0  0  0  0  0  0
   45.5510   30.3560   47.0550 C   0  0  0  0  0  0  0  0  0  0  0  0
   46.3570   31.3990   46.7060 C   0  0  0  0  0  0  0  0  0  0  0  0
   46.5770   32.3840   47.6620 C   0  0  0  0  0  0  0  0  0  0  0  0
   45.9990   32.3090   48.9260 C   0  0  0  0  0  0  0  0  0  0  0  0
   45.1930   31.2430   49.2400 C   0  0  0  0  0  0  0  0  0  0  0  0
   44.9710   30.2590   48.2880 C   0  0  0  0  0  0  0  0  0  0  0  0
   47.1990   33.2540   47.4950 H   0  0  0  0  0  0  0  0  0  0  0  0
   46.1880   33.1010   49.6670 H   0  0  0  0  0  0  0  0  0  0  0  0
   44.7170   31.1350   50.2090 H   0  0  0  0  0  0  0  0  0  0  0  0
   44.3530   29.3860   48.4430 H   0  0  0  0  0  0  0  0  0  0  0  0
   45.3280   29.1670   45.7960 S   0  0  0  0  0  0  0  0  0  0  0  0
   44.6660   29.7600   44.5810 O   0  0  0  0  0  0  0  0  0  0  0  0
   44.3450   28.1290   46.3230 O   0  0  0  0  0  0  0  0  0  0  0  0
   46.5130   28.5730   45.4140 H   0  0  0  0  0  0  0  0  0  0  0  0
  1  6  1  0  0  0  0
  2  3  1  0  0  0  0
  2  1  2  0  0  0  0
  3  4  2  0  0  0  0
  4  5  1  0  0  0  0
  5 26  1  0  0  0  0
  6  5  2  0  0  0  0
  7  1  1  0  0  0  0
  8  2  1  0  0  0  0
  9 10  1  0  0  0  0
  9  3  1  0  0  0  0
 11  9  1  0  0  0  0
 12 14  1  0  0  0  0
 12  9  1  0  0  0  0
 13 12  1  0  0  0  0
 16 15  1  0  0  0  0
 16 12  1  0  0  0  0
 17 16  2  0  0  0  0
 18 17  1  0  0  0  0
 19 20  2  0  0  0  0
 19 17  1  0  0  0  0
 20 21  1  0  0  0  0
 21 15  2  0  0  0  0
 22 20  1  0  0  0  0
 23 25  1  0  0  0  0
 23 22  1  0  0  0  0
 24 23  1  0  0  0  0
 25 19  1  0  0  0  0
 26 28  1  0  0  0  0
 27 32  1  0  0  0  0
 28 27  2  0  0  0  0
 28 29  1  0  0  0  0
 29 30  2  0  0  0  0
 30 31  1  0  0  0  0
 30 34  1  0  0  0  0
 31 35  1  0  0  0  0
 32 36  1  0  0  0  0
 32 31  2  0  0  0  0
 33 29  1  0  0  0  0
 37 39  2  0  0  0  0
 37 27  1  0  0  0  0
 38 37  2  0  0  0  0
 40 37  1  0  0  0  0
M  END
>  <minimizedAffinity>
-5.60109472

>  <minimizedRMSD>
0.806353927

$$$$
