
 OpenBabel03252503193D

 41 45  0  0  0  0  0  0  0  0999 V2000
   43.8990   35.5950   42.0000 C   0  0  0  0  0  0  0  0  0  0  0  0
   42.5400   35.6720   42.0680 C   0  0  0  0  0  0  0  0  0  0  0  0
   42.0780   35.1820   40.8960 N   0  0  0  0  0  0  0  0  0  0  0  0
   43.1190   34.8200   40.1430 C   0  0  0  0  0  0  0  0  0  0  0  0
   44.2410   35.0740   40.8230 N   0  0  0  0  0  0  0  0  0  0  0  0
   43.1640   34.2560   38.8440 N   0  0  0  0  0  0  0  0  0  0  0  0
   41.9430   36.0480   42.8880 H   0  0  0  0  0  0  0  0  0  0  0  0
   43.0260   33.2690   38.4920 H   0  0  0  0  0  0  0  0  0  0  0  0
   43.3570   34.7540   37.9520 H   0  0  0  0  0  0  0  0  0  0  0  0
   40.7000   35.0420   40.4600 C   0  0  0  0  0  0  0  0  0  0  0  0
   40.0580   35.7920   40.9600 H   0  0  0  0  0  0  0  0  0  0  0  0
   40.5920   35.1310   39.3710 H   0  0  0  0  0  0  0  0  0  0  0  0
   38.9610   33.3350   40.3890 C   0  0  0  0  0  0  0  0  0  0  0  0
   40.1940   33.7120   40.8990 C   0  0  0  0  0  0  0  0  0  0  0  0
   40.8110   32.8200   41.7490 C   0  0  0  0  0  0  0  0  0  0  0  0
   41.7700   33.1430   42.1300 H   0  0  0  0  0  0  0  0  0  0  0  0
   40.1890   31.6250   42.0470 C   0  0  0  0  0  0  0  0  0  0  0  0
   38.9640   31.2660   41.5320 C   0  0  0  0  0  0  0  0  0  0  0  0
   38.3370   32.1460   40.6820 C   0  0  0  0  0  0  0  0  0  0  0  0
   38.6540   29.9970   42.0530 O   0  0  0  0  0  0  0  0  0  0  0  0
   39.8080   29.4350   42.6280 C   0  0  0  0  0  0  0  0  0  0  0  0
   39.5940   28.8710   43.5560 H   0  0  0  0  0  0  0  0  0  0  0  0
   40.6050   30.5810   42.8650 O   0  0  0  0  0  0  0  0  0  0  0  0
   44.8860   36.0140   43.0470 C   0  0  0  0  0  0  0  0  0  0  0  0
   45.3070   37.1960   43.2160 O   0  0  0  0  0  0  0  0  0  0  0  0
   44.8130   34.8350   45.1910 C   0  0  0  0  0  0  0  0  0  0  0  0
   45.4180   35.0490   43.9380 C   0  0  0  0  0  0  0  0  0  0  0  0
   46.5260   34.2490   43.7000 C   0  0  0  0  0  0  0  0  0  0  0  0
   46.9870   33.3550   44.5710 N   0  0  0  0  0  0  0  0  0  0  0  0
   46.3580   33.1930   45.7700 C   0  0  0  0  0  0  0  0  0  0  0  0
   45.2860   33.9290   46.0660 N   0  0  0  0  0  0  0  0  0  0  0  0
   43.9380   35.3980   45.4950 H   0  0  0  0  0  0  0  0  0  0  0  0
   46.7880   32.4460   46.4330 H   0  0  0  0  0  0  0  0  0  0  0  0
   47.2030   34.4050   42.4520 C   0  0  0  0  0  0  0  0  0  0  0  0
   48.0270   35.3280   41.9000 C   0  0  0  0  0  0  0  0  0  0  0  0
   48.5200   35.2160   40.6890 C   0  0  0  0  0  0  0  0  0  0  0  0
   48.1600   34.1190   40.0110 C   0  0  0  0  0  0  0  0  0  0  0  0
   47.0710   33.2000   41.1380 S   0  0  0  0  0  0  0  0  0  0  0  0
   48.2380   36.1810   42.5780 H   0  0  0  0  0  0  0  0  0  0  0  0
   49.1820   35.9170   40.1980 H   0  0  0  0  0  0  0  0  0  0  0  0
   48.4500   33.7820   38.9410 H   0  0  0  0  0  0  0  0  0  0  0  0
  1  2  2  0  0  0  0
  1 24  1  0  0  0  0
  2  7  1  0  0  0  0
  3  2  1  0  0  0  0
  4  5  2  0  0  0  0
  4  3  1  0  0  0  0
  5  1  1  0  0  0  0
  6  4  1  0  0  0  0
  8  6  1  0  0  0  0
  9  6  1  0  0  0  0
 10  3  1  0  0  0  0
 10 14  1  0  0  0  0
 10 11  1  0  0  0  0
 12 10  1  0  0  0  0
 13 19  2  0  0  0  0
 13 14  1  0  0  0  0
 14 15  2  0  0  0  0
 15 17  1  0  0  0  0
 15 16  1  0  0  0  0
 17 23  1  0  0  0  0
 18 17  2  0  0  0  0
 18 20  1  0  0  0  0
 19 18  1  0  0  0  0
 20 21  1  0  0  0  0
 21 23  1  0  0  0  0
 21 22  1  0  0  0  0
 24 25  2  0  0  0  0
 24 27  1  0  0  0  0
 26 32  1  0  0  0  0
 26 31  1  0  0  0  0
 27 26  2  0  0  0  0
 28 27  1  0  0  0  0
 28 29  2  0  0  0  0
 29 30  1  0  0  0  0
 30 31  2  0  0  0  0
 30 33  1  0  0  0  0
 34 28  1  0  0  0  0
 35 34  2  0  0  0  0
 35 39  1  0  0  0  0
 36 35  1  0  0  0  0
 37 36  2  0  0  0  0
 37 38  1  0  0  0  0
 38 34  1  0  0  0  0
 40 36  1  0  0  0  0
 41 37  1  0  0  0  0
M  END
>  <minimizedAffinity>
-7.17004728

>  <minimizedRMSD>
5.1510725

$$$$
