
 OpenBabel03242522403D

 42 45  0  0  0  0  0  0  0  0999 V2000
   47.3180   32.3440   47.6100 C   0  0  0  0  0  0  0  0  0  0  0  0
   47.0650   31.3630   46.6130 C   0  0  0  0  0  0  0  0  0  0  0  0
   47.6190   30.0980   46.8000 C   0  0  0  0  0  0  0  0  0  0  0  0
   48.3690   29.8760   47.9230 N   0  0  0  0  0  0  0  0  0  0  0  0
   48.5750   30.8240   48.8230 C   0  0  0  0  0  0  0  0  0  0  0  0
   48.0630   32.0430   48.6760 N   0  0  0  0  0  0  0  0  0  0  0  0
   46.9320   33.3420   47.5460 H   0  0  0  0  0  0  0  0  0  0  0  0
   47.4430   29.3330   46.0590 H   0  0  0  0  0  0  0  0  0  0  0  0
   46.2420   31.7070   45.4520 C   0  0  0  0  0  0  0  0  0  0  0  0
   46.1870   30.7720   44.8160 H   0  0  0  0  0  0  0  0  0  0  0  0
   45.2000   31.9540   45.6570 H   0  0  0  0  0  0  0  0  0  0  0  0
   46.9960   32.7420   44.6450 C   0  0  0  0  0  0  0  0  0  0  0  0
   47.9180   33.0980   45.1930 H   0  0  0  0  0  0  0  0  0  0  0  0
   47.4150   32.2920   43.7110 H   0  0  0  0  0  0  0  0  0  0  0  0
   46.5140   34.6070   43.1270 C   0  0  0  0  0  0  0  0  0  0  0  0
   46.2400   33.9440   44.3100 C   0  0  0  0  0  0  0  0  0  0  0  0
   45.2870   34.3640   45.1870 C   0  0  0  0  0  0  0  0  0  0  0  0
   44.5620   35.4980   44.8850 C   0  0  0  0  0  0  0  0  0  0  0  0
   44.7760   36.2080   43.7350 C   0  0  0  0  0  0  0  0  0  0  0  0
   45.7600   35.7240   42.8880 C   0  0  0  0  0  0  0  0  0  0  0  0
   45.0050   33.9260   46.1180 H   0  0  0  0  0  0  0  0  0  0  0  0
   43.7750   35.9100   45.5310 H   0  0  0  0  0  0  0  0  0  0  0  0
   44.2460   37.1080   43.4290 H   0  0  0  0  0  0  0  0  0  0  0  0
   45.9540   36.2670   41.9640 H   0  0  0  0  0  0  0  0  0  0  0  0
   47.7250   34.1060   41.9790 S   0  0  0  0  0  0  0  0  0  0  0  0
   49.0530   34.8000   42.1900 O   0  0  0  0  0  0  0  0  0  0  0  0
   47.2960   34.5540   40.5900 O   0  0  0  0  0  0  0  0  0  0  0  0
   47.9430   32.7720   41.9500 H   0  0  0  0  0  0  0  0  0  0  0  0
   49.3970   30.4760   50.0350 C   0  0  0  0  0  0  0  0  0  0  0  0
   49.5420   29.3790   50.1280 H   0  0  0  0  0  0  0  0  0  0  0  0
   48.8110   30.8340   50.9070 H   0  0  0  0  0  0  0  0  0  0  0  0
   50.9360   32.1740   50.9910 C   0  0  0  0  0  3  0  0  0  0  0  0
   50.6800   31.2160   50.0330 C   0  0  0  0  0  0  0  0  0  0  0  0
   51.5980   30.8970   49.0310 C   0  0  0  0  0  0  0  0  0  0  0  0
   51.3640   30.1520   48.3090 H   0  0  0  0  0  0  0  0  0  0  0  0
   52.7820   31.6070   49.0590 C   0  0  0  0  0  0  0  0  0  0  0  0
   53.0810   32.5730   49.9970 C   0  0  0  0  0  0  0  0  0  0  0  0
   52.1370   32.8520   50.9720 C   0  0  0  0  0  3  0  0  0  0  0  0
   54.3400   33.0660   49.7190 O   0  0  0  0  0  0  0  0  0  0  0  0
   54.7690   32.5050   48.4920 C   0  0  0  0  0  3  0  0  0  0  0  0
   55.7880   32.0530   48.5700 H   0  0  0  0  0  0  0  0  0  0  0  0
   53.8500   31.4820   48.1820 O   0  0  0  0  0  0  0  0  0  0  0  0
  1  6  1  0  0  0  0
  2  3  1  0  0  0  0
  2  1  2  0  0  0  0
  3  4  2  0  0  0  0
  4  5  1  0  0  0  0
  5 29  1  0  0  0  0
  6  5  2  0  0  0  0
  7  1  1  0  0  0  0
  8  3  1  0  0  0  0
  9 11  1  0  0  0  0
  9  2  1  0  0  0  0
 10  9  1  0  0  0  0
 12 13  1  0  0  0  0
 12  9  1  0  0  0  0
 14 12  1  0  0  0  0
 15 16  1  0  0  0  0
 16 12  1  0  0  0  0
 16 17  2  0  0  0  0
 17 21  1  0  0  0  0
 18 17  1  0  0  0  0
 18 22  1  0  0  0  0
 19 18  2  0  0  0  0
 20 15  2  0  0  0  0
 20 19  1  0  0  0  0
 23 19  1  0  0  0  0
 24 20  1  0  0  0  0
 25 26  2  0  0  0  0
 25 15  1  0  0  0  0
 27 25  2  0  0  0  0
 28 25  1  0  0  0  0
 29 30  1  0  0  0  0
 29 31  1  0  0  0  0
 33 29  1  0  0  0  0
 33 32  2  0  0  0  0
 34 36  2  0  0  0  0
 34 33  1  0  0  0  0
 35 34  1  0  0  0  0
 36 37  1  0  0  0  0
 37 38  2  0  0  0  0
 38 32  1  0  0  0  0
 39 37  1  0  0  0  0
 40 41  1  0  0  0  0
 40 39  1  0  0  0  0
 42 40  1  0  0  0  0
 42 36  1  0  0  0  0
M  END
>  <minimizedAffinity>
-6.02886295

>  <minimizedRMSD>
1.21171582

$$$$
