
 OpenBabel03252503193D

 41 45  0  0  0  0  0  0  0  0999 V2000
   44.8880   34.9250   41.4290 C   0  0  0  0  0  0  0  0  0  0  0  0
   43.6350   35.4530   41.3500 C   0  0  0  0  0  0  0  0  0  0  0  0
   43.1010   34.9830   40.2010 N   0  0  0  0  0  0  0  0  0  0  0  0
   43.9980   34.1960   39.6020 C   0  0  0  0  0  0  0  0  0  0  0  0
   45.0990   34.1600   40.3590 N   0  0  0  0  0  0  0  0  0  0  0  0
   43.9230   33.4720   38.3870 N   0  0  0  0  0  0  0  0  0  0  0  0
   43.1540   36.1160   42.0570 H   0  0  0  0  0  0  0  0  0  0  0  0
   43.4780   32.5470   38.1370 H   0  0  0  0  0  0  0  0  0  0  0  0
   44.3240   33.7480   37.4690 H   0  0  0  0  0  0  0  0  0  0  0  0
   41.7840   35.2440   39.6470 C   0  0  0  0  0  0  0  0  0  0  0  0
   41.3600   36.1700   40.0780 H   0  0  0  0  0  0  0  0  0  0  0  0
   41.7960   35.3190   38.5510 H   0  0  0  0  0  0  0  0  0  0  0  0
   40.4080   34.1920   41.3620 C   0  0  0  0  0  3  0  0  0  0  0  0
   40.8680   34.1440   40.0560 C   0  0  0  0  0  0  0  0  0  0  0  0
   40.4290   33.0890   39.2840 C   0  0  0  0  0  0  0  0  0  0  0  0
   40.8060   33.0800   38.2700 H   0  0  0  0  0  0  0  0  0  0  0  0
   39.5750   32.1560   39.8330 C   0  0  0  0  0  0  0  0  0  0  0  0
   39.1280   32.2190   41.1340 C   0  0  0  0  0  0  0  0  0  0  0  0
   39.5570   33.2650   41.9150 C   0  0  0  0  0  3  0  0  0  0  0  0
   38.2860   31.1100   41.3340 O   0  0  0  0  0  0  0  0  0  0  0  0
   37.9590   30.5420   40.0890 C   0  0  0  0  0  3  0  0  0  0  0  0
   37.9190   29.4370   40.1190 H   0  0  0  0  0  0  0  0  0  0  0  0
   39.0060   31.0220   39.2640 O   0  0  0  0  0  0  0  0  0  0  0  0
   45.8970   35.1380   42.5160 C   0  0  0  0  0  0  0  0  0  0  0  0
   47.0540   35.6260   42.3470 O   0  0  0  0  0  0  0  0  0  0  0  0
   44.8170   35.6520   44.6520 C   0  0  0  0  0  0  0  0  0  0  0  0
   45.5800   34.7810   43.8500 C   0  0  0  0  0  0  0  0  0  0  0  0
   45.9570   33.6080   44.4870 C   0  0  0  0  0  0  0  0  0  0  0  0
   45.6330   33.3190   45.7450 N   0  0  0  0  0  0  0  0  0  0  0  0
   44.8910   34.2020   46.4710 C   0  0  0  0  0  0  0  0  0  0  0  0
   44.4940   35.3510   45.9220 N   0  0  0  0  0  0  0  0  0  0  0  0
   44.4610   36.6010   44.2680 H   0  0  0  0  0  0  0  0  0  0  0  0
   44.6630   33.9020   47.4910 H   0  0  0  0  0  0  0  0  0  0  0  0
   46.7380   32.6700   43.7450 C   0  0  0  0  0  0  0  0  0  0  0  0
   48.0590   32.4670   43.5170 C   0  0  0  0  0  0  0  0  0  0  0  0
   48.5140   31.4930   42.7660 C   0  0  0  0  0  0  0  0  0  0  0  0
   47.5890   30.6910   42.2230 C   0  0  0  0  0  0  0  0  0  0  0  0
   45.9970   31.3450   42.8030 S   0  0  0  0  0  0  0  0  0  0  0  0
   48.7060   33.2080   44.0300 H   0  0  0  0  0  0  0  0  0  0  0  0
   49.5530   31.2810   42.5490 H   0  0  0  0  0  0  0  0  0  0  0  0
   47.7210   29.7710   41.5320 H   0  0  0  0  0  0  0  0  0  0  0  0
  1 24  1  0  0  0  0
  2  1  2  0  0  0  0
  2  7  1  0  0  0  0
  3  2  1  0  0  0  0
  4  3  1  0  0  0  0
  4  5  2  0  0  0  0
  5  1  1  0  0  0  0
  6  4  1  0  0  0  0
  8  6  1  0  0  0  0
  9  6  1  0  0  0  0
 10 14  1  0  0  0  0
 10 11  1  0  0  0  0
 10  3  1  0  0  0  0
 12 10  1  0  0  0  0
 13 19  1  0  0  0  0
 14 13  2  0  0  0  0
 15 17  2  0  0  0  0
 15 14  1  0  0  0  0
 16 15  1  0  0  0  0
 17 18  1  0  0  0  0
 18 20  1  0  0  0  0
 18 19  2  0  0  0  0
 21 22  1  0  0  0  0
 21 20  1  0  0  0  0
 23 17  1  0  0  0  0
 23 21  1  0  0  0  0
 24 27  1  0  0  0  0
 25 24  2  0  0  0  0
 26 31  1  0  0  0  0
 27 28  1  0  0  0  0
 27 26  2  0  0  0  0
 28 29  2  0  0  0  0
 29 30  1  0  0  0  0
 30 33  1  0  0  0  0
 31 30  2  0  0  0  0
 32 26  1  0  0  0  0
 34 28  1  0  0  0  0
 35 34  2  0  0  0  0
 35 39  1  0  0  0  0
 36 35  1  0  0  0  0
 37 36  2  0  0  0  0
 37 38  1  0  0  0  0
 38 34  1  0  0  0  0
 40 36  1  0  0  0  0
 41 37  1  0  0  0  0
M  END
>  <minimizedAffinity>
-5.87498236

>  <minimizedRMSD>
3.8259635

$$$$
