
 OpenBabel03242522403D

 42 45  0  0  0  0  0  0  0  0999 V2000
   47.3100   32.2970   47.6510 C   0  0  0  0  0  0  0  0  0  0  0  0
   47.0960   31.3420   46.6200 C   0  0  0  0  0  0  0  0  0  0  0  0
   47.6890   30.0900   46.7700 C   0  0  0  0  0  0  0  0  0  0  0  0
   48.4380   29.8560   47.8920 N   0  0  0  0  0  0  0  0  0  0  0  0
   48.6070   30.7790   48.8240 C   0  0  0  0  0  0  0  0  0  0  0  0
   48.0560   31.9850   48.7130 N   0  0  0  0  0  0  0  0  0  0  0  0
   46.8920   33.2840   47.6160 H   0  0  0  0  0  0  0  0  0  0  0  0
   47.5440   29.3450   46.0030 H   0  0  0  0  0  0  0  0  0  0  0  0
   46.2720   31.6970   45.4630 C   0  0  0  0  0  0  0  0  0  0  0  0
   46.2420   30.7790   44.8030 H   0  0  0  0  0  0  0  0  0  0  0  0
   45.2220   31.9150   45.6690 H   0  0  0  0  0  0  0  0  0  0  0  0
   47.0050   32.7710   44.6890 C   0  0  0  0  0  0  0  0  0  0  0  0
   47.9160   33.1320   45.2500 H   0  0  0  0  0  0  0  0  0  0  0  0
   47.4370   32.3560   43.7440 H   0  0  0  0  0  0  0  0  0  0  0  0
   46.4560   34.6410   43.1990 C   0  0  0  0  0  0  0  0  0  0  0  0
   46.2240   33.9650   44.3840 C   0  0  0  0  0  0  0  0  0  0  0  0
   45.2890   34.3650   45.2900 C   0  0  0  0  0  0  0  0  0  0  0  0
   44.5400   35.4900   45.0160 C   0  0  0  0  0  0  0  0  0  0  0  0
   44.7120   36.2110   43.8660 C   0  0  0  0  0  0  0  0  0  0  0  0
   45.6800   35.7490   42.9890 C   0  0  0  0  0  0  0  0  0  0  0  0
   45.0380   33.9160   46.2240 H   0  0  0  0  0  0  0  0  0  0  0  0
   43.7650   35.8870   45.6850 H   0  0  0  0  0  0  0  0  0  0  0  0
   44.1620   37.1070   43.5810 H   0  0  0  0  0  0  0  0  0  0  0  0
   45.8410   36.3010   42.0640 H   0  0  0  0  0  0  0  0  0  0  0  0
   47.6430   34.1650   42.0150 S   0  0  0  0  0  0  0  0  0  0  0  0
   48.9200   34.9690   42.1130 O   0  0  0  0  0  0  0  0  0  0  0  0
   47.1090   34.4960   40.6300 O   0  0  0  0  0  0  0  0  0  0  0  0
   47.9640   32.8520   42.0480 H   0  0  0  0  0  0  0  0  0  0  0  0
   49.4300   30.4180   50.0310 C   0  0  0  0  0  0  0  0  0  0  0  0
   49.6550   29.3310   50.0610 H   0  0  0  0  0  0  0  0  0  0  0  0
   48.8030   30.6770   50.9100 H   0  0  0  0  0  0  0  0  0  0  0  0
   51.6050   31.1760   49.1070 C   0  0  0  0  0  3  0  0  0  0  0  0
   50.6540   31.2490   50.1030 C   0  0  0  0  0  0  0  0  0  0  0  0
   50.7910   32.0910   51.2080 C   0  0  0  0  0  0  0  0  0  0  0  0
   50.0340   32.1180   51.9550 H   0  0  0  0  0  0  0  0  0  0  0  0
   51.9440   32.8490   51.2410 C   0  0  0  0  0  0  0  0  0  0  0  0
   52.9210   32.8100   50.2680 C   0  0  0  0  0  0  0  0  0  0  0  0
   52.7390   31.9580   49.1910 C   0  0  0  0  0  3  0  0  0  0  0  0
   53.9190   33.6930   50.6280 O   0  0  0  0  0  0  0  0  0  0  0  0
   53.6300   34.1770   51.9280 C   0  0  0  0  0  3  0  0  0  0  0  0
   53.6650   35.2920   51.9770 H   0  0  0  0  0  0  0  0  0  0  0  0
   52.3160   33.7580   52.2220 O   0  0  0  0  0  0  0  0  0  0  0  0
  1  6  1  0  0  0  0
  2  3  1  0  0  0  0
  2  1  2  0  0  0  0
  3  4  2  0  0  0  0
  4  5  1  0  0  0  0
  5 29  1  0  0  0  0
  6  5  2  0  0  0  0
  7  1  1  0  0  0  0
  8  3  1  0  0  0  0
  9 11  1  0  0  0  0
  9  2  1  0  0  0  0
 10  9  1  0  0  0  0
 12 13  1  0  0  0  0
 12  9  1  0  0  0  0
 14 12  1  0  0  0  0
 15 16  1  0  0  0  0
 16 12  1  0  0  0  0
 16 17  2  0  0  0  0
 17 21  1  0  0  0  0
 18 17  1  0  0  0  0
 18 22  1  0  0  0  0
 19 18  2  0  0  0  0
 20 15  2  0  0  0  0
 20 19  1  0  0  0  0
 23 19  1  0  0  0  0
 24 20  1  0  0  0  0
 25 28  1  0  0  0  0
 25 26  2  0  0  0  0
 25 15  1  0  0  0  0
 27 25  2  0  0  0  0
 29 30  1  0  0  0  0
 29 33  1  0  0  0  0
 29 31  1  0  0  0  0
 32 38  2  0  0  0  0
 32 33  1  0  0  0  0
 33 34  2  0  0  0  0
 34 36  1  0  0  0  0
 34 35  1  0  0  0  0
 36 42  1  0  0  0  0
 37 39  1  0  0  0  0
 37 36  2  0  0  0  0
 38 37  1  0  0  0  0
 39 40  1  0  0  0  0
 40 41  1  0  0  0  0
 40 42  1  0  0  0  0
M  END
>  <minimizedAffinity>
-6.15249729

>  <minimizedRMSD>
1.23070836

$$$$
