
 OpenBabel03242522403D

 42 45  0  0  0  0  0  0  0  0999 V2000
   47.3220   32.3630   47.6220 C   0  0  0  0  0  0  0  0  0  0  0  0
   47.0500   31.3810   46.6310 C   0  0  0  0  0  0  0  0  0  0  0  0
   47.5890   30.1100   46.8190 C   0  0  0  0  0  0  0  0  0  0  0  0
   48.3430   29.8840   47.9380 N   0  0  0  0  0  0  0  0  0  0  0  0
   48.5670   30.8320   48.8330 C   0  0  0  0  0  0  0  0  0  0  0  0
   48.0690   32.0570   48.6850 N   0  0  0  0  0  0  0  0  0  0  0  0
   46.9480   33.3650   47.5570 H   0  0  0  0  0  0  0  0  0  0  0  0
   47.3980   29.3450   46.0830 H   0  0  0  0  0  0  0  0  0  0  0  0
   46.2240   31.7310   45.4730 C   0  0  0  0  0  0  0  0  0  0  0  0
   46.1370   30.7890   44.8520 H   0  0  0  0  0  0  0  0  0  0  0  0
   45.1910   32.0090   45.6850 H   0  0  0  0  0  0  0  0  0  0  0  0
   46.9970   32.7340   44.6440 C   0  0  0  0  0  0  0  0  0  0  0  0
   47.9200   33.0910   45.1870 H   0  0  0  0  0  0  0  0  0  0  0  0
   47.4130   32.2540   43.7240 H   0  0  0  0  0  0  0  0  0  0  0  0
   46.5730   34.5870   43.0930 C   0  0  0  0  0  0  0  0  0  0  0  0
   46.2600   33.9380   44.2750 C   0  0  0  0  0  0  0  0  0  0  0  0
   45.2840   34.3740   45.1180 C   0  0  0  0  0  0  0  0  0  0  0  0
   44.5760   35.5090   44.7830 C   0  0  0  0  0  0  0  0  0  0  0  0
   44.8290   36.2050   43.6330 C   0  0  0  0  0  0  0  0  0  0  0  0
   45.8340   35.7060   42.8200 C   0  0  0  0  0  0  0  0  0  0  0  0
   44.9710   33.9480   46.0450 H   0  0  0  0  0  0  0  0  0  0  0  0
   43.7740   35.9340   45.4010 H   0  0  0  0  0  0  0  0  0  0  0  0
   44.3160   37.1060   43.3010 H   0  0  0  0  0  0  0  0  0  0  0  0
   46.0600   36.2370   41.8960 H   0  0  0  0  0  0  0  0  0  0  0  0
   47.8140   34.0650   41.9870 S   0  0  0  0  0  0  0  0  0  0  0  0
   49.1760   34.6270   42.3300 O   0  0  0  0  0  0  0  0  0  0  0  0
   47.5160   34.6430   40.6120 O   0  0  0  0  0  0  0  0  0  0  0  0
   47.9260   32.7220   41.8720 H   0  0  0  0  0  0  0  0  0  0  0  0
   49.3920   30.4780   50.0420 C   0  0  0  0  0  0  0  0  0  0  0  0
   49.5350   29.3810   50.1300 H   0  0  0  0  0  0  0  0  0  0  0  0
   48.8100   30.8350   50.9160 H   0  0  0  0  0  0  0  0  0  0  0  0
   50.9380   32.1690   50.9970 C   0  0  0  0  0  3  0  0  0  0  0  0
   50.6770   31.2150   50.0370 C   0  0  0  0  0  0  0  0  0  0  0  0
   51.5910   30.8990   49.0300 C   0  0  0  0  0  0  0  0  0  0  0  0
   51.3520   30.1560   48.3070 H   0  0  0  0  0  0  0  0  0  0  0  0
   52.7760   31.6060   49.0570 C   0  0  0  0  0  0  0  0  0  0  0  0
   53.0800   32.5680   49.9970 C   0  0  0  0  0  0  0  0  0  0  0  0
   52.1400   32.8450   50.9760 C   0  0  0  0  0  3  0  0  0  0  0  0
   54.3390   33.0590   49.7150 O   0  0  0  0  0  0  0  0  0  0  0  0
   54.7630   32.5020   48.4850 C   0  0  0  0  0  3  0  0  0  0  0  0
   55.7810   32.0470   48.5580 H   0  0  0  0  0  0  0  0  0  0  0  0
   53.8410   31.4820   48.1750 O   0  0  0  0  0  0  0  0  0  0  0  0
  1  6  1  0  0  0  0
  2  3  1  0  0  0  0
  2  1  2  0  0  0  0
  3  4  2  0  0  0  0
  4  5  1  0  0  0  0
  5 29  1  0  0  0  0
  6  5  2  0  0  0  0
  7  1  1  0  0  0  0
  8  3  1  0  0  0  0
  9 11  1  0  0  0  0
  9  2  1  0  0  0  0
 10  9  1  0  0  0  0
 12 13  1  0  0  0  0
 12  9  1  0  0  0  0
 14 12  1  0  0  0  0
 15 16  1  0  0  0  0
 16 12  1  0  0  0  0
 16 17  2  0  0  0  0
 17 21  1  0  0  0  0
 18 17  1  0  0  0  0
 18 22  1  0  0  0  0
 19 18  2  0  0  0  0
 20 15  2  0  0  0  0
 20 19  1  0  0  0  0
 23 19  1  0  0  0  0
 24 20  1  0  0  0  0
 25 26  2  0  0  0  0
 25 15  1  0  0  0  0
 27 25  2  0  0  0  0
 28 25  1  0  0  0  0
 29 30  1  0  0  0  0
 29 31  1  0  0  0  0
 33 29  1  0  0  0  0
 33 32  2  0  0  0  0
 34 36  2  0  0  0  0
 34 33  1  0  0  0  0
 35 34  1  0  0  0  0
 36 37  1  0  0  0  0
 37 38  2  0  0  0  0
 38 32  1  0  0  0  0
 39 37  1  0  0  0  0
 40 41  1  0  0  0  0
 40 39  1  0  0  0  0
 42 40  1  0  0  0  0
 42 36  1  0  0  0  0
M  END
>  <minimizedAffinity>
-6.02275229

>  <minimizedRMSD>
1.41611981

$$$$
