
 OpenBabel03242517533D

 40 43  0  0  0  0  0  0  0  0999 V2000
   45.2750   34.2590   43.8380 C   0  0  0  0  0  0  0  0  0  0  0  0
   46.2890   34.8580   43.0580 C   0  0  0  0  0  0  0  0  0  0  0  0
   47.5770   34.3620   43.1140 C   0  0  0  0  0  0  0  0  0  0  0  0
   47.7510   33.3200   43.9360 N   0  0  0  0  0  0  0  0  0  0  0  0
   46.8140   32.7530   44.6690 C   0  0  0  0  0  0  0  0  0  0  0  0
   45.5680   33.2300   44.6160 N   0  0  0  0  0  0  0  0  0  0  0  0
   44.2980   34.7030   43.7400 H   0  0  0  0  0  0  0  0  0  0  0  0
   46.0740   35.6980   42.4170 H   0  0  0  0  0  0  0  0  0  0  0  0
   48.6990   34.9150   42.3420 C   0  0  0  0  0  0  0  0  0  0  0  0
   49.0500   35.8550   42.8120 H   0  0  0  0  0  0  0  0  0  0  0  0
   49.5310   34.2110   42.3500 H   0  0  0  0  0  0  0  0  0  0  0  0
   48.3360   35.1210   40.8840 C   0  0  0  0  0  0  0  0  0  0  0  0
   49.0660   35.7890   40.3930 H   0  0  0  0  0  0  0  0  0  0  0  0
   47.3660   35.6660   40.8900 H   0  0  0  0  0  0  0  0  0  0  0  0
   46.9960   33.7220   39.4360 C   0  0  0  0  0  3  0  0  0  0  0  0
   48.1770   33.8530   40.1560 C   0  0  0  0  0  0  0  0  0  0  0  0
   49.0620   32.7950   40.1120 C   0  0  0  0  0  0  0  0  0  0  0  0
   49.9710   32.9240   40.6810 H   0  0  0  0  0  0  0  0  0  0  0  0
   48.8040   31.6520   39.3920 C   0  0  0  0  0  0  0  0  0  0  0  0
   47.6080   31.5630   38.6840 C   0  0  0  0  0  0  0  0  0  0  0  0
   46.6800   32.6000   38.6940 C   0  0  0  0  0  3  0  0  0  0  0  0
   47.6230   30.3040   38.0570 O   0  0  0  0  0  0  0  0  0  0  0  0
   48.6510   29.5030   38.6100 C   0  0  0  0  0  3  0  0  0  0  0  0
   49.1650   28.8710   37.8600 H   0  0  0  0  0  0  0  0  0  0  0  0
   49.5040   30.4720   39.1840 O   0  0  0  0  0  0  0  0  0  0  0  0
   47.0420   31.6760   45.5050 O   0  0  0  0  0  0  0  0  0  0  0  0
   45.5670   30.3760   47.0240 C   0  0  0  0  0  0  0  0  0  0  0  0
   46.3770   31.4230   46.6940 C   0  0  0  0  0  0  0  0  0  0  0  0
   46.5910   32.3950   47.6630 C   0  0  0  0  0  0  0  0  0  0  0  0
   46.0020   32.3060   48.9220 C   0  0  0  0  0  0  0  0  0  0  0  0
   45.1930   31.2380   49.2170 C   0  0  0  0  0  0  0  0  0  0  0  0
   44.9770   30.2650   48.2520 C   0  0  0  0  0  0  0  0  0  0  0  0
   47.2150   33.2670   47.5110 H   0  0  0  0  0  0  0  0  0  0  0  0
   46.1870   33.0890   49.6730 H   0  0  0  0  0  0  0  0  0  0  0  0
   44.7090   31.1190   50.1810 H   0  0  0  0  0  0  0  0  0  0  0  0
   44.3570   29.3910   48.3920 H   0  0  0  0  0  0  0  0  0  0  0  0
   45.3520   29.2030   45.7500 S   0  0  0  0  0  0  0  0  0  0  0  0
   44.6810   29.8060   44.5450 O   0  0  0  0  0  0  0  0  0  0  0  0
   44.3810   28.1480   46.2650 O   0  0  0  0  0  0  0  0  0  0  0  0
   46.5410   28.6260   45.3570 H   0  0  0  0  0  0  0  0  0  0  0  0
  1  6  1  0  0  0  0
  2  3  1  0  0  0  0
  2  1  2  0  0  0  0
  3  4  2  0  0  0  0
  4  5  1  0  0  0  0
  5 26  1  0  0  0  0
  6  5  2  0  0  0  0
  7  1  1  0  0  0  0
  8  2  1  0  0  0  0
  9 11  1  0  0  0  0
  9 10  1  0  0  0  0
  9  3  1  0  0  0  0
 12 14  1  0  0  0  0
 12  9  1  0  0  0  0
 13 12  1  0  0  0  0
 15 16  1  0  0  0  0
 16 12  1  0  0  0  0
 17 16  2  0  0  0  0
 17 18  1  0  0  0  0
 19 17  1  0  0  0  0
 20 21  1  0  0  0  0
 20 19  2  0  0  0  0
 21 15  2  0  0  0  0
 22 23  1  0  0  0  0
 22 20  1  0  0  0  0
 23 25  1  0  0  0  0
 24 23  1  0  0  0  0
 25 19  1  0  0  0  0
 26 28  1  0  0  0  0
 27 32  1  0  0  0  0
 28 27  2  0  0  0  0
 28 29  1  0  0  0  0
 29 30  2  0  0  0  0
 30 31  1  0  0  0  0
 30 34  1  0  0  0  0
 31 35  1  0  0  0  0
 32 36  1  0  0  0  0
 32 31  2  0  0  0  0
 33 29  1  0  0  0  0
 37 39  2  0  0  0  0
 37 27  1  0  0  0  0
 38 37  2  0  0  0  0
 40 37  1  0  0  0  0
M  END
>  <minimizedAffinity>
-5.4717288

>  <minimizedRMSD>
0.751976311

$$$$
