
 OpenBabel03242517533D

 40 43  0  0  0  0  0  0  0  0999 V2000
   45.2940   34.2680   43.8700 C   0  0  0  0  0  0  0  0  0  0  0  0
   46.3140   34.8440   43.0810 C   0  0  0  0  0  0  0  0  0  0  0  0
   47.5900   34.3150   43.1220 C   0  0  0  0  0  0  0  0  0  0  0  0
   47.7450   33.2660   43.9390 N   0  0  0  0  0  0  0  0  0  0  0  0
   46.8020   32.7200   44.6800 C   0  0  0  0  0  0  0  0  0  0  0  0
   45.5680   33.2290   44.6420 N   0  0  0  0  0  0  0  0  0  0  0  0
   44.3270   34.7380   43.7840 H   0  0  0  0  0  0  0  0  0  0  0  0
   46.1140   35.6920   42.4450 H   0  0  0  0  0  0  0  0  0  0  0  0
   48.7170   34.8420   42.3400 C   0  0  0  0  0  0  0  0  0  0  0  0
   49.1400   35.7320   42.8450 H   0  0  0  0  0  0  0  0  0  0  0  0
   49.5040   34.0900   42.2800 H   0  0  0  0  0  0  0  0  0  0  0  0
   48.3190   35.1470   40.9080 C   0  0  0  0  0  0  0  0  0  0  0  0
   49.0730   35.7950   40.4250 H   0  0  0  0  0  0  0  0  0  0  0  0
   47.3860   35.7500   40.9780 H   0  0  0  0  0  0  0  0  0  0  0  0
   49.0380   32.9500   40.1940 C   0  0  0  0  0  3  0  0  0  0  0  0
   48.0560   33.9320   40.1220 C   0  0  0  0  0  0  0  0  0  0  0  0
   46.9570   33.6650   39.3330 C   0  0  0  0  0  0  0  0  0  0  0  0
   46.2100   34.4430   39.2960 H   0  0  0  0  0  0  0  0  0  0  0  0
   46.8200   32.4840   38.6400 C   0  0  0  0  0  0  0  0  0  0  0  0
   47.8280   31.5300   38.7410 C   0  0  0  0  0  0  0  0  0  0  0  0
   48.9590   31.7480   39.5230 C   0  0  0  0  0  3  0  0  0  0  0  0
   47.4180   30.4490   37.9380 O   0  0  0  0  0  0  0  0  0  0  0  0
   46.3390   30.8460   37.1120 C   0  0  0  0  0  3  0  0  0  0  0  0
   45.5760   30.0550   36.9790 H   0  0  0  0  0  0  0  0  0  0  0  0
   45.8410   31.9760   37.7980 O   0  0  0  0  0  0  0  0  0  0  0  0
   47.0110   31.6350   45.5090 O   0  0  0  0  0  0  0  0  0  0  0  0
   45.5510   30.3550   47.0590 C   0  0  0  0  0  0  0  0  0  0  0  0
   46.3570   31.3970   46.7070 C   0  0  0  0  0  0  0  0  0  0  0  0
   46.5790   32.3840   47.6610 C   0  0  0  0  0  0  0  0  0  0  0  0
   46.0010   32.3120   48.9270 C   0  0  0  0  0  0  0  0  0  0  0  0
   45.1960   31.2470   49.2440 C   0  0  0  0  0  0  0  0  0  0  0  0
   44.9720   30.2610   48.2940 C   0  0  0  0  0  0  0  0  0  0  0  0
   47.2010   33.2540   47.4920 H   0  0  0  0  0  0  0  0  0  0  0  0
   46.1920   33.1050   49.6650 H   0  0  0  0  0  0  0  0  0  0  0  0
   44.7210   31.1410   50.2140 H   0  0  0  0  0  0  0  0  0  0  0  0
   44.3550   29.3880   48.4520 H   0  0  0  0  0  0  0  0  0  0  0  0
   45.3270   29.1640   45.8040 S   0  0  0  0  0  0  0  0  0  0  0  0
   44.6600   29.7530   44.5900 O   0  0  0  0  0  0  0  0  0  0  0  0
   44.3470   28.1250   46.3360 O   0  0  0  0  0  0  0  0  0  0  0  0
   46.5110   28.5710   45.4200 H   0  0  0  0  0  0  0  0  0  0  0  0
  1  6  1  0  0  0  0
  2  3  1  0  0  0  0
  2  1  2  0  0  0  0
  3  4  2  0  0  0  0
  4  5  1  0  0  0  0
  5 26  1  0  0  0  0
  6  5  2  0  0  0  0
  7  1  1  0  0  0  0
  8  2  1  0  0  0  0
  9 10  1  0  0  0  0
  9  3  1  0  0  0  0
 11  9  1  0  0  0  0
 12 14  1  0  0  0  0
 12  9  1  0  0  0  0
 13 12  1  0  0  0  0
 16 15  1  0  0  0  0
 16 12  1  0  0  0  0
 17 16  2  0  0  0  0
 18 17  1  0  0  0  0
 19 20  2  0  0  0  0
 19 17  1  0  0  0  0
 20 21  1  0  0  0  0
 21 15  2  0  0  0  0
 22 20  1  0  0  0  0
 23 25  1  0  0  0  0
 23 22  1  0  0  0  0
 24 23  1  0  0  0  0
 25 19  1  0  0  0  0
 26 28  1  0  0  0  0
 27 32  1  0  0  0  0
 28 27  2  0  0  0  0
 28 29  1  0  0  0  0
 29 30  2  0  0  0  0
 30 31  1  0  0  0  0
 30 34  1  0  0  0  0
 31 35  1  0  0  0  0
 32 36  1  0  0  0  0
 32 31  2  0  0  0  0
 33 29  1  0  0  0  0
 37 39  2  0  0  0  0
 37 27  1  0  0  0  0
 38 37  2  0  0  0  0
 40 37  1  0  0  0  0
M  END
>  <minimizedAffinity>
-5.58274698

>  <minimizedRMSD>
0.715589345

$$$$
