
 OpenBabel03242516233D

 31 34  0  0  0  0  0  0  0  0999 V2000
   38.2960   24.7600   41.9890 C   0  0  0  0  0  0  0  0  0  0  0  0
   37.7280   25.9790   42.2890 C   0  0  0  0  0  0  0  0  0  0  0  0
   38.3160   26.8510   43.1790 C   0  0  0  0  0  0  0  0  0  0  0  0
   39.5070   26.5170   43.8010 C   0  0  0  0  0  0  0  0  0  0  0  0
   40.0930   25.3070   43.5180 C   0  0  0  0  0  0  0  0  0  0  0  0
   39.4850   24.4420   42.6170 C   0  0  0  0  0  0  0  0  0  0  0  0
   36.7930   26.2260   41.7930 H   0  0  0  0  0  0  0  0  0  0  0  0
   39.9350   27.2120   44.4840 H   0  0  0  0  0  0  0  0  0  0  0  0
   41.0300   25.0540   44.0120 H   0  0  0  0  0  0  0  0  0  0  0  0
   39.9820   23.5010   42.4260 H   0  0  0  0  0  0  0  0  0  0  0  0
   35.7820   23.3760   39.7180 C   0  0  0  0  0  0  0  0  0  0  0  0
   36.3800   22.1900   39.2560 C   0  0  0  0  0  0  0  0  0  0  0  0
   37.6620   21.8610   39.7310 C   0  0  0  0  0  0  0  0  0  0  0  0
   38.2660   22.7050   40.6140 N   0  0  0  0  0  0  0  0  0  0  0  0
   37.6580   23.8430   41.0380 C   0  0  0  0  0  0  0  0  0  0  0  0
   36.4250   24.1700   40.5890 N   0  0  0  0  0  0  0  0  0  0  0  0
   34.7970   23.6730   39.3820 H   0  0  0  0  0  0  0  0  0  0  0  0
   35.8430   21.5770   38.5610 H   0  0  0  0  0  0  0  0  0  0  0  0
   38.1420   20.9530   39.3880 H   0  0  0  0  0  0  0  0  0  0  0  0
   37.5310   28.4000   43.5220 S   0  0  0  0  0  0  0  0  0  0  0  0
   39.3330   30.3540   42.5620 C   0  0  0  0  0  3  0  0  0  0  0  0
   38.1070   29.7350   42.5170 C   0  0  0  0  0  0  0  0  0  0  0  0
   37.1740   30.1770   41.5860 C   0  0  0  0  0  0  0  0  0  0  0  0
   36.1840   29.7710   41.4590 H   0  0  0  0  0  0  0  0  0  0  0  0
   37.4760   31.2240   40.7220 C   0  0  0  0  0  0  0  0  0  0  0  0
   38.7260   31.8250   40.7940 C   0  0  0  0  0  0  0  0  0  0  0  0
   39.6590   31.3930   41.7140 C   0  0  0  0  0  3  0  0  0  0  0  0
   38.7460   32.8340   39.8160 O   0  0  0  0  0  0  0  0  0  0  0  0
   37.3850   33.1780   39.5380 C   0  0  0  0  0  3  0  0  0  0  0  0
   36.9500   33.8230   40.3390 H   0  0  0  0  0  0  0  0  0  0  0  0
   36.7800   31.8860   39.7000 O   0  0  0  0  0  0  0  0  0  0  0  0
  1  2  2  0  0  0  0
  1  6  1  0  0  0  0
  2  3  1  0  0  0  0
  3 20  1  0  0  0  0
  3  4  2  0  0  0  0
  4  8  1  0  0  0  0
  5  4  1  0  0  0  0
  5  9  1  0  0  0  0
  6  5  2  0  0  0  0
  7  2  1  0  0  0  0
 10  6  1  0  0  0  0
 11 16  1  0  0  0  0
 12 11  2  0  0  0  0
 12 13  1  0  0  0  0
 13 14  2  0  0  0  0
 14 15  1  0  0  0  0
 15  1  1  0  0  0  0
 16 15  2  0  0  0  0
 17 11  1  0  0  0  0
 18 12  1  0  0  0  0
 19 13  1  0  0  0  0
 22 21  1  0  0  0  0
 22 20  1  0  0  0  0
 23 22  2  0  0  0  0
 24 23  1  0  0  0  0
 25 26  2  0  0  0  0
 25 23  1  0  0  0  0
 26 27  1  0  0  0  0
 27 21  2  0  0  0  0
 28 26  1  0  0  0  0
 29 31  1  0  0  0  0
 29 28  1  0  0  0  0
 29 30  1  0  0  0  0
 31 25  1  0  0  0  0
M  END
>  <minimizedAffinity>
-5.97898102

$$$$

 OpenBabel03242516233D

 31 34  0  0  0  0  0  0  0  0999 V2000
   37.5190   31.0250   40.7790 C   0  0  0  0  0  0  0  0  0  0  0  0
   37.7830   30.0570   41.7230 C   0  0  0  0  0  0  0  0  0  0  0  0
   36.9590   28.9670   41.8900 C   0  0  0  0  0  0  0  0  0  0  0  0
   35.8310   28.8170   41.1020 C   0  0  0  0  0  0  0  0  0  0  0  0
   35.5460   29.7680   40.1530 C   0  0  0  0  0  0  0  0  0  0  0  0
   36.3900   30.8610   39.9990 C   0  0  0  0  0  0  0  0  0  0  0  0
   38.6720   30.1900   42.3340 H   0  0  0  0  0  0  0  0  0  0  0  0
   35.2140   27.9630   41.2560 H   0  0  0  0  0  0  0  0  0  0  0  0
   34.6560   29.6410   39.5380 H   0  0  0  0  0  0  0  0  0  0  0  0
   36.1260   31.5850   39.2400 H   0  0  0  0  0  0  0  0  0  0  0  0
   38.5850   34.4680   40.1460 C   0  0  0  0  0  0  0  0  0  0  0  0
   39.9830   34.4050   40.2810 C   0  0  0  0  0  0  0  0  0  0  0  0
   40.5680   33.1650   40.5930 C   0  0  0  0  0  0  0  0  0  0  0  0
   39.7540   32.0830   40.7500 N   0  0  0  0  0  0  0  0  0  0  0  0
   38.4070   32.1810   40.6120 C   0  0  0  0  0  0  0  0  0  0  0  0
   37.8330   33.3690   40.3120 N   0  0  0  0  0  0  0  0  0  0  0  0
   38.0880   35.4000   39.9070 H   0  0  0  0  0  0  0  0  0  0  0  0
   40.5570   35.2990   40.1430 H   0  0  0  0  0  0  0  0  0  0  0  0
   41.6420   33.0930   40.7020 H   0  0  0  0  0  0  0  0  0  0  0  0
   37.3550   27.7610   43.1240 S   0  0  0  0  0  0  0  0  0  0  0  0
   39.1490   25.6450   42.5890 C   0  0  0  0  0  3  0  0  0  0  0  0
   37.9050   26.2160   42.4680 C   0  0  0  0  0  0  0  0  0  0  0  0
   36.9290   25.5320   41.7520 C   0  0  0  0  0  0  0  0  0  0  0  0
   35.9210   25.8790   41.5900 H   0  0  0  0  0  0  0  0  0  0  0  0
   37.2070   24.3000   41.1710 C   0  0  0  0  0  0  0  0  0  0  0  0
   38.4760   23.7530   41.3150 C   0  0  0  0  0  0  0  0  0  0  0  0
   39.4520   24.4220   42.0230 C   0  0  0  0  0  3  0  0  0  0  0  0
   38.4640   22.5230   40.6340 O   0  0  0  0  0  0  0  0  0  0  0  0
   37.4050   22.5830   39.6740 C   0  0  0  0  0  3  0  0  0  0  0  0
   37.6910   23.1900   38.7810 H   0  0  0  0  0  0  0  0  0  0  0  0
   36.4680   23.3830   40.4100 O   0  0  0  0  0  0  0  0  0  0  0  0
  1  2  1  0  0  0  0
  2  3  2  0  0  0  0
  2  7  1  0  0  0  0
  3 20  1  0  0  0  0
  4  8  1  0  0  0  0
  4  3  1  0  0  0  0
  5  4  2  0  0  0  0
  6  5  1  0  0  0  0
  6  1  2  0  0  0  0
  9  5  1  0  0  0  0
 10  6  1  0  0  0  0
 11 12  2  0  0  0  0
 11 16  1  0  0  0  0
 12 13  1  0  0  0  0
 13 19  1  0  0  0  0
 13 14  2  0  0  0  0
 15 14  1  0  0  0  0
 15  1  1  0  0  0  0
 16 15  2  0  0  0  0
 17 11  1  0  0  0  0
 18 12  1  0  0  0  0
 22 21  1  0  0  0  0
 22 20  1  0  0  0  0
 23 22  2  0  0  0  0
 24 23  1  0  0  0  0
 25 26  2  0  0  0  0
 25 23  1  0  0  0  0
 26 27  1  0  0  0  0
 27 21  2  0  0  0  0
 28 26  1  0  0  0  0
 29 31  1  0  0  0  0
 29 28  1  0  0  0  0
 30 29  1  0  0  0  0
 31 25  1  0  0  0  0
M  END
>  <minimizedAffinity>
-5.86288595

$$$$

 OpenBabel03242516233D

 31 34  0  0  0  0  0  0  0  0999 V2000
   38.0800   31.5570   38.7530 C   0  0  0  0  0  0  0  0  0  0  0  0
   37.5160   30.8250   39.7750 C   0  0  0  0  0  0  0  0  0  0  0  0
   36.5600   29.8630   39.5320 C   0  0  0  0  0  0  0  0  0  0  0  0
   36.1390   29.6070   38.2390 C   0  0  0  0  0  0  0  0  0  0  0  0
   36.6870   30.3240   37.2030 C   0  0  0  0  0  0  0  0  0  0  0  0
   37.6500   31.2900   37.4680 C   0  0  0  0  0  0  0  0  0  0  0  0
   37.8570   31.0380   40.7850 H   0  0  0  0  0  0  0  0  0  0  0  0
   35.3990   28.8570   38.0850 H   0  0  0  0  0  0  0  0  0  0  0  0
   36.3490   30.1150   36.1890 H   0  0  0  0  0  0  0  0  0  0  0  0
   38.0520   31.8290   36.6210 H   0  0  0  0  0  0  0  0  0  0  0  0
   39.6570   34.5260   40.1990 C   0  0  0  0  0  0  0  0  0  0  0  0
   40.9330   34.5360   39.6080 C   0  0  0  0  0  0  0  0  0  0  0  0
   41.2560   33.5110   38.7010 C   0  0  0  0  0  0  0  0  0  0  0  0
   40.3190   32.5560   38.4370 N   0  0  0  0  0  0  0  0  0  0  0  0
   39.0970   32.5780   39.0280 C   0  0  0  0  0  0  0  0  0  0  0  0
   38.7750   33.5580   39.9020 N   0  0  0  0  0  0  0  0  0  0  0  0
   39.3620   35.2930   40.9040 H   0  0  0  0  0  0  0  0  0  0  0  0
   41.6150   35.3200   39.8650 H   0  0  0  0  0  0  0  0  0  0  0  0
   42.2320   33.4990   38.2340 H   0  0  0  0  0  0  0  0  0  0  0  0
   35.8740   28.9600   40.8920 S   0  0  0  0  0  0  0  0  0  0  0  0
   37.9100   28.6040   42.8190 C   0  0  0  0  0  3  0  0  0  0  0  0
   37.0740   28.0930   41.8560 C   0  0  0  0  0  0  0  0  0  0  0  0
   37.1450   26.7330   41.5720 C   0  0  0  0  0  0  0  0  0  0  0  0
   36.5430   26.2210   40.8390 H   0  0  0  0  0  0  0  0  0  0  0  0
   38.0420   25.9130   42.2450 C   0  0  0  0  0  0  0  0  0  0  0  0
   38.8710   26.4650   43.2140 C   0  0  0  0  0  0  0  0  0  0  0  0
   38.8090   27.8120   43.5050 C   0  0  0  0  0  3  0  0  0  0  0  0
   39.6580   25.4150   43.7180 O   0  0  0  0  0  0  0  0  0  0  0  0
   39.6790   24.3880   42.7210 C   0  0  0  0  0  3  0  0  0  0  0  0
   40.3720   24.6400   41.8830 H   0  0  0  0  0  0  0  0  0  0  0  0
   38.3520   24.5460   42.1960 O   0  0  0  0  0  0  0  0  0  0  0  0
  1 15  1  0  0  0  0
  1  2  1  0  0  0  0
  2  7  1  0  0  0  0
  3  2  2  0  0  0  0
  3 20  1  0  0  0  0
  4  3  1  0  0  0  0
  5  6  1  0  0  0  0
  5  4  2  0  0  0  0
  6  1  2  0  0  0  0
  8  4  1  0  0  0  0
  9  5  1  0  0  0  0
 10  6  1  0  0  0  0
 11 17  1  0  0  0  0
 12 18  1  0  0  0  0
 12 11  2  0  0  0  0
 13 12  1  0  0  0  0
 14 13  2  0  0  0  0
 14 15  1  0  0  0  0
 15 16  2  0  0  0  0
 16 11  1  0  0  0  0
 19 13  1  0  0  0  0
 20 22  1  0  0  0  0
 21 27  1  0  0  0  0
 22 21  2  0  0  0  0
 23 22  1  0  0  0  0
 23 25  2  0  0  0  0
 24 23  1  0  0  0  0
 25 26  1  0  0  0  0
 26 27  2  0  0  0  0
 26 28  1  0  0  0  0
 29 28  1  0  0  0  0
 30 29  1  0  0  0  0
 31 25  1  0  0  0  0
 31 29  1  0  0  0  0
M  END
>  <minimizedAffinity>
-5.84313345

$$$$

 OpenBabel03242516233D

 31 34  0  0  0  0  0  0  0  0999 V2000
   38.3170   24.8350   42.0300 C   0  0  0  0  0  0  0  0  0  0  0  0
   37.7180   26.0340   42.3500 C   0  0  0  0  0  0  0  0  0  0  0  0
   38.2950   26.9150   43.2380 C   0  0  0  0  0  0  0  0  0  0  0  0
   39.5050   26.6120   43.8370 C   0  0  0  0  0  0  0  0  0  0  0  0
   40.1220   25.4220   43.5340 C   0  0  0  0  0  0  0  0  0  0  0  0
   39.5240   24.5460   42.6360 C   0  0  0  0  0  0  0  0  0  0  0  0
   36.7680   26.2560   41.8710 H   0  0  0  0  0  0  0  0  0  0  0  0
   39.9240   27.3140   44.5190 H   0  0  0  0  0  0  0  0  0  0  0  0
   41.0730   25.1930   44.0110 H   0  0  0  0  0  0  0  0  0  0  0  0
   40.0460   23.6220   42.4290 H   0  0  0  0  0  0  0  0  0  0  0  0
   35.8150   23.4050   39.7740 C   0  0  0  0  0  0  0  0  0  0  0  0
   36.4320   22.2320   39.3060 C   0  0  0  0  0  0  0  0  0  0  0  0
   37.7240   21.9270   39.7710 C   0  0  0  0  0  0  0  0  0  0  0  0
   38.3170   22.7810   40.6520 N   0  0  0  0  0  0  0  0  0  0  0  0
   37.6900   23.9060   41.0820 C   0  0  0  0  0  0  0  0  0  0  0  0
   36.4480   24.2110   40.6420 N   0  0  0  0  0  0  0  0  0  0  0  0
   34.8210   23.6830   39.4440 H   0  0  0  0  0  0  0  0  0  0  0  0
   35.9030   21.6100   38.6140 H   0  0  0  0  0  0  0  0  0  0  0  0
   38.2190   21.0290   39.4250 H   0  0  0  0  0  0  0  0  0  0  0  0
   37.4700   28.4380   43.6060 S   0  0  0  0  0  0  0  0  0  0  0  0
   36.7310   30.1420   41.4770 C   0  0  0  0  0  3  0  0  0  0  0  0
   37.6710   29.6810   42.3670 C   0  0  0  0  0  0  0  0  0  0  0  0
   38.9480   30.2280   42.3250 C   0  0  0  0  0  0  0  0  0  0  0  0
   39.7650   29.9470   42.9690 H   0  0  0  0  0  0  0  0  0  0  0  0
   39.2660   31.2190   41.4020 C   0  0  0  0  0  0  0  0  0  0  0  0
   38.2900   31.6620   40.5180 C   0  0  0  0  0  0  0  0  0  0  0  0
   37.0190   31.1260   40.5520 C   0  0  0  0  0  3  0  0  0  0  0  0
   38.8890   32.6500   39.7180 O   0  0  0  0  0  0  0  0  0  0  0  0
   40.3010   32.4260   39.7590 C   0  0  0  0  0  3  0  0  0  0  0  0
   40.6040   31.5700   39.1070 H   0  0  0  0  0  0  0  0  0  0  0  0
   40.4240   31.9540   41.1090 O   0  0  0  0  0  0  0  0  0  0  0  0
  1  2  2  0  0  0  0
  1  6  1  0  0  0  0
  2  3  1  0  0  0  0
  3 20  1  0  0  0  0
  3  4  2  0  0  0  0
  4  8  1  0  0  0  0
  5  4  1  0  0  0  0
  5  9  1  0  0  0  0
  6  5  2  0  0  0  0
  7  2  1  0  0  0  0
 10  6  1  0  0  0  0
 11 16  1  0  0  0  0
 12 13  1  0  0  0  0
 12 11  2  0  0  0  0
 13 14  2  0  0  0  0
 14 15  1  0  0  0  0
 15  1  1  0  0  0  0
 16 15  2  0  0  0  0
 17 11  1  0  0  0  0
 18 12  1  0  0  0  0
 19 13  1  0  0  0  0
 21 22  1  0  0  0  0
 22 20  1  0  0  0  0
 23 22  2  0  0  0  0
 23 24  1  0  0  0  0
 25 23  1  0  0  0  0
 26 27  1  0  0  0  0
 26 25  2  0  0  0  0
 27 21  2  0  0  0  0
 28 29  1  0  0  0  0
 28 26  1  0  0  0  0
 29 31  1  0  0  0  0
 30 29  1  0  0  0  0
 31 25  1  0  0  0  0
M  END
>  <minimizedAffinity>
-5.8378644

$$$$

 OpenBabel03242516233D

 31 34  0  0  0  0  0  0  0  0999 V2000
   37.2000   26.7390   41.5880 C   0  0  0  0  0  0  0  0  0  0  0  0
   36.7900   27.9400   41.0520 C   0  0  0  0  0  0  0  0  0  0  0  0
   36.9360   29.1250   41.7390 C   0  0  0  0  0  0  0  0  0  0  0  0
   37.5060   29.1360   43.0010 C   0  0  0  0  0  0  0  0  0  0  0  0
   37.9230   27.9510   43.5570 C   0  0  0  0  0  0  0  0  0  0  0  0
   37.7670   26.7660   42.8480 C   0  0  0  0  0  0  0  0  0  0  0  0
   36.3450   27.9140   40.0620 H   0  0  0  0  0  0  0  0  0  0  0  0
   37.6040   30.0680   43.5050 H   0  0  0  0  0  0  0  0  0  0  0  0
   38.3690   27.9700   44.5490 H   0  0  0  0  0  0  0  0  0  0  0  0
   38.1090   25.8580   43.3250 H   0  0  0  0  0  0  0  0  0  0  0  0
   37.4760   23.1870   40.7520 C   0  0  0  0  0  0  0  0  0  0  0  0
   36.7900   23.0870   39.5290 C   0  0  0  0  0  0  0  0  0  0  0  0
   36.2260   24.2540   38.9830 C   0  0  0  0  0  0  0  0  0  0  0  0
   36.3690   25.4260   39.6650 N   0  0  0  0  0  0  0  0  0  0  0  0
   37.0380   25.4850   40.8440 C   0  0  0  0  0  0  0  0  0  0  0  0
   37.5850   24.3690   41.3790 N   0  0  0  0  0  0  0  0  0  0  0  0
   37.9270   22.3170   41.2120 H   0  0  0  0  0  0  0  0  0  0  0  0
   36.7190   22.1310   39.0520 H   0  0  0  0  0  0  0  0  0  0  0  0
   35.6940   24.2010   38.0430 H   0  0  0  0  0  0  0  0  0  0  0  0
   36.3850   30.6330   40.9930 S   0  0  0  0  0  0  0  0  0  0  0  0
   37.9190   32.9450   40.4540 C   0  0  0  0  0  3  0  0  0  0  0  0
   37.6840   31.6010   40.2870 C   0  0  0  0  0  0  0  0  0  0  0  0
   38.5450   30.8740   39.4720 C   0  0  0  0  0  0  0  0  0  0  0  0
   38.4600   29.8190   39.2660 H   0  0  0  0  0  0  0  0  0  0  0  0
   39.6170   31.4940   38.8410 C   0  0  0  0  0  0  0  0  0  0  0  0
   39.8250   32.8540   39.0340 C   0  0  0  0  0  0  0  0  0  0  0  0
   38.9770   33.5850   39.8410 C   0  0  0  0  0  3  0  0  0  0  0  0
   40.9640   33.1980   38.2860 O   0  0  0  0  0  0  0  0  0  0  0  0
   41.1120   32.2070   37.2650 C   0  0  0  0  0  3  0  0  0  0  0  0
   40.3900   32.3640   36.4280 H   0  0  0  0  0  0  0  0  0  0  0  0
   40.6380   31.0590   37.9840 O   0  0  0  0  0  0  0  0  0  0  0  0
  1  6  1  0  0  0  0
  2  1  2  0  0  0  0
  2  3  1  0  0  0  0
  3  4  2  0  0  0  0
  4  8  1  0  0  0  0
  4  5  1  0  0  0  0
  5  9  1  0  0  0  0
  6 10  1  0  0  0  0
  6  5  2  0  0  0  0
  7  2  1  0  0  0  0
 11 17  1  0  0  0  0
 11 16  1  0  0  0  0
 12 11  2  0  0  0  0
 13 12  1  0  0  0  0
 13 14  2  0  0  0  0
 14 15  1  0  0  0  0
 15 16  2  0  0  0  0
 15  1  1  0  0  0  0
 18 12  1  0  0  0  0
 19 13  1  0  0  0  0
 20  3  1  0  0  0  0
 22 21  1  0  0  0  0
 22 20  1  0  0  0  0
 23 22  2  0  0  0  0
 24 23  1  0  0  0  0
 25 26  2  0  0  0  0
 25 23  1  0  0  0  0
 26 27  1  0  0  0  0
 27 21  2  0  0  0  0
 28 26  1  0  0  0  0
 29 31  1  0  0  0  0
 29 28  1  0  0  0  0
 30 29  1  0  0  0  0
 31 25  1  0  0  0  0
M  END
>  <minimizedAffinity>
-5.62070417

$$$$

 OpenBabel03242516233D

 31 34  0  0  0  0  0  0  0  0999 V2000
   37.3600   31.3180   39.0570 C   0  0  0  0  0  0  0  0  0  0  0  0
   38.0680   30.8160   40.1270 C   0  0  0  0  0  0  0  0  0  0  0  0
   38.7180   31.6450   41.0150 C   0  0  0  0  0  0  0  0  0  0  0  0
   38.6730   33.0180   40.8500 C   0  0  0  0  0  0  0  0  0  0  0  0
   37.9730   33.5430   39.7900 C   0  0  0  0  0  0  0  0  0  0  0  0
   37.3240   32.6900   38.9050 C   0  0  0  0  0  0  0  0  0  0  0  0
   38.0930   29.7360   40.2420 H   0  0  0  0  0  0  0  0  0  0  0  0
   39.1870   33.6310   41.5530 H   0  0  0  0  0  0  0  0  0  0  0  0
   37.9450   34.6240   39.6690 H   0  0  0  0  0  0  0  0  0  0  0  0
   36.7860   33.1480   38.0860 H   0  0  0  0  0  0  0  0  0  0  0  0
   34.9930   28.8210   37.8080 C   0  0  0  0  0  0  0  0  0  0  0  0
   35.3230   28.7150   36.4450 C   0  0  0  0  0  0  0  0  0  0  0  0
   36.3710   29.5100   35.9480 C   0  0  0  0  0  0  0  0  0  0  0  0
   37.0180   30.3460   36.8090 N   0  0  0  0  0  0  0  0  0  0  0  0
   36.6720   30.4220   38.1190 C   0  0  0  0  0  0  0  0  0  0  0  0
   35.6660   29.6630   38.6090 N   0  0  0  0  0  0  0  0  0  0  0  0
   34.1940   28.2300   38.2370 H   0  0  0  0  0  0  0  0  0  0  0  0
   34.7680   28.0350   35.8310 H   0  0  0  0  0  0  0  0  0  0  0  0
   36.6410   29.4450   34.9020 H   0  0  0  0  0  0  0  0  0  0  0  0
   39.6130   30.9340   42.3670 S   0  0  0  0  0  0  0  0  0  0  0  0
   38.0710   28.7590   43.3030 C   0  0  0  0  0  3  0  0  0  0  0  0
   39.2010   29.2470   42.6930 C   0  0  0  0  0  0  0  0  0  0  0  0
   40.1660   28.3430   42.2640 C   0  0  0  0  0  0  0  0  0  0  0  0
   41.0900   28.6070   41.7750 H   0  0  0  0  0  0  0  0  0  0  0  0
   39.9910   26.9760   42.4490 C   0  0  0  0  0  0  0  0  0  0  0  0
   38.8350   26.5180   43.0690 C   0  0  0  0  0  0  0  0  0  0  0  0
   37.8710   27.4070   43.4990 C   0  0  0  0  0  3  0  0  0  0  0  0
   38.9310   25.1170   43.1180 O   0  0  0  0  0  0  0  0  0  0  0  0
   40.3200   24.7870   43.0200 C   0  0  0  0  0  3  0  0  0  0  0  0
   40.8540   24.9580   43.9860 H   0  0  0  0  0  0  0  0  0  0  0  0
   40.7480   25.8370   42.1410 O   0  0  0  0  0  0  0  0  0  0  0  0
  1  2  1  0  0  0  0
  2  7  1  0  0  0  0
  2  3  2  0  0  0  0
  3 20  1  0  0  0  0
  4  3  1  0  0  0  0
  4  8  1  0  0  0  0
  5  4  2  0  0  0  0
  6  1  2  0  0  0  0
  6  5  1  0  0  0  0
  9  5  1  0  0  0  0
 10  6  1  0  0  0  0
 11 17  1  0  0  0  0
 11 16  1  0  0  0  0
 12 11  2  0  0  0  0
 13 12  1  0  0  0  0
 13 14  2  0  0  0  0
 14 15  1  0  0  0  0
 15 16  2  0  0  0  0
 15  1  1  0  0  0  0
 18 12  1  0  0  0  0
 19 13  1  0  0  0  0
 20 22  1  0  0  0  0
 21 27  1  0  0  0  0
 22 21  2  0  0  0  0
 23 25  2  0  0  0  0
 23 22  1  0  0  0  0
 24 23  1  0  0  0  0
 25 26  1  0  0  0  0
 26 28  1  0  0  0  0
 26 27  2  0  0  0  0
 29 28  1  0  0  0  0
 29 30  1  0  0  0  0
 31 25  1  0  0  0  0
 31 29  1  0  0  0  0
M  END
>  <minimizedAffinity>
-5.54100943

$$$$

 OpenBabel03242516233D

 31 34  0  0  0  0  0  0  0  0999 V2000
   36.7880   30.2560   37.4580 C   0  0  0  0  0  0  0  0  0  0  0  0
   36.4620   29.8890   38.7450 C   0  0  0  0  0  0  0  0  0  0  0  0
   36.8290   30.6540   39.8300 C   0  0  0  0  0  0  0  0  0  0  0  0
   37.5430   31.8260   39.6490 C   0  0  0  0  0  0  0  0  0  0  0  0
   37.8800   32.2140   38.3740 C   0  0  0  0  0  0  0  0  0  0  0  0
   37.5010   31.4280   37.2930 C   0  0  0  0  0  0  0  0  0  0  0  0
   35.9010   28.9660   38.8700 H   0  0  0  0  0  0  0  0  0  0  0  0
   37.8120   32.3950   40.5080 H   0  0  0  0  0  0  0  0  0  0  0  0
   38.4420   33.1370   38.2420 H   0  0  0  0  0  0  0  0  0  0  0  0
   37.7880   31.7730   36.3090 H   0  0  0  0  0  0  0  0  0  0  0  0
   36.0980   29.3010   33.9930 C   0  0  0  0  0  0  0  0  0  0  0  0
   35.6650   27.9680   34.1040 C   0  0  0  0  0  0  0  0  0  0  0  0
   35.6090   27.3890   35.3850 C   0  0  0  0  0  0  0  0  0  0  0  0
   35.9760   28.1460   36.4570 N   0  0  0  0  0  0  0  0  0  0  0  0
   36.3900   29.4300   36.3120 C   0  0  0  0  0  0  0  0  0  0  0  0
   36.4480   29.9980   35.0860 N   0  0  0  0  0  0  0  0  0  0  0  0
   36.1590   29.7900   33.0290 H   0  0  0  0  0  0  0  0  0  0  0  0
   35.3930   27.4370   33.2150 H   0  0  0  0  0  0  0  0  0  0  0  0
   35.2790   26.3640   35.4940 H   0  0  0  0  0  0  0  0  0  0  0  0
   36.3800   30.1230   41.4580 S   0  0  0  0  0  0  0  0  0  0  0  0
   38.6090   29.0020   42.7850 C   0  0  0  0  0  3  0  0  0  0  0  0
   37.4200   28.8530   42.1110 C   0  0  0  0  0  0  0  0  0  0  0  0
   36.9380   27.5670   41.8930 C   0  0  0  0  0  0  0  0  0  0  0  0
   36.0220   27.3270   41.3780 H   0  0  0  0  0  0  0  0  0  0  0  0
   37.6450   26.4580   42.3460 C   0  0  0  0  0  0  0  0  0  0  0  0
   38.8420   26.6470   43.0240 C   0  0  0  0  0  0  0  0  0  0  0  0
   39.3290   27.9180   43.2460 C   0  0  0  0  0  3  0  0  0  0  0  0
   39.3240   25.3690   43.3560 O   0  0  0  0  0  0  0  0  0  0  0  0
   38.7190   24.4420   42.4490 C   0  0  0  0  0  3  0  0  0  0  0  0
   39.2030   24.4740   41.4420 H   0  0  0  0  0  0  0  0  0  0  0  0
   37.4390   25.0720   42.2900 O   0  0  0  0  0  0  0  0  0  0  0  0
  1  2  1  0  0  0  0
  2  7  1  0  0  0  0
  2  3  2  0  0  0  0
  3 20  1  0  0  0  0
  4  3  1  0  0  0  0
  4  8  1  0  0  0  0
  5  4  2  0  0  0  0
  6  1  2  0  0  0  0
  6  5  1  0  0  0  0
  9  5  1  0  0  0  0
 10  6  1  0  0  0  0
 11 12  2  0  0  0  0
 11 16  1  0  0  0  0
 12 13  1  0  0  0  0
 13 19  1  0  0  0  0
 13 14  2  0  0  0  0
 15 14  1  0  0  0  0
 15  1  1  0  0  0  0
 16 15  2  0  0  0  0
 17 11  1  0  0  0  0
 18 12  1  0  0  0  0
 20 22  1  0  0  0  0
 21 27  1  0  0  0  0
 22 21  2  0  0  0  0
 23 22  1  0  0  0  0
 23 25  2  0  0  0  0
 24 23  1  0  0  0  0
 25 26  1  0  0  0  0
 26 27  2  0  0  0  0
 26 28  1  0  0  0  0
 29 28  1  0  0  0  0
 30 29  1  0  0  0  0
 31 25  1  0  0  0  0
 31 29  1  0  0  0  0
M  END
>  <minimizedAffinity>
-5.39356995

$$$$

 OpenBabel03242516233D

 31 34  0  0  0  0  0  0  0  0999 V2000
   37.1880   25.6690   40.5080 C   0  0  0  0  0  0  0  0  0  0  0  0
   36.6500   26.6990   39.7680 C   0  0  0  0  0  0  0  0  0  0  0  0
   35.8530   26.4610   38.6710 C   0  0  0  0  0  0  0  0  0  0  0  0
   35.5700   25.1630   38.2820 C   0  0  0  0  0  0  0  0  0  0  0  0
   36.0930   24.1180   39.0040 C   0  0  0  0  0  0  0  0  0  0  0  0
   36.8960   24.3790   40.1080 C   0  0  0  0  0  0  0  0  0  0  0  0
   36.8830   27.7120   40.0860 H   0  0  0  0  0  0  0  0  0  0  0  0
   34.9500   25.0120   37.4290 H   0  0  0  0  0  0  0  0  0  0  0  0
   35.8650   23.1010   38.6900 H   0  0  0  0  0  0  0  0  0  0  0  0
   37.2860   23.5260   40.6460 H   0  0  0  0  0  0  0  0  0  0  0  0
   39.7190   25.1570   43.1010 C   0  0  0  0  0  0  0  0  0  0  0  0
   39.6670   26.3480   43.8460 C   0  0  0  0  0  0  0  0  0  0  0  0
   38.7500   27.3400   43.4540 C   0  0  0  0  0  0  0  0  0  0  0  0
   37.9570   27.1020   42.3710 N   0  0  0  0  0  0  0  0  0  0  0  0
   38.0350   25.9390   41.6750 C   0  0  0  0  0  0  0  0  0  0  0  0
   38.9130   24.9770   42.0430 N   0  0  0  0  0  0  0  0  0  0  0  0
   40.4090   24.3640   43.3630 H   0  0  0  0  0  0  0  0  0  0  0  0
   40.3220   26.4630   44.6850 H   0  0  0  0  0  0  0  0  0  0  0  0
   38.6920   28.2650   44.0120 H   0  0  0  0  0  0  0  0  0  0  0  0
   35.1970   27.8310   37.7620 S   0  0  0  0  0  0  0  0  0  0  0  0
   36.9180   29.9290   36.9760 C   0  0  0  0  0  3  0  0  0  0  0  0
   36.1370   29.3180   37.9260 C   0  0  0  0  0  0  0  0  0  0  0  0
   36.0440   29.9020   39.1840 C   0  0  0  0  0  0  0  0  0  0  0  0
   35.4650   29.5150   40.0070 H   0  0  0  0  0  0  0  0  0  0  0  0
   36.7280   31.0780   39.4730 C   0  0  0  0  0  0  0  0  0  0  0  0
   37.5080   31.6690   38.4870 C   0  0  0  0  0  0  0  0  0  0  0  0
   37.6060   31.0980   37.2350 C   0  0  0  0  0  3  0  0  0  0  0  0
   38.0700   32.8250   39.0550 O   0  0  0  0  0  0  0  0  0  0  0  0
   38.0600   32.6440   40.4750 C   0  0  0  0  0  3  0  0  0  0  0  0
   38.8770   31.9590   40.8090 H   0  0  0  0  0  0  0  0  0  0  0  0
   36.8420   31.8960   40.6060 O   0  0  0  0  0  0  0  0  0  0  0  0
  1 15  1  0  0  0  0
  2  7  1  0  0  0  0
  2  1  2  0  0  0  0
  3  2  1  0  0  0  0
  4  3  2  0  0  0  0
  4  5  1  0  0  0  0
  5  6  2  0  0  0  0
  6  1  1  0  0  0  0
  6 10  1  0  0  0  0
  8  4  1  0  0  0  0
  9  5  1  0  0  0  0
 11 17  1  0  0  0  0
 11 12  1  0  0  0  0
 12 18  1  0  0  0  0
 13 12  2  0  0  0  0
 13 19  1  0  0  0  0
 14 13  1  0  0  0  0
 15 16  1  0  0  0  0
 15 14  2  0  0  0  0
 16 11  2  0  0  0  0
 20 22  1  0  0  0  0
 20  3  1  0  0  0  0
 21 27  2  0  0  0  0
 21 22  1  0  0  0  0
 22 23  2  0  0  0  0
 23 25  1  0  0  0  0
 23 24  1  0  0  0  0
 25 31  1  0  0  0  0
 26 28  1  0  0  0  0
 26 25  2  0  0  0  0
 27 26  1  0  0  0  0
 28 29  1  0  0  0  0
 29 31  1  0  0  0  0
 29 30  1  0  0  0  0
M  END
>  <minimizedAffinity>
-5.38003492

$$$$

 OpenBabel03242516233D

 31 34  0  0  0  0  0  0  0  0999 V2000
   37.3860   26.4380   41.7130 C   0  0  0  0  0  0  0  0  0  0  0  0
   36.8530   27.5420   41.0850 C   0  0  0  0  0  0  0  0  0  0  0  0
   36.8800   28.7890   41.6690 C   0  0  0  0  0  0  0  0  0  0  0  0
   37.4510   28.9630   42.9180 C   0  0  0  0  0  0  0  0  0  0  0  0
   37.9890   27.8770   43.5650 C   0  0  0  0  0  0  0  0  0  0  0  0
   37.9520   26.6270   42.9590 C   0  0  0  0  0  0  0  0  0  0  0  0
   36.4080   27.3880   40.1050 H   0  0  0  0  0  0  0  0  0  0  0  0
   37.4550   29.9390   43.3420 H   0  0  0  0  0  0  0  0  0  0  0  0
   38.4360   28.0240   44.5470 H   0  0  0  0  0  0  0  0  0  0  0  0
   38.3880   25.8020   43.5050 H   0  0  0  0  0  0  0  0  0  0  0  0
   36.3260   23.7240   39.4980 C   0  0  0  0  0  0  0  0  0  0  0  0
   37.2020   22.6750   39.8280 C   0  0  0  0  0  0  0  0  0  0  0  0
   38.1690   22.9010   40.8240 C   0  0  0  0  0  0  0  0  0  0  0  0
   38.2130   24.1250   41.4220 N   0  0  0  0  0  0  0  0  0  0  0  0
   37.3500   25.1150   41.0780 C   0  0  0  0  0  0  0  0  0  0  0  0
   36.4160   24.9100   40.1210 N   0  0  0  0  0  0  0  0  0  0  0  0
   35.5650   23.5980   38.7380 H   0  0  0  0  0  0  0  0  0  0  0  0
   37.1060   21.7400   39.3140 H   0  0  0  0  0  0  0  0  0  0  0  0
   38.8540   22.1080   41.0940 H   0  0  0  0  0  0  0  0  0  0  0  0
   36.1740   30.1650   40.8080 S   0  0  0  0  0  0  0  0  0  0  0  0
   37.2510   30.6060   38.2330 C   0  0  0  0  0  3  0  0  0  0  0  0
   36.2960   30.0500   39.0490 C   0  0  0  0  0  0  0  0  0  0  0  0
   35.2820   29.2980   38.4660 C   0  0  0  0  0  0  0  0  0  0  0  0
   34.4810   28.8160   39.0010 H   0  0  0  0  0  0  0  0  0  0  0  0
   35.2370   29.1150   37.0880 C   0  0  0  0  0  0  0  0  0  0  0  0
   36.2210   29.6920   36.2940 C   0  0  0  0  0  0  0  0  0  0  0  0
   37.2320   30.4390   36.8630 C   0  0  0  0  0  3  0  0  0  0  0  0
   35.9230   29.3420   34.9660 O   0  0  0  0  0  0  0  0  0  0  0  0
   34.5290   29.0260   34.9160 C   0  0  0  0  0  3  0  0  0  0  0  0
   33.8960   29.9470   34.9220 H   0  0  0  0  0  0  0  0  0  0  0  0
   34.3770   28.4350   36.2150 O   0  0  0  0  0  0  0  0  0  0  0  0
  1  6  1  0  0  0  0
  2  3  1  0  0  0  0
  2  1  2  0  0  0  0
  3  4  2  0  0  0  0
  4  8  1  0  0  0  0
  4  5  1  0  0  0  0
  5  9  1  0  0  0  0
  6 10  1  0  0  0  0
  6  5  2  0  0  0  0
  7  2  1  0  0  0  0
 11 12  2  0  0  0  0
 11 16  1  0  0  0  0
 12 13  1  0  0  0  0
 13 19  1  0  0  0  0
 13 14  2  0  0  0  0
 15 14  1  0  0  0  0
 15  1  1  0  0  0  0
 16 15  2  0  0  0  0
 17 11  1  0  0  0  0
 18 12  1  0  0  0  0
 20  3  1  0  0  0  0
 21 22  1  0  0  0  0
 22 20  1  0  0  0  0
 23 24  1  0  0  0  0
 23 22  2  0  0  0  0
 25 23  1  0  0  0  0
 26 27  1  0  0  0  0
 26 25  2  0  0  0  0
 27 21  2  0  0  0  0
 28 26  1  0  0  0  0
 29 30  1  0  0  0  0
 29 28  1  0  0  0  0
 29 31  1  0  0  0  0
 31 25  1  0  0  0  0
M  END
>  <minimizedAffinity>
-5.36270952

$$$$
