
 OpenBabel03242516223D

 31 34  0  0  0  0  0  0  0  0999 V2000
   46.0070   32.7650   47.0590 C   0  0  0  0  0  0  0  0  0  0  0  0
   47.2560   32.4400   47.5410 C   0  0  0  0  0  0  0  0  0  0  0  0
   47.4160   31.6570   48.6630 C   0  0  0  0  0  0  0  0  0  0  0  0
   46.3100   31.1740   49.3410 C   0  0  0  0  0  0  0  0  0  0  0  0
   45.0540   31.4850   48.8810 C   0  0  0  0  0  0  0  0  0  0  0  0
   44.9130   32.2760   47.7470 C   0  0  0  0  0  0  0  0  0  0  0  0
   48.1130   32.8270   46.9970 H   0  0  0  0  0  0  0  0  0  0  0  0
   46.4680   30.5730   50.2060 H   0  0  0  0  0  0  0  0  0  0  0  0
   44.1910   31.1010   49.4210 H   0  0  0  0  0  0  0  0  0  0  0  0
   43.9050   32.4950   47.4210 H   0  0  0  0  0  0  0  0  0  0  0  0
   44.7160   35.3720   44.8380 C   0  0  0  0  0  0  0  0  0  0  0  0
   45.4860   35.2150   43.6710 C   0  0  0  0  0  0  0  0  0  0  0  0
   46.4600   34.2010   43.6470 C   0  0  0  0  0  0  0  0  0  0  0  0
   46.6140   33.4190   44.7530 N   0  0  0  0  0  0  0  0  0  0  0  0
   45.8520   33.6000   45.8620 C   0  0  0  0  0  0  0  0  0  0  0  0
   44.9120   34.5720   45.8980 N   0  0  0  0  0  0  0  0  0  0  0  0
   43.9540   36.1380   44.9050 H   0  0  0  0  0  0  0  0  0  0  0  0
   45.3070   35.8680   42.8420 H   0  0  0  0  0  0  0  0  0  0  0  0
   47.0640   34.0620   42.7600 H   0  0  0  0  0  0  0  0  0  0  0  0
   49.0500   31.2790   49.2300 S   0  0  0  0  0  0  0  0  0  0  0  0
   51.1560   29.6330   48.3130 C   0  0  0  0  0  3  0  0  0  0  0  0
   49.8180   29.9420   48.3670 C   0  0  0  0  0  0  0  0  0  0  0  0
   48.9220   29.1350   47.6740 C   0  0  0  0  0  0  0  0  0  0  0  0
   47.8540   29.2790   47.6420 H   0  0  0  0  0  0  0  0  0  0  0  0
   49.3710   28.0410   46.9440 C   0  0  0  0  0  0  0  0  0  0  0  0
   50.7310   27.7560   46.9120 C   0  0  0  0  0  0  0  0  0  0  0  0
   51.6280   28.5520   47.5960 C   0  0  0  0  0  3  0  0  0  0  0  0
   50.8870   26.6140   46.1110 O   0  0  0  0  0  0  0  0  0  0  0  0
   49.7370   26.5350   45.2620 C   0  0  0  0  0  3  0  0  0  0  0  0
   49.7970   27.2610   44.4150 H   0  0  0  0  0  0  0  0  0  0  0  0
   48.7480   27.0590   46.1610 O   0  0  0  0  0  0  0  0  0  0  0  0
  1  2  2  0  0  0  0
  1  6  1  0  0  0  0
  2  3  1  0  0  0  0
  3 20  1  0  0  0  0
  3  4  2  0  0  0  0
  4  8  1  0  0  0  0
  5  4  1  0  0  0  0
  5  9  1  0  0  0  0
  6  5  2  0  0  0  0
  7  2  1  0  0  0  0
 10  6  1  0  0  0  0
 11 17  1  0  0  0  0
 11 16  1  0  0  0  0
 12 11  2  0  0  0  0
 13 12  1  0  0  0  0
 13 14  2  0  0  0  0
 14 15  1  0  0  0  0
 15 16  2  0  0  0  0
 15  1  1  0  0  0  0
 18 12  1  0  0  0  0
 19 13  1  0  0  0  0
 21 22  1  0  0  0  0
 22 20  1  0  0  0  0
 23 22  2  0  0  0  0
 24 23  1  0  0  0  0
 25 23  1  0  0  0  0
 26 25  2  0  0  0  0
 26 27  1  0  0  0  0
 27 21  2  0  0  0  0
 28 26  1  0  0  0  0
 29 28  1  0  0  0  0
 29 31  1  0  0  0  0
 30 29  1  0  0  0  0
 31 25  1  0  0  0  0
M  END
>  <minimizedAffinity>
-5.17178392

>  <minimizedRMSD>
0.297654986

$$$$
