
 OpenBabel03242516213D

 31 34  0  0  0  0  0  0  0  0999 V2000
   46.0060   32.7520   47.0590 C   0  0  0  0  0  0  0  0  0  0  0  0
   47.2570   32.4630   47.5600 C   0  0  0  0  0  0  0  0  0  0  0  0
   47.4240   31.6740   48.6760 C   0  0  0  0  0  0  0  0  0  0  0  0
   46.3230   31.1450   49.3290 C   0  0  0  0  0  0  0  0  0  0  0  0
   45.0650   31.4190   48.8490 C   0  0  0  0  0  0  0  0  0  0  0  0
   44.9180   32.2170   47.7210 C   0  0  0  0  0  0  0  0  0  0  0  0
   48.1100   32.8860   47.0360 H   0  0  0  0  0  0  0  0  0  0  0  0
   46.4860   30.5390   50.1890 H   0  0  0  0  0  0  0  0  0  0  0  0
   44.2070   30.9990   49.3700 H   0  0  0  0  0  0  0  0  0  0  0  0
   43.9090   32.4060   47.3800 H   0  0  0  0  0  0  0  0  0  0  0  0
   44.7020   35.3750   44.8640 C   0  0  0  0  0  0  0  0  0  0  0  0
   45.4640   35.2250   43.6920 C   0  0  0  0  0  0  0  0  0  0  0  0
   46.4380   34.2110   43.6540 C   0  0  0  0  0  0  0  0  0  0  0  0
   46.5980   33.4210   44.7530 N   0  0  0  0  0  0  0  0  0  0  0  0
   45.8440   33.5950   45.8690 C   0  0  0  0  0  0  0  0  0  0  0  0
   44.9050   34.5670   45.9180 N   0  0  0  0  0  0  0  0  0  0  0  0
   43.9410   36.1410   44.9420 H   0  0  0  0  0  0  0  0  0  0  0  0
   45.2810   35.8840   42.8690 H   0  0  0  0  0  0  0  0  0  0  0  0
   47.0360   34.0780   42.7620 H   0  0  0  0  0  0  0  0  0  0  0  0
   49.0590   31.3440   49.2680 S   0  0  0  0  0  0  0  0  0  0  0  0
   51.0660   29.4150   48.7830 C   0  0  0  0  0  3  0  0  0  0  0  0
   49.8340   29.9530   48.5010 C   0  0  0  0  0  0  0  0  0  0  0  0
   49.0670   29.3670   47.4990 C   0  0  0  0  0  0  0  0  0  0  0  0
   48.0890   29.7000   47.1910 H   0  0  0  0  0  0  0  0  0  0  0  0
   49.5380   28.2610   46.8000 C   0  0  0  0  0  0  0  0  0  0  0  0
   50.7880   27.7430   47.1120 C   0  0  0  0  0  0  0  0  0  0  0  0
   51.5580   28.3170   48.1040 C   0  0  0  0  0  3  0  0  0  0  0  0
   50.9960   26.6470   46.2590 O   0  0  0  0  0  0  0  0  0  0  0  0
   50.1450   26.8320   45.1220 C   0  0  0  0  0  3  0  0  0  0  0  0
   50.5590   27.5910   44.4150 H   0  0  0  0  0  0  0  0  0  0  0  0
   49.0290   27.4620   45.7680 O   0  0  0  0  0  0  0  0  0  0  0  0
  1  2  2  0  0  0  0
  1  6  1  0  0  0  0
  2  3  1  0  0  0  0
  3 20  1  0  0  0  0
  3  4  2  0  0  0  0
  4  8  1  0  0  0  0
  5  4  1  0  0  0  0
  5  9  1  0  0  0  0
  6  5  2  0  0  0  0
  7  2  1  0  0  0  0
 10  6  1  0  0  0  0
 11 17  1  0  0  0  0
 11 16  1  0  0  0  0
 12 11  2  0  0  0  0
 13 12  1  0  0  0  0
 13 14  2  0  0  0  0
 14 15  1  0  0  0  0
 15 16  2  0  0  0  0
 15  1  1  0  0  0  0
 18 12  1  0  0  0  0
 19 13  1  0  0  0  0
 22 21  1  0  0  0  0
 22 20  1  0  0  0  0
 23 22  2  0  0  0  0
 24 23  1  0  0  0  0
 25 26  2  0  0  0  0
 25 23  1  0  0  0  0
 26 27  1  0  0  0  0
 27 21  2  0  0  0  0
 28 26  1  0  0  0  0
 29 31  1  0  0  0  0
 29 28  1  0  0  0  0
 30 29  1  0  0  0  0
 31 25  1  0  0  0  0
M  END
>  <minimizedAffinity>
-5.17555428

>  <minimizedRMSD>
0.242143691

$$$$
