
 OpenBabel03242516213D

 31 34  0  0  0  0  0  0  0  0999 V2000
   46.0030   32.7830   47.0460 C   0  0  0  0  0  0  0  0  0  0  0  0
   47.2540   32.4660   47.5280 C   0  0  0  0  0  0  0  0  0  0  0  0
   47.4200   31.6820   48.6480 C   0  0  0  0  0  0  0  0  0  0  0  0
   46.3170   31.1890   49.3250 C   0  0  0  0  0  0  0  0  0  0  0  0
   45.0590   31.4910   48.8640 C   0  0  0  0  0  0  0  0  0  0  0  0
   44.9130   32.2840   47.7320 C   0  0  0  0  0  0  0  0  0  0  0  0
   48.1090   32.8610   46.9850 H   0  0  0  0  0  0  0  0  0  0  0  0
   46.4790   30.5870   50.1880 H   0  0  0  0  0  0  0  0  0  0  0  0
   44.1990   31.0990   49.4040 H   0  0  0  0  0  0  0  0  0  0  0  0
   43.9030   32.4960   47.4070 H   0  0  0  0  0  0  0  0  0  0  0  0
   44.7010   35.3930   44.8350 C   0  0  0  0  0  0  0  0  0  0  0  0
   45.4660   35.2380   43.6650 C   0  0  0  0  0  0  0  0  0  0  0  0
   46.4400   34.2240   43.6340 C   0  0  0  0  0  0  0  0  0  0  0  0
   46.5990   33.4410   44.7380 N   0  0  0  0  0  0  0  0  0  0  0  0
   45.8430   33.6200   45.8510 C   0  0  0  0  0  0  0  0  0  0  0  0
   44.9020   34.5910   45.8930 N   0  0  0  0  0  0  0  0  0  0  0  0
   43.9390   36.1590   44.9070 H   0  0  0  0  0  0  0  0  0  0  0  0
   45.2830   35.8930   42.8370 H   0  0  0  0  0  0  0  0  0  0  0  0
   47.0400   34.0870   42.7450 H   0  0  0  0  0  0  0  0  0  0  0  0
   49.0560   31.3140   49.2150 S   0  0  0  0  0  0  0  0  0  0  0  0
   49.1030   28.6790   48.1970 C   0  0  0  0  0  3  0  0  0  0  0  0
   49.4700   29.5980   49.1510 C   0  0  0  0  0  0  0  0  0  0  0  0
   50.2600   29.1730   50.2120 C   0  0  0  0  0  0  0  0  0  0  0  0
   50.6070   29.8000   51.0180 H   0  0  0  0  0  0  0  0  0  0  0  0
   50.6690   27.8470   50.3070 C   0  0  0  0  0  0  0  0  0  0  0  0
   50.2810   26.9460   49.3230 C   0  0  0  0  0  0  0  0  0  0  0  0
   49.4970   27.3570   48.2650 C   0  0  0  0  0  3  0  0  0  0  0  0
   50.8340   25.7020   49.6750 O   0  0  0  0  0  0  0  0  0  0  0  0
   51.0870   25.7370   51.0830 C   0  0  0  0  0  3  0  0  0  0  0  0
   50.1500   25.6030   51.6750 H   0  0  0  0  0  0  0  0  0  0  0  0
   51.4460   27.1210   51.2210 O   0  0  0  0  0  0  0  0  0  0  0  0
  1  2  2  0  0  0  0
  1  6  1  0  0  0  0
  2  3  1  0  0  0  0
  3 20  1  0  0  0  0
  3  4  2  0  0  0  0
  4  8  1  0  0  0  0
  5  4  1  0  0  0  0
  5  9  1  0  0  0  0
  6  5  2  0  0  0  0
  7  2  1  0  0  0  0
 10  6  1  0  0  0  0
 11 17  1  0  0  0  0
 11 16  1  0  0  0  0
 12 11  2  0  0  0  0
 13 12  1  0  0  0  0
 13 14  2  0  0  0  0
 14 15  1  0  0  0  0
 15 16  2  0  0  0  0
 15  1  1  0  0  0  0
 18 12  1  0  0  0  0
 19 13  1  0  0  0  0
 21 27  2  0  0  0  0
 21 22  1  0  0  0  0
 22 20  1  0  0  0  0
 22 23  2  0  0  0  0
 23 25  1  0  0  0  0
 23 24  1  0  0  0  0
 25 31  1  0  0  0  0
 26 28  1  0  0  0  0
 26 25  2  0  0  0  0
 27 26  1  0  0  0  0
 28 29  1  0  0  0  0
 29 31  1  0  0  0  0
 29 30  1  0  0  0  0
M  END
>  <minimizedAffinity>
-5.85842848

>  <minimizedRMSD>
1.10092735

$$$$
