
 OpenBabel03242516213D

 31 34  0  0  0  0  0  0  0  0999 V2000
   46.0120   32.7490   47.0560 C   0  0  0  0  0  0  0  0  0  0  0  0
   47.2640   32.4630   47.5570 C   0  0  0  0  0  0  0  0  0  0  0  0
   47.4320   31.6740   48.6730 C   0  0  0  0  0  0  0  0  0  0  0  0
   46.3330   31.1450   49.3270 C   0  0  0  0  0  0  0  0  0  0  0  0
   45.0740   31.4160   48.8470 C   0  0  0  0  0  0  0  0  0  0  0  0
   44.9250   32.2140   47.7190 C   0  0  0  0  0  0  0  0  0  0  0  0
   48.1160   32.8860   47.0320 H   0  0  0  0  0  0  0  0  0  0  0  0
   46.4970   30.5400   50.1870 H   0  0  0  0  0  0  0  0  0  0  0  0
   44.2160   30.9950   49.3680 H   0  0  0  0  0  0  0  0  0  0  0  0
   43.9160   32.4010   47.3780 H   0  0  0  0  0  0  0  0  0  0  0  0
   44.7050   35.3690   44.8600 C   0  0  0  0  0  0  0  0  0  0  0  0
   45.4660   35.2190   43.6870 C   0  0  0  0  0  0  0  0  0  0  0  0
   46.4400   34.2050   43.6490 C   0  0  0  0  0  0  0  0  0  0  0  0
   46.6020   33.4170   44.7490 N   0  0  0  0  0  0  0  0  0  0  0  0
   45.8490   33.5910   45.8650 C   0  0  0  0  0  0  0  0  0  0  0  0
   44.9090   34.5620   45.9140 N   0  0  0  0  0  0  0  0  0  0  0  0
   43.9430   36.1350   44.9380 H   0  0  0  0  0  0  0  0  0  0  0  0
   45.2810   35.8780   42.8630 H   0  0  0  0  0  0  0  0  0  0  0  0
   47.0380   34.0720   42.7570 H   0  0  0  0  0  0  0  0  0  0  0  0
   49.0680   31.3470   49.2650 S   0  0  0  0  0  0  0  0  0  0  0  0
   49.5380   29.3510   47.3210 C   0  0  0  0  0  3  0  0  0  0  0  0
   49.8260   29.9280   48.5350 C   0  0  0  0  0  0  0  0  0  0  0  0
   50.8250   29.3610   49.3180 C   0  0  0  0  0  0  0  0  0  0  0  0
   51.1360   29.7240   50.2840 H   0  0  0  0  0  0  0  0  0  0  0  0
   51.5170   28.2360   48.8820 C   0  0  0  0  0  0  0  0  0  0  0  0
   51.2000   27.6790   47.6500 C   0  0  0  0  0  0  0  0  0  0  0  0
   50.2090   28.2340   46.8650 C   0  0  0  0  0  3  0  0  0  0  0  0
   52.0470   26.5730   47.4760 O   0  0  0  0  0  0  0  0  0  0  0  0
   52.4760   26.1640   48.7790 C   0  0  0  0  0  3  0  0  0  0  0  0
   51.6790   25.5970   49.3190 H   0  0  0  0  0  0  0  0  0  0  0  0
   52.5460   27.4480   49.4150 O   0  0  0  0  0  0  0  0  0  0  0  0
  1  2  2  0  0  0  0
  1  6  1  0  0  0  0
  2  3  1  0  0  0  0
  3 20  1  0  0  0  0
  3  4  2  0  0  0  0
  4  8  1  0  0  0  0
  5  4  1  0  0  0  0
  5  9  1  0  0  0  0
  6  5  2  0  0  0  0
  7  2  1  0  0  0  0
 10  6  1  0  0  0  0
 11 17  1  0  0  0  0
 11 16  1  0  0  0  0
 12 11  2  0  0  0  0
 13 12  1  0  0  0  0
 13 14  2  0  0  0  0
 14 15  1  0  0  0  0
 15 16  2  0  0  0  0
 15  1  1  0  0  0  0
 18 12  1  0  0  0  0
 19 13  1  0  0  0  0
 21 22  1  0  0  0  0
 22 20  1  0  0  0  0
 22 23  2  0  0  0  0
 23 24  1  0  0  0  0
 25 23  1  0  0  0  0
 25 31  1  0  0  0  0
 26 25  2  0  0  0  0
 27 21  2  0  0  0  0
 27 26  1  0  0  0  0
 28 26  1  0  0  0  0
 28 29  1  0  0  0  0
 29 30  1  0  0  0  0
 29 31  1  0  0  0  0
M  END
>  <minimizedAffinity>
-5.25832081

>  <minimizedRMSD>
0.219698921

$$$$
