
 OpenBabel03242516213D

 31 34  0  0  0  0  0  0  0  0999 V2000
   45.9900   32.8000   47.0580 C   0  0  0  0  0  0  0  0  0  0  0  0
   47.2380   32.4590   47.5330 C   0  0  0  0  0  0  0  0  0  0  0  0
   47.3940   31.6840   48.6610 C   0  0  0  0  0  0  0  0  0  0  0  0
   46.2860   31.2250   49.3520 C   0  0  0  0  0  0  0  0  0  0  0  0
   45.0310   31.5510   48.8980 C   0  0  0  0  0  0  0  0  0  0  0  0
   44.8940   32.3340   47.7580 C   0  0  0  0  0  0  0  0  0  0  0  0
   48.0960   32.8280   46.9800 H   0  0  0  0  0  0  0  0  0  0  0  0
   46.4410   30.6290   50.2210 H   0  0  0  0  0  0  0  0  0  0  0  0
   44.1660   31.1850   49.4490 H   0  0  0  0  0  0  0  0  0  0  0  0
   43.8870   32.5660   47.4390 H   0  0  0  0  0  0  0  0  0  0  0  0
   44.7090   35.3940   44.8160 C   0  0  0  0  0  0  0  0  0  0  0  0
   45.4800   35.2270   43.6520 C   0  0  0  0  0  0  0  0  0  0  0  0
   46.4510   34.2100   43.6360 C   0  0  0  0  0  0  0  0  0  0  0  0
   46.6010   33.4360   44.7480 N   0  0  0  0  0  0  0  0  0  0  0  0
   45.8390   33.6260   45.8550 C   0  0  0  0  0  0  0  0  0  0  0  0
   44.9010   34.6010   45.8830 N   0  0  0  0  0  0  0  0  0  0  0  0
   43.9490   36.1630   44.8770 H   0  0  0  0  0  0  0  0  0  0  0  0
   45.3040   35.8750   42.8180 H   0  0  0  0  0  0  0  0  0  0  0  0
   47.0560   34.0630   42.7510 H   0  0  0  0  0  0  0  0  0  0  0  0
   49.0260   31.2850   49.2190 S   0  0  0  0  0  0  0  0  0  0  0  0
   51.0770   29.6340   48.1930 C   0  0  0  0  0  3  0  0  0  0  0  0
   49.7440   29.8930   48.4010 C   0  0  0  0  0  0  0  0  0  0  0  0
   48.8080   28.9780   47.9300 C   0  0  0  0  0  0  0  0  0  0  0  0
   47.7400   29.0740   48.0330 H   0  0  0  0  0  0  0  0  0  0  0  0
   49.2160   27.8280   47.2620 C   0  0  0  0  0  0  0  0  0  0  0  0
   50.5720   27.5980   47.0700 C   0  0  0  0  0  0  0  0  0  0  0  0
   51.5070   28.4990   47.5350 C   0  0  0  0  0  3  0  0  0  0  0  0
   50.6810   26.3800   46.3790 O   0  0  0  0  0  0  0  0  0  0  0  0
   49.4340   26.1610   45.7130 C   0  0  0  0  0  3  0  0  0  0  0  0
   49.3380   26.7900   44.7950 H   0  0  0  0  0  0  0  0  0  0  0  0
   48.5470   26.7410   46.6820 O   0  0  0  0  0  0  0  0  0  0  0  0
  1  2  2  0  0  0  0
  1  6  1  0  0  0  0
  2  3  1  0  0  0  0
  3 20  1  0  0  0  0
  3  4  2  0  0  0  0
  4  8  1  0  0  0  0
  5  4  1  0  0  0  0
  5  9  1  0  0  0  0
  6  5  2  0  0  0  0
  7  2  1  0  0  0  0
 10  6  1  0  0  0  0
 11 17  1  0  0  0  0
 11 16  1  0  0  0  0
 12 11  2  0  0  0  0
 13 12  1  0  0  0  0
 13 14  2  0  0  0  0
 14 15  1  0  0  0  0
 15 16  2  0  0  0  0
 15  1  1  0  0  0  0
 18 12  1  0  0  0  0
 19 13  1  0  0  0  0
 21 22  1  0  0  0  0
 22 20  1  0  0  0  0
 23 24  1  0  0  0  0
 23 22  2  0  0  0  0
 25 23  1  0  0  0  0
 26 25  2  0  0  0  0
 26 27  1  0  0  0  0
 27 21  2  0  0  0  0
 28 26  1  0  0  0  0
 29 28  1  0  0  0  0
 29 31  1  0  0  0  0
 30 29  1  0  0  0  0
 31 25  1  0  0  0  0
M  END
>  <minimizedAffinity>
-5.1880393

>  <minimizedRMSD>
0.68592006

$$$$
