
 OpenBabel03242516213D

 31 34  0  0  0  0  0  0  0  0999 V2000
   46.0770   32.7600   47.0620 C   0  0  0  0  0  0  0  0  0  0  0  0
   47.3400   32.5050   47.5500 C   0  0  0  0  0  0  0  0  0  0  0  0
   47.5380   31.7290   48.6700 C   0  0  0  0  0  0  0  0  0  0  0  0
   46.4580   31.1800   49.3400 C   0  0  0  0  0  0  0  0  0  0  0  0
   45.1890   31.4200   48.8730 C   0  0  0  0  0  0  0  0  0  0  0  0
   45.0090   32.2050   47.7410 C   0  0  0  0  0  0  0  0  0  0  0  0
   48.1760   32.9430   47.0130 H   0  0  0  0  0  0  0  0  0  0  0  0
   46.6450   30.5850   50.2030 H   0  0  0  0  0  0  0  0  0  0  0  0
   44.3460   30.9840   49.4070 H   0  0  0  0  0  0  0  0  0  0  0  0
   43.9920   32.3670   47.4100 H   0  0  0  0  0  0  0  0  0  0  0  0
   44.6950   35.3410   44.8660 C   0  0  0  0  0  0  0  0  0  0  0  0
   45.4380   35.1920   43.6820 C   0  0  0  0  0  0  0  0  0  0  0  0
   46.4260   34.1920   43.6360 C   0  0  0  0  0  0  0  0  0  0  0  0
   46.6180   33.4160   44.7400 N   0  0  0  0  0  0  0  0  0  0  0  0
   45.8810   33.5890   45.8670 C   0  0  0  0  0  0  0  0  0  0  0  0
   44.9280   34.5470   45.9230 N   0  0  0  0  0  0  0  0  0  0  0  0
   43.9240   36.0970   44.9500 H   0  0  0  0  0  0  0  0  0  0  0  0
   45.2300   35.8410   42.8560 H   0  0  0  0  0  0  0  0  0  0  0  0
   47.0110   34.0600   42.7350 H   0  0  0  0  0  0  0  0  0  0  0  0
   49.1880   31.4430   49.2450 S   0  0  0  0  0  0  0  0  0  0  0  0
   50.3140   29.1380   50.4280 C   0  0  0  0  0  3  0  0  0  0  0  0
   49.6030   29.7340   49.4150 C   0  0  0  0  0  0  0  0  0  0  0  0
   49.1320   28.9370   48.3760 C   0  0  0  0  0  0  0  0  0  0  0  0
   48.5650   29.2910   47.5310 H   0  0  0  0  0  0  0  0  0  0  0  0
   49.3780   27.5680   48.3650 C   0  0  0  0  0  0  0  0  0  0  0  0
   50.1000   26.9990   49.4050 C   0  0  0  0  0  0  0  0  0  0  0  0
   50.5720   27.7800   50.4410 C   0  0  0  0  0  3  0  0  0  0  0  0
   50.1900   25.6250   49.1300 O   0  0  0  0  0  0  0  0  0  0  0  0
   49.9980   25.4640   47.7210 C   0  0  0  0  0  3  0  0  0  0  0  0
   50.9140   25.7420   47.1440 H   0  0  0  0  0  0  0  0  0  0  0  0
   49.0520   26.5200   47.4940 O   0  0  0  0  0  0  0  0  0  0  0  0
  1  2  2  0  0  0  0
  1  6  1  0  0  0  0
  2  3  1  0  0  0  0
  3 20  1  0  0  0  0
  3  4  2  0  0  0  0
  4  8  1  0  0  0  0
  5  4  1  0  0  0  0
  5  9  1  0  0  0  0
  6  5  2  0  0  0  0
  7  2  1  0  0  0  0
 10  6  1  0  0  0  0
 11 17  1  0  0  0  0
 11 16  1  0  0  0  0
 12 11  2  0  0  0  0
 13 12  1  0  0  0  0
 13 14  2  0  0  0  0
 14 15  1  0  0  0  0
 15 16  2  0  0  0  0
 15  1  1  0  0  0  0
 18 12  1  0  0  0  0
 19 13  1  0  0  0  0
 20 22  1  0  0  0  0
 21 27  1  0  0  0  0
 22 21  2  0  0  0  0
 23 22  1  0  0  0  0
 24 23  1  0  0  0  0
 25 23  2  0  0  0  0
 25 26  1  0  0  0  0
 26 27  2  0  0  0  0
 28 26  1  0  0  0  0
 29 28  1  0  0  0  0
 30 29  1  0  0  0  0
 31 29  1  0  0  0  0
 31 25  1  0  0  0  0
M  END
>  <minimizedAffinity>
-5.59651566

>  <minimizedRMSD>
1.7080735

$$$$
