
 OpenBabel03242516213D

 31 34  0  0  0  0  0  0  0  0999 V2000
   45.9900   32.7990   47.0590 C   0  0  0  0  0  0  0  0  0  0  0  0
   47.2370   32.4620   47.5370 C   0  0  0  0  0  0  0  0  0  0  0  0
   47.3930   31.6860   48.6640 C   0  0  0  0  0  0  0  0  0  0  0  0
   46.2850   31.2220   49.3520 C   0  0  0  0  0  0  0  0  0  0  0  0
   45.0300   31.5440   48.8940 C   0  0  0  0  0  0  0  0  0  0  0  0
   44.8930   32.3270   47.7550 C   0  0  0  0  0  0  0  0  0  0  0  0
   48.0960   32.8350   46.9860 H   0  0  0  0  0  0  0  0  0  0  0  0
   46.4400   30.6250   50.2200 H   0  0  0  0  0  0  0  0  0  0  0  0
   44.1650   31.1740   49.4420 H   0  0  0  0  0  0  0  0  0  0  0  0
   43.8870   32.5560   47.4330 H   0  0  0  0  0  0  0  0  0  0  0  0
   44.7090   35.3940   44.8180 C   0  0  0  0  0  0  0  0  0  0  0  0
   45.4810   35.2270   43.6540 C   0  0  0  0  0  0  0  0  0  0  0  0
   46.4520   34.2110   43.6380 C   0  0  0  0  0  0  0  0  0  0  0  0
   46.6020   33.4360   44.7490 N   0  0  0  0  0  0  0  0  0  0  0  0
   45.8390   33.6250   45.8560 C   0  0  0  0  0  0  0  0  0  0  0  0
   44.9010   34.6000   45.8840 N   0  0  0  0  0  0  0  0  0  0  0  0
   43.9490   36.1620   44.8790 H   0  0  0  0  0  0  0  0  0  0  0  0
   45.3050   35.8760   42.8200 H   0  0  0  0  0  0  0  0  0  0  0  0
   47.0580   34.0650   42.7530 H   0  0  0  0  0  0  0  0  0  0  0  0
   49.0250   31.2920   49.2260 S   0  0  0  0  0  0  0  0  0  0  0  0
   51.0910   29.6510   48.2150 C   0  0  0  0  0  3  0  0  0  0  0  0
   49.7550   29.9110   48.4010 C   0  0  0  0  0  0  0  0  0  0  0  0
   48.8270   29.0050   47.8990 C   0  0  0  0  0  0  0  0  0  0  0  0
   47.7560   29.1010   47.9830 H   0  0  0  0  0  0  0  0  0  0  0  0
   49.2440   27.8640   47.2230 C   0  0  0  0  0  0  0  0  0  0  0  0
   50.6030   27.6340   47.0520 C   0  0  0  0  0  0  0  0  0  0  0  0
   51.5320   28.5260   47.5470 C   0  0  0  0  0  3  0  0  0  0  0  0
   50.7220   26.4260   46.3440 O   0  0  0  0  0  0  0  0  0  0  0  0
   49.4880   26.2200   45.6520 C   0  0  0  0  0  3  0  0  0  0  0  0
   49.4110   26.8620   44.7410 H   0  0  0  0  0  0  0  0  0  0  0  0
   48.5850   26.7880   46.6120 O   0  0  0  0  0  0  0  0  0  0  0  0
  1  2  2  0  0  0  0
  1  6  1  0  0  0  0
  2  3  1  0  0  0  0
  3 20  1  0  0  0  0
  3  4  2  0  0  0  0
  4  8  1  0  0  0  0
  5  4  1  0  0  0  0
  5  9  1  0  0  0  0
  6  5  2  0  0  0  0
  7  2  1  0  0  0  0
 10  6  1  0  0  0  0
 11 17  1  0  0  0  0
 11 16  1  0  0  0  0
 12 11  2  0  0  0  0
 13 12  1  0  0  0  0
 13 14  2  0  0  0  0
 14 15  1  0  0  0  0
 15 16  2  0  0  0  0
 15  1  1  0  0  0  0
 18 12  1  0  0  0  0
 19 13  1  0  0  0  0
 21 22  1  0  0  0  0
 22 20  1  0  0  0  0
 23 24  1  0  0  0  0
 23 22  2  0  0  0  0
 25 23  1  0  0  0  0
 26 25  2  0  0  0  0
 26 27  1  0  0  0  0
 27 21  2  0  0  0  0
 28 26  1  0  0  0  0
 29 28  1  0  0  0  0
 29 31  1  0  0  0  0
 30 29  1  0  0  0  0
 31 25  1  0  0  0  0
M  END
>  <minimizedAffinity>
-5.1874094

>  <minimizedRMSD>
0.223002389

$$$$
