
 OpenBabel03242517553D

 45 48  0  0  0  0  0  0  0  0999 V2000
   45.4660   30.1700   47.2880 C   0  0  0  0  0  0  0  0  0  0  0  0
   46.0590   31.2360   46.7010 C   0  0  0  0  0  0  0  0  0  0  0  0
   46.2580   32.3730   47.4590 C   0  0  0  0  0  0  0  0  0  0  0  0
   45.8820   32.4690   48.7770 C   0  0  0  0  0  0  0  0  0  0  0  0
   45.2800   31.3790   49.3630 C   0  0  0  0  0  0  0  0  0  0  0  0
   45.0760   30.2310   48.6110 C   0  0  0  0  0  0  0  0  0  0  0  0
   46.7250   33.2660   47.0650 H   0  0  0  0  0  0  0  0  0  0  0  0
   46.0340   33.3540   49.3740 H   0  0  0  0  0  0  0  0  0  0  0  0
   44.9460   31.3530   50.3990 H   0  0  0  0  0  0  0  0  0  0  0  0
   44.6080   29.3430   49.0190 H   0  0  0  0  0  0  0  0  0  0  0  0
   45.1430   28.8050   46.2510 S   0  0  0  0  0  0  0  0  0  0  0  0
   44.2250   29.0950   45.1330 O   0  0  0  0  0  0  0  0  0  0  0  0
   44.3740   27.7980   47.1400 O   0  0  0  0  0  0  0  0  0  0  0  0
   46.6110   27.0260   44.7610 C   0  0  0  0  0  3  0  0  0  0  0  0
   46.5820   27.8970   45.8530 C   0  0  0  0  0  0  0  0  0  0  0  0
   47.7730   27.9450   46.5390 C   0  0  0  0  0  0  0  0  0  0  0  0
   47.8070   28.6180   47.4120 H   0  0  0  0  0  0  0  0  0  0  0  0
   48.8800   27.2050   46.1780 C   0  0  0  0  0  0  0  0  0  0  0  0
   48.8370   26.3620   45.0850 C   0  0  0  0  0  0  0  0  0  0  0  0
   47.6770   26.2580   44.3440 C   0  0  0  0  0  3  0  0  0  0  0  0
   50.0770   25.7520   44.9600 O   0  0  0  0  0  0  0  0  0  0  0  0
   50.8330   25.9810   46.1260 C   0  0  0  0  0  3  0  0  0  0  0  0
   51.8970   26.1550   45.9640 H   0  0  0  0  0  0  0  0  0  0  0  0
   50.1630   27.0970   46.7150 O   0  0  0  0  0  0  0  0  0  0  0  0
   46.5140   31.3390   45.3880 O   0  0  0  0  0  0  0  0  0  0  0  0
   45.3100   34.2430   43.7780 C   0  0  0  0  0  0  0  0  0  0  0  0
   46.4680   34.7440   43.1530 C   0  0  0  0  0  0  0  0  0  0  0  0
   47.6530   34.0720   43.2930 C   0  0  0  0  0  0  0  0  0  0  0  0
   47.6130   32.9580   44.0410 N   0  0  0  0  0  0  0  0  0  0  0  0
   46.5290   32.4860   44.6270 C   0  0  0  0  0  0  0  0  0  0  0  0
   45.3740   33.1300   44.4960 N   0  0  0  0  0  0  0  0  0  0  0  0
   44.3780   34.7750   43.6630 H   0  0  0  0  0  0  0  0  0  0  0  0
   46.3400   35.6480   42.5850 H   0  0  0  0  0  0  0  0  0  0  0  0
   48.9150   34.4900   42.6660 C   0  0  0  0  0  0  0  0  0  0  0  0
   49.6600   34.7110   43.4450 H   0  0  0  0  0  0  0  0  0  0  0  0
   49.3210   33.6380   42.0590 H   0  0  0  0  0  0  0  0  0  0  0  0
   48.7370   35.6490   41.7290 C   0  0  0  0  0  0  0  0  0  0  0  0
   48.0050   36.3950   42.0280 H   0  0  0  0  0  0  0  0  0  0  0  0
   49.7300   36.2050   41.7880 H   0  0  0  0  0  0  0  0  0  0  0  0
   48.6060   35.2600   40.3270 C   0  0  0  0  0  3  0  0  0  0  0  0
   48.0380   34.3450   39.5530 C   0  0  0  0  0  3  0  0  0  0  0  0
   48.2320   34.1970   38.0540 C   0  0  0  0  0  0  0  0  0  0  0  0
   49.0660   34.8880   37.7370 H   0  0  0  0  0  0  0  0  0  0  0  0
   48.4830   33.1540   37.8930 H   0  0  0  0  0  0  0  0  0  0  0  0
   47.3190   34.5640   37.5460 H   0  0  0  0  0  0  0  0  0  0  0  0
  1  6  1  0  0  0  0
  2  1  2  0  0  0  0
  2  3  1  0  0  0  0
  3  4  2  0  0  0  0
  4  5  1  0  0  0  0
  4  8  1  0  0  0  0
  5  9  1  0  0  0  0
  6 10  1  0  0  0  0
  6  5  2  0  0  0  0
  7  3  1  0  0  0  0
 11 13  2  0  0  0  0
 11  1  1  0  0  0  0
 12 11  2  0  0  0  0
 14 15  1  0  0  0  0
 15 11  1  0  0  0  0
 15 16  2  0  0  0  0
 16 17  1  0  0  0  0
 18 16  1  0  0  0  0
 18 24  1  0  0  0  0
 19 18  2  0  0  0  0
 20 14  2  0  0  0  0
 20 19  1  0  0  0  0
 21 19  1  0  0  0  0
 21 22  1  0  0  0  0
 22 24  1  0  0  0  0
 23 22  1  0  0  0  0
 25  2  1  0  0  0  0
 26 31  1  0  0  0  0
 27 28  1  0  0  0  0
 27 26  2  0  0  0  0
 28 29  2  0  0  0  0
 29 30  1  0  0  0  0
 30 25  1  0  0  0  0
 31 30  2  0  0  0  0
 32 26  1  0  0  0  0
 33 27  1  0  0  0  0
 34 28  1  0  0  0  0
 34 35  1  0  0  0  0
 36 34  1  0  0  0  0
 37 39  1  0  0  0  0
 37 38  1  0  0  0  0
 37 34  1  0  0  0  0
 40 37  1  0  0  0  0
 41 40  2  0  0  0  0
 42 41  1  0  0  0  0
 43 42  1  0  0  0  0
 44 42  1  0  0  0  0
 45 42  1  0  0  0  0
M  END
>  <minimizedAffinity>
-5.58210659

>  <minimizedRMSD>
2.01782298

$$$$
