
 OpenBabel03242514553D

 21 23  0  0  0  0  0  0  0  0999 V2000
   42.6270   35.6360   41.3750 C   0  0  0  0  0  3  0  0  0  0  0  0
   43.5950   34.7570   41.8450 C   0  0  0  0  0  0  0  0  0  0  0  0
   43.4270   33.3980   41.7100 C   0  0  0  0  0  0  0  0  0  0  0  0
   44.2060   32.7520   42.0890 H   0  0  0  0  0  0  0  0  0  0  0  0
   42.3000   32.8780   41.1070 C   0  0  0  0  0  0  0  0  0  0  0  0
   41.3180   33.7510   40.6300 C   0  0  0  0  0  0  0  0  0  0  0  0
   41.4790   35.1270   40.7620 C   0  0  0  0  0  3  0  0  0  0  0  0
   40.2860   32.9760   40.0680 O   0  0  0  0  0  0  0  0  0  0  0  0
   40.4830   31.6620   40.5900 C   0  0  0  0  0  3  0  0  0  0  0  0
   40.2070   30.8760   39.8870 H   0  0  0  0  0  0  0  0  0  0  0  0
   41.8730   31.5630   40.8400 O   0  0  0  0  0  0  0  0  0  0  0  0
   45.0220   35.5130   42.6110 S   0  0  0  0  0  0  0  0  0  0  0  0
   45.6100   34.4720   43.9770 C   0  0  0  0  0  0  0  0  0  0  0  0
   46.6630   33.6250   43.6290 C   0  0  0  0  0  0  0  0  0  0  0  0
   47.1690   32.7870   44.6470 C   0  0  0  0  0  0  0  0  0  0  0  0
   46.6090   32.8590   45.8750 N   0  0  0  0  0  0  0  0  0  0  0  0
   45.5920   33.6930   46.1650 C   0  0  0  0  0  0  0  0  0  0  0  0
   45.0940   34.5000   45.2160 N   0  0  0  0  0  0  0  0  0  0  0  0
   47.1120   33.5640   42.6530 H   0  0  0  0  0  0  0  0  0  0  0  0
   47.9810   32.1140   44.4300 H   0  0  0  0  0  0  0  0  0  0  0  0
   45.1230   33.7750   47.1320 H   0  0  0  0  0  0  0  0  0  0  0  0
  1  2  1  0  0  0  0
  2 12  1  0  0  0  0
  3  2  2  0  0  0  0
  3  4  1  0  0  0  0
  5  3  1  0  0  0  0
  6  7  1  0  0  0  0
  6  5  2  0  0  0  0
  7  1  2  0  0  0  0
  8  9  1  0  0  0  0
  8  6  1  0  0  0  0
  9 11  1  0  0  0  0
 10  9  1  0  0  0  0
 11  5  1  0  0  0  0
 12 13  1  0  0  0  0
 13 18  1  0  0  0  0
 14 13  2  0  0  0  0
 14 15  1  0  0  0  0
 15 16  2  0  0  0  0
 16 17  1  0  0  0  0
 17 21  1  0  0  0  0
 18 17  2  0  0  0  0
 19 14  1  0  0  0  0
 20 15  1  0  0  0  0
M  END
>  <minimizedAffinity>
-4.05617952

>  <minimizedRMSD>
0.501362443

$$$$
