
 OpenBabel03242514553D

 21 23  0  0  0  0  0  0  0  0999 V2000
   43.8100   34.3260   40.3280 C   0  0  0  0  0  3  0  0  0  0  0  0
   43.4610   35.1580   41.3850 C   0  0  0  0  0  0  0  0  0  0  0  0
   42.1370   35.3630   41.7030 C   0  0  0  0  0  0  0  0  0  0  0  0
   41.9120   36.0170   42.5320 H   0  0  0  0  0  0  0  0  0  0  0  0
   41.1320   34.7490   40.9840 C   0  0  0  0  0  0  0  0  0  0  0  0
   41.4690   33.9100   39.9200 C   0  0  0  0  0  0  0  0  0  0  0  0
   42.8040   33.6970   39.5910 C   0  0  0  0  0  3  0  0  0  0  0  0
   40.2740   33.4170   39.3610 O   0  0  0  0  0  0  0  0  0  0  0  0
   39.2530   34.2920   39.8400 C   0  0  0  0  0  3  0  0  0  0  0  0
   38.3020   33.7880   40.0120 H   0  0  0  0  0  0  0  0  0  0  0  0
   39.7270   34.7750   41.0840 O   0  0  0  0  0  0  0  0  0  0  0  0
   44.8230   35.9110   42.2620 S   0  0  0  0  0  0  0  0  0  0  0  0
   45.0470   35.0960   43.8680 C   0  0  0  0  0  0  0  0  0  0  0  0
   45.8970   33.9900   43.8270 C   0  0  0  0  0  0  0  0  0  0  0  0
   46.1140   33.3080   45.0450 C   0  0  0  0  0  0  0  0  0  0  0  0
   45.4950   33.7650   46.1550 N   0  0  0  0  0  0  0  0  0  0  0  0
   44.6810   34.8380   46.1470 C   0  0  0  0  0  0  0  0  0  0  0  0
   44.4580   35.5030   45.0030 N   0  0  0  0  0  0  0  0  0  0  0  0
   46.3930   33.6230   42.9460 H   0  0  0  0  0  0  0  0  0  0  0  0
   46.7620   32.4480   45.0660 H   0  0  0  0  0  0  0  0  0  0  0  0
   44.1720   35.2280   47.0130 H   0  0  0  0  0  0  0  0  0  0  0  0
  1  2  1  0  0  0  0
  2  3  2  0  0  0  0
  2 12  1  0  0  0  0
  3  4  1  0  0  0  0
  5 11  1  0  0  0  0
  5  3  1  0  0  0  0
  6  5  2  0  0  0  0
  7  6  1  0  0  0  0
  7  1  2  0  0  0  0
  8  9  1  0  0  0  0
  8  6  1  0  0  0  0
  9 10  1  0  0  0  0
  9 11  1  0  0  0  0
 12 13  1  0  0  0  0
 13 18  1  0  0  0  0
 14 13  2  0  0  0  0
 14 15  1  0  0  0  0
 15 20  1  0  0  0  0
 15 16  2  0  0  0  0
 17 16  1  0  0  0  0
 17 21  1  0  0  0  0
 18 17  2  0  0  0  0
 19 14  1  0  0  0  0
M  END
>  <minimizedAffinity>
-4.31609917

>  <minimizedRMSD>
1.07815146

$$$$
