
 OpenBabel03242514553D

 21 23  0  0  0  0  0  0  0  0999 V2000
   43.1860   34.3720   39.7800 C   0  0  0  0  0  3  0  0  0  0  0  0
   42.9040   35.0210   40.9760 C   0  0  0  0  0  0  0  0  0  0  0  0
   41.6430   34.9570   41.5230 C   0  0  0  0  0  0  0  0  0  0  0  0
   41.4680   35.4770   42.4540 H   0  0  0  0  0  0  0  0  0  0  0  0
   40.6330   34.2520   40.8990 C   0  0  0  0  0  0  0  0  0  0  0  0
   40.9030   33.5950   39.6960 C   0  0  0  0  0  0  0  0  0  0  0  0
   42.1750   33.6530   39.1360 C   0  0  0  0  0  3  0  0  0  0  0  0
   39.7200   32.9600   39.2750 O   0  0  0  0  0  0  0  0  0  0  0  0
   38.6760   33.5910   40.0170 C   0  0  0  0  0  3  0  0  0  0  0  0
   37.8610   32.9130   40.2710 H   0  0  0  0  0  0  0  0  0  0  0  0
   39.2820   34.0230   41.2220 O   0  0  0  0  0  0  0  0  0  0  0  0
   44.2660   35.9090   41.7160 S   0  0  0  0  0  0  0  0  0  0  0  0
   44.6460   35.2070   43.3450 C   0  0  0  0  0  0  0  0  0  0  0  0
   45.2810   33.9650   43.2910 C   0  0  0  0  0  0  0  0  0  0  0  0
   45.6050   33.3610   44.5260 C   0  0  0  0  0  0  0  0  0  0  0  0
   45.2860   34.0150   45.6630 N   0  0  0  0  0  0  0  0  0  0  0  0
   44.6720   35.2150   45.6670 C   0  0  0  0  0  0  0  0  0  0  0  0
   44.3540   35.8100   44.5080 N   0  0  0  0  0  0  0  0  0  0  0  0
   45.5370   33.4390   42.3880 H   0  0  0  0  0  0  0  0  0  0  0  0
   46.0950   32.4010   44.5380 H   0  0  0  0  0  0  0  0  0  0  0  0
   44.4040   35.7630   46.5560 H   0  0  0  0  0  0  0  0  0  0  0  0
  1  2  1  0  0  0  0
  2  3  2  0  0  0  0
  2 12  1  0  0  0  0
  3  4  1  0  0  0  0
  5 11  1  0  0  0  0
  5  3  1  0  0  0  0
  6  5  2  0  0  0  0
  7  6  1  0  0  0  0
  7  1  2  0  0  0  0
  8  6  1  0  0  0  0
  8  9  1  0  0  0  0
  9 10  1  0  0  0  0
  9 11  1  0  0  0  0
 12 13  1  0  0  0  0
 13 18  1  0  0  0  0
 14 13  2  0  0  0  0
 14 15  1  0  0  0  0
 15 20  1  0  0  0  0
 15 16  2  0  0  0  0
 16 17  1  0  0  0  0
 17 21  1  0  0  0  0
 18 17  2  0  0  0  0
 19 14  1  0  0  0  0
M  END
>  <minimizedAffinity>
-4.34738493

>  <minimizedRMSD>
1.5110327

$$$$
