
 OpenBabel03242514553D

 21 23  0  0  0  0  0  0  0  0999 V2000
   43.4620   33.4820   41.6540 C   0  0  0  0  0  3  0  0  0  0  0  0
   43.5690   34.8580   41.8260 C   0  0  0  0  0  0  0  0  0  0  0  0
   42.5050   35.6820   41.5350 C   0  0  0  0  0  0  0  0  0  0  0  0
   42.6320   36.7430   41.6840 H   0  0  0  0  0  0  0  0  0  0  0  0
   41.3150   35.1640   41.0670 C   0  0  0  0  0  0  0  0  0  0  0  0
   41.1940   33.7830   40.8900 C   0  0  0  0  0  0  0  0  0  0  0  0
   42.2640   32.9440   41.1820 C   0  0  0  0  0  3  0  0  0  0  0  0
   39.8970   33.5210   40.4100 O   0  0  0  0  0  0  0  0  0  0  0  0
   39.4200   34.7750   39.9250 C   0  0  0  0  0  3  0  0  0  0  0  0
   38.3460   34.9080   40.0660 H   0  0  0  0  0  0  0  0  0  0  0  0
   40.0910   35.7540   40.6970 O   0  0  0  0  0  0  0  0  0  0  0  0
   45.1430   35.4430   42.4360 S   0  0  0  0  0  0  0  0  0  0  0  0
   45.6610   34.4450   43.8600 C   0  0  0  0  0  0  0  0  0  0  0  0
   46.7090   33.5650   43.5830 C   0  0  0  0  0  0  0  0  0  0  0  0
   47.1610   32.7570   44.6500 C   0  0  0  0  0  0  0  0  0  0  0  0
   46.5590   32.8870   45.8520 N   0  0  0  0  0  0  0  0  0  0  0  0
   45.5490   33.7500   46.0730 C   0  0  0  0  0  0  0  0  0  0  0  0
   45.1020   34.5290   45.0770 N   0  0  0  0  0  0  0  0  0  0  0  0
   47.1920   33.4590   42.6270 H   0  0  0  0  0  0  0  0  0  0  0  0
   47.9670   32.0620   44.4870 H   0  0  0  0  0  0  0  0  0  0  0  0
   45.0480   33.8780   47.0190 H   0  0  0  0  0  0  0  0  0  0  0  0
  1  2  1  0  0  0  0
  2 12  1  0  0  0  0
  3  4  1  0  0  0  0
  3  2  2  0  0  0  0
  5  3  1  0  0  0  0
  6  5  2  0  0  0  0
  6  7  1  0  0  0  0
  7  1  2  0  0  0  0
  8  6  1  0  0  0  0
  9 10  1  0  0  0  0
  9  8  1  0  0  0  0
  9 11  1  0  0  0  0
 11  5  1  0  0  0  0
 12 13  1  0  0  0  0
 13 18  1  0  0  0  0
 14 13  2  0  0  0  0
 14 15  1  0  0  0  0
 15 16  2  0  0  0  0
 16 17  1  0  0  0  0
 17 21  1  0  0  0  0
 18 17  2  0  0  0  0
 19 14  1  0  0  0  0
 20 15  1  0  0  0  0
M  END
>  <minimizedAffinity>
-4.39984131

>  <minimizedRMSD>
0.495579094

$$$$
