
 OpenBabel03242514553D

 21 23  0  0  0  0  0  0  0  0999 V2000
   42.2040   35.6960   41.7440 C   0  0  0  0  0  3  0  0  0  0  0  0
   43.3670   34.9420   41.8520 C   0  0  0  0  0  0  0  0  0  0  0  0
   43.4110   33.6570   41.3630 C   0  0  0  0  0  0  0  0  0  0  0  0
   44.3350   33.1070   41.4680 H   0  0  0  0  0  0  0  0  0  0  0  0
   42.3080   33.0890   40.7580 C   0  0  0  0  0  0  0  0  0  0  0  0
   41.1330   33.8360   40.6430 C   0  0  0  0  0  0  0  0  0  0  0  0
   41.0790   35.1360   41.1340 C   0  0  0  0  0  3  0  0  0  0  0  0
   40.1740   33.0350   39.9960 O   0  0  0  0  0  0  0  0  0  0  0  0
   40.6650   31.7000   40.1110 C   0  0  0  0  0  3  0  0  0  0  0  0
   40.4230   31.0790   39.2490 H   0  0  0  0  0  0  0  0  0  0  0  0
   42.0740   31.8250   40.1810 O   0  0  0  0  0  0  0  0  0  0  0  0
   44.7450   35.7530   42.6490 S   0  0  0  0  0  0  0  0  0  0  0  0
   45.4360   34.6730   43.9320 C   0  0  0  0  0  0  0  0  0  0  0  0
   46.5120   33.8960   43.4990 C   0  0  0  0  0  0  0  0  0  0  0  0
   47.0970   33.0310   44.4490 C   0  0  0  0  0  0  0  0  0  0  0  0
   46.5860   33.0120   45.6990 N   0  0  0  0  0  0  0  0  0  0  0  0
   45.5450   33.7800   46.0730 C   0  0  0  0  0  0  0  0  0  0  0  0
   44.9710   34.6110   45.1900 N   0  0  0  0  0  0  0  0  0  0  0  0
   46.9230   33.9080   42.5040 H   0  0  0  0  0  0  0  0  0  0  0  0
   47.9300   32.4100   44.1640 H   0  0  0  0  0  0  0  0  0  0  0  0
   45.1130   33.7890   47.0610 H   0  0  0  0  0  0  0  0  0  0  0  0
  1  2  1  0  0  0  0
  2 12  1  0  0  0  0
  3  4  1  0  0  0  0
  3  2  2  0  0  0  0
  5  3  1  0  0  0  0
  6  5  2  0  0  0  0
  6  7  1  0  0  0  0
  7  1  2  0  0  0  0
  8  9  1  0  0  0  0
  8  6  1  0  0  0  0
  9 11  1  0  0  0  0
 10  9  1  0  0  0  0
 11  5  1  0  0  0  0
 12 13  1  0  0  0  0
 13 18  1  0  0  0  0
 14 13  2  0  0  0  0
 14 15  1  0  0  0  0
 15 16  2  0  0  0  0
 16 17  1  0  0  0  0
 17 21  1  0  0  0  0
 18 17  2  0  0  0  0
 19 14  1  0  0  0  0
 20 15  1  0  0  0  0
M  END
>  <minimizedAffinity>
-3.99763393

>  <minimizedRMSD>
0.448170185

$$$$
