
 OpenBabel03242514563D

 21 23  0  0  0  0  0  0  0  0999 V2000
   37.7230   28.6980   42.5560 C   0  0  0  0  0  3  0  0  0  0  0  0
   36.9060   27.9850   41.6870 C   0  0  0  0  0  0  0  0  0  0  0  0
   37.0730   26.6280   41.5280 C   0  0  0  0  0  0  0  0  0  0  0  0
   36.4160   26.1150   40.8430 H   0  0  0  0  0  0  0  0  0  0  0  0
   38.0510   25.9470   42.2250 C   0  0  0  0  0  0  0  0  0  0  0  0
   38.8800   26.6510   43.1010 C   0  0  0  0  0  0  0  0  0  0  0  0
   38.7190   28.0230   43.2680 C   0  0  0  0  0  3  0  0  0  0  0  0
   39.7800   25.7340   43.6770 O   0  0  0  0  0  0  0  0  0  0  0  0
   39.7360   24.5890   42.8280 C   0  0  0  0  0  3  0  0  0  0  0  0
   39.8670   23.6500   43.3660 H   0  0  0  0  0  0  0  0  0  0  0  0
   38.4390   24.5940   42.2590 O   0  0  0  0  0  0  0  0  0  0  0  0
   35.6680   28.9440   40.8270 S   0  0  0  0  0  0  0  0  0  0  0  0
   36.4460   30.3730   40.0230 C   0  0  0  0  0  0  0  0  0  0  0  0
   36.7160   30.1810   38.6670 C   0  0  0  0  0  0  0  0  0  0  0  0
   37.3230   31.2560   37.9810 C   0  0  0  0  0  0  0  0  0  0  0  0
   37.5970   32.3850   38.6710 N   0  0  0  0  0  0  0  0  0  0  0  0
   37.3170   32.5250   39.9810 C   0  0  0  0  0  0  0  0  0  0  0  0
   36.7410   31.5190   40.6560 N   0  0  0  0  0  0  0  0  0  0  0  0
   36.5000   29.2840   38.1140 H   0  0  0  0  0  0  0  0  0  0  0  0
   37.5520   31.1580   36.9330 H   0  0  0  0  0  0  0  0  0  0  0  0
   37.5230   33.4100   40.5600 H   0  0  0  0  0  0  0  0  0  0  0  0
  1  7  1  0  0  0  0
  2  1  2  0  0  0  0
  3  2  1  0  0  0  0
  3  5  2  0  0  0  0
  4  3  1  0  0  0  0
  5 11  1  0  0  0  0
  5  6  1  0  0  0  0
  6  7  2  0  0  0  0
  6  8  1  0  0  0  0
  9 10  1  0  0  0  0
  9  8  1  0  0  0  0
 11  9  1  0  0  0  0
 12  2  1  0  0  0  0
 13 18  1  0  0  0  0
 13 12  1  0  0  0  0
 14 13  2  0  0  0  0
 15 14  1  0  0  0  0
 15 16  2  0  0  0  0
 16 17  1  0  0  0  0
 17 21  1  0  0  0  0
 17 18  2  0  0  0  0
 19 14  1  0  0  0  0
 20 15  1  0  0  0  0
M  END
>  <minimizedAffinity>
-4.75900841

$$$$

 OpenBabel03242514563D

 21 23  0  0  0  0  0  0  0  0999 V2000
   39.1130   30.0800   42.6680 C   0  0  0  0  0  3  0  0  0  0  0  0
   37.8400   29.5440   42.5190 C   0  0  0  0  0  0  0  0  0  0  0  0
   36.9760   30.0500   41.5740 C   0  0  0  0  0  0  0  0  0  0  0  0
   35.9970   29.6020   41.4930 H   0  0  0  0  0  0  0  0  0  0  0  0
   37.3530   31.0960   40.7570 C   0  0  0  0  0  0  0  0  0  0  0  0
   38.6300   31.6450   40.8960 C   0  0  0  0  0  0  0  0  0  0  0  0
   39.5090   31.1400   41.8490 C   0  0  0  0  0  3  0  0  0  0  0  0
   38.7590   32.6850   39.9560 O   0  0  0  0  0  0  0  0  0  0  0  0
   37.4230   32.9990   39.5650 C   0  0  0  0  0  3  0  0  0  0  0  0
   37.3420   33.3050   38.5210 H   0  0  0  0  0  0  0  0  0  0  0  0
   36.6920   31.7970   39.7300 O   0  0  0  0  0  0  0  0  0  0  0  0
   37.4360   28.1930   43.6170 S   0  0  0  0  0  0  0  0  0  0  0  0
   38.3130   26.6930   43.0950 C   0  0  0  0  0  0  0  0  0  0  0  0
   39.5720   26.5420   43.6790 C   0  0  0  0  0  0  0  0  0  0  0  0
   40.3100   25.3950   43.3140 C   0  0  0  0  0  0  0  0  0  0  0  0
   39.7570   24.5280   42.4380 N   0  0  0  0  0  0  0  0  0  0  0  0
   38.5370   24.7140   41.9000 C   0  0  0  0  0  0  0  0  0  0  0  0
   37.8160   25.7960   42.2290 N   0  0  0  0  0  0  0  0  0  0  0  0
   40.0170   27.2300   44.3770 H   0  0  0  0  0  0  0  0  0  0  0  0
   41.2880   25.2330   43.7370 H   0  0  0  0  0  0  0  0  0  0  0  0
   38.0670   24.0430   41.1990 H   0  0  0  0  0  0  0  0  0  0  0  0
  2  1  1  0  0  0  0
  2 12  1  0  0  0  0
  3  2  2  0  0  0  0
  4  3  1  0  0  0  0
  5  6  2  0  0  0  0
  5  3  1  0  0  0  0
  6  7  1  0  0  0  0
  7  1  2  0  0  0  0
  8  6  1  0  0  0  0
  9 11  1  0  0  0  0
  9  8  1  0  0  0  0
 10  9  1  0  0  0  0
 11  5  1  0  0  0  0
 13 12  1  0  0  0  0
 13 14  1  0  0  0  0
 14 19  1  0  0  0  0
 15 14  2  0  0  0  0
 15 20  1  0  0  0  0
 16 15  1  0  0  0  0
 17 18  1  0  0  0  0
 17 16  2  0  0  0  0
 18 13  2  0  0  0  0
 21 17  1  0  0  0  0
M  END
>  <minimizedAffinity>
-4.69754648

$$$$

 OpenBabel03242514563D

 21 23  0  0  0  0  0  0  0  0999 V2000
   37.7310   28.8590   43.3380 C   0  0  0  0  0  3  0  0  0  0  0  0
   38.7340   28.9790   42.3820 C   0  0  0  0  0  0  0  0  0  0  0  0
   39.0370   27.9240   41.5530 C   0  0  0  0  0  0  0  0  0  0  0  0
   39.8220   28.0620   40.8250 H   0  0  0  0  0  0  0  0  0  0  0  0
   38.3560   26.7270   41.6500 C   0  0  0  0  0  0  0  0  0  0  0  0
   37.3460   26.5920   42.6060 C   0  0  0  0  0  0  0  0  0  0  0  0
   37.0330   27.6540   43.4490 C   0  0  0  0  0  3  0  0  0  0  0  0
   36.8180   25.2910   42.4980 O   0  0  0  0  0  0  0  0  0  0  0  0
   37.7960   24.5550   41.7650 C   0  0  0  0  0  3  0  0  0  0  0  0
   37.3620   23.7940   41.1160 H   0  0  0  0  0  0  0  0  0  0  0  0
   38.4510   25.5090   40.9500 O   0  0  0  0  0  0  0  0  0  0  0  0
   39.5630   30.5610   42.3250 S   0  0  0  0  0  0  0  0  0  0  0  0
   38.6970   31.6690   41.1780 C   0  0  0  0  0  0  0  0  0  0  0  0
   37.6840   31.0450   40.4470 C   0  0  0  0  0  0  0  0  0  0  0  0
   36.9700   31.8520   39.5330 C   0  0  0  0  0  0  0  0  0  0  0  0
   37.3070   33.1550   39.4290 N   0  0  0  0  0  0  0  0  0  0  0  0
   38.2930   33.7140   40.1560 C   0  0  0  0  0  0  0  0  0  0  0  0
   38.9870   32.9700   41.0310 N   0  0  0  0  0  0  0  0  0  0  0  0
   37.4120   30.0070   40.5260 H   0  0  0  0  0  0  0  0  0  0  0  0
   36.1790   31.4180   38.9450 H   0  0  0  0  0  0  0  0  0  0  0  0
   38.5880   34.7500   40.0970 H   0  0  0  0  0  0  0  0  0  0  0  0
  1  7  1  0  0  0  0
  2  1  2  0  0  0  0
  3  5  2  0  0  0  0
  3  2  1  0  0  0  0
  4  3  1  0  0  0  0
  5  6  1  0  0  0  0
  6  7  2  0  0  0  0
  8  6  1  0  0  0  0
  9  8  1  0  0  0  0
 10  9  1  0  0  0  0
 11  5  1  0  0  0  0
 11  9  1  0  0  0  0
 12  2  1  0  0  0  0
 13 12  1  0  0  0  0
 14 19  1  0  0  0  0
 14 13  2  0  0  0  0
 15 14  1  0  0  0  0
 16 15  2  0  0  0  0
 16 17  1  0  0  0  0
 17 18  2  0  0  0  0
 18 13  1  0  0  0  0
 20 15  1  0  0  0  0
 21 17  1  0  0  0  0
M  END
>  <minimizedAffinity>
-4.59912586

$$$$

 OpenBabel03242514563D

 21 23  0  0  0  0  0  0  0  0999 V2000
   35.7780   28.8080   41.0280 C   0  0  0  0  0  3  0  0  0  0  0  0
   36.8260   28.7420   41.9390 C   0  0  0  0  0  0  0  0  0  0  0  0
   37.7640   29.7480   41.9970 C   0  0  0  0  0  0  0  0  0  0  0  0
   38.5600   29.6550   42.7200 H   0  0  0  0  0  0  0  0  0  0  0  0
   37.6860   30.8390   41.1570 C   0  0  0  0  0  0  0  0  0  0  0  0
   36.6390   30.9190   40.2360 C   0  0  0  0  0  0  0  0  0  0  0  0
   35.6860   29.9070   40.1700 C   0  0  0  0  0  3  0  0  0  0  0  0
   36.7900   32.1160   39.5090 O   0  0  0  0  0  0  0  0  0  0  0  0
   38.1420   32.5140   39.7290 C   0  0  0  0  0  3  0  0  0  0  0  0
   38.2710   33.5960   39.7640 H   0  0  0  0  0  0  0  0  0  0  0  0
   38.4860   31.9880   40.9990 O   0  0  0  0  0  0  0  0  0  0  0  0
   36.8500   27.2960   42.9880 S   0  0  0  0  0  0  0  0  0  0  0  0
   37.7280   25.9450   42.1520 C   0  0  0  0  0  0  0  0  0  0  0  0
   36.9730   24.7780   42.0170 C   0  0  0  0  0  0  0  0  0  0  0  0
   37.5980   23.6860   41.3750 C   0  0  0  0  0  0  0  0  0  0  0  0
   38.8670   23.8390   40.9390 N   0  0  0  0  0  0  0  0  0  0  0  0
   39.5570   24.9850   41.0920 C   0  0  0  0  0  0  0  0  0  0  0  0
   38.9870   26.0370   41.6980 N   0  0  0  0  0  0  0  0  0  0  0  0
   35.9610   24.6520   42.3620 H   0  0  0  0  0  0  0  0  0  0  0  0
   37.0570   22.7630   41.2460 H   0  0  0  0  0  0  0  0  0  0  0  0
   40.5700   25.1400   40.7570 H   0  0  0  0  0  0  0  0  0  0  0  0
  1  2  1  0  0  0  0
  2  3  2  0  0  0  0
  2 12  1  0  0  0  0
  3  4  1  0  0  0  0
  5  3  1  0  0  0  0
  6  5  2  0  0  0  0
  7  6  1  0  0  0  0
  7  1  2  0  0  0  0
  8  9  1  0  0  0  0
  8  6  1  0  0  0  0
  9 10  1  0  0  0  0
  9 11  1  0  0  0  0
 11  5  1  0  0  0  0
 13 12  1  0  0  0  0
 14 13  1  0  0  0  0
 14 19  1  0  0  0  0
 15 14  2  0  0  0  0
 16 17  2  0  0  0  0
 16 15  1  0  0  0  0
 17 18  1  0  0  0  0
 18 13  2  0  0  0  0
 20 15  1  0  0  0  0
 21 17  1  0  0  0  0
M  END
>  <minimizedAffinity>
-4.59556818

$$$$

 OpenBabel03242514563D

 21 23  0  0  0  0  0  0  0  0999 V2000
   36.5880   29.9850   41.4980 C   0  0  0  0  0  3  0  0  0  0  0  0
   37.6690   29.6630   42.3100 C   0  0  0  0  0  0  0  0  0  0  0  0
   38.8420   30.3760   42.2250 C   0  0  0  0  0  0  0  0  0  0  0  0
   39.6550   30.0920   42.8750 H   0  0  0  0  0  0  0  0  0  0  0  0
   38.9730   31.4230   41.3350 C   0  0  0  0  0  0  0  0  0  0  0  0
   37.8950   31.7580   40.5120 C   0  0  0  0  0  0  0  0  0  0  0  0
   36.7050   31.0420   40.5910 C   0  0  0  0  0  3  0  0  0  0  0  0
   38.2850   32.8460   39.7080 O   0  0  0  0  0  0  0  0  0  0  0  0
   39.7100   32.8680   39.7800 C   0  0  0  0  0  3  0  0  0  0  0  0
   40.1260   33.8750   39.7420 H   0  0  0  0  0  0  0  0  0  0  0  0
   40.0300   32.3060   41.0400 O   0  0  0  0  0  0  0  0  0  0  0  0
   37.4130   28.2960   43.4320 S   0  0  0  0  0  0  0  0  0  0  0  0
   38.4130   26.8750   42.9080 C   0  0  0  0  0  0  0  0  0  0  0  0
   39.5610   26.6770   43.6780 C   0  0  0  0  0  0  0  0  0  0  0  0
   40.3860   25.5870   43.3220 C   0  0  0  0  0  0  0  0  0  0  0  0
   40.0160   24.8170   42.2770 N   0  0  0  0  0  0  0  0  0  0  0  0
   38.8980   25.0460   41.5620 C   0  0  0  0  0  0  0  0  0  0  0  0
   38.0970   26.0750   41.8790 N   0  0  0  0  0  0  0  0  0  0  0  0
   39.8600   27.2880   44.5120 H   0  0  0  0  0  0  0  0  0  0  0  0
   41.2840   25.3920   43.8850 H   0  0  0  0  0  0  0  0  0  0  0  0
   38.5740   24.4520   40.7230 H   0  0  0  0  0  0  0  0  0  0  0  0
  1  2  1  0  0  0  0
  2 12  1  0  0  0  0
  3  2  2  0  0  0  0
  3  4  1  0  0  0  0
  5  3  1  0  0  0  0
  6  7  1  0  0  0  0
  6  5  2  0  0  0  0
  7  1  2  0  0  0  0
  8  9  1  0  0  0  0
  8  6  1  0  0  0  0
  9 11  1  0  0  0  0
 10  9  1  0  0  0  0
 11  5  1  0  0  0  0
 13 12  1  0  0  0  0
 13 14  1  0  0  0  0
 14 19  1  0  0  0  0
 15 14  2  0  0  0  0
 15 20  1  0  0  0  0
 16 15  1  0  0  0  0
 17 18  1  0  0  0  0
 17 16  2  0  0  0  0
 18 13  2  0  0  0  0
 21 17  1  0  0  0  0
M  END
>  <minimizedAffinity>
-4.44427824

$$$$

 OpenBabel03242514563D

 21 23  0  0  0  0  0  0  0  0999 V2000
   37.3870   31.0690   38.5450 C   0  0  0  0  0  3  0  0  0  0  0  0
   36.4130   30.3520   39.2310 C   0  0  0  0  0  0  0  0  0  0  0  0
   35.6020   29.4630   38.5630 C   0  0  0  0  0  0  0  0  0  0  0  0
   34.8600   28.9280   39.1360 H   0  0  0  0  0  0  0  0  0  0  0  0
   35.7350   29.2640   37.2040 C   0  0  0  0  0  0  0  0  0  0  0  0
   36.7090   29.9780   36.5020 C   0  0  0  0  0  0  0  0  0  0  0  0
   37.5340   30.8790   37.1690 C   0  0  0  0  0  3  0  0  0  0  0  0
   36.6360   29.5950   35.1490 O   0  0  0  0  0  0  0  0  0  0  0  0
   35.3590   28.9750   35.0080 C   0  0  0  0  0  3  0  0  0  0  0  0
   35.3560   28.1570   34.2870 H   0  0  0  0  0  0  0  0  0  0  0  0
   35.0600   28.4390   36.2850 O   0  0  0  0  0  0  0  0  0  0  0  0
   36.3100   30.6710   40.9860 S   0  0  0  0  0  0  0  0  0  0  0  0
   37.1640   29.3570   41.9010 C   0  0  0  0  0  0  0  0  0  0  0  0
   36.4460   28.1620   41.9760 C   0  0  0  0  0  0  0  0  0  0  0  0
   37.0540   27.0970   42.6760 C   0  0  0  0  0  0  0  0  0  0  0  0
   38.2730   27.2990   43.2190 N   0  0  0  0  0  0  0  0  0  0  0  0
   38.9300   28.4720   43.1220 C   0  0  0  0  0  0  0  0  0  0  0  0
   38.3740   29.4990   42.4620 N   0  0  0  0  0  0  0  0  0  0  0  0
   35.4740   27.9950   41.5440 H   0  0  0  0  0  0  0  0  0  0  0  0
   36.5400   26.1530   42.7620 H   0  0  0  0  0  0  0  0  0  0  0  0
   39.9020   28.6670   43.5440 H   0  0  0  0  0  0  0  0  0  0  0  0
  1  2  1  0  0  0  0
  2 12  1  0  0  0  0
  3  4  1  0  0  0  0
  3  2  2  0  0  0  0
  5  3  1  0  0  0  0
  6  7  1  0  0  0  0
  6  5  2  0  0  0  0
  7  1  2  0  0  0  0
  8  6  1  0  0  0  0
  9  8  1  0  0  0  0
  9 11  1  0  0  0  0
 10  9  1  0  0  0  0
 11  5  1  0  0  0  0
 12 13  1  0  0  0  0
 13 14  2  0  0  0  0
 13 18  1  0  0  0  0
 14 15  1  0  0  0  0
 15 20  1  0  0  0  0
 15 16  2  0  0  0  0
 17 16  1  0  0  0  0
 17 21  1  0  0  0  0
 18 17  2  0  0  0  0
 19 14  1  0  0  0  0
M  END
>  <minimizedAffinity>
-4.36313152

$$$$

 OpenBabel03242514563D

 21 23  0  0  0  0  0  0  0  0999 V2000
   39.5260   31.3270   41.9070 C   0  0  0  0  0  3  0  0  0  0  0  0
   38.6790   32.0240   41.0530 C   0  0  0  0  0  0  0  0  0  0  0  0
   37.4530   31.5020   40.7080 C   0  0  0  0  0  0  0  0  0  0  0  0
   36.8280   32.0770   40.0430 H   0  0  0  0  0  0  0  0  0  0  0  0
   37.0380   30.2820   41.2010 C   0  0  0  0  0  0  0  0  0  0  0  0
   37.8790   29.5700   42.0600 C   0  0  0  0  0  0  0  0  0  0  0  0
   39.1200   30.0900   42.4140 C   0  0  0  0  0  3  0  0  0  0  0  0
   37.2260   28.3740   42.4130 O   0  0  0  0  0  0  0  0  0  0  0  0
   36.1980   28.2110   41.4370 C   0  0  0  0  0  3  0  0  0  0  0  0
   35.2980   27.7420   41.8370 H   0  0  0  0  0  0  0  0  0  0  0  0
   35.8650   29.5230   41.0220 O   0  0  0  0  0  0  0  0  0  0  0  0
   39.2950   33.5940   40.4630 S   0  0  0  0  0  0  0  0  0  0  0  0
   40.4630   33.3230   39.1000 C   0  0  0  0  0  0  0  0  0  0  0  0
   40.2290   32.1510   38.3790 C   0  0  0  0  0  0  0  0  0  0  0  0
   41.1040   31.8800   37.3040 C   0  0  0  0  0  0  0  0  0  0  0  0
   42.0950   32.7600   37.0460 N   0  0  0  0  0  0  0  0  0  0  0  0
   42.2830   33.8800   37.7690 C   0  0  0  0  0  0  0  0  0  0  0  0
   41.4660   34.1610   38.7960 N   0  0  0  0  0  0  0  0  0  0  0  0
   39.4410   31.4470   38.5810 H   0  0  0  0  0  0  0  0  0  0  0  0
   40.9650   30.9870   36.7170 H   0  0  0  0  0  0  0  0  0  0  0  0
   43.0630   34.6020   37.5900 H   0  0  0  0  0  0  0  0  0  0  0  0
  1  7  1  0  0  0  0
  2  1  2  0  0  0  0
  3  2  1  0  0  0  0
  3  5  2  0  0  0  0
  4  3  1  0  0  0  0
  5  6  1  0  0  0  0
  6  8  1  0  0  0  0
  6  7  2  0  0  0  0
  9 10  1  0  0  0  0
  9  8  1  0  0  0  0
 11  5  1  0  0  0  0
 11  9  1  0  0  0  0
 12  2  1  0  0  0  0
 13 12  1  0  0  0  0
 14 19  1  0  0  0  0
 14 13  2  0  0  0  0
 15 14  1  0  0  0  0
 16 15  2  0  0  0  0
 16 17  1  0  0  0  0
 17 18  2  0  0  0  0
 18 13  1  0  0  0  0
 20 15  1  0  0  0  0
 21 17  1  0  0  0  0
M  END
>  <minimizedAffinity>
-4.35612869

$$$$

 OpenBabel03242514563D

 21 23  0  0  0  0  0  0  0  0999 V2000
   36.2190   28.2480   39.5070 C   0  0  0  0  0  3  0  0  0  0  0  0
   36.4070   28.8290   40.7550 C   0  0  0  0  0  0  0  0  0  0  0  0
   36.8360   28.0700   41.8200 C   0  0  0  0  0  0  0  0  0  0  0  0
   36.9700   28.5630   42.7710 H   0  0  0  0  0  0  0  0  0  0  0  0
   37.0870   26.7210   41.6740 C   0  0  0  0  0  0  0  0  0  0  0  0
   36.9010   26.1230   40.4250 C   0  0  0  0  0  0  0  0  0  0  0  0
   36.4680   26.8830   39.3430 C   0  0  0  0  0  3  0  0  0  0  0  0
   37.2230   24.7570   40.5450 O   0  0  0  0  0  0  0  0  0  0  0  0
   37.1950   24.4930   41.9470 C   0  0  0  0  0  3  0  0  0  0  0  0
   37.9290   23.7490   42.2580 H   0  0  0  0  0  0  0  0  0  0  0  0
   37.5240   25.7230   42.5670 O   0  0  0  0  0  0  0  0  0  0  0  0
   36.0590   30.5790   40.8550 S   0  0  0  0  0  0  0  0  0  0  0  0
   37.6050   31.5210   40.7340 C   0  0  0  0  0  0  0  0  0  0  0  0
   37.4880   32.7090   40.0090 C   0  0  0  0  0  0  0  0  0  0  0  0
   38.6560   33.4910   39.8760 C   0  0  0  0  0  0  0  0  0  0  0  0
   39.7950   33.0470   40.4510 N   0  0  0  0  0  0  0  0  0  0  0  0
   39.8610   31.8930   41.1420 C   0  0  0  0  0  0  0  0  0  0  0  0
   38.7650   31.1320   41.2840 N   0  0  0  0  0  0  0  0  0  0  0  0
   36.5830   33.0660   39.5490 H   0  0  0  0  0  0  0  0  0  0  0  0
   38.6180   34.4160   39.3250 H   0  0  0  0  0  0  0  0  0  0  0  0
   40.7520   31.5100   41.6130 H   0  0  0  0  0  0  0  0  0  0  0  0
  1  2  1  0  0  0  0
  2 12  1  0  0  0  0
  2  3  2  0  0  0  0
  3  4  1  0  0  0  0
  5  3  1  0  0  0  0
  5 11  1  0  0  0  0
  6  8  1  0  0  0  0
  6  5  2  0  0  0  0
  7  1  2  0  0  0  0
  7  6  1  0  0  0  0
  8  9  1  0  0  0  0
  9 10  1  0  0  0  0
  9 11  1  0  0  0  0
 13 12  1  0  0  0  0
 13 18  1  0  0  0  0
 14 13  2  0  0  0  0
 15 14  1  0  0  0  0
 15 16  2  0  0  0  0
 16 17  1  0  0  0  0
 17 18  2  0  0  0  0
 17 21  1  0  0  0  0
 19 14  1  0  0  0  0
 20 15  1  0  0  0  0
M  END
>  <minimizedAffinity>
-4.32432079

$$$$

 OpenBabel03242514563D

 21 23  0  0  0  0  0  0  0  0999 V2000
   36.5460   28.1290   42.1230 C   0  0  0  0  0  3  0  0  0  0  0  0
   37.4260   29.1550   41.8000 C   0  0  0  0  0  0  0  0  0  0  0  0
   38.7790   28.9990   41.9930 C   0  0  0  0  0  0  0  0  0  0  0  0
   39.4260   29.8210   41.7280 H   0  0  0  0  0  0  0  0  0  0  0  0
   39.2920   27.8260   42.5100 C   0  0  0  0  0  0  0  0  0  0  0  0
   38.4190   26.7870   42.8400 C   0  0  0  0  0  0  0  0  0  0  0  0
   37.0490   26.9350   42.6480 C   0  0  0  0  0  3  0  0  0  0  0  0
   39.1870   25.7180   43.3400 O   0  0  0  0  0  0  0  0  0  0  0  0
   40.4470   26.2940   43.6790 C   0  0  0  0  0  3  0  0  0  0  0  0
   41.2860   25.6170   43.5200 H   0  0  0  0  0  0  0  0  0  0  0  0
   40.6000   27.3990   42.8070 O   0  0  0  0  0  0  0  0  0  0  0  0
   36.6780   30.6360   41.1380 S   0  0  0  0  0  0  0  0  0  0  0  0
   37.9510   31.6770   40.3690 C   0  0  0  0  0  0  0  0  0  0  0  0
   38.3340   31.2520   39.0950 C   0  0  0  0  0  0  0  0  0  0  0  0
   39.3230   32.0190   38.4400 C   0  0  0  0  0  0  0  0  0  0  0  0
   39.8250   33.0980   39.0780 N   0  0  0  0  0  0  0  0  0  0  0  0
   39.4250   33.4700   40.3090 C   0  0  0  0  0  0  0  0  0  0  0  0
   38.4870   32.7590   40.9530 N   0  0  0  0  0  0  0  0  0  0  0  0
   37.9360   30.3940   38.5830 H   0  0  0  0  0  0  0  0  0  0  0  0
   39.6530   31.7330   37.4550 H   0  0  0  0  0  0  0  0  0  0  0  0
   39.8050   34.3240   40.8450 H   0  0  0  0  0  0  0  0  0  0  0  0
  1  7  1  0  0  0  0
  2  3  1  0  0  0  0
  2  1  2  0  0  0  0
  3  5  2  0  0  0  0
  4  3  1  0  0  0  0
  5 11  1  0  0  0  0
  5  6  1  0  0  0  0
  6  8  1  0  0  0  0
  7  6  2  0  0  0  0
  8  9  1  0  0  0  0
 10  9  1  0  0  0  0
 11  9  1  0  0  0  0
 12  2  1  0  0  0  0
 13 18  1  0  0  0  0
 13 12  1  0  0  0  0
 14 13  2  0  0  0  0
 15 16  2  0  0  0  0
 15 14  1  0  0  0  0
 16 17  1  0  0  0  0
 17 21  1  0  0  0  0
 17 18  2  0  0  0  0
 19 14  1  0  0  0  0
 20 15  1  0  0  0  0
M  END
>  <minimizedAffinity>
-4.31641531

$$$$
