
 OpenBabel03242514553D

 21 23  0  0  0  0  0  0  0  0999 V2000
   42.0880   35.1380   41.6880 C   0  0  0  0  0  3  0  0  0  0  0  0
   43.0050   34.8700   40.6780 C   0  0  0  0  0  0  0  0  0  0  0  0
   42.5800   34.6640   39.3860 C   0  0  0  0  0  0  0  0  0  0  0  0
   43.3270   34.4590   38.6340 H   0  0  0  0  0  0  0  0  0  0  0  0
   41.2390   34.7190   39.0630 C   0  0  0  0  0  0  0  0  0  0  0  0
   40.3060   34.9870   40.0680 C   0  0  0  0  0  0  0  0  0  0  0  0
   40.7270   35.1960   41.3770 C   0  0  0  0  0  3  0  0  0  0  0  0
   39.0250   34.9880   39.4810 O   0  0  0  0  0  0  0  0  0  0  0  0
   39.1900   34.3170   38.2330 C   0  0  0  0  0  3  0  0  0  0  0  0
   38.5430   34.7090   37.4470 H   0  0  0  0  0  0  0  0  0  0  0  0
   40.5350   34.5540   37.8550 O   0  0  0  0  0  0  0  0  0  0  0  0
   44.7180   34.8170   41.1830 S   0  0  0  0  0  0  0  0  0  0  0  0
   44.8260   34.8070   42.9950 C   0  0  0  0  0  0  0  0  0  0  0  0
   45.3560   33.6290   43.5240 C   0  0  0  0  0  0  0  0  0  0  0  0
   45.4670   33.5550   44.9300 C   0  0  0  0  0  0  0  0  0  0  0  0
   45.0590   34.6150   45.6610 N   0  0  0  0  0  0  0  0  0  0  0  0
   44.5530   35.7330   45.1070 C   0  0  0  0  0  0  0  0  0  0  0  0
   44.4370   35.8280   43.7740 N   0  0  0  0  0  0  0  0  0  0  0  0
   45.6820   32.7820   42.9450 H   0  0  0  0  0  0  0  0  0  0  0  0
   45.8690   32.6670   45.3870 H   0  0  0  0  0  0  0  0  0  0  0  0
   44.2180   36.5950   45.6610 H   0  0  0  0  0  0  0  0  0  0  0  0
  2 12  1  0  0  0  0
  2  1  2  0  0  0  0
  3  2  1  0  0  0  0
  4  3  1  0  0  0  0
  5  3  2  0  0  0  0
  5  6  1  0  0  0  0
  6  7  2  0  0  0  0
  7  1  1  0  0  0  0
  8  6  1  0  0  0  0
  9  8  1  0  0  0  0
 10  9  1  0  0  0  0
 11  9  1  0  0  0  0
 11  5  1  0  0  0  0
 12 13  1  0  0  0  0
 13 14  2  0  0  0  0
 13 18  1  0  0  0  0
 14 15  1  0  0  0  0
 15 20  1  0  0  0  0
 15 16  2  0  0  0  0
 17 16  1  0  0  0  0
 17 21  1  0  0  0  0
 18 17  2  0  0  0  0
 19 14  1  0  0  0  0
M  END
>  <minimizedAffinity>
-4.91938925

>  <minimizedRMSD>
1.88756526

$$$$
