
 OpenBabel03252502233D

 36 39  0  0  1  0  0  0  0  0999 V2000
   46.8180   34.5930   42.3200 N   0  0  0  0  0  0  0  0  0  0  0  0
   48.2750   34.5600   42.3760 C   0  0  0  0  0  0  0  0  0  0  0  0
   48.7150   35.3450   41.1310 C   0  0  0  0  0  0  0  0  0  0  0  0
   48.3030   34.6400   39.8800 C   0  0  0  0  0  0  0  0  0  0  0  0
   46.9580   34.0040   39.9420 C   0  0  0  0  0  0  0  0  0  0  0  0
   46.0930   34.4430   41.0810 C   0  0  1  0  0  0  0  0  0  0  0  0
   48.6710   35.0540   43.2620 H   0  0  0  0  0  0  0  0  0  0  0  0
   48.6950   33.5460   42.2300 H   0  0  0  0  0  0  0  0  0  0  0  0
   48.3850   36.4040   41.1710 H   0  0  0  0  0  0  0  0  0  0  0  0
   49.8360   35.3820   41.2090 H   0  0  0  0  0  0  0  0  0  0  0  0
   48.4060   35.3620   39.0360 H   0  0  0  0  0  0  0  0  0  0  0  0
   49.0710   33.8450   39.6770 H   0  0  0  0  0  0  0  0  0  0  0  0
   46.4200   34.2760   39.0090 H   0  0  0  0  0  0  0  0  0  0  0  0
   47.0200   32.8880   39.9430 H   0  0  0  0  0  0  0  0  0  0  0  0
   45.6270   35.4300   40.8810 H   0  0  0  0  0  0  0  0  0  0  0  0
   44.4640   35.9840   44.8640 C   0  0  0  0  0  0  0  0  0  0  0  0
   45.1760   35.8860   43.6500 C   0  0  0  0  0  0  0  0  0  0  0  0
   46.0540   34.7810   43.5120 C   0  0  0  0  0  0  0  0  0  0  0  0
   46.1540   33.9020   44.5420 N   0  0  0  0  0  0  0  0  0  0  0  0
   45.4430   34.0500   45.6910 C   0  0  0  0  0  0  0  0  0  0  0  0
   44.6030   35.0900   45.8440 N   0  0  0  0  0  0  0  0  0  0  0  0
   43.7920   36.8240   44.9790 H   0  0  0  0  0  0  0  0  0  0  0  0
   45.0820   36.5970   42.8390 H   0  0  0  0  0  0  0  0  0  0  0  0
   45.6280   33.2700   46.4210 H   0  0  0  0  0  0  0  0  0  0  0  0
   45.1100   33.4690   41.2620 O   0  0  0  0  0  0  0  0  0  0  0  0
   43.4150   34.8310   40.5090 C   0  0  0  0  0  3  0  0  0  0  0  0
   43.7660   33.5960   41.0620 C   0  0  0  0  0  0  0  0  0  0  0  0
   42.7350   32.7130   41.3170 C   0  0  0  0  0  0  0  0  0  0  0  0
   43.0750   31.7800   41.7430 H   0  0  0  0  0  0  0  0  0  0  0  0
   41.4250   33.0450   41.0350 C   0  0  0  0  0  0  0  0  0  0  0  0
   41.1100   34.2550   40.4960 C   0  0  0  0  0  0  0  0  0  0  0  0
   42.1170   35.1860   40.2190 C   0  0  0  0  0  3  0  0  0  0  0  0
   39.7120   34.2850   40.3300 O   0  0  0  0  0  0  0  0  0  0  0  0
   39.1910   33.1840   41.0710 C   0  0  0  0  0  3  0  0  0  0  0  0
   38.3490   32.7020   40.5410 H   0  0  0  0  0  0  0  0  0  0  0  0
   40.2810   32.2780   41.2290 O   0  0  0  0  0  0  0  0  0  0  0  0
  1  2  1  0  0  0  0
  1 18  1  0  0  0  0
  2  7  1  0  0  0  0
  3  9  1  0  0  0  0
  3 10  1  0  0  0  0
  3  2  1  0  0  0  0
  4  5  1  0  0  0  0
  4  3  1  0  0  0  0
  5 14  1  0  0  0  0
  5  6  1  0  0  0  0
  6 15  1  6  0  0  0
  6 25  1  0  0  0  0
  6  1  1  0  0  0  0
  8  2  1  0  0  0  0
 11  4  1  0  0  0  0
 12  4  1  0  0  0  0
 13  5  1  0  0  0  0
 16 22  1  0  0  0  0
 16 21  1  0  0  0  0
 17 16  2  0  0  0  0
 18 17  1  0  0  0  0
 18 19  2  0  0  0  0
 19 20  1  0  0  0  0
 20 21  2  0  0  0  0
 20 24  1  0  0  0  0
 23 17  1  0  0  0  0
 26 27  1  0  0  0  0
 27 25  1  0  0  0  0
 27 28  2  0  0  0  0
 28 29  1  0  0  0  0
 30 36  1  0  0  0  0
 30 28  1  0  0  0  0
 31 30  2  0  0  0  0
 32 31  1  0  0  0  0
 32 26  2  0  0  0  0
 33 31  1  0  0  0  0
 33 34  1  0  0  0  0
 34 36  1  0  0  0  0
 35 34  1  0  0  0  0
M  END
>  <minimizedAffinity>
-6.40055227

>  <minimizedRMSD>
0.717782795

$$$$
