
 OpenBabel03252502233D

 36 39  0  0  1  0  0  0  0  0999 V2000
   46.8000   34.5900   42.3000 N   0  0  0  0  0  0  0  0  0  0  0  0
   48.2550   34.5320   42.3550 C   0  0  0  0  0  0  0  0  0  0  0  0
   48.7080   35.3130   41.1120 C   0  0  0  0  0  0  0  0  0  0  0  0
   48.2840   34.6200   39.8590 C   0  0  0  0  0  0  0  0  0  0  0  0
   46.9280   34.0060   39.9200 C   0  0  0  0  0  0  0  0  0  0  0  0
   46.0720   34.4570   41.0610 C   0  0  1  0  0  0  0  0  0  0  0  0
   48.6610   35.0160   43.2420 H   0  0  0  0  0  0  0  0  0  0  0  0
   48.6580   33.5110   42.2050 H   0  0  0  0  0  0  0  0  0  0  0  0
   48.3960   36.3780   41.1560 H   0  0  0  0  0  0  0  0  0  0  0  0
   49.8300   35.3310   41.1900 H   0  0  0  0  0  0  0  0  0  0  0  0
   48.3990   35.3430   39.0180 H   0  0  0  0  0  0  0  0  0  0  0  0
   49.0380   33.8130   39.6530 H   0  0  0  0  0  0  0  0  0  0  0  0
   46.3950   34.2920   38.9880 H   0  0  0  0  0  0  0  0  0  0  0  0
   46.9710   32.8900   39.9170 H   0  0  0  0  0  0  0  0  0  0  0  0
   45.6220   35.4520   40.8640 H   0  0  0  0  0  0  0  0  0  0  0  0
   44.4620   36.0060   44.8460 C   0  0  0  0  0  0  0  0  0  0  0  0
   45.1700   35.8990   43.6300 C   0  0  0  0  0  0  0  0  0  0  0  0
   46.0390   34.7870   43.4930 C   0  0  0  0  0  0  0  0  0  0  0  0
   46.1340   33.9090   44.5250 N   0  0  0  0  0  0  0  0  0  0  0  0
   45.4260   34.0650   45.6740 C   0  0  0  0  0  0  0  0  0  0  0  0
   44.5950   35.1130   45.8270 N   0  0  0  0  0  0  0  0  0  0  0  0
   43.7970   36.8510   44.9600 H   0  0  0  0  0  0  0  0  0  0  0  0
   45.0810   36.6090   42.8180 H   0  0  0  0  0  0  0  0  0  0  0  0
   45.6060   33.2860   46.4060 H   0  0  0  0  0  0  0  0  0  0  0  0
   45.0720   33.4990   41.2390 O   0  0  0  0  0  0  0  0  0  0  0  0
   42.9890   32.5660   41.5290 C   0  0  0  0  0  3  0  0  0  0  0  0
   43.7280   33.6540   41.0540 C   0  0  0  0  0  0  0  0  0  0  0  0
   43.0160   34.6900   40.4850 C   0  0  0  0  0  0  0  0  0  0  0  0
   43.6470   35.4960   40.1390 H   0  0  0  0  0  0  0  0  0  0  0  0
   41.6390   34.6450   40.3940 C   0  0  0  0  0  0  0  0  0  0  0  0
   40.9410   33.5730   40.8650 C   0  0  0  0  0  0  0  0  0  0  0  0
   41.6160   32.4960   41.4510 C   0  0  0  0  0  3  0  0  0  0  0  0
   39.5770   33.8290   40.6280 O   0  0  0  0  0  0  0  0  0  0  0  0
   39.5220   34.9350   39.7300 C   0  0  0  0  0  3  0  0  0  0  0  0
   38.6880   35.6170   39.9810 H   0  0  0  0  0  0  0  0  0  0  0  0
   40.7780   35.5950   39.8560 O   0  0  0  0  0  0  0  0  0  0  0  0
  1  2  1  0  0  0  0
  1 18  1  0  0  0  0
  2  7  1  0  0  0  0
  3  9  1  0  0  0  0
  3 10  1  0  0  0  0
  3  2  1  0  0  0  0
  4  5  1  0  0  0  0
  4  3  1  0  0  0  0
  5  6  1  0  0  0  0
  6 15  1  6  0  0  0
  6 25  1  0  0  0  0
  6  1  1  0  0  0  0
  8  2  1  0  0  0  0
 11  4  1  0  0  0  0
 12  4  1  0  0  0  0
 13  5  1  0  0  0  0
 14  5  1  0  0  0  0
 16 22  1  0  0  0  0
 16 21  1  0  0  0  0
 17 16  2  0  0  0  0
 18 17  1  0  0  0  0
 18 19  2  0  0  0  0
 19 20  1  0  0  0  0
 20 21  2  0  0  0  0
 20 24  1  0  0  0  0
 23 17  1  0  0  0  0
 27 25  1  0  0  0  0
 27 26  2  0  0  0  0
 28 27  1  0  0  0  0
 29 28  1  0  0  0  0
 30 28  2  0  0  0  0
 30 31  1  0  0  0  0
 31 32  2  0  0  0  0
 32 26  1  0  0  0  0
 33 31  1  0  0  0  0
 34 36  1  0  0  0  0
 34 35  1  0  0  0  0
 34 33  1  0  0  0  0
 36 30  1  0  0  0  0
M  END
>  <minimizedAffinity>
-6.38481855

>  <minimizedRMSD>
0.799439013

$$$$
