
 OpenBabel03252502233D

 36 39  0  0  1  0  0  0  0  0999 V2000
   46.7150   34.5290   42.2520 N   0  0  0  0  0  0  0  0  0  0  0  0
   48.1710   34.4580   42.2760 C   0  0  0  0  0  0  0  0  0  0  0  0
   48.6030   35.2010   41.0030 C   0  0  0  0  0  0  0  0  0  0  0  0
   48.1450   34.4780   39.7790 C   0  0  0  0  0  0  0  0  0  0  0  0
   46.7850   33.8810   39.8860 C   0  0  0  0  0  0  0  0  0  0  0  0
   45.9580   34.3700   41.0340 C   0  0  1  0  0  0  0  0  0  0  0  0
   48.6010   34.9610   43.1410 H   0  0  0  0  0  0  0  0  0  0  0  0
   48.5610   33.4290   42.1450 H   0  0  0  0  0  0  0  0  0  0  0  0
   48.3040   36.2690   41.0250 H   0  0  0  0  0  0  0  0  0  0  0  0
   49.7270   35.2090   41.0550 H   0  0  0  0  0  0  0  0  0  0  0  0
   48.2480   35.1780   38.9160 H   0  0  0  0  0  0  0  0  0  0  0  0
   48.8860   33.6580   39.5780 H   0  0  0  0  0  0  0  0  0  0  0  0
   46.2330   34.1470   38.9590 H   0  0  0  0  0  0  0  0  0  0  0  0
   46.8170   32.7650   39.9120 H   0  0  0  0  0  0  0  0  0  0  0  0
   45.5140   35.3650   40.8200 H   0  0  0  0  0  0  0  0  0  0  0  0
   44.4650   36.0470   44.8170 C   0  0  0  0  0  0  0  0  0  0  0  0
   45.1460   35.9020   43.5900 C   0  0  0  0  0  0  0  0  0  0  0  0
   45.9840   34.7660   43.4560 C   0  0  0  0  0  0  0  0  0  0  0  0
   46.0770   33.9040   44.5010 N   0  0  0  0  0  0  0  0  0  0  0  0
   45.3960   34.0970   45.6610 C   0  0  0  0  0  0  0  0  0  0  0  0
   44.5950   35.1680   45.8110 N   0  0  0  0  0  0  0  0  0  0  0  0
   43.8240   36.9110   44.9290 H   0  0  0  0  0  0  0  0  0  0  0  0
   45.0590   36.6000   42.7680 H   0  0  0  0  0  0  0  0  0  0  0  0
   45.5710   33.3260   46.4020 H   0  0  0  0  0  0  0  0  0  0  0  0
   44.9530   33.4280   41.2600 O   0  0  0  0  0  0  0  0  0  0  0  0
   42.8730   32.4850   41.5360 C   0  0  0  0  0  3  0  0  0  0  0  0
   43.6080   33.5900   41.0940 C   0  0  0  0  0  0  0  0  0  0  0  0
   42.8900   34.6470   40.5720 C   0  0  0  0  0  0  0  0  0  0  0  0
   43.5190   35.4650   40.2510 H   0  0  0  0  0  0  0  0  0  0  0  0
   41.5130   34.6060   40.4950 C   0  0  0  0  0  0  0  0  0  0  0  0
   40.8200   33.5170   40.9320 C   0  0  0  0  0  0  0  0  0  0  0  0
   41.4990   32.4190   41.4710 C   0  0  0  0  0  3  0  0  0  0  0  0
   39.4520   33.7810   40.7190 O   0  0  0  0  0  0  0  0  0  0  0  0
   39.3880   34.9210   39.8640 C   0  0  0  0  0  3  0  0  0  0  0  0
   38.5580   35.5930   40.1490 H   0  0  0  0  0  0  0  0  0  0  0  0
   40.6460   35.5760   40.0010 O   0  0  0  0  0  0  0  0  0  0  0  0
  1  2  1  0  0  0  0
  1 18  1  0  0  0  0
  2  7  1  0  0  0  0
  3  9  1  0  0  0  0
  3 10  1  0  0  0  0
  3  2  1  0  0  0  0
  4  5  1  0  0  0  0
  4  3  1  0  0  0  0
  5 14  1  0  0  0  0
  5  6  1  0  0  0  0
  6 15  1  6  0  0  0
  6 25  1  0  0  0  0
  6  1  1  0  0  0  0
  8  2  1  0  0  0  0
 11  4  1  0  0  0  0
 12  4  1  0  0  0  0
 13  5  1  0  0  0  0
 16 22  1  0  0  0  0
 16 21  1  0  0  0  0
 17 16  2  0  0  0  0
 18 17  1  0  0  0  0
 18 19  2  0  0  0  0
 19 20  1  0  0  0  0
 20 21  2  0  0  0  0
 20 24  1  0  0  0  0
 23 17  1  0  0  0  0
 27 25  1  0  0  0  0
 27 26  2  0  0  0  0
 28 27  1  0  0  0  0
 29 28  1  0  0  0  0
 30 28  2  0  0  0  0
 30 31  1  0  0  0  0
 31 32  2  0  0  0  0
 32 26  1  0  0  0  0
 33 31  1  0  0  0  0
 34 36  1  0  0  0  0
 34 35  1  0  0  0  0
 34 33  1  0  0  0  0
 36 30  1  0  0  0  0
M  END
>  <minimizedAffinity>
-6.37753153

>  <minimizedRMSD>
0.649196565

$$$$
