
 OpenBabel03252502233D

 36 39  0  0  1  0  0  0  0  0999 V2000
   46.7160   34.5290   42.2600 N   0  0  0  0  0  0  0  0  0  0  0  0
   48.1720   34.4580   42.2840 C   0  0  0  0  0  0  0  0  0  0  0  0
   48.6040   35.2040   41.0130 C   0  0  0  0  0  0  0  0  0  0  0  0
   48.1460   34.4840   39.7870 C   0  0  0  0  0  0  0  0  0  0  0  0
   46.7860   33.8860   39.8930 C   0  0  0  0  0  0  0  0  0  0  0  0
   45.9600   34.3730   41.0410 C   0  0  1  0  0  0  0  0  0  0  0  0
   48.6020   34.9590   43.1500 H   0  0  0  0  0  0  0  0  0  0  0  0
   48.5620   33.4290   42.1500 H   0  0  0  0  0  0  0  0  0  0  0  0
   48.3040   36.2720   41.0380 H   0  0  0  0  0  0  0  0  0  0  0  0
   49.7280   35.2120   41.0650 H   0  0  0  0  0  0  0  0  0  0  0  0
   48.2490   35.1860   38.9260 H   0  0  0  0  0  0  0  0  0  0  0  0
   48.8880   33.6650   39.5840 H   0  0  0  0  0  0  0  0  0  0  0  0
   46.2350   34.1540   38.9660 H   0  0  0  0  0  0  0  0  0  0  0  0
   46.8180   32.7700   39.9160 H   0  0  0  0  0  0  0  0  0  0  0  0
   45.5150   35.3670   40.8300 H   0  0  0  0  0  0  0  0  0  0  0  0
   44.4640   36.0390   44.8280 C   0  0  0  0  0  0  0  0  0  0  0  0
   45.1450   35.8960   43.6000 C   0  0  0  0  0  0  0  0  0  0  0  0
   45.9850   34.7620   43.4650 C   0  0  0  0  0  0  0  0  0  0  0  0
   46.0800   33.8990   44.5080 N   0  0  0  0  0  0  0  0  0  0  0  0
   45.3990   34.0900   45.6690 C   0  0  0  0  0  0  0  0  0  0  0  0
   44.5950   35.1580   45.8210 N   0  0  0  0  0  0  0  0  0  0  0  0
   43.8210   36.9010   44.9410 H   0  0  0  0  0  0  0  0  0  0  0  0
   45.0560   36.5960   42.7790 H   0  0  0  0  0  0  0  0  0  0  0  0
   45.5750   33.3180   46.4090 H   0  0  0  0  0  0  0  0  0  0  0  0
   44.9550   33.4300   41.2650 O   0  0  0  0  0  0  0  0  0  0  0  0
   42.8750   32.4840   41.5380 C   0  0  0  0  0  3  0  0  0  0  0  0
   43.6100   33.5910   41.0980 C   0  0  0  0  0  0  0  0  0  0  0  0
   42.8920   34.6490   40.5770 C   0  0  0  0  0  0  0  0  0  0  0  0
   43.5200   35.4670   40.2570 H   0  0  0  0  0  0  0  0  0  0  0  0
   41.5150   34.6060   40.4980 C   0  0  0  0  0  0  0  0  0  0  0  0
   40.8210   33.5170   40.9340 C   0  0  0  0  0  0  0  0  0  0  0  0
   41.5000   32.4180   41.4710 C   0  0  0  0  0  3  0  0  0  0  0  0
   39.4540   33.7800   40.7200 O   0  0  0  0  0  0  0  0  0  0  0  0
   39.3900   34.9210   39.8660 C   0  0  0  0  0  3  0  0  0  0  0  0
   38.5590   35.5920   40.1510 H   0  0  0  0  0  0  0  0  0  0  0  0
   40.6480   35.5770   40.0050 O   0  0  0  0  0  0  0  0  0  0  0  0
  1  2  1  0  0  0  0
  1 18  1  0  0  0  0
  2  7  1  0  0  0  0
  3  9  1  0  0  0  0
  3 10  1  0  0  0  0
  3  2  1  0  0  0  0
  4  5  1  0  0  0  0
  4  3  1  0  0  0  0
  5 14  1  0  0  0  0
  5  6  1  0  0  0  0
  6 15  1  6  0  0  0
  6 25  1  0  0  0  0
  6  1  1  0  0  0  0
  8  2  1  0  0  0  0
 11  4  1  0  0  0  0
 12  4  1  0  0  0  0
 13  5  1  0  0  0  0
 16 22  1  0  0  0  0
 16 21  1  0  0  0  0
 17 16  2  0  0  0  0
 18 17  1  0  0  0  0
 18 19  2  0  0  0  0
 19 20  1  0  0  0  0
 20 21  2  0  0  0  0
 20 24  1  0  0  0  0
 23 17  1  0  0  0  0
 27 25  1  0  0  0  0
 27 26  2  0  0  0  0
 28 27  1  0  0  0  0
 29 28  1  0  0  0  0
 30 28  2  0  0  0  0
 30 31  1  0  0  0  0
 31 32  2  0  0  0  0
 32 26  1  0  0  0  0
 33 31  1  0  0  0  0
 34 36  1  0  0  0  0
 34 35  1  0  0  0  0
 34 33  1  0  0  0  0
 36 30  1  0  0  0  0
M  END
>  <minimizedAffinity>
-6.37375736

>  <minimizedRMSD>
0.646242678

$$$$
