
 OpenBabel03242512343D

 23 26  0  0  1  0  0  0  0  0999 V2000
   47.6650   31.7620   39.5360 C   0  0  0  0  0  0  0  0  0  0  0  0
   48.6750   32.8180   39.5140 C   0  0  0  0  0  2  0  0  0  0  0  0
   48.2900   33.9540   40.2270 N   0  0  1  0  0  0  0  0  0  0  0  0
   48.4270   35.1440   40.9330 C   0  0  2  0  0  0  0  0  0  0  0  0
   49.1880   36.1390   41.0620 O   0  0  0  0  0  1  0  0  0  0  0  0
   47.1620   34.8770   41.6570 C   0  0  1  0  0  3  0  0  0  0  0  0
   46.8710   34.0920   40.4150 C   0  0  1  0  0  0  0  0  0  0  0  0
   46.4380   32.3370   40.7430 S   0  0  0  0  0  0  0  0  0  0  0  0
   47.4310   34.0440   42.8680 C   0  0  0  0  0  0  0  0  0  0  0  0
   48.4030   33.2270   42.9240 O   0  0  0  0  0  0  0  0  0  0  0  0
   46.4830   34.2820   43.9150 C   0  0  0  0  0  0  0  0  0  0  0  0
   45.5800   35.3280   43.6510 C   0  0  0  0  0  0  0  0  0  0  0  0
   44.6230   35.6140   44.6380 C   0  0  0  0  0  0  0  0  0  0  0  0
   44.6330   34.8640   45.7720 N   0  0  0  0  0  0  0  0  0  0  0  0
   45.5150   33.8710   45.9810 C   0  0  0  0  0  0  0  0  0  0  0  0
   46.4370   33.5860   45.0480 N   0  0  0  0  0  0  0  0  0  0  0  0
   45.5400   35.9370   42.7790 H   0  0  0  0  0  0  0  0  0  0  0  0
   43.8930   36.3850   44.5390 H   0  0  0  0  0  0  0  0  0  0  0  0
   45.4400   33.3310   46.9190 H   0  0  0  0  0  0  0  0  0  0  0  0
   46.9240   31.7600   38.1910 C   0  0  0  0  0  2  0  0  0  0  0  0
   46.7840   32.8030   37.8500 H   0  0  0  0  0  0  0  0  0  0  0  0
   48.1870   30.3830   39.8500 C   0  0  0  0  0  2  0  0  0  0  0  0
   47.7650   29.6830   39.1030 H   0  0  0  0  0  0  0  0  0  0  0  0
  1 22  1  0  0  0  0
  1  8  1  0  0  0  0
  2  1  1  0  0  0  0
  3  2  1  6  0  0  0
  3  7  1  0  0  0  0
  3  4  1  0  0  0  0
  4  5  1  6  0  0  0
  4  6  1  0  0  0  0
  6  9  1  1  0  0  0
  7  8  1  1  0  0  0
  7  4  1  0  0  0  0
  7  6  1  0  0  0  0
  9 10  2  0  0  0  0
  9 11  1  0  0  0  0
 11 16  1  0  0  0  0
 12 11  2  0  0  0  0
 12 13  1  0  0  0  0
 13 14  2  0  0  0  0
 14 15  1  0  0  0  0
 15 19  1  0  0  0  0
 16 15  2  0  0  0  0
 17 12  1  0  0  0  0
 18 13  1  0  0  0  0
 20  1  1  0  0  0  0
 21 20  1  0  0  0  0
 23 22  1  0  0  0  0
M  END
>  <minimizedAffinity>
-4.79790449

>  <minimizedRMSD>
2.41493678

$$$$
