
 OpenBabel03252501413D

 48 53  0  0  1  0  0  0  0  0999 V2000
   44.6270   33.1730   42.1800 C   0  0  0  0  0  0  0  0  0  0  0  0
   44.2100   32.2800   43.0090 O   0  0  0  0  0  0  0  0  0  0  0  0
   45.5160   34.1060   42.7930 N   0  0  0  0  0  0  0  0  0  0  0  0
   45.9780   34.8620   42.2910 H   0  0  0  0  0  0  0  0  0  0  0  0
   45.6410   33.7980   44.1990 C   0  0  0  0  0  0  0  0  0  0  0  0
   45.0550   34.4660   45.2280 C   0  0  0  0  0  0  0  0  0  0  0  0
   45.3020   34.0100   46.4960 C   0  0  0  0  0  0  0  0  0  0  0  0
   46.1120   32.9250   46.6290 N   0  0  0  0  0  0  0  0  0  0  0  0
   46.6760   32.2860   45.5960 C   0  0  0  0  0  0  0  0  0  0  0  0
   46.4420   32.7240   44.3340 N   0  0  0  0  0  0  0  0  0  0  0  0
   44.8470   34.5250   47.3280 H   0  0  0  0  0  0  0  0  0  0  0  0
   44.2460   35.5680   44.9030 N   0  0  0  0  0  0  0  0  0  0  0  0
   43.3740   35.5190   45.4710 H   0  0  0  0  0  0  0  0  0  0  0  0
   44.4460   36.3230   44.2210 H   0  0  0  0  0  0  0  0  0  0  0  0
   47.5350   31.1180   45.9140 C   0  0  0  0  0  2  0  0  0  0  0  0
   46.6770   29.9670   46.3720 C   0  0  1  0  0  0  0  0  0  0  0  0
   45.2400   30.1410   46.1340 C   0  0  0  0  0  2  0  0  0  0  0  0
   44.5880   28.9580   45.7780 N   0  0  1  0  0  0  0  0  0  0  0  0
   43.5470   28.1050   45.3850 C   0  0  1  0  0  0  0  0  0  0  0  0
   42.3130   27.9170   45.5410 O   0  0  0  0  0  1  0  0  0  0  0  0
   44.5920   27.3710   44.5800 C   0  0  0  0  0  3  0  0  0  0  0  0
   44.9140   27.9290   43.6850 H   0  0  0  0  0  0  0  0  0  0  0  0
   45.4050   27.7630   45.7660 C   0  0  1  0  0  0  0  0  0  0  0  0
   47.0510   28.4520   45.4430 S   0  0  0  0  0  0  0  0  0  0  0  0
   46.9220   29.6590   47.8210 C   0  0  0  0  0  2  0  0  0  0  0  0
   46.3160   30.2840   48.5130 H   0  0  0  0  0  0  0  0  0  0  0  0
   44.3000   33.2870   40.8290 O   0  0  0  0  0  0  0  0  0  0  0  0
   42.4380   30.9940   40.4950 Cl  0  0  0  0  0  0  0  0  0  0  0  0
   42.0540   32.6990   40.3290 C   0  0  0  0  0  0  0  0  0  0  0  0
   42.9970   33.7090   40.5050 C   0  0  0  0  0  0  0  0  0  0  0  0
   42.6460   35.0170   40.3630 C   0  0  0  0  0  0  0  0  0  0  0  0
   41.3670   35.4270   40.0460 C   0  0  0  0  0  0  0  0  0  0  0  0
   40.3900   34.4250   39.8630 C   0  0  0  0  0  0  0  0  0  0  0  0
   38.7370   34.8500   39.4560 Cl  0  0  0  0  0  0  0  0  0  0  0  0
   40.7850   33.1090   40.0130 C   0  0  0  0  0  0  0  0  0  0  0  0
   43.4040   35.7750   40.5080 H   0  0  0  0  0  0  0  0  0  0  0  0
   41.1090   36.4690   39.9380 H   0  0  0  0  0  0  0  0  0  0  0  0
   39.3030   32.2550   42.1330 F   0  0  0  0  0  0  0  0  0  0  0  0
   39.0440   31.6550   40.9240 C   0  0  0  0  0  0  0  0  0  0  0  0
   39.7800   32.0670   39.8250 C   0  0  0  0  0  0  0  0  0  0  0  0
   39.4870   31.4330   38.6150 C   0  0  0  0  0  0  0  0  0  0  0  0
   38.5060   30.4560   38.5790 C   0  0  0  0  0  0  0  0  0  0  0  0
   37.7970   30.0860   39.7330 C   0  0  0  0  0  0  0  0  0  0  0  0
   38.0620   30.6950   40.9520 C   0  0  0  0  0  0  0  0  0  0  0  0
   40.0570   31.7520   37.7660 H   0  0  0  0  0  0  0  0  0  0  0  0
   38.3130   29.9920   37.6170 H   0  0  0  0  0  0  0  0  0  0  0  0
   37.0310   29.3170   39.6750 H   0  0  0  0  0  0  0  0  0  0  0  0
   37.5380   30.4320   41.8370 H   0  0  0  0  0  0  0  0  0  0  0  0
  1  3  1  0  0  0  0
  1  2  2  0  0  0  0
  3  5  1  0  0  0  0
  4  3  1  0  0  0  0
  5 10  2  0  0  0  0
  5  6  1  0  0  0  0
  6  7  2  0  0  0  0
  7  8  1  0  0  0  0
  7 11  1  0  0  0  0
  9 15  1  0  0  0  0
  9  8  2  0  0  0  0
 10  9  1  0  0  0  0
 12  6  1  0  0  0  0
 12 13  1  0  0  0  0
 14 12  1  0  0  0  0
 16 15  1  6  0  0  0
 16 25  1  0  0  0  0
 17 16  1  0  0  0  0
 18 17  1  6  0  0  0
 19 20  1  1  0  0  0
 19 23  1  0  0  0  0
 19 18  1  0  0  0  0
 21 19  1  0  0  0  0
 22 21  1  0  0  0  0
 23 21  1  6  0  0  0
 23 18  1  0  0  0  0
 24 23  1  0  0  0  0
 24 16  1  0  0  0  0
 25 26  1  0  0  0  0
 27  1  1  0  0  0  0
 29 28  1  0  0  0  0
 29 30  1  0  0  0  0
 30 27  1  0  0  0  0
 31 30  2  0  0  0  0
 31 36  1  0  0  0  0
 32 31  1  0  0  0  0
 33 35  1  0  0  0  0
 33 32  2  0  0  0  0
 34 33  1  0  0  0  0
 35 29  2  0  0  0  0
 37 32  1  0  0  0  0
 39 44  1  0  0  0  0
 39 38  1  0  0  0  0
 40 35  1  0  0  0  0
 40 39  2  0  0  0  0
 41 40  1  0  0  0  0
 42 41  2  0  0  0  0
 42 43  1  0  0  0  0
 43 44  2  0  0  0  0
 44 48  1  0  0  0  0
 45 41  1  0  0  0  0
 46 42  1  0  0  0  0
 47 43  1  0  0  0  0
M  END
>  <minimizedAffinity>
-6.42795038

>  <minimizedRMSD>
2.25596642

$$$$
