
 OpenBabel03252507163D

 32 36  0  0  1  0  0  0  0  0999 V2000
   45.1070   36.1230   43.4920 C   0  0  0  0  0  0  0  0  0  0  0  0
   45.7340   34.9020   43.1600 C   0  0  0  0  0  0  0  0  0  0  0  0
   45.7790   33.9030   44.1200 C   0  0  0  0  0  0  0  0  0  0  0  0
   45.2290   34.1250   45.3250 N   0  0  0  0  0  0  0  0  0  0  0  0
   44.6240   35.3130   45.6350 C   0  0  0  0  0  0  0  0  0  0  0  0
   44.5760   36.2750   44.7240 N   0  0  0  0  0  0  0  0  0  0  0  0
   45.0510   36.9320   42.7650 H   0  0  0  0  0  0  0  0  0  0  0  0
   44.1910   35.4600   46.6140 H   0  0  0  0  0  0  0  0  0  0  0  0
   46.4260   32.6460   43.7720 C   0  0  0  0  0  0  0  0  0  0  0  0
   45.6580   31.5420   43.4970 C   0  0  0  0  0  0  0  0  0  0  0  0
   46.3040   30.3670   43.1700 C   0  0  0  0  0  0  0  0  0  0  0  0
   47.6850   30.2410   43.1050 C   0  0  0  0  0  0  0  0  0  0  0  0
   48.3890   31.3880   43.3950 C   0  0  0  0  0  0  0  0  0  0  0  0
   47.7620   32.5410   43.7150 N   0  0  0  0  0  0  0  0  0  0  0  0
   44.5820   31.5860   43.5320 H   0  0  0  0  0  0  0  0  0  0  0  0
   45.6690   29.5200   42.9590 H   0  0  0  0  0  0  0  0  0  0  0  0
   48.1300   29.2880   42.8430 H   0  0  0  0  0  0  0  0  0  0  0  0
   49.4710   31.3370   43.3570 H   0  0  0  0  0  0  0  0  0  0  0  0
   46.2960   34.7390   41.8560 C   0  0  0  0  0  0  0  0  0  0  0  0
   47.5570   34.8580   41.7380 O   0  0  0  0  0  0  0  0  0  0  0  0
   42.1370   33.0710   39.4670 C   0  0  0  0  0  0  0  0  0  0  0  0
   43.4280   32.7790   38.8110 C   0  0  0  0  0  2  0  0  0  0  0  0
   44.5150   33.0180   39.6680 N   0  0  1  0  0  0  0  0  0  0  0  0
   45.8340   33.0390   40.1960 C   0  0  1  0  0  0  0  0  0  0  0  0
   46.7760   32.2130   40.2180 O   0  0  0  0  0  1  0  0  0  0  0  0
   45.4720   34.4410   40.6490 C   0  0  1  0  0  3  0  0  0  0  0  0
   44.1970   33.7430   40.9180 C   0  0  1  0  0  0  0  0  0  0  0  0
   42.6410   34.5410   40.4590 S   0  0  0  0  0  0  0  0  0  0  0  0
   41.0400   33.4130   38.4940 C   0  0  0  0  0  2  0  0  0  0  0  0
   41.3780   33.2210   37.4360 H   0  0  0  0  0  0  0  0  0  0  0  0
   41.7540   32.0180   40.4560 C   0  0  0  0  0  2  0  0  0  0  0  0
   40.9340   31.3620   40.0890 H   0  0  0  0  0  0  0  0  0  0  0  0
  1  6  1  0  0  0  0
  2  1  2  0  0  0  0
  2  3  1  0  0  0  0
  3  4  2  0  0  0  0
  4  5  1  0  0  0  0
  5  8  1  0  0  0  0
  6  5  2  0  0  0  0
  7  1  1  0  0  0  0
  9  3  1  0  0  0  0
 10 15  1  0  0  0  0
 10  9  2  0  0  0  0
 11 10  1  0  0  0  0
 12 11  2  0  0  0  0
 12 13  1  0  0  0  0
 13 14  2  0  0  0  0
 14  9  1  0  0  0  0
 16 11  1  0  0  0  0
 17 12  1  0  0  0  0
 18 13  1  0  0  0  0
 19  2  1  0  0  0  0
 20 19  2  0  0  0  0
 21 31  1  0  0  0  0
 21 28  1  0  0  0  0
 22 21  1  0  0  0  0
 23 22  1  6  0  0  0
 23 24  1  0  0  0  0
 23 27  1  0  0  0  0
 24 25  1  1  0  0  0
 24 26  1  0  0  0  0
 24 27  1  0  0  0  0
 26 27  1  0  0  0  0
 26 19  1  1  0  0  0
 27 28  1  1  0  0  0
 29 21  1  0  0  0  0
 30 29  1  0  0  0  0
 32 31  1  0  0  0  0
M  END
>  <minimizedAffinity>
-4.93089437

>  <minimizedRMSD>
0.843091786

$$$$
