
 OpenBabel03252503073D

 23 25  0  0  1  0  0  0  0  0999 V2000
   37.8110   29.7720   42.0750 C   0  0  0  0  0  2  0  0  0  0  0  0
   37.9230   29.8060   40.5750 C   0  0  2  0  0  0  0  0  0  0  0  0
   39.1380   30.5380   40.0830 C   0  0  0  0  0  2  0  0  0  0  0  0
   38.7790   31.9220   39.9120 N   0  0  0  0  0  0  0  0  0  0  0  0
   38.7650   33.3520   39.9990 C   0  0  0  0  0  0  0  0  0  0  0  0
   39.6700   34.1610   40.3400 O   0  0  0  0  0  0  0  0  0  0  0  0
   37.3330   33.4370   39.5470 C   0  0  0  0  0  3  0  0  0  0  0  0
   36.6180   33.5270   40.3820 H   0  0  0  0  0  0  0  0  0  0  0  0
   37.6090   32.0390   39.0570 C   0  0  2  0  0  3  0  0  0  0  0  0
   36.5670   30.7550   39.8190 S   0  0  0  0  0  0  0  0  0  0  0  0
   37.9180   28.4330   39.9930 C   0  0  0  0  0  2  0  0  0  0  0  0
   38.1500   27.6790   40.7690 H   0  0  0  0  0  0  0  0  0  0  0  0
   39.4670   26.7940   43.6800 C   0  0  0  0  0  0  0  0  0  0  0  0
   38.4610   27.6370   43.2010 C   0  0  0  0  0  0  0  0  0  0  0  0
   38.8390   28.8460   42.5980 C   0  0  0  0  0  0  0  0  0  0  0  0
   40.1640   29.1300   42.5100 N   0  0  0  0  0  0  0  0  0  0  0  0
   41.1140   28.2980   42.9820 C   0  0  0  0  0  0  0  0  0  0  0  0
   40.7540   27.1480   43.5560 N   0  0  0  0  0  0  0  0  0  0  0  0
   39.2260   25.8570   44.1510 H   0  0  0  0  0  0  0  0  0  0  0  0
   42.1610   28.5740   42.8870 H   0  0  0  0  0  0  0  0  0  0  0  0
   37.0640   27.2950   43.3140 C   0  0  0  0  0  0  0  0  0  0  0  0
   36.6560   26.2970   42.6820 O   0  0  0  0  0  0  0  0  0  0  0  0
   36.5720   28.0110   43.9720 H   0  0  0  0  0  0  0  0  0  0  0  0
  1 15  1  0  0  0  0
  2 11  1  6  0  0  0
  2  1  1  0  0  0  0
  3  2  1  0  0  0  0
  4  5  1  0  0  0  0
  4  3  1  0  0  0  0
  5  6  2  0  0  0  0
  7  5  1  0  0  0  0
  7  8  1  0  0  0  0
  9  7  1  1  0  0  0
  9 10  1  0  0  0  0
  9  4  1  0  0  0  0
 10  2  1  0  0  0  0
 11 12  1  0  0  0  0
 13 19  1  0  0  0  0
 14 21  1  0  0  0  0
 14 13  2  0  0  0  0
 15 14  1  0  0  0  0
 16 15  2  0  0  0  0
 16 17  1  0  0  0  0
 17 18  2  0  0  0  0
 18 13  1  0  0  0  0
 20 17  1  0  0  0  0
 21 23  1  0  0  0  0
 22 21  2  0  0  0  0
M  END
>  <minimizedAffinity>
-4.4902339

$$$$

 OpenBabel03252503073D

 23 25  0  0  1  0  0  0  0  0999 V2000
   38.4950   29.4130   39.5170 C   0  0  0  0  0  2  0  0  0  0  0  0
   37.5960   30.5120   39.0170 C   0  0  2  0  0  0  0  0  0  0  0  0
   38.3040   31.5180   38.1570 C   0  0  0  0  0  2  0  0  0  0  0  0
   38.8040   32.5580   39.0190 N   0  0  0  0  0  0  0  0  0  0  0  0
   39.6700   33.4900   39.6770 C   0  0  0  0  0  0  0  0  0  0  0  0
   40.8080   33.9240   39.3500 O   0  0  0  0  0  0  0  0  0  0  0  0
   38.7070   33.6940   40.8140 C   0  0  0  0  0  3  0  0  0  0  0  0
   38.9410   33.0780   41.6980 H   0  0  0  0  0  0  0  0  0  0  0  0
   37.7290   33.1010   39.8320 C   0  0  2  0  0  3  0  0  0  0  0  0
   36.9670   31.5400   40.3790 S   0  0  0  0  0  0  0  0  0  0  0  0
   36.4310   29.9670   38.2610 C   0  0  0  0  0  2  0  0  0  0  0  0
   36.6210   28.9220   37.9510 H   0  0  0  0  0  0  0  0  0  0  0  0
   38.3630   29.0550   43.2640 C   0  0  0  0  0  0  0  0  0  0  0  0
   38.8150   29.4300   41.9960 C   0  0  0  0  0  0  0  0  0  0  0  0
   38.0590   29.0400   40.8800 C   0  0  0  0  0  0  0  0  0  0  0  0
   36.9290   28.3190   41.0930 N   0  0  0  0  0  0  0  0  0  0  0  0
   36.5170   27.9690   42.3290 C   0  0  0  0  0  0  0  0  0  0  0  0
   37.2360   28.3410   43.3910 N   0  0  0  0  0  0  0  0  0  0  0  0
   38.9100   29.3300   44.1490 H   0  0  0  0  0  0  0  0  0  0  0  0
   35.6040   27.3910   42.4450 H   0  0  0  0  0  0  0  0  0  0  0  0
   40.0220   30.1970   41.8140 C   0  0  0  0  0  0  0  0  0  0  0  0
   40.2450   31.1320   42.6150 O   0  0  0  0  0  0  0  0  0  0  0  0
   40.5690   29.8090   40.9560 H   0  0  0  0  0  0  0  0  0  0  0  0
  1 15  1  0  0  0  0
  2 11  1  6  0  0  0
  2  1  1  0  0  0  0
  2 10  1  0  0  0  0
  3  2  1  0  0  0  0
  3  4  1  0  0  0  0
  4  5  1  0  0  0  0
  4  9  1  0  0  0  0
  5  7  1  0  0  0  0
  6  5  2  0  0  0  0
  7  8  1  0  0  0  0
  9 10  1  1  0  0  0
  9  7  1  0  0  0  0
 12 11  1  0  0  0  0
 13 18  1  0  0  0  0
 13 19  1  0  0  0  0
 14 13  2  0  0  0  0
 15 16  2  0  0  0  0
 15 14  1  0  0  0  0
 16 17  1  0  0  0  0
 17 20  1  0  0  0  0
 17 18  2  0  0  0  0
 21 14  1  0  0  0  0
 21 22  2  0  0  0  0
 23 21  1  0  0  0  0
M  END
>  <minimizedAffinity>
-4.42543793

$$$$

 OpenBabel03252503073D

 23 25  0  0  1  0  0  0  0  0999 V2000
   38.2970   27.2790   41.3260 C   0  0  0  0  0  2  0  0  0  0  0  0
   37.1450   28.0820   41.8680 C   0  0  2  0  0  0  0  0  0  0  0  0
   36.0450   28.2980   40.8710 C   0  0  0  0  0  2  0  0  0  0  0  0
   36.3300   29.5160   40.1580 N   0  0  0  0  0  0  0  0  0  0  0  0
   36.5700   30.4640   39.1100 C   0  0  0  0  0  0  0  0  0  0  0  0
   36.2890   30.4160   37.8820 O   0  0  0  0  0  0  0  0  0  0  0  0
   37.2360   31.4370   40.0440 C   0  0  0  0  0  3  0  0  0  0  0  0
   38.3370   31.3670   40.0310 H   0  0  0  0  0  0  0  0  0  0  0  0
   36.5300   30.6130   41.0910 C   0  0  2  0  0  3  0  0  0  0  0  0
   37.6420   29.7850   42.2720 S   0  0  0  0  0  0  0  0  0  0  0  0
   36.5700   27.4570   43.0940 C   0  0  0  0  0  2  0  0  0  0  0  0
   36.8800   26.3980   43.1750 H   0  0  0  0  0  0  0  0  0  0  0  0
   37.7800   23.5500   41.4160 C   0  0  0  0  0  0  0  0  0  0  0  0
   38.2700   24.8160   41.7470 C   0  0  0  0  0  0  0  0  0  0  0  0
   37.8080   25.9180   41.0130 C   0  0  0  0  0  0  0  0  0  0  0  0
   36.9100   25.6950   40.0200 N   0  0  0  0  0  0  0  0  0  0  0  0
   36.4550   24.4620   39.7210 C   0  0  0  0  0  0  0  0  0  0  0  0
   36.8940   23.4120   40.4200 N   0  0  0  0  0  0  0  0  0  0  0  0
   38.1060   22.6730   41.9510 H   0  0  0  0  0  0  0  0  0  0  0  0
   35.7360   24.3380   38.9170 H   0  0  0  0  0  0  0  0  0  0  0  0
   39.2250   25.0080   42.8110 C   0  0  0  0  0  0  0  0  0  0  0  0
   40.3560   24.4910   42.6800 O   0  0  0  0  0  0  0  0  0  0  0  0
   38.7690   25.6070   43.5980 H   0  0  0  0  0  0  0  0  0  0  0  0
  2  1  1  6  0  0  0
  2 10  1  0  0  0  0
  2 11  1  0  0  0  0
  3  2  1  0  0  0  0
  4  3  1  0  0  0  0
  4  9  1  0  0  0  0
  5  7  1  0  0  0  0
  5  4  1  0  0  0  0
  6  5  2  0  0  0  0
  8  7  1  0  0  0  0
  9  7  1  6  0  0  0
  9 10  1  0  0  0  0
 11 12  1  0  0  0  0
 13 14  1  0  0  0  0
 13 19  1  0  0  0  0
 14 21  1  0  0  0  0
 15  1  1  0  0  0  0
 15 14  2  0  0  0  0
 16 15  1  0  0  0  0
 17 16  2  0  0  0  0
 17 18  1  0  0  0  0
 18 13  2  0  0  0  0
 20 17  1  0  0  0  0
 21 23  1  0  0  0  0
 22 21  2  0  0  0  0
M  END
>  <minimizedAffinity>
-4.37368059

$$$$

 OpenBabel03252503073D

 23 25  0  0  1  0  0  0  0  0999 V2000
   36.4980   31.0910   40.7590 C   0  0  0  0  0  2  0  0  0  0  0  0
   37.6650   31.6200   39.9690 C   0  0  2  0  0  0  0  0  0  0  0  0
   37.2970   32.0620   38.5830 C   0  0  0  0  0  2  0  0  0  0  0  0
   37.4440   30.9290   37.7070 N   0  0  0  0  0  0  0  0  0  0  0  0
   37.1810   29.9060   36.7390 C   0  0  0  0  0  0  0  0  0  0  0  0
   36.2890   29.8260   35.8510 O   0  0  0  0  0  0  0  0  0  0  0  0
   38.3320   29.0610   37.2130 C   0  0  0  0  0  3  0  0  0  0  0  0
   38.0280   28.2670   37.9170 H   0  0  0  0  0  0  0  0  0  0  0  0
   38.7760   30.3620   37.8320 C   0  0  2  0  0  3  0  0  0  0  0  0
   38.9030   30.3270   39.6480 S   0  0  0  0  0  0  0  0  0  0  0  0
   38.3370   32.7500   40.6740 C   0  0  0  0  0  2  0  0  0  0  0  0
   37.6750   33.1730   41.4540 H   0  0  0  0  0  0  0  0  0  0  0  0
   36.8420   27.4280   41.5650 C   0  0  0  0  0  0  0  0  0  0  0  0
   36.4260   28.5980   40.9230 C   0  0  0  0  0  0  0  0  0  0  0  0
   36.9090   29.8240   41.4040 C   0  0  0  0  0  0  0  0  0  0  0  0
   37.7540   29.8080   42.4660 N   0  0  0  0  0  0  0  0  0  0  0  0
   38.1380   28.6630   43.0660 C   0  0  0  0  0  0  0  0  0  0  0  0
   37.6800   27.4960   42.6090 N   0  0  0  0  0  0  0  0  0  0  0  0
   36.4990   26.4630   41.2320 H   0  0  0  0  0  0  0  0  0  0  0  0
   38.8170   28.7060   43.9130 H   0  0  0  0  0  0  0  0  0  0  0  0
   35.5270   28.5690   39.7970 C   0  0  0  0  0  0  0  0  0  0  0  0
   35.6440   27.6290   38.9810 O   0  0  0  0  0  0  0  0  0  0  0  0
   34.8560   29.4260   39.8510 H   0  0  0  0  0  0  0  0  0  0  0  0
  1 15  1  0  0  0  0
  2 11  1  1  0  0  0
  2  1  1  0  0  0  0
  3  2  1  0  0  0  0
  4  9  1  0  0  0  0
  4  3  1  0  0  0  0
  5  7  1  0  0  0  0
  5  4  1  0  0  0  0
  6  5  2  0  0  0  0
  7  8  1  0  0  0  0
  9  7  1  1  0  0  0
  9 10  1  0  0  0  0
 10  2  1  0  0  0  0
 11 12  1  0  0  0  0
 13 18  1  0  0  0  0
 14 15  1  0  0  0  0
 14 13  2  0  0  0  0
 15 16  2  0  0  0  0
 16 17  1  0  0  0  0
 17 20  1  0  0  0  0
 18 17  2  0  0  0  0
 19 13  1  0  0  0  0
 21 23  1  0  0  0  0
 21 14  1  0  0  0  0
 22 21  2  0  0  0  0
M  END
>  <minimizedAffinity>
-4.36700249

$$$$

 OpenBabel03252503073D

 23 25  0  0  1  0  0  0  0  0999 V2000
   36.4270   27.7980   41.4920 C   0  0  0  0  0  2  0  0  0  0  0  0
   36.6950   27.8380   40.0110 C   0  0  2  0  0  0  0  0  0  0  0  0
   38.0800   28.3040   39.6670 C   0  0  0  0  0  2  0  0  0  0  0  0
   38.0380   29.7360   39.5210 N   0  0  0  0  0  0  0  0  0  0  0  0
   38.3160   31.1340   39.6650 C   0  0  0  0  0  0  0  0  0  0  0  0
   39.3310   31.7250   40.1230 O   0  0  0  0  0  0  0  0  0  0  0  0
   36.9870   31.5320   39.0830 C   0  0  0  0  0  3  0  0  0  0  0  0
   36.2260   31.7550   39.8510 H   0  0  0  0  0  0  0  0  0  0  0  0
   37.0120   30.1170   38.5650 C   0  0  2  0  0  3  0  0  0  0  0  0
   35.6520   29.0690   39.1710 S   0  0  0  0  0  0  0  0  0  0  0  0
   36.4610   26.5100   39.3750 C   0  0  0  0  0  2  0  0  0  0  0  0
   36.4500   25.7070   40.1380 H   0  0  0  0  0  0  0  0  0  0  0  0
   39.4400   27.0320   43.6180 C   0  0  0  0  0  0  0  0  0  0  0  0
   38.4020   27.7540   43.0230 C   0  0  0  0  0  0  0  0  0  0  0  0
   37.5410   27.0770   42.1470 C   0  0  0  0  0  0  0  0  0  0  0  0
   37.7610   25.7570   41.9250 N   0  0  0  0  0  0  0  0  0  0  0  0
   38.7720   25.0840   42.5130 C   0  0  0  0  0  0  0  0  0  0  0  0
   39.5920   25.7280   43.3470 N   0  0  0  0  0  0  0  0  0  0  0  0
   40.1270   27.5080   44.2970 H   0  0  0  0  0  0  0  0  0  0  0  0
   38.9050   24.0270   42.3010 H   0  0  0  0  0  0  0  0  0  0  0  0
   38.2040   29.1580   43.2870 C   0  0  0  0  0  0  0  0  0  0  0  0
   39.0980   29.9520   42.9220 O   0  0  0  0  0  0  0  0  0  0  0  0
   37.2490   29.2960   43.7930 H   0  0  0  0  0  0  0  0  0  0  0  0
  1 15  1  0  0  0  0
  2 11  1  6  0  0  0
  2  1  1  0  0  0  0
  3  2  1  0  0  0  0
  4  5  1  0  0  0  0
  4  3  1  0  0  0  0
  5  6  2  0  0  0  0
  7  5  1  0  0  0  0
  7  8  1  0  0  0  0
  9  7  1  1  0  0  0
  9 10  1  0  0  0  0
  9  4  1  0  0  0  0
 10  2  1  0  0  0  0
 11 12  1  0  0  0  0
 13 19  1  0  0  0  0
 14 21  1  0  0  0  0
 14 13  2  0  0  0  0
 15 14  1  0  0  0  0
 16 15  2  0  0  0  0
 16 17  1  0  0  0  0
 17 18  2  0  0  0  0
 18 13  1  0  0  0  0
 20 17  1  0  0  0  0
 21 23  1  0  0  0  0
 22 21  2  0  0  0  0
M  END
>  <minimizedAffinity>
-4.35322809

$$$$

 OpenBabel03252503073D

 23 25  0  0  1  0  0  0  0  0999 V2000
   39.7220   28.9930   40.5810 C   0  0  0  0  0  2  0  0  0  0  0  0
   39.8890   28.6790   42.0440 C   0  0  2  0  0  0  0  0  0  0  0  0
   39.8550   27.2090   42.3470 C   0  0  0  0  0  2  0  0  0  0  0  0
   38.4850   26.8460   42.6060 N   0  0  0  0  0  0  0  0  0  0  0  0
   37.2100   26.1950   42.5550 C   0  0  0  0  0  0  0  0  0  0  0  0
   36.8820   25.0700   42.0900 O   0  0  0  0  0  0  0  0  0  0  0  0
   36.5170   27.3420   43.2380 C   0  0  0  0  0  3  0  0  0  0  0  0
   36.0250   28.0340   42.5330 H   0  0  0  0  0  0  0  0  0  0  0  0
   37.9250   27.6950   43.6430 C   0  0  2  0  0  3  0  0  0  0  0  0
   38.5000   29.3120   43.0330 S   0  0  0  0  0  0  0  0  0  0  0  0
   41.1540   29.2530   42.5870 C   0  0  0  0  0  2  0  0  0  0  0  0
   41.8510   29.5110   41.7660 H   0  0  0  0  0  0  0  0  0  0  0  0
   36.6620   31.0800   39.8980 C   0  0  0  0  0  0  0  0  0  0  0  0
   37.4910   29.9600   40.0000 C   0  0  0  0  0  0  0  0  0  0  0  0
   38.8050   30.1470   40.4560 C   0  0  0  0  0  0  0  0  0  0  0  0
   39.1990   31.4060   40.7740 N   0  0  0  0  0  0  0  0  0  0  0  0
   38.3770   32.4700   40.6650 C   0  0  0  0  0  0  0  0  0  0  0  0
   37.1270   32.2920   40.2310 N   0  0  0  0  0  0  0  0  0  0  0  0
   35.6460   30.9860   39.5520 H   0  0  0  0  0  0  0  0  0  0  0  0
   38.7420   33.4570   40.9320 H   0  0  0  0  0  0  0  0  0  0  0  0
   37.0320   28.6380   39.6510 C   0  0  0  0  0  0  0  0  0  0  0  0
   35.8560   28.3330   39.9500 O   0  0  0  0  0  0  0  0  0  0  0  0
   37.8370   28.0960   39.1570 H   0  0  0  0  0  0  0  0  0  0  0  0
  2  1  1  6  0  0  0
  2  3  1  0  0  0  0
  2 11  1  0  0  0  0
  2 10  1  0  0  0  0
  3  4  1  0  0  0  0
  4  9  1  0  0  0  0
  5  4  1  0  0  0  0
  5  7  1  0  0  0  0
  6  5  2  0  0  0  0
  7  9  1  0  0  0  0
  8  7  1  0  0  0  0
  9 10  1  6  0  0  0
 12 11  1  0  0  0  0
 13 14  2  0  0  0  0
 13 18  1  0  0  0  0
 14 15  1  0  0  0  0
 15  1  1  0  0  0  0
 15 16  2  0  0  0  0
 17 16  1  0  0  0  0
 17 20  1  0  0  0  0
 18 17  2  0  0  0  0
 19 13  1  0  0  0  0
 21 22  2  0  0  0  0
 21 14  1  0  0  0  0
 23 21  1  0  0  0  0
M  END
>  <minimizedAffinity>
-4.3435235

$$$$

 OpenBabel03252503073D

 23 25  0  0  1  0  0  0  0  0999 V2000
   38.4010   29.7050   39.8860 C   0  0  0  0  0  2  0  0  0  0  0  0
   37.4370   29.8400   41.0350 C   0  0  2  0  0  0  0  0  0  0  0  0
   38.0810   29.6590   42.3790 C   0  0  0  0  0  2  0  0  0  0  0  0
   38.0120   28.2600   42.7150 N   0  0  0  0  0  0  0  0  0  0  0  0
   38.3700   26.9270   43.0980 C   0  0  0  0  0  0  0  0  0  0  0  0
   39.3990   26.4890   43.6800 O   0  0  0  0  0  0  0  0  0  0  0  0
   37.0940   26.3500   42.5490 C   0  0  0  0  0  3  0  0  0  0  0  0
   37.2070   25.9310   41.5340 H   0  0  0  0  0  0  0  0  0  0  0  0
   36.6420   27.7860   42.6270 C   0  0  2  0  0  3  0  0  0  0  0  0
   36.1860   28.5190   41.0230 S   0  0  0  0  0  0  0  0  0  0  0  0
   36.7340   31.1550   41.0100 C   0  0  0  0  0  2  0  0  0  0  0  0
   37.2730   31.8740   40.3640 H   0  0  0  0  0  0  0  0  0  0  0  0
   40.1530   32.8740   38.8490 C   0  0  0  0  0  0  0  0  0  0  0  0
   39.2920   31.7740   38.8030 C   0  0  0  0  0  0  0  0  0  0  0  0
   39.2940   30.8850   39.8880 C   0  0  0  0  0  0  0  0  0  0  0  0
   40.1320   31.1410   40.9240 N   0  0  0  0  0  0  0  0  0  0  0  0
   40.9530   32.2100   40.9420 C   0  0  0  0  0  0  0  0  0  0  0  0
   40.9510   33.0570   39.9100 N   0  0  0  0  0  0  0  0  0  0  0  0
   40.1870   33.5840   38.0400 H   0  0  0  0  0  0  0  0  0  0  0  0
   41.6050   32.3700   41.7970 H   0  0  0  0  0  0  0  0  0  0  0  0
   38.4170   31.5390   37.6810 C   0  0  0  0  0  0  0  0  0  0  0  0
   37.3390   32.1720   37.6410 O   0  0  0  0  0  0  0  0  0  0  0  0
   38.8720   30.8050   37.0180 H   0  0  0  0  0  0  0  0  0  0  0  0
  1 15  1  0  0  0  0
  2  1  1  6  0  0  0
  2  3  1  0  0  0  0
  3  4  1  0  0  0  0
  4  5  1  0  0  0  0
  5  6  2  0  0  0  0
  7  9  1  0  0  0  0
  7  5  1  0  0  0  0
  8  7  1  0  0  0  0
  9 10  1  6  0  0  0
  9  4  1  0  0  0  0
 10  2  1  0  0  0  0
 11  2  1  0  0  0  0
 12 11  1  0  0  0  0
 13 18  1  0  0  0  0
 14 13  2  0  0  0  0
 14 15  1  0  0  0  0
 15 16  2  0  0  0  0
 16 17  1  0  0  0  0
 17 20  1  0  0  0  0
 18 17  2  0  0  0  0
 19 13  1  0  0  0  0
 21 14  1  0  0  0  0
 22 21  2  0  0  0  0
 23 21  1  0  0  0  0
M  END
>  <minimizedAffinity>
-4.34199619

$$$$

 OpenBabel03252503073D

 23 25  0  0  1  0  0  0  0  0999 V2000
   38.4420   28.2640   40.6360 C   0  0  0  0  0  2  0  0  0  0  0  0
   37.2650   27.5310   41.2210 C   0  0  2  0  0  0  0  0  0  0  0  0
   37.5400   26.9380   42.5720 C   0  0  0  0  0  2  0  0  0  0  0  0
   38.0470   25.6050   42.3720 N   0  0  0  0  0  0  0  0  0  0  0  0
   38.8700   24.4340   42.4190 C   0  0  0  0  0  0  0  0  0  0  0  0
   39.7920   24.1110   43.2170 O   0  0  0  0  0  0  0  0  0  0  0  0
   38.2050   23.8290   41.2130 C   0  0  0  0  0  3  0  0  0  0  0  0
   38.7620   24.0020   40.2770 H   0  0  0  0  0  0  0  0  0  0  0  0
   37.1330   24.8360   41.5440 C   0  0  2  0  0  3  0  0  0  0  0  0
   36.8260   26.0650   40.2360 S   0  0  0  0  0  0  0  0  0  0  0  0
   36.0630   28.4100   41.3160 C   0  0  0  0  0  2  0  0  0  0  0  0
   36.3520   29.4760   41.2430 H   0  0  0  0  0  0  0  0  0  0  0  0
   37.7860   31.9680   40.4630 C   0  0  0  0  0  0  0  0  0  0  0  0
   38.2410   30.7360   40.9410 C   0  0  0  0  0  0  0  0  0  0  0  0
   37.9810   29.5910   40.1730 C   0  0  0  0  0  0  0  0  0  0  0  0
   37.3020   29.7410   39.0080 N   0  0  0  0  0  0  0  0  0  0  0  0
   36.8740   30.9430   38.5710 C   0  0  0  0  0  0  0  0  0  0  0  0
   37.1210   32.0340   39.3010 N   0  0  0  0  0  0  0  0  0  0  0  0
   37.9610   32.8750   41.0170 H   0  0  0  0  0  0  0  0  0  0  0  0
   36.3340   31.0090   37.6300 H   0  0  0  0  0  0  0  0  0  0  0  0
   38.9590   30.6210   42.1850 C   0  0  0  0  0  0  0  0  0  0  0  0
   40.0560   31.2160   42.2820 O   0  0  0  0  0  0  0  0  0  0  0  0
   38.3900   29.9970   42.8720 H   0  0  0  0  0  0  0  0  0  0  0  0
  2  1  1  6  0  0  0
  2 11  1  0  0  0  0
  2  3  1  0  0  0  0
  4  5  1  0  0  0  0
  4  3  1  0  0  0  0
  5  6  2  0  0  0  0
  7  9  1  0  0  0  0
  7  5  1  0  0  0  0
  8  7  1  0  0  0  0
  9 10  1  6  0  0  0
  9  4  1  0  0  0  0
 10  2  1  0  0  0  0
 12 11  1  0  0  0  0
 13 14  1  0  0  0  0
 13 19  1  0  0  0  0
 14 21  1  0  0  0  0
 15  1  1  0  0  0  0
 15 14  2  0  0  0  0
 16 15  1  0  0  0  0
 17 16  2  0  0  0  0
 17 18  1  0  0  0  0
 18 13  2  0  0  0  0
 20 17  1  0  0  0  0
 21 22  2  0  0  0  0
 21 23  1  0  0  0  0
M  END
>  <minimizedAffinity>
-4.33684683

$$$$

 OpenBabel03252503073D

 23 25  0  0  1  0  0  0  0  0999 V2000
   36.8910   30.2720   41.4230 C   0  0  0  0  0  2  0  0  0  0  0  0
   38.1110   29.5530   41.9330 C   0  0  2  0  0  0  0  0  0  0  0  0
   38.6890   28.5830   40.9440 C   0  0  0  0  0  2  0  0  0  0  0  0
   38.0610   27.3050   41.1620 N   0  0  0  0  0  0  0  0  0  0  0  0
   37.3530   26.0770   40.9580 C   0  0  0  0  0  0  0  0  0  0  0  0
   37.1060   25.4390   39.8980 O   0  0  0  0  0  0  0  0  0  0  0  0
   37.0700   25.9110   42.4260 C   0  0  0  0  0  3  0  0  0  0  0  0
   36.0680   26.2680   42.7180 H   0  0  0  0  0  0  0  0  0  0  0  0
   38.1930   26.9080   42.5540 C   0  0  2  0  0  3  0  0  0  0  0  0
   37.7180   28.4780   43.3470 S   0  0  0  0  0  0  0  0  0  0  0  0
   39.1770   30.5080   42.3500 C   0  0  0  0  0  2  0  0  0  0  0  0
   38.9950   31.5110   41.9180 H   0  0  0  0  0  0  0  0  0  0  0  0
   36.3840   29.9430   37.7060 C   0  0  0  0  0  0  0  0  0  0  0  0
   36.2130   29.7380   39.0780 C   0  0  0  0  0  0  0  0  0  0  0  0
   37.0340   30.4530   39.9620 C   0  0  0  0  0  0  0  0  0  0  0  0
   37.9510   31.3060   39.4370 N   0  0  0  0  0  0  0  0  0  0  0  0
   38.0950   31.4830   38.1080 C   0  0  0  0  0  0  0  0  0  0  0  0
   37.3140   30.8030   37.2660 N   0  0  0  0  0  0  0  0  0  0  0  0
   35.7780   29.4160   36.9880 H   0  0  0  0  0  0  0  0  0  0  0  0
   38.8450   32.1770   37.7400 H   0  0  0  0  0  0  0  0  0  0  0  0
   35.2250   28.8230   39.5930 C   0  0  0  0  0  0  0  0  0  0  0  0
   34.0370   29.2110   39.6390 O   0  0  0  0  0  0  0  0  0  0  0  0
   35.7120   27.8890   39.8730 H   0  0  0  0  0  0  0  0  0  0  0  0
  2  1  1  6  0  0  0
  2 11  1  0  0  0  0
  2 10  1  0  0  0  0
  3  4  1  0  0  0  0
  3  2  1  0  0  0  0
  4  9  1  0  0  0  0
  5  4  1  0  0  0  0
  5  7  1  0  0  0  0
  6  5  2  0  0  0  0
  7  8  1  0  0  0  0
  9  7  1  1  0  0  0
  9 10  1  0  0  0  0
 12 11  1  0  0  0  0
 13 14  1  0  0  0  0
 14 21  1  0  0  0  0
 14 15  2  0  0  0  0
 15  1  1  0  0  0  0
 16 15  1  0  0  0  0
 17 16  2  0  0  0  0
 18 13  2  0  0  0  0
 18 17  1  0  0  0  0
 19 13  1  0  0  0  0
 20 17  1  0  0  0  0
 21 22  2  0  0  0  0
 21 23  1  0  0  0  0
M  END
>  <minimizedAffinity>
-4.30192423

$$$$
