
 OpenBabel03242513113D

 23 26  0  0  1  0  0  0  0  0999 V2000
   45.2420   30.1380   47.9200 C   0  0  0  0  0  0  0  0  0  0  0  0
   44.6800   29.6820   46.6080 C   0  0  0  0  0  0  0  0  0  0  0  0
   45.5140   30.2040   45.5640 N   0  0  2  0  0  0  0  0  0  0  0  0
   45.8760   30.8190   44.3350 C   0  0  1  0  0  0  0  0  0  0  0  0
   45.4100   30.9480   43.1570 O   0  0  0  0  0  0  0  0  0  0  0  0
   47.1060   31.2990   44.9820 C   0  0  2  0  0  0  0  0  0  0  0  0
   46.9070   30.0730   45.8140 C   0  0  1  0  0  0  0  0  0  0  0  0
   47.0200   30.3150   47.6000 S   0  0  0  0  0  0  0  0  0  0  0  0
   46.8790   32.5860   45.6940 C   0  0  0  0  0  0  0  0  0  0  0  0
   47.3550   32.5980   46.8560 O   0  0  0  0  0  0  0  0  0  0  0  0
   44.5500   35.3390   45.3710 C   0  0  0  0  0  0  0  0  0  0  0  0
   44.7780   35.8480   44.0700 C   0  0  0  0  0  0  0  0  0  0  0  0
   45.7650   35.2030   43.3100 C   0  0  0  0  0  0  0  0  0  0  0  0
   46.4380   34.1440   43.8550 N   0  0  0  0  0  0  0  0  0  0  0  0
   46.1750   33.7110   45.0940 C   0  0  0  0  0  0  0  0  0  0  0  0
   45.2310   34.3060   45.8600 N   0  0  0  0  0  0  0  0  0  0  0  0
   43.7940   35.7990   46.0120 H   0  0  0  0  0  0  0  0  0  0  0  0
   44.1980   36.6840   43.7320 H   0  0  0  0  0  0  0  0  0  0  0  0
   45.9580   35.5710   42.3150 H   0  0  0  0  0  0  0  0  0  0  0  0
   44.6090   31.3540   48.5000 C   0  0  0  0  0  0  0  0  0  0  0  0
   45.3540   31.8530   49.1870 H   0  0  0  0  0  0  0  0  0  0  0  0
   45.1030   28.9440   48.8740 C   0  0  0  0  0  0  0  0  0  0  0  0
   46.0010   28.8350   49.5260 H   0  0  0  0  0  0  0  0  0  0  0  0
  1 20  1  0  0  0  0
  1 22  1  0  0  0  0
  2  1  1  0  0  0  0
  3  7  1  0  0  0  0
  3  2  1  6  0  0  0
  4  5  1  6  0  0  0
  4  6  1  0  0  0  0
  4  3  1  0  0  0  0
  4  7  1  0  0  0  0
  6  9  1  1  0  0  0
  6  7  1  0  0  0  0
  7  8  1  1  0  0  0
  8  1  1  0  0  0  0
  9 10  2  0  0  0  0
 11 16  1  0  0  0  0
 11 17  1  0  0  0  0
 12 11  2  0  0  0  0
 13 14  2  0  0  0  0
 13 12  1  0  0  0  0
 14 15  1  0  0  0  0
 15  9  1  0  0  0  0
 15 16  2  0  0  0  0
 18 12  1  0  0  0  0
 19 13  1  0  0  0  0
 20 21  1  0  0  0  0
 22 23  1  0  0  0  0
M  END
>  <minimizedAffinity>
-4.25814295

>  <minimizedRMSD>
1.48226118

$$$$
