
 OpenBabel03252503313D

 44 47  0  0  1  0  0  0  0  0999 V2000
   45.5740   34.3580   42.3600 C   0  0  0  0  0  0  0  0  0  0  0  0
   46.6070   35.1460   41.7700 C   0  0  0  0  0  0  0  0  0  0  0  0
   47.9160   34.8760   42.2100 C   0  0  0  0  0  0  0  0  0  0  0  0
   48.0890   33.9150   43.1340 N   0  0  0  0  0  0  0  0  0  0  0  0
   47.0750   33.1980   43.6610 C   0  0  0  0  0  0  0  0  0  0  0  0
   45.8070   33.4280   43.2640 N   0  0  0  0  0  0  0  0  0  0  0  0
   43.9560   34.0260   40.6970 C   0  0  0  0  0  0  0  0  0  0  0  0
   44.9120   33.4760   40.0510 O   0  0  0  0  0  0  0  0  0  0  0  0
   44.2100   34.5670   41.9690 N   0  0  0  0  0  0  0  0  0  0  0  0
   42.6830   34.0470   40.0690 N   0  0  0  0  0  0  0  0  0  0  0  0
   42.5790   33.7620   38.6240 C   0  0  0  0  0  0  0  0  0  0  0  0
   41.4000   34.5930   38.2200 C   0  0  0  0  0  0  0  0  0  0  0  0
   40.8650   35.2010   39.4840 C   0  0  0  0  0  0  0  0  0  0  0  0
   41.3650   34.2830   40.5730 C   0  0  1  0  0  0  0  0  0  0  0  0
   46.2820   35.8690   41.0460 H   0  0  0  0  0  0  0  0  0  0  0  0
   47.2850   32.4250   44.4140 H   0  0  0  0  0  0  0  0  0  0  0  0
   43.4220   35.0230   42.4350 H   0  0  0  0  0  0  0  0  0  0  0  0
   42.3920   32.6650   38.5820 H   0  0  0  0  0  0  0  0  0  0  0  0
   43.4970   34.0030   38.0890 H   0  0  0  0  0  0  0  0  0  0  0  0
   41.7160   35.3560   37.4780 H   0  0  0  0  0  0  0  0  0  0  0  0
   40.6360   33.8870   37.7980 H   0  0  0  0  0  0  0  0  0  0  0  0
   39.9390   35.6710   39.5040 H   0  0  0  0  0  0  0  0  0  0  0  0
   41.5860   36.0810   39.6260 H   0  0  0  0  0  0  0  0  0  0  0  0
   41.3370   34.8000   41.5280 H   0  0  0  0  0  0  0  0  0  0  0  0
   39.2130   32.9040   40.8550 C   0  0  0  0  0  0  0  0  0  0  0  0
   38.6610   34.0010   40.6310 O   0  0  0  0  0  0  0  0  0  0  0  0
   40.6490   33.0220   40.6910 N   0  0  0  0  0  0  0  0  0  0  0  0
   41.2380   32.1340   40.6540 H   0  0  0  0  0  0  0  0  0  0  0  0
   39.8800   27.9290   41.9110 C   0  0  0  0  0  0  0  0  0  0  0  0
   40.4760   28.6890   40.7150 C   0  0  0  0  0  2  0  0  0  0  0  0
   39.5560   29.7930   40.4530 N   0  0  0  0  0  0  0  0  0  0  0  0
   38.6020   30.7510   40.0020 C   0  0  0  0  0  0  0  0  0  0  0  0
   37.9870   30.7160   38.8820 O   0  0  0  0  0  0  0  0  0  0  0  0
   38.7100   31.5740   41.2350 C   0  0  1  0  0  3  0  0  0  0  0  0
   39.7990   30.6430   41.6130 C   0  0  1  0  0  3  0  0  0  0  0  0
   39.3770   29.3990   42.8990 S   0  0  0  0  0  0  0  0  0  0  0  0
   40.9080   27.1240   42.6210 C   0  0  0  0  0  2  0  0  0  0  0  0
   40.8560   26.0490   42.3060 H   0  0  0  0  0  0  0  0  0  0  0  0
   38.7050   27.1720   41.3870 C   0  0  0  0  0  2  0  0  0  0  0  0
   37.7830   27.6810   41.7850 H   0  0  0  0  0  0  0  0  0  0  0  0
   48.9520   35.6940   41.5920 C   0  0  0  0  0  0  0  0  0  0  0  0
   50.1960   35.1860   41.9580 F   0  0  0  0  0  0  0  0  0  0  0  0
   48.8840   36.9610   42.1860 F   0  0  0  0  0  0  0  0  0  0  0  0
   48.8820   35.7390   40.2330 F   0  0  0  0  0  0  0  0  0  0  0  0
  1  6  1  0  0  0  0
  2  3  1  0  0  0  0
  2  1  2  0  0  0  0
  3  4  2  0  0  0  0
  4  5  1  0  0  0  0
  5 16  1  0  0  0  0
  6  5  2  0  0  0  0
  7  9  1  0  0  0  0
  8  7  2  0  0  0  0
  9  1  1  0  0  0  0
  9 17  1  0  0  0  0
 10 14  1  0  0  0  0
 10  7  1  0  0  0  0
 11 10  1  0  0  0  0
 12 11  1  0  0  0  0
 12 13  1  0  0  0  0
 13 22  1  0  0  0  0
 13 23  1  0  0  0  0
 13 14  1  0  0  0  0
 14 27  1  0  0  0  0
 14 24  1  1  0  0  0
 15  2  1  0  0  0  0
 18 11  1  0  0  0  0
 19 11  1  0  0  0  0
 20 12  1  0  0  0  0
 21 12  1  0  0  0  0
 26 25  2  0  0  0  0
 27 25  1  0  0  0  0
 28 27  1  0  0  0  0
 29 37  1  0  0  0  0
 29 36  1  0  0  0  0
 30 29  1  0  0  0  0
 31 30  1  0  0  0  0
 31 35  1  0  0  0  0
 32 31  1  0  0  0  0
 32 34  1  0  0  0  0
 33 32  2  0  0  0  0
 34 25  1  6  0  0  0
 34 35  1  0  0  0  0
 35 36  1  1  0  0  0
 38 37  1  0  0  0  0
 39 40  1  0  0  0  0
 39 29  1  0  0  0  0
 41 42  1  0  0  0  0
 41 43  1  0  0  0  0
 41  3  1  0  0  0  0
 44 41  1  0  0  0  0
M  END
>  <minimizedAffinity>
-7.1228385

>  <minimizedRMSD>
1.46161866

$$$$
