
 OpenBabel03242518553D

 45 48  0  0  1  0  0  0  0  0999 V2000
   45.6800   31.0750   46.5130 C   0  0  2  0  0  0  0  0  0  0  0  0
   45.8170   30.2050   47.7210 C   0  0  0  0  0  0  0  0  0  0  0  0
   45.0160   28.9750   47.4640 C   0  0  0  0  0  0  0  0  0  0  0  0
   44.2490   28.9550   46.1890 C   0  0  0  0  0  0  0  0  0  0  0  0
   45.1630   29.2090   45.0220 C   0  0  0  0  0  0  0  0  0  0  0  0
   46.1060   30.2850   45.2910 C   0  0  2  0  0  0  0  0  0  0  0  0
   44.6050   31.2840   46.3370 H   0  0  0  0  0  0  0  0  0  0  0  0
   46.8470   29.9870   48.0220 H   0  0  0  0  0  0  0  0  0  0  0  0
   45.4000   30.8050   48.5910 H   0  0  0  0  0  0  0  0  0  0  0  0
   45.5840   28.0150   47.5750 H   0  0  0  0  0  0  0  0  0  0  0  0
   44.2450   28.9030   48.2840 H   0  0  0  0  0  0  0  0  0  0  0  0
   43.8140   27.9300   46.0980 H   0  0  0  0  0  0  0  0  0  0  0  0
   43.3620   29.6420   46.2040 H   0  0  0  0  0  0  0  0  0  0  0  0
   45.5550   28.2300   44.6930 H   0  0  0  0  0  0  0  0  0  0  0  0
   44.4860   29.5300   44.1770 H   0  0  0  0  0  0  0  0  0  0  0  0
   46.2060   30.9780   44.4540 H   0  0  0  0  0  0  0  0  0  0  0  0
   47.4210   29.6270   45.5330 C   0  0  0  0  0  0  0  0  0  0  0  0
   47.4580   28.5480   45.2940 H   0  0  0  0  0  0  0  0  0  0  0  0
   47.6500   29.7370   46.6170 H   0  0  0  0  0  0  0  0  0  0  0  0
   49.2140   31.6330   41.1420 C   0  0  0  0  0  0  0  0  0  0  0  0
   48.8850   30.1700   41.3190 C   0  0  0  0  0  2  0  0  0  0  0  0
   49.0350   29.8430   42.7210 N   0  0  0  0  0  0  0  0  0  0  0  0
   49.3910   29.3360   44.0030 C   0  0  0  0  0  0  0  0  0  0  0  0
   50.1670   28.3730   44.3130 O   0  0  0  0  0  0  0  0  0  0  0  0
   48.5620   30.2990   44.7660 C   0  0  1  0  0  3  0  0  0  0  0  0
   48.0470   30.6890   43.4010 C   0  0  1  0  0  3  0  0  0  0  0  0
   48.6950   32.2920   42.7770 S   0  0  0  0  0  0  0  0  0  0  0  0
   48.3070   32.2920   40.1230 C   0  0  0  0  0  2  0  0  0  0  0  0
   48.1540   31.6810   39.2110 H   0  0  0  0  0  0  0  0  0  0  0  0
   50.6640   31.8830   40.8640 C   0  0  0  0  0  2  0  0  0  0  0  0
   51.0660   30.9560   40.3590 H   0  0  0  0  0  0  0  0  0  0  0  0
   46.3720   32.3830   46.6200 C   0  0  0  0  0  0  0  0  0  0  0  0
   47.4120   32.5470   47.3070 O   0  0  0  0  0  0  0  0  0  0  0  0
   44.4200   35.3650   45.8230 C   0  0  0  0  0  0  0  0  0  0  0  0
   44.6890   35.6020   44.4520 C   0  0  0  0  0  0  0  0  0  0  0  0
   45.5520   34.7150   43.8330 C   0  0  0  0  0  0  0  0  0  0  0  0
   46.0290   33.7390   44.6090 N   0  0  0  0  0  0  0  0  0  0  0  0
   45.7860   33.5100   45.8830 C   0  0  0  0  0  0  0  0  0  0  0  0
   44.9520   34.3550   46.5080 N   0  0  0  0  0  0  0  0  0  0  0  0
   43.7400   36.0450   46.3510 H   0  0  0  0  0  0  0  0  0  0  0  0
   44.2210   36.4410   43.9600 H   0  0  0  0  0  0  0  0  0  0  0  0
   45.8280   34.9470   42.4250 C   0  0  0  0  0  0  0  0  0  0  0  0
   45.8060   33.7380   41.7380 F   0  0  0  0  0  0  0  0  0  0  0  0
   47.0750   35.4760   42.3480 F   0  0  0  0  0  0  0  0  0  0  0  0
   44.8560   35.7360   41.8190 F   0  0  0  0  0  0  0  0  0  0  0  0
  1  7  1  6  0  0  0
  1 32  1  0  0  0  0
  1  2  1  0  0  0  0
  2  8  1  0  0  0  0
  2  9  1  0  0  0  0
  3 10  1  0  0  0  0
  3  2  1  0  0  0  0
  3 11  1  0  0  0  0
  4 13  1  0  0  0  0
  4  3  1  0  0  0  0
  5  6  1  0  0  0  0
  5  4  1  0  0  0  0
  6 16  1  6  0  0  0
  6 17  1  0  0  0  0
  6  1  1  0  0  0  0
 12  4  1  0  0  0  0
 14  5  1  0  0  0  0
 15  5  1  0  0  0  0
 17 19  1  0  0  0  0
 18 17  1  0  0  0  0
 20 21  1  0  0  0  0
 20 27  1  0  0  0  0
 21 22  1  0  0  0  0
 22 26  1  0  0  0  0
 22 23  1  0  0  0  0
 23 24  2  0  0  0  0
 23 25  1  0  0  0  0
 25 17  1  1  0  0  0
 26 27  1  6  0  0  0
 26 25  1  0  0  0  0
 28 20  1  0  0  0  0
 29 28  1  0  0  0  0
 30 20  1  0  0  0  0
 31 30  1  0  0  0  0
 32 33  2  0  0  0  0
 34 40  1  0  0  0  0
 34 39  1  0  0  0  0
 35 34  2  0  0  0  0
 36 35  1  0  0  0  0
 36 37  2  0  0  0  0
 37 38  1  0  0  0  0
 38 39  2  0  0  0  0
 38 32  1  0  0  0  0
 41 35  1  0  0  0  0
 42 36  1  0  0  0  0
 43 42  1  0  0  0  0
 44 42  1  0  0  0  0
 45 42  1  0  0  0  0
M  END
>  <minimizedAffinity>
-5.35253143

>  <minimizedRMSD>
1.83035731

$$$$
