
 OpenBabel03242523543D

 48 52  0  0  1  0  0  0  0  0999 V2000
   42.8090   34.4650   38.7400 C   0  0  1  0  0  0  0  0  0  0  0  0
   42.9880   35.1560   40.0870 C   0  0  1  0  0  0  0  0  0  0  0  0
   41.7120   35.4260   40.6170 O   0  0  0  0  0  0  0  0  0  0  0  0
   40.7870   35.7760   39.6330 C   0  0  0  0  0  0  0  0  0  0  0  0
   40.4310   34.5980   38.7470 C   0  0  2  0  0  0  0  0  0  0  0  0
   41.6170   33.5750   38.8780 C   0  0  1  0  0  0  0  0  0  0  0  0
   43.6790   33.8130   38.5120 H   0  0  0  0  0  0  0  0  0  0  0  0
   43.6010   36.0580   40.0360 H   0  0  0  0  0  0  0  0  0  0  0  0
   41.0910   36.6650   39.0450 H   0  0  0  0  0  0  0  0  0  0  0  0
   39.8780   36.0670   40.1750 H   0  0  0  0  0  0  0  0  0  0  0  0
   39.4880   34.1030   39.0320 H   0  0  0  0  0  0  0  0  0  0  0  0
   41.4080   33.2990   39.9610 H   0  0  0  0  0  0  0  0  0  0  0  0
   42.6100   35.4070   37.7230 O   0  0  0  0  0  0  0  0  0  0  0  0
   43.2650   35.3490   36.9980 H   0  0  0  0  0  0  0  0  0  0  0  0
   40.4420   35.0000   37.4180 O   0  0  0  0  0  0  0  0  0  0  0  0
   40.3610   35.9610   37.3020 H   0  0  0  0  0  0  0  0  0  0  0  0
   43.5040   34.1630   40.9410 O   0  0  0  0  0  0  0  0  0  0  0  0
   44.6100   34.2980   41.6820 C   0  0  0  0  0  0  0  0  0  0  0  0
   45.8740   34.4190   41.0860 C   0  0  0  0  0  0  0  0  0  0  0  0
   46.9820   34.5580   41.9060 C   0  0  0  0  0  0  0  0  0  0  0  0
   46.8130   34.5740   43.2770 N   0  0  0  0  0  0  0  0  0  0  0  0
   45.5770   34.4540   43.8190 C   0  0  0  0  0  0  0  0  0  0  0  0
   44.4840   34.3170   43.0260 N   0  0  0  0  0  0  0  0  0  0  0  0
   46.0090   34.4070   40.0230 H   0  0  0  0  0  0  0  0  0  0  0  0
   45.4460   34.4670   44.8910 H   0  0  0  0  0  0  0  0  0  0  0  0
   48.3630   34.6730   41.3470 C   0  0  0  0  0  0  0  0  0  0  0  0
   49.0650   36.0200   41.5240 C   0  0  0  0  0  0  0  0  0  0  0  0
   49.5080   34.7040   42.1970 C   0  0  0  0  0  0  0  0  0  0  0  0
   48.4290   34.2360   40.3170 H   0  0  0  0  0  0  0  0  0  0  0  0
   48.5390   36.7660   42.1350 H   0  0  0  0  0  0  0  0  0  0  0  0
   49.7100   36.3920   40.7070 H   0  0  0  0  0  0  0  0  0  0  0  0
   49.4310   34.7350   43.3020 H   0  0  0  0  0  0  0  0  0  0  0  0
   50.5010   34.3360   41.8650 H   0  0  0  0  0  0  0  0  0  0  0  0
   41.4480   32.6360   37.9260 O   0  0  0  0  0  0  0  0  0  0  0  0
   40.4780   31.6980   37.8340 C   0  0  0  0  0  0  0  0  0  0  0  0
   39.2090   32.0150   37.8810 O   0  0  0  0  0  0  0  0  0  0  0  0
   43.6240   29.9510   36.6970 C   0  0  0  0  0  0  0  0  0  0  0  0
   42.6410   29.2630   35.7970 C   0  0  0  0  0  2  0  0  0  0  0  0
   41.3270   29.5000   36.2960 N   0  0  0  0  0  0  0  0  0  0  0  0
   39.9460   29.8310   36.2690 C   0  0  0  0  0  0  0  0  0  0  0  0
   38.9940   29.7870   35.4370 O   0  0  0  0  0  0  0  0  0  0  0  0
   40.0510   30.2760   37.6800 C   0  0  1  0  0  3  0  0  0  0  0  0
   41.2120   29.3140   37.7030 C   0  0  2  0  0  3  0  0  0  0  0  0
   42.7680   30.0800   38.2920 S   0  0  0  0  0  0  0  0  0  0  0  0
   44.1570   31.2460   36.1940 C   0  0  0  0  0  2  0  0  0  0  0  0
   43.6630   31.6000   35.2660 H   0  0  0  0  0  0  0  0  0  0  0  0
   44.7510   28.9350   36.9210 C   0  0  0  0  0  2  0  0  0  0  0  0
   45.2260   29.0780   37.9250 H   0  0  0  0  0  0  0  0  0  0  0  0
  1  7  1  6  0  0  0
  1  6  1  0  0  0  0
  1  2  1  0  0  0  0
  2  8  1  6  0  0  0
  2  3  1  0  0  0  0
  2 17  1  0  0  0  0
  4 10  1  0  0  0  0
  4  3  1  0  0  0  0
  5  6  1  0  0  0  0
  5 11  1  1  0  0  0
  5  4  1  0  0  0  0
  6 12  1  1  0  0  0
  9  4  1  0  0  0  0
 13  1  1  0  0  0  0
 14 13  1  0  0  0  0
 15  5  1  0  0  0  0
 16 15  1  0  0  0  0
 17 18  1  0  0  0  0
 18 23  1  0  0  0  0
 19 18  2  0  0  0  0
 19 20  1  0  0  0  0
 20 21  2  0  0  0  0
 21 22  1  0  0  0  0
 22 25  1  0  0  0  0
 23 22  2  0  0  0  0
 24 19  1  0  0  0  0
 26 27  1  0  0  0  0
 26 20  1  0  0  0  0
 26 28  1  0  0  0  0
 27 30  1  0  0  0  0
 27 28  1  0  0  0  0
 28 32  1  0  0  0  0
 29 26  1  0  0  0  0
 31 27  1  0  0  0  0
 33 28  1  0  0  0  0
 34  6  1  0  0  0  0
 35 36  2  0  0  0  0
 35 34  1  0  0  0  0
 37 47  1  0  0  0  0
 37 44  1  0  0  0  0
 38 39  1  0  0  0  0
 38 37  1  0  0  0  0
 39 43  1  0  0  0  0
 40 39  1  0  0  0  0
 40 42  1  0  0  0  0
 41 40  2  0  0  0  0
 42 43  1  0  0  0  0
 42 35  1  6  0  0  0
 43 44  1  1  0  0  0
 45 37  1  0  0  0  0
 46 45  1  0  0  0  0
 47 48  1  0  0  0  0
M  END
>  <minimizedAffinity>
-6.22269344

>  <minimizedRMSD>
1.03643787

$$$$
