
 OpenBabel03242513143D

 33 37  0  0  1  0  0  0  0  0999 V2000
   44.9070   31.0190   48.2750 Cl  0  0  0  0  0  0  0  0  0  0  0  0
   46.0160   30.8210   46.9050 C   0  0  0  0  0  0  0  0  0  0  0  0
   46.2950   31.8920   46.1100 C   0  0  0  0  0  0  0  0  0  0  0  0
   47.2070   31.7180   45.1020 C   0  0  0  0  0  0  0  0  0  0  0  0
   47.8150   30.4970   44.9050 C   0  0  0  0  0  0  0  0  0  0  0  0
   47.5190   29.3970   45.7290 C   0  0  0  0  0  0  0  0  0  0  0  0
   46.5910   29.5920   46.7480 C   0  0  0  0  0  0  0  0  0  0  0  0
   47.5620   32.4360   44.3950 H   0  0  0  0  0  0  0  0  0  0  0  0
   48.5560   30.2910   44.1140 H   0  0  0  0  0  0  0  0  0  0  0  0
   48.0180   28.4430   45.5470 H   0  0  0  0  0  0  0  0  0  0  0  0
   45.6180   33.1540   46.3350 C   0  0  0  0  0  0  0  0  0  0  0  0
   45.1640   33.3540   47.4980 O   0  0  0  0  0  0  0  0  0  0  0  0
   44.5110   36.1240   44.5720 C   0  0  0  0  0  0  0  0  0  0  0  0
   45.1400   36.0740   43.3280 C   0  0  0  0  0  0  0  0  0  0  0  0
   45.9630   34.9670   43.1230 C   0  0  0  0  0  0  0  0  0  0  0  0
   46.0960   34.0350   44.1200 N   0  0  0  0  0  0  0  0  0  0  0  0
   45.4670   34.1370   45.2940 C   0  0  0  0  0  0  0  0  0  0  0  0
   44.6770   35.1920   45.4990 N   0  0  0  0  0  0  0  0  0  0  0  0
   43.8770   37.0060   44.6880 H   0  0  0  0  0  0  0  0  0  0  0  0
   45.0090   36.8300   42.5650 H   0  0  0  0  0  0  0  0  0  0  0  0
   46.4990   34.8320   42.1910 H   0  0  0  0  0  0  0  0  0  0  0  0
   46.3050   28.3850   47.5240 C   0  0  0  0  0  0  0  0  0  0  0  0
   45.1260   27.5910   47.1680 C   0  0  1  0  0  0  0  0  0  0  0  0
   44.1040   28.1770   46.2890 C   0  0  0  0  0  0  0  0  0  0  0  0
   43.2340   27.1300   45.8010 N   0  0  1  0  0  0  0  0  0  0  0  0
   42.1390   26.3690   45.2610 C   0  0  1  0  0  0  0  0  0  0  0  0
   40.8880   26.3390   45.3830 O   0  0  0  0  0  0  0  0  0  0  0  0
   43.2530   25.6550   44.5020 C   0  0  0  0  0  0  0  0  0  0  0  0
   43.7350   26.2820   43.7550 H   0  0  0  0  0  0  0  0  0  0  0  0
   43.8430   25.7620   45.8520 C   0  0  1  0  0  0  0  0  0  0  0  0
   45.5990   26.1910   46.0210 S   0  0  0  0  0  0  0  0  0  0  0  0
   44.4530   26.9510   48.3890 C   0  0  0  0  0  0  0  0  0  0  0  0
   43.3430   26.9010   48.2360 H   0  0  0  0  0  0  0  0  0  0  0  0
  2  1  1  0  0  0  0
  3 11  1  0  0  0  0
  3  2  2  0  0  0  0
  4  3  1  0  0  0  0
  5  4  2  0  0  0  0
  5  6  1  0  0  0  0
  6  7  2  0  0  0  0
  7  2  1  0  0  0  0
  7 22  1  0  0  0  0
  8  4  1  0  0  0  0
  9  5  1  0  0  0  0
 10  6  1  0  0  0  0
 11 12  2  0  0  0  0
 13 19  1  0  0  0  0
 13 18  1  0  0  0  0
 14 13  2  0  0  0  0
 15 14  1  0  0  0  0
 15 16  2  0  0  0  0
 16 17  1  0  0  0  0
 17 18  2  0  0  0  0
 17 11  1  0  0  0  0
 20 14  1  0  0  0  0
 21 15  1  0  0  0  0
 23 22  1  1  0  0  0
 23 32  1  0  0  0  0
 24 23  1  0  0  0  0
 25 30  1  0  0  0  0
 25 24  1  6  0  0  0
 26 27  1  1  0  0  0
 26 25  1  0  0  0  0
 26 30  1  0  0  0  0
 28 26  1  0  0  0  0
 29 28  1  0  0  0  0
 30 28  1  6  0  0  0
 30 31  1  0  0  0  0
 31 23  1  0  0  0  0
 33 32  1  0  0  0  0
M  END
>  <minimizedAffinity>
-5.33532667

>  <minimizedRMSD>
0.611611903

$$$$
