
 OpenBabel03242514343D

 29 32  0  0  1  0  0  0  0  0999 V2000
   37.2290   29.3810   39.6820 O   0  0  0  0  0  0  0  0  0  0  0  0
   34.6690   29.2080   39.8010 O   0  0  0  0  0  0  0  0  0  0  0  0
   35.8710   29.4760   40.6500 P   0  0  2  0  0  0  0  0  0  0  0  0
   35.7210   31.0390   41.2480 O   0  0  0  0  0  0  0  0  0  0  0  0
   36.4610   31.6300   41.0090 H   0  0  0  0  0  0  0  0  0  0  0  0
   35.9740   28.3420   41.9310 O   0  0  0  0  0  0  0  0  0  0  0  0
   37.4730   26.4850   42.1160 C   0  0  0  0  0  0  0  0  0  0  0  0
   37.2150   27.8360   42.3390 C   0  0  0  0  0  0  0  0  0  0  0  0
   38.1960   28.6160   42.9520 C   0  0  0  0  0  0  0  0  0  0  0  0
   39.3670   28.0050   43.3040 N   0  0  0  0  0  0  0  0  0  0  0  0
   39.5820   26.7080   43.0760 C   0  0  0  0  0  0  0  0  0  0  0  0
   38.6460   25.9590   42.4900 N   0  0  0  0  0  0  0  0  0  0  0  0
   36.7800   25.7940   41.6480 H   0  0  0  0  0  0  0  0  0  0  0  0
   37.9860   29.6650   43.1220 H   0  0  0  0  0  0  0  0  0  0  0  0
   40.5120   26.2160   43.3540 H   0  0  0  0  0  0  0  0  0  0  0  0
   38.0470   30.4210   39.3770 C   0  0  1  0  0  3  0  0  0  0  0  0
   38.7990   30.1480   38.3670 O   0  0  0  0  0  0  0  0  0  0  0  0
   41.6790   33.8540   39.7820 C   0  0  0  0  0  0  0  0  0  0  0  0
   40.4160   34.3240   40.4170 C   0  0  0  0  0  2  0  0  0  0  0  0
   39.3620   33.4120   40.0490 N   0  0  0  0  0  0  0  0  0  0  0  0
   38.1100   32.9110   39.5440 C   0  0  0  0  0  0  0  0  0  0  0  0
   36.9720   33.4930   39.5080 O   0  0  0  0  0  0  0  0  0  0  0  0
   38.8440   31.6620   39.2130 C   0  0  1  0  0  0  0  0  0  0  0  0
   39.7100   32.0620   40.3570 C   0  0  1  0  0  3  0  0  0  0  0  0
   41.4950   32.0370   39.9360 S   0  0  0  0  0  0  0  0  0  0  0  0
   41.9030   34.2950   38.3780 C   0  0  0  0  0  2  0  0  0  0  0  0
   41.0510   34.2080   37.6990 H   0  0  0  0  0  0  0  0  0  0  0  0
   42.8320   34.3320   40.6380 C   0  0  0  0  0  2  0  0  0  0  0  0
   42.8200   33.6780   41.5490 H   0  0  0  0  0  0  0  0  0  0  0  0
  1  3  1  0  0  0  0
  3  2  2  6  0  0  0
  3  4  1  0  0  0  0
  3  6  1  0  0  0  0
  5  4  1  0  0  0  0
  6  8  1  0  0  0  0
  7  8  2  0  0  0  0
  7 12  1  0  0  0  0
  8  9  1  0  0  0  0
  9 14  1  0  0  0  0
  9 10  2  0  0  0  0
 11 10  1  0  0  0  0
 11 15  1  0  0  0  0
 12 11  2  0  0  0  0
 13  7  1  0  0  0  0
 16  1  1  6  0  0  0
 17 16  1  0  0  0  0
 18 25  1  0  0  0  0
 18 19  1  0  0  0  0
 18 28  1  0  0  0  0
 20 24  1  0  0  0  0
 20 19  1  0  0  0  0
 21 20  1  0  0  0  0
 22 21  2  0  0  0  0
 23 17  1  6  0  0  0
 23 16  1  0  0  0  0
 23 21  1  0  0  0  0
 23 24  1  0  0  0  0
 24 25  1  6  0  0  0
 26 18  1  0  0  0  0
 27 26  1  0  0  0  0
 28 29  1  0  0  0  0
M  END
>  <minimizedAffinity>
-5.42060041

$$$$

 OpenBabel03242514343D

 29 32  0  0  1  0  0  0  0  0999 V2000
   39.9950   32.8680   39.4010 O   0  0  0  0  0  0  0  0  0  0  0  0
   41.6620   33.9460   37.7710 O   0  0  0  0  0  0  0  0  0  0  0  0
   40.9220   32.6710   38.0250 P   0  0  2  0  0  0  0  0  0  0  0  0
   39.9130   32.4080   36.7080 O   0  0  0  0  0  0  0  0  0  0  0  0
   38.9660   32.3410   36.9370 H   0  0  0  0  0  0  0  0  0  0  0  0
   42.0140   31.3660   38.2260 O   0  0  0  0  0  0  0  0  0  0  0  0
   44.1770   31.6020   37.2280 C   0  0  0  0  0  0  0  0  0  0  0  0
   42.9110   31.0210   37.2060 C   0  0  0  0  0  0  0  0  0  0  0  0
   42.5960   30.1300   36.1780 C   0  0  0  0  0  0  0  0  0  0  0  0
   43.5580   29.8750   35.2420 N   0  0  0  0  0  0  0  0  0  0  0  0
   44.7620   30.4480   35.2920 C   0  0  0  0  0  0  0  0  0  0  0  0
   45.0660   31.3000   36.2730 N   0  0  0  0  0  0  0  0  0  0  0  0
   44.5210   32.3040   37.9800 H   0  0  0  0  0  0  0  0  0  0  0  0
   41.6090   29.6840   36.1700 H   0  0  0  0  0  0  0  0  0  0  0  0
   45.5310   30.2490   34.5490 H   0  0  0  0  0  0  0  0  0  0  0  0
   39.6440   31.8750   40.2570 C   0  0  1  0  0  3  0  0  0  0  0  0
   40.3640   31.8960   41.3240 O   0  0  0  0  0  0  0  0  0  0  0  0
   38.8050   27.2460   41.9940 C   0  0  0  0  0  0  0  0  0  0  0  0
   37.6100   27.7840   41.2850 C   0  0  0  0  0  2  0  0  0  0  0  0
   37.8290   29.1870   41.0380 N   0  0  0  0  0  0  0  0  0  0  0  0
   37.6260   30.6130   41.0130 C   0  0  0  0  0  0  0  0  0  0  0  0
   36.5270   31.2640   40.9800 O   0  0  0  0  0  0  0  0  0  0  0  0
   39.1070   30.7340   41.0410 C   0  0  1  0  0  0  0  0  0  0  0  0
   39.0650   29.4100   40.3600 C   0  0  1  0  0  3  0  0  0  0  0  0
   40.1520   28.1680   41.1600 S   0  0  0  0  0  0  0  0  0  0  0  0
   38.8150   27.4190   43.4720 C   0  0  0  0  0  2  0  0  0  0  0  0
   38.5310   28.4050   43.8490 H   0  0  0  0  0  0  0  0  0  0  0  0
   38.9090   25.7720   41.6700 C   0  0  0  0  0  2  0  0  0  0  0  0
   39.2750   25.7230   40.6100 H   0  0  0  0  0  0  0  0  0  0  0  0
  3  2  2  6  0  0  0
  3  6  1  0  0  0  0
  3  1  1  0  0  0  0
  4  5  1  0  0  0  0
  4  3  1  0  0  0  0
  7 13  1  0  0  0  0
  8  7  1  0  0  0  0
  8  6  1  0  0  0  0
  9  8  2  0  0  0  0
 10 11  2  0  0  0  0
 10  9  1  0  0  0  0
 11 12  1  0  0  0  0
 12  7  2  0  0  0  0
 14  9  1  0  0  0  0
 15 11  1  0  0  0  0
 16  1  1  1  0  0  0
 16 23  1  0  0  0  0
 16 17  1  0  0  0  0
 18 26  1  0  0  0  0
 19 18  1  0  0  0  0
 20 19  1  0  0  0  0
 21 20  1  0  0  0  0
 22 21  2  0  0  0  0
 23 21  1  1  0  0  0
 23 17  1  0  0  0  0
 24 20  1  0  0  0  0
 24 23  1  0  0  0  0
 24 25  1  1  0  0  0
 25 18  1  0  0  0  0
 26 27  1  0  0  0  0
 28 18  1  0  0  0  0
 29 28  1  0  0  0  0
M  END
>  <minimizedAffinity>
-5.12026358

$$$$

 OpenBabel03242514343D

 29 32  0  0  1  0  0  0  0  0999 V2000
   37.7630   32.4050   40.6470 O   0  0  0  0  0  0  0  0  0  0  0  0
   37.1600   30.1440   39.5890 O   0  0  0  0  0  0  0  0  0  0  0  0
   37.1480   30.8720   40.8950 P   0  0  2  0  0  0  0  0  0  0  0  0
   35.5460   30.9880   41.3870 O   0  0  0  0  0  0  0  0  0  0  0  0
   35.2340   31.9040   41.5200 H   0  0  0  0  0  0  0  0  0  0  0  0
   38.0840   30.0380   42.0640 O   0  0  0  0  0  0  0  0  0  0  0  0
   36.9790   28.0150   42.7100 C   0  0  0  0  0  0  0  0  0  0  0  0
   38.0770   28.6380   42.1180 C   0  0  0  0  0  0  0  0  0  0  0  0
   39.1080   27.8460   41.6110 C   0  0  0  0  0  0  0  0  0  0  0  0
   38.9830   26.4900   41.7250 N   0  0  0  0  0  0  0  0  0  0  0  0
   37.9190   25.9250   42.2980 C   0  0  0  0  0  0  0  0  0  0  0  0
   36.9300   26.6790   42.7840 N   0  0  0  0  0  0  0  0  0  0  0  0
   36.1280   28.5370   43.1330 H   0  0  0  0  0  0  0  0  0  0  0  0
   39.9570   28.3390   41.1540 H   0  0  0  0  0  0  0  0  0  0  0  0
   37.8140   24.8460   42.3910 H   0  0  0  0  0  0  0  0  0  0  0  0
   39.0780   32.7050   40.4860 C   0  0  1  0  0  3  0  0  0  0  0  0
   39.3190   33.9360   40.7800 O   0  0  0  0  0  0  0  0  0  0  0  0
   43.5770   32.6630   38.2720 C   0  0  0  0  0  0  0  0  0  0  0  0
   43.4660   31.5870   39.2960 C   0  0  0  0  0  2  0  0  0  0  0  0
   42.2630   31.8130   40.0570 N   0  0  0  0  0  0  0  0  0  0  0  0
   41.3760   32.0120   41.1740 C   0  0  0  0  0  0  0  0  0  0  0  0
   41.4830   31.5710   42.3690 O   0  0  0  0  0  0  0  0  0  0  0  0
   40.5380   32.8210   40.2500 C   0  0  1  0  0  0  0  0  0  0  0  0
   41.1240   31.9340   39.2060 C   0  0  1  0  0  3  0  0  0  0  0  0
   41.8200   32.8710   37.7910 S   0  0  0  0  0  0  0  0  0  0  0  0
   44.2040   33.9330   38.7300 C   0  0  0  0  0  2  0  0  0  0  0  0
   43.8660   34.3240   39.6930 H   0  0  0  0  0  0  0  0  0  0  0  0
   44.3700   32.1140   37.1080 C   0  0  0  0  0  2  0  0  0  0  0  0
   43.6760   31.4120   36.5760 H   0  0  0  0  0  0  0  0  0  0  0  0
  1  3  1  0  0  0  0
  3  2  2  6  0  0  0
  3  4  1  0  0  0  0
  3  6  1  0  0  0  0
  4  5  1  0  0  0  0
  6  8  1  0  0  0  0
  7 12  1  0  0  0  0
  7 13  1  0  0  0  0
  8  7  2  0  0  0  0
  9 10  2  0  0  0  0
  9  8  1  0  0  0  0
 10 11  1  0  0  0  0
 11 15  1  0  0  0  0
 11 12  2  0  0  0  0
 14  9  1  0  0  0  0
 16  1  1  1  0  0  0
 16 17  1  0  0  0  0
 18 26  1  0  0  0  0
 18 19  1  0  0  0  0
 19 20  1  0  0  0  0
 20 21  1  0  0  0  0
 21 22  2  0  0  0  0
 23 16  1  0  0  0  0
 23 17  1  6  0  0  0
 23 21  1  0  0  0  0
 24 25  1  6  0  0  0
 24 20  1  0  0  0  0
 24 23  1  0  0  0  0
 25 18  1  0  0  0  0
 26 27  1  0  0  0  0
 28 18  1  0  0  0  0
 29 28  1  0  0  0  0
M  END
>  <minimizedAffinity>
-5.07512379

$$$$

 OpenBabel03242514343D

 29 32  0  0  1  0  0  0  0  0999 V2000
   36.3240   30.8660   39.6310 O   0  0  0  0  0  0  0  0  0  0  0  0
   38.0480   31.6450   41.3680 O   0  0  0  0  0  0  0  0  0  0  0  0
   37.5680   31.9250   39.9800 P   0  0  2  0  0  0  0  0  0  0  0  0
   36.9800   33.4990   39.9620 O   0  0  0  0  0  0  0  0  0  0  0  0
   36.0450   33.5730   39.6930 H   0  0  0  0  0  0  0  0  0  0  0  0
   38.8420   31.7390   38.8480 O   0  0  0  0  0  0  0  0  0  0  0  0
   40.7150   32.6680   37.6830 C   0  0  0  0  0  0  0  0  0  0  0  0
   39.9120   32.6430   38.8220 C   0  0  0  0  0  0  0  0  0  0  0  0
   40.2070   33.5120   39.8730 C   0  0  0  0  0  0  0  0  0  0  0  0
   41.2780   34.3470   39.7260 N   0  0  0  0  0  0  0  0  0  0  0  0
   42.0280   34.3460   38.6230 C   0  0  0  0  0  0  0  0  0  0  0  0
   41.7490   33.5170   37.6150 N   0  0  0  0  0  0  0  0  0  0  0  0
   40.5720   32.0370   36.8130 H   0  0  0  0  0  0  0  0  0  0  0  0
   39.5770   33.4850   40.7540 H   0  0  0  0  0  0  0  0  0  0  0  0
   42.8820   35.0090   38.5000 H   0  0  0  0  0  0  0  0  0  0  0  0
   36.3170   29.5410   39.9280 C   0  0  1  0  0  3  0  0  0  0  0  0
   35.1470   29.1460   40.2920 O   0  0  0  0  0  0  0  0  0  0  0  0
   38.0160   25.2410   41.8690 C   0  0  0  0  0  0  0  0  0  0  0  0
   38.4440   25.4020   40.4510 C   0  0  0  0  0  2  0  0  0  0  0  0
   37.7230   26.5160   39.8880 N   0  0  0  0  0  0  0  0  0  0  0  0
   36.8960   27.2950   39.0030 C   0  0  0  0  0  0  0  0  0  0  0  0
   36.7200   27.1570   37.7450 O   0  0  0  0  0  0  0  0  0  0  0  0
   36.5260   28.0970   40.1990 C   0  0  1  0  0  0  0  0  0  0  0  0
   37.8730   27.6900   40.6860 C   0  0  1  0  0  3  0  0  0  0  0  0
   37.8320   26.9920   42.3810 S   0  0  0  0  0  0  0  0  0  0  0  0
   36.7790   24.4420   42.0870 C   0  0  0  0  0  2  0  0  0  0  0  0
   35.9330   24.6650   41.4320 H   0  0  0  0  0  0  0  0  0  0  0  0
   39.1570   24.5980   42.6260 C   0  0  0  0  0  2  0  0  0  0  0  0
   39.9280   25.4030   42.7470 H   0  0  0  0  0  0  0  0  0  0  0  0
  1  3  1  0  0  0  0
  3  2  2  1  0  0  0
  4  3  1  0  0  0  0
  5  4  1  0  0  0  0
  6  3  1  0  0  0  0
  7  8  1  0  0  0  0
  8  6  1  0  0  0  0
  8  9  2  0  0  0  0
  9 14  1  0  0  0  0
 10  9  1  0  0  0  0
 11 10  2  0  0  0  0
 12  7  2  0  0  0  0
 12 11  1  0  0  0  0
 13  7  1  0  0  0  0
 15 11  1  0  0  0  0
 16  1  1  6  0  0  0
 16 23  1  0  0  0  0
 16 17  1  0  0  0  0
 18 26  1  0  0  0  0
 18 25  1  0  0  0  0
 18 28  1  0  0  0  0
 19 18  1  0  0  0  0
 20 19  1  0  0  0  0
 20 24  1  0  0  0  0
 21 20  1  0  0  0  0
 22 21  2  0  0  0  0
 23 21  1  6  0  0  0
 23 17  1  0  0  0  0
 23 24  1  0  0  0  0
 24 25  1  1  0  0  0
 27 26  1  0  0  0  0
 28 29  1  0  0  0  0
M  END
>  <minimizedAffinity>
-5.06282282

$$$$

 OpenBabel03242514343D

 29 32  0  0  1  0  0  0  0  0999 V2000
   37.1130   29.8310   39.5180 O   0  0  0  0  0  0  0  0  0  0  0  0
   38.0880   30.6930   41.7320 O   0  0  0  0  0  0  0  0  0  0  0  0
   37.0530   31.0100   40.7000 P   0  0  2  0  0  0  0  0  0  0  0  0
   35.5570   30.9580   41.4610 O   0  0  0  0  0  0  0  0  0  0  0  0
   34.9320   30.3150   41.0730 H   0  0  0  0  0  0  0  0  0  0  0  0
   37.3330   32.5550   40.0130 O   0  0  0  0  0  0  0  0  0  0  0  0
   39.2860   32.1530   38.6890 C   0  0  0  0  0  0  0  0  0  0  0  0
   38.6230   32.9420   39.6270 C   0  0  0  0  0  0  0  0  0  0  0  0
   39.2680   34.0710   40.1320 C   0  0  0  0  0  0  0  0  0  0  0  0
   40.5270   34.3420   39.6750 N   0  0  0  0  0  0  0  0  0  0  0  0
   41.1340   33.5660   38.7760 C   0  0  0  0  0  0  0  0  0  0  0  0
   40.5210   32.4850   38.2900 N   0  0  0  0  0  0  0  0  0  0  0  0
   38.8750   31.2580   38.2340 H   0  0  0  0  0  0  0  0  0  0  0  0
   38.7450   34.6780   40.8610 H   0  0  0  0  0  0  0  0  0  0  0  0
   42.1370   33.7770   38.4090 H   0  0  0  0  0  0  0  0  0  0  0  0
   37.4870   28.5400   39.7170 C   0  0  1  0  0  3  0  0  0  0  0  0
   38.6360   28.2960   39.1880 O   0  0  0  0  0  0  0  0  0  0  0  0
   37.2100   23.5340   39.6640 C   0  0  0  0  0  0  0  0  0  0  0  0
   36.6140   24.0970   40.9080 C   0  0  0  0  0  2  0  0  0  0  0  0
   36.9500   25.4970   40.9720 N   0  0  0  0  0  0  0  0  0  0  0  0
   37.4440   26.7580   41.4640 C   0  0  0  0  0  0  0  0  0  0  0  0
   37.5230   27.1690   42.6710 O   0  0  0  0  0  0  0  0  0  0  0  0
   37.7030   27.1090   40.0430 C   0  0  1  0  0  0  0  0  0  0  0  0
   36.5700   26.1790   39.7780 C   0  0  1  0  0  3  0  0  0  0  0  0
   36.9660   24.9270   38.4970 S   0  0  0  0  0  0  0  0  0  0  0  0
   38.6310   23.1030   39.7610 C   0  0  0  0  0  2  0  0  0  0  0  0
   39.3160   23.7930   40.2610 H   0  0  0  0  0  0  0  0  0  0  0  0
   36.3650   22.3520   39.2410 C   0  0  0  0  0  2  0  0  0  0  0  0
   35.4220   22.7920   38.8220 H   0  0  0  0  0  0  0  0  0  0  0  0
  1  3  1  0  0  0  0
  3  4  1  0  0  0  0
  3  2  2  1  0  0  0
  5  4  1  0  0  0  0
  6  3  1  0  0  0  0
  7  8  1  0  0  0  0
  8  6  1  0  0  0  0
  8  9  2  0  0  0  0
  9 14  1  0  0  0  0
 10  9  1  0  0  0  0
 11 10  2  0  0  0  0
 12  7  2  0  0  0  0
 12 11  1  0  0  0  0
 13  7  1  0  0  0  0
 15 11  1  0  0  0  0
 16  1  1  1  0  0  0
 16 23  1  0  0  0  0
 17 16  1  0  0  0  0
 18 26  1  0  0  0  0
 18 19  1  0  0  0  0
 19 20  1  0  0  0  0
 20 21  1  0  0  0  0
 21 22  2  0  0  0  0
 23 17  1  6  0  0  0
 23 21  1  0  0  0  0
 24 25  1  6  0  0  0
 24 23  1  0  0  0  0
 24 20  1  0  0  0  0
 25 18  1  0  0  0  0
 26 27  1  0  0  0  0
 28 18  1  0  0  0  0
 29 28  1  0  0  0  0
M  END
>  <minimizedAffinity>
-5.03566456

$$$$

 OpenBabel03242514343D

 29 32  0  0  1  0  0  0  0  0999 V2000
   36.8970   31.6570   40.2650 O   0  0  0  0  0  0  0  0  0  0  0  0
   36.8810   34.0750   39.3980 O   0  0  0  0  0  0  0  0  0  0  0  0
   37.8080   32.9430   39.7100 P   0  0  2  0  0  0  0  0  0  0  0  0
   38.5660   32.5100   38.2750 O   0  0  0  0  0  0  0  0  0  0  0  0
   38.4280   31.5790   38.0150 H   0  0  0  0  0  0  0  0  0  0  0  0
   38.9590   33.4100   40.8900 O   0  0  0  0  0  0  0  0  0  0  0  0
   40.8040   31.8880   40.9950 C   0  0  0  0  0  0  0  0  0  0  0  0
   40.3240   33.1620   40.6940 C   0  0  0  0  0  0  0  0  0  0  0  0
   41.2160   34.1220   40.2150 C   0  0  0  0  0  0  0  0  0  0  0  0
   42.5240   33.7560   40.0670 N   0  0  0  0  0  0  0  0  0  0  0  0
   42.9520   32.5280   40.3640 C   0  0  0  0  0  0  0  0  0  0  0  0
   42.1020   31.6060   40.8220 N   0  0  0  0  0  0  0  0  0  0  0  0
   40.1960   31.0730   41.3710 H   0  0  0  0  0  0  0  0  0  0  0  0
   40.8340   35.1090   39.9850 H   0  0  0  0  0  0  0  0  0  0  0  0
   43.9930   32.2310   40.2480 H   0  0  0  0  0  0  0  0  0  0  0  0
   37.3640   30.3990   40.4700 C   0  0  1  0  0  3  0  0  0  0  0  0
   38.1280   30.0160   39.5070 O   0  0  0  0  0  0  0  0  0  0  0  0
   37.4080   25.4240   41.0950 C   0  0  0  0  0  0  0  0  0  0  0  0
   37.1680   26.1300   42.3850 C   0  0  0  0  0  2  0  0  0  0  0  0
   37.4160   27.5350   42.1800 N   0  0  0  0  0  0  0  0  0  0  0  0
   37.9490   28.8620   42.3480 C   0  0  0  0  0  0  0  0  0  0  0  0
   38.3520   29.4310   43.4200 O   0  0  0  0  0  0  0  0  0  0  0  0
   37.7580   29.0290   40.8840 C   0  0  1  0  0  0  0  0  0  0  0  0
   36.6600   28.0420   41.0810 C   0  0  1  0  0  3  0  0  0  0  0  0
   36.7450   26.6440   39.8980 S   0  0  0  0  0  0  0  0  0  0  0  0
   38.8210   25.0470   40.8140 C   0  0  0  0  0  2  0  0  0  0  0  0
   39.5760   25.8150   41.0020 H   0  0  0  0  0  0  0  0  0  0  0  0
   36.5550   24.1740   41.0860 C   0  0  0  0  0  2  0  0  0  0  0  0
   35.5040   24.5290   40.9190 H   0  0  0  0  0  0  0  0  0  0  0  0
  3  2  2  6  0  0  0
  3  1  1  0  0  0  0
  3  6  1  0  0  0  0
  4  3  1  0  0  0  0
  5  4  1  0  0  0  0
  7 13  1  0  0  0  0
  8  6  1  0  0  0  0
  8  7  2  0  0  0  0
  9  8  1  0  0  0  0
 10  9  2  0  0  0  0
 10 11  1  0  0  0  0
 11 12  2  0  0  0  0
 12  7  1  0  0  0  0
 14  9  1  0  0  0  0
 15 11  1  0  0  0  0
 16  1  1  1  0  0  0
 16 23  1  0  0  0  0
 17 16  1  0  0  0  0
 18 19  1  0  0  0  0
 20 21  1  0  0  0  0
 20 19  1  0  0  0  0
 21 22  2  0  0  0  0
 23 17  1  6  0  0  0
 23 24  1  0  0  0  0
 23 21  1  0  0  0  0
 24 25  1  6  0  0  0
 24 20  1  0  0  0  0
 25 18  1  0  0  0  0
 26 27  1  0  0  0  0
 26 18  1  0  0  0  0
 28 18  1  0  0  0  0
 29 28  1  0  0  0  0
M  END
>  <minimizedAffinity>
-4.98211098

$$$$

 OpenBabel03242514343D

 29 32  0  0  1  0  0  0  0  0999 V2000
   38.9340   31.3070   41.4250 O   0  0  0  0  0  0  0  0  0  0  0  0
   38.7800   33.8270   40.9540 O   0  0  0  0  0  0  0  0  0  0  0  0
   38.3210   32.5030   40.4330 P   0  0  2  0  0  0  0  0  0  0  0  0
   36.6430   32.4880   40.5160 O   0  0  0  0  0  0  0  0  0  0  0  0
   36.2750   31.7640   41.0590 H   0  0  0  0  0  0  0  0  0  0  0  0
   38.8520   32.2680   38.8200 O   0  0  0  0  0  0  0  0  0  0  0  0
   39.8090   30.2400   37.9840 C   0  0  0  0  0  0  0  0  0  0  0  0
   38.6800   31.0310   38.1840 C   0  0  0  0  0  0  0  0  0  0  0  0
   37.4410   30.5600   37.7480 C   0  0  0  0  0  0  0  0  0  0  0  0
   37.4040   29.3370   37.1410 N   0  0  0  0  0  0  0  0  0  0  0  0
   38.5040   28.6030   36.9630 C   0  0  0  0  0  0  0  0  0  0  0  0
   39.6910   29.0500   37.3800 N   0  0  0  0  0  0  0  0  0  0  0  0
   40.8150   30.5110   38.2850 H   0  0  0  0  0  0  0  0  0  0  0  0
   36.5690   31.1830   37.9080 H   0  0  0  0  0  0  0  0  0  0  0  0
   38.4810   27.6280   36.4810 H   0  0  0  0  0  0  0  0  0  0  0  0
   38.3890   30.0740   41.5940 C   0  0  1  0  0  3  0  0  0  0  0  0
   38.5830   29.6340   42.7890 O   0  0  0  0  0  0  0  0  0  0  0  0
   37.5140   25.1880   40.8840 C   0  0  0  0  0  0  0  0  0  0  0  0
   36.6620   26.0270   39.9950 C   0  0  0  0  0  2  0  0  0  0  0  0
   36.7790   27.3980   40.4230 N   0  0  0  0  0  0  0  0  0  0  0  0
   36.4230   28.7230   40.8600 C   0  0  0  0  0  0  0  0  0  0  0  0
   35.3610   29.3890   40.6080 O   0  0  0  0  0  0  0  0  0  0  0  0
   37.7290   28.7450   41.5680 C   0  0  1  0  0  0  0  0  0  0  0  0
   38.1450   27.8080   40.4870 C   0  0  1  0  0  3  0  0  0  0  0  0
   38.9540   26.2950   41.1350 S   0  0  0  0  0  0  0  0  0  0  0  0
   36.8880   24.7540   42.1640 C   0  0  0  0  0  2  0  0  0  0  0  0
   36.3480   25.5210   42.7260 H   0  0  0  0  0  0  0  0  0  0  0  0
   37.9340   23.9630   40.1020 C   0  0  0  0  0  2  0  0  0  0  0  0
   38.7080   24.3230   39.3740 H   0  0  0  0  0  0  0  0  0  0  0  0
  3  4  1  0  0  0  0
  3  2  2  1  0  0  0
  3  1  1  0  0  0  0
  4  5  1  0  0  0  0
  6  3  1  0  0  0  0
  7  8  1  0  0  0  0
  7 13  1  0  0  0  0
  8  6  1  0  0  0  0
  9 14  1  0  0  0  0
  9  8  2  0  0  0  0
 10  9  1  0  0  0  0
 11 10  2  0  0  0  0
 11 12  1  0  0  0  0
 12  7  2  0  0  0  0
 15 11  1  0  0  0  0
 16  1  1  1  0  0  0
 16 17  1  0  0  0  0
 18 25  1  0  0  0  0
 18 26  1  0  0  0  0
 19 20  1  0  0  0  0
 19 18  1  0  0  0  0
 20 24  1  0  0  0  0
 20 21  1  0  0  0  0
 22 21  2  0  0  0  0
 23 21  1  1  0  0  0
 23 16  1  0  0  0  0
 23 17  1  0  0  0  0
 24 25  1  1  0  0  0
 24 23  1  0  0  0  0
 26 27  1  0  0  0  0
 28 18  1  0  0  0  0
 29 28  1  0  0  0  0
M  END
>  <minimizedAffinity>
-4.97422647

$$$$

 OpenBabel03242514343D

 29 32  0  0  1  0  0  0  0  0999 V2000
   38.4540   30.6660   40.7290 O   0  0  0  0  0  0  0  0  0  0  0  0
   37.1850   32.8630   40.3350 O   0  0  0  0  0  0  0  0  0  0  0  0
   37.0100   31.3790   40.2860 P   0  0  2  0  0  0  0  0  0  0  0  0
   35.8250   30.9790   41.4080 O   0  0  0  0  0  0  0  0  0  0  0  0
   36.1210   30.3530   42.0970 H   0  0  0  0  0  0  0  0  0  0  0  0
   36.5540   30.8730   38.7130 O   0  0  0  0  0  0  0  0  0  0  0  0
   35.4460   28.7520   38.7000 C   0  0  0  0  0  0  0  0  0  0  0  0
   36.5640   29.5150   38.3690 C   0  0  0  0  0  0  0  0  0  0  0  0
   37.6310   28.8980   37.7150 C   0  0  0  0  0  0  0  0  0  0  0  0
   37.5190   27.5650   37.4340 N   0  0  0  0  0  0  0  0  0  0  0  0
   36.4350   26.8620   37.7650 C   0  0  0  0  0  0  0  0  0  0  0  0
   35.4120   27.4490   38.3900 N   0  0  0  0  0  0  0  0  0  0  0  0
   34.5660   29.1330   39.2070 H   0  0  0  0  0  0  0  0  0  0  0  0
   38.4960   29.4990   37.4620 H   0  0  0  0  0  0  0  0  0  0  0  0
   36.3410   25.8010   37.5440 H   0  0  0  0  0  0  0  0  0  0  0  0
   38.5750   29.4730   41.3670 C   0  0  1  0  0  3  0  0  0  0  0  0
   39.4360   29.5360   42.3230 O   0  0  0  0  0  0  0  0  0  0  0  0
   38.5890   24.4730   41.7430 C   0  0  0  0  0  0  0  0  0  0  0  0
   37.2770   25.0440   42.1580 C   0  0  0  0  0  2  0  0  0  0  0  0
   37.4250   26.4740   42.2660 N   0  0  0  0  0  0  0  0  0  0  0  0
   37.3940   27.8090   42.8050 C   0  0  0  0  0  0  0  0  0  0  0  0
   36.5980   28.3010   43.6760 O   0  0  0  0  0  0  0  0  0  0  0  0
   38.5540   28.0970   41.9220 C   0  0  1  0  0  0  0  0  0  0  0  0
   37.9570   27.0340   41.0660 C   0  0  1  0  0  3  0  0  0  0  0  0
   39.1750   25.7560   40.5720 S   0  0  0  0  0  0  0  0  0  0  0  0
   39.5590   24.2060   42.8410 C   0  0  0  0  0  2  0  0  0  0  0  0
   39.6790   24.9970   43.5860 H   0  0  0  0  0  0  0  0  0  0  0  0
   38.3180   23.1820   41.0020 C   0  0  0  0  0  2  0  0  0  0  0  0
   37.9150   23.4890   40.0020 H   0  0  0  0  0  0  0  0  0  0  0  0
  3  2  2  6  0  0  0
  3  1  1  0  0  0  0
  3  4  1  0  0  0  0
  4  5  1  0  0  0  0
  6  3  1  0  0  0  0
  7 13  1  0  0  0  0
  8  7  2  0  0  0  0
  8  6  1  0  0  0  0
  9  8  1  0  0  0  0
 10  9  2  0  0  0  0
 10 11  1  0  0  0  0
 11 12  2  0  0  0  0
 12  7  1  0  0  0  0
 14  9  1  0  0  0  0
 15 11  1  0  0  0  0
 16  1  1  1  0  0  0
 16 23  1  0  0  0  0
 16 17  1  0  0  0  0
 18 19  1  0  0  0  0
 18 26  1  0  0  0  0
 19 20  1  0  0  0  0
 20 21  1  0  0  0  0
 21 22  2  0  0  0  0
 23 17  1  1  0  0  0
 23 21  1  0  0  0  0
 24 25  1  1  0  0  0
 24 23  1  0  0  0  0
 24 20  1  0  0  0  0
 25 18  1  0  0  0  0
 26 27  1  0  0  0  0
 28 18  1  0  0  0  0
 29 28  1  0  0  0  0
M  END
>  <minimizedAffinity>
-4.94481802

$$$$

 OpenBabel03242514343D

 29 32  0  0  1  0  0  0  0  0999 V2000
   40.8000   33.7290   38.9760 O   0  0  0  0  0  0  0  0  0  0  0  0
   43.2880   34.3470   39.1310 O   0  0  0  0  0  0  0  0  0  0  0  0
   42.3390   33.4660   38.3830 P   0  0  2  0  0  0  0  0  0  0  0  0
   42.3990   33.9260   36.7680 O   0  0  0  0  0  0  0  0  0  0  0  0
   41.5390   34.2070   36.4000 H   0  0  0  0  0  0  0  0  0  0  0  0
   42.7720   31.8170   38.5620 O   0  0  0  0  0  0  0  0  0  0  0  0
   42.0630   30.0570   37.1040 C   0  0  0  0  0  0  0  0  0  0  0  0
   43.0160   31.0160   37.4390 C   0  0  0  0  0  0  0  0  0  0  0  0
   44.1590   31.1360   36.6460 C   0  0  0  0  0  0  0  0  0  0  0  0
   44.2810   30.2950   35.5760 N   0  0  0  0  0  0  0  0  0  0  0  0
   43.3500   29.3860   35.2830 C   0  0  0  0  0  0  0  0  0  0  0  0
   42.2550   29.2690   36.0380 N   0  0  0  0  0  0  0  0  0  0  0  0
   41.1430   29.8840   37.6510 H   0  0  0  0  0  0  0  0  0  0  0  0
   44.8940   31.8840   36.9150 H   0  0  0  0  0  0  0  0  0  0  0  0
   43.4420   28.7140   34.4320 H   0  0  0  0  0  0  0  0  0  0  0  0
   39.9460   32.7590   39.3930 C   0  0  1  0  0  3  0  0  0  0  0  0
   38.8040   33.2520   39.7320 O   0  0  0  0  0  0  0  0  0  0  0  0
   36.2550   29.4160   39.9770 C   0  0  0  0  0  0  0  0  0  0  0  0
   36.5850   30.0890   41.2650 C   0  0  0  0  0  2  0  0  0  0  0  0
   37.8020   30.8390   41.0790 N   0  0  0  0  0  0  0  0  0  0  0  0
   39.1410   31.3300   41.2760 C   0  0  0  0  0  0  0  0  0  0  0  0
   39.8050   31.4300   42.3640 O   0  0  0  0  0  0  0  0  0  0  0  0
   39.1780   31.5590   39.8080 C   0  0  2  0  0  0  0  0  0  0  0  0
   37.7050   31.7210   39.9620 C   0  0  1  0  0  3  0  0  0  0  0  0
   36.7530   30.7030   38.7700 S   0  0  0  0  0  0  0  0  0  0  0  0
   36.9250   28.1080   39.7370 C   0  0  0  0  0  2  0  0  0  0  0  0
   37.9950   28.0620   39.9550 H   0  0  0  0  0  0  0  0  0  0  0  0
   34.7560   29.2160   39.9310 C   0  0  0  0  0  2  0  0  0  0  0  0
   34.3240   30.2320   39.7340 H   0  0  0  0  0  0  0  0  0  0  0  0
  3  6  1  0  0  0  0
  3  1  1  0  0  0  0
  3  2  2  1  0  0  0
  4  3  1  0  0  0  0
  5  4  1  0  0  0  0
  7  8  1  0  0  0  0
  7 13  1  0  0  0  0
  8  6  1  0  0  0  0
  9 14  1  0  0  0  0
  9  8  2  0  0  0  0
 10  9  1  0  0  0  0
 11 10  2  0  0  0  0
 11 12  1  0  0  0  0
 12  7  2  0  0  0  0
 15 11  1  0  0  0  0
 16  1  1  6  0  0  0
 16 17  1  0  0  0  0
 16 23  1  0  0  0  0
 18 19  1  0  0  0  0
 20 19  1  0  0  0  0
 20 21  1  0  0  0  0
 21 22  2  0  0  0  0
 23 17  1  1  0  0  0
 23 24  1  0  0  0  0
 23 21  1  0  0  0  0
 24 25  1  6  0  0  0
 24 20  1  0  0  0  0
 25 18  1  0  0  0  0
 26 27  1  0  0  0  0
 26 18  1  0  0  0  0
 28 18  1  0  0  0  0
 29 28  1  0  0  0  0
M  END
>  <minimizedAffinity>
-4.9369607

$$$$
