
 OpenBabel03252507173D

 32 36  0  0  1  0  0  0  0  0999 V2000
   35.8270   26.0130   38.2190 C   0  0  0  0  0  0  0  0  0  0  0  0
   36.3040   26.7500   39.3240 C   0  0  0  0  0  0  0  0  0  0  0  0
   36.9080   26.0610   40.3640 C   0  0  0  0  0  0  0  0  0  0  0  0
   37.0190   24.7250   40.2890 N   0  0  0  0  0  0  0  0  0  0  0  0
   36.5520   24.0210   39.2110 C   0  0  0  0  0  0  0  0  0  0  0  0
   35.9730   24.6720   38.2120 N   0  0  0  0  0  0  0  0  0  0  0  0
   35.3470   26.5200   37.3820 H   0  0  0  0  0  0  0  0  0  0  0  0
   36.6580   22.9470   39.1810 H   0  0  0  0  0  0  0  0  0  0  0  0
   37.3990   26.8260   41.5010 C   0  0  0  0  0  0  0  0  0  0  0  0
   36.5620   27.0780   42.5610 C   0  0  0  0  0  0  0  0  0  0  0  0
   37.0590   27.8060   43.6220 C   0  0  0  0  0  0  0  0  0  0  0  0
   38.3560   28.2980   43.6770 C   0  0  0  0  0  0  0  0  0  0  0  0
   39.1360   28.0080   42.5810 C   0  0  0  0  0  0  0  0  0  0  0  0
   38.6550   27.2950   41.5390 N   0  0  0  0  0  0  0  0  0  0  0  0
   35.5460   26.7190   42.5680 H   0  0  0  0  0  0  0  0  0  0  0  0
   36.3730   27.9840   44.4370 H   0  0  0  0  0  0  0  0  0  0  0  0
   38.6840   28.8650   44.5410 H   0  0  0  0  0  0  0  0  0  0  0  0
   40.1570   28.3710   42.5790 H   0  0  0  0  0  0  0  0  0  0  0  0
   36.1510   28.1710   39.3340 C   0  0  0  0  0  0  0  0  0  0  0  0
   35.0320   28.6420   39.7190 O   0  0  0  0  0  0  0  0  0  0  0  0
   38.5910   32.6260   39.3450 C   0  0  0  0  0  0  0  0  0  0  0  0
   38.5330   31.9160   38.0500 C   0  0  0  0  0  2  0  0  0  0  0  0
   37.6100   30.8580   38.0760 N   0  0  1  0  0  0  0  0  0  0  0  0
   36.7610   29.7990   37.6500 C   0  0  1  0  0  0  0  0  0  0  0  0
   36.0110   29.6300   36.6610 O   0  0  0  0  0  1  0  0  0  0  0  0
   37.2330   29.1080   38.9150 C   0  0  1  0  0  3  0  0  0  0  0  0
   37.0910   30.4920   39.4130 C   0  0  1  0  0  0  0  0  0  0  0  0
   38.3800   31.1850   40.4760 S   0  0  0  0  0  0  0  0  0  0  0  0
   39.9030   33.3240   39.5810 C   0  0  0  0  0  2  0  0  0  0  0  0
   40.5330   33.3050   38.6470 H   0  0  0  0  0  0  0  0  0  0  0  0
   37.3980   33.4990   39.5640 C   0  0  0  0  0  2  0  0  0  0  0  0
   37.6300   34.5800   39.4440 H   0  0  0  0  0  0  0  0  0  0  0  0
  1  2  1  0  0  0  0
  2 19  1  0  0  0  0
  2  3  2  0  0  0  0
  3  9  1  0  0  0  0
  4  3  1  0  0  0  0
  5  4  2  0  0  0  0
  6  1  2  0  0  0  0
  6  5  1  0  0  0  0
  7  1  1  0  0  0  0
  8  5  1  0  0  0  0
  9 14  2  0  0  0  0
  9 10  1  0  0  0  0
 10 15  1  0  0  0  0
 10 11  2  0  0  0  0
 11 12  1  0  0  0  0
 11 16  1  0  0  0  0
 12 17  1  0  0  0  0
 13 12  2  0  0  0  0
 14 13  1  0  0  0  0
 18 13  1  0  0  0  0
 19 20  2  0  0  0  0
 21 31  1  0  0  0  0
 21 29  1  0  0  0  0
 21 28  1  0  0  0  0
 22 21  1  0  0  0  0
 23 22  1  1  0  0  0
 23 27  1  0  0  0  0
 24 25  1  6  0  0  0
 24 23  1  0  0  0  0
 24 26  1  0  0  0  0
 24 27  1  0  0  0  0
 26 19  1  1  0  0  0
 26 27  1  0  0  0  0
 27 28  1  1  0  0  0
 30 29  1  0  0  0  0
 32 31  1  0  0  0  0
M  END
>  <minimizedAffinity>
-5.44215631

$$$$

 OpenBabel03252507173D

 32 36  0  0  1  0  0  0  0  0999 V2000
   35.3160   29.0060   40.1950 C   0  0  0  0  0  0  0  0  0  0  0  0
   36.1990   28.0690   40.7760 C   0  0  0  0  0  0  0  0  0  0  0  0
   36.5670   26.9600   40.0300 C   0  0  0  0  0  0  0  0  0  0  0  0
   36.0750   26.8120   38.7890 N   0  0  0  0  0  0  0  0  0  0  0  0
   35.2190   27.7270   38.2370 C   0  0  0  0  0  0  0  0  0  0  0  0
   34.8620   28.7910   38.9420 N   0  0  0  0  0  0  0  0  0  0  0  0
   35.0050   29.8900   40.7500 H   0  0  0  0  0  0  0  0  0  0  0  0
   34.8430   27.5780   37.2350 H   0  0  0  0  0  0  0  0  0  0  0  0
   37.4780   25.9980   40.6330 C   0  0  0  0  0  0  0  0  0  0  0  0
   36.9710   24.9490   41.3610 C   0  0  0  0  0  0  0  0  0  0  0  0
   37.8620   24.0560   41.9190 C   0  0  0  0  0  0  0  0  0  0  0  0
   39.2400   24.1610   41.7870 C   0  0  0  0  0  0  0  0  0  0  0  0
   39.6750   25.2360   41.0460 C   0  0  0  0  0  0  0  0  0  0  0  0
   38.8070   26.1130   40.4970 N   0  0  0  0  0  0  0  0  0  0  0  0
   35.9100   24.8220   41.4940 H   0  0  0  0  0  0  0  0  0  0  0  0
   37.4290   23.2440   42.4840 H   0  0  0  0  0  0  0  0  0  0  0  0
   39.8860   23.4250   42.2520 H   0  0  0  0  0  0  0  0  0  0  0  0
   40.7440   25.3580   40.9150 H   0  0  0  0  0  0  0  0  0  0  0  0
   36.6810   28.2950   42.1020 C   0  0  0  0  0  0  0  0  0  0  0  0
   36.1810   27.5940   43.0390 O   0  0  0  0  0  0  0  0  0  0  0  0
   40.7150   31.1890   41.0260 C   0  0  0  0  0  0  0  0  0  0  0  0
   40.6580   30.6300   42.3930 C   0  0  0  0  0  2  0  0  0  0  0  0
   39.6790   29.6290   42.5070 N   0  0  1  0  0  0  0  0  0  0  0  0
   38.9040   28.5550   43.0240 C   0  0  1  0  0  0  0  0  0  0  0  0
   39.1780   27.5150   43.6670 O   0  0  0  0  0  1  0  0  0  0  0  0
   37.7310   29.3050   42.4240 C   0  0  1  0  0  3  0  0  0  0  0  0
   38.7430   29.5150   41.3660 C   0  0  1  0  0  0  0  0  0  0  0  0
   38.9160   31.1550   40.6230 S   0  0  0  0  0  0  0  0  0  0  0  0
   41.2630   32.5890   40.9800 C   0  0  0  0  0  2  0  0  0  0  0  0
   41.6790   32.8820   41.9850 H   0  0  0  0  0  0  0  0  0  0  0  0
   41.3710   30.2550   40.0610 C   0  0  0  0  0  2  0  0  0  0  0  0
   42.3960   30.5790   39.7780 H   0  0  0  0  0  0  0  0  0  0  0  0
  1  7  1  0  0  0  0
  1  2  1  0  0  0  0
  2 19  1  0  0  0  0
  3  9  1  0  0  0  0
  3  2  2  0  0  0  0
  4  3  1  0  0  0  0
  5  4  2  0  0  0  0
  5  6  1  0  0  0  0
  6  1  2  0  0  0  0
  8  5  1  0  0  0  0
  9 10  1  0  0  0  0
 10 15  1  0  0  0  0
 10 11  2  0  0  0  0
 11 16  1  0  0  0  0
 12 11  1  0  0  0  0
 12 17  1  0  0  0  0
 13 12  2  0  0  0  0
 14  9  2  0  0  0  0
 14 13  1  0  0  0  0
 18 13  1  0  0  0  0
 19 20  2  0  0  0  0
 21 22  1  0  0  0  0
 23 22  1  1  0  0  0
 23 24  1  0  0  0  0
 24 25  1  1  0  0  0
 26 19  1  6  0  0  0
 26 24  1  0  0  0  0
 27 28  1  6  0  0  0
 27 26  1  0  0  0  0
 27 23  1  0  0  0  0
 27 24  1  0  0  0  0
 28 21  1  0  0  0  0
 29 21  1  0  0  0  0
 29 30  1  0  0  0  0
 31 21  1  0  0  0  0
 32 31  1  0  0  0  0
M  END
>  <minimizedAffinity>
-5.40771961

$$$$

 OpenBabel03252507173D

 32 36  0  0  1  0  0  0  0  0999 V2000
   36.1030   30.0070   38.1460 C   0  0  0  0  0  0  0  0  0  0  0  0
   36.6450   29.6930   39.4110 C   0  0  0  0  0  0  0  0  0  0  0  0
   36.8160   28.3580   39.7420 C   0  0  0  0  0  0  0  0  0  0  0  0
   36.4630   27.4120   38.8560 N   0  0  0  0  0  0  0  0  0  0  0  0
   35.9390   27.7290   37.6330 C   0  0  0  0  0  0  0  0  0  0  0  0
   35.7720   29.0030   37.3070 N   0  0  0  0  0  0  0  0  0  0  0  0
   35.9540   31.0440   37.8500 H   0  0  0  0  0  0  0  0  0  0  0  0
   35.6660   26.9440   36.9420 H   0  0  0  0  0  0  0  0  0  0  0  0
   37.3750   28.0410   41.0480 C   0  0  0  0  0  0  0  0  0  0  0  0
   36.5450   27.9540   42.1390 C   0  0  0  0  0  0  0  0  0  0  0  0
   37.1080   27.6520   43.3610 C   0  0  0  0  0  0  0  0  0  0  0  0
   38.4660   27.4320   43.5490 C   0  0  0  0  0  0  0  0  0  0  0  0
   39.2360   27.5370   42.4130 C   0  0  0  0  0  0  0  0  0  0  0  0
   38.6900   27.8320   41.2140 N   0  0  0  0  0  0  0  0  0  0  0  0
   35.4840   28.1150   42.0470 H   0  0  0  0  0  0  0  0  0  0  0  0
   36.4250   27.5910   44.1960 H   0  0  0  0  0  0  0  0  0  0  0  0
   38.8450   27.1990   44.5380 H   0  0  0  0  0  0  0  0  0  0  0  0
   40.3030   27.3730   42.5120 H   0  0  0  0  0  0  0  0  0  0  0  0
   36.9970   30.7550   40.3020 C   0  0  0  0  0  0  0  0  0  0  0  0
   36.2490   30.9500   41.3130 O   0  0  0  0  0  0  0  0  0  0  0  0
   41.5620   31.8650   38.3720 C   0  0  0  0  0  0  0  0  0  0  0  0
   41.3030   32.3350   39.7480 C   0  0  0  0  0  2  0  0  0  0  0  0
   40.1510   31.7450   40.2930 N   0  0  1  0  0  0  0  0  0  0  0  0
   39.1550   31.3420   41.2250 C   0  0  1  0  0  0  0  0  0  0  0  0
   39.1850   30.9490   42.4140 O   0  0  0  0  0  1  0  0  0  0  0  0
   38.1880   31.6280   40.0930 C   0  0  1  0  0  3  0  0  0  0  0  0
   39.2960   31.0060   39.3370 C   0  0  1  0  0  0  0  0  0  0  0  0
   39.8220   31.7450   37.7730 S   0  0  0  0  0  0  0  0  0  0  0  0
   42.3610   32.8400   37.5510 C   0  0  0  0  0  2  0  0  0  0  0  0
   42.7480   33.6760   38.2000 H   0  0  0  0  0  0  0  0  0  0  0  0
   42.1040   30.4720   38.3430 C   0  0  0  0  0  2  0  0  0  0  0  0
   43.1890   30.4380   38.1040 H   0  0  0  0  0  0  0  0  0  0  0  0
  1  2  1  0  0  0  0
  2  3  2  0  0  0  0
  2 19  1  0  0  0  0
  3  9  1  0  0  0  0
  4  3  1  0  0  0  0
  5  4  2  0  0  0  0
  6  5  1  0  0  0  0
  6  1  2  0  0  0  0
  7  1  1  0  0  0  0
  8  5  1  0  0  0  0
  9 14  2  0  0  0  0
  9 10  1  0  0  0  0
 10 11  2  0  0  0  0
 11 12  1  0  0  0  0
 11 16  1  0  0  0  0
 12 17  1  0  0  0  0
 13 18  1  0  0  0  0
 13 12  2  0  0  0  0
 14 13  1  0  0  0  0
 15 10  1  0  0  0  0
 19 20  2  0  0  0  0
 21 22  1  0  0  0  0
 23 22  1  6  0  0  0
 23 24  1  0  0  0  0
 24 25  1  1  0  0  0
 26 19  1  1  0  0  0
 26 24  1  0  0  0  0
 27 28  1  6  0  0  0
 27 26  1  0  0  0  0
 27 23  1  0  0  0  0
 27 24  1  0  0  0  0
 28 21  1  0  0  0  0
 29 30  1  0  0  0  0
 29 21  1  0  0  0  0
 31 21  1  0  0  0  0
 32 31  1  0  0  0  0
M  END
>  <minimizedAffinity>
-5.3182497

$$$$

 OpenBabel03252507173D

 32 36  0  0  1  0  0  0  0  0999 V2000
   36.2990   28.6710   39.0590 C   0  0  0  0  0  0  0  0  0  0  0  0
   36.9150   29.8260   39.5870 C   0  0  0  0  0  0  0  0  0  0  0  0
   37.5490   30.6940   38.7110 C   0  0  0  0  0  0  0  0  0  0  0  0
   37.5580   30.4110   37.3980 N   0  0  0  0  0  0  0  0  0  0  0  0
   36.9570   29.2870   36.8980 C   0  0  0  0  0  0  0  0  0  0  0  0
   36.3480   28.4520   37.7280 N   0  0  0  0  0  0  0  0  0  0  0  0
   35.7920   27.9660   39.7150 H   0  0  0  0  0  0  0  0  0  0  0  0
   36.9810   29.0900   35.8370 H   0  0  0  0  0  0  0  0  0  0  0  0
   38.1820   31.8840   39.2620 C   0  0  0  0  0  0  0  0  0  0  0  0
   37.4450   33.0320   39.4210 C   0  0  0  0  0  0  0  0  0  0  0  0
   38.0750   34.1410   39.9460 C   0  0  0  0  0  0  0  0  0  0  0  0
   39.4120   34.1600   40.3200 C   0  0  0  0  0  0  0  0  0  0  0  0
   40.0880   32.9750   40.1320 C   0  0  0  0  0  0  0  0  0  0  0  0
   39.4750   31.8870   39.6190 N   0  0  0  0  0  0  0  0  0  0  0  0
   36.4040   33.0700   39.1460 H   0  0  0  0  0  0  0  0  0  0  0  0
   37.4660   35.0250   40.0570 H   0  0  0  0  0  0  0  0  0  0  0  0
   39.8480   35.0660   40.7260 H   0  0  0  0  0  0  0  0  0  0  0  0
   41.1340   32.9430   40.4110 H   0  0  0  0  0  0  0  0  0  0  0  0
   36.8650   30.0610   40.9960 C   0  0  0  0  0  0  0  0  0  0  0  0
   35.8800   30.7300   41.4480 O   0  0  0  0  0  0  0  0  0  0  0  0
   40.9980   27.3800   42.2320 C   0  0  0  0  0  0  0  0  0  0  0  0
   39.9230   27.4290   43.2450 C   0  0  0  0  0  2  0  0  0  0  0  0
   38.7280   27.9380   42.7140 N   0  0  1  0  0  0  0  0  0  0  0  0
   37.3580   28.2990   42.5800 C   0  0  1  0  0  0  0  0  0  0  0  0
   36.2780   27.7430   42.8860 O   0  0  0  0  0  1  0  0  0  0  0  0
   37.9050   29.5610   41.9400 C   0  0  1  0  0  3  0  0  0  0  0  0
   38.8340   28.5600   41.3750 C   0  0  1  0  0  0  0  0  0  0  0  0
   40.6030   28.9310   41.3160 S   0  0  0  0  0  0  0  0  0  0  0  0
   42.3780   27.4290   42.8280 C   0  0  0  0  0  2  0  0  0  0  0  0
   42.3270   27.3280   43.9490 H   0  0  0  0  0  0  0  0  0  0  0  0
   40.8030   26.2650   41.2570 C   0  0  0  0  0  2  0  0  0  0  0  0
   41.5070   25.4200   41.4240 H   0  0  0  0  0  0  0  0  0  0  0  0
  1  2  1  0  0  0  0
  1  7  1  0  0  0  0
  2 19  1  0  0  0  0
  3  9  1  0  0  0  0
  3  2  2  0  0  0  0
  4  3  1  0  0  0  0
  5  4  2  0  0  0  0
  5  6  1  0  0  0  0
  6  1  2  0  0  0  0
  8  5  1  0  0  0  0
  9 10  2  0  0  0  0
  9 14  1  0  0  0  0
 10 11  1  0  0  0  0
 11 16  1  0  0  0  0
 11 12  2  0  0  0  0
 12 17  1  0  0  0  0
 13 12  1  0  0  0  0
 13 18  1  0  0  0  0
 14 13  2  0  0  0  0
 15 10  1  0  0  0  0
 19 20  2  0  0  0  0
 21 29  1  0  0  0  0
 21 22  1  0  0  0  0
 23 22  1  1  0  0  0
 24 23  1  0  0  0  0
 24 25  1  6  0  0  0
 26 19  1  6  0  0  0
 26 24  1  0  0  0  0
 27 28  1  6  0  0  0
 27 26  1  0  0  0  0
 27 24  1  0  0  0  0
 27 23  1  0  0  0  0
 28 21  1  0  0  0  0
 29 30  1  0  0  0  0
 31 32  1  0  0  0  0
 31 21  1  0  0  0  0
M  END
>  <minimizedAffinity>
-5.27616835

$$$$

 OpenBabel03252507173D

 32 36  0  0  1  0  0  0  0  0999 V2000
   37.8660   27.9500   37.2640 C   0  0  0  0  0  0  0  0  0  0  0  0
   37.6000   28.2040   38.6270 C   0  0  0  0  0  0  0  0  0  0  0  0
   38.2120   27.4010   39.5780 C   0  0  0  0  0  0  0  0  0  0  0  0
   39.0300   26.4150   39.1760 N   0  0  0  0  0  0  0  0  0  0  0  0
   39.2800   26.1790   37.8510 C   0  0  0  0  0  0  0  0  0  0  0  0
   38.7000   26.9410   36.9340 N   0  0  0  0  0  0  0  0  0  0  0  0
   37.4050   28.5590   36.4870 H   0  0  0  0  0  0  0  0  0  0  0  0
   39.9440   25.3780   37.5620 H   0  0  0  0  0  0  0  0  0  0  0  0
   37.9340   27.6680   40.9820 C   0  0  0  0  0  0  0  0  0  0  0  0
   38.8480   28.3660   41.7320 C   0  0  0  0  0  0  0  0  0  0  0  0
   38.5530   28.6030   43.0600 C   0  0  0  0  0  0  0  0  0  0  0  0
   37.3860   28.1720   43.6760 C   0  0  0  0  0  0  0  0  0  0  0  0
   36.5180   27.4790   42.8630 C   0  0  0  0  0  0  0  0  0  0  0  0
   36.8020   27.2460   41.5630 N   0  0  0  0  0  0  0  0  0  0  0  0
   39.7690   28.7230   41.3020 H   0  0  0  0  0  0  0  0  0  0  0  0
   39.2940   29.1540   43.6190 H   0  0  0  0  0  0  0  0  0  0  0  0
   37.2160   28.3900   44.7240 H   0  0  0  0  0  0  0  0  0  0  0  0
   35.5930   27.1240   43.3020 H   0  0  0  0  0  0  0  0  0  0  0  0
   36.7180   29.2720   38.9780 C   0  0  0  0  0  0  0  0  0  0  0  0
   35.5010   28.9800   39.2120 O   0  0  0  0  0  0  0  0  0  0  0  0
   40.1340   32.9410   39.7910 C   0  0  0  0  0  0  0  0  0  0  0  0
   38.7650   33.2050   40.2780 C   0  0  0  0  0  2  0  0  0  0  0  0
   37.9750   32.0430   40.2690 N   0  0  1  0  0  0  0  0  0  0  0  0
   36.8980   31.1440   40.5010 C   0  0  1  0  0  0  0  0  0  0  0  0
   36.1480   30.9180   41.4790 O   0  0  0  0  0  1  0  0  0  0  0  0
   37.1610   30.6920   39.0770 C   0  0  1  0  0  3  0  0  0  0  0  0
   38.5490   30.8840   39.5500 C   0  0  1  0  0  0  0  0  0  0  0  0
   39.7430   31.7110   38.4740 S   0  0  0  0  0  0  0  0  0  0  0  0
   40.8070   34.1610   39.2230 C   0  0  0  0  0  2  0  0  0  0  0  0
   40.1920   35.0820   39.4290 H   0  0  0  0  0  0  0  0  0  0  0  0
   40.9630   32.2140   40.8000 C   0  0  0  0  0  2  0  0  0  0  0  0
   41.7190   32.8680   41.2870 H   0  0  0  0  0  0  0  0  0  0  0  0
  1  2  1  0  0  0  0
  2 19  1  0  0  0  0
  2  3  2  0  0  0  0
  3  9  1  0  0  0  0
  4  3  1  0  0  0  0
  5  4  2  0  0  0  0
  6  1  2  0  0  0  0
  6  5  1  0  0  0  0
  7  1  1  0  0  0  0
  8  5  1  0  0  0  0
  9 14  2  0  0  0  0
  9 10  1  0  0  0  0
 10 11  2  0  0  0  0
 11 16  1  0  0  0  0
 11 12  1  0  0  0  0
 12 17  1  0  0  0  0
 13 18  1  0  0  0  0
 13 12  2  0  0  0  0
 14 13  1  0  0  0  0
 15 10  1  0  0  0  0
 19 20  2  0  0  0  0
 21 22  1  0  0  0  0
 21 31  1  0  0  0  0
 23 22  1  6  0  0  0
 23 24  1  0  0  0  0
 24 25  1  1  0  0  0
 26 19  1  1  0  0  0
 26 27  1  0  0  0  0
 26 24  1  0  0  0  0
 27 28  1  1  0  0  0
 27 23  1  0  0  0  0
 27 24  1  0  0  0  0
 28 21  1  0  0  0  0
 29 30  1  0  0  0  0
 29 21  1  0  0  0  0
 31 32  1  0  0  0  0
M  END
>  <minimizedAffinity>
-5.182621

$$$$

 OpenBabel03252507173D

 32 36  0  0  1  0  0  0  0  0999 V2000
   38.5360   25.4950   37.9390 C   0  0  0  0  0  0  0  0  0  0  0  0
   38.2280   26.2990   39.0580 C   0  0  0  0  0  0  0  0  0  0  0  0
   38.4870   25.7940   40.3230 C   0  0  0  0  0  0  0  0  0  0  0  0
   39.0160   24.5660   40.4440 N   0  0  0  0  0  0  0  0  0  0  0  0
   39.3100   23.7960   39.3510 C   0  0  0  0  0  0  0  0  0  0  0  0
   39.0660   24.2700   38.1370 N   0  0  0  0  0  0  0  0  0  0  0  0
   38.3470   25.8570   36.9290 H   0  0  0  0  0  0  0  0  0  0  0  0
   39.7360   22.8120   39.4820 H   0  0  0  0  0  0  0  0  0  0  0  0
   38.1680   26.6280   41.4730 C   0  0  0  0  0  0  0  0  0  0  0  0
   36.9630   26.4690   42.1120 C   0  0  0  0  0  0  0  0  0  0  0  0
   36.6930   27.2760   43.1990 C   0  0  0  0  0  0  0  0  0  0  0  0
   37.5720   28.2370   43.6800 C   0  0  0  0  0  0  0  0  0  0  0  0
   38.7590   28.3400   42.9900 C   0  0  0  0  0  0  0  0  0  0  0  0
   39.0280   27.5530   41.9260 N   0  0  0  0  0  0  0  0  0  0  0  0
   36.2460   25.7370   41.7800 H   0  0  0  0  0  0  0  0  0  0  0  0
   35.7370   27.1240   43.6770 H   0  0  0  0  0  0  0  0  0  0  0  0
   37.2980   28.8400   44.5380 H   0  0  0  0  0  0  0  0  0  0  0  0
   39.4760   29.0780   43.3300 H   0  0  0  0  0  0  0  0  0  0  0  0
   37.6670   27.5970   38.8510 C   0  0  0  0  0  0  0  0  0  0  0  0
   36.3990   27.7060   38.8960 O   0  0  0  0  0  0  0  0  0  0  0  0
   38.8000   32.5310   39.2610 C   0  0  0  0  0  0  0  0  0  0  0  0
   39.0790   31.9040   37.9530 C   0  0  0  0  0  2  0  0  0  0  0  0
   38.4780   30.6390   37.8430 N   0  0  1  0  0  0  0  0  0  0  0  0
   37.9980   29.4180   37.2920 C   0  0  1  0  0  0  0  0  0  0  0  0
   37.4350   29.1110   36.2160 O   0  0  0  0  0  1  0  0  0  0  0  0
   38.4960   28.8080   38.5880 C   0  0  1  0  0  3  0  0  0  0  0  0
   37.9330   30.0760   39.0980 C   0  0  1  0  0  0  0  0  0  0  0  0
   38.8620   31.0260   40.3250 S   0  0  0  0  0  0  0  0  0  0  0  0
   39.8410   33.5380   39.6710 C   0  0  0  0  0  2  0  0  0  0  0  0
   40.5510   33.7380   38.8190 H   0  0  0  0  0  0  0  0  0  0  0  0
   37.3990   33.0440   39.3550 C   0  0  0  0  0  2  0  0  0  0  0  0
   37.3430   34.1530   39.2900 H   0  0  0  0  0  0  0  0  0  0  0  0
  1  6  2  0  0  0  0
  1  2  1  0  0  0  0
  2  3  2  0  0  0  0
  3  4  1  0  0  0  0
  3  9  1  0  0  0  0
  5  8  1  0  0  0  0
  5  4  2  0  0  0  0
  6  5  1  0  0  0  0
  7  1  1  0  0  0  0
  9 14  2  0  0  0  0
  9 10  1  0  0  0  0
 10 11  2  0  0  0  0
 11 16  1  0  0  0  0
 11 12  1  0  0  0  0
 12 17  1  0  0  0  0
 13 18  1  0  0  0  0
 13 12  2  0  0  0  0
 14 13  1  0  0  0  0
 15 10  1  0  0  0  0
 19 20  2  0  0  0  0
 19  2  1  0  0  0  0
 21 31  1  0  0  0  0
 21 29  1  0  0  0  0
 21 28  1  0  0  0  0
 22 21  1  0  0  0  0
 23 22  1  1  0  0  0
 23 27  1  0  0  0  0
 24 25  1  6  0  0  0
 24 23  1  0  0  0  0
 24 26  1  0  0  0  0
 24 27  1  0  0  0  0
 26 19  1  1  0  0  0
 26 27  1  0  0  0  0
 27 28  1  1  0  0  0
 30 29  1  0  0  0  0
 32 31  1  0  0  0  0
M  END
>  <minimizedAffinity>
-5.15427542

$$$$

 OpenBabel03252507173D

 32 36  0  0  1  0  0  0  0  0999 V2000
   36.5710   27.9390   42.1820 C   0  0  0  0  0  0  0  0  0  0  0  0
   37.2220   29.0150   41.5400 C   0  0  0  0  0  0  0  0  0  0  0  0
   38.5960   29.1340   41.6850 C   0  0  0  0  0  0  0  0  0  0  0  0
   39.2580   28.2300   42.4250 N   0  0  0  0  0  0  0  0  0  0  0  0
   38.6150   27.1910   43.0430 C   0  0  0  0  0  0  0  0  0  0  0  0
   37.3020   27.0690   42.9100 N   0  0  0  0  0  0  0  0  0  0  0  0
   35.4930   27.8120   42.0910 H   0  0  0  0  0  0  0  0  0  0  0  0
   39.1780   26.4810   43.6300 H   0  0  0  0  0  0  0  0  0  0  0  0
   39.2620   30.2450   41.0210 C   0  0  0  0  0  0  0  0  0  0  0  0
   39.9570   30.0210   39.8580 C   0  0  0  0  0  0  0  0  0  0  0  0
   40.5760   31.0960   39.2540 C   0  0  0  0  0  0  0  0  0  0  0  0
   40.5360   32.3890   39.7590 C   0  0  0  0  0  0  0  0  0  0  0  0
   39.8230   32.5380   40.9270 C   0  0  0  0  0  0  0  0  0  0  0  0
   39.2150   31.4890   41.5210 N   0  0  0  0  0  0  0  0  0  0  0  0
   40.0180   29.0370   39.4240 H   0  0  0  0  0  0  0  0  0  0  0  0
   41.1120   30.8840   38.3410 H   0  0  0  0  0  0  0  0  0  0  0  0
   41.0460   33.1900   39.2350 H   0  0  0  0  0  0  0  0  0  0  0  0
   39.7650   33.5300   41.3570 H   0  0  0  0  0  0  0  0  0  0  0  0
   36.4500   29.9380   40.7680 C   0  0  0  0  0  0  0  0  0  0  0  0
   36.1230   31.0380   41.3180 O   0  0  0  0  0  0  0  0  0  0  0  0
   36.8350   27.6830   36.2330 C   0  0  0  0  0  0  0  0  0  0  0  0
   36.3880   29.0910   36.2270 C   0  0  0  0  0  2  0  0  0  0  0  0
   36.5850   29.7070   37.4730 N   0  0  1  0  0  0  0  0  0  0  0  0
   36.6820   30.7030   38.4840 C   0  0  1  0  0  0  0  0  0  0  0  0
   37.1320   31.8720   38.5140 O   0  0  0  0  0  1  0  0  0  0  0  0
   36.0200   29.6630   39.3670 C   0  0  1  0  0  3  0  0  0  0  0  0
   36.9330   28.7990   38.5890 C   0  0  1  0  0  0  0  0  0  0  0  0
   36.3240   27.2240   37.9440 S   0  0  0  0  0  0  0  0  0  0  0  0
   36.1400   26.8340   35.2040 C   0  0  0  0  0  2  0  0  0  0  0  0
   35.5250   27.4770   34.5140 H   0  0  0  0  0  0  0  0  0  0  0  0
   38.3250   27.5640   36.2020 C   0  0  0  0  0  2  0  0  0  0  0  0
   38.7100   27.2370   35.2120 H   0  0  0  0  0  0  0  0  0  0  0  0
  1  6  1  0  0  0  0
  2  3  1  0  0  0  0
  2  1  2  0  0  0  0
  3  4  2  0  0  0  0
  4  5  1  0  0  0  0
  5  8  1  0  0  0  0
  6  5  2  0  0  0  0
  7  1  1  0  0  0  0
  9 14  1  0  0  0  0
  9  3  1  0  0  0  0
 10  9  2  0  0  0  0
 11 12  2  0  0  0  0
 11 10  1  0  0  0  0
 12 13  1  0  0  0  0
 13 18  1  0  0  0  0
 13 14  2  0  0  0  0
 15 10  1  0  0  0  0
 16 11  1  0  0  0  0
 17 12  1  0  0  0  0
 19 20  2  0  0  0  0
 19  2  1  0  0  0  0
 21 28  1  0  0  0  0
 22 21  1  0  0  0  0
 23 22  1  1  0  0  0
 23 24  1  0  0  0  0
 23 27  1  0  0  0  0
 24 25  1  1  0  0  0
 24 27  1  0  0  0  0
 24 26  1  0  0  0  0
 26 19  1  1  0  0  0
 27 28  1  1  0  0  0
 27 26  1  0  0  0  0
 29 21  1  0  0  0  0
 30 29  1  0  0  0  0
 31 21  1  0  0  0  0
 32 31  1  0  0  0  0
M  END
>  <minimizedAffinity>
-5.06818771

$$$$

 OpenBabel03252507173D

 32 36  0  0  1  0  0  0  0  0999 V2000
   36.9690   27.0580   41.4360 C   0  0  0  0  0  0  0  0  0  0  0  0
   37.2890   28.2570   40.7620 C   0  0  0  0  0  0  0  0  0  0  0  0
   37.5830   29.3810   41.5190 C   0  0  0  0  0  0  0  0  0  0  0  0
   37.5540   29.2950   42.8590 N   0  0  0  0  0  0  0  0  0  0  0  0
   37.2430   28.1260   43.5010 C   0  0  0  0  0  0  0  0  0  0  0  0
   36.9600   27.0470   42.7860 N   0  0  0  0  0  0  0  0  0  0  0  0
   36.7330   26.1550   40.8760 H   0  0  0  0  0  0  0  0  0  0  0  0
   37.2300   28.0910   44.5810 H   0  0  0  0  0  0  0  0  0  0  0  0
   37.9120   30.6130   40.8190 C   0  0  0  0  0  0  0  0  0  0  0  0
   36.9350   31.5560   40.6110 C   0  0  0  0  0  0  0  0  0  0  0  0
   37.2810   32.7130   39.9440 C   0  0  0  0  0  0  0  0  0  0  0  0
   38.5600   32.9750   39.4710 C   0  0  0  0  0  0  0  0  0  0  0  0
   39.4860   31.9860   39.7140 C   0  0  0  0  0  0  0  0  0  0  0  0
   39.1520   30.8510   40.3680 N   0  0  0  0  0  0  0  0  0  0  0  0
   35.9270   31.4030   40.9580 H   0  0  0  0  0  0  0  0  0  0  0  0
   36.4890   33.4320   39.7980 H   0  0  0  0  0  0  0  0  0  0  0  0
   38.7660   33.9050   38.9530 H   0  0  0  0  0  0  0  0  0  0  0  0
   40.4980   32.1470   39.3630 H   0  0  0  0  0  0  0  0  0  0  0  0
   37.2990   28.2720   39.3330 C   0  0  0  0  0  0  0  0  0  0  0  0
   38.3870   27.9650   38.7470 O   0  0  0  0  0  0  0  0  0  0  0  0
   34.0210   27.6140   35.5090 C   0  0  0  0  0  0  0  0  0  0  0  0
   34.3670   29.0120   35.8400 C   0  0  0  0  0  2  0  0  0  0  0  0
   35.4770   29.0860   36.6980 N   0  0  1  0  0  0  0  0  0  0  0  0
   36.5650   29.6060   37.4520 C   0  0  1  0  0  0  0  0  0  0  0  0
   37.4400   30.4740   37.2310 O   0  0  0  0  0  1  0  0  0  0  0  0
   36.1040   28.6280   38.5160 C   0  0  1  0  0  3  0  0  0  0  0  0
   35.9050   27.8050   37.3040 C   0  0  1  0  0  0  0  0  0  0  0  0
   34.3910   26.8300   37.1370 S   0  0  0  0  0  0  0  0  0  0  0  0
   32.5780   27.4340   35.1270 C   0  0  0  0  0  2  0  0  0  0  0  0
   32.0740   28.4350   35.0090 H   0  0  0  0  0  0  0  0  0  0  0  0
   34.9800   27.0110   34.5340 C   0  0  0  0  0  2  0  0  0  0  0  0
   34.5500   26.9100   33.5140 H   0  0  0  0  0  0  0  0  0  0  0  0
  1  6  1  0  0  0  0
  2  1  2  0  0  0  0
  2  3  1  0  0  0  0
  3  4  2  0  0  0  0
  4  5  1  0  0  0  0
  5  8  1  0  0  0  0
  6  5  2  0  0  0  0
  7  1  1  0  0  0  0
  9  3  1  0  0  0  0
 10  9  1  0  0  0  0
 10 15  1  0  0  0  0
 11 10  2  0  0  0  0
 12 13  2  0  0  0  0
 12 11  1  0  0  0  0
 13 14  1  0  0  0  0
 14  9  2  0  0  0  0
 16 11  1  0  0  0  0
 17 12  1  0  0  0  0
 18 13  1  0  0  0  0
 19  2  1  0  0  0  0
 20 19  2  0  0  0  0
 21 22  1  0  0  0  0
 21 28  1  0  0  0  0
 23 22  1  1  0  0  0
 23 27  1  0  0  0  0
 23 24  1  0  0  0  0
 24 25  1  6  0  0  0
 24 26  1  0  0  0  0
 26 19  1  1  0  0  0
 27 28  1  6  0  0  0
 27 24  1  0  0  0  0
 27 26  1  0  0  0  0
 29 21  1  0  0  0  0
 30 29  1  0  0  0  0
 31 21  1  0  0  0  0
 32 31  1  0  0  0  0
M  END
>  <minimizedAffinity>
-4.97474432

$$$$

 OpenBabel03252507173D

 32 36  0  0  1  0  0  0  0  0999 V2000
   39.7800   32.0770   40.1320 C   0  0  0  0  0  0  0  0  0  0  0  0
   39.0460   31.2360   39.2680 C   0  0  0  0  0  0  0  0  0  0  0  0
   37.7990   31.6610   38.8370 C   0  0  0  0  0  0  0  0  0  0  0  0
   37.3320   32.8500   39.2510 N   0  0  0  0  0  0  0  0  0  0  0  0
   38.0540   33.6570   40.0900 C   0  0  0  0  0  0  0  0  0  0  0  0
   39.2470   33.2590   40.5070 N   0  0  0  0  0  0  0  0  0  0  0  0
   40.7630   31.7770   40.4920 H   0  0  0  0  0  0  0  0  0  0  0  0
   37.6490   34.6080   40.4040 H   0  0  0  0  0  0  0  0  0  0  0  0
   37.0470   30.7900   37.9460 C   0  0  0  0  0  0  0  0  0  0  0  0
   37.3240   30.7940   36.6010 C   0  0  0  0  0  0  0  0  0  0  0  0
   36.5930   29.9560   35.7840 C   0  0  0  0  0  0  0  0  0  0  0  0
   35.5930   29.1110   36.2480 C   0  0  0  0  0  0  0  0  0  0  0  0
   35.3700   29.1610   37.6050 C   0  0  0  0  0  0  0  0  0  0  0  0
   36.0840   29.9800   38.4090 N   0  0  0  0  0  0  0  0  0  0  0  0
   38.0900   31.4300   36.1900 H   0  0  0  0  0  0  0  0  0  0  0  0
   36.8380   29.9850   34.7330 H   0  0  0  0  0  0  0  0  0  0  0  0
   35.0550   28.4780   35.5520 H   0  0  0  0  0  0  0  0  0  0  0  0
   34.5990   28.5190   38.0120 H   0  0  0  0  0  0  0  0  0  0  0  0
   39.6090   29.9840   38.8690 C   0  0  0  0  0  0  0  0  0  0  0  0
   40.3910   29.9810   37.8650 O   0  0  0  0  0  0  0  0  0  0  0  0
   37.5880   27.1740   42.5870 C   0  0  0  0  0  0  0  0  0  0  0  0
   38.9110   26.7440   42.0880 C   0  0  0  0  0  2  0  0  0  0  0  0
   39.5090   27.7260   41.2820 N   0  0  1  0  0  0  0  0  0  0  0  0
   40.4740   28.4380   40.5170 C   0  0  1  0  0  0  0  0  0  0  0  0
   41.6960   28.6730   40.6610 O   0  0  0  0  0  1  0  0  0  0  0  0
   39.3170   28.7020   39.5730 C   0  0  1  0  0  3  0  0  0  0  0  0
   38.6290   28.8440   40.8740 C   0  0  1  0  0  0  0  0  0  0  0  0
   37.0010   28.0900   41.0980 S   0  0  0  0  0  0  0  0  0  0  0  0
   36.6770   26.0240   42.9210 C   0  0  0  0  0  2  0  0  0  0  0  0
   37.2410   25.0500   42.8790 H   0  0  0  0  0  0  0  0  0  0  0  0
   37.6990   28.1890   43.6780 C   0  0  0  0  0  2  0  0  0  0  0  0
   37.4670   27.7690   44.6810 H   0  0  0  0  0  0  0  0  0  0  0  0
  1  7  1  0  0  0  0
  1  6  1  0  0  0  0
  2  1  2  0  0  0  0
  3  4  2  0  0  0  0
  3  2  1  0  0  0  0
  4  5  1  0  0  0  0
  5  8  1  0  0  0  0
  5  6  2  0  0  0  0
  9 14  1  0  0  0  0
  9  3  1  0  0  0  0
 10  9  2  0  0  0  0
 11 12  2  0  0  0  0
 11 10  1  0  0  0  0
 12 13  1  0  0  0  0
 13 18  1  0  0  0  0
 13 14  2  0  0  0  0
 15 10  1  0  0  0  0
 16 11  1  0  0  0  0
 17 12  1  0  0  0  0
 19  2  1  0  0  0  0
 20 19  2  0  0  0  0
 21 29  1  0  0  0  0
 21 31  1  0  0  0  0
 22 21  1  0  0  0  0
 23 22  1  6  0  0  0
 24 25  1  1  0  0  0
 24 27  1  0  0  0  0
 24 23  1  0  0  0  0
 26 19  1  1  0  0  0
 26 24  1  0  0  0  0
 26 27  1  0  0  0  0
 27 28  1  1  0  0  0
 27 23  1  0  0  0  0
 28 21  1  0  0  0  0
 30 29  1  0  0  0  0
 31 32  1  0  0  0  0
M  END
>  <minimizedAffinity>
-4.93747759

$$$$
