
 OpenBabel03252508503D

 31 34  0  0  1  0  0  0  0  0999 V2000
   46.3650   32.7860   42.3930 C   0  0  0  0  0  0  0  0  0  0  0  0
   46.8150   33.7680   43.2740 C   0  0  0  0  0  0  0  0  0  0  0  0
   48.0680   34.3320   43.0170 C   0  0  0  0  0  0  0  0  0  0  0  0
   48.7650   33.8900   41.9330 N   0  0  0  0  0  0  0  0  0  0  0  0
   48.2960   32.9430   41.1110 C   0  0  0  0  0  0  0  0  0  0  0  0
   47.0870   32.3900   41.3460 N   0  0  0  0  0  0  0  0  0  0  0  0
   48.4140   35.0820   43.6880 H   0  0  0  0  0  0  0  0  0  0  0  0
   48.8350   32.5800   40.2450 H   0  0  0  0  0  0  0  0  0  0  0  0
   45.9790   34.1650   44.4080 C   0  0  0  0  0  0  0  0  0  0  0  0
   45.0670   35.2090   44.3410 C   0  0  0  0  0  0  0  0  0  0  0  0
   44.5140   35.2300   45.6040 C   0  0  0  0  0  0  0  0  0  0  0  0
   45.0530   34.2650   46.3880 N   0  0  0  0  0  0  0  0  0  0  0  0
   45.9340   33.6380   45.6390 N   0  0  0  0  0  0  0  0  0  0  0  0
   44.8160   35.8770   43.5090 H   0  0  0  0  0  0  0  0  0  0  0  0
   43.7450   35.9220   45.9520 H   0  0  0  0  0  0  0  0  0  0  0  0
   44.7820   34.1000   47.3840 H   0  0  0  0  0  0  0  0  0  0  0  0
   45.1330   32.2200   42.6300 O   0  0  0  0  0  0  0  0  0  0  0  0
   44.8160   30.8920   42.5900 C   0  0  0  0  0  0  0  0  0  0  0  0
   44.5070   30.1940   41.5700 O   0  0  0  0  0  0  0  0  0  0  0  0
   43.0720   26.8240   45.1740 C   0  0  0  0  0  0  0  0  0  0  0  0
   44.0690   26.4930   44.0810 C   0  0  0  0  0  2  0  0  0  0  0  0
   44.7300   27.7350   43.7250 N   0  0  0  0  0  0  0  0  0  0  0  0
   45.7260   28.7490   43.4710 C   0  0  0  0  0  0  0  0  0  0  0  0
   46.9660   28.5810   43.2090 O   0  0  0  0  0  0  0  0  0  0  0  0
   44.7150   29.8200   43.6500 C   0  0  2  0  0  3  0  0  0  0  0  0
   43.7530   28.7260   43.3150 C   0  0  2  0  0  3  0  0  0  0  0  0
   42.4610   28.4490   44.5760 S   0  0  0  0  0  0  0  0  0  0  0  0
   41.9470   25.8140   45.1900 C   0  0  0  0  0  2  0  0  0  0  0  0
   42.3120   24.8060   44.9050 H   0  0  0  0  0  0  0  0  0  0  0  0
   43.6890   26.9130   46.5350 C   0  0  0  0  0  2  0  0  0  0  0  0
   44.1800   27.8820   46.7570 H   0  0  0  0  0  0  0  0  0  0  0  0
  1 17  1  0  0  0  0
  1  2  1  0  0  0  0
  2  9  1  0  0  0  0
  3  2  2  0  0  0  0
  3  7  1  0  0  0  0
  4  3  1  0  0  0  0
  5  6  1  0  0  0  0
  5  4  2  0  0  0  0
  6  1  2  0  0  0  0
  8  5  1  0  0  0  0
  9 13  2  0  0  0  0
 10  9  1  0  0  0  0
 10 11  2  0  0  0  0
 11 15  1  0  0  0  0
 11 12  1  0  0  0  0
 12 16  1  0  0  0  0
 13 12  1  0  0  0  0
 14 10  1  0  0  0  0
 18 17  1  0  0  0  0
 19 18  2  0  0  0  0
 20 28  1  0  0  0  0
 20 30  1  0  0  0  0
 21 20  1  0  0  0  0
 22 21  1  0  0  0  0
 23 25  1  0  0  0  0
 23 22  1  0  0  0  0
 24 23  2  0  0  0  0
 25 18  1  6  0  0  0
 26 25  1  0  0  0  0
 26 22  1  0  0  0  0
 26 27  1  1  0  0  0
 27 20  1  0  0  0  0
 29 28  1  0  0  0  0
 30 31  1  0  0  0  0
M  END
>  <minimizedAffinity>
-3.97789001

>  <minimizedRMSD>
5.76577902

$$$$
