
 OpenBabel03252505573D

 39 42  0  0  1  0  0  0  0  0999 V2000
   44.8150   35.0520   45.1780 C   0  0  0  0  0  0  0  0  0  0  0  0
   45.7390   34.8220   44.1390 C   0  0  0  0  0  0  0  0  0  0  0  0
   46.6960   33.7980   44.3090 C   0  0  0  0  0  0  0  0  0  0  0  0
   46.6530   33.1070   45.4720 N   0  0  0  0  0  0  0  0  0  0  0  0
   45.7700   33.3480   46.4360 C   0  0  0  0  0  0  0  0  0  0  0  0
   44.8490   34.3160   46.3000 N   0  0  0  0  0  0  0  0  0  0  0  0
   44.0670   35.8190   45.0980 H   0  0  0  0  0  0  0  0  0  0  0  0
   45.6620   35.6210   42.8970 C   0  0  0  0  0  0  0  0  0  0  0  0
   45.1240   36.8270   43.3040 F   0  0  0  0  0  0  0  0  0  0  0  0
   44.6990   35.0040   42.0730 F   0  0  0  0  0  0  0  0  0  0  0  0
   46.8320   35.7480   42.3070 F   0  0  0  0  0  0  0  0  0  0  0  0
   45.7340   32.6380   47.6300 O   0  0  0  0  0  0  0  0  0  0  0  0
   45.2810   31.3220   47.6840 C   0  0  0  0  0  0  0  0  0  0  0  0
   44.6970   31.0960   46.7440 H   0  0  0  0  0  0  0  0  0  0  0  0
   44.6130   31.1350   48.5620 H   0  0  0  0  0  0  0  0  0  0  0  0
   46.4440   30.4460   47.7510 C   0  0  0  0  0  0  0  0  0  0  0  0
   46.6570   29.2110   47.1600 C   0  0  0  0  0  0  0  0  0  0  0  0
   47.8470   28.5920   47.3800 C   0  0  0  0  0  0  0  0  0  0  0  0
   48.8000   29.1330   48.1350 N   0  0  0  0  0  0  0  0  0  0  0  0
   48.5870   30.3260   48.7030 C   0  0  0  0  0  0  0  0  0  0  0  0
   47.4190   30.9990   48.5240 N   0  0  0  0  0  0  0  0  0  0  0  0
   45.8180   28.8660   46.5670 H   0  0  0  0  0  0  0  0  0  0  0  0
   47.9850   27.6150   46.9000 H   0  0  0  0  0  0  0  0  0  0  0  0
   49.7150   30.8420   49.5260 C   0  0  0  0  0  0  0  0  0  0  0  0
   49.7310   32.2130   49.5470 F   0  0  0  0  0  0  0  0  0  0  0  0
   50.9390   30.3860   49.0100 F   0  0  0  0  0  0  0  0  0  0  0  0
   49.6460   30.4120   50.8350 F   0  0  0  0  0  0  0  0  0  0  0  0
   47.7870   33.4860   43.4320 C   0  0  0  0  0  2  0  0  0  0  0  0
   47.5350   32.3080   42.5670 C   0  0  1  0  0  0  0  0  0  0  0  0
   46.6690   32.5680   41.3540 C   0  0  0  0  0  2  0  0  0  0  0  0
   47.4760   32.7690   40.1970 N   0  0  0  0  0  0  0  0  0  0  0  0
   48.0980   33.2690   39.0210 C   0  0  0  0  0  0  0  0  0  0  0  0
   48.0060   34.2120   38.1950 O   0  0  0  0  0  0  0  0  0  0  0  0
   49.1250   32.1950   38.9500 C   0  0  0  0  0  3  0  0  0  0  0  0
   49.0950   31.5510   38.0560 H   0  0  0  0  0  0  0  0  0  0  0  0
   48.3570   31.5940   40.0740 C   0  0  1  0  0  3  0  0  0  0  0  0
   49.1390   31.8220   41.7240 S   0  0  0  0  0  0  0  0  0  0  0  0
   46.9950   31.0610   43.2140 C   0  0  0  0  0  2  0  0  0  0  0  0
   47.7870   30.3980   43.6080 H   0  0  0  0  0  0  0  0  0  0  0  0
  1  6  1  0  0  0  0
  2  3  1  0  0  0  0
  2  1  2  0  0  0  0
  3  4  2  0  0  0  0
  4  5  1  0  0  0  0
  5 12  1  0  0  0  0
  6  5  2  0  0  0  0
  7  1  1  0  0  0  0
  8  9  1  0  0  0  0
  8  2  1  0  0  0  0
 10  8  1  0  0  0  0
 11  8  1  0  0  0  0
 12 13  1  0  0  0  0
 13 16  1  0  0  0  0
 13 15  1  0  0  0  0
 14 13  1  0  0  0  0
 16 21  1  0  0  0  0
 17 18  1  0  0  0  0
 17 16  2  0  0  0  0
 18 19  2  0  0  0  0
 19 20  1  0  0  0  0
 20 24  1  0  0  0  0
 21 20  2  0  0  0  0
 22 17  1  0  0  0  0
 23 18  1  0  0  0  0
 24 25  1  0  0  0  0
 24 27  1  0  0  0  0
 26 24  1  0  0  0  0
 28  3  1  0  0  0  0
 29 38  1  1  0  0  0
 29 28  1  0  0  0  0
 30 29  1  0  0  0  0
 31 30  1  0  0  0  0
 32 31  1  0  0  0  0
 33 32  2  0  0  0  0
 34 32  1  0  0  0  0
 35 34  1  0  0  0  0
 36 34  1  6  0  0  0
 36 31  1  0  0  0  0
 36 37  1  0  0  0  0
 37 29  1  0  0  0  0
 38 39  1  0  0  0  0
M  END
>  <minimizedAffinity>
-6.21746588

>  <minimizedRMSD>
0.353844315

$$$$
