
 OpenBabel03242522513D

 29 31  0  0  1  0  0  0  0  0999 V2000
   47.6770   31.7980   48.6830 O   0  0  0  0  0  0  0  0  0  0  0  0
   45.5860   30.5590   47.7810 O   0  0  0  0  0  0  0  0  0  0  0  0
   46.0330   31.8110   48.5550 P   0  0  1  0  0  0  0  0  0  0  0  0
   45.2660   31.7650   50.0530 O   0  0  0  0  0  0  0  0  0  0  0  0
   44.3920   32.1960   50.0280 H   0  0  0  0  0  0  0  0  0  0  0  0
   45.5040   33.1750   47.7120 O   0  0  0  0  0  0  0  0  0  0  0  0
   47.1810   32.7310   44.5190 C   0  0  0  0  0  0  0  0  0  0  0  0
   46.8250   32.5840   45.8710 C   0  0  0  0  0  0  0  0  0  0  0  0
   45.8110   33.3580   46.3800 C   0  0  0  0  0  0  0  0  0  0  0  0
   45.2060   34.2310   45.5390 N   0  0  0  0  0  0  0  0  0  0  0  0
   45.5380   34.3780   44.2510 C   0  0  0  0  0  0  0  0  0  0  0  0
   46.5290   33.6250   43.7400 N   0  0  0  0  0  0  0  0  0  0  0  0
   47.9610   32.1720   44.0260 H   0  0  0  0  0  0  0  0  0  0  0  0
   47.4340   31.8340   46.3430 H   0  0  0  0  0  0  0  0  0  0  0  0
   45.0120   35.0880   43.6530 H   0  0  0  0  0  0  0  0  0  0  0  0
   48.5510   30.8960   49.1730 C   0  0  0  0  0  0  0  0  0  0  0  0
   49.0210   30.0950   48.2910 O   0  0  0  0  0  0  0  0  0  0  0  0
   52.7380   32.1420   49.8230 C   0  0  0  0  0  0  0  0  0  0  0  0
   52.6880   30.8790   50.7000 C   0  0  0  0  0  2  0  0  0  0  0  0
   51.4810   30.1560   50.2660 N   0  0  0  0  0  0  0  0  0  0  0  0
   50.4280   29.3400   49.7750 C   0  0  0  0  0  0  0  0  0  0  0  0
   50.6280   28.2430   49.1820 O   0  0  0  0  0  0  0  0  0  0  0  0
   49.3460   30.2340   50.2220 C   0  0  1  0  0  3  0  0  0  0  0  0
   50.4290   31.0550   50.7920 C   0  0  2  0  0  3  0  0  0  0  0  0
   50.9400   32.5460   49.8900 S   0  0  0  0  0  0  0  0  0  0  0  0
   53.5710   33.1960   50.4670 C   0  0  0  0  0  2  0  0  0  0  0  0
   52.9650   33.7360   51.2130 H   0  0  0  0  0  0  0  0  0  0  0  0
   53.1660   31.7470   48.4440 C   0  0  0  0  0  2  0  0  0  0  0  0
   54.1850   32.1210   48.1830 H   0  0  0  0  0  0  0  0  0  0  0  0
  1 16  1  0  0  0  0
  3  2  2  6  0  0  0
  3  1  1  0  0  0  0
  3  4  1  0  0  0  0
  5  4  1  0  0  0  0
  6  3  1  0  0  0  0
  7  8  1  0  0  0  0
  8 14  1  0  0  0  0
  8  9  2  0  0  0  0
  9  6  1  0  0  0  0
 10  9  1  0  0  0  0
 11 10  2  0  0  0  0
 12 11  1  0  0  0  0
 12  7  2  0  0  0  0
 13  7  1  0  0  0  0
 15 11  1  0  0  0  0
 17 16  2  0  0  0  0
 18 25  1  0  0  0  0
 18 26  1  0  0  0  0
 18 19  1  0  0  0  0
 20 19  1  0  0  0  0
 20 24  1  0  0  0  0
 21 23  1  0  0  0  0
 21 20  1  0  0  0  0
 22 21  2  0  0  0  0
 23 16  1  6  0  0  0
 23 24  1  0  0  0  0
 24 25  1  6  0  0  0
 26 27  1  0  0  0  0
 28 18  1  0  0  0  0
 29 28  1  0  0  0  0
M  END
>  <minimizedAffinity>
-5.23489475

>  <minimizedRMSD>
1.35240757

$$$$
