
 OpenBabel03242512343D

 23 26  0  0  1  0  0  0  0  0999 V2000
   47.1070   29.5150   42.6810 C   0  0  0  0  0  0  0  0  0  0  0  0
   48.0760   30.0660   41.7360 C   0  0  0  0  0  2  0  0  0  0  0  0
   47.7570   31.3590   41.3210 N   0  0  2  0  0  0  0  0  0  0  0  0
   47.9530   32.6360   40.8060 C   0  0  2  0  0  0  0  0  0  0  0  0
   48.6960   33.2880   40.0270 O   0  0  0  0  0  1  0  0  0  0  0  0
   46.8010   33.1440   41.5900 C   0  0  1  0  0  3  0  0  0  0  0  0
   46.3720   31.7140   41.4750 C   0  0  1  0  0  0  0  0  0  0  0  0
   46.0330   30.9180   43.0950 S   0  0  0  0  0  0  0  0  0  0  0  0
   47.2500   33.5490   42.9570 C   0  0  0  0  0  0  0  0  0  0  0  0
   48.3780   33.2000   43.4270 O   0  0  0  0  0  0  0  0  0  0  0  0
   46.2760   34.3490   43.6360 C   0  0  0  0  0  0  0  0  0  0  0  0
   45.8150   35.4510   42.8940 C   0  0  0  0  0  0  0  0  0  0  0  0
   44.8580   36.2790   43.5030 C   0  0  0  0  0  0  0  0  0  0  0  0
   44.4430   35.9590   44.7580 N   0  0  0  0  0  0  0  0  0  0  0  0
   44.9130   34.8920   45.4300 C   0  0  0  0  0  0  0  0  0  0  0  0
   45.8280   34.0920   44.8630 N   0  0  0  0  0  0  0  0  0  0  0  0
   46.1130   35.7360   41.9130 H   0  0  0  0  0  0  0  0  0  0  0  0
   44.4420   37.1400   43.0300 H   0  0  0  0  0  0  0  0  0  0  0  0
   44.5190   34.7220   46.4260 H   0  0  0  0  0  0  0  0  0  0  0  0
   46.1960   28.5300   41.9360 C   0  0  0  0  0  2  0  0  0  0  0  0
   45.9820   28.9220   40.9250 H   0  0  0  0  0  0  0  0  0  0  0  0
   47.7050   28.8600   43.9010 C   0  0  0  0  0  2  0  0  0  0  0  0
   47.2070   27.8790   44.0360 H   0  0  0  0  0  0  0  0  0  0  0  0
  1  8  1  0  0  0  0
  1 22  1  0  0  0  0
  2  1  1  0  0  0  0
  3  7  1  0  0  0  0
  3  2  1  1  0  0  0
  4  5  1  6  0  0  0
  4  3  1  0  0  0  0
  4  7  1  0  0  0  0
  4  6  1  0  0  0  0
  6  9  1  1  0  0  0
  7  6  1  0  0  0  0
  7  8  1  1  0  0  0
  9 10  2  0  0  0  0
  9 11  1  0  0  0  0
 11 16  1  0  0  0  0
 12 13  1  0  0  0  0
 12 11  2  0  0  0  0
 13 14  2  0  0  0  0
 14 15  1  0  0  0  0
 15 19  1  0  0  0  0
 16 15  2  0  0  0  0
 17 12  1  0  0  0  0
 18 13  1  0  0  0  0
 20  1  1  0  0  0  0
 21 20  1  0  0  0  0
 22 23  1  0  0  0  0
M  END
>  <minimizedAffinity>
-3.5921154

>  <minimizedRMSD>
1.42254519

$$$$
