
 OpenBabel03242519103D

 50 54  0  0  1  0  0  0  0  0999 V2000
   47.4830   31.6660   36.8720 C   0  0  0  0  0  0  0  0  0  0  0  0
   47.1930   32.5340   37.9480 C   0  0  0  0  0  0  0  0  0  0  0  0
   46.0690   33.3060   37.7440 C   0  0  0  0  0  0  0  0  0  0  0  0
   45.2720   33.2830   36.6350 C   0  0  0  0  0  0  0  0  0  0  0  0
   45.5930   32.4170   35.6070 C   0  0  0  0  0  0  0  0  0  0  0  0
   46.6980   31.6230   35.7480 C   0  0  0  0  0  0  0  0  0  0  0  0
   45.8150   33.9850   38.5480 H   0  0  0  0  0  0  0  0  0  0  0  0
   44.3960   33.9140   36.5250 H   0  0  0  0  0  0  0  0  0  0  0  0
   44.9820   32.3760   34.7150 H   0  0  0  0  0  0  0  0  0  0  0  0
   47.5160   31.2900   33.4590 C   0  0  0  0  0  0  0  0  0  0  0  0
   47.6980   32.5450   33.3490 O   0  0  0  0  0  0  0  0  0  0  0  0
   47.0010   30.7420   34.6660 N   0  0  0  0  0  0  0  0  0  0  0  0
   46.8290   29.7340   34.8160 H   0  0  0  0  0  0  0  0  0  0  0  0
   51.5560   30.2510   33.3110 C   0  0  0  0  0  0  0  0  0  0  0  0
   50.9270   28.9310   32.9760 C   0  0  0  0  0  2  0  0  0  0  0  0
   49.5060   29.0880   32.8930 N   0  0  0  0  0  0  0  0  0  0  0  0
   48.0970   28.9690   33.0620 C   0  0  0  0  0  0  0  0  0  0  0  0
   47.3520   28.0760   33.5900 O   0  0  0  0  0  0  0  0  0  0  0  0
   47.8010   30.2650   32.3970 C   0  0  2  0  0  3  0  0  0  0  0  0
   49.1990   30.1550   31.9300 C   0  0  1  0  0  3  0  0  0  0  0  0
   50.3450   31.4180   32.6080 S   0  0  0  0  0  0  0  0  0  0  0  0
   51.7980   30.4840   34.7650 C   0  0  0  0  0  2  0  0  0  0  0  0
   51.2210   29.8560   35.4490 H   0  0  0  0  0  0  0  0  0  0  0  0
   52.8650   30.3170   32.5430 C   0  0  0  0  0  2  0  0  0  0  0  0
   52.6970   30.3230   31.4490 H   0  0  0  0  0  0  0  0  0  0  0  0
   47.9560   32.6250   39.1240 N   0  0  0  0  0  0  0  0  0  0  0  0
   48.9620   32.5150   38.8550 H   0  0  0  0  0  0  0  0  0  0  0  0
   47.2320   34.1620   42.2480 N   0  0  0  0  0  0  0  0  0  0  0  0
   47.0890   34.1920   40.7930 C   0  0  0  0  0  0  0  0  0  0  0  0
   47.6040   32.8240   40.4880 C   0  0  2  0  0  0  0  0  0  0  0  0
   48.8710   32.7500   41.3190 C   0  0  0  0  0  0  0  0  0  0  0  0
   48.5240   33.5940   42.5220 C   0  0  0  0  0  0  0  0  0  0  0  0
   47.7460   34.9500   40.3310 H   0  0  0  0  0  0  0  0  0  0  0  0
   46.0240   34.2990   40.5030 H   0  0  0  0  0  0  0  0  0  0  0  0
   46.8460   32.0940   40.8390 H   0  0  0  0  0  0  0  0  0  0  0  0
   49.1130   31.7090   41.6100 H   0  0  0  0  0  0  0  0  0  0  0  0
   49.6750   33.2590   40.7620 H   0  0  0  0  0  0  0  0  0  0  0  0
   48.4640   32.9570   43.4450 H   0  0  0  0  0  0  0  0  0  0  0  0
   49.2620   34.3850   42.7190 H   0  0  0  0  0  0  0  0  0  0  0  0
   44.6770   36.0310   44.2330 C   0  0  0  0  0  0  0  0  0  0  0  0
   45.5210   35.7000   43.1790 C   0  0  0  0  0  0  0  0  0  0  0  0
   46.3480   34.5770   43.2560 C   0  0  0  0  0  0  0  0  0  0  0  0
   46.2680   33.8590   44.4000 N   0  0  0  0  0  0  0  0  0  0  0  0
   45.4630   34.1610   45.4250 C   0  0  0  0  0  0  0  0  0  0  0  0
   44.6620   35.2640   45.3290 N   0  0  0  0  0  0  0  0  0  0  0  0
   44.0760   36.9150   44.0820 H   0  0  0  0  0  0  0  0  0  0  0  0
   45.6250   36.2400   42.2410 H   0  0  0  0  0  0  0  0  0  0  0  0
   45.4270   33.5560   46.3330 H   0  0  0  0  0  0  0  0  0  0  0  0
   49.5780   30.1490   37.1100 N   0  0  0  0  0  0  0  0  0  0  0  0
   48.6490   30.8240   37.0150 C   0  0  0  0  0  0  0  0  0  0  0  0
  1 50  1  0  0  0  0
  1  2  1  0  0  0  0
  2 26  1  0  0  0  0
  3  2  2  0  0  0  0
  3  7  1  0  0  0  0
  4  3  1  0  0  0  0
  5  6  1  0  0  0  0
  5  4  2  0  0  0  0
  6  1  2  0  0  0  0
  8  4  1  0  0  0  0
  9  5  1  0  0  0  0
 10 12  1  0  0  0  0
 11 10  2  0  0  0  0
 12 13  1  0  0  0  0
 12  6  1  0  0  0  0
 14 22  1  0  0  0  0
 15 14  1  0  0  0  0
 16 15  1  0  0  0  0
 16 17  1  0  0  0  0
 17 18  2  0  0  0  0
 19 17  1  0  0  0  0
 19 10  1  1  0  0  0
 20 19  1  0  0  0  0
 20 21  1  1  0  0  0
 20 16  1  0  0  0  0
 21 14  1  0  0  0  0
 22 23  1  0  0  0  0
 24 14  1  0  0  0  0
 25 24  1  0  0  0  0
 26 30  1  0  0  0  0
 27 26  1  0  0  0  0
 28 32  1  0  0  0  0
 28 42  1  0  0  0  0
 29 28  1  0  0  0  0
 30 29  1  0  0  0  0
 30 35  1  1  0  0  0
 30 31  1  0  0  0  0
 31 36  1  0  0  0  0
 31 32  1  0  0  0  0
 32 39  1  0  0  0  0
 32 38  1  0  0  0  0
 33 29  1  0  0  0  0
 34 29  1  0  0  0  0
 37 31  1  0  0  0  0
 40 45  1  0  0  0  0
 41 42  1  0  0  0  0
 41 40  2  0  0  0  0
 42 43  2  0  0  0  0
 43 44  1  0  0  0  0
 44 48  1  0  0  0  0
 45 44  2  0  0  0  0
 46 40  1  0  0  0  0
 47 41  1  0  0  0  0
 50 49  3  0  0  0  0
M  END
>  <minimizedAffinity>
-5.58019829

>  <minimizedRMSD>
1.81943882

$$$$
