
 OpenBabel03242512353D

 23 26  0  0  1  0  0  0  0  0999 V2000
   37.6730   27.6430   42.6820 C   0  0  0  0  0  0  0  0  0  0  0  0
   37.3620   26.9500   41.4330 C   0  0  0  0  0  2  0  0  0  0  0  0
   36.8990   27.8090   40.4350 N   0  0  1  0  0  0  0  0  0  0  0  0
   36.6050   28.2600   39.1540 C   0  0  2  0  0  0  0  0  0  0  0  0
   36.3290   27.8490   37.9960 O   0  0  0  0  0  1  0  0  0  0  0  0
   36.7310   29.6660   39.6040 C   0  0  1  0  0  3  0  0  0  0  0  0
   36.3560   29.0500   40.9170 C   0  0  1  0  0  0  0  0  0  0  0  0
   37.5580   29.4040   42.2610 S   0  0  0  0  0  0  0  0  0  0  0  0
   38.1550   30.1090   39.5110 C   0  0  0  0  0  0  0  0  0  0  0  0
   39.0960   29.3010   39.2330 O   0  0  0  0  0  0  0  0  0  0  0  0
   38.3090   31.5090   39.7680 C   0  0  0  0  0  0  0  0  0  0  0  0
   37.2210   32.2960   39.3510 C   0  0  0  0  0  0  0  0  0  0  0  0
   37.3070   33.6800   39.5740 C   0  0  0  0  0  0  0  0  0  0  0  0
   38.4290   34.1610   40.1740 N   0  0  0  0  0  0  0  0  0  0  0  0
   39.4460   33.3690   40.5560 C   0  0  0  0  0  0  0  0  0  0  0  0
   39.3800   32.0440   40.3500 N   0  0  0  0  0  0  0  0  0  0  0  0
   36.3270   31.9600   38.8800 H   0  0  0  0  0  0  0  0  0  0  0  0
   36.5400   34.3670   39.2970 H   0  0  0  0  0  0  0  0  0  0  0  0
   40.2970   33.8490   41.0270 H   0  0  0  0  0  0  0  0  0  0  0  0
   36.5320   27.4000   43.6800 C   0  0  0  0  0  2  0  0  0  0  0  0
   35.5670   27.4120   43.1400 H   0  0  0  0  0  0  0  0  0  0  0  0
   38.9990   27.2790   43.3020 C   0  0  0  0  0  2  0  0  0  0  0  0
   38.8260   27.0780   44.3770 H   0  0  0  0  0  0  0  0  0  0  0  0
  1 22  1  0  0  0  0
  1 20  1  0  0  0  0
  2  1  1  0  0  0  0
  3  7  1  0  0  0  0
  3  2  1  1  0  0  0
  4  5  1  6  0  0  0
  4  6  1  0  0  0  0
  4  3  1  0  0  0  0
  4  7  1  0  0  0  0
  6  9  1  1  0  0  0
  6  7  1  0  0  0  0
  7  8  1  6  0  0  0
  8  1  1  0  0  0  0
  9 11  1  0  0  0  0
 10  9  2  0  0  0  0
 11 16  1  0  0  0  0
 12 13  1  0  0  0  0
 12 11  2  0  0  0  0
 13 14  2  0  0  0  0
 14 15  1  0  0  0  0
 15 19  1  0  0  0  0
 16 15  2  0  0  0  0
 17 12  1  0  0  0  0
 18 13  1  0  0  0  0
 21 20  1  0  0  0  0
 22 23  1  0  0  0  0
M  END
>  <minimizedAffinity>
-4.83478928

$$$$

 OpenBabel03242512353D

 23 26  0  0  1  0  0  0  0  0999 V2000
   37.7970   27.8590   42.9180 C   0  0  0  0  0  0  0  0  0  0  0  0
   38.2750   29.2040   43.2330 C   0  0  0  0  0  2  0  0  0  0  0  0
   38.5570   29.9620   42.0960 N   0  0  1  0  0  0  0  0  0  0  0  0
   38.7680   31.0960   41.3190 C   0  0  2  0  0  0  0  0  0  0  0  0
   39.1480   32.2930   41.3950 O   0  0  0  0  0  1  0  0  0  0  0  0
   38.3290   30.3640   40.1080 C   0  0  1  0  0  3  0  0  0  0  0  0
   38.8060   29.1910   40.9080 C   0  0  1  0  0  0  0  0  0  0  0  0
   37.5320   27.8850   41.1230 S   0  0  0  0  0  0  0  0  0  0  0  0
   36.8440   30.4540   39.9630 C   0  0  0  0  0  0  0  0  0  0  0  0
   36.0990   30.8720   40.9040 O   0  0  0  0  0  0  0  0  0  0  0  0
   36.3940   30.0230   38.6750 C   0  0  0  0  0  0  0  0  0  0  0  0
   37.2250   30.4170   37.6100 C   0  0  0  0  0  0  0  0  0  0  0  0
   36.8400   30.0260   36.3180 C   0  0  0  0  0  0  0  0  0  0  0  0
   35.7000   29.2980   36.1840 N   0  0  0  0  0  0  0  0  0  0  0  0
   34.9360   28.9430   37.2320 C   0  0  0  0  0  0  0  0  0  0  0  0
   35.2890   29.3090   38.4740 N   0  0  0  0  0  0  0  0  0  0  0  0
   38.1230   30.9860   37.6720 H   0  0  0  0  0  0  0  0  0  0  0  0
   37.3980   30.2720   35.4420 H   0  0  0  0  0  0  0  0  0  0  0  0
   34.0450   28.3610   37.0210 H   0  0  0  0  0  0  0  0  0  0  0  0
   38.9450   26.8630   43.1320 C   0  0  0  0  0  2  0  0  0  0  0  0
   39.8940   27.3230   42.7990 H   0  0  0  0  0  0  0  0  0  0  0  0
   36.5720   27.4200   43.6790 C   0  0  0  0  0  2  0  0  0  0  0  0
   36.7650   26.4040   44.0740 H   0  0  0  0  0  0  0  0  0  0  0  0
  1 20  1  0  0  0  0
  1  2  1  0  0  0  0
  1 22  1  0  0  0  0
  3  2  1  1  0  0  0
  4  5  1  1  0  0  0
  4  3  1  0  0  0  0
  6  9  1  1  0  0  0
  6  7  1  0  0  0  0
  6  4  1  0  0  0  0
  7  8  1  1  0  0  0
  7  4  1  0  0  0  0
  7  3  1  0  0  0  0
  8  1  1  0  0  0  0
  9 10  2  0  0  0  0
 11  9  1  0  0  0  0
 12 17  1  0  0  0  0
 12 11  2  0  0  0  0
 13 12  1  0  0  0  0
 14 13  2  0  0  0  0
 14 15  1  0  0  0  0
 15 16  2  0  0  0  0
 16 11  1  0  0  0  0
 18 13  1  0  0  0  0
 19 15  1  0  0  0  0
 21 20  1  0  0  0  0
 22 23  1  0  0  0  0
M  END
>  <minimizedAffinity>
-4.7768383

$$$$

 OpenBabel03242512353D

 23 26  0  0  1  0  0  0  0  0999 V2000
   38.7550   27.3310   42.1610 C   0  0  0  0  0  0  0  0  0  0  0  0
   37.4080   27.1100   41.6380 C   0  0  0  0  0  2  0  0  0  0  0  0
   36.7260   28.2980   41.3700 N   0  0  1  0  0  0  0  0  0  0  0  0
   35.7850   29.1460   40.7990 C   0  0  2  0  0  0  0  0  0  0  0  0
   34.6280   29.1530   40.3020 O   0  0  0  0  0  1  0  0  0  0  0  0
   36.7030   30.2980   40.9620 C   0  0  1  0  0  3  0  0  0  0  0  0
   37.2220   29.4470   42.0790 C   0  0  1  0  0  0  0  0  0  0  0  0
   39.0260   29.1150   41.9680 S   0  0  0  0  0  0  0  0  0  0  0  0
   37.6150   30.3990   39.7830 C   0  0  0  0  0  0  0  0  0  0  0  0
   37.7100   29.4690   38.9220 O   0  0  0  0  0  0  0  0  0  0  0  0
   38.3370   31.6350   39.7550 C   0  0  0  0  0  0  0  0  0  0  0  0
   37.5700   32.7610   40.1080 C   0  0  0  0  0  0  0  0  0  0  0  0
   38.2190   34.0060   40.1010 C   0  0  0  0  0  0  0  0  0  0  0  0
   39.5340   34.0390   39.7580 N   0  0  0  0  0  0  0  0  0  0  0  0
   40.2280   32.9350   39.4290 C   0  0  0  0  0  0  0  0  0  0  0  0
   39.6230   31.7370   39.4290 N   0  0  0  0  0  0  0  0  0  0  0  0
   36.5410   32.7780   40.3810 H   0  0  0  0  0  0  0  0  0  0  0  0
   37.7310   34.9210   40.3520 H   0  0  0  0  0  0  0  0  0  0  0  0
   41.2730   33.0670   39.1700 H   0  0  0  0  0  0  0  0  0  0  0  0
   38.7410   27.0960   43.6780 C   0  0  0  0  0  2  0  0  0  0  0  0
   37.7960   27.4870   44.0990 H   0  0  0  0  0  0  0  0  0  0  0  0
   39.8370   26.5050   41.5110 C   0  0  0  0  0  2  0  0  0  0  0  0
   40.4510   26.0590   42.3170 H   0  0  0  0  0  0  0  0  0  0  0  0
  1 20  1  0  0  0  0
  2  1  1  0  0  0  0
  3  2  1  1  0  0  0
  3  7  1  0  0  0  0
  4  5  1  1  0  0  0
  4  6  1  0  0  0  0
  4  3  1  0  0  0  0
  4  7  1  0  0  0  0
  6  9  1  6  0  0  0
  6  7  1  0  0  0  0
  7  8  1  6  0  0  0
  8  1  1  0  0  0  0
 10  9  2  0  0  0  0
 11  9  1  0  0  0  0
 11 12  1  0  0  0  0
 12 17  1  0  0  0  0
 13 12  2  0  0  0  0
 13 18  1  0  0  0  0
 14 13  1  0  0  0  0
 15 14  2  0  0  0  0
 16 15  1  0  0  0  0
 16 11  2  0  0  0  0
 19 15  1  0  0  0  0
 20 21  1  0  0  0  0
 22  1  1  0  0  0  0
 22 23  1  0  0  0  0
M  END
>  <minimizedAffinity>
-4.74226618

$$$$

 OpenBabel03242512353D

 23 26  0  0  1  0  0  0  0  0999 V2000
   37.5800   27.0380   42.7980 C   0  0  0  0  0  0  0  0  0  0  0  0
   38.8920   27.2060   43.4220 C   0  0  0  0  0  2  0  0  0  0  0  0
   39.7990   27.8850   42.6090 N   0  0  1  0  0  0  0  0  0  0  0  0
   40.9160   28.6400   42.2700 C   0  0  2  0  0  0  0  0  0  0  0  0
   42.0820   28.9160   42.6580 O   0  0  0  0  0  1  0  0  0  0  0  0
   40.2220   29.1520   41.0650 C   0  0  1  0  0  3  0  0  0  0  0  0
   39.4850   27.8560   41.2050 C   0  0  1  0  0  0  0  0  0  0  0  0
   37.6610   28.0600   41.3000 S   0  0  0  0  0  0  0  0  0  0  0  0
   39.4200   30.3640   41.4110 C   0  0  0  0  0  0  0  0  0  0  0  0
   39.3190   30.7880   42.6050 O   0  0  0  0  0  0  0  0  0  0  0  0
   38.8040   30.9580   40.2620 C   0  0  0  0  0  0  0  0  0  0  0  0
   37.7600   31.8500   40.5620 C   0  0  0  0  0  0  0  0  0  0  0  0
   37.1130   32.4670   39.4790 C   0  0  0  0  0  0  0  0  0  0  0  0
   37.5380   32.1630   38.2240 N   0  0  0  0  0  0  0  0  0  0  0  0
   38.5440   31.3030   37.9850 C   0  0  0  0  0  0  0  0  0  0  0  0
   39.1720   30.7040   39.0080 N   0  0  0  0  0  0  0  0  0  0  0  0
   37.3970   32.1140   41.5270 H   0  0  0  0  0  0  0  0  0  0  0  0
   36.3090   33.1590   39.5940 H   0  0  0  0  0  0  0  0  0  0  0  0
   38.8090   31.1270   36.9480 H   0  0  0  0  0  0  0  0  0  0  0  0
   37.4570   25.5960   42.2860 C   0  0  0  0  0  2  0  0  0  0  0  0
   38.4310   25.2700   41.8760 H   0  0  0  0  0  0  0  0  0  0  0  0
   36.4050   27.3870   43.6760 C   0  0  0  0  0  2  0  0  0  0  0  0
   35.6690   26.5620   43.5990 H   0  0  0  0  0  0  0  0  0  0  0  0
  1  2  1  0  0  0  0
  1 22  1  0  0  0  0
  3  2  1  6  0  0  0
  4  3  1  0  0  0  0
  4  5  1  1  0  0  0
  6  7  1  0  0  0  0
  6  9  1  1  0  0  0
  6  4  1  0  0  0  0
  7  8  1  1  0  0  0
  7  4  1  0  0  0  0
  7  3  1  0  0  0  0
  8  1  1  0  0  0  0
  9 10  2  0  0  0  0
 11 12  1  0  0  0  0
 11  9  1  0  0  0  0
 12 17  1  0  0  0  0
 13 18  1  0  0  0  0
 13 12  2  0  0  0  0
 14 13  1  0  0  0  0
 15 14  2  0  0  0  0
 15 16  1  0  0  0  0
 16 11  2  0  0  0  0
 19 15  1  0  0  0  0
 20  1  1  0  0  0  0
 21 20  1  0  0  0  0
 23 22  1  0  0  0  0
M  END
>  <minimizedAffinity>
-4.46768045

$$$$

 OpenBabel03242512353D

 23 26  0  0  1  0  0  0  0  0999 V2000
   38.5170   31.6960   40.0350 C   0  0  0  0  0  0  0  0  0  0  0  0
   37.0560   31.6430   40.0540 C   0  0  0  0  0  2  0  0  0  0  0  0
   36.5580   30.3400   40.0510 N   0  0  1  0  0  0  0  0  0  0  0  0
   35.6540   29.3020   40.2450 C   0  0  2  0  0  0  0  0  0  0  0  0
   34.4200   29.0600   40.3040 O   0  0  0  0  0  1  0  0  0  0  0  0
   36.7690   28.3390   40.4000 C   0  0  1  0  0  3  0  0  0  0  0  0
   37.4720   29.3500   39.5470 C   0  0  1  0  0  0  0  0  0  0  0  0
   39.0330   29.9740   40.2890 S   0  0  0  0  0  0  0  0  0  0  0  0
   37.2230   28.3040   41.8230 C   0  0  0  0  0  0  0  0  0  0  0  0
   37.0330   29.2800   42.6160 O   0  0  0  0  0  0  0  0  0  0  0  0
   37.8760   27.0750   42.1580 C   0  0  0  0  0  0  0  0  0  0  0  0
   37.1880   25.9220   41.7370 C   0  0  0  0  0  0  0  0  0  0  0  0
   37.7740   24.6820   42.0350 C   0  0  0  0  0  0  0  0  0  0  0  0
   38.9590   24.6790   42.7030 N   0  0  0  0  0  0  0  0  0  0  0  0
   39.5810   25.8080   43.0850 C   0  0  0  0  0  0  0  0  0  0  0  0
   39.0340   27.0020   42.8100 N   0  0  0  0  0  0  0  0  0  0  0  0
   36.2620   25.8810   41.2140 H   0  0  0  0  0  0  0  0  0  0  0  0
   37.3370   23.7470   41.7620 H   0  0  0  0  0  0  0  0  0  0  0  0
   40.5220   25.7000   43.6130 H   0  0  0  0  0  0  0  0  0  0  0  0
   38.9810   32.0400   38.6130 C   0  0  0  0  0  2  0  0  0  0  0  0
   38.3280   31.5280   37.8820 H   0  0  0  0  0  0  0  0  0  0  0  0
   39.1370   32.6410   41.0330 C   0  0  0  0  0  2  0  0  0  0  0  0
   39.8950   33.2460   40.5000 H   0  0  0  0  0  0  0  0  0  0  0  0
  1  2  1  0  0  0  0
  1  8  1  0  0  0  0
  1 22  1  0  0  0  0
  3  2  1  6  0  0  0
  3  4  1  0  0  0  0
  4  5  1  6  0  0  0
  4  6  1  0  0  0  0
  6  9  1  1  0  0  0
  7  3  1  0  0  0  0
  7  4  1  0  0  0  0
  7  8  1  1  0  0  0
  7  6  1  0  0  0  0
  9 11  1  0  0  0  0
  9 10  2  0  0  0  0
 11 16  1  0  0  0  0
 12 13  1  0  0  0  0
 12 11  2  0  0  0  0
 13 14  2  0  0  0  0
 14 15  1  0  0  0  0
 15 19  1  0  0  0  0
 16 15  2  0  0  0  0
 17 12  1  0  0  0  0
 18 13  1  0  0  0  0
 20  1  1  0  0  0  0
 21 20  1  0  0  0  0
 23 22  1  0  0  0  0
M  END
>  <minimizedAffinity>
-4.44540167

$$$$

 OpenBabel03242512353D

 23 26  0  0  1  0  0  0  0  0999 V2000
   37.3670   26.4860   38.8000 C   0  0  0  0  0  0  0  0  0  0  0  0
   36.6650   26.0980   40.0230 C   0  0  0  0  0  2  0  0  0  0  0  0
   36.9810   26.9100   41.1130 N   0  0  1  0  0  0  0  0  0  0  0  0
   36.8360   27.5220   42.3520 C   0  0  2  0  0  0  0  0  0  0  0  0
   36.2940   27.3660   43.4780 O   0  0  0  0  0  1  0  0  0  0  0  0
   37.6700   28.6620   41.9030 C   0  0  1  0  0  3  0  0  0  0  0  0
   38.2320   27.6110   40.9960 C   0  0  1  0  0  0  0  0  0  0  0  0
   38.1580   28.0650   39.2170 S   0  0  0  0  0  0  0  0  0  0  0  0
   36.8190   29.6820   41.2190 C   0  0  0  0  0  0  0  0  0  0  0  0
   35.6040   29.4570   40.9210 O   0  0  0  0  0  0  0  0  0  0  0  0
   37.5290   30.8970   40.9570 C   0  0  0  0  0  0  0  0  0  0  0  0
   36.8440   31.7990   40.1230 C   0  0  0  0  0  0  0  0  0  0  0  0
   37.4860   33.0120   39.8250 C   0  0  0  0  0  0  0  0  0  0  0  0
   38.7160   33.2310   40.3610 N   0  0  0  0  0  0  0  0  0  0  0  0
   39.3340   32.3390   41.1550 C   0  0  0  0  0  0  0  0  0  0  0  0
   38.7350   31.1740   41.4490 N   0  0  0  0  0  0  0  0  0  0  0  0
   35.8840   31.6660   39.6840 H   0  0  0  0  0  0  0  0  0  0  0  0
   37.0560   33.7640   39.2030 H   0  0  0  0  0  0  0  0  0  0  0  0
   40.3140   32.6080   41.5330 H   0  0  0  0  0  0  0  0  0  0  0  0
   38.5310   25.5120   38.5690 C   0  0  0  0  0  2  0  0  0  0  0  0
   38.9890   25.2530   39.5420 H   0  0  0  0  0  0  0  0  0  0  0  0
   36.5030   26.5760   37.5670 C   0  0  0  0  0  2  0  0  0  0  0  0
   37.0210   26.0340   36.7520 H   0  0  0  0  0  0  0  0  0  0  0  0
  1  8  1  0  0  0  0
  1  2  1  0  0  0  0
  3  2  1  1  0  0  0
  3  4  1  0  0  0  0
  4  5  1  1  0  0  0
  6  9  1  6  0  0  0
  6  4  1  0  0  0  0
  7  8  1  6  0  0  0
  7  3  1  0  0  0  0
  7  6  1  0  0  0  0
  7  4  1  0  0  0  0
 10  9  2  0  0  0  0
 11  9  1  0  0  0  0
 11 16  1  0  0  0  0
 12 11  2  0  0  0  0
 13 12  1  0  0  0  0
 13 14  2  0  0  0  0
 14 15  1  0  0  0  0
 15 16  2  0  0  0  0
 15 19  1  0  0  0  0
 17 12  1  0  0  0  0
 18 13  1  0  0  0  0
 20  1  1  0  0  0  0
 20 21  1  0  0  0  0
 22  1  1  0  0  0  0
 23 22  1  0  0  0  0
M  END
>  <minimizedAffinity>
-4.42440987

$$$$

 OpenBabel03242512353D

 23 26  0  0  1  0  0  0  0  0999 V2000
   38.0750   31.2450   39.4610 C   0  0  0  0  0  0  0  0  0  0  0  0
   38.3700   31.1310   40.8880 C   0  0  0  0  0  2  0  0  0  0  0  0
   37.6700   30.0950   41.5070 N   0  0  1  0  0  0  0  0  0  0  0  0
   37.3700   29.1260   42.4580 C   0  0  2  0  0  0  0  0  0  0  0  0
   37.5290   28.8490   43.6760 O   0  0  0  0  0  1  0  0  0  0  0  0
   36.6550   28.3250   41.4370 C   0  0  1  0  0  3  0  0  0  0  0  0
   36.4820   29.6750   40.8130 C   0  0  1  0  0  0  0  0  0  0  0  0
   37.0950   29.7650   39.0830 S   0  0  0  0  0  0  0  0  0  0  0  0
   37.6150   27.4290   40.7230 C   0  0  0  0  0  0  0  0  0  0  0  0
   38.8450   27.7230   40.5960 O   0  0  0  0  0  0  0  0  0  0  0  0
   36.9860   26.2440   40.2230 C   0  0  0  0  0  0  0  0  0  0  0  0
   37.0120   25.1560   41.1130 C   0  0  0  0  0  0  0  0  0  0  0  0
   36.4120   23.9610   40.6830 C   0  0  0  0  0  0  0  0  0  0  0  0
   35.8490   23.9390   39.4450 N   0  0  0  0  0  0  0  0  0  0  0  0
   35.8480   25.0060   38.6270 C   0  0  0  0  0  0  0  0  0  0  0  0
   36.4180   26.1550   39.0220 N   0  0  0  0  0  0  0  0  0  0  0  0
   37.4400   25.1320   42.0870 H   0  0  0  0  0  0  0  0  0  0  0  0
   36.3760   23.0770   41.2780 H   0  0  0  0  0  0  0  0  0  0  0  0
   35.3740   24.8870   37.6590 H   0  0  0  0  0  0  0  0  0  0  0  0
   37.1110   32.4210   39.2470 C   0  0  0  0  0  2  0  0  0  0  0  0
   36.3810   32.4490   40.0780 H   0  0  0  0  0  0  0  0  0  0  0  0
   39.2820   31.3860   38.5680 C   0  0  0  0  0  2  0  0  0  0  0  0
   39.0890   32.2230   37.8690 H   0  0  0  0  0  0  0  0  0  0  0  0
  1  2  1  0  0  0  0
  3  2  1  1  0  0  0
  3  4  1  0  0  0  0
  4  5  1  1  0  0  0
  6  9  1  6  0  0  0
  6  4  1  0  0  0  0
  7  8  1  1  0  0  0
  7  6  1  0  0  0  0
  7  3  1  0  0  0  0
  7  4  1  0  0  0  0
  8  1  1  0  0  0  0
 10  9  2  0  0  0  0
 11  9  1  0  0  0  0
 11 12  1  0  0  0  0
 12 17  1  0  0  0  0
 13 12  2  0  0  0  0
 13 18  1  0  0  0  0
 14 13  1  0  0  0  0
 15 16  1  0  0  0  0
 15 14  2  0  0  0  0
 16 11  2  0  0  0  0
 19 15  1  0  0  0  0
 20  1  1  0  0  0  0
 20 21  1  0  0  0  0
 22  1  1  0  0  0  0
 23 22  1  0  0  0  0
M  END
>  <minimizedAffinity>
-4.42425871

$$$$

 OpenBabel03242512353D

 23 26  0  0  1  0  0  0  0  0999 V2000
   41.6240   31.5420   38.5780 C   0  0  0  0  0  0  0  0  0  0  0  0
   40.9390   32.8230   38.7490 C   0  0  0  0  0  2  0  0  0  0  0  0
   39.5920   32.6800   39.0830 N   0  0  1  0  0  0  0  0  0  0  0  0
   38.3430   33.0230   39.5880 C   0  0  2  0  0  0  0  0  0  0  0  0
   37.6050   34.0170   39.8170 O   0  0  0  0  0  1  0  0  0  0  0  0
   38.0400   31.5960   39.8460 C   0  0  1  0  0  3  0  0  0  0  0  0
   39.0170   31.4110   38.7260 C   0  0  1  0  0  0  0  0  0  0  0  0
   40.4240   30.3100   39.1580 S   0  0  0  0  0  0  0  0  0  0  0  0
   38.5530   31.1970   41.1910 C   0  0  0  0  0  0  0  0  0  0  0  0
   39.4560   31.8600   41.7920 O   0  0  0  0  0  0  0  0  0  0  0  0
   37.9180   30.0150   41.6890 C   0  0  0  0  0  0  0  0  0  0  0  0
   38.4330   29.5530   42.9140 C   0  0  0  0  0  0  0  0  0  0  0  0
   37.8540   28.3960   43.4580 C   0  0  0  0  0  0  0  0  0  0  0  0
   36.8400   27.8060   42.7710 N   0  0  0  0  0  0  0  0  0  0  0  0
   36.3790   28.2840   41.6020 C   0  0  0  0  0  0  0  0  0  0  0  0
   36.9220   29.3880   41.0670 N   0  0  0  0  0  0  0  0  0  0  0  0
   39.2230   29.9850   43.4820 H   0  0  0  0  0  0  0  0  0  0  0  0
   38.1680   27.9620   44.3800 H   0  0  0  0  0  0  0  0  0  0  0  0
   35.5660   27.7400   41.1310 H   0  0  0  0  0  0  0  0  0  0  0  0
   41.7820   31.2620   37.0780 C   0  0  0  0  0  2  0  0  0  0  0  0
   40.8750   31.6030   36.5450 H   0  0  0  0  0  0  0  0  0  0  0  0
   42.9550   31.4300   39.2780 C   0  0  0  0  0  2  0  0  0  0  0  0
   43.6840   31.0180   38.5530 H   0  0  0  0  0  0  0  0  0  0  0  0
  1  2  1  0  0  0  0
  1  8  1  0  0  0  0
  1 22  1  0  0  0  0
  3  2  1  6  0  0  0
  3  4  1  0  0  0  0
  4  5  1  6  0  0  0
  4  6  1  0  0  0  0
  6  9  1  1  0  0  0
  7  3  1  0  0  0  0
  7  8  1  1  0  0  0
  7  4  1  0  0  0  0
  7  6  1  0  0  0  0
  9 11  1  0  0  0  0
  9 10  2  0  0  0  0
 11 12  1  0  0  0  0
 12 13  2  0  0  0  0
 12 17  1  0  0  0  0
 13 18  1  0  0  0  0
 14 13  1  0  0  0  0
 15 14  2  0  0  0  0
 16 15  1  0  0  0  0
 16 11  2  0  0  0  0
 19 15  1  0  0  0  0
 20  1  1  0  0  0  0
 21 20  1  0  0  0  0
 23 22  1  0  0  0  0
M  END
>  <minimizedAffinity>
-4.41340637

$$$$

 OpenBabel03242512353D

 23 26  0  0  1  0  0  0  0  0999 V2000
   36.9710   29.0950   37.0530 C   0  0  0  0  0  0  0  0  0  0  0  0
   37.1410   30.5470   37.0760 C   0  0  0  0  0  2  0  0  0  0  0  0
   37.0000   31.0900   38.3540 N   0  0  1  0  0  0  0  0  0  0  0  0
   37.1360   32.0080   39.3890 C   0  0  2  0  0  0  0  0  0  0  0  0
   37.2930   33.2370   39.6110 O   0  0  0  0  0  1  0  0  0  0  0  0
   37.0250   30.9190   40.3880 C   0  0  1  0  0  3  0  0  0  0  0  0
   36.2590   30.2720   39.2750 C   0  0  1  0  0  0  0  0  0  0  0  0
   36.9100   28.6200   38.8030 S   0  0  0  0  0  0  0  0  0  0  0  0
   38.3690   30.3200   40.6460 C   0  0  0  0  0  0  0  0  0  0  0  0
   39.3920   30.6400   39.9630 O   0  0  0  0  0  0  0  0  0  0  0  0
   38.3490   29.3770   41.7220 C   0  0  0  0  0  0  0  0  0  0  0  0
   39.4530   28.5050   41.7490 C   0  0  0  0  0  0  0  0  0  0  0  0
   39.4940   27.5540   42.7800 C   0  0  0  0  0  0  0  0  0  0  0  0
   38.4730   27.5410   43.6780 N   0  0  0  0  0  0  0  0  0  0  0  0
   37.4370   28.3950   43.6140 C   0  0  0  0  0  0  0  0  0  0  0  0
   37.3810   29.3100   42.6340 N   0  0  0  0  0  0  0  0  0  0  0  0
   40.2700   28.4830   41.0670 H   0  0  0  0  0  0  0  0  0  0  0  0
   40.2850   26.8460   42.8930 H   0  0  0  0  0  0  0  0  0  0  0  0
   36.6720   28.3030   44.3780 H   0  0  0  0  0  0  0  0  0  0  0  0
   35.5730   28.7700   36.5080 C   0  0  0  0  0  2  0  0  0  0  0  0
   34.8500   29.5140   36.8900 H   0  0  0  0  0  0  0  0  0  0  0  0
   38.0240   28.3400   36.2820 C   0  0  0  0  0  2  0  0  0  0  0  0
   37.5070   27.6190   35.6190 H   0  0  0  0  0  0  0  0  0  0  0  0
  1  2  1  0  0  0  0
  1  8  1  0  0  0  0
  3  2  1  6  0  0  0
  3  7  1  0  0  0  0
  3  4  1  0  0  0  0
  4  5  1  1  0  0  0
  4  6  1  0  0  0  0
  6  9  1  6  0  0  0
  7  8  1  1  0  0  0
  7  4  1  0  0  0  0
  7  6  1  0  0  0  0
  9 11  1  0  0  0  0
 10  9  2  0  0  0  0
 11 12  2  0  0  0  0
 11 16  1  0  0  0  0
 12 13  1  0  0  0  0
 13 18  1  0  0  0  0
 13 14  2  0  0  0  0
 15 14  1  0  0  0  0
 15 19  1  0  0  0  0
 16 15  2  0  0  0  0
 17 12  1  0  0  0  0
 20 21  1  0  0  0  0
 20  1  1  0  0  0  0
 22  1  1  0  0  0  0
 23 22  1  0  0  0  0
M  END
>  <minimizedAffinity>
-4.40587568

$$$$
