
 OpenBabel03242518553D

 45 48  0  0  1  0  0  0  0  0999 V2000
   45.6900   30.9340   46.5150 C   0  0  2  0  0  0  0  0  0  0  0  0
   46.1170   29.9670   47.5730 C   0  0  0  0  0  0  0  0  0  0  0  0
   45.2010   28.7950   47.4850 C   0  0  0  0  0  0  0  0  0  0  0  0
   44.0990   28.9060   46.4930 C   0  0  0  0  0  0  0  0  0  0  0  0
   44.6490   29.2130   45.1270 C   0  0  0  0  0  0  0  0  0  0  0  0
   45.6940   30.2250   45.1750 C   0  0  2  0  0  0  0  0  0  0  0  0
   44.6250   31.2000   46.6760 H   0  0  0  0  0  0  0  0  0  0  0  0
   47.1750   29.6840   47.5440 H   0  0  0  0  0  0  0  0  0  0  0  0
   46.0080   30.5140   48.5630 H   0  0  0  0  0  0  0  0  0  0  0  0
   45.7160   27.8070   47.3640 H   0  0  0  0  0  0  0  0  0  0  0  0
   44.6980   28.6910   48.4900 H   0  0  0  0  0  0  0  0  0  0  0  0
   43.5930   27.9100   46.4690 H   0  0  0  0  0  0  0  0  0  0  0  0
   43.2980   29.6260   46.8110 H   0  0  0  0  0  0  0  0  0  0  0  0
   44.8670   28.2470   44.6370 H   0  0  0  0  0  0  0  0  0  0  0  0
   43.7770   29.6260   44.5400 H   0  0  0  0  0  0  0  0  0  0  0  0
   45.5900   30.9770   44.3910 H   0  0  0  0  0  0  0  0  0  0  0  0
   46.9790   29.4970   44.9790 C   0  0  0  0  0  0  0  0  0  0  0  0
   46.9370   28.4070   45.1650 H   0  0  0  0  0  0  0  0  0  0  0  0
   47.7150   29.9290   45.6940 H   0  0  0  0  0  0  0  0  0  0  0  0
   49.9320   32.2180   41.7540 C   0  0  0  0  0  0  0  0  0  0  0  0
   48.6600   32.7470   42.3720 C   0  0  0  0  0  2  0  0  0  0  0  0
   47.7980   31.6220   42.6610 N   0  0  0  0  0  0  0  0  0  0  0  0
   46.7670   30.6450   42.7550 C   0  0  0  0  0  0  0  0  0  0  0  0
   45.5860   30.6550   42.2710 O   0  0  0  0  0  0  0  0  0  0  0  0
   47.5550   29.6930   43.5740 C   0  0  1  0  0  3  0  0  0  0  0  0
   48.5560   30.8220   43.6280 C   0  0  1  0  0  3  0  0  0  0  0  0
   50.0350   30.5710   42.5650 S   0  0  0  0  0  0  0  0  0  0  0  0
   51.1470   32.9890   42.2250 C   0  0  0  0  0  2  0  0  0  0  0  0
   50.9930   34.0880   42.2340 H   0  0  0  0  0  0  0  0  0  0  0  0
   49.8640   32.1120   40.2620 C   0  0  0  0  0  2  0  0  0  0  0  0
   49.1260   32.8910   39.9090 H   0  0  0  0  0  0  0  0  0  0  0  0
   46.4640   32.2000   46.4970 C   0  0  0  0  0  0  0  0  0  0  0  0
   47.6160   32.3000   46.9900 O   0  0  0  0  0  0  0  0  0  0  0  0
   44.4300   35.1950   46.0130 C   0  0  0  0  0  0  0  0  0  0  0  0
   44.6180   35.5280   44.6480 C   0  0  0  0  0  0  0  0  0  0  0  0
   45.4580   34.7000   43.9250 C   0  0  0  0  0  0  0  0  0  0  0  0
   45.9910   33.6830   44.6050 N   0  0  0  0  0  0  0  0  0  0  0  0
   45.8220   33.3640   45.8710 C   0  0  0  0  0  0  0  0  0  0  0  0
   45.0130   34.1510   46.5970 N   0  0  0  0  0  0  0  0  0  0  0  0
   43.7710   35.8250   46.6230 H   0  0  0  0  0  0  0  0  0  0  0  0
   44.1130   36.3910   44.2410 H   0  0  0  0  0  0  0  0  0  0  0  0
   45.6520   35.0320   42.5220 C   0  0  0  0  0  0  0  0  0  0  0  0
   45.6140   33.8710   41.7580 F   0  0  0  0  0  0  0  0  0  0  0  0
   46.8830   35.5910   42.4150 F   0  0  0  0  0  0  0  0  0  0  0  0
   44.6350   35.8380   42.0250 F   0  0  0  0  0  0  0  0  0  0  0  0
  1  7  1  1  0  0  0
  1  2  1  0  0  0  0
  2  9  1  0  0  0  0
  3  2  1  0  0  0  0
  3 11  1  0  0  0  0
  4 13  1  0  0  0  0
  4  3  1  0  0  0  0
  5  6  1  0  0  0  0
  5  4  1  0  0  0  0
  6 16  1  6  0  0  0
  6  1  1  0  0  0  0
  8  2  1  0  0  0  0
 10  3  1  0  0  0  0
 12  4  1  0  0  0  0
 14  5  1  0  0  0  0
 15  5  1  0  0  0  0
 17 18  1  0  0  0  0
 17  6  1  0  0  0  0
 17 19  1  0  0  0  0
 20 28  1  0  0  0  0
 20 21  1  0  0  0  0
 20 27  1  0  0  0  0
 21 22  1  0  0  0  0
 22 23  1  0  0  0  0
 22 26  1  0  0  0  0
 23 25  1  0  0  0  0
 24 23  2  0  0  0  0
 25 26  1  0  0  0  0
 25 17  1  1  0  0  0
 26 27  1  6  0  0  0
 28 29  1  0  0  0  0
 30 20  1  0  0  0  0
 31 30  1  0  0  0  0
 32  1  1  0  0  0  0
 32 33  2  0  0  0  0
 34 39  1  0  0  0  0
 34 40  1  0  0  0  0
 35 34  2  0  0  0  0
 36 37  2  0  0  0  0
 36 35  1  0  0  0  0
 37 38  1  0  0  0  0
 38 32  1  0  0  0  0
 38 39  2  0  0  0  0
 41 35  1  0  0  0  0
 42 36  1  0  0  0  0
 43 42  1  0  0  0  0
 44 42  1  0  0  0  0
 45 42  1  0  0  0  0
M  END
>  <minimizedAffinity>
-5.37096643

>  <minimizedRMSD>
2.05691075

$$$$
