
 OpenBabel03242512043D

 23 26  0  0  1  0  0  0  0  0999 V2000
   47.5540   31.8110   38.1680 C   0  0  0  0  0  0  0  0  0  0  0  0
   46.3300   32.6210   37.9770 C   0  0  0  0  0  2  0  0  0  0  0  0
   45.9730   33.2760   39.1850 N   0  0  2  0  0  0  0  0  0  0  0  0
   45.2610   33.8020   40.3000 C   0  0  1  0  0  0  0  0  0  0  0  0
   44.0750   34.2570   40.4160 O   0  0  0  0  0  1  0  0  0  0  0  0
   46.4730   33.5640   41.1130 C   0  0  1  0  0  3  0  0  0  0  0  0
   47.1290   33.8660   39.7690 C   0  0  1  0  0  0  0  0  0  0  0  0
   48.5200   32.8280   39.3540 S   0  0  0  0  0  0  0  0  0  0  0  0
   46.8360   34.6220   42.0860 C   0  0  0  0  0  0  0  0  0  0  0  0
   47.8160   35.4050   41.9020 O   0  0  0  0  0  0  0  0  0  0  0  0
   45.2410   35.9280   43.4380 C   0  0  0  0  0  0  0  0  0  0  0  0
   46.0820   34.8130   43.3010 C   0  0  0  0  0  0  0  0  0  0  0  0
   46.1700   33.8980   44.3550 C   0  0  0  0  0  0  0  0  0  0  0  0
   45.4310   34.1430   45.4640 N   0  0  0  0  0  0  0  0  0  0  0  0
   44.6300   35.2270   45.5700 C   0  0  0  0  0  0  0  0  0  0  0  0
   44.5380   36.1120   44.5610 N   0  0  0  0  0  0  0  0  0  0  0  0
   45.1480   36.6510   42.6510 H   0  0  0  0  0  0  0  0  0  0  0  0
   46.8170   33.0410   44.2440 H   0  0  0  0  0  0  0  0  0  0  0  0
   44.1430   35.2110   46.5390 H   0  0  0  0  0  0  0  0  0  0  0  0
   48.4400   31.7220   36.9290 C   0  0  0  0  0  2  0  0  0  0  0  0
   49.1750   30.8970   37.1360 H   0  0  0  0  0  0  0  0  0  0  0  0
   47.3660   30.4660   38.7930 C   0  0  0  0  0  2  0  0  0  0  0  0
   48.2580   29.8390   38.5020 H   0  0  0  0  0  0  0  0  0  0  0  0
  1 22  1  0  0  0  0
  1  8  1  0  0  0  0
  2  1  1  0  0  0  0
  3  2  1  6  0  0  0
  3  7  1  0  0  0  0
  3  4  1  0  0  0  0
  4  5  1  1  0  0  0
  4  6  1  0  0  0  0
  6  9  1  1  0  0  0
  7  8  1  6  0  0  0
  7  4  1  0  0  0  0
  7  6  1  0  0  0  0
  9 12  1  0  0  0  0
 10  9  2  0  0  0  0
 11 16  1  0  0  0  0
 12 11  2  0  0  0  0
 12 13  1  0  0  0  0
 13 14  2  0  0  0  0
 14 15  1  0  0  0  0
 15 19  1  0  0  0  0
 16 15  2  0  0  0  0
 17 11  1  0  0  0  0
 18 13  1  0  0  0  0
 20 21  1  0  0  0  0
 20  1  1  0  0  0  0
 23 22  1  0  0  0  0
M  END
>  <minimizedAffinity>
-4.50307226

>  <minimizedRMSD>
1.01693034

$$$$
