
 OpenBabel03242523543D

 48 52  0  0  1  0  0  0  0  0999 V2000
   42.7620   34.2150   39.0730 C   0  0  1  0  0  0  0  0  0  0  0  0
   43.0490   35.1660   40.2280 C   0  0  1  0  0  0  0  0  0  0  0  0
   41.8330   35.7530   40.6290 O   0  0  0  0  0  0  0  0  0  0  0  0
   40.9800   36.0030   39.5540 C   0  0  0  0  0  0  0  0  0  0  0  0
   40.4380   34.7200   38.9530 C   0  0  2  0  0  0  0  0  0  0  0  0
   41.4400   33.5830   39.3660 C   0  0  1  0  0  0  0  0  0  0  0  0
   43.5140   33.3970   39.0380 H   0  0  0  0  0  0  0  0  0  0  0  0
   43.8010   35.9220   39.9930 H   0  0  0  0  0  0  0  0  0  0  0  0
   41.4260   36.6680   38.7880 H   0  0  0  0  0  0  0  0  0  0  0  0
   40.1300   36.5540   39.9760 H   0  0  0  0  0  0  0  0  0  0  0  0
   39.4260   34.4630   39.3070 H   0  0  0  0  0  0  0  0  0  0  0  0
   41.1870   33.6070   40.4740 H   0  0  0  0  0  0  0  0  0  0  0  0
   42.7210   34.9090   37.8570 O   0  0  0  0  0  0  0  0  0  0  0  0
   43.3590   34.5780   37.1920 H   0  0  0  0  0  0  0  0  0  0  0  0
   40.5160   34.7900   37.5680 O   0  0  0  0  0  0  0  0  0  0  0  0
   40.5930   35.6960   37.2290 H   0  0  0  0  0  0  0  0  0  0  0  0
   43.3950   34.3340   41.3100 O   0  0  0  0  0  0  0  0  0  0  0  0
   44.5620   34.3810   41.9610 C   0  0  0  0  0  0  0  0  0  0  0  0
   45.7750   34.5160   41.2700 C   0  0  0  0  0  0  0  0  0  0  0  0
   46.9520   34.5600   41.9990 C   0  0  0  0  0  0  0  0  0  0  0  0
   46.8990   34.4700   43.3780 N   0  0  0  0  0  0  0  0  0  0  0  0
   45.7100   34.3400   44.0120 C   0  0  0  0  0  0  0  0  0  0  0  0
   44.5500   34.2960   43.3080 N   0  0  0  0  0  0  0  0  0  0  0  0
   45.8200   34.5860   40.2010 H   0  0  0  0  0  0  0  0  0  0  0  0
   45.6700   34.2700   45.0890 H   0  0  0  0  0  0  0  0  0  0  0  0
   48.2840   34.6830   41.3340 C   0  0  0  0  0  0  0  0  0  0  0  0
   49.0290   36.0040   41.5290 C   0  0  0  0  0  0  0  0  0  0  0  0
   49.4960   34.6430   42.0850 C   0  0  0  0  0  0  0  0  0  0  0  0
   48.2550   34.3070   40.2790 H   0  0  0  0  0  0  0  0  0  0  0  0
   48.5720   36.7230   42.2240 H   0  0  0  0  0  0  0  0  0  0  0  0
   49.6120   36.4130   40.6840 H   0  0  0  0  0  0  0  0  0  0  0  0
   49.5110   34.6100   43.1930 H   0  0  0  0  0  0  0  0  0  0  0  0
   50.4500   34.2790   41.6510 H   0  0  0  0  0  0  0  0  0  0  0  0
   41.1210   32.4840   38.6530 O   0  0  0  0  0  0  0  0  0  0  0  0
   39.9510   31.8070   38.6310 C   0  0  0  0  0  0  0  0  0  0  0  0
   38.8110   32.4110   38.4030 O   0  0  0  0  0  0  0  0  0  0  0  0
   40.9450   30.4880   42.0230 C   0  0  0  0  0  0  0  0  0  0  0  0
   40.9650   29.1980   41.2600 C   0  0  0  0  0  2  0  0  0  0  0  0
   40.2700   29.3860   40.0300 N   0  0  0  0  0  0  0  0  0  0  0  0
   40.0140   29.3140   38.6350 C   0  0  0  0  0  0  0  0  0  0  0  0
   40.3320   28.5620   37.6680 O   0  0  0  0  0  0  0  0  0  0  0  0
   39.1790   30.5350   38.7490 C   0  0  1  0  0  3  0  0  0  0  0  0
   39.0310   30.0750   40.1780 C   0  0  2  0  0  3  0  0  0  0  0  0
   39.4830   31.3650   41.3980 S   0  0  0  0  0  0  0  0  0  0  0  0
   42.1980   31.2880   41.9640 C   0  0  0  0  0  2  0  0  0  0  0  0
   42.9510   30.8840   41.2570 H   0  0  0  0  0  0  0  0  0  0  0  0
   40.6010   30.1020   43.4670 C   0  0  0  0  0  2  0  0  0  0  0  0
   40.0440   30.9290   43.9820 H   0  0  0  0  0  0  0  0  0  0  0  0
  1  7  1  6  0  0  0
  1  6  1  0  0  0  0
  1  2  1  0  0  0  0
  2  8  1  6  0  0  0
  2  3  1  0  0  0  0
  2 17  1  0  0  0  0
  4 10  1  0  0  0  0
  4  3  1  0  0  0  0
  5 11  1  1  0  0  0
  5  6  1  0  0  0  0
  5  4  1  0  0  0  0
  6 12  1  1  0  0  0
  9  4  1  0  0  0  0
 13  1  1  0  0  0  0
 14 13  1  0  0  0  0
 15  5  1  0  0  0  0
 16 15  1  0  0  0  0
 17 18  1  0  0  0  0
 18 23  1  0  0  0  0
 19 18  2  0  0  0  0
 19 20  1  0  0  0  0
 20 21  2  0  0  0  0
 21 22  1  0  0  0  0
 22 25  1  0  0  0  0
 23 22  2  0  0  0  0
 24 19  1  0  0  0  0
 26 27  1  0  0  0  0
 26 20  1  0  0  0  0
 26 28  1  0  0  0  0
 27 28  1  0  0  0  0
 27 30  1  0  0  0  0
 28 32  1  0  0  0  0
 29 26  1  0  0  0  0
 31 27  1  0  0  0  0
 33 28  1  0  0  0  0
 34  6  1  0  0  0  0
 35 34  1  0  0  0  0
 36 35  2  0  0  0  0
 37 47  1  0  0  0  0
 38 37  1  0  0  0  0
 39 43  1  0  0  0  0
 39 38  1  0  0  0  0
 40 42  1  0  0  0  0
 40 39  1  0  0  0  0
 41 40  2  0  0  0  0
 42 35  1  1  0  0  0
 42 43  1  0  0  0  0
 43 44  1  1  0  0  0
 44 37  1  0  0  0  0
 45 37  1  0  0  0  0
 46 45  1  0  0  0  0
 47 48  1  0  0  0  0
M  END
>  <minimizedAffinity>
-6.43408728

>  <minimizedRMSD>
1.14241946

$$$$
