
 OpenBabel03242518553D

 45 48  0  0  1  0  0  0  0  0999 V2000
   46.0440   31.2430   46.3610 C   0  0  2  0  0  0  0  0  0  0  0  0
   45.3030   30.7090   47.5450 C   0  0  0  0  0  0  0  0  0  0  0  0
   44.8300   29.3430   47.1810 C   0  0  0  0  0  0  0  0  0  0  0  0
   45.1120   28.9090   45.7870 C   0  0  0  0  0  0  0  0  0  0  0  0
   46.5810   29.0250   45.4870 C   0  0  0  0  0  0  0  0  0  0  0  0
   47.1450   30.2680   45.9930 C   0  0  2  0  0  0  0  0  0  0  0  0
   45.3710   31.2350   45.4790 H   0  0  0  0  0  0  0  0  0  0  0  0
   45.8580   30.7310   48.4890 H   0  0  0  0  0  0  0  0  0  0  0  0
   44.4360   31.4210   47.7220 H   0  0  0  0  0  0  0  0  0  0  0  0
   45.1390   28.5360   47.8950 H   0  0  0  0  0  0  0  0  0  0  0  0
   43.7060   29.3440   47.2790 H   0  0  0  0  0  0  0  0  0  0  0  0
   44.8090   27.8360   45.7230 H   0  0  0  0  0  0  0  0  0  0  0  0
   44.4710   29.4330   45.0300 H   0  0  0  0  0  0  0  0  0  0  0  0
   47.0530   28.0700   45.7800 H   0  0  0  0  0  0  0  0  0  0  0  0
   46.6570   29.0320   44.3600 H   0  0  0  0  0  0  0  0  0  0  0  0
   47.8070   30.7550   45.2750 H   0  0  0  0  0  0  0  0  0  0  0  0
   47.9330   29.8980   47.2030 C   0  0  0  0  0  0  0  0  0  0  0  0
   47.3500   29.8220   48.1390 H   0  0  0  0  0  0  0  0  0  0  0  0
   48.7010   30.6910   47.3510 H   0  0  0  0  0  0  0  0  0  0  0  0
   51.0100   26.2730   49.1800 C   0  0  0  0  0  0  0  0  0  0  0  0
   51.4520   27.6910   48.9160 C   0  0  0  0  0  2  0  0  0  0  0  0
   50.6430   28.2220   47.8420 N   0  0  0  0  0  0  0  0  0  0  0  0
   50.1050   28.7680   46.6410 C   0  0  0  0  0  0  0  0  0  0  0  0
   50.7030   29.2430   45.6200 O   0  0  0  0  0  0  0  0  0  0  0  0
   48.6860   28.5770   47.0300 C   0  0  1  0  0  3  0  0  0  0  0  0
   49.2730   28.1880   48.3650 C   0  0  1  0  0  3  0  0  0  0  0  0
   49.2360   26.3840   48.7120 S   0  0  0  0  0  0  0  0  0  0  0  0
   51.0290   25.9440   50.6590 C   0  0  0  0  0  2  0  0  0  0  0  0
   51.9380   26.3080   51.1780 H   0  0  0  0  0  0  0  0  0  0  0  0
   51.7500   25.2600   48.3600 C   0  0  0  0  0  2  0  0  0  0  0  0
   52.7650   25.7010   48.1320 H   0  0  0  0  0  0  0  0  0  0  0  0
   46.5390   32.6320   46.5260 C   0  0  0  0  0  0  0  0  0  0  0  0
   47.2990   32.9760   47.4660 O   0  0  0  0  0  0  0  0  0  0  0  0
   44.6920   35.3330   44.9040 C   0  0  0  0  0  0  0  0  0  0  0  0
   45.2870   35.4430   43.6230 C   0  0  0  0  0  0  0  0  0  0  0  0
   46.3280   34.5720   43.3530 C   0  0  0  0  0  0  0  0  0  0  0  0
   46.6450   33.7300   44.3380 N   0  0  0  0  0  0  0  0  0  0  0  0
   46.0980   33.6190   45.5310 C   0  0  0  0  0  0  0  0  0  0  0  0
   45.0870   34.4520   45.8200 N   0  0  0  0  0  0  0  0  0  0  0  0
   43.8630   36.0050   45.1590 H   0  0  0  0  0  0  0  0  0  0  0  0
   44.9150   36.1820   42.9300 H   0  0  0  0  0  0  0  0  0  0  0  0
   46.9400   34.6740   42.0380 C   0  0  0  0  0  0  0  0  0  0  0  0
   47.7360   33.5590   41.8050 F   0  0  0  0  0  0  0  0  0  0  0  0
   47.7240   35.7820   42.0520 F   0  0  0  0  0  0  0  0  0  0  0  0
   45.9980   34.6790   41.0150 F   0  0  0  0  0  0  0  0  0  0  0  0
  1  7  1  6  0  0  0
  1 32  1  0  0  0  0
  1  2  1  0  0  0  0
  2  9  1  0  0  0  0
  2  8  1  0  0  0  0
  3 11  1  0  0  0  0
  3  2  1  0  0  0  0
  3 10  1  0  0  0  0
  4  3  1  0  0  0  0
  5 14  1  0  0  0  0
  5  4  1  0  0  0  0
  5  6  1  0  0  0  0
  6 16  1  6  0  0  0
  6  1  1  0  0  0  0
  6 17  1  0  0  0  0
 12  4  1  0  0  0  0
 13  4  1  0  0  0  0
 15  5  1  0  0  0  0
 17 19  1  0  0  0  0
 17 18  1  0  0  0  0
 20 28  1  0  0  0  0
 21 20  1  0  0  0  0
 22 26  1  0  0  0  0
 22 21  1  0  0  0  0
 23 25  1  0  0  0  0
 23 22  1  0  0  0  0
 24 23  2  0  0  0  0
 25 17  1  1  0  0  0
 25 26  1  0  0  0  0
 26 27  1  6  0  0  0
 27 20  1  0  0  0  0
 28 29  1  0  0  0  0
 30 20  1  0  0  0  0
 31 30  1  0  0  0  0
 32 33  2  0  0  0  0
 34 40  1  0  0  0  0
 34 39  1  0  0  0  0
 35 34  2  0  0  0  0
 36 35  1  0  0  0  0
 36 37  2  0  0  0  0
 37 38  1  0  0  0  0
 38 39  2  0  0  0  0
 38 32  1  0  0  0  0
 41 35  1  0  0  0  0
 42 44  1  0  0  0  0
 42 36  1  0  0  0  0
 43 42  1  0  0  0  0
 45 42  1  0  0  0  0
M  END
>  <minimizedAffinity>
-5.70895052

>  <minimizedRMSD>
1.54951072

$$$$
