
 OpenBabel03252508503D

 31 34  0  0  1  0  0  0  0  0999 V2000
   45.7140   34.1330   41.1280 C   0  0  0  0  0  0  0  0  0  0  0  0
   46.3830   34.6100   42.2540 C   0  0  0  0  0  0  0  0  0  0  0  0
   47.7540   34.8510   42.1290 C   0  0  0  0  0  0  0  0  0  0  0  0
   48.3460   34.6070   40.9260 N   0  0  0  0  0  0  0  0  0  0  0  0
   47.6660   34.1490   39.8690 C   0  0  0  0  0  0  0  0  0  0  0  0
   46.3410   33.9120   39.9740 N   0  0  0  0  0  0  0  0  0  0  0  0
   48.2670   35.2160   42.9880 H   0  0  0  0  0  0  0  0  0  0  0  0
   48.1180   33.9500   38.9050 H   0  0  0  0  0  0  0  0  0  0  0  0
   45.6430   34.8360   43.4970 C   0  0  0  0  0  0  0  0  0  0  0  0
   45.0440   36.0500   43.8040 C   0  0  0  0  0  0  0  0  0  0  0  0
   44.4720   35.8180   45.0390 C   0  0  0  0  0  0  0  0  0  0  0  0
   44.7090   34.5510   45.4540 N   0  0  0  0  0  0  0  0  0  0  0  0
   45.4170   33.9820   44.5030 N   0  0  0  0  0  0  0  0  0  0  0  0
   45.0080   36.9860   43.2360 H   0  0  0  0  0  0  0  0  0  0  0  0
   43.9030   36.5430   45.6230 H   0  0  0  0  0  0  0  0  0  0  0  0
   44.3690   34.1590   46.3620 H   0  0  0  0  0  0  0  0  0  0  0  0
   44.3640   33.8910   41.2320 O   0  0  0  0  0  0  0  0  0  0  0  0
   43.3480   34.6760   40.7660 C   0  0  0  0  0  0  0  0  0  0  0  0
   43.2880   35.9490   40.7560 O   0  0  0  0  0  0  0  0  0  0  0  0
   39.0040   32.1970   39.6490 C   0  0  0  0  0  0  0  0  0  0  0  0
   38.9060   33.1270   40.8410 C   0  0  0  0  0  2  0  0  0  0  0  0
   40.0600   34.0080   40.7840 N   0  0  0  0  0  0  0  0  0  0  0  0
   40.9090   35.1730   40.7280 C   0  0  0  0  0  0  0  0  0  0  0  0
   40.6300   36.3640   41.0990 O   0  0  0  0  0  0  0  0  0  0  0  0
   42.0090   34.3710   40.1360 C   0  0  2  0  0  3  0  0  0  0  0  0
   41.2860   33.2300   40.7740 C   0  0  2  0  0  3  0  0  0  0  0  0
   40.8140   31.8980   39.6170 S   0  0  0  0  0  0  0  0  0  0  0  0
   38.2630   30.9070   39.9200 C   0  0  0  0  0  2  0  0  0  0  0  0
   37.3700   31.0860   40.5540 H   0  0  0  0  0  0  0  0  0  0  0  0
   38.5050   32.8070   38.3760 C   0  0  0  0  0  2  0  0  0  0  0  0
   39.2340   33.4630   37.8620 H   0  0  0  0  0  0  0  0  0  0  0  0
  1 17  1  0  0  0  0
  1  2  1  0  0  0  0
  2  9  1  0  0  0  0
  3  2  2  0  0  0  0
  3  7  1  0  0  0  0
  4  3  1  0  0  0  0
  5  6  1  0  0  0  0
  5  4  2  0  0  0  0
  6  1  2  0  0  0  0
  8  5  1  0  0  0  0
  9 10  1  0  0  0  0
  9 13  2  0  0  0  0
 10 11  2  0  0  0  0
 11 12  1  0  0  0  0
 11 15  1  0  0  0  0
 12 16  1  0  0  0  0
 13 12  1  0  0  0  0
 14 10  1  0  0  0  0
 18 17  1  0  0  0  0
 19 18  2  0  0  0  0
 20 28  1  0  0  0  0
 20 21  1  0  0  0  0
 22 21  1  0  0  0  0
 23 22  1  0  0  0  0
 23 24  2  0  0  0  0
 25 23  1  0  0  0  0
 25 18  1  1  0  0  0
 25 26  1  0  0  0  0
 26 27  1  6  0  0  0
 26 22  1  0  0  0  0
 27 20  1  0  0  0  0
 28 29  1  0  0  0  0
 30 20  1  0  0  0  0
 31 30  1  0  0  0  0
M  END
>  <minimizedAffinity>
-6.27309513

>  <minimizedRMSD>
1.65012908

$$$$
