
 OpenBabel03242519103D

 50 54  0  0  1  0  0  0  0  0999 V2000
   48.1050   32.1470   36.6060 C   0  0  0  0  0  0  0  0  0  0  0  0
   47.5360   32.7850   37.7300 C   0  0  0  0  0  0  0  0  0  0  0  0
   46.2020   33.0950   37.5710 C   0  0  0  0  0  0  0  0  0  0  0  0
   45.4470   32.8370   36.4620 C   0  0  0  0  0  0  0  0  0  0  0  0
   46.0450   32.2100   35.3850 C   0  0  0  0  0  0  0  0  0  0  0  0
   47.3670   31.8760   35.4810 C   0  0  0  0  0  0  0  0  0  0  0  0
   45.7320   33.5860   38.4120 H   0  0  0  0  0  0  0  0  0  0  0  0
   44.3980   33.1030   36.3880 H   0  0  0  0  0  0  0  0  0  0  0  0
   45.4740   31.9930   34.4920 H   0  0  0  0  0  0  0  0  0  0  0  0
   48.7370   32.0010   33.4480 C   0  0  0  0  0  0  0  0  0  0  0  0
   48.9080   33.2470   33.6500 O   0  0  0  0  0  0  0  0  0  0  0  0
   47.9530   31.2300   34.3490 N   0  0  0  0  0  0  0  0  0  0  0  0
   47.7760   30.2180   34.2400 H   0  0  0  0  0  0  0  0  0  0  0  0
   50.5400   28.4560   34.7140 C   0  0  0  0  0  0  0  0  0  0  0  0
   49.9630   28.0110   33.4030 C   0  0  0  0  0  2  0  0  0  0  0  0
   49.3520   29.1280   32.7470 N   0  0  0  0  0  0  0  0  0  0  0  0
   48.4500   30.0120   32.0910 C   0  0  0  0  0  0  0  0  0  0  0  0
   47.3180   29.8440   31.5240 O   0  0  0  0  0  0  0  0  0  0  0  0
   49.3030   31.2110   32.3020 C   0  0  2  0  0  3  0  0  0  0  0  0
   50.3410   30.2100   32.6270 C   0  0  1  0  0  3  0  0  0  0  0  0
   50.9000   30.2100   34.3750 S   0  0  0  0  0  0  0  0  0  0  0  0
   49.6420   28.2720   35.8920 C   0  0  0  0  0  2  0  0  0  0  0  0
   48.5790   28.1540   35.6650 H   0  0  0  0  0  0  0  0  0  0  0  0
   51.8280   27.6770   34.9100 C   0  0  0  0  0  2  0  0  0  0  0  0
   52.5810   27.9310   34.1390 H   0  0  0  0  0  0  0  0  0  0  0  0
   48.2360   33.0890   38.9090 N   0  0  0  0  0  0  0  0  0  0  0  0
   49.2290   33.2870   38.6440 H   0  0  0  0  0  0  0  0  0  0  0  0
   47.4000   34.3310   42.1360 N   0  0  0  0  0  0  0  0  0  0  0  0
   47.3030   34.4920   40.6860 C   0  0  0  0  0  0  0  0  0  0  0  0
   47.8390   33.1600   40.2740 C   0  0  2  0  0  0  0  0  0  0  0  0
   49.0800   33.0180   41.1350 C   0  0  0  0  0  0  0  0  0  0  0  0
   48.6880   33.7470   42.3990 C   0  0  0  0  0  0  0  0  0  0  0  0
   47.9690   35.2930   40.3160 H   0  0  0  0  0  0  0  0  0  0  0  0
   46.2470   34.6190   40.3720 H   0  0  0  0  0  0  0  0  0  0  0  0
   47.0760   32.3970   40.5320 H   0  0  0  0  0  0  0  0  0  0  0  0
   49.3210   31.9560   41.3380 H   0  0  0  0  0  0  0  0  0  0  0  0
   49.8970   33.5800   40.6530 H   0  0  0  0  0  0  0  0  0  0  0  0
   48.6040   33.0280   43.2570 H   0  0  0  0  0  0  0  0  0  0  0  0
   49.4120   34.5210   42.6910 H   0  0  0  0  0  0  0  0  0  0  0  0
   44.7220   35.9590   44.1690 C   0  0  0  0  0  0  0  0  0  0  0  0
   45.5960   35.7270   43.1130 C   0  0  0  0  0  0  0  0  0  0  0  0
   46.4820   34.6470   43.1490 C   0  0  0  0  0  0  0  0  0  0  0  0
   46.4250   33.8690   44.2540 N   0  0  0  0  0  0  0  0  0  0  0  0
   45.5910   34.0750   45.2790 C   0  0  0  0  0  0  0  0  0  0  0  0
   44.7330   35.1370   45.2250 N   0  0  0  0  0  0  0  0  0  0  0  0
   44.0760   36.8160   44.0520 H   0  0  0  0  0  0  0  0  0  0  0  0
   45.6840   36.3170   42.2050 H   0  0  0  0  0  0  0  0  0  0  0  0
   45.5750   33.4240   46.1550 H   0  0  0  0  0  0  0  0  0  0  0  0
   50.6170   31.5050   36.7560 N   0  0  0  0  0  0  0  0  0  0  0  0
   49.5020   31.7910   36.7000 C   0  0  0  0  0  0  0  0  0  0  0  0
  1 50  1  0  0  0  0
  1  2  1  0  0  0  0
  2 26  1  0  0  0  0
  3  2  2  0  0  0  0
  3  7  1  0  0  0  0
  4  3  1  0  0  0  0
  5  6  1  0  0  0  0
  5  4  2  0  0  0  0
  6  1  2  0  0  0  0
  8  4  1  0  0  0  0
  9  5  1  0  0  0  0
 10 11  2  0  0  0  0
 10 12  1  0  0  0  0
 12  6  1  0  0  0  0
 13 12  1  0  0  0  0
 14 24  1  0  0  0  0
 14 22  1  0  0  0  0
 15 14  1  0  0  0  0
 16 15  1  0  0  0  0
 17 19  1  0  0  0  0
 17 16  1  0  0  0  0
 18 17  2  0  0  0  0
 19 20  1  0  0  0  0
 19 10  1  1  0  0  0
 20 16  1  0  0  0  0
 20 21  1  1  0  0  0
 21 14  1  0  0  0  0
 23 22  1  0  0  0  0
 25 24  1  0  0  0  0
 26 30  1  0  0  0  0
 27 26  1  0  0  0  0
 28 32  1  0  0  0  0
 28 42  1  0  0  0  0
 29 28  1  0  0  0  0
 30 35  1  1  0  0  0
 30 29  1  0  0  0  0
 30 31  1  0  0  0  0
 31 36  1  0  0  0  0
 31 32  1  0  0  0  0
 32 39  1  0  0  0  0
 32 38  1  0  0  0  0
 33 29  1  0  0  0  0
 34 29  1  0  0  0  0
 37 31  1  0  0  0  0
 40 45  1  0  0  0  0
 41 42  1  0  0  0  0
 41 40  2  0  0  0  0
 42 43  2  0  0  0  0
 43 44  1  0  0  0  0
 44 48  1  0  0  0  0
 45 44  2  0  0  0  0
 46 40  1  0  0  0  0
 47 41  1  0  0  0  0
 50 49  3  0  0  0  0
M  END
>  <minimizedAffinity>
-5.57854795

>  <minimizedRMSD>
1.15458667

$$$$
