
 OpenBabel03242520563D

 44 47  0  0  1  0  0  0  0  0999 V2000
   51.1720   32.1000   51.1360 C   0  0  0  0  0  0  0  0  0  0  0  0
   51.3140   30.9260   51.8730 C   0  0  0  0  0  0  0  0  0  0  0  0
   50.5190   29.8210   51.4990 C   0  0  0  0  0  0  0  0  0  0  0  0
   49.6730   29.9780   50.4590 N   0  0  0  0  0  0  0  0  0  0  0  0
   49.5640   31.1340   49.7760 C   0  0  0  0  0  0  0  0  0  0  0  0
   50.3220   32.2150   50.1120 N   0  0  0  0  0  0  0  0  0  0  0  0
   51.7100   32.9810   51.3120 H   0  0  0  0  0  0  0  0  0  0  0  0
   48.6120   31.2600   48.6800 C   0  0  0  0  0  3  0  0  0  0  0  0
   47.5510   32.0460   48.7500 C   0  0  0  0  0  3  0  0  0  0  0  0
   46.6090   32.1240   47.5930 C   0  0  0  0  0  0  0  0  0  0  0  0
   45.6100   32.3960   47.9850 H   0  0  0  0  0  0  0  0  0  0  0  0
   46.5230   31.0870   47.2450 H   0  0  0  0  0  0  0  0  0  0  0  0
   46.6300   32.7340   45.3450 C   0  0  0  0  0  0  0  0  0  0  0  0
   45.9900   31.7710   44.8350 O   0  0  0  0  0  0  0  0  0  0  0  0
   47.0150   33.0890   46.6340 N   0  0  0  0  0  0  0  0  0  0  0  0
   47.5230   33.9610   46.7890 H   0  0  0  0  0  0  0  0  0  0  0  0
   44.8960   35.0850   44.4760 Cl  0  0  0  0  0  0  0  0  0  0  0  0
   46.2910   34.5760   43.5650 C   0  0  0  0  0  0  0  0  0  0  0  0
   46.9270   33.5020   44.1240 C   0  0  0  0  0  0  0  0  0  0  0  0
   48.0680   32.9620   43.5120 C   0  0  0  0  0  0  0  0  0  0  0  0
   48.5750   33.4910   42.3430 C   0  0  0  0  0  0  0  0  0  0  0  0
   47.9180   34.5780   41.7900 C   0  0  0  0  0  0  0  0  0  0  0  0
   48.4730   35.3380   40.3150 Cl  0  0  0  0  0  0  0  0  0  0  0  0
   46.8020   35.1010   42.3970 C   0  0  0  0  0  0  0  0  0  0  0  0
   48.6510   32.1160   43.8500 H   0  0  0  0  0  0  0  0  0  0  0  0
   49.4400   33.1280   41.8160 H   0  0  0  0  0  0  0  0  0  0  0  0
   46.2370   35.9570   42.0250 H   0  0  0  0  0  0  0  0  0  0  0  0
   50.5660   28.6040   52.1220 O   0  0  0  0  0  0  0  0  0  0  0  0
   51.4810   27.6370   51.5500 C   0  0  0  0  0  0  0  0  0  0  0  0
   52.1350   28.2000   50.4490 F   0  0  0  0  0  0  0  0  0  0  0  0
   52.4580   27.3470   52.5010 F   0  0  0  0  0  0  0  0  0  0  0  0
   50.8470   26.4510   51.1950 F   0  0  0  0  0  0  0  0  0  0  0  0
   52.1070   30.8430   53.0880 C   0  0  0  0  0  2  0  0  0  0  0  0
   53.5570   31.1540   53.1190 C   0  0  1  0  0  0  0  0  0  0  0  0
   53.9940   32.5610   53.0140 C   0  0  0  0  0  2  0  0  0  0  0  0
   54.3700   33.0860   54.2990 N   0  0  0  0  0  0  0  0  0  0  0  0
   54.5060   33.9500   55.4240 C   0  0  0  0  0  0  0  0  0  0  0  0
   54.3410   35.1850   55.6420 O   0  0  0  0  0  0  0  0  0  0  0  0
   54.9380   32.8660   56.3450 C   0  0  0  0  0  3  0  0  0  0  0  0
   54.0790   32.4820   56.9100 H   0  0  0  0  0  0  0  0  0  0  0  0
   55.2080   32.1400   55.0590 C   0  0  1  0  0  3  0  0  0  0  0  0
   54.1720   30.6490   54.7780 S   0  0  0  0  0  0  0  0  0  0  0  0
   54.2920   30.2550   52.1180 C   0  0  0  0  0  2  0  0  0  0  0  0
   55.3250   30.0000   52.5650 H   0  0  0  0  0  0  0  0  0  0  0  0
  1  7  1  0  0  0  0
  1  2  1  0  0  0  0
  2 33  1  0  0  0  0
  3  2  2  0  0  0  0
  3 28  1  0  0  0  0
  4  3  1  0  0  0  0
  5  6  1  0  0  0  0
  5  4  2  0  0  0  0
  6  1  2  0  0  0  0
  8  9  2  0  0  0  0
  8  5  1  0  0  0  0
 10 11  1  0  0  0  0
 10  9  1  0  0  0  0
 12 10  1  0  0  0  0
 13 15  1  0  0  0  0
 14 13  2  0  0  0  0
 15 16  1  0  0  0  0
 15 10  1  0  0  0  0
 18 19  1  0  0  0  0
 18 17  1  0  0  0  0
 19 13  1  0  0  0  0
 20 25  1  0  0  0  0
 20 19  2  0  0  0  0
 21 20  1  0  0  0  0
 22 21  2  0  0  0  0
 22 24  1  0  0  0  0
 23 22  1  0  0  0  0
 24 18  2  0  0  0  0
 26 21  1  0  0  0  0
 27 24  1  0  0  0  0
 29 28  1  0  0  0  0
 29 31  1  0  0  0  0
 30 29  1  0  0  0  0
 32 29  1  0  0  0  0
 33 34  1  0  0  0  0
 34 43  1  6  0  0  0
 34 42  1  0  0  0  0
 35 34  1  0  0  0  0
 35 36  1  0  0  0  0
 36 41  1  0  0  0  0
 36 37  1  0  0  0  0
 37 38  2  0  0  0  0
 37 39  1  0  0  0  0
 39 40  1  0  0  0  0
 41 42  1  1  0  0  0
 41 39  1  0  0  0  0
 43 44  1  0  0  0  0
M  END
>  <minimizedAffinity>
-7.0942874

>  <minimizedRMSD>
0.320768625

$$$$
