
 OpenBabel03252503563D

 23 26  0  0  1  0  0  0  0  0999 V2000
   46.8140   32.7170   45.6100 C   0  0  0  0  0  2  0  0  0  0  0  0
   46.6290   31.3000   45.1310 C   0  0  2  0  0  0  0  0  0  0  0  0
   46.3780   30.3710   46.2740 C   0  0  0  0  0  2  0  0  0  0  0  0
   47.5700   29.6570   46.5830 N   0  0  2  0  0  0  0  0  0  0  0  0
   48.6700   29.0630   47.2580 C   0  0  2  0  0  0  0  0  0  0  0  0
   49.0180   28.7480   48.4240 O   0  0  0  0  0  1  0  0  0  0  0  0
   49.4600   28.8640   46.0140 C   0  0  0  0  0  3  0  0  0  0  0  0
   49.8720   27.8590   45.8580 H   0  0  0  0  0  0  0  0  0  0  0  0
   48.1190   29.1100   45.3700 C   0  0  1  0  0  0  0  0  0  0  0  0
   48.0950   30.6180   44.3190 S   0  0  0  0  0  0  0  0  0  0  0  0
   45.4700   31.1500   44.1690 C   0  0  0  0  0  2  0  0  0  0  0  0
   45.7900   31.2600   43.1290 H   0  0  0  0  0  0  0  0  0  0  0  0
   47.1280   34.7950   42.6110 C   0  0  0  0  0  0  0  0  0  0  0  0
   45.9500   35.5420   42.5850 C   0  0  0  0  0  0  0  0  0  0  0  0
   45.0350   35.3160   43.6270 C   0  0  0  0  0  0  0  0  0  0  0  0
   45.3520   34.3980   44.5810 N   0  0  0  0  0  0  0  0  0  0  0  0
   46.5140   33.6990   44.5580 C   0  0  0  0  0  0  0  0  0  0  0  0
   47.3850   33.9100   43.5710 N   0  0  0  0  0  0  0  0  0  0  0  0
   45.7020   36.2660   41.8310 H   0  0  0  0  0  0  0  0  0  0  0  0
   44.1050   35.8550   43.6730 H   0  0  0  0  0  0  0  0  0  0  0  0
   48.0240   35.0660   41.5250 C   0  0  0  0  0  0  0  0  0  0  0  0
   48.9490   35.9240   41.5010 O   0  0  0  0  0  0  0  0  0  0  0  0
   47.9650   34.5100   40.5770 H   0  0  0  0  0  0  0  0  0  0  0  0
  2 11  1  6  0  0  0
  2  1  1  0  0  0  0
  2  3  1  0  0  0  0
  4  3  1  6  0  0  0
  4  5  1  0  0  0  0
  5  6  1  1  0  0  0
  7  5  1  0  0  0  0
  8  7  1  0  0  0  0
  9 10  1  1  0  0  0
  9  7  1  0  0  0  0
  9  4  1  0  0  0  0
  9  5  1  0  0  0  0
 10  2  1  0  0  0  0
 12 11  1  0  0  0  0
 13 18  1  0  0  0  0
 14 13  2  0  0  0  0
 14 15  1  0  0  0  0
 15 20  1  0  0  0  0
 15 16  2  0  0  0  0
 17 16  1  0  0  0  0
 17  1  1  0  0  0  0
 18 17  2  0  0  0  0
 19 14  1  0  0  0  0
 21 13  1  0  0  0  0
 22 21  2  0  0  0  0
 23 21  1  0  0  0  0
M  END
>  <minimizedAffinity>
-3.91552162

>  <minimizedRMSD>
2.42331529

$$$$
