
 OpenBabel03242523553D

 48 52  0  0  1  0  0  0  0  0999 V2000
   42.7580   34.2290   39.0650 C   0  0  1  0  0  0  0  0  0  0  0  0
   43.0520   35.1740   40.2240 C   0  0  1  0  0  0  0  0  0  0  0  0
   41.8400   35.7640   40.6310 O   0  0  0  0  0  0  0  0  0  0  0  0
   40.9840   36.0230   39.5600 C   0  0  0  0  0  0  0  0  0  0  0  0
   40.4350   34.7450   38.9540 C   0  0  2  0  0  0  0  0  0  0  0  0
   41.4330   33.6020   39.3580 C   0  0  1  0  0  0  0  0  0  0  0  0
   43.5060   33.4090   39.0240 H   0  0  0  0  0  0  0  0  0  0  0  0
   43.8060   35.9270   39.9900 H   0  0  0  0  0  0  0  0  0  0  0  0
   41.4310   36.6890   38.7960 H   0  0  0  0  0  0  0  0  0  0  0  0
   40.1380   36.5750   39.9880 H   0  0  0  0  0  0  0  0  0  0  0  0
   39.4230   34.4900   39.3100 H   0  0  0  0  0  0  0  0  0  0  0  0
   41.1840   33.6220   40.4670 H   0  0  0  0  0  0  0  0  0  0  0  0
   42.7160   34.9300   37.8530 O   0  0  0  0  0  0  0  0  0  0  0  0
   43.3500   34.6000   37.1840 H   0  0  0  0  0  0  0  0  0  0  0  0
   40.5100   34.8220   37.5690 O   0  0  0  0  0  0  0  0  0  0  0  0
   40.5900   35.7300   37.2340 H   0  0  0  0  0  0  0  0  0  0  0  0
   43.3970   34.3350   41.3000 O   0  0  0  0  0  0  0  0  0  0  0  0
   44.5630   34.3810   41.9550 C   0  0  0  0  0  0  0  0  0  0  0  0
   45.7780   34.5160   41.2670 C   0  0  0  0  0  0  0  0  0  0  0  0
   46.9530   34.5580   42.0010 C   0  0  0  0  0  0  0  0  0  0  0  0
   46.8950   34.4670   43.3780 N   0  0  0  0  0  0  0  0  0  0  0  0
   45.7040   34.3370   44.0100 C   0  0  0  0  0  0  0  0  0  0  0  0
   44.5460   34.2940   43.3020 N   0  0  0  0  0  0  0  0  0  0  0  0
   45.8260   34.5870   40.1990 H   0  0  0  0  0  0  0  0  0  0  0  0
   45.6610   34.2660   45.0860 H   0  0  0  0  0  0  0  0  0  0  0  0
   48.2870   34.6810   41.3400 C   0  0  0  0  0  0  0  0  0  0  0  0
   49.0290   36.0050   41.5320 C   0  0  0  0  0  0  0  0  0  0  0  0
   49.4960   34.6460   42.0950 C   0  0  0  0  0  0  0  0  0  0  0  0
   48.2620   34.3010   40.2860 H   0  0  0  0  0  0  0  0  0  0  0  0
   48.5680   36.7250   42.2220 H   0  0  0  0  0  0  0  0  0  0  0  0
   49.6140   36.4110   40.6870 H   0  0  0  0  0  0  0  0  0  0  0  0
   49.5080   34.6180   43.2030 H   0  0  0  0  0  0  0  0  0  0  0  0
   50.4520   34.2820   41.6650 H   0  0  0  0  0  0  0  0  0  0  0  0
   41.1080   32.5080   38.6400 O   0  0  0  0  0  0  0  0  0  0  0  0
   39.9320   31.8410   38.6130 C   0  0  0  0  0  0  0  0  0  0  0  0
   38.8000   32.4540   38.3730 O   0  0  0  0  0  0  0  0  0  0  0  0
   40.9280   30.5000   41.9960 C   0  0  0  0  0  0  0  0  0  0  0  0
   40.9320   29.2120   41.2290 C   0  0  0  0  0  2  0  0  0  0  0  0
   40.2330   29.4130   40.0020 N   0  0  0  0  0  0  0  0  0  0  0  0
   39.9700   29.3480   38.6080 C   0  0  0  0  0  0  0  0  0  0  0  0
   40.2760   28.5950   37.6380 O   0  0  0  0  0  0  0  0  0  0  0  0
   39.1480   30.5760   38.7300 C   0  0  1  0  0  3  0  0  0  0  0  0
   39.0020   30.1130   40.1580 C   0  0  2  0  0  3  0  0  0  0  0  0
   39.4730   31.3950   41.3800 S   0  0  0  0  0  0  0  0  0  0  0  0
   42.1890   31.2880   41.9330 C   0  0  0  0  0  2  0  0  0  0  0  0
   42.9340   30.8790   41.2220 H   0  0  0  0  0  0  0  0  0  0  0  0
   40.5860   30.1140   43.4400 C   0  0  0  0  0  2  0  0  0  0  0  0
   40.0410   30.9440   43.9600 H   0  0  0  0  0  0  0  0  0  0  0  0
  1  7  1  6  0  0  0
  1  6  1  0  0  0  0
  1  2  1  0  0  0  0
  2  8  1  6  0  0  0
  2  3  1  0  0  0  0
  2 17  1  0  0  0  0
  4 10  1  0  0  0  0
  4  3  1  0  0  0  0
  5 11  1  1  0  0  0
  5  6  1  0  0  0  0
  5  4  1  0  0  0  0
  6 12  1  1  0  0  0
  9  4  1  0  0  0  0
 13  1  1  0  0  0  0
 14 13  1  0  0  0  0
 15  5  1  0  0  0  0
 16 15  1  0  0  0  0
 17 18  1  0  0  0  0
 18 23  1  0  0  0  0
 19 18  2  0  0  0  0
 19 20  1  0  0  0  0
 20 21  2  0  0  0  0
 21 22  1  0  0  0  0
 22 25  1  0  0  0  0
 23 22  2  0  0  0  0
 24 19  1  0  0  0  0
 26 27  1  0  0  0  0
 26 20  1  0  0  0  0
 26 28  1  0  0  0  0
 27 28  1  0  0  0  0
 27 30  1  0  0  0  0
 28 32  1  0  0  0  0
 29 26  1  0  0  0  0
 31 27  1  0  0  0  0
 33 28  1  0  0  0  0
 34  6  1  0  0  0  0
 35 34  1  0  0  0  0
 36 35  2  0  0  0  0
 37 47  1  0  0  0  0
 38 37  1  0  0  0  0
 39 43  1  0  0  0  0
 39 38  1  0  0  0  0
 40 42  1  0  0  0  0
 40 39  1  0  0  0  0
 41 40  2  0  0  0  0
 42 35  1  1  0  0  0
 42 43  1  0  0  0  0
 43 44  1  1  0  0  0
 44 37  1  0  0  0  0
 45 37  1  0  0  0  0
 46 45  1  0  0  0  0
 47 48  1  0  0  0  0
M  END
>  <minimizedAffinity>
-6.44564962

>  <minimizedRMSD>
1.16688049

$$$$
