
 OpenBabel03242518553D

 45 48  0  0  1  0  0  0  0  0999 V2000
   45.6750   31.1240   46.4990 C   0  0  2  0  0  0  0  0  0  0  0  0
   45.8050   30.2790   47.7250 C   0  0  0  0  0  0  0  0  0  0  0  0
   45.0210   29.0350   47.4800 C   0  0  0  0  0  0  0  0  0  0  0  0
   44.2730   28.9830   46.1950 C   0  0  0  0  0  0  0  0  0  0  0  0
   45.2000   29.2260   45.0360 C   0  0  0  0  0  0  0  0  0  0  0  0
   46.1270   30.3170   45.2980 C   0  0  2  0  0  0  0  0  0  0  0  0
   44.6000   31.3180   46.3050 H   0  0  0  0  0  0  0  0  0  0  0  0
   46.8330   30.0780   48.0440 H   0  0  0  0  0  0  0  0  0  0  0  0
   45.3690   30.8890   48.5780 H   0  0  0  0  0  0  0  0  0  0  0  0
   45.5980   28.0840   47.6160 H   0  0  0  0  0  0  0  0  0  0  0  0
   44.2400   28.9690   48.2900 H   0  0  0  0  0  0  0  0  0  0  0  0
   43.8510   27.9510   46.1170 H   0  0  0  0  0  0  0  0  0  0  0  0
   43.3780   29.6600   46.1850 H   0  0  0  0  0  0  0  0  0  0  0  0
   45.6070   28.2450   44.7300 H   0  0  0  0  0  0  0  0  0  0  0  0
   44.5310   29.5240   44.1750 H   0  0  0  0  0  0  0  0  0  0  0  0
   46.2300   30.9960   44.4500 H   0  0  0  0  0  0  0  0  0  0  0  0
   47.4460   29.6790   45.5700 C   0  0  0  0  0  0  0  0  0  0  0  0
   47.4940   28.5930   45.3670 H   0  0  0  0  0  0  0  0  0  0  0  0
   47.6660   29.8270   46.6520 H   0  0  0  0  0  0  0  0  0  0  0  0
   49.2300   31.6070   41.1410 C   0  0  0  0  0  0  0  0  0  0  0  0
   48.8970   30.1490   41.3430 C   0  0  0  0  0  2  0  0  0  0  0  0
   49.0510   29.8440   42.7500 N   0  0  0  0  0  0  0  0  0  0  0  0
   49.4100   29.3560   44.0380 C   0  0  0  0  0  0  0  0  0  0  0  0
   50.1850   28.3970   44.3620 O   0  0  0  0  0  0  0  0  0  0  0  0
   48.5860   30.3350   44.7890 C   0  0  1  0  0  3  0  0  0  0  0  0
   48.0690   30.7040   43.4180 C   0  0  1  0  0  3  0  0  0  0  0  0
   48.7180   32.2950   42.7680 S   0  0  0  0  0  0  0  0  0  0  0  0
   48.3220   32.2520   40.1140 C   0  0  0  0  0  2  0  0  0  0  0  0
   48.1650   31.6270   39.2130 H   0  0  0  0  0  0  0  0  0  0  0  0
   50.6810   31.8490   40.8550 C   0  0  0  0  0  2  0  0  0  0  0  0
   51.0790   30.9120   40.3640 H   0  0  0  0  0  0  0  0  0  0  0  0
   46.3510   32.4420   46.5920 C   0  0  0  0  0  0  0  0  0  0  0  0
   47.3700   32.6340   47.3020 O   0  0  0  0  0  0  0  0  0  0  0  0
   44.4430   35.4210   45.6840 C   0  0  0  0  0  0  0  0  0  0  0  0
   44.6920   35.5860   44.2990 C   0  0  0  0  0  0  0  0  0  0  0  0
   45.5270   34.6530   43.7100 C   0  0  0  0  0  0  0  0  0  0  0  0
   45.9990   33.7070   44.5240 N   0  0  0  0  0  0  0  0  0  0  0  0
   45.7740   33.5440   45.8110 C   0  0  0  0  0  0  0  0  0  0  0  0
   44.9670   34.4350   46.4080 N   0  0  0  0  0  0  0  0  0  0  0  0
   43.7860   36.1390   46.1900 H   0  0  0  0  0  0  0  0  0  0  0  0
   44.2330   36.4100   43.7740 H   0  0  0  0  0  0  0  0  0  0  0  0
   45.7830   34.8120   42.2870 C   0  0  0  0  0  0  0  0  0  0  0  0
   45.7480   33.5700   41.6640 F   0  0  0  0  0  0  0  0  0  0  0  0
   47.0300   35.3330   42.1650 F   0  0  0  0  0  0  0  0  0  0  0  0
   44.8040   35.5710   41.6560 F   0  0  0  0  0  0  0  0  0  0  0  0
  1  7  1  6  0  0  0
  1 32  1  0  0  0  0
  1  2  1  0  0  0  0
  2  8  1  0  0  0  0
  2  9  1  0  0  0  0
  3 10  1  0  0  0  0
  3  2  1  0  0  0  0
  3 11  1  0  0  0  0
  4  3  1  0  0  0  0
  5  6  1  0  0  0  0
  5  4  1  0  0  0  0
  6 16  1  6  0  0  0
  6 17  1  0  0  0  0
  6  1  1  0  0  0  0
 12  4  1  0  0  0  0
 13  4  1  0  0  0  0
 14  5  1  0  0  0  0
 15  5  1  0  0  0  0
 17 19  1  0  0  0  0
 18 17  1  0  0  0  0
 20 21  1  0  0  0  0
 20 27  1  0  0  0  0
 21 22  1  0  0  0  0
 22 26  1  0  0  0  0
 22 23  1  0  0  0  0
 23 24  2  0  0  0  0
 23 25  1  0  0  0  0
 25 17  1  1  0  0  0
 26 27  1  6  0  0  0
 26 25  1  0  0  0  0
 28 20  1  0  0  0  0
 29 28  1  0  0  0  0
 30 20  1  0  0  0  0
 31 30  1  0  0  0  0
 32 33  2  0  0  0  0
 34 40  1  0  0  0  0
 34 39  1  0  0  0  0
 35 34  2  0  0  0  0
 36 35  1  0  0  0  0
 36 37  2  0  0  0  0
 37 38  1  0  0  0  0
 38 39  2  0  0  0  0
 38 32  1  0  0  0  0
 41 35  1  0  0  0  0
 42 36  1  0  0  0  0
 43 42  1  0  0  0  0
 44 42  1  0  0  0  0
 45 42  1  0  0  0  0
M  END
>  <minimizedAffinity>
-5.34964609

>  <minimizedRMSD>
1.81310666

$$$$
