
 OpenBabel03242523543D

 48 52  0  0  1  0  0  0  0  0999 V2000
   42.8270   34.5080   38.8010 C   0  0  1  0  0  0  0  0  0  0  0  0
   42.9180   35.1910   40.1600 C   0  0  1  0  0  0  0  0  0  0  0  0
   41.6110   35.3920   40.6420 O   0  0  0  0  0  0  0  0  0  0  0  0
   40.7080   35.7070   39.6260 C   0  0  0  0  0  0  0  0  0  0  0  0
   40.4470   34.5220   38.7160 C   0  0  2  0  0  0  0  0  0  0  0  0
   41.6760   33.5590   38.8840 C   0  0  1  0  0  0  0  0  0  0  0  0
   43.7370   33.9020   38.6020 H   0  0  0  0  0  0  0  0  0  0  0  0
   43.4870   36.1230   40.1410 H   0  0  0  0  0  0  0  0  0  0  0  0
   40.9900   36.6160   39.0580 H   0  0  0  0  0  0  0  0  0  0  0  0
   39.7660   35.9460   40.1350 H   0  0  0  0  0  0  0  0  0  0  0  0
   39.5190   33.9780   38.9590 H   0  0  0  0  0  0  0  0  0  0  0  0
   41.4390   33.2600   39.9550 H   0  0  0  0  0  0  0  0  0  0  0  0
   42.6200   35.4500   37.7860 O   0  0  0  0  0  0  0  0  0  0  0  0
   43.3050   35.4330   37.0860 H   0  0  0  0  0  0  0  0  0  0  0  0
   40.4890   34.9390   37.3920 O   0  0  0  0  0  0  0  0  0  0  0  0
   40.3640   35.8960   37.2820 H   0  0  0  0  0  0  0  0  0  0  0  0
   43.4500   34.2160   41.0250 O   0  0  0  0  0  0  0  0  0  0  0  0
   44.5730   34.3630   41.7370 C   0  0  0  0  0  0  0  0  0  0  0  0
   45.8240   34.4550   41.1100 C   0  0  0  0  0  0  0  0  0  0  0  0
   46.9520   34.6080   41.9010 C   0  0  0  0  0  0  0  0  0  0  0  0
   46.8130   34.6660   43.2750 N   0  0  0  0  0  0  0  0  0  0  0  0
   45.5890   34.5730   43.8460 C   0  0  0  0  0  0  0  0  0  0  0  0
   44.4770   34.4230   43.0820 N   0  0  0  0  0  0  0  0  0  0  0  0
   45.9350   34.4100   40.0450 H   0  0  0  0  0  0  0  0  0  0  0  0
   45.4820   34.6190   44.9200 H   0  0  0  0  0  0  0  0  0  0  0  0
   48.3210   34.6940   41.3090 C   0  0  0  0  0  0  0  0  0  0  0  0
   49.0710   36.0120   41.5010 C   0  0  0  0  0  0  0  0  0  0  0  0
   49.4880   34.6640   42.1270 C   0  0  0  0  0  0  0  0  0  0  0  0
   48.3460   34.2830   40.2660 H   0  0  0  0  0  0  0  0  0  0  0  0
   48.5850   36.7580   42.1460 H   0  0  0  0  0  0  0  0  0  0  0  0
   49.7060   36.3850   40.6780 H   0  0  0  0  0  0  0  0  0  0  0  0
   49.4400   34.6690   43.2350 H   0  0  0  0  0  0  0  0  0  0  0  0
   50.4590   34.2750   41.7600 H   0  0  0  0  0  0  0  0  0  0  0  0
   41.5910   32.6230   37.9170 O   0  0  0  0  0  0  0  0  0  0  0  0
   41.2820   31.3120   38.0420 C   0  0  0  0  0  0  0  0  0  0  0  0
   40.5550   30.8690   39.0370 O   0  0  0  0  0  0  0  0  0  0  0  0
   44.8660   30.9530   36.9170 C   0  0  0  0  0  0  0  0  0  0  0  0
   44.1980   30.2190   35.7930 C   0  0  0  0  0  2  0  0  0  0  0  0
   42.8630   29.9090   36.1840 N   0  0  0  0  0  0  0  0  0  0  0  0
   41.4520   29.7860   36.0770 C   0  0  0  0  0  0  0  0  0  0  0  0
   40.5980   29.6380   35.1550 O   0  0  0  0  0  0  0  0  0  0  0  0
   41.3540   29.9040   37.5520 C   0  0  1  0  0  3  0  0  0  0  0  0
   42.7660   29.3760   37.5020 C   0  0  2  0  0  3  0  0  0  0  0  0
   43.9610   30.4350   38.4020 S   0  0  0  0  0  0  0  0  0  0  0  0
   44.9590   32.4300   36.7530 C   0  0  0  0  0  2  0  0  0  0  0  0
   44.4090   32.8150   35.8700 H   0  0  0  0  0  0  0  0  0  0  0  0
   46.2570   30.3210   37.0480 C   0  0  0  0  0  2  0  0  0  0  0  0
   46.6230   30.3700   38.1050 H   0  0  0  0  0  0  0  0  0  0  0  0
  1  7  1  6  0  0  0
  1  6  1  0  0  0  0
  1  2  1  0  0  0  0
  2  8  1  6  0  0  0
  2  3  1  0  0  0  0
  2 17  1  0  0  0  0
  4 10  1  0  0  0  0
  4  3  1  0  0  0  0
  5  6  1  0  0  0  0
  5 11  1  1  0  0  0
  5  4  1  0  0  0  0
  6 12  1  1  0  0  0
  9  4  1  0  0  0  0
 13  1  1  0  0  0  0
 14 13  1  0  0  0  0
 15  5  1  0  0  0  0
 16 15  1  0  0  0  0
 17 18  1  0  0  0  0
 18 23  1  0  0  0  0
 19 18  2  0  0  0  0
 19 20  1  0  0  0  0
 20 21  2  0  0  0  0
 21 22  1  0  0  0  0
 22 25  1  0  0  0  0
 23 22  2  0  0  0  0
 24 19  1  0  0  0  0
 26 27  1  0  0  0  0
 26 20  1  0  0  0  0
 26 28  1  0  0  0  0
 27 28  1  0  0  0  0
 27 30  1  0  0  0  0
 28 32  1  0  0  0  0
 29 26  1  0  0  0  0
 31 27  1  0  0  0  0
 33 28  1  0  0  0  0
 34 35  1  0  0  0  0
 34  6  1  0  0  0  0
 35 36  2  0  0  0  0
 37 47  1  0  0  0  0
 37 44  1  0  0  0  0
 38 39  1  0  0  0  0
 38 37  1  0  0  0  0
 39 43  1  0  0  0  0
 40 39  1  0  0  0  0
 40 42  1  0  0  0  0
 41 40  2  0  0  0  0
 42 35  1  6  0  0  0
 43 42  1  0  0  0  0
 43 44  1  1  0  0  0
 45 37  1  0  0  0  0
 46 45  1  0  0  0  0
 47 48  1  0  0  0  0
M  END
>  <minimizedAffinity>
-6.15783405

>  <minimizedRMSD>
0.721774638

$$$$
