
 OpenBabel03242523543D

 48 52  0  0  1  0  0  0  0  0999 V2000
   42.9090   34.5260   38.7920 C   0  0  1  0  0  0  0  0  0  0  0  0
   42.9360   35.1330   40.1900 C   0  0  1  0  0  0  0  0  0  0  0  0
   41.6120   35.2150   40.6620 O   0  0  0  0  0  0  0  0  0  0  0  0
   40.7020   35.5270   39.6510 C   0  0  0  0  0  0  0  0  0  0  0  0
   40.5350   34.3820   38.6690 C   0  0  2  0  0  0  0  0  0  0  0  0
   41.8250   33.4970   38.8010 C   0  0  1  0  0  0  0  0  0  0  0  0
   43.8610   33.9960   38.5730 H   0  0  0  0  0  0  0  0  0  0  0  0
   43.4380   36.1010   40.2340 H   0  0  0  0  0  0  0  0  0  0  0  0
   40.9270   36.4850   39.1410 H   0  0  0  0  0  0  0  0  0  0  0  0
   39.7390   35.6700   40.1570 H   0  0  0  0  0  0  0  0  0  0  0  0
   39.6440   33.7630   38.8650 H   0  0  0  0  0  0  0  0  0  0  0  0
   41.5960   33.1210   39.8500 H   0  0  0  0  0  0  0  0  0  0  0  0
   42.6500   35.5100   37.8300 O   0  0  0  0  0  0  0  0  0  0  0  0
   43.3420   35.5810   37.1420 H   0  0  0  0  0  0  0  0  0  0  0  0
   40.5640   34.8780   37.3720 O   0  0  0  0  0  0  0  0  0  0  0  0
   40.3750   35.8290   37.3160 H   0  0  0  0  0  0  0  0  0  0  0  0
   43.5230   34.1470   41.0050 O   0  0  0  0  0  0  0  0  0  0  0  0
   44.6370   34.3210   41.7250 C   0  0  0  0  0  0  0  0  0  0  0  0
   45.8910   34.4330   41.1070 C   0  0  0  0  0  0  0  0  0  0  0  0
   47.0090   34.6150   41.9060 C   0  0  0  0  0  0  0  0  0  0  0  0
   46.8590   34.6790   43.2780 N   0  0  0  0  0  0  0  0  0  0  0  0
   45.6320   34.5660   43.8410 C   0  0  0  0  0  0  0  0  0  0  0  0
   44.5290   34.3890   43.0690 N   0  0  0  0  0  0  0  0  0  0  0  0
   46.0120   34.3840   40.0440 H   0  0  0  0  0  0  0  0  0  0  0  0
   45.5160   34.6170   44.9130 H   0  0  0  0  0  0  0  0  0  0  0  0
   48.3810   34.7230   41.3240 C   0  0  0  0  0  0  0  0  0  0  0  0
   49.1040   36.0570   41.5140 C   0  0  0  0  0  0  0  0  0  0  0  0
   49.5420   34.7220   42.1520 C   0  0  0  0  0  0  0  0  0  0  0  0
   48.4220   34.3060   40.2850 H   0  0  0  0  0  0  0  0  0  0  0  0
   48.5990   36.7980   42.1490 H   0  0  0  0  0  0  0  0  0  0  0  0
   49.7380   36.4370   40.6930 H   0  0  0  0  0  0  0  0  0  0  0  0
   49.4850   34.7330   43.2600 H   0  0  0  0  0  0  0  0  0  0  0  0
   50.5240   34.3500   41.7960 H   0  0  0  0  0  0  0  0  0  0  0  0
   41.8170   32.6160   37.7810 O   0  0  0  0  0  0  0  0  0  0  0  0
   41.7380   31.2670   37.8360 C   0  0  0  0  0  0  0  0  0  0  0  0
   41.1380   30.6540   38.8260 O   0  0  0  0  0  0  0  0  0  0  0  0
   45.3600   31.5000   36.8040 C   0  0  0  0  0  0  0  0  0  0  0  0
   44.8300   30.7560   35.6150 C   0  0  0  0  0  2  0  0  0  0  0  0
   43.5440   30.2330   35.9430 N   0  0  0  0  0  0  0  0  0  0  0  0
   42.1690   29.9180   35.7840 C   0  0  0  0  0  0  0  0  0  0  0  0
   41.3650   29.7140   34.8280 O   0  0  0  0  0  0  0  0  0  0  0  0
   42.0230   29.9200   37.2600 C   0  0  1  0  0  3  0  0  0  0  0  0
   43.4970   29.6040   37.2200 C   0  0  2  0  0  3  0  0  0  0  0  0
   44.5060   30.7580   38.2240 S   0  0  0  0  0  0  0  0  0  0  0  0
   45.2420   32.9820   36.7380 C   0  0  0  0  0  2  0  0  0  0  0  0
   44.6620   33.3440   35.8650 H   0  0  0  0  0  0  0  0  0  0  0  0
   46.8240   31.0650   36.9370 C   0  0  0  0  0  2  0  0  0  0  0  0
   47.1550   31.0930   38.0080 H   0  0  0  0  0  0  0  0  0  0  0  0
  1  7  1  6  0  0  0
  1  6  1  0  0  0  0
  1  2  1  0  0  0  0
  2  8  1  1  0  0  0
  2  3  1  0  0  0  0
  2 17  1  0  0  0  0
  4 10  1  0  0  0  0
  4  3  1  0  0  0  0
  5  6  1  0  0  0  0
  5 11  1  1  0  0  0
  5  4  1  0  0  0  0
  6 12  1  1  0  0  0
  9  4  1  0  0  0  0
 13  1  1  0  0  0  0
 14 13  1  0  0  0  0
 15  5  1  0  0  0  0
 16 15  1  0  0  0  0
 17 18  1  0  0  0  0
 18 23  1  0  0  0  0
 19 18  2  0  0  0  0
 19 20  1  0  0  0  0
 20 21  2  0  0  0  0
 21 22  1  0  0  0  0
 22 25  1  0  0  0  0
 23 22  2  0  0  0  0
 24 19  1  0  0  0  0
 26 27  1  0  0  0  0
 26 20  1  0  0  0  0
 26 28  1  0  0  0  0
 27 30  1  0  0  0  0
 27 28  1  0  0  0  0
 28 32  1  0  0  0  0
 29 26  1  0  0  0  0
 31 27  1  0  0  0  0
 33 28  1  0  0  0  0
 34 35  1  0  0  0  0
 34  6  1  0  0  0  0
 35 36  2  0  0  0  0
 37 47  1  0  0  0  0
 37 44  1  0  0  0  0
 38 39  1  0  0  0  0
 38 37  1  0  0  0  0
 39 43  1  0  0  0  0
 40 39  1  0  0  0  0
 40 42  1  0  0  0  0
 41 40  2  0  0  0  0
 42 35  1  1  0  0  0
 43 42  1  0  0  0  0
 43 44  1  1  0  0  0
 45 37  1  0  0  0  0
 46 45  1  0  0  0  0
 47 48  1  0  0  0  0
M  END
>  <minimizedAffinity>
-6.20437622

>  <minimizedRMSD>
2.24952197

$$$$
