
 OpenBabel03242523543D

 48 52  0  0  1  0  0  0  0  0999 V2000
   41.7470   33.2930   39.2320 C   0  0  1  0  0  0  0  0  0  0  0  0
   42.7940   34.3380   39.6010 C   0  0  1  0  0  0  0  0  0  0  0  0
   42.1300   35.5490   39.8760 O   0  0  0  0  0  0  0  0  0  0  0  0
   41.0250   35.7530   39.0500 C   0  0  0  0  0  0  0  0  0  0  0  0
   39.8980   34.7880   39.3650 C   0  0  2  0  0  0  0  0  0  0  0  0
   40.5580   33.5640   40.0960 C   0  0  1  0  0  0  0  0  0  0  0  0
   42.1050   32.2710   39.4790 H   0  0  0  0  0  0  0  0  0  0  0  0
   43.5660   34.4670   38.8410 H   0  0  0  0  0  0  0  0  0  0  0  0
   41.2800   35.7590   37.9710 H   0  0  0  0  0  0  0  0  0  0  0  0
   40.6670   36.7640   39.2830 H   0  0  0  0  0  0  0  0  0  0  0  0
   39.1160   35.2220   40.0120 H   0  0  0  0  0  0  0  0  0  0  0  0
   40.8330   34.1330   41.0410 H   0  0  0  0  0  0  0  0  0  0  0  0
   41.4070   33.3900   37.8760 O   0  0  0  0  0  0  0  0  0  0  0  0
   41.5500   32.5620   37.3740 H   0  0  0  0  0  0  0  0  0  0  0  0
   39.3860   34.2730   38.1820 O   0  0  0  0  0  0  0  0  0  0  0  0
   39.5930   34.8130   37.4020 H   0  0  0  0  0  0  0  0  0  0  0  0
   43.2880   33.9320   40.8550 O   0  0  0  0  0  0  0  0  0  0  0  0
   44.3320   34.4920   41.4760 C   0  0  0  0  0  0  0  0  0  0  0  0
   45.6430   34.2860   41.0230 C   0  0  0  0  0  0  0  0  0  0  0  0
   46.6840   34.8940   41.7080 C   0  0  0  0  0  0  0  0  0  0  0  0
   46.4020   35.6790   42.8100 N   0  0  0  0  0  0  0  0  0  0  0  0
   45.1240   35.8550   43.2200 C   0  0  0  0  0  0  0  0  0  0  0  0
   44.0960   35.2650   42.5570 N   0  0  0  0  0  0  0  0  0  0  0  0
   45.8650   33.6780   40.1700 H   0  0  0  0  0  0  0  0  0  0  0  0
   44.9050   36.4700   44.0810 H   0  0  0  0  0  0  0  0  0  0  0  0
   48.1080   34.7070   41.2990 C   0  0  0  0  0  0  0  0  0  0  0  0
   49.0300   35.9180   41.4500 C   0  0  0  0  0  0  0  0  0  0  0  0
   49.1530   34.6130   42.2650 C   0  0  0  0  0  0  0  0  0  0  0  0
   48.1890   34.1710   40.3180 H   0  0  0  0  0  0  0  0  0  0  0  0
   48.5970   36.8010   41.9410 H   0  0  0  0  0  0  0  0  0  0  0  0
   49.8070   36.0900   40.6840 H   0  0  0  0  0  0  0  0  0  0  0  0
   48.9780   34.7630   43.3500 H   0  0  0  0  0  0  0  0  0  0  0  0
   50.0870   34.0460   42.0740 H   0  0  0  0  0  0  0  0  0  0  0  0
   39.6300   32.5900   40.1730 O   0  0  0  0  0  0  0  0  0  0  0  0
   39.5330   31.5900   41.0790 C   0  0  0  0  0  0  0  0  0  0  0  0
   40.2140   31.6100   42.1970 O   0  0  0  0  0  0  0  0  0  0  0  0
   39.0720   29.6880   37.8540 C   0  0  0  0  0  0  0  0  0  0  0  0
   37.7930   29.3020   38.5320 C   0  0  0  0  0  2  0  0  0  0  0  0
   37.9030   29.6120   39.9190 N   0  0  0  0  0  0  0  0  0  0  0  0
   37.5270   30.1160   41.1920 C   0  0  0  0  0  0  0  0  0  0  0  0
   36.4540   30.3420   41.8230 O   0  0  0  0  0  0  0  0  0  0  0  0
   38.9630   30.2850   41.5230 C   0  0  1  0  0  3  0  0  0  0  0  0
   39.1370   29.1940   40.4970 C   0  0  2  0  0  3  0  0  0  0  0  0
   40.3200   29.6380   39.1700 S   0  0  0  0  0  0  0  0  0  0  0  0
   39.0390   30.9730   37.1040 C   0  0  0  0  0  2  0  0  0  0  0  0
   38.1010   31.5460   37.2460 H   0  0  0  0  0  0  0  0  0  0  0  0
   39.4120   28.5130   36.9270 C   0  0  0  0  0  2  0  0  0  0  0  0
   40.5200   28.4120   36.7970 H   0  0  0  0  0  0  0  0  0  0  0  0
  1  7  1  1  0  0  0
  1  2  1  0  0  0  0
  1  6  1  0  0  0  0
  2  8  1  6  0  0  0
  2  3  1  0  0  0  0
  2 17  1  0  0  0  0
  4 10  1  0  0  0  0
  4  5  1  0  0  0  0
  4  3  1  0  0  0  0
  5 11  1  1  0  0  0
  5  6  1  0  0  0  0
  6 34  1  0  0  0  0
  6 12  1  1  0  0  0
  9  4  1  0  0  0  0
 13  1  1  0  0  0  0
 14 13  1  0  0  0  0
 15  5  1  0  0  0  0
 16 15  1  0  0  0  0
 17 18  1  0  0  0  0
 18 23  1  0  0  0  0
 19 18  2  0  0  0  0
 19 20  1  0  0  0  0
 20 21  2  0  0  0  0
 21 22  1  0  0  0  0
 22 25  1  0  0  0  0
 23 22  2  0  0  0  0
 24 19  1  0  0  0  0
 26 27  1  0  0  0  0
 26 20  1  0  0  0  0
 26 28  1  0  0  0  0
 27 30  1  0  0  0  0
 27 28  1  0  0  0  0
 28 32  1  0  0  0  0
 29 26  1  0  0  0  0
 31 27  1  0  0  0  0
 33 28  1  0  0  0  0
 34 35  1  0  0  0  0
 35 36  2  0  0  0  0
 37 38  1  0  0  0  0
 37 44  1  0  0  0  0
 38 39  1  0  0  0  0
 39 43  1  0  0  0  0
 39 40  1  0  0  0  0
 40 42  1  0  0  0  0
 40 41  2  0  0  0  0
 42 35  1  6  0  0  0
 43 44  1  6  0  0  0
 43 42  1  0  0  0  0
 45 46  1  0  0  0  0
 45 37  1  0  0  0  0
 47 37  1  0  0  0  0
 48 47  1  0  0  0  0
M  END
>  <minimizedAffinity>
-6.46039581

>  <minimizedRMSD>
2.46680689

$$$$
