
 OpenBabel03252501403D

 48 53  0  0  1  0  0  0  0  0999 V2000
   44.7150   33.0900   42.3360 C   0  0  0  0  0  0  0  0  0  0  0  0
   44.2960   32.1650   43.1280 O   0  0  0  0  0  0  0  0  0  0  0  0
   45.5860   34.0110   42.9930 N   0  0  0  0  0  0  0  0  0  0  0  0
   46.0460   34.7880   42.5230 H   0  0  0  0  0  0  0  0  0  0  0  0
   45.6940   33.6560   44.3890 C   0  0  0  0  0  0  0  0  0  0  0  0
   45.1130   34.3030   45.4340 C   0  0  0  0  0  0  0  0  0  0  0  0
   45.3430   33.8020   46.6890 C   0  0  0  0  0  0  0  0  0  0  0  0
   46.1310   32.6990   46.7930 N   0  0  0  0  0  0  0  0  0  0  0  0
   46.6900   32.0820   45.7450 C   0  0  0  0  0  0  0  0  0  0  0  0
   46.4740   32.5640   44.4950 N   0  0  0  0  0  0  0  0  0  0  0  0
   44.8910   34.3000   47.5340 H   0  0  0  0  0  0  0  0  0  0  0  0
   44.3280   35.4300   45.1390 N   0  0  0  0  0  0  0  0  0  0  0  0
   43.4510   35.3800   45.6990 H   0  0  0  0  0  0  0  0  0  0  0  0
   44.5480   36.2020   44.4820 H   0  0  0  0  0  0  0  0  0  0  0  0
   47.5250   30.8880   46.0310 C   0  0  0  0  0  2  0  0  0  0  0  0
   46.6970   29.6390   45.8670 C   0  0  1  0  0  0  0  0  0  0  0  0
   45.3020   29.7670   46.3030 C   0  0  0  0  0  2  0  0  0  0  0  0
   44.4020   29.0610   45.5010 N   0  0  1  0  0  0  0  0  0  0  0  0
   43.1750   28.5790   45.0230 C   0  0  1  0  0  0  0  0  0  0  0  0
   42.0430   28.2010   45.4160 O   0  0  0  0  0  1  0  0  0  0  0  0
   43.7870   28.6910   43.6470 C   0  0  0  0  0  3  0  0  0  0  0  0
   43.8850   29.7350   43.3050 H   0  0  0  0  0  0  0  0  0  0  0  0
   44.9860   28.2790   44.4310 C   0  0  1  0  0  0  0  0  0  0  0  0
   46.5240   29.1830   44.1180 S   0  0  0  0  0  0  0  0  0  0  0  0
   47.3450   28.4740   46.5580 C   0  0  0  0  0  2  0  0  0  0  0  0
   47.0900   28.4050   47.6380 H   0  0  0  0  0  0  0  0  0  0  0  0
   44.4050   33.2470   40.9850 O   0  0  0  0  0  0  0  0  0  0  0  0
   42.5110   30.9930   40.5770 Cl  0  0  0  0  0  0  0  0  0  0  0  0
   42.1550   32.7060   40.4480 C   0  0  0  0  0  0  0  0  0  0  0  0
   43.1120   33.6970   40.6580 C   0  0  0  0  0  0  0  0  0  0  0  0
   42.7830   35.0130   40.5450 C   0  0  0  0  0  0  0  0  0  0  0  0
   41.5140   35.4510   40.2250 C   0  0  0  0  0  0  0  0  0  0  0  0
   40.5240   34.4690   40.0080 C   0  0  0  0  0  0  0  0  0  0  0  0
   38.8820   34.9300   39.5950 Cl  0  0  0  0  0  0  0  0  0  0  0  0
   40.8960   33.1440   40.1300 C   0  0  0  0  0  0  0  0  0  0  0  0
   43.5510   35.7550   40.7150 H   0  0  0  0  0  0  0  0  0  0  0  0
   41.2730   36.4990   40.1400 H   0  0  0  0  0  0  0  0  0  0  0  0
   39.3780   32.2650   42.2130 F   0  0  0  0  0  0  0  0  0  0  0  0
   39.1230   31.6970   40.9870 C   0  0  0  0  0  0  0  0  0  0  0  0
   39.8780   32.1220   39.9070 C   0  0  0  0  0  0  0  0  0  0  0  0
   39.5880   31.5210   38.6780 C   0  0  0  0  0  0  0  0  0  0  0  0
   38.5920   30.5620   38.6090 C   0  0  0  0  0  0  0  0  0  0  0  0
   37.8640   30.1760   39.7460 C   0  0  0  0  0  0  0  0  0  0  0  0
   38.1250   30.7530   40.9820 C   0  0  0  0  0  0  0  0  0  0  0  0
   40.1720   31.8510   37.8440 H   0  0  0  0  0  0  0  0  0  0  0  0
   38.4030   30.1230   37.6340 H   0  0  0  0  0  0  0  0  0  0  0  0
   37.0880   29.4210   39.6620 H   0  0  0  0  0  0  0  0  0  0  0  0
   37.5870   30.4780   41.8550 H   0  0  0  0  0  0  0  0  0  0  0  0
  1  3  1  0  0  0  0
  1  2  2  0  0  0  0
  3  5  1  0  0  0  0
  4  3  1  0  0  0  0
  5 10  2  0  0  0  0
  5  6  1  0  0  0  0
  6  7  2  0  0  0  0
  7  8  1  0  0  0  0
  7 11  1  0  0  0  0
  9 15  1  0  0  0  0
  9  8  2  0  0  0  0
 10  9  1  0  0  0  0
 12  6  1  0  0  0  0
 12 13  1  0  0  0  0
 14 12  1  0  0  0  0
 16 15  1  1  0  0  0
 16 17  1  0  0  0  0
 16 25  1  0  0  0  0
 18 17  1  6  0  0  0
 19 20  1  1  0  0  0
 19 18  1  0  0  0  0
 21 19  1  0  0  0  0
 22 21  1  0  0  0  0
 23 21  1  6  0  0  0
 23 19  1  0  0  0  0
 23 18  1  0  0  0  0
 24 23  1  0  0  0  0
 24 16  1  0  0  0  0
 25 26  1  0  0  0  0
 27  1  1  0  0  0  0
 29 28  1  0  0  0  0
 29 30  1  0  0  0  0
 30 27  1  0  0  0  0
 31 30  2  0  0  0  0
 31 36  1  0  0  0  0
 32 31  1  0  0  0  0
 33 35  1  0  0  0  0
 33 32  2  0  0  0  0
 34 33  1  0  0  0  0
 35 29  2  0  0  0  0
 37 32  1  0  0  0  0
 39 38  1  0  0  0  0
 40 35  1  0  0  0  0
 40 39  2  0  0  0  0
 41 40  1  0  0  0  0
 42 41  2  0  0  0  0
 42 43  1  0  0  0  0
 43 44  2  0  0  0  0
 44 39  1  0  0  0  0
 44 48  1  0  0  0  0
 45 41  1  0  0  0  0
 46 42  1  0  0  0  0
 47 43  1  0  0  0  0
M  END
>  <minimizedAffinity>
-6.413589

>  <minimizedRMSD>
2.36378694

$$$$
