
 OpenBabel03242512043D

 23 26  0  0  1  0  0  0  0  0999 V2000
   42.9400   33.3980   39.2690 C   0  0  0  0  0  0  0  0  0  0  0  0
   44.1740   32.7630   38.7540 C   0  0  0  0  0  0  0  0  0  0  0  0
   45.3060   33.2140   39.4810 N   0  0  1  0  0  0  0  0  0  0  0  0
   46.5900   33.7030   39.8540 C   0  0  1  0  0  0  0  0  0  0  0  0
   47.7470   33.5320   39.3430 O   0  0  0  0  0  0  0  0  0  0  0  0
   45.9350   34.4010   40.9800 C   0  0  1  0  0  0  0  0  0  0  0  0
   45.0220   33.1840   40.8760 C   0  0  1  0  0  0  0  0  0  0  0  0
   43.2810   33.5240   41.0690 S   0  0  0  0  0  0  0  0  0  0  0  0
   46.6470   34.3720   42.2810 C   0  0  0  0  0  0  0  0  0  0  0  0
   47.8880   34.1320   42.3690 O   0  0  0  0  0  0  0  0  0  0  0  0
   45.1260   35.7460   43.6510 C   0  0  0  0  0  0  0  0  0  0  0  0
   45.9500   34.6170   43.5200 C   0  0  0  0  0  0  0  0  0  0  0  0
   46.0790   33.7440   44.6060 C   0  0  0  0  0  0  0  0  0  0  0  0
   45.3940   34.0410   45.7360 N   0  0  0  0  0  0  0  0  0  0  0  0
   44.6070   35.1360   45.8340 C   0  0  0  0  0  0  0  0  0  0  0  0
   44.4760   35.9810   44.7960 N   0  0  0  0  0  0  0  0  0  0  0  0
   45.0020   36.4370   42.8400 H   0  0  0  0  0  0  0  0  0  0  0  0
   46.7140   32.8780   44.5000 H   0  0  0  0  0  0  0  0  0  0  0  0
   44.1660   35.1630   46.8240 H   0  0  0  0  0  0  0  0  0  0  0  0
   41.7000   32.5120   39.1740 C   0  0  0  0  0  0  0  0  0  0  0  0
   40.8230   33.1920   39.3570 H   0  0  0  0  0  0  0  0  0  0  0  0
   42.6530   34.7790   38.7760 C   0  0  0  0  0  0  0  0  0  0  0  0
   41.5450   34.9530   38.9080 H   0  0  0  0  0  0  0  0  0  0  0  0
  1  8  1  0  0  0  0
  2  1  1  0  0  0  0
  3  2  1  6  0  0  0
  3  4  1  0  0  0  0
  3  7  1  0  0  0  0
  4  5  1  6  0  0  0
  4  7  1  0  0  0  0
  4  6  1  0  0  0  0
  6  9  1  1  0  0  0
  7  6  1  0  0  0  0
  7  8  1  1  0  0  0
  9 10  2  0  0  0  0
  9 12  1  0  0  0  0
 11 16  1  0  0  0  0
 12 11  2  0  0  0  0
 12 13  1  0  0  0  0
 13 14  2  0  0  0  0
 14 15  1  0  0  0  0
 15 19  1  0  0  0  0
 16 15  2  0  0  0  0
 17 11  1  0  0  0  0
 18 13  1  0  0  0  0
 20  1  1  0  0  0  0
 20 21  1  0  0  0  0
 22 23  1  0  0  0  0
 22  1  1  0  0  0  0
M  END
>  <minimizedAffinity>
-4.5159688

>  <minimizedRMSD>
1.63180923

$$$$
