
 OpenBabel03252508513D

 31 34  0  0  1  0  0  0  0  0999 V2000
   45.8920   34.0750   41.0440 C   0  0  0  0  0  0  0  0  0  0  0  0
   46.4910   34.7570   42.1020 C   0  0  0  0  0  0  0  0  0  0  0  0
   47.8180   35.1630   41.9310 C   0  0  0  0  0  0  0  0  0  0  0  0
   48.4360   34.8690   40.7530 N   0  0  0  0  0  0  0  0  0  0  0  0
   47.8240   34.2120   39.7610 C   0  0  0  0  0  0  0  0  0  0  0  0
   46.5430   33.8140   39.9110 N   0  0  0  0  0  0  0  0  0  0  0  0
   48.2780   35.6840   42.7370 H   0  0  0  0  0  0  0  0  0  0  0  0
   48.2980   33.9700   38.8180 H   0  0  0  0  0  0  0  0  0  0  0  0
   45.7280   35.0170   43.3240 C   0  0  0  0  0  0  0  0  0  0  0  0
   45.0220   36.1930   43.5320 C   0  0  0  0  0  0  0  0  0  0  0  0
   44.4680   36.0140   44.7830 C   0  0  0  0  0  0  0  0  0  0  0  0
   44.8150   34.8110   45.3000 N   0  0  0  0  0  0  0  0  0  0  0  0
   45.5750   34.2320   44.3980 N   0  0  0  0  0  0  0  0  0  0  0  0
   44.9050   37.0730   42.8880 H   0  0  0  0  0  0  0  0  0  0  0  0
   43.8330   36.7300   45.3070 H   0  0  0  0  0  0  0  0  0  0  0  0
   44.5070   34.4670   46.2390 H   0  0  0  0  0  0  0  0  0  0  0  0
   44.5860   33.6680   41.1940 O   0  0  0  0  0  0  0  0  0  0  0  0
   43.4760   34.2410   40.6410 C   0  0  0  0  0  0  0  0  0  0  0  0
   43.3460   35.4340   40.2130 O   0  0  0  0  0  0  0  0  0  0  0  0
   39.4750   31.0500   40.3740 C   0  0  0  0  0  0  0  0  0  0  0  0
   39.5600   31.8420   41.6620 C   0  0  0  0  0  2  0  0  0  0  0  0
   40.4860   32.9360   41.4240 N   0  0  0  0  0  0  0  0  0  0  0  0
   41.0770   34.2470   41.3030 C   0  0  0  0  0  0  0  0  0  0  0  0
   40.7180   35.3250   41.8870 O   0  0  0  0  0  0  0  0  0  0  0  0
   42.0860   33.7290   40.3450 C   0  0  2  0  0  3  0  0  0  0  0  0
   41.7730   32.4190   40.9930 C   0  0  2  0  0  3  0  0  0  0  0  0
   41.2270   31.1190   39.8320 S   0  0  0  0  0  0  0  0  0  0  0  0
   39.0680   29.6210   40.6550 C   0  0  0  0  0  2  0  0  0  0  0  0
   38.3710   29.5680   41.5170 H   0  0  0  0  0  0  0  0  0  0  0  0
   38.5450   31.6500   39.3650 C   0  0  0  0  0  2  0  0  0  0  0  0
   38.9800   32.4770   38.7700 H   0  0  0  0  0  0  0  0  0  0  0  0
  1 17  1  0  0  0  0
  1  2  1  0  0  0  0
  2  9  1  0  0  0  0
  3  2  2  0  0  0  0
  3  7  1  0  0  0  0
  4  3  1  0  0  0  0
  5  6  1  0  0  0  0
  5  4  2  0  0  0  0
  6  1  2  0  0  0  0
  8  5  1  0  0  0  0
  9 10  1  0  0  0  0
  9 13  2  0  0  0  0
 10 11  2  0  0  0  0
 11 12  1  0  0  0  0
 11 15  1  0  0  0  0
 12 16  1  0  0  0  0
 13 12  1  0  0  0  0
 14 10  1  0  0  0  0
 18 17  1  0  0  0  0
 19 18  2  0  0  0  0
 20 28  1  0  0  0  0
 20 21  1  0  0  0  0
 22 21  1  0  0  0  0
 23 22  1  0  0  0  0
 23 24  2  0  0  0  0
 25 18  1  1  0  0  0
 25 26  1  0  0  0  0
 25 23  1  0  0  0  0
 26 27  1  6  0  0  0
 26 22  1  0  0  0  0
 27 20  1  0  0  0  0
 28 29  1  0  0  0  0
 30 20  1  0  0  0  0
 31 30  1  0  0  0  0
M  END
>  <minimizedAffinity>
-6.00081444

>  <minimizedRMSD>
2.15633559

$$$$
