
 OpenBabel03242518553D

 45 48  0  0  1  0  0  0  0  0999 V2000
   45.6750   31.1250   46.5000 C   0  0  2  0  0  0  0  0  0  0  0  0
   45.8060   30.2790   47.7260 C   0  0  0  0  0  0  0  0  0  0  0  0
   45.0230   29.0360   47.4810 C   0  0  0  0  0  0  0  0  0  0  0  0
   44.2740   28.9830   46.1960 C   0  0  0  0  0  0  0  0  0  0  0  0
   45.2000   29.2270   45.0370 C   0  0  0  0  0  0  0  0  0  0  0  0
   46.1270   30.3180   45.2990 C   0  0  2  0  0  0  0  0  0  0  0  0
   44.6000   31.3190   46.3070 H   0  0  0  0  0  0  0  0  0  0  0  0
   46.8350   30.0790   48.0450 H   0  0  0  0  0  0  0  0  0  0  0  0
   45.3700   30.8890   48.5790 H   0  0  0  0  0  0  0  0  0  0  0  0
   45.6000   28.0840   47.6170 H   0  0  0  0  0  0  0  0  0  0  0  0
   44.2410   28.9690   48.2920 H   0  0  0  0  0  0  0  0  0  0  0  0
   43.8520   27.9520   46.1180 H   0  0  0  0  0  0  0  0  0  0  0  0
   43.3790   29.6600   46.1870 H   0  0  0  0  0  0  0  0  0  0  0  0
   45.6070   28.2460   44.7310 H   0  0  0  0  0  0  0  0  0  0  0  0
   44.5310   29.5250   44.1770 H   0  0  0  0  0  0  0  0  0  0  0  0
   46.2300   30.9970   44.4500 H   0  0  0  0  0  0  0  0  0  0  0  0
   47.4460   29.6800   45.5700 C   0  0  0  0  0  0  0  0  0  0  0  0
   47.4940   28.5940   45.3680 H   0  0  0  0  0  0  0  0  0  0  0  0
   47.6670   29.8290   46.6510 H   0  0  0  0  0  0  0  0  0  0  0  0
   49.2300   31.6080   41.1410 C   0  0  0  0  0  0  0  0  0  0  0  0
   48.8980   30.1500   41.3440 C   0  0  0  0  0  2  0  0  0  0  0  0
   49.0510   29.8450   42.7490 N   0  0  0  0  0  0  0  0  0  0  0  0
   49.4090   29.3580   44.0390 C   0  0  0  0  0  0  0  0  0  0  0  0
   50.1840   28.3980   44.3620 O   0  0  0  0  0  0  0  0  0  0  0  0
   48.5860   30.3360   44.7880 C   0  0  1  0  0  3  0  0  0  0  0  0
   48.0690   30.7050   43.4190 C   0  0  1  0  0  3  0  0  0  0  0  0
   48.7200   32.2960   42.7670 S   0  0  0  0  0  0  0  0  0  0  0  0
   48.3230   32.2530   40.1130 C   0  0  0  0  0  2  0  0  0  0  0  0
   48.1650   31.6260   39.2130 H   0  0  0  0  0  0  0  0  0  0  0  0
   50.6810   31.8480   40.8540 C   0  0  0  0  0  2  0  0  0  0  0  0
   51.0790   30.9120   40.3640 H   0  0  0  0  0  0  0  0  0  0  0  0
   46.3510   32.4430   46.5930 C   0  0  0  0  0  0  0  0  0  0  0  0
   47.3700   32.6360   47.3030 O   0  0  0  0  0  0  0  0  0  0  0  0
   44.4430   35.4210   45.6830 C   0  0  0  0  0  0  0  0  0  0  0  0
   44.6920   35.5860   44.2980 C   0  0  0  0  0  0  0  0  0  0  0  0
   45.5280   34.6530   43.7100 C   0  0  0  0  0  0  0  0  0  0  0  0
   45.9990   33.7070   44.5240 N   0  0  0  0  0  0  0  0  0  0  0  0
   45.7740   33.5450   45.8110 C   0  0  0  0  0  0  0  0  0  0  0  0
   44.9670   34.4360   46.4080 N   0  0  0  0  0  0  0  0  0  0  0  0
   43.7850   36.1400   46.1890 H   0  0  0  0  0  0  0  0  0  0  0  0
   44.2330   36.4100   43.7740 H   0  0  0  0  0  0  0  0  0  0  0  0
   45.7830   34.8120   42.2870 C   0  0  0  0  0  0  0  0  0  0  0  0
   45.7500   33.5690   41.6650 F   0  0  0  0  0  0  0  0  0  0  0  0
   47.0300   35.3330   42.1660 F   0  0  0  0  0  0  0  0  0  0  0  0
   44.8050   35.5700   41.6550 F   0  0  0  0  0  0  0  0  0  0  0  0
  1  7  1  6  0  0  0
  1 32  1  0  0  0  0
  1  2  1  0  0  0  0
  2  8  1  0  0  0  0
  2  9  1  0  0  0  0
  3 10  1  0  0  0  0
  3  2  1  0  0  0  0
  3 11  1  0  0  0  0
  4  3  1  0  0  0  0
  5  6  1  0  0  0  0
  5  4  1  0  0  0  0
  6 16  1  6  0  0  0
  6 17  1  0  0  0  0
  6  1  1  0  0  0  0
 12  4  1  0  0  0  0
 13  4  1  0  0  0  0
 14  5  1  0  0  0  0
 15  5  1  0  0  0  0
 17 19  1  0  0  0  0
 18 17  1  0  0  0  0
 20 21  1  0  0  0  0
 20 27  1  0  0  0  0
 21 22  1  0  0  0  0
 22 26  1  0  0  0  0
 22 23  1  0  0  0  0
 23 24  2  0  0  0  0
 23 25  1  0  0  0  0
 25 17  1  1  0  0  0
 26 27  1  6  0  0  0
 26 25  1  0  0  0  0
 28 20  1  0  0  0  0
 29 28  1  0  0  0  0
 30 20  1  0  0  0  0
 31 30  1  0  0  0  0
 32 33  2  0  0  0  0
 34 40  1  0  0  0  0
 34 39  1  0  0  0  0
 35 34  2  0  0  0  0
 36 35  1  0  0  0  0
 36 37  2  0  0  0  0
 37 38  1  0  0  0  0
 38 39  2  0  0  0  0
 38 32  1  0  0  0  0
 41 35  1  0  0  0  0
 42 36  1  0  0  0  0
 43 42  1  0  0  0  0
 44 42  1  0  0  0  0
 45 42  1  0  0  0  0
M  END
>  <minimizedAffinity>
-5.35292864

>  <minimizedRMSD>
3.19465566

$$$$
