
 OpenBabel03252502463D

 48 52  0  0  1  0  0  0  0  0999 V2000
   47.4250   35.2630   41.9650 C   0  0  0  0  0  0  0  0  0  0  0  0
   47.5400   35.9000   42.8730 H   0  0  0  0  0  0  0  0  0  0  0  0
   46.9720   35.9400   41.1890 H   0  0  0  0  0  0  0  0  0  0  0  0
   48.7600   34.7280   41.5720 C   0  0  1  0  0  0  0  0  0  0  0  0
   49.9240   35.0090   42.4720 C   0  0  0  0  0  0  0  0  0  0  0  0
   49.3110   33.6470   42.3680 C   0  0  2  0  0  0  0  0  0  0  0  0
   48.9740   34.8270   40.5080 H   0  0  0  0  0  0  0  0  0  0  0  0
   49.6900   35.6410   43.3720 H   0  0  0  0  0  0  0  0  0  0  0  0
   50.9150   35.2340   42.0480 H   0  0  0  0  0  0  0  0  0  0  0  0
   48.9270   33.2740   43.3070 H   0  0  0  0  0  0  0  0  0  0  0  0
   50.1410   32.7200   41.5970 N   0  0  0  0  0  0  0  0  0  0  0  0
   49.5680   32.2890   40.3870 C   0  0  0  0  0  0  0  0  0  0  0  0
   50.5640   31.3240   39.7730 C   0  0  0  0  0  0  0  0  0  0  0  0
   50.7610   30.1730   40.5790 N   0  0  0  0  0  0  0  0  0  0  0  0
   50.5350   30.3940   41.9940 C   0  0  0  0  0  0  0  0  0  0  0  0
   50.9280   31.8340   42.3510 C   0  0  0  0  0  0  0  0  0  0  0  0
   48.5990   31.7490   40.4970 H   0  0  0  0  0  0  0  0  0  0  0  0
   49.4960   33.1500   39.6840 H   0  0  0  0  0  0  0  0  0  0  0  0
   50.1670   31.0560   38.7720 H   0  0  0  0  0  0  0  0  0  0  0  0
   51.5390   31.8610   39.5870 H   0  0  0  0  0  0  0  0  0  0  0  0
   51.6530   29.6820   40.3650 H   0  0  0  0  0  0  0  0  0  0  0  0
   51.1320   29.6460   42.5470 H   0  0  0  0  0  0  0  0  0  0  0  0
   49.4470   30.3220   42.2050 H   0  0  0  0  0  0  0  0  0  0  0  0
   52.0080   31.9930   42.0720 H   0  0  0  0  0  0  0  0  0  0  0  0
   50.8340   32.0030   43.4250 H   0  0  0  0  0  0  0  0  0  0  0  0
   46.5550   34.0790   42.2890 C   0  0  0  0  0  0  0  0  0  0  0  0
   46.9910   33.1010   42.1570 H   0  0  0  0  0  0  0  0  0  0  0  0
   45.6980   34.1220   41.5500 H   0  0  0  0  0  0  0  0  0  0  0  0
   44.5330   35.6180   45.0450 C   0  0  0  0  0  0  0  0  0  0  0  0
   45.1220   35.4160   43.7650 C   0  0  0  0  0  0  0  0  0  0  0  0
   45.9180   34.3100   43.6190 C   0  0  0  0  0  0  0  0  0  0  0  0
   46.1080   33.4740   44.6770 N   0  0  0  0  0  0  0  0  0  0  0  0
   45.5570   33.6770   45.8500 C   0  0  0  0  0  0  0  0  0  0  0  0
   44.7650   34.7510   46.0450 N   0  0  0  0  0  0  0  0  0  0  0  0
   43.9010   36.4970   45.1610 H   0  0  0  0  0  0  0  0  0  0  0  0
   44.8960   36.1510   43.0020 H   0  0  0  0  0  0  0  0  0  0  0  0
   45.7100   32.8160   47.0380 C   0  0  0  0  0  2  0  0  0  0  0  0
   46.2990   31.4860   46.7790 C   0  0  1  0  0  0  0  0  0  0  0  0
   46.1690   30.6520   48.0650 C   0  0  0  0  0  2  0  0  0  0  0  0
   46.3870   29.2650   47.6350 N   0  0  0  0  0  0  0  0  0  0  0  0
   46.7180   27.9040   47.2680 C   0  0  0  0  0  0  0  0  0  0  0  0
   47.7420   27.3370   47.7310 O   0  0  0  0  0  0  0  0  0  0  0  0
   45.5630   27.7220   46.3870 C   0  0  0  0  0  3  0  0  0  0  0  0
   45.7880   27.6890   45.3010 H   0  0  0  0  0  0  0  0  0  0  0  0
   45.1060   29.0320   46.9290 C   0  0  2  0  0  3  0  0  0  0  0  0
   45.2450   30.4150   45.7140 S   0  0  0  0  0  0  0  0  0  0  0  0
   47.7070   31.4620   46.3300 C   0  0  0  0  0  2  0  0  0  0  0  0
   47.8530   30.8600   45.3840 H   0  0  0  0  0  0  0  0  0  0  0  0
  1 26  1  0  0  0  0
  1  2  1  0  0  0  0
  3  1  1  0  0  0  0
  4  7  1  6  0  0  0
  4  1  1  0  0  0  0
  4  6  1  0  0  0  0
  4  5  1  0  0  0  0
  5  8  1  0  0  0  0
  6  5  1  0  0  0  0
  6 10  1  1  0  0  0
  9  5  1  0  0  0  0
 11 16  1  0  0  0  0
 11  6  1  0  0  0  0
 12 17  1  0  0  0  0
 12 11  1  0  0  0  0
 13 12  1  0  0  0  0
 13 14  1  0  0  0  0
 14 15  1  0  0  0  0
 15 23  1  0  0  0  0
 15 16  1  0  0  0  0
 15 22  1  0  0  0  0
 16 25  1  0  0  0  0
 18 12  1  0  0  0  0
 19 13  1  0  0  0  0
 20 13  1  0  0  0  0
 21 14  1  0  0  0  0
 24 16  1  0  0  0  0
 26 31  1  0  0  0  0
 27 26  1  0  0  0  0
 28 26  1  0  0  0  0
 29 35  1  0  0  0  0
 29 34  1  0  0  0  0
 30 29  2  0  0  0  0
 31 30  1  0  0  0  0
 31 32  2  0  0  0  0
 32 33  1  0  0  0  0
 33 34  2  0  0  0  0
 33 37  1  0  0  0  0
 36 30  1  0  0  0  0
 38 47  1  6  0  0  0
 38 37  1  0  0  0  0
 38 39  1  0  0  0  0
 40 39  1  0  0  0  0
 41 40  1  0  0  0  0
 41 42  2  0  0  0  0
 43 45  1  0  0  0  0
 43 41  1  0  0  0  0
 44 43  1  0  0  0  0
 45 46  1  6  0  0  0
 45 40  1  0  0  0  0
 46 38  1  0  0  0  0
 48 47  1  0  0  0  0
M  END
>  <minimizedAffinity>
-5.26897717

>  <minimizedRMSD>
0.353133053

$$$$
