
 OpenBabel03242518553D

 45 48  0  0  1  0  0  0  0  0999 V2000
   45.8310   31.2700   46.5650 C   0  0  2  0  0  0  0  0  0  0  0  0
   45.8820   30.5050   47.8480 C   0  0  0  0  0  0  0  0  0  0  0  0
   45.1510   29.2260   47.6200 C   0  0  0  0  0  0  0  0  0  0  0  0
   44.5120   29.0730   46.2850 C   0  0  0  0  0  0  0  0  0  0  0  0
   45.5240   29.2730   45.1910 C   0  0  0  0  0  0  0  0  0  0  0  0
   46.3990   30.4050   45.4570 C   0  0  2  0  0  0  0  0  0  0  0  0
   44.7710   31.4200   46.2740 H   0  0  0  0  0  0  0  0  0  0  0  0
   46.8850   30.3540   48.2600 H   0  0  0  0  0  0  0  0  0  0  0  0
   45.3630   31.1520   48.6230 H   0  0  0  0  0  0  0  0  0  0  0  0
   45.7380   28.3020   47.8610 H   0  0  0  0  0  0  0  0  0  0  0  0
   44.3080   29.1860   48.3680 H   0  0  0  0  0  0  0  0  0  0  0  0
   44.1230   28.0270   46.2390 H   0  0  0  0  0  0  0  0  0  0  0  0
   43.6040   29.7220   46.1620 H   0  0  0  0  0  0  0  0  0  0  0  0
   45.9780   28.2880   44.9810 H   0  0  0  0  0  0  0  0  0  0  0  0
   44.9200   29.4980   44.2630 H   0  0  0  0  0  0  0  0  0  0  0  0
   46.5550   31.0340   44.5780 H   0  0  0  0  0  0  0  0  0  0  0  0
   47.7070   29.8240   45.8730 C   0  0  0  0  0  0  0  0  0  0  0  0
   47.6540   29.0920   46.7010 H   0  0  0  0  0  0  0  0  0  0  0  0
   48.3490   30.6670   46.2130 H   0  0  0  0  0  0  0  0  0  0  0  0
   52.0950   28.0080   43.8810 C   0  0  0  0  0  0  0  0  0  0  0  0
   51.8430   29.4720   44.1540 C   0  0  0  0  0  2  0  0  0  0  0  0
   50.4160   29.7040   44.0840 N   0  0  0  0  0  0  0  0  0  0  0  0
   49.0840   30.1120   43.7930 C   0  0  0  0  0  0  0  0  0  0  0  0
   48.6620   31.0120   42.9950 O   0  0  0  0  0  0  0  0  0  0  0  0
   48.4400   29.1440   44.7150 C   0  0  1  0  0  3  0  0  0  0  0  0
   49.8580   28.8670   45.1530 C   0  0  1  0  0  3  0  0  0  0  0  0
   50.5420   27.2750   44.5380 S   0  0  0  0  0  0  0  0  0  0  0  0
   53.2110   27.4600   44.7450 C   0  0  0  0  0  2  0  0  0  0  0  0
   54.0880   28.1350   44.8080 H   0  0  0  0  0  0  0  0  0  0  0  0
   52.2940   27.7050   42.4270 C   0  0  0  0  0  2  0  0  0  0  0  0
   52.7100   28.6400   41.9500 H   0  0  0  0  0  0  0  0  0  0  0  0
   46.4650   32.6100   46.6290 C   0  0  0  0  0  0  0  0  0  0  0  0
   47.3660   32.8980   47.4560 O   0  0  0  0  0  0  0  0  0  0  0  0
   44.5880   35.3670   45.1400 C   0  0  0  0  0  0  0  0  0  0  0  0
   45.1140   35.4810   43.8300 C   0  0  0  0  0  0  0  0  0  0  0  0
   46.1200   34.5920   43.4930 C   0  0  0  0  0  0  0  0  0  0  0  0
   46.4730   33.7320   44.4500 N   0  0  0  0  0  0  0  0  0  0  0  0
   45.9910   33.6180   45.6700 C   0  0  0  0  0  0  0  0  0  0  0  0
   45.0150   34.4680   46.0240 N   0  0  0  0  0  0  0  0  0  0  0  0
   43.7890   36.0530   45.4480 H   0  0  0  0  0  0  0  0  0  0  0  0
   44.7200   36.2350   43.1660 H   0  0  0  0  0  0  0  0  0  0  0  0
   46.6610   34.6970   42.1470 C   0  0  0  0  0  0  0  0  0  0  0  0
   47.3430   33.5300   41.8250 F   0  0  0  0  0  0  0  0  0  0  0  0
   47.5370   35.7330   42.1540 F   0  0  0  0  0  0  0  0  0  0  0  0
   45.6650   34.8240   41.1860 F   0  0  0  0  0  0  0  0  0  0  0  0
  1  7  1  6  0  0  0
  1 32  1  0  0  0  0
  1  2  1  0  0  0  0
  2  8  1  0  0  0  0
  2  9  1  0  0  0  0
  3  2  1  0  0  0  0
  3 10  1  0  0  0  0
  3 11  1  0  0  0  0
  4  3  1  0  0  0  0
  5  6  1  0  0  0  0
  5  4  1  0  0  0  0
  6 16  1  6  0  0  0
  6 17  1  0  0  0  0
  6  1  1  0  0  0  0
 12  4  1  0  0  0  0
 13  4  1  0  0  0  0
 14  5  1  0  0  0  0
 15  5  1  0  0  0  0
 17 19  1  0  0  0  0
 17 18  1  0  0  0  0
 20 21  1  0  0  0  0
 20 27  1  0  0  0  0
 20 28  1  0  0  0  0
 22 21  1  0  0  0  0
 22 26  1  0  0  0  0
 23 22  1  0  0  0  0
 23 25  1  0  0  0  0
 24 23  2  0  0  0  0
 25 26  1  0  0  0  0
 25 17  1  1  0  0  0
 26 27  1  6  0  0  0
 28 29  1  0  0  0  0
 30 20  1  0  0  0  0
 31 30  1  0  0  0  0
 32 33  2  0  0  0  0
 34 40  1  0  0  0  0
 34 39  1  0  0  0  0
 35 34  2  0  0  0  0
 36 35  1  0  0  0  0
 36 37  2  0  0  0  0
 37 38  1  0  0  0  0
 38 39  2  0  0  0  0
 38 32  1  0  0  0  0
 41 35  1  0  0  0  0
 42 44  1  0  0  0  0
 42 36  1  0  0  0  0
 43 42  1  0  0  0  0
 45 42  1  0  0  0  0
M  END
>  <minimizedAffinity>
-5.40251732

>  <minimizedRMSD>
0.62601012

$$$$
