
 OpenBabel03252508523D

 31 34  0  0  1  0  0  0  0  0999 V2000
   36.3790   29.8140   40.3400 C   0  0  0  0  0  0  0  0  0  0  0  0
   36.9910   30.6350   39.3940 C   0  0  0  0  0  0  0  0  0  0  0  0
   36.5820   30.4940   38.0650 C   0  0  0  0  0  0  0  0  0  0  0  0
   35.6210   29.5720   37.7790 N   0  0  0  0  0  0  0  0  0  0  0  0
   35.0580   28.8020   38.7190 C   0  0  0  0  0  0  0  0  0  0  0  0
   35.4420   28.9280   40.0070 N   0  0  0  0  0  0  0  0  0  0  0  0
   37.0480   31.1190   37.3410 H   0  0  0  0  0  0  0  0  0  0  0  0
   34.2920   28.0650   38.5120 H   0  0  0  0  0  0  0  0  0  0  0  0
   38.0150   31.5920   39.8160 C   0  0  0  0  0  0  0  0  0  0  0  0
   37.7400   32.9320   40.0500 C   0  0  0  0  0  0  0  0  0  0  0  0
   38.9650   33.4480   40.4190 C   0  0  0  0  0  0  0  0  0  0  0  0
   39.9210   32.4870   40.4100 N   0  0  0  0  0  0  0  0  0  0  0  0
   39.3180   31.3780   40.0430 N   0  0  0  0  0  0  0  0  0  0  0  0
   36.7980   33.4860   39.9730 H   0  0  0  0  0  0  0  0  0  0  0  0
   39.1650   34.4870   40.6860 H   0  0  0  0  0  0  0  0  0  0  0  0
   40.9230   32.6550   40.6560 H   0  0  0  0  0  0  0  0  0  0  0  0
   36.7680   29.9390   41.6530 O   0  0  0  0  0  0  0  0  0  0  0  0
   37.4390   29.0160   42.4050 C   0  0  0  0  0  0  0  0  0  0  0  0
   37.3570   28.8260   43.6610 O   0  0  0  0  0  0  0  0  0  0  0  0
   41.5530   25.9870   42.8080 C   0  0  0  0  0  0  0  0  0  0  0  0
   40.3030   25.4380   43.4640 C   0  0  0  0  0  2  0  0  0  0  0  0
   39.1840   26.2010   42.9420 N   0  0  0  0  0  0  0  0  0  0  0  0
   37.9410   26.5800   42.3140 C   0  0  0  0  0  0  0  0  0  0  0  0
   36.9020   25.8580   42.1330 O   0  0  0  0  0  0  0  0  0  0  0  0
   38.4560   27.9500   42.0690 C   0  0  2  0  0  3  0  0  0  0  0  0
   39.3790   27.6170   43.1970 C   0  0  2  0  0  3  0  0  0  0  0  0
   41.1510   27.7780   42.7900 S   0  0  0  0  0  0  0  0  0  0  0  0
   42.7650   25.7300   43.6750 C   0  0  0  0  0  2  0  0  0  0  0  0
   42.6680   24.7700   44.2220 H   0  0  0  0  0  0  0  0  0  0  0  0
   41.7930   25.4440   41.4330 C   0  0  0  0  0  2  0  0  0  0  0  0
   41.2120   25.9430   40.6330 H   0  0  0  0  0  0  0  0  0  0  0  0
  1 17  1  0  0  0  0
  2  9  1  0  0  0  0
  2  1  2  0  0  0  0
  3  2  1  0  0  0  0
  4  3  2  0  0  0  0
  4  5  1  0  0  0  0
  5  6  2  0  0  0  0
  6  1  1  0  0  0  0
  7  3  1  0  0  0  0
  8  5  1  0  0  0  0
  9 13  2  0  0  0  0
  9 10  1  0  0  0  0
 10 11  2  0  0  0  0
 11 15  1  0  0  0  0
 12 11  1  0  0  0  0
 12 16  1  0  0  0  0
 13 12  1  0  0  0  0
 14 10  1  0  0  0  0
 17 18  1  0  0  0  0
 18 19  2  0  0  0  0
 20 21  1  0  0  0  0
 20 28  1  0  0  0  0
 22 26  1  0  0  0  0
 22 21  1  0  0  0  0
 23 22  1  0  0  0  0
 24 23  2  0  0  0  0
 25 23  1  0  0  0  0
 25 18  1  1  0  0  0
 25 26  1  0  0  0  0
 26 27  1  6  0  0  0
 27 20  1  0  0  0  0
 28 29  1  0  0  0  0
 30 20  1  0  0  0  0
 31 30  1  0  0  0  0
M  END
>  <minimizedAffinity>
-5.38633299

$$$$

 OpenBabel03252508523D

 31 34  0  0  1  0  0  0  0  0999 V2000
   41.1900   32.2630   40.8870 C   0  0  0  0  0  0  0  0  0  0  0  0
   40.5960   32.9170   39.8090 C   0  0  0  0  0  0  0  0  0  0  0  0
   41.4480   33.5440   38.8940 C   0  0  0  0  0  0  0  0  0  0  0  0
   42.7910   33.4780   39.1120 N   0  0  0  0  0  0  0  0  0  0  0  0
   43.3210   32.8390   40.1620 C   0  0  0  0  0  0  0  0  0  0  0  0
   42.5110   32.2280   41.0530 N   0  0  0  0  0  0  0  0  0  0  0  0
   40.9970   34.0440   38.0700 H   0  0  0  0  0  0  0  0  0  0  0  0
   44.3850   32.7740   40.3510 H   0  0  0  0  0  0  0  0  0  0  0  0
   39.1390   32.9240   39.6760 C   0  0  0  0  0  0  0  0  0  0  0  0
   38.4650   32.1390   38.7500 C   0  0  0  0  0  0  0  0  0  0  0  0
   37.1410   32.4550   38.9690 C   0  0  0  0  0  0  0  0  0  0  0  0
   37.0160   33.3700   39.9610 N   0  0  0  0  0  0  0  0  0  0  0  0
   38.2390   33.6340   40.3680 N   0  0  0  0  0  0  0  0  0  0  0  0
   38.8510   31.4290   38.0090 H   0  0  0  0  0  0  0  0  0  0  0  0
   36.2880   32.0390   38.4300 H   0  0  0  0  0  0  0  0  0  0  0  0
   36.1020   33.7540   40.2930 H   0  0  0  0  0  0  0  0  0  0  0  0
   40.3680   31.6400   41.7970 O   0  0  0  0  0  0  0  0  0  0  0  0
   40.2030   30.2950   41.9730 C   0  0  0  0  0  0  0  0  0  0  0  0
   40.9040   29.5120   42.6920 O   0  0  0  0  0  0  0  0  0  0  0  0
   37.4530   25.9940   41.5270 C   0  0  0  0  0  0  0  0  0  0  0  0
   36.8150   27.0590   42.3940 C   0  0  0  0  0  2  0  0  0  0  0  0
   37.5060   28.3040   42.1100 N   0  0  0  0  0  0  0  0  0  0  0  0
   37.8070   29.6650   41.7360 C   0  0  0  0  0  0  0  0  0  0  0  0
   37.0190   30.6700   41.7380 O   0  0  0  0  0  0  0  0  0  0  0  0
   39.2110   29.2940   41.4280 C   0  0  2  0  0  3  0  0  0  0  0  0
   38.9300   28.1540   42.3540 C   0  0  2  0  0  3  0  0  0  0  0  0
   39.2140   26.5070   41.6240 S   0  0  0  0  0  0  0  0  0  0  0  0
   37.2700   24.6260   42.1450 C   0  0  0  0  0  2  0  0  0  0  0  0
   36.3000   24.5560   42.6780 H   0  0  0  0  0  0  0  0  0  0  0  0
   36.9400   25.9850   40.1200 C   0  0  0  0  0  2  0  0  0  0  0  0
   37.4070   26.7370   39.4550 H   0  0  0  0  0  0  0  0  0  0  0  0
  1  6  1  0  0  0  0
  1 17  1  0  0  0  0
  2  1  2  0  0  0  0
  3  4  2  0  0  0  0
  3  2  1  0  0  0  0
  4  5  1  0  0  0  0
  5  8  1  0  0  0  0
  5  6  2  0  0  0  0
  7  3  1  0  0  0  0
  9  2  1  0  0  0  0
  9 13  2  0  0  0  0
 10 11  2  0  0  0  0
 10  9  1  0  0  0  0
 11 12  1  0  0  0  0
 12 16  1  0  0  0  0
 12 13  1  0  0  0  0
 14 10  1  0  0  0  0
 15 11  1  0  0  0  0
 17 18  1  0  0  0  0
 18 19  2  0  0  0  0
 20 27  1  0  0  0  0
 20 28  1  0  0  0  0
 20 21  1  0  0  0  0
 22 26  1  0  0  0  0
 22 21  1  0  0  0  0
 23 24  2  0  0  0  0
 23 22  1  0  0  0  0
 25 23  1  0  0  0  0
 25 18  1  1  0  0  0
 25 26  1  0  0  0  0
 26 27  1  6  0  0  0
 28 29  1  0  0  0  0
 30 20  1  0  0  0  0
 31 30  1  0  0  0  0
M  END
>  <minimizedAffinity>
-5.37311649

$$$$

 OpenBabel03252508523D

 31 34  0  0  1  0  0  0  0  0999 V2000
   36.8920   26.0700   39.7850 C   0  0  0  0  0  0  0  0  0  0  0  0
   37.1090   25.9400   41.1560 C   0  0  0  0  0  0  0  0  0  0  0  0
   36.8170   24.7010   41.7340 C   0  0  0  0  0  0  0  0  0  0  0  0
   36.3420   23.7090   40.9300 N   0  0  0  0  0  0  0  0  0  0  0  0
   36.1470   23.8760   39.6170 C   0  0  0  0  0  0  0  0  0  0  0  0
   36.4260   25.0660   39.0440 N   0  0  0  0  0  0  0  0  0  0  0  0
   36.9810   24.5990   42.7810 H   0  0  0  0  0  0  0  0  0  0  0  0
   35.7720   23.1000   38.9620 H   0  0  0  0  0  0  0  0  0  0  0  0
   37.6230   27.0760   41.9220 C   0  0  0  0  0  0  0  0  0  0  0  0
   36.8130   27.8750   42.7170 C   0  0  0  0  0  0  0  0  0  0  0  0
   37.6930   28.8000   43.2390 C   0  0  0  0  0  0  0  0  0  0  0  0
   38.9530   28.5800   42.7910 N   0  0  0  0  0  0  0  0  0  0  0  0
   38.8800   27.5330   41.9990 N   0  0  0  0  0  0  0  0  0  0  0  0
   35.7360   27.8190   42.9110 H   0  0  0  0  0  0  0  0  0  0  0  0
   37.4350   29.6110   43.9220 H   0  0  0  0  0  0  0  0  0  0  0  0
   39.7800   29.1610   43.0590 H   0  0  0  0  0  0  0  0  0  0  0  0
   37.1750   27.2820   39.1980 O   0  0  0  0  0  0  0  0  0  0  0  0
   36.3090   28.3180   38.9900 C   0  0  0  0  0  0  0  0  0  0  0  0
   35.0490   28.2570   38.8120 O   0  0  0  0  0  0  0  0  0  0  0  0
   38.2290   32.9980   39.8120 C   0  0  0  0  0  0  0  0  0  0  0  0
   38.8830   32.2430   38.6730 C   0  0  0  0  0  2  0  0  0  0  0  0
   38.0000   31.1410   38.3350 N   0  0  0  0  0  0  0  0  0  0  0  0
   37.1370   30.2280   37.6260 C   0  0  0  0  0  0  0  0  0  0  0  0
   37.0990   30.0030   36.3680 O   0  0  0  0  0  0  0  0  0  0  0  0
   36.4900   29.8150   38.8960 C   0  0  2  0  0  3  0  0  0  0  0  0
   37.7640   30.3110   39.5030 C   0  0  2  0  0  3  0  0  0  0  0  0
   37.5380   31.5980   40.7770 S   0  0  0  0  0  0  0  0  0  0  0  0
   39.2680   33.7350   40.6260 C   0  0  0  0  0  2  0  0  0  0  0  0
   40.1000   34.0890   39.9850 H   0  0  0  0  0  0  0  0  0  0  0  0
   37.1690   33.9560   39.3600 C   0  0  0  0  0  2  0  0  0  0  0  0
   36.1830   33.4930   39.1640 H   0  0  0  0  0  0  0  0  0  0  0  0
  1  2  1  0  0  0  0
  2  3  2  0  0  0  0
  2  9  1  0  0  0  0
  3  7  1  0  0  0  0
  4  3  1  0  0  0  0
  5  4  2  0  0  0  0
  6  5  1  0  0  0  0
  6  1  2  0  0  0  0
  8  5  1  0  0  0  0
  9 13  2  0  0  0  0
  9 10  1  0  0  0  0
 10 14  1  0  0  0  0
 10 11  2  0  0  0  0
 11 15  1  0  0  0  0
 12 16  1  0  0  0  0
 12 11  1  0  0  0  0
 13 12  1  0  0  0  0
 17  1  1  0  0  0  0
 18 17  1  0  0  0  0
 19 18  2  0  0  0  0
 20 28  1  0  0  0  0
 20 27  1  0  0  0  0
 21 20  1  0  0  0  0
 22 21  1  0  0  0  0
 22 26  1  0  0  0  0
 23 22  1  0  0  0  0
 23 25  1  0  0  0  0
 24 23  2  0  0  0  0
 25 18  1  6  0  0  0
 25 26  1  0  0  0  0
 26 27  1  1  0  0  0
 29 28  1  0  0  0  0
 30 20  1  0  0  0  0
 31 30  1  0  0  0  0
M  END
>  <minimizedAffinity>
-5.25616741

$$$$

 OpenBabel03252508523D

 31 34  0  0  1  0  0  0  0  0999 V2000
   39.8090   30.6080   40.0340 C   0  0  0  0  0  0  0  0  0  0  0  0
   38.6730   31.0980   39.3910 C   0  0  0  0  0  0  0  0  0  0  0  0
   38.8730   31.9000   38.2630 C   0  0  0  0  0  0  0  0  0  0  0  0
   40.1520   32.1500   37.8670 N   0  0  0  0  0  0  0  0  0  0  0  0
   41.2160   31.6600   38.5140 C   0  0  0  0  0  0  0  0  0  0  0  0
   41.0400   30.8840   39.6040 N   0  0  0  0  0  0  0  0  0  0  0  0
   38.0070   32.2740   37.7700 H   0  0  0  0  0  0  0  0  0  0  0  0
   42.2400   31.8470   38.2140 H   0  0  0  0  0  0  0  0  0  0  0  0
   37.3450   30.7620   39.9060 C   0  0  0  0  0  0  0  0  0  0  0  0
   36.4810   29.8980   39.2500 C   0  0  0  0  0  0  0  0  0  0  0  0
   35.3720   29.8730   40.0710 C   0  0  0  0  0  0  0  0  0  0  0  0
   35.5500   30.6690   41.1530 N   0  0  0  0  0  0  0  0  0  0  0  0
   36.7500   31.1920   41.0270 N   0  0  0  0  0  0  0  0  0  0  0  0
   36.6070   29.3480   38.3100 H   0  0  0  0  0  0  0  0  0  0  0  0
   34.4610   29.2980   39.8950 H   0  0  0  0  0  0  0  0  0  0  0  0
   34.8370   30.8000   41.9070 H   0  0  0  0  0  0  0  0  0  0  0  0
   39.6320   29.8170   41.1450 O   0  0  0  0  0  0  0  0  0  0  0  0
   39.6250   28.4510   41.1910 C   0  0  0  0  0  0  0  0  0  0  0  0
   40.5530   27.6800   41.6000 O   0  0  0  0  0  0  0  0  0  0  0  0
   37.4910   23.8590   40.4010 C   0  0  0  0  0  0  0  0  0  0  0  0
   37.2840   24.4160   41.7940 C   0  0  0  0  0  2  0  0  0  0  0  0
   37.6010   25.8310   41.7350 N   0  0  0  0  0  0  0  0  0  0  0  0
   37.5260   27.2700   41.8190 C   0  0  0  0  0  0  0  0  0  0  0  0
   36.7530   27.9730   42.5550 O   0  0  0  0  0  0  0  0  0  0  0  0
   38.6020   27.4080   40.8060 C   0  0  2  0  0  3  0  0  0  0  0  0
   38.9540   26.0230   41.2450 C   0  0  2  0  0  3  0  0  0  0  0  0
   38.9890   24.7940   39.8960 S   0  0  0  0  0  0  0  0  0  0  0  0
   37.7920   22.3790   40.4590 C   0  0  0  0  0  2  0  0  0  0  0  0
   37.2460   21.8940   41.2940 H   0  0  0  0  0  0  0  0  0  0  0  0
   36.3320   24.1040   39.4830 C   0  0  0  0  0  2  0  0  0  0  0  0
   36.3120   25.1120   39.0260 H   0  0  0  0  0  0  0  0  0  0  0  0
  1 17  1  0  0  0  0
  2  9  1  0  0  0  0
  2  1  2  0  0  0  0
  3  2  1  0  0  0  0
  4  3  2  0  0  0  0
  4  5  1  0  0  0  0
  5  6  2  0  0  0  0
  6  1  1  0  0  0  0
  7  3  1  0  0  0  0
  8  5  1  0  0  0  0
  9 13  2  0  0  0  0
 10  9  1  0  0  0  0
 10 11  2  0  0  0  0
 11 12  1  0  0  0  0
 12 16  1  0  0  0  0
 13 12  1  0  0  0  0
 14 10  1  0  0  0  0
 15 11  1  0  0  0  0
 17 18  1  0  0  0  0
 18 19  2  0  0  0  0
 20 28  1  0  0  0  0
 20 21  1  0  0  0  0
 22 21  1  0  0  0  0
 22 23  1  0  0  0  0
 23 24  2  0  0  0  0
 25 18  1  1  0  0  0
 25 26  1  0  0  0  0
 25 23  1  0  0  0  0
 26 27  1  6  0  0  0
 26 22  1  0  0  0  0
 27 20  1  0  0  0  0
 28 29  1  0  0  0  0
 30 20  1  0  0  0  0
 31 30  1  0  0  0  0
M  END
>  <minimizedAffinity>
-5.19838715

$$$$

 OpenBabel03252508523D

 31 34  0  0  1  0  0  0  0  0999 V2000
   39.8490   30.0510   39.6790 C   0  0  0  0  0  0  0  0  0  0  0  0
   39.7750   31.2480   38.9680 C   0  0  0  0  0  0  0  0  0  0  0  0
   40.5200   31.3390   37.7890 C   0  0  0  0  0  0  0  0  0  0  0  0
   41.2640   30.2620   37.4110 N   0  0  0  0  0  0  0  0  0  0  0  0
   41.3080   29.1300   38.1230 C   0  0  0  0  0  0  0  0  0  0  0  0
   40.5940   29.0270   39.2640 N   0  0  0  0  0  0  0  0  0  0  0  0
   40.4650   32.2510   37.2450 H   0  0  0  0  0  0  0  0  0  0  0  0
   41.8920   28.2640   37.8380 H   0  0  0  0  0  0  0  0  0  0  0  0
   38.9400   32.3410   39.4710 C   0  0  0  0  0  0  0  0  0  0  0  0
   39.4370   33.3580   40.2730 C   0  0  0  0  0  0  0  0  0  0  0  0
   38.3310   34.1490   40.5050 C   0  0  0  0  0  0  0  0  0  0  0  0
   37.2360   33.6470   39.8860 N   0  0  0  0  0  0  0  0  0  0  0  0
   37.6340   32.5560   39.2700 N   0  0  0  0  0  0  0  0  0  0  0  0
   40.4510   33.5300   40.6530 H   0  0  0  0  0  0  0  0  0  0  0  0
   38.3140   35.0620   41.1040 H   0  0  0  0  0  0  0  0  0  0  0  0
   36.2870   34.0850   39.9270 H   0  0  0  0  0  0  0  0  0  0  0  0
   39.1230   29.9440   40.8420 O   0  0  0  0  0  0  0  0  0  0  0  0
   37.8670   29.4240   40.9840 C   0  0  0  0  0  0  0  0  0  0  0  0
   36.7640   30.0570   41.0440 O   0  0  0  0  0  0  0  0  0  0  0  0
   37.7400   24.3010   40.8970 C   0  0  0  0  0  0  0  0  0  0  0  0
   38.1980   24.8950   42.2130 C   0  0  0  0  0  2  0  0  0  0  0  0
   37.8190   26.2960   42.1980 N   0  0  0  0  0  0  0  0  0  0  0  0
   37.2420   27.5770   42.5310 C   0  0  0  0  0  0  0  0  0  0  0  0
   36.8560   27.9890   43.6770 O   0  0  0  0  0  0  0  0  0  0  0  0
   37.3400   28.0140   41.1160 C   0  0  2  0  0  3  0  0  0  0  0  0
   38.3990   26.9610   41.0460 C   0  0  2  0  0  3  0  0  0  0  0  0
   38.1160   25.6950   39.7630 S   0  0  0  0  0  0  0  0  0  0  0  0
   38.5760   23.0930   40.5390 C   0  0  0  0  0  2  0  0  0  0  0  0
   38.8830   22.5370   41.4480 H   0  0  0  0  0  0  0  0  0  0  0  0
   36.2880   23.9320   40.8830 C   0  0  0  0  0  2  0  0  0  0  0  0
   35.6000   24.7770   40.6870 H   0  0  0  0  0  0  0  0  0  0  0  0
  1 17  1  0  0  0  0
  2  9  1  0  0  0  0
  2  1  2  0  0  0  0
  3  2  1  0  0  0  0
  4  3  2  0  0  0  0
  4  5  1  0  0  0  0
  5  6  2  0  0  0  0
  6  1  1  0  0  0  0
  7  3  1  0  0  0  0
  8  5  1  0  0  0  0
  9 10  1  0  0  0  0
 10 11  2  0  0  0  0
 10 14  1  0  0  0  0
 11 15  1  0  0  0  0
 12 16  1  0  0  0  0
 12 11  1  0  0  0  0
 13  9  2  0  0  0  0
 13 12  1  0  0  0  0
 17 18  1  0  0  0  0
 18 19  2  0  0  0  0
 20 21  1  0  0  0  0
 22 21  1  0  0  0  0
 22 23  1  0  0  0  0
 23 24  2  0  0  0  0
 25 18  1  1  0  0  0
 25 23  1  0  0  0  0
 26 27  1  6  0  0  0
 26 25  1  0  0  0  0
 26 22  1  0  0  0  0
 27 20  1  0  0  0  0
 28 20  1  0  0  0  0
 28 29  1  0  0  0  0
 30 20  1  0  0  0  0
 31 30  1  0  0  0  0
M  END
>  <minimizedAffinity>
-5.175529

$$$$

 OpenBabel03252508523D

 31 34  0  0  1  0  0  0  0  0999 V2000
   36.7710   25.8260   40.2890 C   0  0  0  0  0  0  0  0  0  0  0  0
   37.2930   25.8050   41.5810 C   0  0  0  0  0  0  0  0  0  0  0  0
   37.7050   24.5670   42.0840 C   0  0  0  0  0  0  0  0  0  0  0  0
   37.5710   23.4700   41.2880 N   0  0  0  0  0  0  0  0  0  0  0  0
   37.0630   23.5340   40.0510 C   0  0  0  0  0  0  0  0  0  0  0  0
   36.6620   24.7220   39.5510 N   0  0  0  0  0  0  0  0  0  0  0  0
   38.1040   24.5480   43.0700 H   0  0  0  0  0  0  0  0  0  0  0  0
   36.9500   22.6740   39.4030 H   0  0  0  0  0  0  0  0  0  0  0  0
   37.3900   27.0490   42.3470 C   0  0  0  0  0  0  0  0  0  0  0  0
   38.6020   27.5860   42.7570 C   0  0  0  0  0  0  0  0  0  0  0  0
   38.2300   28.7310   43.4300 C   0  0  0  0  0  0  0  0  0  0  0  0
   36.8830   28.8800   43.4300 N   0  0  0  0  0  0  0  0  0  0  0  0
   36.4030   27.8500   42.7680 N   0  0  0  0  0  0  0  0  0  0  0  0
   39.6250   27.2240   42.6060 H   0  0  0  0  0  0  0  0  0  0  0  0
   38.9100   29.4390   43.9090 H   0  0  0  0  0  0  0  0  0  0  0  0
   36.3820   29.6790   43.8830 H   0  0  0  0  0  0  0  0  0  0  0  0
   36.3610   27.0360   39.7780 O   0  0  0  0  0  0  0  0  0  0  0  0
   36.9400   27.7370   38.7580 C   0  0  0  0  0  0  0  0  0  0  0  0
   36.7990   27.5520   37.5060 O   0  0  0  0  0  0  0  0  0  0  0  0
   39.0460   32.2750   39.8720 C   0  0  0  0  0  0  0  0  0  0  0  0
   39.5380   31.1280   40.7290 C   0  0  0  0  0  2  0  0  0  0  0  0
   39.1520   29.9010   40.0550 N   0  0  0  0  0  0  0  0  0  0  0  0
   39.1780   28.6130   39.4050 C   0  0  0  0  0  0  0  0  0  0  0  0
   40.0650   27.6990   39.5110 O   0  0  0  0  0  0  0  0  0  0  0  0
   37.8950   28.9070   38.7190 C   0  0  2  0  0  3  0  0  0  0  0  0
   37.7160   29.8740   39.8450 C   0  0  2  0  0  3  0  0  0  0  0  0
   37.4320   31.5970   39.3170 S   0  0  0  0  0  0  0  0  0  0  0  0
   38.8340   33.5140   40.7120 C   0  0  0  0  0  2  0  0  0  0  0  0
   39.5770   33.5690   41.5340 H   0  0  0  0  0  0  0  0  0  0  0  0
   39.9540   32.5930   38.7230 C   0  0  0  0  0  2  0  0  0  0  0  0
   39.8240   31.9400   37.8390 H   0  0  0  0  0  0  0  0  0  0  0  0
  1  2  1  0  0  0  0
  2  3  2  0  0  0  0
  2  9  1  0  0  0  0
  3  7  1  0  0  0  0
  4  3  1  0  0  0  0
  5  4  2  0  0  0  0
  6  5  1  0  0  0  0
  6  1  2  0  0  0  0
  8  5  1  0  0  0  0
  9 10  1  0  0  0  0
  9 13  2  0  0  0  0
 10 11  2  0  0  0  0
 11 15  1  0  0  0  0
 12 11  1  0  0  0  0
 12 16  1  0  0  0  0
 13 12  1  0  0  0  0
 14 10  1  0  0  0  0
 17  1  1  0  0  0  0
 18 17  1  0  0  0  0
 19 18  2  0  0  0  0
 20 28  1  0  0  0  0
 20 21  1  0  0  0  0
 22 21  1  0  0  0  0
 23 24  2  0  0  0  0
 23 22  1  0  0  0  0
 25 18  1  1  0  0  0
 25 23  1  0  0  0  0
 25 26  1  0  0  0  0
 26 27  1  6  0  0  0
 26 22  1  0  0  0  0
 27 20  1  0  0  0  0
 28 29  1  0  0  0  0
 30 20  1  0  0  0  0
 31 30  1  0  0  0  0
M  END
>  <minimizedAffinity>
-5.1667347

$$$$

 OpenBabel03252508523D

 31 34  0  0  1  0  0  0  0  0999 V2000
   37.1890   29.0520   39.2260 C   0  0  0  0  0  0  0  0  0  0  0  0
   36.2540   28.9580   40.2560 C   0  0  0  0  0  0  0  0  0  0  0  0
   34.9030   29.0180   39.9010 C   0  0  0  0  0  0  0  0  0  0  0  0
   34.5880   29.1640   38.5830 N   0  0  0  0  0  0  0  0  0  0  0  0
   35.5180   29.2510   37.6240 C   0  0  0  0  0  0  0  0  0  0  0  0
   36.8260   29.1940   37.9520 N   0  0  0  0  0  0  0  0  0  0  0  0
   34.1870   28.9470   40.6850 H   0  0  0  0  0  0  0  0  0  0  0  0
   35.2870   29.3650   36.5730 H   0  0  0  0  0  0  0  0  0  0  0  0
   36.7090   28.8040   41.6390 C   0  0  0  0  0  0  0  0  0  0  0  0
   36.6260   27.6020   42.3270 C   0  0  0  0  0  0  0  0  0  0  0  0
   37.1550   27.9060   43.5640 C   0  0  0  0  0  0  0  0  0  0  0  0
   37.5340   29.2060   43.6240 N   0  0  0  0  0  0  0  0  0  0  0  0
   37.2530   29.7220   42.4480 N   0  0  0  0  0  0  0  0  0  0  0  0
   36.2420   26.6260   42.0050 H   0  0  0  0  0  0  0  0  0  0  0  0
   37.2640   27.2130   44.3990 H   0  0  0  0  0  0  0  0  0  0  0  0
   37.9600   29.6530   44.4680 H   0  0  0  0  0  0  0  0  0  0  0  0
   38.5230   28.9950   39.5570 O   0  0  0  0  0  0  0  0  0  0  0  0
   39.4750   29.9420   39.3060 C   0  0  0  0  0  0  0  0  0  0  0  0
   39.9100   30.3290   38.1730 O   0  0  0  0  0  0  0  0  0  0  0  0
   43.1270   33.2270   40.7670 C   0  0  0  0  0  0  0  0  0  0  0  0
   41.8380   33.8820   40.3160 C   0  0  0  0  0  2  0  0  0  0  0  0
   40.8190   32.8480   40.3090 N   0  0  0  0  0  0  0  0  0  0  0  0
   39.6200   32.0870   40.5610 C   0  0  0  0  0  0  0  0  0  0  0  0
   38.4820   32.5210   40.9480 O   0  0  0  0  0  0  0  0  0  0  0  0
   40.3150   30.8270   40.1970 C   0  0  2  0  0  3  0  0  0  0  0  0
   41.2250   31.7500   39.4510 C   0  0  2  0  0  3  0  0  0  0  0  0
   42.9840   31.6070   39.9150 S   0  0  0  0  0  0  0  0  0  0  0  0
   44.3230   33.9910   40.2450 C   0  0  0  0  0  2  0  0  0  0  0  0
   44.1110   35.0790   40.1970 H   0  0  0  0  0  0  0  0  0  0  0  0
   43.2320   33.0800   42.2540 C   0  0  0  0  0  2  0  0  0  0  0  0
   42.6980   32.2040   42.6700 H   0  0  0  0  0  0  0  0  0  0  0  0
  1 17  1  0  0  0  0
  1  2  1  0  0  0  0
  2  9  1  0  0  0  0
  3  2  2  0  0  0  0
  3  7  1  0  0  0  0
  4  3  1  0  0  0  0
  5  6  1  0  0  0  0
  5  4  2  0  0  0  0
  6  1  2  0  0  0  0
  8  5  1  0  0  0  0
  9 10  1  0  0  0  0
  9 13  2  0  0  0  0
 10 11  2  0  0  0  0
 11 12  1  0  0  0  0
 11 15  1  0  0  0  0
 12 16  1  0  0  0  0
 13 12  1  0  0  0  0
 14 10  1  0  0  0  0
 18 17  1  0  0  0  0
 19 18  2  0  0  0  0
 20 30  1  0  0  0  0
 21 20  1  0  0  0  0
 22 21  1  0  0  0  0
 22 23  1  0  0  0  0
 23 24  2  0  0  0  0
 25 18  1  6  0  0  0
 25 23  1  0  0  0  0
 26 27  1  1  0  0  0
 26 25  1  0  0  0  0
 26 22  1  0  0  0  0
 27 20  1  0  0  0  0
 28 20  1  0  0  0  0
 29 28  1  0  0  0  0
 30 31  1  0  0  0  0
M  END
>  <minimizedAffinity>
-5.15021324

$$$$

 OpenBabel03252508523D

 31 34  0  0  1  0  0  0  0  0999 V2000
   36.8990   26.0220   40.3200 C   0  0  0  0  0  0  0  0  0  0  0  0
   37.4150   25.9940   41.6140 C   0  0  0  0  0  0  0  0  0  0  0  0
   37.8470   24.7590   42.1040 C   0  0  0  0  0  0  0  0  0  0  0  0
   37.7390   23.6690   41.2940 N   0  0  0  0  0  0  0  0  0  0  0  0
   37.2370   23.7380   40.0550 C   0  0  0  0  0  0  0  0  0  0  0  0
   36.8160   24.9250   39.5680 N   0  0  0  0  0  0  0  0  0  0  0  0
   38.2410   24.7350   43.0930 H   0  0  0  0  0  0  0  0  0  0  0  0
   37.1440   22.8840   39.3960 H   0  0  0  0  0  0  0  0  0  0  0  0
   37.4830   27.2310   42.3950 C   0  0  0  0  0  0  0  0  0  0  0  0
   38.6370   27.9950   42.4920 C   0  0  0  0  0  0  0  0  0  0  0  0
   38.2570   29.0420   43.3060 C   0  0  0  0  0  0  0  0  0  0  0  0
   36.9600   28.9220   43.6790 N   0  0  0  0  0  0  0  0  0  0  0  0
   36.5190   27.8200   43.1150 N   0  0  0  0  0  0  0  0  0  0  0  0
   39.6270   27.8430   42.0480 H   0  0  0  0  0  0  0  0  0  0  0  0
   38.8960   29.8690   43.6220 H   0  0  0  0  0  0  0  0  0  0  0  0
   36.4630   29.6040   44.2970 H   0  0  0  0  0  0  0  0  0  0  0  0
   36.4690   27.2290   39.8200 O   0  0  0  0  0  0  0  0  0  0  0  0
   37.1480   28.0600   38.9740 C   0  0  0  0  0  0  0  0  0  0  0  0
   37.0310   28.1500   37.7100 O   0  0  0  0  0  0  0  0  0  0  0  0
   41.0500   31.2330   37.9860 C   0  0  0  0  0  0  0  0  0  0  0  0
   39.6800   31.8200   37.7180 C   0  0  0  0  0  2  0  0  0  0  0  0
   38.7160   30.9680   38.3910 N   0  0  0  0  0  0  0  0  0  0  0  0
   37.6580   30.4810   39.2430 C   0  0  0  0  0  0  0  0  0  0  0  0
   36.6920   31.1460   39.7510 O   0  0  0  0  0  0  0  0  0  0  0  0
   38.2160   29.1070   39.1890 C   0  0  2  0  0  3  0  0  0  0  0  0
   38.8450   29.5990   37.9250 C   0  0  2  0  0  3  0  0  0  0  0  0
   40.6620   29.4410   37.8790 S   0  0  0  0  0  0  0  0  0  0  0  0
   42.0200   31.6260   36.8960 C   0  0  0  0  0  2  0  0  0  0  0  0
   41.7960   32.6420   36.5110 H   0  0  0  0  0  0  0  0  0  0  0  0
   41.6100   31.6140   39.3230 C   0  0  0  0  0  2  0  0  0  0  0  0
   41.2360   31.0070   40.1690 H   0  0  0  0  0  0  0  0  0  0  0  0
  1  2  1  0  0  0  0
  2  3  2  0  0  0  0
  2  9  1  0  0  0  0
  3  7  1  0  0  0  0
  4  3  1  0  0  0  0
  5  4  2  0  0  0  0
  6  5  1  0  0  0  0
  6  1  2  0  0  0  0
  8  5  1  0  0  0  0
  9 10  1  0  0  0  0
  9 13  2  0  0  0  0
 10 11  2  0  0  0  0
 11 15  1  0  0  0  0
 11 12  1  0  0  0  0
 12 16  1  0  0  0  0
 13 12  1  0  0  0  0
 14 10  1  0  0  0  0
 17  1  1  0  0  0  0
 18 17  1  0  0  0  0
 19 18  2  0  0  0  0
 20 30  1  0  0  0  0
 21 20  1  0  0  0  0
 21 22  1  0  0  0  0
 22 23  1  0  0  0  0
 23 24  2  0  0  0  0
 25 18  1  6  0  0  0
 25 23  1  0  0  0  0
 26 27  1  1  0  0  0
 26 22  1  0  0  0  0
 26 25  1  0  0  0  0
 27 20  1  0  0  0  0
 28 20  1  0  0  0  0
 29 28  1  0  0  0  0
 30 31  1  0  0  0  0
M  END
>  <minimizedAffinity>
-5.12941217

$$$$

 OpenBabel03252508523D

 31 34  0  0  1  0  0  0  0  0999 V2000
   38.3130   29.6700   42.4060 C   0  0  0  0  0  0  0  0  0  0  0  0
   37.3010   29.6400   41.4480 C   0  0  0  0  0  0  0  0  0  0  0  0
   36.4080   28.5660   41.4940 C   0  0  0  0  0  0  0  0  0  0  0  0
   36.5820   27.6230   42.4630 N   0  0  0  0  0  0  0  0  0  0  0  0
   37.5690   27.6890   43.3650 C   0  0  0  0  0  0  0  0  0  0  0  0
   38.4380   28.7210   43.3330 N   0  0  0  0  0  0  0  0  0  0  0  0
   35.6340   28.5410   40.7640 H   0  0  0  0  0  0  0  0  0  0  0  0
   37.7220   26.9510   44.1420 H   0  0  0  0  0  0  0  0  0  0  0  0
   37.2110   30.7100   40.4530 C   0  0  0  0  0  0  0  0  0  0  0  0
   37.4610   30.5040   39.1040 C   0  0  0  0  0  0  0  0  0  0  0  0
   37.2640   31.7510   38.5490 C   0  0  0  0  0  0  0  0  0  0  0  0
   36.9190   32.6560   39.4970 N   0  0  0  0  0  0  0  0  0  0  0  0
   36.8950   31.9980   40.6360 N   0  0  0  0  0  0  0  0  0  0  0  0
   37.7460   29.5910   38.5670 H   0  0  0  0  0  0  0  0  0  0  0  0
   37.3670   32.0030   37.4920 H   0  0  0  0  0  0  0  0  0  0  0  0
   36.7230   33.6640   39.3010 H   0  0  0  0  0  0  0  0  0  0  0  0
   39.2010   30.7200   42.3760 O   0  0  0  0  0  0  0  0  0  0  0  0
   40.5230   30.6720   42.0340 C   0  0  0  0  0  0  0  0  0  0  0  0
   41.4730   30.1120   42.6710 O   0  0  0  0  0  0  0  0  0  0  0  0
   42.6250   30.9880   37.3710 C   0  0  0  0  0  0  0  0  0  0  0  0
   41.2240   31.5550   37.4670 C   0  0  0  0  0  2  0  0  0  0  0  0
   40.9380   31.7350   38.8780 N   0  0  0  0  0  0  0  0  0  0  0  0
   40.5900   32.3060   40.1580 C   0  0  0  0  0  0  0  0  0  0  0  0
   39.9080   33.3620   40.3850 O   0  0  0  0  0  0  0  0  0  0  0  0
   41.3100   31.2170   40.8650 C   0  0  2  0  0  3  0  0  0  0  0  0
   41.0880   30.4760   39.5860 C   0  0  2  0  0  3  0  0  0  0  0  0
   42.6130   29.8460   38.8080 S   0  0  0  0  0  0  0  0  0  0  0  0
   42.7970   30.2110   36.0850 C   0  0  0  0  0  2  0  0  0  0  0  0
   42.2060   30.6640   35.2630 H   0  0  0  0  0  0  0  0  0  0  0  0
   43.6980   32.0280   37.4800 C   0  0  0  0  0  2  0  0  0  0  0  0
   43.9430   32.3300   38.5160 H   0  0  0  0  0  0  0  0  0  0  0  0
  1  6  1  0  0  0  0
  2  3  1  0  0  0  0
  2  1  2  0  0  0  0
  3  4  2  0  0  0  0
  4  5  1  0  0  0  0
  5  8  1  0  0  0  0
  6  5  2  0  0  0  0
  7  3  1  0  0  0  0
  9 13  2  0  0  0  0
  9  2  1  0  0  0  0
 10  9  1  0  0  0  0
 11 10  2  0  0  0  0
 11 12  1  0  0  0  0
 12 13  1  0  0  0  0
 14 10  1  0  0  0  0
 15 11  1  0  0  0  0
 16 12  1  0  0  0  0
 17  1  1  0  0  0  0
 18 17  1  0  0  0  0
 18 19  2  0  0  0  0
 20 21  1  0  0  0  0
 20 30  1  0  0  0  0
 20 27  1  0  0  0  0
 21 22  1  0  0  0  0
 22 26  1  0  0  0  0
 22 23  1  0  0  0  0
 23 24  2  0  0  0  0
 23 25  1  0  0  0  0
 25 18  1  1  0  0  0
 26 27  1  6  0  0  0
 26 25  1  0  0  0  0
 28 20  1  0  0  0  0
 29 28  1  0  0  0  0
 30 31  1  0  0  0  0
M  END
>  <minimizedAffinity>
-5.11814117

$$$$
