
 OpenBabel03252503333D

 44 47  0  0  1  0  0  0  0  0999 V2000
   40.0350   31.3850   40.9790 C   0  0  0  0  0  0  0  0  0  0  0  0
   39.2760   32.5920   41.0500 C   0  0  0  0  0  0  0  0  0  0  0  0
   39.6010   33.5820   40.1040 C   0  0  0  0  0  0  0  0  0  0  0  0
   40.5830   33.3190   39.2240 N   0  0  0  0  0  0  0  0  0  0  0  0
   41.2720   32.1580   39.2010 C   0  0  0  0  0  0  0  0  0  0  0  0
   40.9870   31.1860   40.0910 N   0  0  0  0  0  0  0  0  0  0  0  0
   38.5800   29.6470   41.5780 C   0  0  0  0  0  0  0  0  0  0  0  0
   37.8910   30.0460   40.5790 O   0  0  0  0  0  0  0  0  0  0  0  0
   39.7680   30.3230   41.9070 N   0  0  0  0  0  0  0  0  0  0  0  0
   38.0870   28.5250   42.2940 N   0  0  0  0  0  0  0  0  0  0  0  0
   36.6910   28.0900   42.0930 C   0  0  0  0  0  0  0  0  0  0  0  0
   36.3380   27.5210   43.4330 C   0  0  0  0  0  0  0  0  0  0  0  0
   37.5920   27.5830   44.2550 C   0  0  0  0  0  0  0  0  0  0  0  0
   38.7000   27.6350   43.2320 C   0  0  1  0  0  0  0  0  0  0  0  0
   38.5290   32.6250   41.8200 H   0  0  0  0  0  0  0  0  0  0  0  0
   42.0630   32.0070   38.4530 H   0  0  0  0  0  0  0  0  0  0  0  0
   40.2710   29.9860   42.7310 H   0  0  0  0  0  0  0  0  0  0  0  0
   36.7630   27.3270   41.2850 H   0  0  0  0  0  0  0  0  0  0  0  0
   36.0450   28.9090   41.7740 H   0  0  0  0  0  0  0  0  0  0  0  0
   35.5040   28.1030   43.8790 H   0  0  0  0  0  0  0  0  0  0  0  0
   36.0590   26.4470   43.2660 H   0  0  0  0  0  0  0  0  0  0  0  0
   37.6660   27.0800   45.1620 H   0  0  0  0  0  0  0  0  0  0  0  0
   37.5830   28.6800   44.5880 H   0  0  0  0  0  0  0  0  0  0  0  0
   39.6050   28.0240   43.6920 H   0  0  0  0  0  0  0  0  0  0  0  0
   40.1360   26.1370   41.7130 C   0  0  0  0  0  0  0  0  0  0  0  0
   40.9410   27.0870   41.7940 O   0  0  0  0  0  0  0  0  0  0  0  0
   39.0000   26.3670   42.5850 N   0  0  0  0  0  0  0  0  0  0  0  0
   38.3270   25.5630   42.7770 H   0  0  0  0  0  0  0  0  0  0  0  0
   39.1160   23.4390   37.4710 C   0  0  0  0  0  0  0  0  0  0  0  0
   38.1720   24.4410   38.1560 C   0  0  0  0  0  2  0  0  0  0  0  0
   38.5610   24.4460   39.5650 N   0  0  0  0  0  0  0  0  0  0  0  0
   38.7330   24.3430   40.9760 C   0  0  0  0  0  0  0  0  0  0  0  0
   37.8620   23.9020   41.7990 O   0  0  0  0  0  0  0  0  0  0  0  0
   40.1160   24.8870   40.9380 C   0  0  1  0  0  3  0  0  0  0  0  0
   39.8550   25.1160   39.4970 C   0  0  1  0  0  3  0  0  0  0  0  0
   40.6610   23.9360   38.3410 S   0  0  0  0  0  0  0  0  0  0  0  0
   39.2140   23.6850   36.0090 C   0  0  0  0  0  2  0  0  0  0  0  0
   38.5530   22.9780   35.4430 H   0  0  0  0  0  0  0  0  0  0  0  0
   38.6530   22.0790   37.8750 C   0  0  0  0  0  2  0  0  0  0  0  0
   39.4190   21.6720   38.5930 H   0  0  0  0  0  0  0  0  0  0  0  0
   38.8120   34.8020   40.1970 C   0  0  0  0  0  0  0  0  0  0  0  0
   39.5090   35.8310   39.5690 F   0  0  0  0  0  0  0  0  0  0  0  0
   38.7690   35.1620   41.5510 F   0  0  0  0  0  0  0  0  0  0  0  0
   37.5770   34.7060   39.6330 F   0  0  0  0  0  0  0  0  0  0  0  0
  1  2  1  0  0  0  0
  1  9  1  0  0  0  0
  2 15  1  0  0  0  0
  3 41  1  0  0  0  0
  3  2  2  0  0  0  0
  4  3  1  0  0  0  0
  5  4  2  0  0  0  0
  5  6  1  0  0  0  0
  6  1  2  0  0  0  0
  7  9  1  0  0  0  0
  7 10  1  0  0  0  0
  8  7  2  0  0  0  0
  9 17  1  0  0  0  0
 10 14  1  0  0  0  0
 11 10  1  0  0  0  0
 11 12  1  0  0  0  0
 12 20  1  0  0  0  0
 12 13  1  0  0  0  0
 13 23  1  0  0  0  0
 13 22  1  0  0  0  0
 14 24  1  1  0  0  0
 14 13  1  0  0  0  0
 16  5  1  0  0  0  0
 18 11  1  0  0  0  0
 19 11  1  0  0  0  0
 21 12  1  0  0  0  0
 25 26  2  0  0  0  0
 25 27  1  0  0  0  0
 27 28  1  0  0  0  0
 27 14  1  0  0  0  0
 29 39  1  0  0  0  0
 29 30  1  0  0  0  0
 29 36  1  0  0  0  0
 30 31  1  0  0  0  0
 31 32  1  0  0  0  0
 32 33  2  0  0  0  0
 34 32  1  0  0  0  0
 34 25  1  1  0  0  0
 35 36  1  6  0  0  0
 35 31  1  0  0  0  0
 35 34  1  0  0  0  0
 37 29  1  0  0  0  0
 38 37  1  0  0  0  0
 39 40  1  0  0  0  0
 41 43  1  0  0  0  0
 42 41  1  0  0  0  0
 44 41  1  0  0  0  0
M  END
>  <minimizedAffinity>
-6.63473845

$$$$

 OpenBabel03252503333D

 44 47  0  0  1  0  0  0  0  0999 V2000
   39.3310   31.6180   40.9490 C   0  0  0  0  0  0  0  0  0  0  0  0
   39.3340   32.9530   40.4450 C   0  0  0  0  0  0  0  0  0  0  0  0
   40.5660   33.6310   40.5020 C   0  0  0  0  0  0  0  0  0  0  0  0
   41.6240   32.9810   41.0160 N   0  0  0  0  0  0  0  0  0  0  0  0
   41.5670   31.7150   41.4810 C   0  0  0  0  0  0  0  0  0  0  0  0
   40.4040   31.0330   41.4420 N   0  0  0  0  0  0  0  0  0  0  0  0
   37.8150   30.4110   39.6300 C   0  0  0  0  0  0  0  0  0  0  0  0
   38.5820   30.7450   38.6630 O   0  0  0  0  0  0  0  0  0  0  0  0
   38.1160   30.8550   40.9290 N   0  0  0  0  0  0  0  0  0  0  0  0
   36.6950   29.5990   39.3130 N   0  0  0  0  0  0  0  0  0  0  0  0
   36.2730   29.4580   37.9050 C   0  0  0  0  0  0  0  0  0  0  0  0
   34.7930   29.2670   38.0330 C   0  0  0  0  0  0  0  0  0  0  0  0
   34.5060   29.2100   39.5060 C   0  0  0  0  0  0  0  0  0  0  0  0
   35.8230   28.8030   40.1210 C   0  0  1  0  0  0  0  0  0  0  0  0
   38.3930   33.3100   40.0710 H   0  0  0  0  0  0  0  0  0  0  0  0
   42.4700   31.2410   41.8890 H   0  0  0  0  0  0  0  0  0  0  0  0
   37.4590   30.5870   41.6660 H   0  0  0  0  0  0  0  0  0  0  0  0
   36.8150   28.5510   37.5540 H   0  0  0  0  0  0  0  0  0  0  0  0
   36.5590   30.3190   37.3000 H   0  0  0  0  0  0  0  0  0  0  0  0
   34.2630   30.1000   37.5260 H   0  0  0  0  0  0  0  0  0  0  0  0
   34.5530   28.2730   37.5730 H   0  0  0  0  0  0  0  0  0  0  0  0
   33.5810   28.8980   39.8620 H   0  0  0  0  0  0  0  0  0  0  0  0
   34.5040   30.3250   39.7730 H   0  0  0  0  0  0  0  0  0  0  0  0
   35.8300   29.0620   41.1760 H   0  0  0  0  0  0  0  0  0  0  0  0
   37.2850   26.7470   40.6220 C   0  0  0  0  0  0  0  0  0  0  0  0
   37.7610   27.4910   41.5040 O   0  0  0  0  0  0  0  0  0  0  0  0
   36.1620   27.3950   39.9740 N   0  0  0  0  0  0  0  0  0  0  0  0
   35.5280   26.8170   39.3400 H   0  0  0  0  0  0  0  0  0  0  0  0
   36.0900   22.2850   38.3930 C   0  0  0  0  0  0  0  0  0  0  0  0
   35.2820   22.9930   39.4920 C   0  0  0  0  0  2  0  0  0  0  0  0
   36.2510   23.7910   40.2400 N   0  0  0  0  0  0  0  0  0  0  0  0
   37.1600   24.4140   41.1440 C   0  0  0  0  0  0  0  0  0  0  0  0
   37.3480   24.0730   42.3600 O   0  0  0  0  0  0  0  0  0  0  0  0
   37.6270   25.4020   40.1350 C   0  0  1  0  0  3  0  0  0  0  0  0
   36.5730   24.8280   39.2660 C   0  0  1  0  0  3  0  0  0  0  0  0
   37.1610   23.7100   37.9300 S   0  0  0  0  0  0  0  0  0  0  0  0
   35.2280   21.8640   37.2590 C   0  0  0  0  0  2  0  0  0  0  0  0
   34.9690   20.7760   37.3400 H   0  0  0  0  0  0  0  0  0  0  0  0
   36.8580   21.1980   39.0680 C   0  0  0  0  0  2  0  0  0  0  0  0
   37.9390   21.5160   39.0750 H   0  0  0  0  0  0  0  0  0  0  0  0
   40.5420   34.9920   39.9810 C   0  0  0  0  0  0  0  0  0  0  0  0
   41.0510   35.8480   40.9530 F   0  0  0  0  0  0  0  0  0  0  0  0
   39.1950   35.3540   39.8410 F   0  0  0  0  0  0  0  0  0  0  0  0
   41.2600   35.1570   38.8360 F   0  0  0  0  0  0  0  0  0  0  0  0
  1  6  1  0  0  0  0
  2  3  1  0  0  0  0
  2  1  2  0  0  0  0
  3  4  2  0  0  0  0
  4  5  1  0  0  0  0
  5 16  1  0  0  0  0
  6  5  2  0  0  0  0
  7  9  1  0  0  0  0
  8  7  2  0  0  0  0
  9  1  1  0  0  0  0
  9 17  1  0  0  0  0
 10  7  1  0  0  0  0
 10 14  1  0  0  0  0
 11 12  1  0  0  0  0
 11 10  1  0  0  0  0
 12 13  1  0  0  0  0
 13 23  1  0  0  0  0
 13 22  1  0  0  0  0
 13 14  1  0  0  0  0
 14 24  1  1  0  0  0
 15  2  1  0  0  0  0
 18 11  1  0  0  0  0
 19 11  1  0  0  0  0
 20 12  1  0  0  0  0
 21 12  1  0  0  0  0
 25 26  2  0  0  0  0
 27 14  1  0  0  0  0
 27 25  1  0  0  0  0
 28 27  1  0  0  0  0
 29 39  1  0  0  0  0
 29 30  1  0  0  0  0
 30 31  1  0  0  0  0
 31 32  1  0  0  0  0
 32 33  2  0  0  0  0
 34 25  1  1  0  0  0
 34 32  1  0  0  0  0
 35 36  1  6  0  0  0
 35 34  1  0  0  0  0
 35 31  1  0  0  0  0
 36 29  1  0  0  0  0
 37 38  1  0  0  0  0
 37 29  1  0  0  0  0
 39 40  1  0  0  0  0
 41  3  1  0  0  0  0
 41 42  1  0  0  0  0
 43 41  1  0  0  0  0
 44 41  1  0  0  0  0
M  END
>  <minimizedAffinity>
-6.37107897

$$$$

 OpenBabel03252503333D

 44 47  0  0  1  0  0  0  0  0999 V2000
   38.8200   30.0230   39.4410 C   0  0  0  0  0  0  0  0  0  0  0  0
   39.0530   31.3180   39.9950 C   0  0  0  0  0  0  0  0  0  0  0  0
   38.3740   32.3840   39.3760 C   0  0  0  0  0  0  0  0  0  0  0  0
   37.5740   32.1060   38.3320 N   0  0  0  0  0  0  0  0  0  0  0  0
   37.3890   30.8590   37.8470 C   0  0  0  0  0  0  0  0  0  0  0  0
   38.0220   29.8130   38.4140 N   0  0  0  0  0  0  0  0  0  0  0  0
   38.8810   28.5120   41.2330 C   0  0  0  0  0  0  0  0  0  0  0  0
   37.9150   29.2100   41.6930 O   0  0  0  0  0  0  0  0  0  0  0  0
   39.4730   28.8790   40.0120 N   0  0  0  0  0  0  0  0  0  0  0  0
   39.2900   27.3920   42.0030 N   0  0  0  0  0  0  0  0  0  0  0  0
   38.8480   27.2730   43.4060 C   0  0  0  0  0  0  0  0  0  0  0  0
   39.9940   26.5460   44.0410 C   0  0  0  0  0  0  0  0  0  0  0  0
   40.9470   26.2180   42.9280 C   0  0  0  0  0  0  0  0  0  0  0  0
   40.0870   26.2460   41.6880 C   0  0  1  0  0  0  0  0  0  0  0  0
   39.7250   31.3500   40.8310 H   0  0  0  0  0  0  0  0  0  0  0  0
   36.7200   30.7000   36.9890 H   0  0  0  0  0  0  0  0  0  0  0  0
   40.2610   28.3080   39.6980 H   0  0  0  0  0  0  0  0  0  0  0  0
   37.9140   26.6710   43.3420 H   0  0  0  0  0  0  0  0  0  0  0  0
   38.6350   28.2440   43.8560 H   0  0  0  0  0  0  0  0  0  0  0  0
   40.4540   27.1840   44.8240 H   0  0  0  0  0  0  0  0  0  0  0  0
   39.5790   25.5930   44.4640 H   0  0  0  0  0  0  0  0  0  0  0  0
   41.7330   25.5530   43.0720 H   0  0  0  0  0  0  0  0  0  0  0  0
   41.4960   27.2180   42.8060 H   0  0  0  0  0  0  0  0  0  0  0  0
   40.7160   26.3660   40.8100 H   0  0  0  0  0  0  0  0  0  0  0  0
   39.2130   24.2510   40.3200 C   0  0  0  0  0  0  0  0  0  0  0  0
   40.1930   24.5160   39.5940 O   0  0  0  0  0  0  0  0  0  0  0  0
   39.2300   25.0840   41.5070 N   0  0  0  0  0  0  0  0  0  0  0  0
   38.5760   24.8440   42.3150 H   0  0  0  0  0  0  0  0  0  0  0  0
   34.9090   22.5430   38.1130 C   0  0  0  0  0  0  0  0  0  0  0  0
   35.2130   24.0010   38.4980 C   0  0  0  0  0  2  0  0  0  0  0  0
   36.1560   23.9240   39.6120 N   0  0  0  0  0  0  0  0  0  0  0  0
   36.8960   23.9280   40.8300 C   0  0  0  0  0  0  0  0  0  0  0  0
   36.4740   24.3670   41.9530 O   0  0  0  0  0  0  0  0  0  0  0  0
   38.0940   23.3030   40.2090 C   0  0  1  0  0  3  0  0  0  0  0  0
   37.3540   23.4440   38.9330 C   0  0  1  0  0  3  0  0  0  0  0  0
   36.6280   21.8970   38.2550 S   0  0  0  0  0  0  0  0  0  0  0  0
   34.4030   22.4350   36.7200 C   0  0  0  0  0  2  0  0  0  0  0  0
   33.2850   22.3470   36.7110 H   0  0  0  0  0  0  0  0  0  0  0  0
   34.0130   22.0040   39.1770 C   0  0  0  0  0  2  0  0  0  0  0  0
   34.6250   21.2770   39.7830 H   0  0  0  0  0  0  0  0  0  0  0  0
   38.6280   33.6940   39.9600 C   0  0  0  0  0  0  0  0  0  0  0  0
   38.7360   33.5510   41.3410 F   0  0  0  0  0  0  0  0  0  0  0  0
   37.4730   34.4640   39.7610 F   0  0  0  0  0  0  0  0  0  0  0  0
   39.7560   34.2970   39.4960 F   0  0  0  0  0  0  0  0  0  0  0  0
  1  2  1  0  0  0  0
  1  9  1  0  0  0  0
  2 15  1  0  0  0  0
  3 41  1  0  0  0  0
  3  2  2  0  0  0  0
  4  3  1  0  0  0  0
  5  4  2  0  0  0  0
  5  6  1  0  0  0  0
  6  1  2  0  0  0  0
  7  8  2  0  0  0  0
  7 10  1  0  0  0  0
  9  7  1  0  0  0  0
 10 11  1  0  0  0  0
 11 19  1  0  0  0  0
 11 12  1  0  0  0  0
 12 21  1  0  0  0  0
 12 20  1  0  0  0  0
 13 22  1  0  0  0  0
 13 12  1  0  0  0  0
 14 24  1  6  0  0  0
 14 10  1  0  0  0  0
 14 13  1  0  0  0  0
 16  5  1  0  0  0  0
 17  9  1  0  0  0  0
 18 11  1  0  0  0  0
 23 13  1  0  0  0  0
 25 27  1  0  0  0  0
 26 25  2  0  0  0  0
 27 14  1  0  0  0  0
 27 28  1  0  0  0  0
 29 36  1  0  0  0  0
 29 30  1  0  0  0  0
 29 39  1  0  0  0  0
 30 31  1  0  0  0  0
 31 32  1  0  0  0  0
 32 33  2  0  0  0  0
 34 25  1  6  0  0  0
 34 32  1  0  0  0  0
 35 36  1  1  0  0  0
 35 31  1  0  0  0  0
 35 34  1  0  0  0  0
 37 29  1  0  0  0  0
 38 37  1  0  0  0  0
 39 40  1  0  0  0  0
 41 42  1  0  0  0  0
 43 41  1  0  0  0  0
 44 41  1  0  0  0  0
M  END
>  <minimizedAffinity>
-6.36027718

$$$$

 OpenBabel03252503333D

 44 47  0  0  1  0  0  0  0  0999 V2000
   37.6490   31.1340   40.3800 C   0  0  0  0  0  0  0  0  0  0  0  0
   37.6470   32.5300   40.0870 C   0  0  0  0  0  0  0  0  0  0  0  0
   38.7520   33.2620   40.5610 C   0  0  0  0  0  0  0  0  0  0  0  0
   39.7050   32.6010   41.2400 N   0  0  0  0  0  0  0  0  0  0  0  0
   39.6580   31.2750   41.4900 C   0  0  0  0  0  0  0  0  0  0  0  0
   38.6160   30.5410   41.0510 N   0  0  0  0  0  0  0  0  0  0  0  0
   36.6400   30.0670   38.5520 C   0  0  0  0  0  0  0  0  0  0  0  0
   37.5890   30.5970   37.8780 O   0  0  0  0  0  0  0  0  0  0  0  0
   36.5600   30.3130   39.9340 N   0  0  0  0  0  0  0  0  0  0  0  0
   35.7220   29.2520   37.8400 N   0  0  0  0  0  0  0  0  0  0  0  0
   35.6840   29.3150   36.3660 C   0  0  0  0  0  0  0  0  0  0  0  0
   34.2450   29.0190   36.0710 C   0  0  0  0  0  0  0  0  0  0  0  0
   33.6040   28.7090   37.3930 C   0  0  0  0  0  0  0  0  0  0  0  0
   34.7580   28.2860   38.2700 C   0  0  1  0  0  0  0  0  0  0  0  0
   36.7990   32.8860   39.5320 H   0  0  0  0  0  0  0  0  0  0  0  0
   40.4730   30.7960   42.0510 H   0  0  0  0  0  0  0  0  0  0  0  0
   35.7680   29.8920   40.4260 H   0  0  0  0  0  0  0  0  0  0  0  0
   36.3830   28.5100   36.0460 H   0  0  0  0  0  0  0  0  0  0  0  0
   36.0260   30.2780   35.9850 H   0  0  0  0  0  0  0  0  0  0  0  0
   33.7790   29.8900   35.5640 H   0  0  0  0  0  0  0  0  0  0  0  0
   34.2280   28.0990   35.4290 H   0  0  0  0  0  0  0  0  0  0  0  0
   32.6550   28.2900   37.4460 H   0  0  0  0  0  0  0  0  0  0  0  0
   33.4250   29.7640   37.8040 H   0  0  0  0  0  0  0  0  0  0  0  0
   34.4740   28.3720   39.3160 H   0  0  0  0  0  0  0  0  0  0  0  0
   36.2330   26.2610   38.8530 C   0  0  0  0  0  0  0  0  0  0  0  0
   36.3870   26.8760   39.9280 O   0  0  0  0  0  0  0  0  0  0  0  0
   35.2600   26.9430   38.0210 N   0  0  0  0  0  0  0  0  0  0  0  0
   34.8740   26.4420   37.1630 H   0  0  0  0  0  0  0  0  0  0  0  0
   38.1830   21.5390   39.3080 C   0  0  0  0  0  0  0  0  0  0  0  0
   38.5460   22.7570   40.1740 C   0  0  0  0  0  2  0  0  0  0  0  0
   38.2980   23.9250   39.3320 N   0  0  0  0  0  0  0  0  0  0  0  0
   38.2910   25.0880   38.5090 C   0  0  0  0  0  0  0  0  0  0  0  0
   39.3170   25.7810   38.1940 O   0  0  0  0  0  0  0  0  0  0  0  0
   36.8210   25.0360   38.2910 C   0  0  1  0  0  3  0  0  0  0  0  0
   36.8410   23.9180   39.2640 C   0  0  1  0  0  3  0  0  0  0  0  0
   36.6550   22.2340   38.5510 S   0  0  0  0  0  0  0  0  0  0  0  0
   37.8820   20.3430   40.1370 C   0  0  0  0  0  2  0  0  0  0  0  0
   38.7690   19.6590   40.1820 H   0  0  0  0  0  0  0  0  0  0  0  0
   39.2850   21.3840   38.3140 C   0  0  0  0  0  2  0  0  0  0  0  0
   38.8700   21.6940   37.3140 H   0  0  0  0  0  0  0  0  0  0  0  0
   38.7250   34.6840   40.2480 C   0  0  0  0  0  0  0  0  0  0  0  0
   39.8520   34.9930   39.4900 F   0  0  0  0  0  0  0  0  0  0  0  0
   38.8950   35.3740   41.4560 F   0  0  0  0  0  0  0  0  0  0  0  0
   37.6180   35.0790   39.5610 F   0  0  0  0  0  0  0  0  0  0  0  0
  1  6  1  0  0  0  0
  2  1  2  0  0  0  0
  2  3  1  0  0  0  0
  3  4  2  0  0  0  0
  4  5  1  0  0  0  0
  5 16  1  0  0  0  0
  6  5  2  0  0  0  0
  7  9  1  0  0  0  0
  8  7  2  0  0  0  0
  9  1  1  0  0  0  0
  9 17  1  0  0  0  0
 10 14  1  0  0  0  0
 10  7  1  0  0  0  0
 11 10  1  0  0  0  0
 12 11  1  0  0  0  0
 12 13  1  0  0  0  0
 13 22  1  0  0  0  0
 13 23  1  0  0  0  0
 13 14  1  0  0  0  0
 14 24  1  1  0  0  0
 15  2  1  0  0  0  0
 18 11  1  0  0  0  0
 19 11  1  0  0  0  0
 20 12  1  0  0  0  0
 21 12  1  0  0  0  0
 25 26  2  0  0  0  0
 27 14  1  0  0  0  0
 27 25  1  0  0  0  0
 28 27  1  0  0  0  0
 29 37  1  0  0  0  0
 29 30  1  0  0  0  0
 31 30  1  0  0  0  0
 32 31  1  0  0  0  0
 33 32  2  0  0  0  0
 34 32  1  0  0  0  0
 34 25  1  1  0  0  0
 34 35  1  0  0  0  0
 35 36  1  6  0  0  0
 35 31  1  0  0  0  0
 36 29  1  0  0  0  0
 37 38  1  0  0  0  0
 39 29  1  0  0  0  0
 40 39  1  0  0  0  0
 41  3  1  0  0  0  0
 41 43  1  0  0  0  0
 42 41  1  0  0  0  0
 44 41  1  0  0  0  0
M  END
>  <minimizedAffinity>
-6.3037653

$$$$

 OpenBabel03252503333D

 44 47  0  0  1  0  0  0  0  0999 V2000
   42.6350   32.1380   42.3290 C   0  0  0  0  0  0  0  0  0  0  0  0
   43.1450   33.4580   42.1440 C   0  0  0  0  0  0  0  0  0  0  0  0
   44.5280   33.6190   42.3430 C   0  0  0  0  0  0  0  0  0  0  0  0
   45.2490   32.5370   42.6870 N   0  0  0  0  0  0  0  0  0  0  0  0
   44.7160   31.3080   42.8500 C   0  0  0  0  0  0  0  0  0  0  0  0
   43.3940   31.1150   42.6670 N   0  0  0  0  0  0  0  0  0  0  0  0
   40.8940   31.8720   40.7820 C   0  0  0  0  0  0  0  0  0  0  0  0
   41.7990   32.1080   39.9110 O   0  0  0  0  0  0  0  0  0  0  0  0
   41.2340   31.8850   42.1460 N   0  0  0  0  0  0  0  0  0  0  0  0
   39.5860   31.6050   40.2970 N   0  0  0  0  0  0  0  0  0  0  0  0
   39.2480   31.9330   38.8980 C   0  0  0  0  0  0  0  0  0  0  0  0
   37.7900   32.2640   38.9920 C   0  0  0  0  0  0  0  0  0  0  0  0
   37.3930   31.9970   40.4150 C   0  0  0  0  0  0  0  0  0  0  0  0
   38.4330   31.0210   40.9100 C   0  0  1  0  0  0  0  0  0  0  0  0
   42.4190   34.2000   41.8690 H   0  0  0  0  0  0  0  0  0  0  0  0
   45.3620   30.4640   43.1310 H   0  0  0  0  0  0  0  0  0  0  0  0
   40.4720   31.7200   42.8070 H   0  0  0  0  0  0  0  0  0  0  0  0
   39.4610   30.9910   38.3450 H   0  0  0  0  0  0  0  0  0  0  0  0
   39.8630   32.7430   38.5040 H   0  0  0  0  0  0  0  0  0  0  0  0
   37.6260   33.3200   38.6930 H   0  0  0  0  0  0  0  0  0  0  0  0
   37.2510   31.5470   38.3180 H   0  0  0  0  0  0  0  0  0  0  0  0
   36.3940   31.9690   40.6990 H   0  0  0  0  0  0  0  0  0  0  0  0
   37.7640   32.9520   40.9300 H   0  0  0  0  0  0  0  0  0  0  0  0
   38.4520   31.0260   41.9960 H   0  0  0  0  0  0  0  0  0  0  0  0
   38.4540   28.4740   41.2640 C   0  0  0  0  0  0  0  0  0  0  0  0
   38.5320   28.7950   42.4670 O   0  0  0  0  0  0  0  0  0  0  0  0
   38.2650   29.6540   40.4420 N   0  0  0  0  0  0  0  0  0  0  0  0
   37.9840   29.5310   39.4200 H   0  0  0  0  0  0  0  0  0  0  0  0
   36.5930   23.8400   40.0920 C   0  0  0  0  0  0  0  0  0  0  0  0
   36.7180   24.4350   41.5040 C   0  0  0  0  0  2  0  0  0  0  0  0
   37.8250   25.3870   41.4310 N   0  0  0  0  0  0  0  0  0  0  0  0
   39.0210   26.1590   41.4960 C   0  0  0  0  0  0  0  0  0  0  0  0
   40.0520   25.8740   42.1930 O   0  0  0  0  0  0  0  0  0  0  0  0
   38.5140   27.1890   40.5500 C   0  0  1  0  0  3  0  0  0  0  0  0
   37.2350   26.4420   40.6160 C   0  0  1  0  0  3  0  0  0  0  0  0
   36.8380   25.4050   39.1520 S   0  0  0  0  0  0  0  0  0  0  0  0
   35.2420   23.2700   39.8520 C   0  0  0  0  0  2  0  0  0  0  0  0
   35.2530   22.1560   39.9860 H   0  0  0  0  0  0  0  0  0  0  0  0
   37.7390   22.8970   39.9280 C   0  0  0  0  0  2  0  0  0  0  0  0
   38.4590   23.3790   39.2080 H   0  0  0  0  0  0  0  0  0  0  0  0
   45.0230   34.9750   42.1470 C   0  0  0  0  0  0  0  0  0  0  0  0
   43.9380   35.8480   42.1530 F   0  0  0  0  0  0  0  0  0  0  0  0
   45.5380   35.0400   40.8450 F   0  0  0  0  0  0  0  0  0  0  0  0
   45.9140   35.3800   43.0930 F   0  0  0  0  0  0  0  0  0  0  0  0
  1  6  1  0  0  0  0
  2  1  2  0  0  0  0
  2  3  1  0  0  0  0
  3  4  2  0  0  0  0
  4  5  1  0  0  0  0
  5 16  1  0  0  0  0
  6  5  2  0  0  0  0
  7  9  1  0  0  0  0
  8  7  2  0  0  0  0
  9  1  1  0  0  0  0
  9 17  1  0  0  0  0
 10  7  1  0  0  0  0
 10 14  1  0  0  0  0
 11 12  1  0  0  0  0
 11 10  1  0  0  0  0
 12 13  1  0  0  0  0
 13 22  1  0  0  0  0
 13 14  1  0  0  0  0
 13 23  1  0  0  0  0
 14 24  1  1  0  0  0
 15  2  1  0  0  0  0
 18 11  1  0  0  0  0
 19 11  1  0  0  0  0
 20 12  1  0  0  0  0
 21 12  1  0  0  0  0
 25 26  2  0  0  0  0
 27 14  1  0  0  0  0
 27 25  1  0  0  0  0
 28 27  1  0  0  0  0
 29 30  1  0  0  0  0
 31 32  1  0  0  0  0
 31 30  1  0  0  0  0
 32 33  2  0  0  0  0
 34 35  1  0  0  0  0
 34 25  1  1  0  0  0
 34 32  1  0  0  0  0
 35 36  1  6  0  0  0
 35 31  1  0  0  0  0
 36 29  1  0  0  0  0
 37 38  1  0  0  0  0
 37 29  1  0  0  0  0
 39 29  1  0  0  0  0
 40 39  1  0  0  0  0
 41 42  1  0  0  0  0
 41  3  1  0  0  0  0
 41 44  1  0  0  0  0
 43 41  1  0  0  0  0
M  END
>  <minimizedAffinity>
-6.25721312

$$$$

 OpenBabel03252503333D

 44 47  0  0  1  0  0  0  0  0999 V2000
   40.2040   31.1980   40.2700 C   0  0  0  0  0  0  0  0  0  0  0  0
   39.9700   32.4860   40.8370 C   0  0  0  0  0  0  0  0  0  0  0  0
   40.1250   33.5810   39.9670 C   0  0  0  0  0  0  0  0  0  0  0  0
   40.4740   33.3340   38.6920 N   0  0  0  0  0  0  0  0  0  0  0  0
   40.6830   32.0920   38.2050 C   0  0  0  0  0  0  0  0  0  0  0  0
   40.5440   31.0180   39.0100 N   0  0  0  0  0  0  0  0  0  0  0  0
   38.7150   29.7250   41.3240 C   0  0  0  0  0  0  0  0  0  0  0  0
   37.8120   30.4960   40.8510 O   0  0  0  0  0  0  0  0  0  0  0  0
   40.0680   30.0270   41.0870 N   0  0  0  0  0  0  0  0  0  0  0  0
   38.2760   28.5980   42.0670 N   0  0  0  0  0  0  0  0  0  0  0  0
   36.8800   28.5390   42.5430 C   0  0  0  0  0  0  0  0  0  0  0  0
   37.0090   27.7520   43.8110 C   0  0  0  0  0  0  0  0  0  0  0  0
   38.4490   27.3380   43.9000 C   0  0  0  0  0  0  0  0  0  0  0  0
   38.9370   27.3950   42.4730 C   0  0  1  0  0  0  0  0  0  0  0  0
   39.6990   32.4930   41.8760 H   0  0  0  0  0  0  0  0  0  0  0  0
   40.9660   31.9590   37.1520 H   0  0  0  0  0  0  0  0  0  0  0  0
   40.7550   29.3980   41.5100 H   0  0  0  0  0  0  0  0  0  0  0  0
   36.3440   27.9990   41.7310 H   0  0  0  0  0  0  0  0  0  0  0  0
   36.4480   29.5310   42.6780 H   0  0  0  0  0  0  0  0  0  0  0  0
   36.6890   28.3750   44.6730 H   0  0  0  0  0  0  0  0  0  0  0  0
   36.3690   26.8380   43.6920 H   0  0  0  0  0  0  0  0  0  0  0  0
   38.7620   26.6260   44.5900 H   0  0  0  0  0  0  0  0  0  0  0  0
   38.9290   28.2970   44.3080 H   0  0  0  0  0  0  0  0  0  0  0  0
   40.0220   27.4550   42.4590 H   0  0  0  0  0  0  0  0  0  0  0  0
   39.1620   25.8900   40.4000 C   0  0  0  0  0  0  0  0  0  0  0  0
   40.2690   26.4570   40.2970 O   0  0  0  0  0  0  0  0  0  0  0  0
   38.5080   26.2890   41.6320 N   0  0  0  0  0  0  0  0  0  0  0  0
   37.6510   25.7450   41.9590 H   0  0  0  0  0  0  0  0  0  0  0  0
   35.6460   24.7600   36.8410 C   0  0  0  0  0  0  0  0  0  0  0  0
   35.4490   25.6970   38.0440 C   0  0  0  0  0  2  0  0  0  0  0  0
   36.3820   25.2270   39.0650 N   0  0  0  0  0  0  0  0  0  0  0  0
   37.0990   24.6970   40.1770 C   0  0  0  0  0  0  0  0  0  0  0  0
   36.5740   24.2270   41.2430 O   0  0  0  0  0  0  0  0  0  0  0  0
   38.4260   24.9390   39.5530 C   0  0  1  0  0  3  0  0  0  0  0  0
   37.6600   25.6130   38.4780 C   0  0  1  0  0  3  0  0  0  0  0  0
   37.4840   24.6700   36.9100 S   0  0  0  0  0  0  0  0  0  0  0  0
   35.1810   25.3830   35.5750 C   0  0  0  0  0  2  0  0  0  0  0  0
   34.1580   25.0130   35.3030 H   0  0  0  0  0  0  0  0  0  0  0  0
   35.0030   23.4640   37.2060 C   0  0  0  0  0  2  0  0  0  0  0  0
   35.8340   22.7250   37.3860 H   0  0  0  0  0  0  0  0  0  0  0  0
   39.8800   34.8840   40.5710 C   0  0  0  0  0  0  0  0  0  0  0  0
   39.6460   35.8070   39.5550 F   0  0  0  0  0  0  0  0  0  0  0  0
   41.0810   35.2930   41.1670 F   0  0  0  0  0  0  0  0  0  0  0  0
   38.8250   34.9060   41.4300 F   0  0  0  0  0  0  0  0  0  0  0  0
  1  2  1  0  0  0  0
  1  9  1  0  0  0  0
  2 15  1  0  0  0  0
  3 41  1  0  0  0  0
  3  2  2  0  0  0  0
  4  3  1  0  0  0  0
  5  4  2  0  0  0  0
  5  6  1  0  0  0  0
  6  1  2  0  0  0  0
  7 10  1  0  0  0  0
  8  7  2  0  0  0  0
  9  7  1  0  0  0  0
  9 17  1  0  0  0  0
 10 14  1  0  0  0  0
 10 11  1  0  0  0  0
 11 19  1  0  0  0  0
 11 12  1  0  0  0  0
 12 13  1  0  0  0  0
 12 20  1  0  0  0  0
 13 23  1  0  0  0  0
 13 22  1  0  0  0  0
 14 24  1  6  0  0  0
 14 13  1  0  0  0  0
 16  5  1  0  0  0  0
 18 11  1  0  0  0  0
 21 12  1  0  0  0  0
 25 27  1  0  0  0  0
 26 25  2  0  0  0  0
 27 28  1  0  0  0  0
 27 14  1  0  0  0  0
 29 36  1  0  0  0  0
 29 39  1  0  0  0  0
 29 30  1  0  0  0  0
 30 31  1  0  0  0  0
 31 32  1  0  0  0  0
 32 33  2  0  0  0  0
 34 32  1  0  0  0  0
 34 25  1  1  0  0  0
 35 36  1  6  0  0  0
 35 31  1  0  0  0  0
 35 34  1  0  0  0  0
 37 29  1  0  0  0  0
 38 37  1  0  0  0  0
 39 40  1  0  0  0  0
 41 43  1  0  0  0  0
 41 44  1  0  0  0  0
 42 41  1  0  0  0  0
M  END
>  <minimizedAffinity>
-6.22857285

$$$$

 OpenBabel03252503333D

 44 47  0  0  1  0  0  0  0  0999 V2000
   36.2860   25.1800   38.9210 C   0  0  0  0  0  0  0  0  0  0  0  0
   35.9720   23.8400   39.2980 C   0  0  0  0  0  0  0  0  0  0  0  0
   35.8590   22.9130   38.2450 C   0  0  0  0  0  0  0  0  0  0  0  0
   36.0530   23.3520   36.9900 N   0  0  0  0  0  0  0  0  0  0  0  0
   36.3490   24.6340   36.6870 C   0  0  0  0  0  0  0  0  0  0  0  0
   36.4660   25.5510   37.6690 N   0  0  0  0  0  0  0  0  0  0  0  0
   37.6330   26.0550   40.6280 C   0  0  0  0  0  0  0  0  0  0  0  0
   38.4180   25.0900   40.3340 O   0  0  0  0  0  0  0  0  0  0  0  0
   36.4200   26.1900   39.9310 N   0  0  0  0  0  0  0  0  0  0  0  0
   38.0550   26.9380   41.6560 N   0  0  0  0  0  0  0  0  0  0  0  0
   39.1630   26.5410   42.5470 C   0  0  0  0  0  0  0  0  0  0  0  0
   38.8030   27.2290   43.8290 C   0  0  0  0  0  0  0  0  0  0  0  0
   37.5770   28.0440   43.5340 C   0  0  0  0  0  0  0  0  0  0  0  0
   37.6220   28.2470   42.0390 C   0  0  1  0  0  0  0  0  0  0  0  0
   35.8520   23.6720   40.3520 H   0  0  0  0  0  0  0  0  0  0  0  0
   36.4960   24.9280   35.6380 H   0  0  0  0  0  0  0  0  0  0  0  0
   35.8110   26.9590   40.2200 H   0  0  0  0  0  0  0  0  0  0  0  0
   40.0670   26.9600   42.0520 H   0  0  0  0  0  0  0  0  0  0  0  0
   39.2540   25.4580   42.6350 H   0  0  0  0  0  0  0  0  0  0  0  0
   38.6330   26.4730   44.6240 H   0  0  0  0  0  0  0  0  0  0  0  0
   39.6530   27.9170   44.0770 H   0  0  0  0  0  0  0  0  0  0  0  0
   37.2340   28.7610   44.2040 H   0  0  0  0  0  0  0  0  0  0  0  0
   36.7590   27.2440   43.5970 H   0  0  0  0  0  0  0  0  0  0  0  0
   36.6330   28.5150   41.6760 H   0  0  0  0  0  0  0  0  0  0  0  0
   38.2320   30.4990   40.9560 C   0  0  0  0  0  0  0  0  0  0  0  0
   37.0110   30.7220   41.0930 O   0  0  0  0  0  0  0  0  0  0  0  0
   38.5840   29.2390   41.5810 N   0  0  0  0  0  0  0  0  0  0  0  0
   39.6140   29.0040   41.7230 H   0  0  0  0  0  0  0  0  0  0  0  0
   41.0740   34.7090   40.2440 C   0  0  0  0  0  0  0  0  0  0  0  0
   39.5380   34.6510   40.2960 C   0  0  0  0  0  2  0  0  0  0  0  0
   39.1820   33.3010   39.8630 N   0  0  0  0  0  0  0  0  0  0  0  0
   38.7510   32.0910   39.2460 C   0  0  0  0  0  0  0  0  0  0  0  0
   38.1030   32.0070   38.1480 O   0  0  0  0  0  0  0  0  0  0  0  0
   39.3320   31.2340   40.3130 C   0  0  1  0  0  3  0  0  0  0  0  0
   39.6390   32.5110   41.0000 C   0  0  1  0  0  3  0  0  0  0  0  0
   41.3980   33.0410   40.9530 S   0  0  0  0  0  0  0  0  0  0  0  0
   41.6140   35.7830   41.1170 C   0  0  0  0  0  2  0  0  0  0  0  0
   41.8670   36.6940   40.5130 H   0  0  0  0  0  0  0  0  0  0  0  0
   41.4450   34.7910   38.8010 C   0  0  0  0  0  2  0  0  0  0  0  0
   41.8900   33.7950   38.5200 H   0  0  0  0  0  0  0  0  0  0  0  0
   35.5390   21.5530   38.6580 C   0  0  0  0  0  0  0  0  0  0  0  0
   36.5230   21.1120   39.5380 F   0  0  0  0  0  0  0  0  0  0  0  0
   35.6690   20.7380   37.5250 F   0  0  0  0  0  0  0  0  0  0  0  0
   34.3260   21.4310   39.2650 F   0  0  0  0  0  0  0  0  0  0  0  0
  1  2  1  0  0  0  0
  1  9  1  0  0  0  0
  2 15  1  0  0  0  0
  3 41  1  0  0  0  0
  3  2  2  0  0  0  0
  4  3  1  0  0  0  0
  5  4  2  0  0  0  0
  5  6  1  0  0  0  0
  6  1  2  0  0  0  0
  7 10  1  0  0  0  0
  8  7  2  0  0  0  0
  9 17  1  0  0  0  0
  9  7  1  0  0  0  0
 10 14  1  0  0  0  0
 10 11  1  0  0  0  0
 11 19  1  0  0  0  0
 11 12  1  0  0  0  0
 12 21  1  0  0  0  0
 12 20  1  0  0  0  0
 13 23  1  0  0  0  0
 13 12  1  0  0  0  0
 13 22  1  0  0  0  0
 14 24  1  6  0  0  0
 14 13  1  0  0  0  0
 16  5  1  0  0  0  0
 18 11  1  0  0  0  0
 25 26  2  0  0  0  0
 25 27  1  0  0  0  0
 27 28  1  0  0  0  0
 27 14  1  0  0  0  0
 29 30  1  0  0  0  0
 29 36  1  0  0  0  0
 29 37  1  0  0  0  0
 31 30  1  0  0  0  0
 31 35  1  0  0  0  0
 32 31  1  0  0  0  0
 32 34  1  0  0  0  0
 33 32  2  0  0  0  0
 34 25  1  1  0  0  0
 34 35  1  0  0  0  0
 35 36  1  6  0  0  0
 38 37  1  0  0  0  0
 39 29  1  0  0  0  0
 40 39  1  0  0  0  0
 41 44  1  0  0  0  0
 41 42  1  0  0  0  0
 43 41  1  0  0  0  0
M  END
>  <minimizedAffinity>
-6.22573853

$$$$

 OpenBabel03252503333D

 44 47  0  0  1  0  0  0  0  0999 V2000
   40.2620   30.4810   39.7580 C   0  0  0  0  0  0  0  0  0  0  0  0
   40.3590   31.8330   40.2030 C   0  0  0  0  0  0  0  0  0  0  0  0
   40.5450   32.8020   39.1990 C   0  0  0  0  0  0  0  0  0  0  0  0
   40.6150   32.3870   37.9220 N   0  0  0  0  0  0  0  0  0  0  0  0
   40.5170   31.0910   37.5540 C   0  0  0  0  0  0  0  0  0  0  0  0
   40.3380   30.1350   38.4880 N   0  0  0  0  0  0  0  0  0  0  0  0
   38.7510   29.4120   41.1960 C   0  0  0  0  0  0  0  0  0  0  0  0
   37.9260   30.2980   40.7860 O   0  0  0  0  0  0  0  0  0  0  0  0
   40.0720   29.4300   40.7150 N   0  0  0  0  0  0  0  0  0  0  0  0
   38.2610   28.4550   42.1230 N   0  0  0  0  0  0  0  0  0  0  0  0
   36.9820   28.7030   42.8180 C   0  0  0  0  0  0  0  0  0  0  0  0
   37.1940   28.0150   44.1320 C   0  0  0  0  0  0  0  0  0  0  0  0
   38.5340   27.3440   44.0390 C   0  0  0  0  0  0  0  0  0  0  0  0
   38.7650   27.1870   42.5550 C   0  0  1  0  0  0  0  0  0  0  0  0
   40.2800   31.9780   41.2640 H   0  0  0  0  0  0  0  0  0  0  0  0
   40.5820   30.8190   36.4920 H   0  0  0  0  0  0  0  0  0  0  0  0
   40.7030   28.7200   41.0930 H   0  0  0  0  0  0  0  0  0  0  0  0
   36.2260   28.2080   42.1680 H   0  0  0  0  0  0  0  0  0  0  0  0
   36.7590   29.7670   42.9050 H   0  0  0  0  0  0  0  0  0  0  0  0
   37.1440   28.7580   44.9550 H   0  0  0  0  0  0  0  0  0  0  0  0
   36.3950   27.2330   44.2200 H   0  0  0  0  0  0  0  0  0  0  0  0
   38.8360   26.6460   44.7470 H   0  0  0  0  0  0  0  0  0  0  0  0
   39.2370   28.2240   44.2530 H   0  0  0  0  0  0  0  0  0  0  0  0
   39.8240   27.0380   42.3630 H   0  0  0  0  0  0  0  0  0  0  0  0
   38.3660   24.7120   41.9850 C   0  0  0  0  0  0  0  0  0  0  0  0
   39.2520   24.5290   42.8440 O   0  0  0  0  0  0  0  0  0  0  0  0
   38.0090   26.1160   41.9250 N   0  0  0  0  0  0  0  0  0  0  0  0
   37.1350   26.4030   41.3850 H   0  0  0  0  0  0  0  0  0  0  0  0
   38.1520   21.6440   37.8790 C   0  0  0  0  0  0  0  0  0  0  0  0
   38.8060   23.0340   37.9380 C   0  0  0  0  0  2  0  0  0  0  0  0
   38.0950   23.7590   38.9900 N   0  0  0  0  0  0  0  0  0  0  0  0
   37.3130   24.5950   39.8380 C   0  0  0  0  0  0  0  0  0  0  0  0
   36.6350   25.6090   39.4600 O   0  0  0  0  0  0  0  0  0  0  0  0
   37.6480   23.8190   41.0620 C   0  0  1  0  0  3  0  0  0  0  0  0
   38.5640   23.0580   40.1800 C   0  0  1  0  0  3  0  0  0  0  0  0
   37.9940   21.3790   39.6950 S   0  0  0  0  0  0  0  0  0  0  0  0
   39.0520   20.6370   37.2600 C   0  0  0  0  0  2  0  0  0  0  0  0
   38.7800   20.4710   36.1850 H   0  0  0  0  0  0  0  0  0  0  0  0
   36.8270   21.8300   37.2180 C   0  0  0  0  0  2  0  0  0  0  0  0
   36.0420   21.7050   38.0170 H   0  0  0  0  0  0  0  0  0  0  0  0
   40.6400   34.1740   39.6800 C   0  0  0  0  0  0  0  0  0  0  0  0
   39.3570   34.7110   39.7450 F   0  0  0  0  0  0  0  0  0  0  0  0
   41.2980   34.9130   38.6880 F   0  0  0  0  0  0  0  0  0  0  0  0
   41.2230   34.2900   40.9050 F   0  0  0  0  0  0  0  0  0  0  0  0
  1  2  1  0  0  0  0
  1  9  1  0  0  0  0
  2 15  1  0  0  0  0
  3 41  1  0  0  0  0
  3  2  2  0  0  0  0
  4  3  1  0  0  0  0
  5  4  2  0  0  0  0
  5  6  1  0  0  0  0
  6  1  2  0  0  0  0
  7 10  1  0  0  0  0
  8  7  2  0  0  0  0
  9 17  1  0  0  0  0
  9  7  1  0  0  0  0
 10 14  1  0  0  0  0
 10 11  1  0  0  0  0
 11 19  1  0  0  0  0
 11 12  1  0  0  0  0
 12 21  1  0  0  0  0
 12 20  1  0  0  0  0
 13 12  1  0  0  0  0
 13 23  1  0  0  0  0
 13 22  1  0  0  0  0
 14 24  1  6  0  0  0
 14 13  1  0  0  0  0
 16  5  1  0  0  0  0
 18 11  1  0  0  0  0
 25 26  2  0  0  0  0
 27 25  1  0  0  0  0
 27 14  1  0  0  0  0
 28 27  1  0  0  0  0
 29 30  1  0  0  0  0
 29 36  1  0  0  0  0
 30 31  1  0  0  0  0
 31 32  1  0  0  0  0
 31 35  1  0  0  0  0
 32 34  1  0  0  0  0
 33 32  2  0  0  0  0
 34 25  1  1  0  0  0
 35 36  1  6  0  0  0
 35 34  1  0  0  0  0
 37 29  1  0  0  0  0
 38 37  1  0  0  0  0
 39 29  1  0  0  0  0
 39 40  1  0  0  0  0
 41 42  1  0  0  0  0
 41 44  1  0  0  0  0
 43 41  1  0  0  0  0
M  END
>  <minimizedAffinity>
-6.22202253

$$$$

 OpenBabel03252503333D

 44 47  0  0  1  0  0  0  0  0999 V2000
   39.8540   31.6200   41.2570 C   0  0  0  0  0  0  0  0  0  0  0  0
   39.7470   32.9250   40.6890 C   0  0  0  0  0  0  0  0  0  0  0  0
   40.9450   33.6580   40.5980 C   0  0  0  0  0  0  0  0  0  0  0  0
   42.0750   33.0840   41.0440 N   0  0  0  0  0  0  0  0  0  0  0  0
   42.1210   31.8430   41.5740 C   0  0  0  0  0  0  0  0  0  0  0  0
   40.9940   31.1100   41.6770 N   0  0  0  0  0  0  0  0  0  0  0  0
   38.2860   30.2790   40.1450 C   0  0  0  0  0  0  0  0  0  0  0  0
   38.9450   30.5930   39.0960 O   0  0  0  0  0  0  0  0  0  0  0  0
   38.6810   30.8040   41.3870 N   0  0  0  0  0  0  0  0  0  0  0  0
   37.1820   29.4020   39.9730 N   0  0  0  0  0  0  0  0  0  0  0  0
   36.6430   29.1680   38.6190 C   0  0  0  0  0  0  0  0  0  0  0  0
   35.1910   28.9190   38.8930 C   0  0  0  0  0  0  0  0  0  0  0  0
   35.0410   28.9300   40.3870 C   0  0  0  0  0  0  0  0  0  0  0  0
   36.4260   28.6140   40.8970 C   0  0  1  0  0  0  0  0  0  0  0  0
   38.7600   33.2190   40.3870 H   0  0  0  0  0  0  0  0  0  0  0  0
   43.0800   31.4320   41.9200 H   0  0  0  0  0  0  0  0  0  0  0  0
   38.1060   30.5480   42.1930 H   0  0  0  0  0  0  0  0  0  0  0  0
   37.1940   28.2680   38.2650 H   0  0  0  0  0  0  0  0  0  0  0  0
   36.8310   30.0070   37.9480 H   0  0  0  0  0  0  0  0  0  0  0  0
   34.5770   29.7000   38.3960 H   0  0  0  0  0  0  0  0  0  0  0  0
   34.9590   27.8920   38.5060 H   0  0  0  0  0  0  0  0  0  0  0  0
   34.1680   28.5970   40.8420 H   0  0  0  0  0  0  0  0  0  0  0  0
   35.0090   30.0560   40.5970 H   0  0  0  0  0  0  0  0  0  0  0  0
   36.5150   28.9300   41.9330 H   0  0  0  0  0  0  0  0  0  0  0  0
   37.8900   26.6010   41.5470 C   0  0  0  0  0  0  0  0  0  0  0  0
   38.2560   27.3590   42.4690 O   0  0  0  0  0  0  0  0  0  0  0  0
   36.8180   27.2170   40.7890 N   0  0  0  0  0  0  0  0  0  0  0  0
   36.2670   26.6190   40.0980 H   0  0  0  0  0  0  0  0  0  0  0  0
   39.0150   23.1770   37.8980 C   0  0  0  0  0  0  0  0  0  0  0  0
   37.7800   24.0930   37.9310 C   0  0  0  0  0  2  0  0  0  0  0  0
   37.5360   24.3710   39.3450 N   0  0  0  0  0  0  0  0  0  0  0  0
   37.1050   24.5060   40.6960 C   0  0  0  0  0  0  0  0  0  0  0  0
   36.0130   24.0480   41.1770 O   0  0  0  0  0  0  0  0  0  0  0  0
   38.3170   25.2660   41.1010 C   0  0  1  0  0  3  0  0  0  0  0  0
   38.6680   25.2340   39.6620 C   0  0  1  0  0  3  0  0  0  0  0  0
   39.9940   24.0520   39.1890 S   0  0  0  0  0  0  0  0  0  0  0  0
   39.6970   23.2200   36.5780 C   0  0  0  0  0  2  0  0  0  0  0  0
   39.4060   22.3350   35.9540 H   0  0  0  0  0  0  0  0  0  0  0  0
   38.5550   21.8320   38.3530 C   0  0  0  0  0  2  0  0  0  0  0  0
   38.9810   21.6710   39.3820 H   0  0  0  0  0  0  0  0  0  0  0  0
   40.8080   34.9860   40.0150 C   0  0  0  0  0  0  0  0  0  0  0  0
   41.3600   34.9680   38.7360 F   0  0  0  0  0  0  0  0  0  0  0  0
   41.6280   35.8480   40.7560 F   0  0  0  0  0  0  0  0  0  0  0  0
   39.5210   35.4220   39.9270 F   0  0  0  0  0  0  0  0  0  0  0  0
  1  9  1  0  0  0  0
  1  6  1  0  0  0  0
  2  1  2  0  0  0  0
  3  2  1  0  0  0  0
  3  4  2  0  0  0  0
  4  5  1  0  0  0  0
  5  6  2  0  0  0  0
  5 16  1  0  0  0  0
  7  9  1  0  0  0  0
  8  7  2  0  0  0  0
  9 17  1  0  0  0  0
 10  7  1  0  0  0  0
 10 14  1  0  0  0  0
 11 12  1  0  0  0  0
 11 10  1  0  0  0  0
 12 13  1  0  0  0  0
 13 23  1  0  0  0  0
 13 22  1  0  0  0  0
 13 14  1  0  0  0  0
 14 24  1  1  0  0  0
 15  2  1  0  0  0  0
 18 11  1  0  0  0  0
 19 11  1  0  0  0  0
 20 12  1  0  0  0  0
 21 12  1  0  0  0  0
 25 26  2  0  0  0  0
 27 14  1  0  0  0  0
 27 25  1  0  0  0  0
 28 27  1  0  0  0  0
 29 30  1  0  0  0  0
 29 39  1  0  0  0  0
 29 36  1  0  0  0  0
 30 31  1  0  0  0  0
 31 35  1  0  0  0  0
 31 32  1  0  0  0  0
 32 34  1  0  0  0  0
 32 33  2  0  0  0  0
 34 25  1  6  0  0  0
 35 36  1  1  0  0  0
 35 34  1  0  0  0  0
 37 29  1  0  0  0  0
 38 37  1  0  0  0  0
 39 40  1  0  0  0  0
 41  3  1  0  0  0  0
 41 43  1  0  0  0  0
 42 41  1  0  0  0  0
 44 41  1  0  0  0  0
M  END
>  <minimizedAffinity>
-6.0745821

$$$$
