
 OpenBabel03242520563D

 44 47  0  0  1  0  0  0  0  0999 V2000
   51.1710   32.1010   51.1360 C   0  0  0  0  0  0  0  0  0  0  0  0
   51.3130   30.9260   51.8740 C   0  0  0  0  0  0  0  0  0  0  0  0
   50.5180   29.8210   51.4990 C   0  0  0  0  0  0  0  0  0  0  0  0
   49.6720   29.9780   50.4590 N   0  0  0  0  0  0  0  0  0  0  0  0
   49.5640   31.1340   49.7760 C   0  0  0  0  0  0  0  0  0  0  0  0
   50.3210   32.2160   50.1120 N   0  0  0  0  0  0  0  0  0  0  0  0
   51.7090   32.9820   51.3120 H   0  0  0  0  0  0  0  0  0  0  0  0
   48.6110   31.2600   48.6800 C   0  0  0  0  0  0  0  0  0  0  0  0
   47.5500   32.0450   48.7500 C   0  0  0  0  0  0  0  0  0  0  0  0
   46.6080   32.1230   47.5930 C   0  0  0  0  0  0  0  0  0  0  0  0
   45.6080   32.3940   47.9850 H   0  0  0  0  0  0  0  0  0  0  0  0
   46.5230   31.0860   47.2440 H   0  0  0  0  0  0  0  0  0  0  0  0
   46.6310   32.7330   45.3450 C   0  0  0  0  0  0  0  0  0  0  0  0
   45.9940   31.7680   44.8340 O   0  0  0  0  0  0  0  0  0  0  0  0
   47.0130   33.0880   46.6340 N   0  0  0  0  0  0  0  0  0  0  0  0
   47.5190   33.9610   46.7910 H   0  0  0  0  0  0  0  0  0  0  0  0
   44.8970   35.0840   44.4770 Cl  0  0  0  0  0  0  0  0  0  0  0  0
   46.2920   34.5750   43.5660 C   0  0  0  0  0  0  0  0  0  0  0  0
   46.9280   33.5010   44.1250 C   0  0  0  0  0  0  0  0  0  0  0  0
   48.0690   32.9610   43.5120 C   0  0  0  0  0  0  0  0  0  0  0  0
   48.5750   33.4910   42.3430 C   0  0  0  0  0  0  0  0  0  0  0  0
   47.9190   34.5790   41.7910 C   0  0  0  0  0  0  0  0  0  0  0  0
   48.4740   35.3390   40.3170 Cl  0  0  0  0  0  0  0  0  0  0  0  0
   46.8030   35.1010   42.3980 C   0  0  0  0  0  0  0  0  0  0  0  0
   48.6520   32.1150   43.8500 H   0  0  0  0  0  0  0  0  0  0  0  0
   49.4410   33.1280   41.8160 H   0  0  0  0  0  0  0  0  0  0  0  0
   46.2380   35.9580   42.0270 H   0  0  0  0  0  0  0  0  0  0  0  0
   50.5660   28.6040   52.1220 O   0  0  0  0  0  0  0  0  0  0  0  0
   51.4820   27.6370   51.5510 C   0  0  0  0  0  0  0  0  0  0  0  0
   52.1330   28.2000   50.4480 F   0  0  0  0  0  0  0  0  0  0  0  0
   52.4610   27.3520   52.5010 F   0  0  0  0  0  0  0  0  0  0  0  0
   50.8500   26.4490   51.1990 F   0  0  0  0  0  0  0  0  0  0  0  0
   52.1070   30.8440   53.0880 C   0  0  0  0  0  0  0  0  0  0  0  0
   53.5550   31.1540   53.1190 C   0  0  1  0  0  0  0  0  0  0  0  0
   53.9940   32.5610   53.0140 C   0  0  0  0  0  0  0  0  0  0  0  0
   54.3700   33.0860   54.2990 N   0  0  0  0  0  0  0  0  0  0  0  0
   54.5050   33.9490   55.4240 C   0  0  0  0  0  0  0  0  0  0  0  0
   54.3420   35.1840   55.6430 O   0  0  0  0  0  0  0  0  0  0  0  0
   54.9390   32.8640   56.3450 C   0  0  0  0  0  0  0  0  0  0  0  0
   54.0800   32.4810   56.9100 H   0  0  0  0  0  0  0  0  0  0  0  0
   55.2080   32.1400   55.0590 C   0  0  1  0  0  0  0  0  0  0  0  0
   54.1720   30.6480   54.7770 S   0  0  0  0  0  0  0  0  0  0  0  0
   54.2900   30.2550   52.1180 C   0  0  0  0  0  0  0  0  0  0  0  0
   55.3250   30.0000   52.5630 H   0  0  0  0  0  0  0  0  0  0  0  0
  1  7  1  0  0  0  0
  1  2  1  0  0  0  0
  2 33  1  0  0  0  0
  3  2  2  0  0  0  0
  3 28  1  0  0  0  0
  4  3  1  0  0  0  0
  5  6  1  0  0  0  0
  5  4  2  0  0  0  0
  6  1  2  0  0  0  0
  8  9  2  0  0  0  0
  8  5  1  0  0  0  0
 10 11  1  0  0  0  0
 10  9  1  0  0  0  0
 12 10  1  0  0  0  0
 13 15  1  0  0  0  0
 14 13  2  0  0  0  0
 15 16  1  0  0  0  0
 15 10  1  0  0  0  0
 18 19  1  0  0  0  0
 18 17  1  0  0  0  0
 19 13  1  0  0  0  0
 20 25  1  0  0  0  0
 20 19  2  0  0  0  0
 21 20  1  0  0  0  0
 22 21  2  0  0  0  0
 22 24  1  0  0  0  0
 23 22  1  0  0  0  0
 24 18  2  0  0  0  0
 26 21  1  0  0  0  0
 27 24  1  0  0  0  0
 29 28  1  0  0  0  0
 29 31  1  0  0  0  0
 30 29  1  0  0  0  0
 32 29  1  0  0  0  0
 33 34  1  0  0  0  0
 34 43  1  6  0  0  0
 34 42  1  0  0  0  0
 35 34  1  0  0  0  0
 35 36  1  0  0  0  0
 36 41  1  0  0  0  0
 36 37  1  0  0  0  0
 37 38  2  0  0  0  0
 37 39  1  0  0  0  0
 39 40  1  0  0  0  0
 41 42  1  1  0  0  0
 41 39  1  0  0  0  0
 43 44  1  0  0  0  0
M  END
>  <minimizedAffinity>
-7.09601593

>  <minimizedRMSD>
1.26161218

$$$$
