
 OpenBabel03242519103D

 50 54  0  0  1  0  0  0  0  0999 V2000
   49.3660   32.3220   37.0420 C   0  0  0  0  0  0  0  0  0  0  0  0
   48.5620   32.7370   38.1260 C   0  0  0  0  0  0  0  0  0  0  0  0
   47.2480   32.9720   37.7780 C   0  0  0  0  0  0  0  0  0  0  0  0
   46.7140   32.8350   36.5280 C   0  0  0  0  0  0  0  0  0  0  0  0
   47.5380   32.4260   35.4970 C   0  0  0  0  0  0  0  0  0  0  0  0
   48.8530   32.1770   35.7770 C   0  0  0  0  0  0  0  0  0  0  0  0
   46.6010   33.2920   38.5840 H   0  0  0  0  0  0  0  0  0  0  0  0
   45.6700   33.0340   36.3080 H   0  0  0  0  0  0  0  0  0  0  0  0
   47.1450   32.3090   34.4960 H   0  0  0  0  0  0  0  0  0  0  0  0
   49.2980   32.1150   33.3650 C   0  0  0  0  0  0  0  0  0  0  0  0
   48.2420   32.7960   33.1600 O   0  0  0  0  0  0  0  0  0  0  0  0
   49.6760   31.7560   34.6880 N   0  0  0  0  0  0  0  0  0  0  0  0
   50.5180   31.2050   34.9190 H   0  0  0  0  0  0  0  0  0  0  0  0
   47.8360   28.7330   31.4030 C   0  0  0  0  0  0  0  0  0  0  0  0
   48.5430   29.4170   30.2700 C   0  0  0  0  0  0  0  0  0  0  0  0
   49.2010   30.5930   30.7570 N   0  0  0  0  0  0  0  0  0  0  0  0
   49.6550   31.9230   30.9730 C   0  0  0  0  0  0  0  0  0  0  0  0
   49.5880   32.9940   30.2800 O   0  0  0  0  0  0  0  0  0  0  0  0
   50.2430   31.6210   32.3060 C   0  0  2  0  0  0  0  0  0  0  0  0
   50.0840   30.2170   31.8700 C   0  0  1  0  0  0  0  0  0  0  0  0
   48.8580   29.2420   32.8250 S   0  0  0  0  0  0  0  0  0  0  0  0
   46.4010   29.1040   31.5670 C   0  0  0  0  0  0  0  0  0  0  0  0
   46.0940   30.0400   31.0910 H   0  0  0  0  0  0  0  0  0  0  0  0
   47.9680   27.2400   31.1610 C   0  0  0  0  0  0  0  0  0  0  0  0
   49.0250   26.9090   31.2090 H   0  0  0  0  0  0  0  0  0  0  0  0
   49.0260   32.9040   39.4410 N   0  0  0  0  0  0  0  0  0  0  0  0
   50.0700   32.9520   39.4030 H   0  0  0  0  0  0  0  0  0  0  0  0
   47.6840   34.1950   42.4720 N   0  0  0  0  0  0  0  0  0  0  0  0
   47.9230   34.3920   41.0430 C   0  0  0  0  0  0  0  0  0  0  0  0
   48.3560   33.0060   40.6930 C   0  0  2  0  0  0  0  0  0  0  0  0
   49.3530   32.6810   41.7890 C   0  0  0  0  0  0  0  0  0  0  0  0
   48.7970   33.4350   42.9730 C   0  0  0  0  0  0  0  0  0  0  0  0
   48.7510   35.0990   40.8590 H   0  0  0  0  0  0  0  0  0  0  0  0
   46.9860   34.6680   40.5190 H   0  0  0  0  0  0  0  0  0  0  0  0
   47.4630   32.3510   40.7490 H   0  0  0  0  0  0  0  0  0  0  0  0
   49.4040   31.5920   41.9900 H   0  0  0  0  0  0  0  0  0  0  0  0
   50.3210   33.1320   41.5170 H   0  0  0  0  0  0  0  0  0  0  0  0
   48.4360   32.7200   43.7610 H   0  0  0  0  0  0  0  0  0  0  0  0
   49.5360   34.0970   43.4470 H   0  0  0  0  0  0  0  0  0  0  0  0
   44.7510   36.0430   43.8640 C   0  0  0  0  0  0  0  0  0  0  0  0
   45.7830   35.7010   42.9980 C   0  0  0  0  0  0  0  0  0  0  0  0
   46.6180   34.6170   43.2810 C   0  0  0  0  0  0  0  0  0  0  0  0
   46.3540   33.9480   44.4260 N   0  0  0  0  0  0  0  0  0  0  0  0
   45.3660   34.2620   45.2720 C   0  0  0  0  0  0  0  0  0  0  0  0
   44.5600   35.3250   44.9760 N   0  0  0  0  0  0  0  0  0  0  0  0
   44.1590   36.8940   43.5610 H   0  0  0  0  0  0  0  0  0  0  0  0
   46.0390   36.2020   42.0680 H   0  0  0  0  0  0  0  0  0  0  0  0
   45.1840   33.6970   46.1880 H   0  0  0  0  0  0  0  0  0  0  0  0
   51.8690   31.8440   37.5420 N   0  0  0  0  0  0  0  0  0  0  0  0
   50.7570   32.0560   37.3300 C   0  0  0  0  0  0  0  0  0  0  0  0
  1 50  1  0  0  0  0
  1  2  1  0  0  0  0
  2 26  1  0  0  0  0
  3  2  2  0  0  0  0
  3  7  1  0  0  0  0
  4  3  1  0  0  0  0
  5  6  1  0  0  0  0
  5  4  2  0  0  0  0
  6  1  2  0  0  0  0
  8  4  1  0  0  0  0
  9  5  1  0  0  0  0
 10 12  1  0  0  0  0
 11 10  2  0  0  0  0
 12 13  1  0  0  0  0
 12  6  1  0  0  0  0
 14 22  1  0  0  0  0
 14 21  1  0  0  0  0
 15 16  1  0  0  0  0
 15 14  1  0  0  0  0
 16 17  1  0  0  0  0
 16 20  1  0  0  0  0
 17 19  1  0  0  0  0
 18 17  2  0  0  0  0
 19 10  1  1  0  0  0
 20 19  1  0  0  0  0
 20 21  1  1  0  0  0
 23 22  1  0  0  0  0
 24 25  1  0  0  0  0
 24 14  1  0  0  0  0
 26 30  1  0  0  0  0
 27 26  1  0  0  0  0
 28 32  1  0  0  0  0
 28 42  1  0  0  0  0
 29 28  1  0  0  0  0
 30 35  1  1  0  0  0
 30 29  1  0  0  0  0
 30 31  1  0  0  0  0
 31 36  1  0  0  0  0
 31 32  1  0  0  0  0
 32 39  1  0  0  0  0
 32 38  1  0  0  0  0
 33 29  1  0  0  0  0
 34 29  1  0  0  0  0
 37 31  1  0  0  0  0
 40 45  1  0  0  0  0
 41 42  1  0  0  0  0
 41 40  2  0  0  0  0
 42 43  2  0  0  0  0
 43 44  1  0  0  0  0
 44 48  1  0  0  0  0
 45 44  2  0  0  0  0
 46 40  1  0  0  0  0
 47 41  1  0  0  0  0
 50 49  3  0  0  0  0
M  END
>  <minimizedAffinity>
-6.69442654

>  <minimizedRMSD>
0.770674825

$$$$
