
 OpenBabel03242518553D

 45 48  0  0  1  0  0  0  0  0999 V2000
   46.1100   31.2120   46.4840 C   0  0  2  0  0  0  0  0  0  0  0  0
   45.0650   30.7720   47.4590 C   0  0  0  0  0  0  0  0  0  0  0  0
   44.6940   29.3740   47.0970 C   0  0  0  0  0  0  0  0  0  0  0  0
   45.3440   28.8270   45.8750 C   0  0  0  0  0  0  0  0  0  0  0  0
   46.8400   28.9340   45.9820 C   0  0  0  0  0  0  0  0  0  0  0  0
   47.2570   30.2220   46.5170 C   0  0  2  0  0  0  0  0  0  0  0  0
   45.7050   31.1210   45.4550 H   0  0  0  0  0  0  0  0  0  0  0  0
   45.3390   30.8790   48.5140 H   0  0  0  0  0  0  0  0  0  0  0  0
   44.1910   31.4850   47.3300 H   0  0  0  0  0  0  0  0  0  0  0  0
   44.7850   28.6340   47.9330 H   0  0  0  0  0  0  0  0  0  0  0  0
   43.5870   29.3700   46.8810 H   0  0  0  0  0  0  0  0  0  0  0  0
   45.0570   27.7490   45.8210 H   0  0  0  0  0  0  0  0  0  0  0  0
   44.9420   29.2780   44.9300 H   0  0  0  0  0  0  0  0  0  0  0  0
   47.2010   28.0130   46.4730 H   0  0  0  0  0  0  0  0  0  0  0  0
   47.2230   28.8470   44.9230 H   0  0  0  0  0  0  0  0  0  0  0  0
   48.0970   30.6540   45.9700 H   0  0  0  0  0  0  0  0  0  0  0  0
   47.6780   29.9650   47.9240 C   0  0  0  0  0  0  0  0  0  0  0  0
   47.2850   29.0320   48.3700 H   0  0  0  0  0  0  0  0  0  0  0  0
   47.3030   30.8130   48.5400 H   0  0  0  0  0  0  0  0  0  0  0  0
   51.8720   27.7450   49.9260 C   0  0  0  0  0  0  0  0  0  0  0  0
   50.8150   28.4340   50.7550 C   0  0  0  0  0  0  0  0  0  0  0  0
   50.1810   29.4390   49.9280 N   0  0  0  0  0  0  0  0  0  0  0  0
   49.6630   30.6160   49.3190 C   0  0  0  0  0  0  0  0  0  0  0  0
   49.6400   31.8170   49.7480 O   0  0  0  0  0  0  0  0  0  0  0  0
   49.2000   29.9360   48.0840 C   0  0  1  0  0  0  0  0  0  0  0  0
   49.5740   28.6790   48.8310 C   0  0  1  0  0  0  0  0  0  0  0  0
   51.1290   27.8890   48.2500 S   0  0  0  0  0  0  0  0  0  0  0  0
   51.9390   26.2620   50.2240 C   0  0  0  0  0  0  0  0  0  0  0  0
   51.8960   26.0290   51.3060 H   0  0  0  0  0  0  0  0  0  0  0  0
   53.2130   28.4070   50.0100 C   0  0  0  0  0  0  0  0  0  0  0  0
   53.2630   28.9220   51.0140 H   0  0  0  0  0  0  0  0  0  0  0  0
   46.5570   32.6150   46.6610 C   0  0  0  0  0  0  0  0  0  0  0  0
   47.3170   32.9740   47.5960 O   0  0  0  0  0  0  0  0  0  0  0  0
   44.6290   35.3080   45.1210 C   0  0  0  0  0  0  0  0  0  0  0  0
   45.1630   35.4160   43.8130 C   0  0  0  0  0  0  0  0  0  0  0  0
   46.1920   34.5470   43.4970 C   0  0  0  0  0  0  0  0  0  0  0  0
   46.5570   33.7080   44.4680 N   0  0  0  0  0  0  0  0  0  0  0  0
   46.0670   33.5990   45.6860 C   0  0  0  0  0  0  0  0  0  0  0  0
   45.0690   34.4300   46.0200 N   0  0  0  0  0  0  0  0  0  0  0  0
   43.8110   35.9790   45.4130 H   0  0  0  0  0  0  0  0  0  0  0  0
   44.7560   36.1520   43.1360 H   0  0  0  0  0  0  0  0  0  0  0  0
   46.7410   34.6470   42.1540 C   0  0  0  0  0  0  0  0  0  0  0  0
   47.4590   33.4940   41.8550 F   0  0  0  0  0  0  0  0  0  0  0  0
   47.5870   35.7070   42.1520 F   0  0  0  0  0  0  0  0  0  0  0  0
   45.7510   34.7300   41.1830 F   0  0  0  0  0  0  0  0  0  0  0  0
  1  7  1  6  0  0  0
  1  6  1  0  0  0  0
  1 32  1  0  0  0  0
  1  2  1  0  0  0  0
  2  8  1  0  0  0  0
  3  2  1  0  0  0  0
  3 10  1  0  0  0  0
  4  5  1  0  0  0  0
  4  3  1  0  0  0  0
  5 14  1  0  0  0  0
  5  6  1  0  0  0  0
  6 16  1  6  0  0  0
  6 17  1  0  0  0  0
  9  2  1  0  0  0  0
 11  3  1  0  0  0  0
 12  4  1  0  0  0  0
 13  4  1  0  0  0  0
 15  5  1  0  0  0  0
 17 18  1  0  0  0  0
 17 19  1  0  0  0  0
 20 30  1  0  0  0  0
 20 28  1  0  0  0  0
 20 21  1  0  0  0  0
 22 21  1  0  0  0  0
 23 24  2  0  0  0  0
 23 22  1  0  0  0  0
 25 17  1  1  0  0  0
 25 26  1  0  0  0  0
 25 23  1  0  0  0  0
 26 27  1  6  0  0  0
 26 22  1  0  0  0  0
 27 20  1  0  0  0  0
 28 29  1  0  0  0  0
 30 31  1  0  0  0  0
 32 33  2  0  0  0  0
 34 40  1  0  0  0  0
 34 39  1  0  0  0  0
 35 34  2  0  0  0  0
 36 35  1  0  0  0  0
 36 37  2  0  0  0  0
 37 38  1  0  0  0  0
 38 39  2  0  0  0  0
 38 32  1  0  0  0  0
 41 35  1  0  0  0  0
 42 36  1  0  0  0  0
 43 42  1  0  0  0  0
 44 42  1  0  0  0  0
 45 42  1  0  0  0  0
M  END
>  <minimizedAffinity>
-6.14999962

>  <minimizedRMSD>
3.4349978

$$$$
