
 OpenBabel03242511513D

 30 33  0  0  1  0  0  0  0  0999 V2000
   45.6580   34.8120   41.3340 C   0  0  1  0  0  0  0  0  0  0  0  0
   46.9760   34.3020   40.8880 C   0  0  2  0  0  0  0  0  0  0  0  0
   45.7840   33.4710   40.6950 C   0  0  0  0  0  0  0  0  0  0  0  0
   45.1710   35.6070   40.7430 H   0  0  0  0  0  0  0  0  0  0  0  0
   47.3470   34.8640   39.9820 H   0  0  0  0  0  0  0  0  0  0  0  0
   45.5200   32.6160   41.3220 H   0  0  0  0  0  0  0  0  0  0  0  0
   45.3950   33.3250   39.6440 H   0  0  0  0  0  0  0  0  0  0  0  0
   45.0240   36.1860   43.3000 C   0  0  0  0  0  0  0  0  0  0  0  0
   45.3410   34.9280   42.7850 C   0  0  0  0  0  0  0  0  0  0  0  0
   45.3400   33.8200   43.6460 C   0  0  0  0  0  0  0  0  0  0  0  0
   45.0230   34.0480   44.9640 N   0  0  0  0  0  0  0  0  0  0  0  0
   44.7220   35.2770   45.4260 C   0  0  0  0  0  0  0  0  0  0  0  0
   44.7210   36.3670   44.5860 N   0  0  0  0  0  0  0  0  0  0  0  0
   45.0120   37.0610   42.6770 H   0  0  0  0  0  0  0  0  0  0  0  0
   45.5830   32.8430   43.2610 H   0  0  0  0  0  0  0  0  0  0  0  0
   44.5020   35.2430   46.4880 H   0  0  0  0  0  0  0  0  0  0  0  0
   47.9570   33.9190   41.9070 C   0  0  0  0  0  0  0  0  0  0  0  0
   48.5050   34.8420   42.4390 O   0  0  0  0  0  0  0  0  0  0  0  0
   48.4090   30.0630   40.8750 C   0  0  0  0  0  0  0  0  0  0  0  0
   49.7640   30.4620   41.2500 C   0  0  0  0  0  0  0  0  0  0  0  0
   49.8100   31.6910   41.9130 N   0  0  0  0  0  0  0  0  0  0  0  0
   50.1950   32.9780   42.2960 C   0  0  0  0  0  0  0  0  0  0  0  0
   51.2420   33.7060   42.2330 O   0  0  0  0  0  0  0  0  0  0  0  0
   48.8500   33.2320   42.8490 C   0  0  2  0  0  0  0  0  0  0  0  0
   48.7820   31.7300   42.8800 C   0  0  1  0  0  0  0  0  0  0  0  0
   47.3620   31.0220   42.0020 S   0  0  0  0  0  0  0  0  0  0  0  0
   48.0470   30.2970   39.4330 C   0  0  0  0  0  0  0  0  0  0  0  0
   48.9620   30.6720   38.8940 H   0  0  0  0  0  0  0  0  0  0  0  0
   48.1800   28.5930   41.2320 C   0  0  0  0  0  0  0  0  0  0  0  0
   48.7250   27.9490   40.5050 H   0  0  0  0  0  0  0  0  0  0  0  0
  1  4  1  6  0  0  0
  1  9  1  0  0  0  0
  2  5  1  6  0  0  0
  2  1  1  0  0  0  0
  2 17  1  0  0  0  0
  3  2  1  0  0  0  0
  3  6  1  0  0  0  0
  3  1  1  0  0  0  0
  7  3  1  0  0  0  0
  8 13  1  0  0  0  0
  9  8  2  0  0  0  0
  9 10  1  0  0  0  0
 10 11  2  0  0  0  0
 11 12  1  0  0  0  0
 12 16  1  0  0  0  0
 13 12  2  0  0  0  0
 14  8  1  0  0  0  0
 15 10  1  0  0  0  0
 17 18  2  0  0  0  0
 19 29  1  0  0  0  0
 19 20  1  0  0  0  0
 19 26  1  0  0  0  0
 20 21  1  0  0  0  0
 21 22  1  0  0  0  0
 21 25  1  0  0  0  0
 22 24  1  0  0  0  0
 23 22  2  0  0  0  0
 24 17  1  6  0  0  0
 24 25  1  0  0  0  0
 25 26  1  6  0  0  0
 27 19  1  0  0  0  0
 28 27  1  0  0  0  0
 30 29  1  0  0  0  0
M  END
>  <minimizedAffinity>
-4.43443298

>  <minimizedRMSD>
2.60913944

$$$$
