
 OpenBabel03252508513D

 31 34  0  0  1  0  0  0  0  0999 V2000
   45.7400   34.1420   40.9730 C   0  0  0  0  0  0  0  0  0  0  0  0
   46.4030   34.7010   42.0640 C   0  0  0  0  0  0  0  0  0  0  0  0
   47.7720   34.9470   41.9250 C   0  0  0  0  0  0  0  0  0  0  0  0
   48.3680   34.6270   40.7420 N   0  0  0  0  0  0  0  0  0  0  0  0
   47.6940   34.0910   39.7170 C   0  0  0  0  0  0  0  0  0  0  0  0
   46.3720   33.8480   39.8370 N   0  0  0  0  0  0  0  0  0  0  0  0
   48.2790   35.3740   42.7570 H   0  0  0  0  0  0  0  0  0  0  0  0
   48.1500   33.8310   38.7700 H   0  0  0  0  0  0  0  0  0  0  0  0
   45.6590   35.0040   43.2880 C   0  0  0  0  0  0  0  0  0  0  0  0
   45.1010   36.2500   43.5390 C   0  0  0  0  0  0  0  0  0  0  0  0
   44.5090   36.0900   44.7750 C   0  0  0  0  0  0  0  0  0  0  0  0
   44.6950   34.8320   45.2440 N   0  0  0  0  0  0  0  0  0  0  0  0
   45.3910   34.2000   44.3250 N   0  0  0  0  0  0  0  0  0  0  0  0
   45.1050   37.1630   42.9330 H   0  0  0  0  0  0  0  0  0  0  0  0
   43.9600   36.8570   45.3230 H   0  0  0  0  0  0  0  0  0  0  0  0
   44.3310   34.4900   46.1630 H   0  0  0  0  0  0  0  0  0  0  0  0
   44.3930   33.8940   41.0920 O   0  0  0  0  0  0  0  0  0  0  0  0
   43.3680   34.6800   40.6470 C   0  0  0  0  0  0  0  0  0  0  0  0
   43.2870   35.9510   40.6850 O   0  0  0  0  0  0  0  0  0  0  0  0
   39.6130   32.0410   38.3670 C   0  0  0  0  0  0  0  0  0  0  0  0
   39.5490   32.0430   39.8810 C   0  0  0  0  0  2  0  0  0  0  0  0
   40.4180   33.1120   40.3380 N   0  0  0  0  0  0  0  0  0  0  0  0
   40.9300   34.3010   40.9760 C   0  0  0  0  0  0  0  0  0  0  0  0
   40.4580   34.9070   41.9980 O   0  0  0  0  0  0  0  0  0  0  0  0
   42.0390   34.3780   39.9940 C   0  0  2  0  0  3  0  0  0  0  0  0
   41.7630   32.9180   39.8310 C   0  0  2  0  0  3  0  0  0  0  0  0
   41.3930   32.4100   38.1160 S   0  0  0  0  0  0  0  0  0  0  0  0
   39.2790   30.6710   37.8220 C   0  0  0  0  0  2  0  0  0  0  0  0
   38.5230   30.1630   38.4570 H   0  0  0  0  0  0  0  0  0  0  0  0
   38.7240   33.0660   37.7320 C   0  0  0  0  0  2  0  0  0  0  0  0
   39.1500   34.0900   37.7010 H   0  0  0  0  0  0  0  0  0  0  0  0
  1 17  1  0  0  0  0
  1  2  1  0  0  0  0
  2  9  1  0  0  0  0
  3  2  2  0  0  0  0
  3  7  1  0  0  0  0
  4  3  1  0  0  0  0
  5  6  1  0  0  0  0
  5  4  2  0  0  0  0
  6  1  2  0  0  0  0
  8  5  1  0  0  0  0
  9 10  1  0  0  0  0
  9 13  2  0  0  0  0
 10 11  2  0  0  0  0
 11 12  1  0  0  0  0
 11 15  1  0  0  0  0
 12 16  1  0  0  0  0
 13 12  1  0  0  0  0
 14 10  1  0  0  0  0
 18 19  2  0  0  0  0
 18 17  1  0  0  0  0
 20 21  1  0  0  0  0
 21 22  1  0  0  0  0
 22 23  1  0  0  0  0
 23 24  2  0  0  0  0
 25 18  1  1  0  0  0
 25 23  1  0  0  0  0
 26 27  1  6  0  0  0
 26 25  1  0  0  0  0
 26 22  1  0  0  0  0
 27 20  1  0  0  0  0
 28 20  1  0  0  0  0
 28 29  1  0  0  0  0
 30 20  1  0  0  0  0
 31 30  1  0  0  0  0
M  END
>  <minimizedAffinity>
-6.06902409

>  <minimizedRMSD>
1.38986719

$$$$
