
 OpenBabel03252508233D

 51 56  0  0  1  0  0  0  0  0999 V2000
   44.9760   33.3500   40.7840 C   0  0  0  0  0  0  0  0  0  0  0  0
   45.1180   32.2360   40.8720 H   0  0  0  0  0  0  0  0  0  0  0  0
   44.5750   33.6640   41.7540 H   0  0  0  0  0  0  0  0  0  0  0  0
   46.2880   33.9100   40.4590 C   0  0  0  0  0  0  0  0  0  0  0  0
   46.9170   33.7550   39.2420 C   0  0  0  0  0  0  0  0  0  0  0  0
   48.1450   34.2820   38.9300 C   0  0  0  0  0  0  0  0  0  0  0  0
   48.7680   35.0200   39.9470 C   0  0  0  0  0  0  0  0  0  0  0  0
   48.1830   35.2010   41.1750 C   0  0  0  0  0  0  0  0  0  0  0  0
   46.9650   34.6580   41.4360 C   0  0  0  0  0  0  0  0  0  0  0  0
   46.5110   33.1960   38.4130 H   0  0  0  0  0  0  0  0  0  0  0  0
   48.6600   34.1820   37.9980 H   0  0  0  0  0  0  0  0  0  0  0  0
   49.7510   35.4650   39.7550 H   0  0  0  0  0  0  0  0  0  0  0  0
   48.7380   35.7870   41.9060 H   0  0  0  0  0  0  0  0  0  0  0  0
   46.4540   34.8950   42.7290 N   0  0  0  0  0  0  0  0  0  0  0  0
   45.5410   35.9470   43.0640 C   0  0  0  0  0  0  0  0  0  0  0  0
   44.8170   35.6570   44.3620 C   0  0  0  0  0  0  0  0  0  0  0  0
   44.4710   34.2890   44.5580 N   0  0  0  0  0  0  0  0  0  0  0  0
   45.5530   33.3810   44.4270 C   0  0  0  0  0  0  0  0  0  0  0  0
   46.7810   34.1020   43.9250 C   0  0  0  0  0  0  0  0  0  0  0  0
   44.9120   36.3330   42.2600 H   0  0  0  0  0  0  0  0  0  0  0  0
   46.2080   36.8230   43.3260 H   0  0  0  0  0  0  0  0  0  0  0  0
   43.8570   36.2410   44.3350 H   0  0  0  0  0  0  0  0  0  0  0  0
   45.4150   35.9730   45.2600 H   0  0  0  0  0  0  0  0  0  0  0  0
   43.9770   34.2200   45.4510 H   0  0  0  0  0  0  0  0  0  0  0  0
   45.7790   32.9820   45.4390 H   0  0  0  0  0  0  0  0  0  0  0  0
   45.3440   32.5400   43.7090 H   0  0  0  0  0  0  0  0  0  0  0  0
   47.4660   33.3050   43.5500 H   0  0  0  0  0  0  0  0  0  0  0  0
   47.2380   34.7510   44.6850 H   0  0  0  0  0  0  0  0  0  0  0  0
   43.9650   33.6120   39.6900 C   0  0  0  0  0  0  0  0  0  0  0  0
   43.7200   32.6540   39.1430 H   0  0  0  0  0  0  0  0  0  0  0  0
   44.2420   34.3460   38.9520 H   0  0  0  0  0  0  0  0  0  0  0  0
   41.4310   35.5000   41.7560 C   0  0  0  0  0  0  0  0  0  0  0  0
   42.6650   35.1100   41.1920 C   0  0  0  0  0  0  0  0  0  0  0  0
   42.6840   34.0350   40.3010 C   0  0  0  0  0  0  0  0  0  0  0  0
   41.4950   33.4070   40.0160 N   0  0  0  0  0  0  0  0  0  0  0  0
   40.3440   33.8120   40.5780 C   0  0  0  0  0  0  0  0  0  0  0  0
   40.3070   34.8490   41.4400 N   0  0  0  0  0  0  0  0  0  0  0  0
   41.4000   36.3270   42.4450 H   0  0  0  0  0  0  0  0  0  0  0  0
   43.5600   35.6600   41.4700 H   0  0  0  0  0  0  0  0  0  0  0  0
   39.2020   32.9750   40.1110 C   0  0  0  0  0  0  0  0  0  0  0  0
   39.3400   31.6290   40.8330 C   0  0  2  0  0  0  0  0  0  0  0  0
   39.9940   30.6760   39.9090 C   0  0  0  0  0  0  0  0  0  0  0  0
   39.1040   29.6640   39.4670 N   0  0  2  0  0  0  0  0  0  0  0  0
   38.7720   28.4090   38.8940 C   0  0  1  0  0  0  0  0  0  0  0  0
   39.2550   27.6450   37.9950 O   0  0  0  0  0  0  0  0  0  0  0  0
   37.5920   28.4000   39.8340 C   0  0  0  0  0  0  0  0  0  0  0  0
   36.7080   27.8880   39.4200 H   0  0  0  0  0  0  0  0  0  0  0  0
   37.6650   29.8700   39.6080 C   0  0  1  0  0  0  0  0  0  0  0  0
   37.7110   30.8970   41.1320 S   0  0  0  0  0  0  0  0  0  0  0  0
   40.0970   31.8470   42.1220 C   0  0  0  0  0  0  0  0  0  0  0  0
   41.1280   31.4850   42.1100 H   0  0  0  0  0  0  0  0  0  0  0  0
  1  2  1  0  0  0  0
  1  3  1  0  0  0  0
  4  1  1  0  0  0  0
  4  9  1  0  0  0  0
  5  4  2  0  0  0  0
  6  5  1  0  0  0  0
  6  7  2  0  0  0  0
  7  8  1  0  0  0  0
  8  9  2  0  0  0  0
  8 13  1  0  0  0  0
  9 14  1  0  0  0  0
 10  5  1  0  0  0  0
 11  6  1  0  0  0  0
 12  7  1  0  0  0  0
 14 15  1  0  0  0  0
 14 19  1  0  0  0  0
 15 21  1  0  0  0  0
 15 16  1  0  0  0  0
 16 17  1  0  0  0  0
 16 23  1  0  0  0  0
 17 24  1  0  0  0  0
 18 17  1  0  0  0  0
 18 25  1  0  0  0  0
 19 18  1  0  0  0  0
 19 28  1  0  0  0  0
 20 15  1  0  0  0  0
 22 16  1  0  0  0  0
 26 18  1  0  0  0  0
 27 19  1  0  0  0  0
 29 34  1  0  0  0  0
 29  1  1  0  0  0  0
 30 29  1  0  0  0  0
 31 29  1  0  0  0  0
 32 38  1  0  0  0  0
 33 39  1  0  0  0  0
 33 32  2  0  0  0  0
 34 33  1  0  0  0  0
 35 34  2  0  0  0  0
 35 36  1  0  0  0  0
 36 37  2  0  0  0  0
 37 32  1  0  0  0  0
 40 36  1  0  0  0  0
 41 40  1  6  0  0  0
 41 49  1  0  0  0  0
 41 50  1  0  0  0  0
 42 41  1  0  0  0  0
 43 48  1  0  0  0  0
 43 42  1  6  0  0  0
 44 45  1  6  0  0  0
 44 43  1  0  0  0  0
 44 48  1  0  0  0  0
 44 46  1  0  0  0  0
 47 46  1  0  0  0  0
 48 46  1  1  0  0  0
 48 49  1  0  0  0  0
 51 50  1  0  0  0  0
M  END
>  <minimizedAffinity>
-6.26776171

>  <minimizedRMSD>
3.29025173

$$$$
