
 OpenBabel03252505563D

 39 42  0  0  1  0  0  0  0  0999 V2000
   44.8830   35.0320   44.9960 C   0  0  0  0  0  0  0  0  0  0  0  0
   45.8330   34.7340   43.9990 C   0  0  0  0  0  0  0  0  0  0  0  0
   46.7770   33.7160   44.2580 C   0  0  0  0  0  0  0  0  0  0  0  0
   46.6970   33.0960   45.4580 N   0  0  0  0  0  0  0  0  0  0  0  0
   45.7890   33.4000   46.3810 C   0  0  0  0  0  0  0  0  0  0  0  0
   44.8800   34.3650   46.1610 N   0  0  0  0  0  0  0  0  0  0  0  0
   44.1440   35.7980   44.8500 H   0  0  0  0  0  0  0  0  0  0  0  0
   45.7970   35.4570   42.7100 C   0  0  0  0  0  0  0  0  0  0  0  0
   45.0950   36.6140   42.9910 F   0  0  0  0  0  0  0  0  0  0  0  0
   44.9940   34.6950   41.8360 F   0  0  0  0  0  0  0  0  0  0  0  0
   47.0010   35.6850   42.2270 F   0  0  0  0  0  0  0  0  0  0  0  0
   45.7140   32.7640   47.6130 O   0  0  0  0  0  0  0  0  0  0  0  0
   45.2620   31.4520   47.7320 C   0  0  0  0  0  0  0  0  0  0  0  0
   44.6510   31.1890   46.8190 H   0  0  0  0  0  0  0  0  0  0  0  0
   44.6200   31.2990   48.6360 H   0  0  0  0  0  0  0  0  0  0  0  0
   46.4270   30.5780   47.7990 C   0  0  0  0  0  0  0  0  0  0  0  0
   46.6270   29.3260   47.2410 C   0  0  0  0  0  0  0  0  0  0  0  0
   47.8220   28.7120   47.4520 C   0  0  0  0  0  0  0  0  0  0  0  0
   48.7910   29.2750   48.1700 N   0  0  0  0  0  0  0  0  0  0  0  0
   48.5900   30.4850   48.7070 C   0  0  0  0  0  0  0  0  0  0  0  0
   47.4190   31.1530   48.5350 N   0  0  0  0  0  0  0  0  0  0  0  0
   45.7760   28.9640   46.6770 H   0  0  0  0  0  0  0  0  0  0  0  0
   47.9500   27.7220   46.9980 H   0  0  0  0  0  0  0  0  0  0  0  0
   49.7360   31.0240   49.4900 C   0  0  0  0  0  0  0  0  0  0  0  0
   49.7740   32.3940   49.4390 F   0  0  0  0  0  0  0  0  0  0  0  0
   50.9460   30.5200   48.9870 F   0  0  0  0  0  0  0  0  0  0  0  0
   49.6740   30.6650   50.8210 F   0  0  0  0  0  0  0  0  0  0  0  0
   47.8900   33.3440   43.4320 C   0  0  0  0  0  2  0  0  0  0  0  0
   47.7190   32.0340   42.7600 C   0  0  1  0  0  0  0  0  0  0  0  0
   46.5640   31.9510   41.7850 C   0  0  0  0  0  2  0  0  0  0  0  0
   47.0220   32.1480   40.4510 N   0  0  0  0  0  0  0  0  0  0  0  0
   47.2320   32.5970   39.1180 C   0  0  0  0  0  0  0  0  0  0  0  0
   46.7470   33.3820   38.2650 O   0  0  0  0  0  0  0  0  0  0  0  0
   48.4300   31.7470   38.8830 C   0  0  0  0  0  3  0  0  0  0  0  0
   48.3440   30.9950   38.0810 H   0  0  0  0  0  0  0  0  0  0  0  0
   48.0910   31.1650   40.2090 C   0  0  1  0  0  3  0  0  0  0  0  0
   49.1560   31.7640   41.5850 S   0  0  0  0  0  0  0  0  0  0  0  0
   47.6330   30.8050   43.6240 C   0  0  0  0  0  2  0  0  0  0  0  0
   48.6220   30.3690   43.8610 H   0  0  0  0  0  0  0  0  0  0  0  0
  1  6  1  0  0  0  0
  2  3  1  0  0  0  0
  2  1  2  0  0  0  0
  3  4  2  0  0  0  0
  4  5  1  0  0  0  0
  5 12  1  0  0  0  0
  6  5  2  0  0  0  0
  7  1  1  0  0  0  0
  8  9  1  0  0  0  0
  8  2  1  0  0  0  0
 10  8  1  0  0  0  0
 11  8  1  0  0  0  0
 12 13  1  0  0  0  0
 13 16  1  0  0  0  0
 13 15  1  0  0  0  0
 14 13  1  0  0  0  0
 16 21  1  0  0  0  0
 17 18  1  0  0  0  0
 17 16  2  0  0  0  0
 18 19  2  0  0  0  0
 19 20  1  0  0  0  0
 20 24  1  0  0  0  0
 21 20  2  0  0  0  0
 22 17  1  0  0  0  0
 23 18  1  0  0  0  0
 24 27  1  0  0  0  0
 25 24  1  0  0  0  0
 26 24  1  0  0  0  0
 28  3  1  0  0  0  0
 29 28  1  1  0  0  0
 29 38  1  0  0  0  0
 30 29  1  0  0  0  0
 31 30  1  0  0  0  0
 32 31  1  0  0  0  0
 33 32  2  0  0  0  0
 34 32  1  0  0  0  0
 35 34  1  0  0  0  0
 36 34  1  6  0  0  0
 36 31  1  0  0  0  0
 36 37  1  0  0  0  0
 37 29  1  0  0  0  0
 38 39  1  0  0  0  0
M  END
>  <minimizedAffinity>
-6.02489328

>  <minimizedRMSD>
0.502738595

$$$$
