
 OpenBabel03242518553D

 45 48  0  0  1  0  0  0  0  0999 V2000
   45.8280   31.2700   46.5590 C   0  0  2  0  0  0  0  0  0  0  0  0
   45.8720   30.5060   47.8430 C   0  0  0  0  0  0  0  0  0  0  0  0
   45.1430   29.2270   47.6120 C   0  0  0  0  0  0  0  0  0  0  0  0
   44.5100   29.0730   46.2740 C   0  0  0  0  0  0  0  0  0  0  0  0
   45.5270   29.2720   45.1850 C   0  0  0  0  0  0  0  0  0  0  0  0
   46.4010   30.4050   45.4550 C   0  0  2  0  0  0  0  0  0  0  0  0
   44.7690   31.4200   46.2630 H   0  0  0  0  0  0  0  0  0  0  0  0
   46.8730   30.3550   48.2600 H   0  0  0  0  0  0  0  0  0  0  0  0
   45.3490   31.1540   48.6150 H   0  0  0  0  0  0  0  0  0  0  0  0
   45.7290   28.3030   47.8560 H   0  0  0  0  0  0  0  0  0  0  0  0
   44.2960   29.1870   48.3560 H   0  0  0  0  0  0  0  0  0  0  0  0
   44.1210   28.0270   46.2260 H   0  0  0  0  0  0  0  0  0  0  0  0
   43.6030   29.7220   46.1460 H   0  0  0  0  0  0  0  0  0  0  0  0
   45.9830   28.2880   44.9770 H   0  0  0  0  0  0  0  0  0  0  0  0
   44.9280   29.4970   44.2540 H   0  0  0  0  0  0  0  0  0  0  0  0
   46.5610   31.0330   44.5770 H   0  0  0  0  0  0  0  0  0  0  0  0
   47.7060   29.8240   45.8770 C   0  0  0  0  0  0  0  0  0  0  0  0
   47.6510   29.0940   46.7070 H   0  0  0  0  0  0  0  0  0  0  0  0
   48.3480   30.6680   46.2180 H   0  0  0  0  0  0  0  0  0  0  0  0
   52.1080   28.0310   43.8960 C   0  0  0  0  0  0  0  0  0  0  0  0
   51.8440   29.4940   44.1560 C   0  0  0  0  0  2  0  0  0  0  0  0
   50.4150   29.7120   44.0860 N   0  0  0  0  0  0  0  0  0  0  0  0
   49.0780   30.1060   43.7920 C   0  0  0  0  0  0  0  0  0  0  0  0
   48.6470   30.9960   42.9880 O   0  0  0  0  0  0  0  0  0  0  0  0
   48.4450   29.1410   44.7240 C   0  0  1  0  0  3  0  0  0  0  0  0
   49.8660   28.8810   45.1620 C   0  0  1  0  0  3  0  0  0  0  0  0
   50.5640   27.2900   44.5610 S   0  0  0  0  0  0  0  0  0  0  0  0
   53.2300   27.5010   44.7630 C   0  0  0  0  0  2  0  0  0  0  0  0
   54.1020   28.1820   44.8190 H   0  0  0  0  0  0  0  0  0  0  0  0
   52.3090   27.7160   42.4440 C   0  0  0  0  0  2  0  0  0  0  0  0
   52.7150   28.6510   41.9580 H   0  0  0  0  0  0  0  0  0  0  0  0
   46.4610   32.6110   46.6250 C   0  0  0  0  0  0  0  0  0  0  0  0
   47.3600   32.8980   47.4560 O   0  0  0  0  0  0  0  0  0  0  0  0
   44.5880   35.3700   45.1360 C   0  0  0  0  0  0  0  0  0  0  0  0
   45.1150   35.4830   43.8260 C   0  0  0  0  0  0  0  0  0  0  0  0
   46.1200   34.5940   43.4900 C   0  0  0  0  0  0  0  0  0  0  0  0
   46.4720   33.7330   44.4480 N   0  0  0  0  0  0  0  0  0  0  0  0
   45.9890   33.6190   45.6670 C   0  0  0  0  0  0  0  0  0  0  0  0
   45.0130   34.4700   46.0200 N   0  0  0  0  0  0  0  0  0  0  0  0
   43.7890   36.0570   45.4440 H   0  0  0  0  0  0  0  0  0  0  0  0
   44.7220   36.2380   43.1630 H   0  0  0  0  0  0  0  0  0  0  0  0
   46.6620   34.6990   42.1450 C   0  0  0  0  0  0  0  0  0  0  0  0
   47.3460   33.5320   41.8240 F   0  0  0  0  0  0  0  0  0  0  0  0
   47.5370   35.7360   42.1510 F   0  0  0  0  0  0  0  0  0  0  0  0
   45.6670   34.8230   41.1830 F   0  0  0  0  0  0  0  0  0  0  0  0
  1  7  1  6  0  0  0
  1 32  1  0  0  0  0
  1  2  1  0  0  0  0
  2  8  1  0  0  0  0
  2  9  1  0  0  0  0
  3  2  1  0  0  0  0
  3 10  1  0  0  0  0
  3 11  1  0  0  0  0
  4  3  1  0  0  0  0
  5  6  1  0  0  0  0
  5  4  1  0  0  0  0
  6 16  1  6  0  0  0
  6 17  1  0  0  0  0
  6  1  1  0  0  0  0
 12  4  1  0  0  0  0
 13  4  1  0  0  0  0
 14  5  1  0  0  0  0
 15  5  1  0  0  0  0
 17 19  1  0  0  0  0
 17 18  1  0  0  0  0
 20 21  1  0  0  0  0
 20 27  1  0  0  0  0
 20 28  1  0  0  0  0
 22 21  1  0  0  0  0
 22 26  1  0  0  0  0
 23 22  1  0  0  0  0
 23 25  1  0  0  0  0
 24 23  2  0  0  0  0
 25 26  1  0  0  0  0
 25 17  1  1  0  0  0
 26 27  1  6  0  0  0
 28 29  1  0  0  0  0
 30 20  1  0  0  0  0
 31 30  1  0  0  0  0
 32 33  2  0  0  0  0
 34 40  1  0  0  0  0
 34 39  1  0  0  0  0
 35 34  2  0  0  0  0
 36 35  1  0  0  0  0
 36 37  2  0  0  0  0
 37 38  1  0  0  0  0
 38 39  2  0  0  0  0
 38 32  1  0  0  0  0
 41 35  1  0  0  0  0
 42 44  1  0  0  0  0
 42 36  1  0  0  0  0
 43 42  1  0  0  0  0
 45 42  1  0  0  0  0
M  END
>  <minimizedAffinity>
-5.40636015

>  <minimizedRMSD>
0.935055137

$$$$
