
 OpenBabel03242519103D

 50 54  0  0  1  0  0  0  0  0999 V2000
   48.0630   32.1500   36.5610 C   0  0  0  0  0  0  0  0  0  0  0  0
   47.4740   32.7650   37.6880 C   0  0  0  0  0  0  0  0  0  0  0  0
   46.1390   33.0640   37.5170 C   0  0  0  0  0  0  0  0  0  0  0  0
   45.4000   32.8160   36.3950 C   0  0  0  0  0  0  0  0  0  0  0  0
   46.0170   32.2130   35.3160 C   0  0  0  0  0  0  0  0  0  0  0  0
   47.3420   31.8900   35.4220 C   0  0  0  0  0  0  0  0  0  0  0  0
   45.6530   33.5370   38.3600 H   0  0  0  0  0  0  0  0  0  0  0  0
   44.3490   33.0730   36.3120 H   0  0  0  0  0  0  0  0  0  0  0  0
   45.4600   32.0040   34.4120 H   0  0  0  0  0  0  0  0  0  0  0  0
   48.7360   32.0620   33.4100 C   0  0  0  0  0  0  0  0  0  0  0  0
   48.8930   33.3060   33.6340 O   0  0  0  0  0  0  0  0  0  0  0  0
   47.9480   31.2690   34.2880 N   0  0  0  0  0  0  0  0  0  0  0  0
   47.7820   30.2570   34.1600 H   0  0  0  0  0  0  0  0  0  0  0  0
   50.5770   28.5250   34.6430 C   0  0  0  0  0  0  0  0  0  0  0  0
   50.0200   28.0910   33.3200 C   0  0  0  0  0  2  0  0  0  0  0  0
   49.3990   29.2080   32.6740 N   0  0  0  0  0  0  0  0  0  0  0  0
   48.4900   30.0890   32.0220 C   0  0  0  0  0  0  0  0  0  0  0  0
   47.3670   29.9120   31.4430 O   0  0  0  0  0  0  0  0  0  0  0  0
   49.3240   31.2970   32.2580 C   0  0  2  0  0  3  0  0  0  0  0  0
   50.3730   30.3060   32.5790 C   0  0  1  0  0  3  0  0  0  0  0  0
   50.9150   30.2900   34.3320 S   0  0  0  0  0  0  0  0  0  0  0  0
   49.6720   28.3130   35.8100 C   0  0  0  0  0  2  0  0  0  0  0  0
   48.6120   28.1830   35.5710 H   0  0  0  0  0  0  0  0  0  0  0  0
   51.8750   27.7630   34.8410 C   0  0  0  0  0  2  0  0  0  0  0  0
   52.6320   28.0380   34.0810 H   0  0  0  0  0  0  0  0  0  0  0  0
   48.1560   33.0570   38.8810 N   0  0  0  0  0  0  0  0  0  0  0  0
   49.1530   33.2580   38.6320 H   0  0  0  0  0  0  0  0  0  0  0  0
   47.3610   34.2510   42.1350 N   0  0  0  0  0  0  0  0  0  0  0  0
   47.3060   34.4700   40.6900 C   0  0  0  0  0  0  0  0  0  0  0  0
   47.7390   33.1130   40.2400 C   0  0  2  0  0  0  0  0  0  0  0  0
   48.9460   32.8390   41.1160 C   0  0  0  0  0  0  0  0  0  0  0  0
   48.5900   33.5540   42.3990 C   0  0  0  0  0  0  0  0  0  0  0  0
   48.0430   35.2250   40.3610 H   0  0  0  0  0  0  0  0  0  0  0  0
   46.2710   34.6950   40.3630 H   0  0  0  0  0  0  0  0  0  0  0  0
   46.9110   32.4080   40.4570 H   0  0  0  0  0  0  0  0  0  0  0  0
   49.0950   31.7540   41.2850 H   0  0  0  0  0  0  0  0  0  0  0  0
   49.8160   33.3470   40.6690 H   0  0  0  0  0  0  0  0  0  0  0  0
   48.4300   32.8150   43.2290 H   0  0  0  0  0  0  0  0  0  0  0  0
   49.3700   34.2540   42.7310 H   0  0  0  0  0  0  0  0  0  0  0  0
   44.7200   35.9760   44.1370 C   0  0  0  0  0  0  0  0  0  0  0  0
   45.5870   35.7040   43.0850 C   0  0  0  0  0  0  0  0  0  0  0  0
   46.4510   34.6070   43.1420 C   0  0  0  0  0  0  0  0  0  0  0  0
   46.3810   33.8550   44.2640 N   0  0  0  0  0  0  0  0  0  0  0  0
   45.5540   34.1000   45.2860 C   0  0  0  0  0  0  0  0  0  0  0  0
   44.7170   35.1780   45.2110 N   0  0  0  0  0  0  0  0  0  0  0  0
   44.0910   36.8430   44.0030 H   0  0  0  0  0  0  0  0  0  0  0  0
   45.6850   36.2730   42.1650 H   0  0  0  0  0  0  0  0  0  0  0  0
   45.5260   33.4680   46.1760 H   0  0  0  0  0  0  0  0  0  0  0  0
   50.5800   31.5420   36.7670 N   0  0  0  0  0  0  0  0  0  0  0  0
   49.4630   31.8070   36.6660 C   0  0  0  0  0  0  0  0  0  0  0  0
  1 50  1  0  0  0  0
  1  2  1  0  0  0  0
  2 26  1  0  0  0  0
  3  2  2  0  0  0  0
  3  7  1  0  0  0  0
  4  3  1  0  0  0  0
  5  6  1  0  0  0  0
  5  4  2  0  0  0  0
  6  1  2  0  0  0  0
  8  4  1  0  0  0  0
  9  5  1  0  0  0  0
 10 11  2  0  0  0  0
 10 12  1  0  0  0  0
 12  6  1  0  0  0  0
 13 12  1  0  0  0  0
 14 24  1  0  0  0  0
 14 22  1  0  0  0  0
 15 14  1  0  0  0  0
 16 15  1  0  0  0  0
 17 19  1  0  0  0  0
 17 16  1  0  0  0  0
 18 17  2  0  0  0  0
 19 20  1  0  0  0  0
 19 10  1  1  0  0  0
 20 16  1  0  0  0  0
 20 21  1  1  0  0  0
 21 14  1  0  0  0  0
 23 22  1  0  0  0  0
 25 24  1  0  0  0  0
 26 30  1  0  0  0  0
 27 26  1  0  0  0  0
 28 32  1  0  0  0  0
 28 42  1  0  0  0  0
 29 28  1  0  0  0  0
 30 35  1  1  0  0  0
 30 29  1  0  0  0  0
 30 31  1  0  0  0  0
 31 36  1  0  0  0  0
 31 32  1  0  0  0  0
 32 39  1  0  0  0  0
 32 38  1  0  0  0  0
 33 29  1  0  0  0  0
 34 29  1  0  0  0  0
 37 31  1  0  0  0  0
 40 45  1  0  0  0  0
 41 42  1  0  0  0  0
 41 40  2  0  0  0  0
 42 43  2  0  0  0  0
 43 44  1  0  0  0  0
 44 48  1  0  0  0  0
 45 44  2  0  0  0  0
 46 40  1  0  0  0  0
 47 41  1  0  0  0  0
 50 49  3  0  0  0  0
M  END
>  <minimizedAffinity>
-5.55355787

>  <minimizedRMSD>
0.955200791

$$$$
