
 OpenBabel03252505573D

 39 42  0  0  1  0  0  0  0  0999 V2000
   44.8150   35.0530   45.1780 C   0  0  0  0  0  0  0  0  0  0  0  0
   45.7380   34.8230   44.1390 C   0  0  0  0  0  0  0  0  0  0  0  0
   46.6950   33.7990   44.3100 C   0  0  0  0  0  0  0  0  0  0  0  0
   46.6520   33.1070   45.4730 N   0  0  0  0  0  0  0  0  0  0  0  0
   45.7690   33.3490   46.4370 C   0  0  0  0  0  0  0  0  0  0  0  0
   44.8480   34.3170   46.3000 N   0  0  0  0  0  0  0  0  0  0  0  0
   44.0660   35.8200   45.0990 H   0  0  0  0  0  0  0  0  0  0  0  0
   45.6610   35.6220   42.8970 C   0  0  0  0  0  0  0  0  0  0  0  0
   45.1240   36.8280   43.3050 F   0  0  0  0  0  0  0  0  0  0  0  0
   44.6970   35.0050   42.0730 F   0  0  0  0  0  0  0  0  0  0  0  0
   46.8310   35.7480   42.3060 F   0  0  0  0  0  0  0  0  0  0  0  0
   45.7330   32.6390   47.6300 O   0  0  0  0  0  0  0  0  0  0  0  0
   45.2800   31.3230   47.6840 C   0  0  0  0  0  0  0  0  0  0  0  0
   44.6950   31.0960   46.7460 H   0  0  0  0  0  0  0  0  0  0  0  0
   44.6130   31.1350   48.5630 H   0  0  0  0  0  0  0  0  0  0  0  0
   46.4440   30.4470   47.7510 C   0  0  0  0  0  0  0  0  0  0  0  0
   46.6570   29.2130   47.1590 C   0  0  0  0  0  0  0  0  0  0  0  0
   47.8480   28.5940   47.3770 C   0  0  0  0  0  0  0  0  0  0  0  0
   48.8000   29.1340   48.1330 N   0  0  0  0  0  0  0  0  0  0  0  0
   48.5870   30.3270   48.7020 C   0  0  0  0  0  0  0  0  0  0  0  0
   47.4190   31.0000   48.5250 N   0  0  0  0  0  0  0  0  0  0  0  0
   45.8190   28.8690   46.5650 H   0  0  0  0  0  0  0  0  0  0  0  0
   47.9860   27.6180   46.8960 H   0  0  0  0  0  0  0  0  0  0  0  0
   49.7150   30.8420   49.5260 C   0  0  0  0  0  0  0  0  0  0  0  0
   49.7320   32.2130   49.5460 F   0  0  0  0  0  0  0  0  0  0  0  0
   50.9380   30.3830   49.0130 F   0  0  0  0  0  0  0  0  0  0  0  0
   49.6430   30.4140   50.8360 F   0  0  0  0  0  0  0  0  0  0  0  0
   47.7860   33.4860   43.4320 C   0  0  0  0  0  2  0  0  0  0  0  0
   47.5330   32.3090   42.5660 C   0  0  1  0  0  0  0  0  0  0  0  0
   46.6670   32.5690   41.3540 C   0  0  0  0  0  2  0  0  0  0  0  0
   47.4760   32.7700   40.1970 N   0  0  0  0  0  0  0  0  0  0  0  0
   48.0990   33.2710   39.0220 C   0  0  0  0  0  0  0  0  0  0  0  0
   48.0080   34.2140   38.1960 O   0  0  0  0  0  0  0  0  0  0  0  0
   49.1240   32.1960   38.9500 C   0  0  0  0  0  3  0  0  0  0  0  0
   49.0950   31.5530   38.0560 H   0  0  0  0  0  0  0  0  0  0  0  0
   48.3560   31.5950   40.0730 C   0  0  1  0  0  3  0  0  0  0  0  0
   49.1370   31.8220   41.7240 S   0  0  0  0  0  0  0  0  0  0  0  0
   46.9920   31.0620   43.2140 C   0  0  0  0  0  2  0  0  0  0  0  0
   47.7830   30.3970   43.6070 H   0  0  0  0  0  0  0  0  0  0  0  0
  1  6  1  0  0  0  0
  2  3  1  0  0  0  0
  2  1  2  0  0  0  0
  3  4  2  0  0  0  0
  4  5  1  0  0  0  0
  5 12  1  0  0  0  0
  6  5  2  0  0  0  0
  7  1  1  0  0  0  0
  8  9  1  0  0  0  0
  8  2  1  0  0  0  0
 10  8  1  0  0  0  0
 11  8  1  0  0  0  0
 12 13  1  0  0  0  0
 13 16  1  0  0  0  0
 13 15  1  0  0  0  0
 14 13  1  0  0  0  0
 16 21  1  0  0  0  0
 17 18  1  0  0  0  0
 17 16  2  0  0  0  0
 18 19  2  0  0  0  0
 19 20  1  0  0  0  0
 20 24  1  0  0  0  0
 21 20  2  0  0  0  0
 22 17  1  0  0  0  0
 23 18  1  0  0  0  0
 24 25  1  0  0  0  0
 24 27  1  0  0  0  0
 26 24  1  0  0  0  0
 28  3  1  0  0  0  0
 29 38  1  1  0  0  0
 29 28  1  0  0  0  0
 30 29  1  0  0  0  0
 31 30  1  0  0  0  0
 32 31  1  0  0  0  0
 33 32  2  0  0  0  0
 34 32  1  0  0  0  0
 35 34  1  0  0  0  0
 36 34  1  6  0  0  0
 36 31  1  0  0  0  0
 36 37  1  0  0  0  0
 37 29  1  0  0  0  0
 38 39  1  0  0  0  0
M  END
>  <minimizedAffinity>
-6.2176733

>  <minimizedRMSD>
1.19980848

$$$$
