
 OpenBabel03252503313D

 44 47  0  0  1  0  0  0  0  0999 V2000
   45.5740   34.3580   42.3600 C   0  0  0  0  0  0  0  0  0  0  0  0
   46.6070   35.1460   41.7700 C   0  0  0  0  0  0  0  0  0  0  0  0
   47.9170   34.8770   42.2100 C   0  0  0  0  0  0  0  0  0  0  0  0
   48.0900   33.9160   43.1340 N   0  0  0  0  0  0  0  0  0  0  0  0
   47.0750   33.1980   43.6610 C   0  0  0  0  0  0  0  0  0  0  0  0
   45.8070   33.4280   43.2640 N   0  0  0  0  0  0  0  0  0  0  0  0
   43.9560   34.0260   40.6970 C   0  0  0  0  0  0  0  0  0  0  0  0
   44.9120   33.4750   40.0510 O   0  0  0  0  0  0  0  0  0  0  0  0
   44.2100   34.5680   41.9690 N   0  0  0  0  0  0  0  0  0  0  0  0
   42.6830   34.0470   40.0690 N   0  0  0  0  0  0  0  0  0  0  0  0
   42.5790   33.7610   38.6240 C   0  0  0  0  0  0  0  0  0  0  0  0
   41.4000   34.5920   38.2190 C   0  0  0  0  0  0  0  0  0  0  0  0
   40.8660   35.2010   39.4840 C   0  0  0  0  0  0  0  0  0  0  0  0
   41.3650   34.2830   40.5730 C   0  0  1  0  0  0  0  0  0  0  0  0
   46.2820   35.8690   41.0460 H   0  0  0  0  0  0  0  0  0  0  0  0
   47.2850   32.4250   44.4140 H   0  0  0  0  0  0  0  0  0  0  0  0
   43.4220   35.0230   42.4350 H   0  0  0  0  0  0  0  0  0  0  0  0
   42.3920   32.6650   38.5820 H   0  0  0  0  0  0  0  0  0  0  0  0
   43.4970   34.0030   38.0890 H   0  0  0  0  0  0  0  0  0  0  0  0
   41.7170   35.3550   37.4780 H   0  0  0  0  0  0  0  0  0  0  0  0
   40.6360   33.8870   37.7980 H   0  0  0  0  0  0  0  0  0  0  0  0
   39.9390   35.6710   39.5040 H   0  0  0  0  0  0  0  0  0  0  0  0
   41.5860   36.0810   39.6260 H   0  0  0  0  0  0  0  0  0  0  0  0
   41.3370   34.8000   41.5280 H   0  0  0  0  0  0  0  0  0  0  0  0
   39.2130   32.9030   40.8550 C   0  0  0  0  0  0  0  0  0  0  0  0
   38.6620   34.0010   40.6310 O   0  0  0  0  0  0  0  0  0  0  0  0
   40.6490   33.0220   40.6920 N   0  0  0  0  0  0  0  0  0  0  0  0
   41.2380   32.1340   40.6540 H   0  0  0  0  0  0  0  0  0  0  0  0
   39.8790   27.9290   41.9110 C   0  0  0  0  0  0  0  0  0  0  0  0
   40.4750   28.6880   40.7150 C   0  0  0  0  0  2  0  0  0  0  0  0
   39.5560   29.7930   40.4540 N   0  0  0  0  0  0  0  0  0  0  0  0
   38.6020   30.7510   40.0020 C   0  0  0  0  0  0  0  0  0  0  0  0
   37.9870   30.7160   38.8840 O   0  0  0  0  0  0  0  0  0  0  0  0
   38.7110   31.5740   41.2360 C   0  0  1  0  0  3  0  0  0  0  0  0
   39.7990   30.6420   41.6140 C   0  0  1  0  0  3  0  0  0  0  0  0
   39.3760   29.3980   42.9000 S   0  0  0  0  0  0  0  0  0  0  0  0
   40.9070   27.1240   42.6220 C   0  0  0  0  0  2  0  0  0  0  0  0
   40.8530   26.0480   42.3070 H   0  0  0  0  0  0  0  0  0  0  0  0
   38.7040   27.1720   41.3870 C   0  0  0  0  0  2  0  0  0  0  0  0
   37.7810   27.6810   41.7860 H   0  0  0  0  0  0  0  0  0  0  0  0
   48.9520   35.6940   41.5920 C   0  0  0  0  0  0  0  0  0  0  0  0
   50.1960   35.1860   41.9570 F   0  0  0  0  0  0  0  0  0  0  0  0
   48.8840   36.9620   42.1860 F   0  0  0  0  0  0  0  0  0  0  0  0
   48.8820   35.7390   40.2330 F   0  0  0  0  0  0  0  0  0  0  0  0
  1  6  1  0  0  0  0
  2  3  1  0  0  0  0
  2  1  2  0  0  0  0
  3  4  2  0  0  0  0
  4  5  1  0  0  0  0
  5 16  1  0  0  0  0
  6  5  2  0  0  0  0
  7  9  1  0  0  0  0
  8  7  2  0  0  0  0
  9  1  1  0  0  0  0
  9 17  1  0  0  0  0
 10 14  1  0  0  0  0
 10  7  1  0  0  0  0
 11 10  1  0  0  0  0
 12 11  1  0  0  0  0
 12 13  1  0  0  0  0
 13 22  1  0  0  0  0
 13 23  1  0  0  0  0
 13 14  1  0  0  0  0
 14 27  1  0  0  0  0
 14 24  1  1  0  0  0
 15  2  1  0  0  0  0
 18 11  1  0  0  0  0
 19 11  1  0  0  0  0
 20 12  1  0  0  0  0
 21 12  1  0  0  0  0
 26 25  2  0  0  0  0
 27 25  1  0  0  0  0
 28 27  1  0  0  0  0
 29 37  1  0  0  0  0
 29 36  1  0  0  0  0
 30 29  1  0  0  0  0
 31 30  1  0  0  0  0
 31 35  1  0  0  0  0
 32 31  1  0  0  0  0
 32 34  1  0  0  0  0
 33 32  2  0  0  0  0
 34 25  1  6  0  0  0
 34 35  1  0  0  0  0
 35 36  1  1  0  0  0
 38 37  1  0  0  0  0
 39 40  1  0  0  0  0
 39 29  1  0  0  0  0
 41 42  1  0  0  0  0
 41 43  1  0  0  0  0
 41  3  1  0  0  0  0
 44 41  1  0  0  0  0
M  END
>  <minimizedAffinity>
-7.12258863

>  <minimizedRMSD>
0.848015606

$$$$
