
 OpenBabel03252502463D

 48 52  0  0  1  0  0  0  0  0999 V2000
   47.5210   35.3610   41.8840 C   0  0  0  0  0  0  0  0  0  0  0  0
   47.6370   35.9800   42.8050 H   0  0  0  0  0  0  0  0  0  0  0  0
   47.1330   36.0710   41.1030 H   0  0  0  0  0  0  0  0  0  0  0  0
   48.8380   34.7580   41.5300 C   0  0  1  0  0  0  0  0  0  0  0  0
   49.9800   34.9560   42.4800 C   0  0  0  0  0  0  0  0  0  0  0  0
   49.2960   33.6330   42.3240 C   0  0  2  0  0  0  0  0  0  0  0  0
   49.0990   34.8650   40.4780 H   0  0  0  0  0  0  0  0  0  0  0  0
   49.7460   35.5830   43.3840 H   0  0  0  0  0  0  0  0  0  0  0  0
   50.9980   35.1320   42.0990 H   0  0  0  0  0  0  0  0  0  0  0  0
   48.8550   33.2640   43.2390 H   0  0  0  0  0  0  0  0  0  0  0  0
   50.1020   32.6750   41.5660 N   0  0  0  0  0  0  0  0  0  0  0  0
   49.4980   32.2060   40.3850 C   0  0  0  0  0  0  0  0  0  0  0  0
   50.4740   31.2150   39.7800 C   0  0  0  0  0  0  0  0  0  0  0  0
   50.6840   30.0910   40.6210 N   0  0  0  0  0  0  0  0  0  0  0  0
   50.4930   30.3610   42.0320 C   0  0  0  0  0  0  0  0  0  0  0  0
   50.9030   31.8110   42.3300 C   0  0  0  0  0  0  0  0  0  0  0  0
   48.5290   31.6770   40.5360 H   0  0  0  0  0  0  0  0  0  0  0  0
   49.4140   33.0440   39.6550 H   0  0  0  0  0  0  0  0  0  0  0  0
   50.0510   30.9150   38.7990 H   0  0  0  0  0  0  0  0  0  0  0  0
   51.4470   31.7400   39.5530 H   0  0  0  0  0  0  0  0  0  0  0  0
   51.5670   29.5880   40.4030 H   0  0  0  0  0  0  0  0  0  0  0  0
   51.1000   29.6290   42.5960 H   0  0  0  0  0  0  0  0  0  0  0  0
   49.4100   30.3040   42.2720 H   0  0  0  0  0  0  0  0  0  0  0  0
   51.9760   31.9530   42.0200 H   0  0  0  0  0  0  0  0  0  0  0  0
   50.8350   32.0170   43.4000 H   0  0  0  0  0  0  0  0  0  0  0  0
   46.5770   34.2230   42.1600 C   0  0  0  0  0  0  0  0  0  0  0  0
   46.9610   33.2240   42.0220 H   0  0  0  0  0  0  0  0  0  0  0  0
   45.7470   34.3270   41.3970 H   0  0  0  0  0  0  0  0  0  0  0  0
   44.5340   35.8090   44.8730 C   0  0  0  0  0  0  0  0  0  0  0  0
   45.1480   35.5950   43.6070 C   0  0  0  0  0  0  0  0  0  0  0  0
   45.9130   34.4670   43.4750 C   0  0  0  0  0  0  0  0  0  0  0  0
   46.0510   33.6200   44.5320 N   0  0  0  0  0  0  0  0  0  0  0  0
   45.4760   33.8340   45.6920 C   0  0  0  0  0  0  0  0  0  0  0  0
   44.7130   34.9300   45.8730 N   0  0  0  0  0  0  0  0  0  0  0  0
   43.9260   36.7070   44.9780 H   0  0  0  0  0  0  0  0  0  0  0  0
   44.9650   36.3410   42.8430 H   0  0  0  0  0  0  0  0  0  0  0  0
   45.5730   32.9630   46.8780 C   0  0  0  0  0  2  0  0  0  0  0  0
   46.2720   31.6800   46.6610 C   0  0  1  0  0  0  0  0  0  0  0  0
   46.2520   30.8970   47.9860 C   0  0  0  0  0  2  0  0  0  0  0  0
   46.5830   29.5180   47.6110 N   0  0  0  0  0  0  0  0  0  0  0  0
   47.0270   28.1750   47.2960 C   0  0  0  0  0  0  0  0  0  0  0  0
   48.1090   27.7240   47.7530 O   0  0  0  0  0  0  0  0  0  0  0  0
   45.8710   27.8500   46.4560 C   0  0  0  0  0  3  0  0  0  0  0  0
   46.0700   27.7880   45.3680 H   0  0  0  0  0  0  0  0  0  0  0  0
   45.3120   29.1380   46.9540 C   0  0  2  0  0  3  0  0  0  0  0  0
   45.2940   30.4700   45.6760 S   0  0  0  0  0  0  0  0  0  0  0  0
   47.6660   31.7610   46.1730 C   0  0  0  0  0  2  0  0  0  0  0  0
   47.8420   31.1300   45.2510 H   0  0  0  0  0  0  0  0  0  0  0  0
  1 26  1  0  0  0  0
  1  2  1  0  0  0  0
  3  1  1  0  0  0  0
  4  7  1  6  0  0  0
  4  1  1  0  0  0  0
  4  6  1  0  0  0  0
  4  5  1  0  0  0  0
  5  8  1  0  0  0  0
  6  5  1  0  0  0  0
  6 10  1  1  0  0  0
  9  5  1  0  0  0  0
 11  6  1  0  0  0  0
 11 16  1  0  0  0  0
 12 17  1  0  0  0  0
 12 11  1  0  0  0  0
 13 12  1  0  0  0  0
 13 14  1  0  0  0  0
 14 15  1  0  0  0  0
 15 23  1  0  0  0  0
 15 16  1  0  0  0  0
 15 22  1  0  0  0  0
 16 25  1  0  0  0  0
 18 12  1  0  0  0  0
 19 13  1  0  0  0  0
 20 13  1  0  0  0  0
 21 14  1  0  0  0  0
 24 16  1  0  0  0  0
 26 31  1  0  0  0  0
 27 26  1  0  0  0  0
 28 26  1  0  0  0  0
 29 35  1  0  0  0  0
 29 34  1  0  0  0  0
 30 29  2  0  0  0  0
 31 30  1  0  0  0  0
 31 32  2  0  0  0  0
 32 33  1  0  0  0  0
 33 34  2  0  0  0  0
 33 37  1  0  0  0  0
 36 30  1  0  0  0  0
 38 47  1  6  0  0  0
 38 37  1  0  0  0  0
 38 39  1  0  0  0  0
 40 39  1  0  0  0  0
 41 40  1  0  0  0  0
 41 42  2  0  0  0  0
 43 45  1  0  0  0  0
 43 41  1  0  0  0  0
 44 43  1  0  0  0  0
 45 46  1  6  0  0  0
 45 40  1  0  0  0  0
 46 38  1  0  0  0  0
 48 47  1  0  0  0  0
M  END
>  <minimizedAffinity>
-5.25604057

>  <minimizedRMSD>
0.391376019

$$$$
