
 OpenBabel03242523543D

 48 52  0  0  1  0  0  0  0  0999 V2000
   41.8650   33.1680   39.1860 C   0  0  1  0  0  0  0  0  0  0  0  0
   42.9120   34.2200   39.5310 C   0  0  1  0  0  0  0  0  0  0  0  0
   42.2530   35.4480   39.7340 O   0  0  0  0  0  0  0  0  0  0  0  0
   41.1680   35.6220   38.8750 C   0  0  0  0  0  0  0  0  0  0  0  0
   40.0260   34.6810   39.2080 C   0  0  2  0  0  0  0  0  0  0  0  0
   40.6590   33.4880   40.0090 C   0  0  1  0  0  0  0  0  0  0  0  0
   42.2080   32.1550   39.4890 H   0  0  0  0  0  0  0  0  0  0  0  0
   43.7030   34.3080   38.7830 H   0  0  0  0  0  0  0  0  0  0  0  0
   41.4490   35.5760   37.8030 H   0  0  0  0  0  0  0  0  0  0  0  0
   40.8150   36.6460   39.0520 H   0  0  0  0  0  0  0  0  0  0  0  0
   39.2340   35.1510   39.8150 H   0  0  0  0  0  0  0  0  0  0  0  0
   40.9180   34.0970   40.9330 H   0  0  0  0  0  0  0  0  0  0  0  0
   41.5560   33.2040   37.8200 O   0  0  0  0  0  0  0  0  0  0  0  0
   41.7040   32.3530   37.3590 H   0  0  0  0  0  0  0  0  0  0  0  0
   39.5370   34.1170   38.0380 O   0  0  0  0  0  0  0  0  0  0  0  0
   39.7660   34.6180   37.2380 H   0  0  0  0  0  0  0  0  0  0  0  0
   43.3740   33.8690   40.8130 O   0  0  0  0  0  0  0  0  0  0  0  0
   44.3960   34.4620   41.4400 C   0  0  0  0  0  0  0  0  0  0  0  0
   45.7200   34.2600   41.0250 C   0  0  0  0  0  0  0  0  0  0  0  0
   46.7360   34.9030   41.7130 C   0  0  0  0  0  0  0  0  0  0  0  0
   46.4190   35.7190   42.7830 N   0  0  0  0  0  0  0  0  0  0  0  0
   45.1290   35.8910   43.1580 C   0  0  0  0  0  0  0  0  0  0  0  0
   44.1250   35.2660   42.4910 N   0  0  0  0  0  0  0  0  0  0  0  0
   45.9690   33.6280   40.1960 H   0  0  0  0  0  0  0  0  0  0  0  0
   44.8830   36.5290   43.9940 H   0  0  0  0  0  0  0  0  0  0  0  0
   48.1720   34.7230   41.3430 C   0  0  0  0  0  0  0  0  0  0  0  0
   49.0710   35.9540   41.4630 C   0  0  0  0  0  0  0  0  0  0  0  0
   49.1970   34.6870   42.3350 C   0  0  0  0  0  0  0  0  0  0  0  0
   48.2830   34.1470   40.3880 H   0  0  0  0  0  0  0  0  0  0  0  0
   48.6140   36.8490   41.9070 H   0  0  0  0  0  0  0  0  0  0  0  0
   49.8630   36.1070   40.7070 H   0  0  0  0  0  0  0  0  0  0  0  0
   48.9950   34.8780   43.4080 H   0  0  0  0  0  0  0  0  0  0  0  0
   50.1430   34.1270   42.1880 H   0  0  0  0  0  0  0  0  0  0  0  0
   39.7200   32.5250   40.1090 O   0  0  0  0  0  0  0  0  0  0  0  0
   39.6140   31.5490   41.0390 C   0  0  0  0  0  0  0  0  0  0  0  0
   40.3190   31.5720   42.1420 O   0  0  0  0  0  0  0  0  0  0  0  0
   39.1600   29.5350   37.8810 C   0  0  0  0  0  0  0  0  0  0  0  0
   37.8650   29.1980   38.5550 C   0  0  0  0  0  2  0  0  0  0  0  0
   37.9640   29.5570   39.9310 N   0  0  0  0  0  0  0  0  0  0  0  0
   37.5800   30.1140   41.1800 C   0  0  0  0  0  0  0  0  0  0  0  0
   36.5030   30.3830   41.7870 O   0  0  0  0  0  0  0  0  0  0  0  0
   39.0140   30.2710   41.5240 C   0  0  1  0  0  3  0  0  0  0  0  0
   39.1820   29.1390   40.5410 C   0  0  2  0  0  3  0  0  0  0  0  0
   40.3900   29.5130   39.2150 S   0  0  0  0  0  0  0  0  0  0  0  0
   39.1610   30.7910   37.0830 C   0  0  0  0  0  2  0  0  0  0  0  0
   38.2310   31.3860   37.1900 H   0  0  0  0  0  0  0  0  0  0  0  0
   39.4910   28.3210   37.0040 C   0  0  0  0  0  2  0  0  0  0  0  0
   40.5990   28.1960   36.8910 H   0  0  0  0  0  0  0  0  0  0  0  0
  1  7  1  1  0  0  0
  1  2  1  0  0  0  0
  1  6  1  0  0  0  0
  2  8  1  6  0  0  0
  2  3  1  0  0  0  0
  2 17  1  0  0  0  0
  4 10  1  0  0  0  0
  4  5  1  0  0  0  0
  4  3  1  0  0  0  0
  5 11  1  1  0  0  0
  5  6  1  0  0  0  0
  6 34  1  0  0  0  0
  6 12  1  1  0  0  0
  9  4  1  0  0  0  0
 13  1  1  0  0  0  0
 14 13  1  0  0  0  0
 15  5  1  0  0  0  0
 16 15  1  0  0  0  0
 17 18  1  0  0  0  0
 18 23  1  0  0  0  0
 19 18  2  0  0  0  0
 19 20  1  0  0  0  0
 20 21  2  0  0  0  0
 21 22  1  0  0  0  0
 22 25  1  0  0  0  0
 23 22  2  0  0  0  0
 24 19  1  0  0  0  0
 26 27  1  0  0  0  0
 26 20  1  0  0  0  0
 26 28  1  0  0  0  0
 27 30  1  0  0  0  0
 27 28  1  0  0  0  0
 28 32  1  0  0  0  0
 29 26  1  0  0  0  0
 31 27  1  0  0  0  0
 33 28  1  0  0  0  0
 34 35  1  0  0  0  0
 35 36  2  0  0  0  0
 37 38  1  0  0  0  0
 37 44  1  0  0  0  0
 38 39  1  0  0  0  0
 39 43  1  0  0  0  0
 39 40  1  0  0  0  0
 40 42  1  0  0  0  0
 40 41  2  0  0  0  0
 42 35  1  6  0  0  0
 43 44  1  6  0  0  0
 43 42  1  0  0  0  0
 45 46  1  0  0  0  0
 45 37  1  0  0  0  0
 47 37  1  0  0  0  0
 48 47  1  0  0  0  0
M  END
>  <minimizedAffinity>
-6.44606829

>  <minimizedRMSD>
2.33021545

$$$$
