
 OpenBabel03242522513D

 29 32  0  0  1  0  0  0  0  0999 V2000
   47.4110   31.9010   48.1890 O   0  0  0  0  0  0  0  0  0  0  0  0
   45.1950   30.7090   47.5650 O   0  0  0  0  0  0  0  0  0  0  0  0
   45.7660   31.9330   48.3010 P   0  0  1  0  0  0  0  0  0  0  0  0
   45.2230   31.8500   49.8920 O   0  0  0  0  0  0  0  0  0  0  0  0
   44.3610   32.2910   50.0050 H   0  0  0  0  0  0  0  0  0  0  0  0
   45.1400   33.3260   47.5810 O   0  0  0  0  0  0  0  0  0  0  0  0
   46.9120   33.3120   44.4080 C   0  0  0  0  0  0  0  0  0  0  0  0
   46.5140   32.9840   45.7170 C   0  0  0  0  0  0  0  0  0  0  0  0
   45.4880   33.6880   46.2960 C   0  0  0  0  0  0  0  0  0  0  0  0
   44.9100   34.6710   45.5650 N   0  0  0  0  0  0  0  0  0  0  0  0
   45.2800   34.9900   44.3200 C   0  0  0  0  0  0  0  0  0  0  0  0
   46.2860   34.3090   43.7400 N   0  0  0  0  0  0  0  0  0  0  0  0
   47.7050   32.8210   43.8670 H   0  0  0  0  0  0  0  0  0  0  0  0
   47.1070   32.1730   46.0990 H   0  0  0  0  0  0  0  0  0  0  0  0
   44.7740   35.7790   43.8090 H   0  0  0  0  0  0  0  0  0  0  0  0
   48.3520   31.1130   48.7460 C   0  0  2  0  0  3  0  0  0  0  0  0
   49.1290   31.7250   49.5600 O   0  0  0  0  0  0  0  0  0  0  0  0
   52.5040   31.2380   50.2510 C   0  0  0  0  0  0  0  0  0  0  0  0
   52.3840   29.7460   49.8970 C   0  0  0  0  0  2  0  0  0  0  0  0
   51.2000   29.6500   49.0270 N   0  0  0  0  0  0  0  0  0  0  0  0
   50.1710   29.5250   48.0570 C   0  0  0  0  0  0  0  0  0  0  0  0
   50.3960   29.2200   46.8520 O   0  0  0  0  0  0  0  0  0  0  0  0
   49.0730   29.8490   48.9830 C   0  0  1  0  0  3  0  0  0  0  0  0
   50.1260   29.9170   50.0110 C   0  0  2  0  0  3  0  0  0  0  0  0
   50.7080   31.5550   50.5340 S   0  0  2  0  0  3  0  0  0  0  0  0
   53.3060   31.4210   51.4940 C   0  0  0  0  0  2  0  0  0  0  0  0
   52.6600   31.2600   52.3710 H   0  0  0  0  0  0  0  0  0  0  0  0
   53.0120   31.9730   49.0510 C   0  0  0  0  0  2  0  0  0  0  0  0
   54.0500   32.3620   49.1890 H   0  0  0  0  0  0  0  0  0  0  0  0
  1  3  1  0  0  0  0
  3  2  2  6  0  0  0
  3  4  1  0  0  0  0
  4  5  1  0  0  0  0
  6  3  1  0  0  0  0
  7  8  1  0  0  0  0
  8 14  1  0  0  0  0
  8  9  2  0  0  0  0
  9  6  1  0  0  0  0
 10  9  1  0  0  0  0
 11 10  2  0  0  0  0
 12 11  1  0  0  0  0
 12  7  2  0  0  0  0
 13  7  1  0  0  0  0
 15 11  1  0  0  0  0
 16  1  1  6  0  0  0
 16 23  1  0  0  0  0
 16 17  1  0  0  0  0
 18 25  1  0  0  0  0
 18 26  1  0  0  0  0
 19 18  1  0  0  0  0
 20 19  1  0  0  0  0
 21 20  1  0  0  0  0
 22 21  2  0  0  0  0
 23 21  1  6  0  0  0
 23 24  1  0  0  0  0
 24 20  1  6  0  0  0
 24 25  1  0  0  0  0
 25 17  1  6  0  0  0
 26 27  1  0  0  0  0
 28 29  1  0  0  0  0
 28 18  1  0  0  0  0
M  END
>  <minimizedAffinity>
-5.35742569

>  <minimizedRMSD>
0.848511457

$$$$
