
 OpenBabel03242513123D

 23 26  0  0  1  0  0  0  0  0999 V2000
   38.0040   28.0730   42.3450 C   0  0  0  0  0  0  0  0  0  0  0  0
   36.6200   27.6050   42.0140 C   0  0  0  0  0  2  0  0  0  0  0  0
   36.1770   28.3180   40.8520 N   0  0  2  0  0  0  0  0  0  0  0  0
   35.3170   29.0550   39.9930 C   0  0  1  0  0  0  0  0  0  0  0  0
   34.0720   29.1710   39.7570 O   0  0  0  0  0  1  0  0  0  0  0  0
   36.5080   29.6990   39.4180 C   0  0  2  0  0  3  0  0  0  0  0  0
   37.1510   28.4100   39.8220 C   0  0  1  0  0  0  0  0  0  0  0  0
   38.6970   28.5650   40.7420 S   0  0  0  0  0  0  0  0  0  0  0  0
   36.9220   30.8860   40.2140 C   0  0  0  0  0  0  0  0  0  0  0  0
   36.1720   31.1080   41.1950 O   0  0  0  0  0  0  0  0  0  0  0  0
   39.5330   33.3670   40.5700 C   0  0  0  0  0  0  0  0  0  0  0  0
   40.2640   33.2930   39.3600 C   0  0  0  0  0  0  0  0  0  0  0  0
   39.8190   32.3540   38.4170 C   0  0  0  0  0  0  0  0  0  0  0  0
   38.7310   31.5800   38.7130 N   0  0  0  0  0  0  0  0  0  0  0  0
   38.0830   31.7000   39.8780 C   0  0  0  0  0  0  0  0  0  0  0  0
   38.4800   32.5920   40.8140 N   0  0  0  0  0  0  0  0  0  0  0  0
   39.8310   34.0790   41.3440 H   0  0  0  0  0  0  0  0  0  0  0  0
   41.1040   33.9440   39.2220 H   0  0  0  0  0  0  0  0  0  0  0  0
   40.3580   32.2770   37.4870 H   0  0  0  0  0  0  0  0  0  0  0  0
   38.0910   29.1290   43.3900 C   0  0  0  0  0  2  0  0  0  0  0  0
   39.0490   29.7070   43.2380 H   0  0  0  0  0  0  0  0  0  0  0  0
   38.7810   26.8200   42.7720 C   0  0  0  0  0  2  0  0  0  0  0  0
   39.8210   26.8270   42.3700 H   0  0  0  0  0  0  0  0  0  0  0  0
  1 22  1  0  0  0  0
  1 20  1  0  0  0  0
  2  1  1  0  0  0  0
  3  2  1  6  0  0  0
  4  5  1  6  0  0  0
  4  3  1  0  0  0  0
  6  7  1  0  0  0  0
  6  4  1  0  0  0  0
  6  9  1  1  0  0  0
  7  4  1  0  0  0  0
  7  8  1  6  0  0  0
  7  3  1  0  0  0  0
  8  1  1  0  0  0  0
  9 10  2  0  0  0  0
 11 16  1  0  0  0  0
 11 17  1  0  0  0  0
 12 11  2  0  0  0  0
 13 14  2  0  0  0  0
 13 12  1  0  0  0  0
 14 15  1  0  0  0  0
 15  9  1  0  0  0  0
 15 16  2  0  0  0  0
 18 12  1  0  0  0  0
 19 13  1  0  0  0  0
 21 20  1  0  0  0  0
 23 22  1  0  0  0  0
M  END
>  <minimizedAffinity>
-4.7253027

$$$$

 OpenBabel03242513123D

 23 26  0  0  1  0  0  0  0  0999 V2000
   37.0380   29.4390   37.6260 C   0  0  0  0  0  0  0  0  0  0  0  0
   37.0820   30.9160   37.3780 C   0  0  0  0  0  2  0  0  0  0  0  0
   37.5870   31.5490   38.5620 N   0  0  2  0  0  0  0  0  0  0  0  0
   37.6950   32.4880   39.6230 C   0  0  1  0  0  0  0  0  0  0  0  0
   37.4400   33.7160   39.8420 O   0  0  0  0  0  1  0  0  0  0  0  0
   38.2650   31.4210   40.4580 C   0  0  2  0  0  3  0  0  0  0  0  0
   38.7150   30.9000   39.1310 C   0  0  1  0  0  0  0  0  0  0  0  0
   38.3750   29.1540   38.8220 S   0  0  0  0  0  0  0  0  0  0  0  0
   37.2000   30.6210   41.1200 C   0  0  0  0  0  0  0  0  0  0  0  0
   36.0470   31.0790   40.9280 O   0  0  0  0  0  0  0  0  0  0  0  0
   39.0040   28.3130   43.2470 C   0  0  0  0  0  0  0  0  0  0  0  0
   38.1170   27.2240   43.4250 C   0  0  0  0  0  0  0  0  0  0  0  0
   36.8740   27.3180   42.7820 C   0  0  0  0  0  0  0  0  0  0  0  0
   36.5940   28.4310   42.0360 N   0  0  0  0  0  0  0  0  0  0  0  0
   37.4780   29.4280   41.9080 C   0  0  0  0  0  0  0  0  0  0  0  0
   38.6870   29.3760   42.5120 N   0  0  0  0  0  0  0  0  0  0  0  0
   39.9870   28.2990   43.7230 H   0  0  0  0  0  0  0  0  0  0  0  0
   38.4300   26.3960   44.0290 H   0  0  0  0  0  0  0  0  0  0  0  0
   36.1800   26.5020   42.9010 H   0  0  0  0  0  0  0  0  0  0  0  0
   35.7200   28.9000   38.0550 C   0  0  0  0  0  2  0  0  0  0  0  0
   35.8920   27.9440   38.6320 H   0  0  0  0  0  0  0  0  0  0  0  0
   37.4970   28.7800   36.3180 C   0  0  0  0  0  2  0  0  0  0  0  0
   38.1620   27.9050   36.5130 H   0  0  0  0  0  0  0  0  0  0  0  0
  1 20  1  0  0  0  0
  1  8  1  0  0  0  0
  2  1  1  0  0  0  0
  3  2  1  6  0  0  0
  3  7  1  0  0  0  0
  3  4  1  0  0  0  0
  4  5  1  6  0  0  0
  4  6  1  0  0  0  0
  6  9  1  6  0  0  0
  7  8  1  6  0  0  0
  7  4  1  0  0  0  0
  7  6  1  0  0  0  0
  9 15  1  0  0  0  0
 10  9  2  0  0  0  0
 11 12  1  0  0  0  0
 11 17  1  0  0  0  0
 12 18  1  0  0  0  0
 13 19  1  0  0  0  0
 13 12  2  0  0  0  0
 14 13  1  0  0  0  0
 15 14  2  0  0  0  0
 15 16  1  0  0  0  0
 16 11  2  0  0  0  0
 20 21  1  0  0  0  0
 22 23  1  0  0  0  0
 22  1  1  0  0  0  0
M  END
>  <minimizedAffinity>
-4.71064806

$$$$

 OpenBabel03242513123D

 23 26  0  0  1  0  0  0  0  0999 V2000
   38.8530   26.1400   41.3460 C   0  0  0  0  0  0  0  0  0  0  0  0
   39.9200   27.0770   41.8230 C   0  0  0  0  0  2  0  0  0  0  0  0
   39.2790   28.2170   42.4120 N   0  0  2  0  0  0  0  0  0  0  0  0
   39.0060   29.5780   42.7160 C   0  0  1  0  0  0  0  0  0  0  0  0
   39.6340   30.6810   42.8080 O   0  0  0  0  0  1  0  0  0  0  0  0
   37.5950   29.2120   42.9060 C   0  0  2  0  0  3  0  0  0  0  0  0
   38.1950   27.8920   43.2720 C   0  0  1  0  0  0  0  0  0  0  0  0
   37.4610   26.4510   42.4690 S   0  0  0  0  0  0  0  0  0  0  0  0
   36.8500   29.2290   41.6180 C   0  0  0  0  0  0  0  0  0  0  0  0
   35.9050   28.4030   41.5830 O   0  0  0  0  0  0  0  0  0  0  0  0
   37.0820   32.2720   39.6720 C   0  0  0  0  0  0  0  0  0  0  0  0
   37.7790   31.8940   38.4990 C   0  0  0  0  0  0  0  0  0  0  0  0
   38.1640   30.5480   38.4070 C   0  0  0  0  0  0  0  0  0  0  0  0
   37.8530   29.6960   39.4320 N   0  0  0  0  0  0  0  0  0  0  0  0
   37.1910   30.1180   40.5160 C   0  0  0  0  0  0  0  0  0  0  0  0
   36.8020   31.4080   40.6440 N   0  0  0  0  0  0  0  0  0  0  0  0
   36.7560   33.3070   39.8020 H   0  0  0  0  0  0  0  0  0  0  0  0
   37.9750   32.6360   37.7510 H   0  0  0  0  0  0  0  0  0  0  0  0
   38.6950   30.2330   37.5240 H   0  0  0  0  0  0  0  0  0  0  0  0
   38.5020   26.2490   39.9040 C   0  0  0  0  0  2  0  0  0  0  0  0
   37.4460   25.8730   39.7620 H   0  0  0  0  0  0  0  0  0  0  0  0
   39.3540   24.7280   41.6790 C   0  0  0  0  0  2  0  0  0  0  0  0
   38.5280   24.0790   42.0550 H   0  0  0  0  0  0  0  0  0  0  0  0
  1 22  1  0  0  0  0
  1  2  1  0  0  0  0
  1  8  1  0  0  0  0
  3  2  1  1  0  0  0
  3  4  1  0  0  0  0
  3  7  1  0  0  0  0
  4  5  1  1  0  0  0
  4  6  1  0  0  0  0
  4  7  1  0  0  0  0
  6  9  1  6  0  0  0
  6  7  1  0  0  0  0
  7  8  1  1  0  0  0
 10  9  2  0  0  0  0
 11 17  1  0  0  0  0
 11 16  1  0  0  0  0
 12 11  2  0  0  0  0
 13 12  1  0  0  0  0
 13 14  2  0  0  0  0
 14 15  1  0  0  0  0
 15 16  2  0  0  0  0
 15  9  1  0  0  0  0
 18 12  1  0  0  0  0
 19 13  1  0  0  0  0
 20  1  1  0  0  0  0
 21 20  1  0  0  0  0
 22 23  1  0  0  0  0
M  END
>  <minimizedAffinity>
-4.65819263

$$$$

 OpenBabel03242513123D

 23 26  0  0  1  0  0  0  0  0999 V2000
   39.1730   27.7230   42.6400 C   0  0  0  0  0  0  0  0  0  0  0  0
   37.7340   28.0050   42.9500 C   0  0  0  0  0  2  0  0  0  0  0  0
   37.0260   28.1180   41.7080 N   0  0  2  0  0  0  0  0  0  0  0  0
   36.1310   28.6320   40.7320 C   0  0  1  0  0  0  0  0  0  0  0  0
   35.0310   29.2710   40.6850 O   0  0  0  0  0  1  0  0  0  0  0  0
   37.0260   28.1040   39.6900 C   0  0  2  0  0  3  0  0  0  0  0  0
   37.3550   27.1120   40.7600 C   0  0  1  0  0  0  0  0  0  0  0  0
   39.1150   26.8390   41.0550 S   0  0  0  0  0  0  0  0  0  0  0  0
   38.1140   29.0670   39.3690 C   0  0  0  0  0  0  0  0  0  0  0  0
   39.1570   28.5100   38.9490 O   0  0  0  0  0  0  0  0  0  0  0  0
   38.5040   32.3680   40.8010 C   0  0  0  0  0  0  0  0  0  0  0  0
   37.7760   33.2210   39.9380 C   0  0  0  0  0  0  0  0  0  0  0  0
   37.1440   32.6110   38.8430 C   0  0  0  0  0  0  0  0  0  0  0  0
   37.2660   31.2580   38.6750 N   0  0  0  0  0  0  0  0  0  0  0  0
   37.9710   30.5080   39.5290 C   0  0  0  0  0  0  0  0  0  0  0  0
   38.5950   31.0570   40.5970 N   0  0  0  0  0  0  0  0  0  0  0  0
   39.0180   32.7840   41.6720 H   0  0  0  0  0  0  0  0  0  0  0  0
   37.7390   34.2700   40.1550 H   0  0  0  0  0  0  0  0  0  0  0  0
   36.5830   33.2370   38.1700 H   0  0  0  0  0  0  0  0  0  0  0  0
   40.0720   28.9080   42.6380 C   0  0  0  0  0  2  0  0  0  0  0  0
   40.9610   28.6830   41.9780 H   0  0  0  0  0  0  0  0  0  0  0  0
   39.6320   26.6920   43.6800 C   0  0  0  0  0  2  0  0  0  0  0  0
   40.2930   25.9180   43.2230 H   0  0  0  0  0  0  0  0  0  0  0  0
  1  2  1  0  0  0  0
  1 22  1  0  0  0  0
  3  2  1  1  0  0  0
  4  5  1  1  0  0  0
  4  7  1  0  0  0  0
  4  3  1  0  0  0  0
  6  9  1  1  0  0  0
  6  4  1  0  0  0  0
  6  7  1  0  0  0  0
  7  8  1  1  0  0  0
  7  3  1  0  0  0  0
  8  1  1  0  0  0  0
  9 15  1  0  0  0  0
 10  9  2  0  0  0  0
 11 17  1  0  0  0  0
 12 18  1  0  0  0  0
 12 11  2  0  0  0  0
 13 12  1  0  0  0  0
 14 13  2  0  0  0  0
 14 15  1  0  0  0  0
 15 16  2  0  0  0  0
 16 11  1  0  0  0  0
 19 13  1  0  0  0  0
 20  1  1  0  0  0  0
 21 20  1  0  0  0  0
 23 22  1  0  0  0  0
M  END
>  <minimizedAffinity>
-4.58330727

$$$$

 OpenBabel03242513123D

 23 26  0  0  1  0  0  0  0  0999 V2000
   37.2050   30.4060   40.0150 C   0  0  0  0  0  0  0  0  0  0  0  0
   36.2070   30.1160   41.0950 C   0  0  0  0  0  2  0  0  0  0  0  0
   36.8210   29.2280   42.0390 N   0  0  2  0  0  0  0  0  0  0  0  0
   36.9680   28.1270   42.9260 C   0  0  1  0  0  0  0  0  0  0  0  0
   36.2410   27.4020   43.6790 O   0  0  0  0  0  1  0  0  0  0  0  0
   38.4080   28.1300   42.6290 C   0  0  2  0  0  3  0  0  0  0  0  0
   38.1500   29.5840   42.3910 C   0  0  1  0  0  0  0  0  0  0  0  0
   38.8110   30.2510   40.8480 S   0  0  0  0  0  0  0  0  0  0  0  0
   38.7140   27.3370   41.4070 C   0  0  0  0  0  0  0  0  0  0  0  0
   39.7460   27.7290   40.8100 O   0  0  0  0  0  0  0  0  0  0  0  0
   37.2250   24.0380   41.3500 C   0  0  0  0  0  0  0  0  0  0  0  0
   36.3820   24.0460   40.2130 C   0  0  0  0  0  0  0  0  0  0  0  0
   36.3490   25.2350   39.4680 C   0  0  0  0  0  0  0  0  0  0  0  0
   37.1140   26.2950   39.8720 N   0  0  0  0  0  0  0  0  0  0  0  0
   37.8910   26.2210   40.9600 C   0  0  0  0  0  0  0  0  0  0  0  0
   37.9520   25.0950   41.7050 N   0  0  0  0  0  0  0  0  0  0  0  0
   37.2940   23.1420   41.9720 H   0  0  0  0  0  0  0  0  0  0  0  0
   35.8210   23.1640   39.9790 H   0  0  0  0  0  0  0  0  0  0  0  0
   35.7150   25.2670   38.5970 H   0  0  0  0  0  0  0  0  0  0  0  0
   37.0800   29.5750   38.7870 C   0  0  0  0  0  2  0  0  0  0  0  0
   38.0850   29.5390   38.2740 H   0  0  0  0  0  0  0  0  0  0  0  0
   37.0450   31.8960   39.6850 C   0  0  0  0  0  2  0  0  0  0  0  0
   38.0330   32.3850   39.5150 H   0  0  0  0  0  0  0  0  0  0  0  0
  1  8  1  0  0  0  0
  1  2  1  0  0  0  0
  3  2  1  1  0  0  0
  3  7  1  0  0  0  0
  3  4  1  0  0  0  0
  4  5  1  1  0  0  0
  6  9  1  6  0  0  0
  6  4  1  0  0  0  0
  7  8  1  1  0  0  0
  7  6  1  0  0  0  0
  7  4  1  0  0  0  0
 10  9  2  0  0  0  0
 11 16  1  0  0  0  0
 11 17  1  0  0  0  0
 12 11  2  0  0  0  0
 13 14  2  0  0  0  0
 13 12  1  0  0  0  0
 14 15  1  0  0  0  0
 15  9  1  0  0  0  0
 15 16  2  0  0  0  0
 18 12  1  0  0  0  0
 19 13  1  0  0  0  0
 20  1  1  0  0  0  0
 21 20  1  0  0  0  0
 22  1  1  0  0  0  0
 23 22  1  0  0  0  0
M  END
>  <minimizedAffinity>
-4.57788372

$$$$

 OpenBabel03242513123D

 23 26  0  0  1  0  0  0  0  0999 V2000
   37.2190   28.4010   41.5780 C   0  0  0  0  0  0  0  0  0  0  0  0
   37.8400   29.5830   42.2580 C   0  0  0  0  0  2  0  0  0  0  0  0
   37.5910   30.7410   41.4490 N   0  0  1  0  0  0  0  0  0  0  0  0
   37.8380   31.9600   40.7620 C   0  0  1  0  0  0  0  0  0  0  0  0
   38.5890   32.9820   40.8700 O   0  0  0  0  0  1  0  0  0  0  0  0
   36.8090   31.5740   39.7850 C   0  0  2  0  0  3  0  0  0  0  0  0
   36.2590   30.8310   40.9610 C   0  0  1  0  0  0  0  0  0  0  0  0
   35.8220   29.1060   40.6590 S   0  0  0  0  0  0  0  0  0  0  0  0
   37.3750   30.7170   38.7080 C   0  0  0  0  0  0  0  0  0  0  0  0
   36.5180   29.9790   38.1630 O   0  0  0  0  0  0  0  0  0  0  0  0
   40.4920   31.9380   37.3310 C   0  0  0  0  0  0  0  0  0  0  0  0
   41.4220   30.9000   37.5760 C   0  0  0  0  0  0  0  0  0  0  0  0
   40.9310   29.7630   38.2350 C   0  0  0  0  0  0  0  0  0  0  0  0
   39.6110   29.7220   38.5960 N   0  0  0  0  0  0  0  0  0  0  0  0
   38.7830   30.7400   38.3340 C   0  0  0  0  0  0  0  0  0  0  0  0
   39.2170   31.8540   37.7010 N   0  0  0  0  0  0  0  0  0  0  0  0
   40.8140   32.8500   36.8220 H   0  0  0  0  0  0  0  0  0  0  0  0
   42.4370   31.0270   37.2540 H   0  0  0  0  0  0  0  0  0  0  0  0
   41.6180   28.9570   38.4340 H   0  0  0  0  0  0  0  0  0  0  0  0
   38.1410   27.5840   40.7440 C   0  0  0  0  0  2  0  0  0  0  0  0
   37.5330   27.0460   39.9590 H   0  0  0  0  0  0  0  0  0  0  0  0
   36.6000   27.5510   42.6970 C   0  0  0  0  0  2  0  0  0  0  0  0
   35.6090   27.1360   42.3940 H   0  0  0  0  0  0  0  0  0  0  0  0
  1  2  1  0  0  0  0
  1 22  1  0  0  0  0
  3  2  1  6  0  0  0
  4  5  1  1  0  0  0
  4  7  1  0  0  0  0
  4  3  1  0  0  0  0
  6  9  1  6  0  0  0
  6  4  1  0  0  0  0
  6  7  1  0  0  0  0
  7  8  1  1  0  0  0
  7  3  1  0  0  0  0
  8  1  1  0  0  0  0
 10  9  2  0  0  0  0
 11 12  2  0  0  0  0
 11 16  1  0  0  0  0
 12 13  1  0  0  0  0
 13 19  1  0  0  0  0
 13 14  2  0  0  0  0
 15 14  1  0  0  0  0
 15  9  1  0  0  0  0
 16 15  2  0  0  0  0
 17 11  1  0  0  0  0
 18 12  1  0  0  0  0
 20  1  1  0  0  0  0
 21 20  1  0  0  0  0
 23 22  1  0  0  0  0
M  END
>  <minimizedAffinity>
-4.57505989

$$$$

 OpenBabel03242513123D

 23 26  0  0  1  0  0  0  0  0999 V2000
   39.1800   31.1870   38.6980 C   0  0  0  0  0  0  0  0  0  0  0  0
   39.0310   29.8000   38.1510 C   0  0  0  0  0  2  0  0  0  0  0  0
   37.7380   29.3100   38.5310 N   0  0  2  0  0  0  0  0  0  0  0  0
   36.7460   28.4130   39.0100 C   0  0  1  0  0  0  0  0  0  0  0  0
   36.5300   27.1590   39.0530 O   0  0  0  0  0  1  0  0  0  0  0  0
   35.9810   29.5750   39.4870 C   0  0  2  0  0  3  0  0  0  0  0  0
   36.6870   30.2500   38.3540 C   0  0  1  0  0  0  0  0  0  0  0  0
   37.4810   31.8210   38.7550 S   0  0  0  0  0  0  0  0  0  0  0  0
   36.4220   29.9970   40.8440 C   0  0  0  0  0  0  0  0  0  0  0  0
   36.1440   31.1940   41.1030 O   0  0  0  0  0  0  0  0  0  0  0  0
   36.9240   27.2630   43.1620 C   0  0  0  0  0  0  0  0  0  0  0  0
   38.2870   27.3540   43.5320 C   0  0  0  0  0  0  0  0  0  0  0  0
   39.0250   28.3960   42.9500 C   0  0  0  0  0  0  0  0  0  0  0  0
   38.4010   29.2460   42.0770 N   0  0  0  0  0  0  0  0  0  0  0  0
   37.1060   29.1040   41.7690 C   0  0  0  0  0  0  0  0  0  0  0  0
   36.3600   28.1130   42.3080 N   0  0  0  0  0  0  0  0  0  0  0  0
   36.2970   26.4720   43.5810 H   0  0  0  0  0  0  0  0  0  0  0  0
   38.6840   26.6390   44.2240 H   0  0  0  0  0  0  0  0  0  0  0  0
   40.0650   28.4880   43.2140 H   0  0  0  0  0  0  0  0  0  0  0  0
   39.9070   31.2900   39.9920 C   0  0  0  0  0  2  0  0  0  0  0  0
   39.5760   32.2350   40.5150 H   0  0  0  0  0  0  0  0  0  0  0  0
   39.8940   31.9940   37.6060 C   0  0  0  0  0  2  0  0  0  0  0  0
   39.4690   33.0220   37.5140 H   0  0  0  0  0  0  0  0  0  0  0  0
  1  8  1  0  0  0  0
  1 20  1  0  0  0  0
  2  1  1  0  0  0  0
  3  2  1  6  0  0  0
  3  4  1  0  0  0  0
  4  5  1  6  0  0  0
  4  6  1  0  0  0  0
  6  9  1  1  0  0  0
  7  3  1  0  0  0  0
  7  8  1  6  0  0  0
  7  4  1  0  0  0  0
  7  6  1  0  0  0  0
  9 10  2  0  0  0  0
  9 15  1  0  0  0  0
 11 12  1  0  0  0  0
 11 17  1  0  0  0  0
 12 18  1  0  0  0  0
 13 19  1  0  0  0  0
 13 12  2  0  0  0  0
 14 13  1  0  0  0  0
 15 14  2  0  0  0  0
 15 16  1  0  0  0  0
 16 11  2  0  0  0  0
 20 21  1  0  0  0  0
 22  1  1  0  0  0  0
 23 22  1  0  0  0  0
M  END
>  <minimizedAffinity>
-4.57383776

$$$$

 OpenBabel03242513123D

 23 26  0  0  1  0  0  0  0  0999 V2000
   36.6220   29.7110   39.8140 C   0  0  0  0  0  0  0  0  0  0  0  0
   37.3590   30.9150   40.3190 C   0  0  0  0  0  2  0  0  0  0  0  0
   38.4710   30.4580   41.1010 N   0  0  2  0  0  0  0  0  0  0  0  0
   39.3940   30.3790   42.1780 C   0  0  1  0  0  0  0  0  0  0  0  0
   39.9150   31.1470   43.0490 O   0  0  0  0  0  1  0  0  0  0  0  0
   39.5450   28.9440   41.8930 C   0  0  2  0  0  3  0  0  0  0  0  0
   39.1960   29.3890   40.5090 C   0  0  1  0  0  0  0  0  0  0  0  0
   37.9040   28.4330   39.6850 S   0  0  0  0  0  0  0  0  0  0  0  0
   38.4970   28.1400   42.5790 C   0  0  0  0  0  0  0  0  0  0  0  0
   37.7930   28.8170   43.3670 O   0  0  0  0  0  0  0  0  0  0  0  0
   39.3440   24.6860   41.9040 C   0  0  0  0  0  0  0  0  0  0  0  0
   38.1010   24.0070   41.9060 C   0  0  0  0  0  0  0  0  0  0  0  0
   36.9620   24.7890   42.1490 C   0  0  0  0  0  0  0  0  0  0  0  0
   37.1110   26.1320   42.3650 N   0  0  0  0  0  0  0  0  0  0  0  0
   38.3160   26.7130   42.3500 C   0  0  0  0  0  0  0  0  0  0  0  0
   39.4390   25.9950   42.1210 N   0  0  0  0  0  0  0  0  0  0  0  0
   40.2670   24.1320   41.7220 H   0  0  0  0  0  0  0  0  0  0  0  0
   38.0890   22.9500   41.7260 H   0  0  0  0  0  0  0  0  0  0  0  0
   36.0030   24.2960   42.1550 H   0  0  0  0  0  0  0  0  0  0  0  0
   35.4390   29.3010   40.6180 C   0  0  0  0  0  2  0  0  0  0  0  0
   35.2540   28.2000   40.4480 H   0  0  0  0  0  0  0  0  0  0  0  0
   36.2130   30.0440   38.3730 C   0  0  0  0  0  2  0  0  0  0  0  0
   36.3340   29.1620   37.7000 H   0  0  0  0  0  0  0  0  0  0  0  0
  1  2  1  0  0  0  0
  1 20  1  0  0  0  0
  3  2  1  6  0  0  0
  3  4  1  0  0  0  0
  4  5  1  1  0  0  0
  6  4  1  0  0  0  0
  6  9  1  1  0  0  0
  7  8  1  6  0  0  0
  7  3  1  0  0  0  0
  7  6  1  0  0  0  0
  7  4  1  0  0  0  0
  8  1  1  0  0  0  0
  9 10  2  0  0  0  0
 11 12  2  0  0  0  0
 11 16  1  0  0  0  0
 12 13  1  0  0  0  0
 13 19  1  0  0  0  0
 13 14  2  0  0  0  0
 15 14  1  0  0  0  0
 15  9  1  0  0  0  0
 16 15  2  0  0  0  0
 17 11  1  0  0  0  0
 18 12  1  0  0  0  0
 21 20  1  0  0  0  0
 22  1  1  0  0  0  0
 23 22  1  0  0  0  0
M  END
>  <minimizedAffinity>
-4.57213306

$$$$

 OpenBabel03242513123D

 23 26  0  0  1  0  0  0  0  0999 V2000
   37.5870   30.1410   39.6580 C   0  0  0  0  0  0  0  0  0  0  0  0
   37.2370   28.7650   39.1790 C   0  0  0  0  0  2  0  0  0  0  0  0
   36.9070   27.9680   40.3240 N   0  0  2  0  0  0  0  0  0  0  0  0
   36.8770   26.8500   41.2010 C   0  0  1  0  0  0  0  0  0  0  0  0
   36.9600   25.5810   41.1350 O   0  0  0  0  0  1  0  0  0  0  0  0
   36.6990   27.7830   42.3230 C   0  0  2  0  0  3  0  0  0  0  0  0
   36.0610   28.6210   41.2610 C   0  0  1  0  0  0  0  0  0  0  0  0
   36.6190   30.3360   41.1810 S   0  0  0  0  0  0  0  0  0  0  0  0
   38.0060   28.2890   42.8230 C   0  0  0  0  0  0  0  0  0  0  0  0
   37.9460   29.4660   43.2570 O   0  0  0  0  0  0  0  0  0  0  0  0
   41.2720   27.1180   41.7920 C   0  0  0  0  0  0  0  0  0  0  0  0
   41.5660   26.0540   42.6780 C   0  0  0  0  0  0  0  0  0  0  0  0
   40.5930   25.7570   43.6440 C   0  0  0  0  0  0  0  0  0  0  0  0
   39.4410   26.4960   43.6760 N   0  0  0  0  0  0  0  0  0  0  0  0
   39.2240   27.4910   42.8070 C   0  0  0  0  0  0  0  0  0  0  0  0
   40.1370   27.8090   41.8610 N   0  0  0  0  0  0  0  0  0  0  0  0
   41.9910   27.3970   41.0180 H   0  0  0  0  0  0  0  0  0  0  0  0
   42.4980   25.5350   42.5730 H   0  0  0  0  0  0  0  0  0  0  0  0
   40.7910   24.9510   44.3310 H   0  0  0  0  0  0  0  0  0  0  0  0
   39.0410   30.4090   39.8280 C   0  0  0  0  0  2  0  0  0  0  0  0
   39.1670   31.2390   40.5840 H   0  0  0  0  0  0  0  0  0  0  0  0
   36.9700   31.1090   38.6400 C   0  0  0  0  0  2  0  0  0  0  0  0
   36.5250   32.0010   39.1430 H   0  0  0  0  0  0  0  0  0  0  0  0
  1 20  1  0  0  0  0
  1  8  1  0  0  0  0
  2  1  1  0  0  0  0
  3  2  1  6  0  0  0
  3  4  1  0  0  0  0
  3  7  1  0  0  0  0
  4  5  1  6  0  0  0
  4  7  1  0  0  0  0
  4  6  1  0  0  0  0
  6  9  1  6  0  0  0
  7  8  1  6  0  0  0
  7  6  1  0  0  0  0
  9 10  2  0  0  0  0
 11 16  2  0  0  0  0
 11 12  1  0  0  0  0
 12 13  2  0  0  0  0
 13 14  1  0  0  0  0
 13 19  1  0  0  0  0
 15  9  1  0  0  0  0
 15 14  2  0  0  0  0
 16 15  1  0  0  0  0
 17 11  1  0  0  0  0
 18 12  1  0  0  0  0
 20 21  1  0  0  0  0
 22 23  1  0  0  0  0
 22  1  1  0  0  0  0
M  END
>  <minimizedAffinity>
-4.47038507

$$$$
