
 OpenBabel03242522513D

 29 31  0  0  1  0  0  0  0  0999 V2000
   47.1650   31.5250   47.9760 O   0  0  0  0  0  0  0  0  0  0  0  0
   44.6880   30.8690   47.5790 O   0  0  0  0  0  0  0  0  0  0  0  0
   45.5900   31.8750   48.3160 P   0  0  1  0  0  0  0  0  0  0  0  0
   45.2350   31.7460   49.9560 O   0  0  0  0  0  0  0  0  0  0  0  0
   44.5060   32.3370   50.2180 H   0  0  0  0  0  0  0  0  0  0  0  0
   45.1900   33.4290   47.7900 O   0  0  0  0  0  0  0  0  0  0  0  0
   46.6220   33.5130   44.4510 C   0  0  0  0  0  0  0  0  0  0  0  0
   46.3730   33.1550   45.7880 C   0  0  0  0  0  0  0  0  0  0  0  0
   45.3910   33.8180   46.4820 C   0  0  0  0  0  0  0  0  0  0  0  0
   44.7110   34.7920   45.8300 N   0  0  0  0  0  0  0  0  0  0  0  0
   44.9400   35.1390   44.5590 C   0  0  0  0  0  0  0  0  0  0  0  0
   45.9000   34.4970   43.8680 N   0  0  0  0  0  0  0  0  0  0  0  0
   47.3700   33.0540   43.8230 H   0  0  0  0  0  0  0  0  0  0  0  0
   47.0270   32.3580   46.0940 H   0  0  0  0  0  0  0  0  0  0  0  0
   44.3600   35.9170   44.1160 H   0  0  0  0  0  0  0  0  0  0  0  0
   47.8500   30.3670   47.8960 C   0  0  0  0  0  0  0  0  0  0  0  0
   49.0400   30.4320   48.3630 O   0  0  0  0  0  0  0  0  0  0  0  0
   47.1810   29.0410   43.7360 C   0  0  0  0  0  0  0  0  0  0  0  0
   47.3210   27.6800   44.4390 C   0  0  0  0  0  2  0  0  0  0  0  0
   47.1540   27.9680   45.8730 N   0  0  0  0  0  0  0  0  0  0  0  0
   46.8370   28.1640   47.2440 C   0  0  0  0  0  0  0  0  0  0  0  0
   45.7880   27.7040   47.7780 O   0  0  0  0  0  0  0  0  0  0  0  0
   48.0450   28.9480   47.5500 C   0  0  1  0  0  3  0  0  0  0  0  0
   48.4140   28.6950   46.1470 C   0  0  2  0  0  3  0  0  0  0  0  0
   48.1660   30.0300   44.9410 S   0  0  0  0  0  0  0  0  0  0  0  0
   47.8190   29.0060   42.3900 C   0  0  0  0  0  2  0  0  0  0  0  0
   48.9030   29.1680   42.4960 H   0  0  0  0  0  0  0  0  0  0  0  0
   45.7370   29.4370   43.7460 C   0  0  0  0  0  2  0  0  0  0  0  0
   45.2760   29.4160   42.7290 H   0  0  0  0  0  0  0  0  0  0  0  0
  1  3  1  0  0  0  0
  3  2  2  6  0  0  0
  3  4  1  0  0  0  0
  4  5  1  0  0  0  0
  6  3  1  0  0  0  0
  7  8  1  0  0  0  0
  8 14  1  0  0  0  0
  8  9  2  0  0  0  0
  9  6  1  0  0  0  0
 10  9  1  0  0  0  0
 11 10  2  0  0  0  0
 12  7  2  0  0  0  0
 12 11  1  0  0  0  0
 13  7  1  0  0  0  0
 15 11  1  0  0  0  0
 16  1  1  0  0  0  0
 16 17  2  0  0  0  0
 18 28  1  0  0  0  0
 18 19  1  0  0  0  0
 18 25  1  0  0  0  0
 19 20  1  0  0  0  0
 20 24  1  0  0  0  0
 20 21  1  0  0  0  0
 21 23  1  0  0  0  0
 21 22  2  0  0  0  0
 23 16  1  6  0  0  0
 24 25  1  6  0  0  0
 24 23  1  0  0  0  0
 26 27  1  0  0  0  0
 26 18  1  0  0  0  0
 29 28  1  0  0  0  0
M  END
>  <minimizedAffinity>
-4.25030613

>  <minimizedRMSD>
1.58585811

$$$$
