
 OpenBabel03242519113D

 50 54  0  0  1  0  0  0  0  0999 V2000
   48.0640   32.1480   36.5680 C   0  0  0  0  0  0  0  0  0  0  0  0
   47.4750   32.7630   37.6940 C   0  0  0  0  0  0  0  0  0  0  0  0
   46.1400   33.0620   37.5220 C   0  0  0  0  0  0  0  0  0  0  0  0
   45.4020   32.8130   36.3990 C   0  0  0  0  0  0  0  0  0  0  0  0
   46.0200   32.2090   35.3210 C   0  0  0  0  0  0  0  0  0  0  0  0
   47.3450   31.8870   35.4290 C   0  0  0  0  0  0  0  0  0  0  0  0
   45.6530   33.5350   38.3640 H   0  0  0  0  0  0  0  0  0  0  0  0
   44.3510   33.0690   36.3160 H   0  0  0  0  0  0  0  0  0  0  0  0
   45.4630   31.9990   34.4170 H   0  0  0  0  0  0  0  0  0  0  0  0
   48.7390   32.0570   33.4170 C   0  0  0  0  0  0  0  0  0  0  0  0
   48.8950   33.3010   33.6400 O   0  0  0  0  0  0  0  0  0  0  0  0
   47.9510   31.2640   34.2960 N   0  0  0  0  0  0  0  0  0  0  0  0
   47.7860   30.2520   34.1690 H   0  0  0  0  0  0  0  0  0  0  0  0
   50.5640   28.5120   34.6520 C   0  0  0  0  0  0  0  0  0  0  0  0
   50.0100   28.0810   33.3270 C   0  0  0  0  0  2  0  0  0  0  0  0
   49.3960   29.2020   32.6800 N   0  0  0  0  0  0  0  0  0  0  0  0
   48.4910   30.0860   32.0250 C   0  0  0  0  0  0  0  0  0  0  0  0
   47.3690   29.9140   31.4420 O   0  0  0  0  0  0  0  0  0  0  0  0
   49.3290   31.2910   32.2670 C   0  0  2  0  0  3  0  0  0  0  0  0
   50.3730   30.2960   32.5900 C   0  0  1  0  0  3  0  0  0  0  0  0
   50.9090   30.2760   34.3440 S   0  0  0  0  0  0  0  0  0  0  0  0
   49.6540   28.3010   35.8150 C   0  0  0  0  0  2  0  0  0  0  0  0
   48.5950   28.1750   35.5740 H   0  0  0  0  0  0  0  0  0  0  0  0
   51.8590   27.7440   34.8540 C   0  0  0  0  0  2  0  0  0  0  0  0
   52.6200   28.0180   34.0970 H   0  0  0  0  0  0  0  0  0  0  0  0
   48.1560   33.0570   38.8870 N   0  0  0  0  0  0  0  0  0  0  0  0
   49.1520   33.2580   38.6390 H   0  0  0  0  0  0  0  0  0  0  0  0
   47.3580   34.2520   42.1400 N   0  0  0  0  0  0  0  0  0  0  0  0
   47.3050   34.4710   40.6950 C   0  0  0  0  0  0  0  0  0  0  0  0
   47.7370   33.1140   40.2460 C   0  0  2  0  0  0  0  0  0  0  0  0
   48.9440   32.8390   41.1230 C   0  0  0  0  0  0  0  0  0  0  0  0
   48.5870   33.5550   42.4050 C   0  0  0  0  0  0  0  0  0  0  0  0
   48.0420   35.2250   40.3670 H   0  0  0  0  0  0  0  0  0  0  0  0
   46.2700   34.6960   40.3680 H   0  0  0  0  0  0  0  0  0  0  0  0
   46.9090   32.4090   40.4630 H   0  0  0  0  0  0  0  0  0  0  0  0
   49.0920   31.7540   41.2930 H   0  0  0  0  0  0  0  0  0  0  0  0
   49.8140   33.3470   40.6770 H   0  0  0  0  0  0  0  0  0  0  0  0
   48.4260   32.8160   43.2360 H   0  0  0  0  0  0  0  0  0  0  0  0
   49.3670   34.2550   42.7370 H   0  0  0  0  0  0  0  0  0  0  0  0
   44.7180   35.9790   44.1410 C   0  0  0  0  0  0  0  0  0  0  0  0
   45.5850   35.7070   43.0890 C   0  0  0  0  0  0  0  0  0  0  0  0
   46.4480   34.6090   43.1470 C   0  0  0  0  0  0  0  0  0  0  0  0
   46.3770   33.8570   44.2690 N   0  0  0  0  0  0  0  0  0  0  0  0
   45.5490   34.1030   45.2910 C   0  0  0  0  0  0  0  0  0  0  0  0
   44.7130   35.1810   45.2140 N   0  0  0  0  0  0  0  0  0  0  0  0
   44.0890   36.8470   44.0060 H   0  0  0  0  0  0  0  0  0  0  0  0
   45.6840   36.2750   42.1690 H   0  0  0  0  0  0  0  0  0  0  0  0
   45.5210   33.4710   46.1800 H   0  0  0  0  0  0  0  0  0  0  0  0
   50.5810   31.5300   36.7420 N   0  0  0  0  0  0  0  0  0  0  0  0
   49.4640   31.8050   36.6750 C   0  0  0  0  0  0  0  0  0  0  0  0
  1 50  1  0  0  0  0
  1  2  1  0  0  0  0
  2 26  1  0  0  0  0
  3  2  2  0  0  0  0
  3  7  1  0  0  0  0
  4  3  1  0  0  0  0
  5  6  1  0  0  0  0
  5  4  2  0  0  0  0
  6  1  2  0  0  0  0
  8  4  1  0  0  0  0
  9  5  1  0  0  0  0
 10 11  2  0  0  0  0
 10 12  1  0  0  0  0
 12  6  1  0  0  0  0
 13 12  1  0  0  0  0
 14 24  1  0  0  0  0
 14 22  1  0  0  0  0
 15 14  1  0  0  0  0
 16 15  1  0  0  0  0
 17 19  1  0  0  0  0
 17 16  1  0  0  0  0
 18 17  2  0  0  0  0
 19 20  1  0  0  0  0
 19 10  1  1  0  0  0
 20 16  1  0  0  0  0
 20 21  1  1  0  0  0
 21 14  1  0  0  0  0
 23 22  1  0  0  0  0
 25 24  1  0  0  0  0
 26 30  1  0  0  0  0
 27 26  1  0  0  0  0
 28 32  1  0  0  0  0
 28 42  1  0  0  0  0
 29 28  1  0  0  0  0
 30 35  1  1  0  0  0
 30 29  1  0  0  0  0
 30 31  1  0  0  0  0
 31 36  1  0  0  0  0
 31 32  1  0  0  0  0
 32 39  1  0  0  0  0
 32 38  1  0  0  0  0
 33 29  1  0  0  0  0
 34 29  1  0  0  0  0
 37 31  1  0  0  0  0
 40 45  1  0  0  0  0
 41 42  1  0  0  0  0
 41 40  2  0  0  0  0
 42 43  2  0  0  0  0
 43 44  1  0  0  0  0
 44 48  1  0  0  0  0
 45 44  2  0  0  0  0
 46 40  1  0  0  0  0
 47 41  1  0  0  0  0
 50 49  3  0  0  0  0
M  END
>  <minimizedAffinity>
-5.55003691

>  <minimizedRMSD>
1.75764894

$$$$
