
 OpenBabel03242512053D

 23 26  0  0  1  0  0  0  0  0999 V2000
   43.4600   32.7680   39.1930 C   0  0  0  0  0  0  0  0  0  0  0  0
   44.3090   31.7110   39.7900 C   0  0  0  0  0  2  0  0  0  0  0  0
   45.4450   32.2820   40.4210 N   0  0  2  0  0  0  0  0  0  0  0  0
   46.7660   32.5690   40.8660 C   0  0  1  0  0  0  0  0  0  0  0  0
   47.7600   31.8110   41.1290 O   0  0  0  0  0  1  0  0  0  0  0  0
   46.3980   34.0010   40.8530 C   0  0  1  0  0  3  0  0  0  0  0  0
   45.0430   33.3980   41.2090 C   0  0  1  0  0  0  0  0  0  0  0  0
   43.6440   34.1450   40.3920 S   0  0  0  0  0  0  0  0  0  0  0  0
   46.8860   34.8190   41.9900 C   0  0  0  0  0  0  0  0  0  0  0  0
   47.9750   35.4640   41.9420 O   0  0  0  0  0  0  0  0  0  0  0  0
   45.2320   35.9780   43.4030 C   0  0  0  0  0  0  0  0  0  0  0  0
   46.1330   34.9190   43.2170 C   0  0  0  0  0  0  0  0  0  0  0  0
   46.2840   33.9710   44.2350 C   0  0  0  0  0  0  0  0  0  0  0  0
   45.5430   34.1310   45.3570 N   0  0  0  0  0  0  0  0  0  0  0  0
   44.6820   35.1620   45.5110 C   0  0  0  0  0  0  0  0  0  0  0  0
   44.5300   36.0780   44.5380 N   0  0  0  0  0  0  0  0  0  0  0  0
   45.0890   36.7230   42.6450 H   0  0  0  0  0  0  0  0  0  0  0  0
   46.9790   33.1580   44.0860 H   0  0  0  0  0  0  0  0  0  0  0  0
   44.2070   35.0810   46.4820 H   0  0  0  0  0  0  0  0  0  0  0  0
   41.9690   32.4440   39.2040 C   0  0  0  0  0  2  0  0  0  0  0  0
   41.4890   33.1920   38.5150 H   0  0  0  0  0  0  0  0  0  0  0  0
   43.8900   33.2840   37.8590 C   0  0  0  0  0  2  0  0  0  0  0  0
   42.9790   33.7400   37.3730 H   0  0  0  0  0  0  0  0  0  0  0  0
  1 20  1  0  0  0  0
  1  2  1  0  0  0  0
  1  8  1  0  0  0  0
  3  2  1  1  0  0  0
  3  4  1  0  0  0  0
  3  7  1  0  0  0  0
  4  5  1  1  0  0  0
  4  7  1  0  0  0  0
  6  4  1  0  0  0  0
  6  7  1  0  0  0  0
  6  9  1  1  0  0  0
  7  8  1  1  0  0  0
  9 12  1  0  0  0  0
 10  9  2  0  0  0  0
 11 16  1  0  0  0  0
 12 11  2  0  0  0  0
 12 13  1  0  0  0  0
 13 14  2  0  0  0  0
 14 15  1  0  0  0  0
 15 19  1  0  0  0  0
 16 15  2  0  0  0  0
 17 11  1  0  0  0  0
 18 13  1  0  0  0  0
 21 20  1  0  0  0  0
 22  1  1  0  0  0  0
 23 22  1  0  0  0  0
M  END
>  <minimizedAffinity>
-4.34722185

>  <minimizedRMSD>
0.459130973

$$$$
