
 OpenBabel03252507163D

 32 36  0  0  1  0  0  0  0  0999 V2000
   45.1060   36.1230   43.4930 C   0  0  0  0  0  0  0  0  0  0  0  0
   45.7340   34.9020   43.1610 C   0  0  0  0  0  0  0  0  0  0  0  0
   45.7790   33.9020   44.1210 C   0  0  0  0  0  0  0  0  0  0  0  0
   45.2300   34.1240   45.3260 N   0  0  0  0  0  0  0  0  0  0  0  0
   44.6250   35.3120   45.6360 C   0  0  0  0  0  0  0  0  0  0  0  0
   44.5760   36.2740   44.7250 N   0  0  0  0  0  0  0  0  0  0  0  0
   45.0510   36.9320   42.7660 H   0  0  0  0  0  0  0  0  0  0  0  0
   44.1910   35.4580   46.6150 H   0  0  0  0  0  0  0  0  0  0  0  0
   46.4270   32.6460   43.7720 C   0  0  0  0  0  0  0  0  0  0  0  0
   45.6590   31.5410   43.4960 C   0  0  0  0  0  0  0  0  0  0  0  0
   46.3050   30.3670   43.1690 C   0  0  0  0  0  0  0  0  0  0  0  0
   47.6860   30.2410   43.1040 C   0  0  0  0  0  0  0  0  0  0  0  0
   48.3900   31.3880   43.3940 C   0  0  0  0  0  0  0  0  0  0  0  0
   47.7620   32.5410   43.7140 N   0  0  0  0  0  0  0  0  0  0  0  0
   44.5830   31.5860   43.5310 H   0  0  0  0  0  0  0  0  0  0  0  0
   45.6700   29.5190   42.9580 H   0  0  0  0  0  0  0  0  0  0  0  0
   48.1310   29.2880   42.8420 H   0  0  0  0  0  0  0  0  0  0  0  0
   49.4720   31.3370   43.3560 H   0  0  0  0  0  0  0  0  0  0  0  0
   46.2960   34.7390   41.8570 C   0  0  0  0  0  0  0  0  0  0  0  0
   47.5580   34.8580   41.7390 O   0  0  0  0  0  0  0  0  0  0  0  0
   42.1370   33.0720   39.4670 C   0  0  0  0  0  0  0  0  0  0  0  0
   43.4280   32.7810   38.8100 C   0  0  0  0  0  2  0  0  0  0  0  0
   44.5150   33.0180   39.6680 N   0  0  1  0  0  0  0  0  0  0  0  0
   45.8340   33.0400   40.1960 C   0  0  1  0  0  0  0  0  0  0  0  0
   46.7770   32.2140   40.2170 O   0  0  0  0  0  1  0  0  0  0  0  0
   45.4730   34.4410   40.6490 C   0  0  1  0  0  3  0  0  0  0  0  0
   44.1970   33.7440   40.9180 C   0  0  1  0  0  0  0  0  0  0  0  0
   42.6410   34.5430   40.4600 S   0  0  0  0  0  0  0  0  0  0  0  0
   41.0400   33.4150   38.4940 C   0  0  0  0  0  2  0  0  0  0  0  0
   41.3780   33.2230   37.4370 H   0  0  0  0  0  0  0  0  0  0  0  0
   41.7550   32.0190   40.4560 C   0  0  0  0  0  2  0  0  0  0  0  0
   40.9340   31.3620   40.0880 H   0  0  0  0  0  0  0  0  0  0  0  0
  1  6  1  0  0  0  0
  2  1  2  0  0  0  0
  2  3  1  0  0  0  0
  3  4  2  0  0  0  0
  4  5  1  0  0  0  0
  5  8  1  0  0  0  0
  6  5  2  0  0  0  0
  7  1  1  0  0  0  0
  9  3  1  0  0  0  0
 10 15  1  0  0  0  0
 10  9  2  0  0  0  0
 11 10  1  0  0  0  0
 12 11  2  0  0  0  0
 12 13  1  0  0  0  0
 13 14  2  0  0  0  0
 14  9  1  0  0  0  0
 16 11  1  0  0  0  0
 17 12  1  0  0  0  0
 18 13  1  0  0  0  0
 19  2  1  0  0  0  0
 20 19  2  0  0  0  0
 21 31  1  0  0  0  0
 21 28  1  0  0  0  0
 22 21  1  0  0  0  0
 23 22  1  6  0  0  0
 23 24  1  0  0  0  0
 23 27  1  0  0  0  0
 24 25  1  1  0  0  0
 24 26  1  0  0  0  0
 24 27  1  0  0  0  0
 26 27  1  0  0  0  0
 26 19  1  1  0  0  0
 27 28  1  1  0  0  0
 29 21  1  0  0  0  0
 30 29  1  0  0  0  0
 32 31  1  0  0  0  0
M  END
>  <minimizedAffinity>
-4.92809105

>  <minimizedRMSD>
1.65401816

$$$$
