
 OpenBabel03242510123D

 45 49  0  0  1  0  0  0  0  0999 V2000
   46.6330   33.0140   38.6060 N   0  0  0  0  0  0  0  0  0  0  0  0
   45.8160   33.3960   37.4850 C   0  0  0  0  0  0  0  0  0  0  0  0
   44.9070   32.2580   37.0570 C   0  0  0  0  0  0  0  0  0  0  0  0
   45.6590   31.1420   36.5590 N   0  0  0  0  0  0  0  0  0  0  0  0
   47.0490   31.2470   37.0690 C   0  0  0  0  0  0  0  0  0  0  0  0
   47.0040   31.5620   38.5380 C   0  0  1  0  0  0  0  0  0  0  0  0
   46.3700   33.8320   36.6580 H   0  0  0  0  0  0  0  0  0  0  0  0
   45.1110   34.1980   37.8450 H   0  0  0  0  0  0  0  0  0  0  0  0
   44.3140   32.6690   36.1970 H   0  0  0  0  0  0  0  0  0  0  0  0
   44.2160   32.0270   37.8750 H   0  0  0  0  0  0  0  0  0  0  0  0
   45.2840   30.2680   36.9940 H   0  0  0  0  0  0  0  0  0  0  0  0
   47.5230   32.1500   36.5740 H   0  0  0  0  0  0  0  0  0  0  0  0
   47.5170   30.3250   36.7830 H   0  0  0  0  0  0  0  0  0  0  0  0
   46.1200   31.0700   39.0150 H   0  0  0  0  0  0  0  0  0  0  0  0
   44.7820   32.9920   41.1410 Br  0  0  0  0  0  0  0  0  0  0  0  0
   46.4090   33.9430   40.8940 C   0  0  0  0  0  0  0  0  0  0  0  0
   46.9020   34.7370   41.8970 C   0  0  0  0  0  0  0  0  0  0  0  0
   48.0970   35.4480   41.7320 C   0  0  0  0  0  0  0  0  0  0  0  0
   48.7600   35.3290   40.5460 C   0  0  0  0  0  0  0  0  0  0  0  0
   48.2320   34.5200   39.5600 C   0  0  0  0  0  0  0  0  0  0  0  0
   47.0840   33.8260   39.6970 C   0  0  0  0  0  0  0  0  0  0  0  0
   48.4100   36.0410   42.5620 H   0  0  0  0  0  0  0  0  0  0  0  0
   49.6780   35.8900   40.4530 H   0  0  0  0  0  0  0  0  0  0  0  0
   48.8650   34.5240   38.6630 H   0  0  0  0  0  0  0  0  0  0  0  0
   45.6660   34.0260   45.2580 C   0  0  0  0  0  0  0  0  0  0  0  0
   44.7420   35.0520   45.5110 C   0  0  0  0  0  0  0  0  0  0  0  0
   44.5660   35.9790   44.4980 C   0  0  0  0  0  0  0  0  0  0  0  0
   45.2720   35.8490   43.3570 N   0  0  0  0  0  0  0  0  0  0  0  0
   46.1620   34.8380   43.1440 C   0  0  0  0  0  0  0  0  0  0  0  0
   46.3380   33.9380   44.1170 N   0  0  0  0  0  0  0  0  0  0  0  0
   45.7980   33.2970   46.0670 H   0  0  0  0  0  0  0  0  0  0  0  0
   44.1660   35.1750   46.4170 H   0  0  0  0  0  0  0  0  0  0  0  0
   43.8660   36.8200   44.5990 H   0  0  0  0  0  0  0  0  0  0  0  0
   48.1940   31.2970   39.3390 C   0  0  0  0  0  0  0  0  0  0  0  0
   49.5560   31.2760   38.8150 C   0  0  2  0  0  0  0  0  0  0  0  0
   50.0050   32.1820   37.7480 C   0  0  0  0  0  0  0  0  0  0  0  0
   50.0860   31.4830   36.4870 N   0  0  0  0  0  0  0  0  0  0  0  0
   49.9630   31.0600   35.1330 C   0  0  0  0  0  0  0  0  0  0  0  0
   49.5980   31.6430   34.0570 O   0  0  0  0  0  0  0  0  0  0  0  0
   50.4150   29.6690   35.4000 C   0  0  0  0  0  0  0  0  0  0  0  0
   51.2790   29.3570   34.7640 H   0  0  0  0  0  0  0  0  0  0  0  0
   50.9120   30.2810   36.6840 C   0  0  2  0  0  0  0  0  0  0  0  0
   50.0540   29.6290   38.1730 S   0  0  0  0  0  0  0  0  0  0  0  0
   50.5410   31.5560   40.0060 C   0  0  0  0  0  0  0  0  0  0  0  0
   50.5460   30.6930   40.6930 H   0  0  0  0  0  0  0  0  0  0  0  0
  1 21  1  0  0  0  0
  2  8  1  0  0  0  0
  2  1  1  0  0  0  0
  3  2  1  0  0  0  0
  3 10  1  0  0  0  0
  4 11  1  0  0  0  0
  4  3  1  0  0  0  0
  4  5  1  0  0  0  0
  5  6  1  0  0  0  0
  6  1  1  0  0  0  0
  6 14  1  1  0  0  0
  6 34  1  0  0  0  0
  7  2  1  0  0  0  0
  9  3  1  0  0  0  0
 12  5  1  0  0  0  0
 13  5  1  0  0  0  0
 16 15  1  0  0  0  0
 16 17  1  0  0  0  0
 17 29  1  0  0  0  0
 18 17  2  0  0  0  0
 18 22  1  0  0  0  0
 19 18  1  0  0  0  0
 20 21  1  0  0  0  0
 20 19  2  0  0  0  0
 21 16  2  0  0  0  0
 23 19  1  0  0  0  0
 24 20  1  0  0  0  0
 25 26  1  0  0  0  0
 25 31  1  0  0  0  0
 26 32  1  0  0  0  0
 27 33  1  0  0  0  0
 27 26  2  0  0  0  0
 28 27  1  0  0  0  0
 29 28  2  0  0  0  0
 29 30  1  0  0  0  0
 30 25  2  0  0  0  0
 35 34  1  1  0  0  0
 35 44  1  0  0  0  0
 36 35  1  0  0  0  0
 37 42  1  0  0  0  0
 37 36  1  0  0  0  0
 38 40  1  0  0  0  0
 38 37  1  0  0  0  0
 39 38  2  0  0  0  0
 41 40  1  0  0  0  0
 42 40  1  6  0  0  0
 42 43  1  0  0  0  0
 43 35  1  0  0  0  0
 44 45  1  0  0  0  0
M  END
>  <minimizedAffinity>
-6.02336788

>  <minimizedRMSD>
1.26306152

$$$$
