
 OpenBabel03242513153D

 33 37  0  0  1  0  0  0  0  0999 V2000
   38.6900   29.6510   43.1450 Cl  0  0  0  0  0  0  0  0  0  0  0  0
   37.5230   29.6430   41.8100 C   0  0  0  0  0  0  0  0  0  0  0  0
   36.6640   28.5940   41.6800 C   0  0  0  0  0  0  0  0  0  0  0  0
   35.7320   28.6540   40.6770 C   0  0  0  0  0  0  0  0  0  0  0  0
   35.6750   29.7400   39.8310 C   0  0  0  0  0  0  0  0  0  0  0  0
   36.5680   30.8180   39.9720 C   0  0  0  0  0  0  0  0  0  0  0  0
   37.5070   30.7400   40.9970 C   0  0  0  0  0  0  0  0  0  0  0  0
   34.9730   27.9430   40.4310 H   0  0  0  0  0  0  0  0  0  0  0  0
   34.9510   29.8490   39.0060 H   0  0  0  0  0  0  0  0  0  0  0  0
   36.4960   31.6640   39.2870 H   0  0  0  0  0  0  0  0  0  0  0  0
   36.7700   27.4580   42.5750 C   0  0  0  0  0  0  0  0  0  0  0  0
   36.1590   27.5470   43.6780 O   0  0  0  0  0  0  0  0  0  0  0  0
   37.5460   24.0260   41.6980 C   0  0  0  0  0  0  0  0  0  0  0  0
   38.9330   23.9810   41.5610 C   0  0  0  0  0  0  0  0  0  0  0  0
   39.5900   25.1900   41.7880 C   0  0  0  0  0  0  0  0  0  0  0  0
   38.8580   26.3020   42.1170 N   0  0  0  0  0  0  0  0  0  0  0  0
   37.5280   26.2830   42.2330 C   0  0  0  0  0  0  0  0  0  0  0  0
   36.8900   25.1310   42.0190 N   0  0  0  0  0  0  0  0  0  0  0  0
   37.0730   23.0590   41.5120 H   0  0  0  0  0  0  0  0  0  0  0  0
   39.4760   23.0830   41.3000 H   0  0  0  0  0  0  0  0  0  0  0  0
   40.6690   25.2650   41.7070 H   0  0  0  0  0  0  0  0  0  0  0  0
   38.4270   31.8770   41.0400 C   0  0  0  0  0  2  0  0  0  0  0  0
   39.6370   31.8270   40.2160 C   0  0  1  0  0  0  0  0  0  0  0  0
   39.5100   31.6060   38.7680 C   0  0  0  0  0  2  0  0  0  0  0  0
   40.7610   31.9350   38.1210 N   0  0  2  0  0  0  0  0  0  0  0  0
   41.8740   32.0440   37.2150 C   0  0  1  0  0  0  0  0  0  0  0  0
   42.5400   31.2770   36.4770 O   0  0  0  0  0  1  0  0  0  0  0  0
   41.8110   33.5160   37.6110 C   0  0  0  0  0  3  0  0  0  0  0  0
   40.9210   34.0240   37.2450 H   0  0  0  0  0  0  0  0  0  0  0  0
   41.6340   32.8550   38.9210 C   0  0  1  0  0  0  0  0  0  0  0  0
   40.4190   33.5210   40.0940 S   0  0  0  0  0  0  0  0  0  0  0  0
   40.7060   30.8880   40.7900 C   0  0  0  0  0  2  0  0  0  0  0  0
   41.2780   30.4000   39.9580 H   0  0  0  0  0  0  0  0  0  0  0  0
  2  1  1  0  0  0  0
  3  2  1  0  0  0  0
  3 11  1  0  0  0  0
  4  3  2  0  0  0  0
  5  6  2  0  0  0  0
  5  4  1  0  0  0  0
  6  7  1  0  0  0  0
  7 22  1  0  0  0  0
  7  2  2  0  0  0  0
  8  4  1  0  0  0  0
  9  5  1  0  0  0  0
 10  6  1  0  0  0  0
 11 12  2  0  0  0  0
 13 18  1  0  0  0  0
 14 13  2  0  0  0  0
 14 15  1  0  0  0  0
 15 16  2  0  0  0  0
 16 17  1  0  0  0  0
 17 11  1  0  0  0  0
 18 17  2  0  0  0  0
 19 13  1  0  0  0  0
 20 14  1  0  0  0  0
 21 15  1  0  0  0  0
 23 32  1  1  0  0  0
 23 22  1  0  0  0  0
 24 23  1  0  0  0  0
 25 24  1  1  0  0  0
 25 30  1  0  0  0  0
 26 27  1  6  0  0  0
 26 28  1  0  0  0  0
 26 25  1  0  0  0  0
 26 30  1  0  0  0  0
 29 28  1  0  0  0  0
 30 28  1  6  0  0  0
 30 31  1  0  0  0  0
 31 23  1  0  0  0  0
 33 32  1  0  0  0  0
M  END
>  <minimizedAffinity>
-6.06038046

$$$$

 OpenBabel03242513153D

 33 37  0  0  1  0  0  0  0  0999 V2000
   39.9030   31.1700   42.3820 Cl  0  0  0  0  0  0  0  0  0  0  0  0
   38.3700   31.0600   41.4970 C   0  0  0  0  0  0  0  0  0  0  0  0
   38.0860   31.9830   40.5360 C   0  0  0  0  0  0  0  0  0  0  0  0
   36.9230   31.8280   39.8270 C   0  0  0  0  0  0  0  0  0  0  0  0
   36.0760   30.7730   40.0840 C   0  0  0  0  0  0  0  0  0  0  0  0
   36.3770   29.8260   41.0800 C   0  0  0  0  0  0  0  0  0  0  0  0
   37.5620   29.9990   41.7890 C   0  0  0  0  0  0  0  0  0  0  0  0
   36.5420   32.4340   39.0340 H   0  0  0  0  0  0  0  0  0  0  0  0
   35.1270   30.5920   39.5510 H   0  0  0  0  0  0  0  0  0  0  0  0
   35.6850   29.0010   41.2590 H   0  0  0  0  0  0  0  0  0  0  0  0
   38.9920   33.0930   40.3090 C   0  0  0  0  0  0  0  0  0  0  0  0
   38.8540   34.0990   41.0630 O   0  0  0  0  0  0  0  0  0  0  0  0
   41.8440   34.0540   38.2870 C   0  0  0  0  0  0  0  0  0  0  0  0
   41.9770   33.0500   37.3280 C   0  0  0  0  0  0  0  0  0  0  0  0
   41.0350   32.0250   37.4100 C   0  0  0  0  0  0  0  0  0  0  0  0
   40.0760   32.0690   38.3900 N   0  0  0  0  0  0  0  0  0  0  0  0
   40.0000   33.0600   39.2830 C   0  0  0  0  0  0  0  0  0  0  0  0
   40.8960   34.0450   39.2130 N   0  0  0  0  0  0  0  0  0  0  0  0
   42.6010   34.8360   38.1860 H   0  0  0  0  0  0  0  0  0  0  0  0
   42.7470   33.0500   36.5700 H   0  0  0  0  0  0  0  0  0  0  0  0
   41.0480   31.1950   36.7130 H   0  0  0  0  0  0  0  0  0  0  0  0
   37.7720   29.0000   42.8370 C   0  0  0  0  0  2  0  0  0  0  0  0
   38.1800   27.6490   42.4420 C   0  0  1  0  0  0  0  0  0  0  0  0
   38.8480   27.4510   41.1470 C   0  0  0  0  0  2  0  0  0  0  0  0
   39.4580   26.1410   41.1180 N   0  0  1  0  0  0  0  0  0  0  0  0
   40.0460   24.8870   40.7270 C   0  0  1  0  0  0  0  0  0  0  0  0
   39.8350   24.0000   39.8620 O   0  0  0  0  0  1  0  0  0  0  0  0
   41.0130   25.1980   41.8650 C   0  0  0  0  0  3  0  0  0  0  0  0
   41.6620   26.0470   41.6610 H   0  0  0  0  0  0  0  0  0  0  0  0
   39.7170   25.5620   42.4760 C   0  0  1  0  0  0  0  0  0  0  0  0
   39.6070   27.0590   43.4970 S   0  0  0  0  0  0  0  0  0  0  0  0
   37.0550   26.6200   42.6060 C   0  0  0  0  0  2  0  0  0  0  0  0
   37.1280   25.8370   41.8060 H   0  0  0  0  0  0  0  0  0  0  0  0
  2  7  1  0  0  0  0
  2  1  1  0  0  0  0
  3  2  2  0  0  0  0
  4  5  2  0  0  0  0
  4  3  1  0  0  0  0
  5  6  1  0  0  0  0
  6 10  1  0  0  0  0
  6  7  2  0  0  0  0
  7 22  1  0  0  0  0
  8  4  1  0  0  0  0
  9  5  1  0  0  0  0
 11  3  1  0  0  0  0
 11 12  2  0  0  0  0
 13 18  1  0  0  0  0
 14 15  1  0  0  0  0
 14 13  2  0  0  0  0
 15 16  2  0  0  0  0
 16 17  1  0  0  0  0
 17 11  1  0  0  0  0
 18 17  2  0  0  0  0
 19 13  1  0  0  0  0
 20 14  1  0  0  0  0
 21 15  1  0  0  0  0
 23 32  1  1  0  0  0
 23 22  1  0  0  0  0
 23 31  1  0  0  0  0
 24 23  1  0  0  0  0
 25 24  1  1  0  0  0
 25 30  1  0  0  0  0
 26 27  1  6  0  0  0
 26 25  1  0  0  0  0
 26 28  1  0  0  0  0
 26 30  1  0  0  0  0
 29 28  1  0  0  0  0
 30 28  1  6  0  0  0
 30 31  1  0  0  0  0
 33 32  1  0  0  0  0
M  END
>  <minimizedAffinity>
-5.94779968

$$$$

 OpenBabel03242513153D

 33 37  0  0  1  0  0  0  0  0999 V2000
   39.9940   29.0760   39.4780 Cl  0  0  0  0  0  0  0  0  0  0  0  0
   38.5720   29.9600   40.0610 C   0  0  0  0  0  0  0  0  0  0  0  0
   38.1050   31.0210   39.3450 C   0  0  0  0  0  0  0  0  0  0  0  0
   36.9650   31.6390   39.7900 C   0  0  0  0  0  0  0  0  0  0  0  0
   36.3210   31.1980   40.9250 C   0  0  0  0  0  0  0  0  0  0  0  0
   36.8120   30.1020   41.6590 C   0  0  0  0  0  0  0  0  0  0  0  0
   37.9700   29.4870   41.1920 C   0  0  0  0  0  0  0  0  0  0  0  0
   36.4450   32.4660   39.3580 H   0  0  0  0  0  0  0  0  0  0  0  0
   35.4020   31.6490   41.3350 H   0  0  0  0  0  0  0  0  0  0  0  0
   36.2780   29.7770   42.5540 H   0  0  0  0  0  0  0  0  0  0  0  0
   38.8230   31.4710   38.1680 C   0  0  0  0  0  0  0  0  0  0  0  0
   38.4170   31.0310   37.0550 O   0  0  0  0  0  0  0  0  0  0  0  0
   41.9370   33.1430   37.3550 C   0  0  0  0  0  0  0  0  0  0  0  0
   42.1200   34.0970   38.3560 C   0  0  0  0  0  0  0  0  0  0  0  0
   41.1200   34.1360   39.3270 C   0  0  0  0  0  0  0  0  0  0  0  0
   40.0620   33.2690   39.2380 N   0  0  0  0  0  0  0  0  0  0  0  0
   39.9410   32.3740   38.2530 C   0  0  0  0  0  0  0  0  0  0  0  0
   40.8920   32.3280   37.3200 N   0  0  0  0  0  0  0  0  0  0  0  0
   42.7420   33.1460   36.6170 H   0  0  0  0  0  0  0  0  0  0  0  0
   42.9690   34.7650   38.3920 H   0  0  0  0  0  0  0  0  0  0  0  0
   41.1650   34.8410   40.1490 H   0  0  0  0  0  0  0  0  0  0  0  0
   38.4380   28.3920   42.0420 C   0  0  0  0  0  2  0  0  0  0  0  0
   37.7420   27.1050   41.9670 C   0  0  1  0  0  0  0  0  0  0  0  0
   37.2580   26.6250   40.6640 C   0  0  0  0  0  2  0  0  0  0  0  0
   36.9270   25.2210   40.7630 N   0  0  1  0  0  0  0  0  0  0  0  0
   36.3930   23.9000   40.5670 C   0  0  1  0  0  0  0  0  0  0  0  0
   35.2810   23.3880   40.2840 O   0  0  0  0  0  1  0  0  0  0  0  0
   37.8260   23.4770   40.8730 C   0  0  0  0  0  3  0  0  0  0  0  0
   38.5340   23.7610   40.0970 H   0  0  0  0  0  0  0  0  0  0  0  0
   37.6050   24.5170   41.8990 C   0  0  1  0  0  0  0  0  0  0  0  0
   38.9340   25.6960   42.2690 S   0  0  0  0  0  0  0  0  0  0  0  0
   36.6290   26.9720   43.0140 C   0  0  0  0  0  2  0  0  0  0  0  0
   35.7820   26.3650   42.6010 H   0  0  0  0  0  0  0  0  0  0  0  0
  1  2  1  0  0  0  0
  2  7  1  0  0  0  0
  3  4  1  0  0  0  0
  3  2  2  0  0  0  0
  4  5  2  0  0  0  0
  5  9  1  0  0  0  0
  5  6  1  0  0  0  0
  6 10  1  0  0  0  0
  7  6  2  0  0  0  0
  7 22  1  0  0  0  0
  8  4  1  0  0  0  0
 11 17  1  0  0  0  0
 11  3  1  0  0  0  0
 12 11  2  0  0  0  0
 13 14  1  0  0  0  0
 14 20  1  0  0  0  0
 14 15  2  0  0  0  0
 15 21  1  0  0  0  0
 16 15  1  0  0  0  0
 17 16  2  0  0  0  0
 18 13  2  0  0  0  0
 18 17  1  0  0  0  0
 19 13  1  0  0  0  0
 23 22  1  6  0  0  0
 23 31  1  0  0  0  0
 23 32  1  0  0  0  0
 24 23  1  0  0  0  0
 25 24  1  6  0  0  0
 25 30  1  0  0  0  0
 26 27  1  6  0  0  0
 26 25  1  0  0  0  0
 26 28  1  0  0  0  0
 26 30  1  0  0  0  0
 29 28  1  0  0  0  0
 30 28  1  6  0  0  0
 30 31  1  0  0  0  0
 33 32  1  0  0  0  0
M  END
>  <minimizedAffinity>
-5.68678617

$$$$

 OpenBabel03242513153D

 33 37  0  0  1  0  0  0  0  0999 V2000
   39.9950   26.6660   40.7100 Cl  0  0  0  0  0  0  0  0  0  0  0  0
   38.7440   27.2040   41.8450 C   0  0  0  0  0  0  0  0  0  0  0  0
   37.7660   26.3340   42.2240 C   0  0  0  0  0  0  0  0  0  0  0  0
   36.8550   26.7640   43.1530 C   0  0  0  0  0  0  0  0  0  0  0  0
   36.9300   28.0350   43.6790 C   0  0  0  0  0  0  0  0  0  0  0  0
   37.9420   28.9270   43.2800 C   0  0  0  0  0  0  0  0  0  0  0  0
   38.8580   28.4740   42.3360 C   0  0  0  0  0  0  0  0  0  0  0  0
   36.0370   26.2250   43.5800 H   0  0  0  0  0  0  0  0  0  0  0  0
   36.2300   28.4410   44.4280 H   0  0  0  0  0  0  0  0  0  0  0  0
   37.9740   29.9270   43.7160 H   0  0  0  0  0  0  0  0  0  0  0  0
   37.7060   25.0120   41.6310 C   0  0  0  0  0  0  0  0  0  0  0  0
   38.4390   24.1240   42.1530 O   0  0  0  0  0  0  0  0  0  0  0  0
   35.4020   23.2440   39.4580 C   0  0  0  0  0  0  0  0  0  0  0  0
   35.1990   24.0880   38.3660 C   0  0  0  0  0  0  0  0  0  0  0  0
   35.8950   25.2960   38.4120 C   0  0  0  0  0  0  0  0  0  0  0  0
   36.7030   25.5650   39.4870 N   0  0  0  0  0  0  0  0  0  0  0  0
   36.8580   24.7160   40.5060 C   0  0  0  0  0  0  0  0  0  0  0  0
   36.1970   23.5580   40.4710 N   0  0  0  0  0  0  0  0  0  0  0  0
   34.8390   22.3120   39.3810 H   0  0  0  0  0  0  0  0  0  0  0  0
   34.5520   23.8400   37.5360 H   0  0  0  0  0  0  0  0  0  0  0  0
   35.8070   26.0230   37.6140 H   0  0  0  0  0  0  0  0  0  0  0  0
   39.8440   29.4800   41.9410 C   0  0  0  0  0  2  0  0  0  0  0  0
   39.5770   30.2860   40.7470 C   0  0  1  0  0  0  0  0  0  0  0  0
   38.3930   29.9870   39.9290 C   0  0  0  0  0  2  0  0  0  0  0  0
   38.1380   31.0910   39.0310 N   0  0  1  0  0  0  0  0  0  0  0  0
   37.7040   31.9340   37.9490 C   0  0  1  0  0  0  0  0  0  0  0  0
   37.6130   31.8560   36.6980 O   0  0  0  0  0  1  0  0  0  0  0  0
   37.4250   32.9230   39.0770 C   0  0  0  0  0  3  0  0  0  0  0  0
   36.6060   32.6180   39.7250 H   0  0  0  0  0  0  0  0  0  0  0  0
   38.7430   32.3880   39.4770 C   0  0  1  0  0  0  0  0  0  0  0  0
   39.0570   32.0180   41.2260 S   0  0  0  0  0  0  0  0  0  0  0  0
   40.8070   30.4310   39.8420 C   0  0  0  0  0  2  0  0  0  0  0  0
   40.4930   30.4730   38.7670 H   0  0  0  0  0  0  0  0  0  0  0  0
  1  2  1  0  0  0  0
  2  3  2  0  0  0  0
  2  7  1  0  0  0  0
  3  4  1  0  0  0  0
  4  8  1  0  0  0  0
  4  5  2  0  0  0  0
  5  9  1  0  0  0  0
  6  5  1  0  0  0  0
  6 10  1  0  0  0  0
  7  6  2  0  0  0  0
 11 12  2  0  0  0  0
 11  3  1  0  0  0  0
 13 18  1  0  0  0  0
 14 15  1  0  0  0  0
 14 13  2  0  0  0  0
 15 16  2  0  0  0  0
 16 17  1  0  0  0  0
 17 11  1  0  0  0  0
 18 17  2  0  0  0  0
 19 13  1  0  0  0  0
 20 14  1  0  0  0  0
 21 15  1  0  0  0  0
 22  7  1  0  0  0  0
 23 32  1  6  0  0  0
 23 31  1  0  0  0  0
 23 22  1  0  0  0  0
 24 23  1  0  0  0  0
 25 30  1  0  0  0  0
 25 24  1  1  0  0  0
 26 27  1  6  0  0  0
 26 25  1  0  0  0  0
 26 28  1  0  0  0  0
 26 30  1  0  0  0  0
 28 29  1  0  0  0  0
 30 28  1  1  0  0  0
 30 31  1  0  0  0  0
 33 32  1  0  0  0  0
M  END
>  <minimizedAffinity>
-5.63260555

$$$$

 OpenBabel03242513153D

 33 37  0  0  1  0  0  0  0  0999 V2000
   37.5490   29.3030   43.0050 Cl  0  0  0  0  0  0  0  0  0  0  0  0
   36.9950   28.7620   41.4090 C   0  0  0  0  0  0  0  0  0  0  0  0
   36.9710   27.4290   41.1270 C   0  0  0  0  0  0  0  0  0  0  0  0
   36.4750   27.0440   39.9080 C   0  0  0  0  0  0  0  0  0  0  0  0
   36.0190   27.9800   39.0050 C   0  0  0  0  0  0  0  0  0  0  0  0
   36.0500   29.3540   39.3060 C   0  0  0  0  0  0  0  0  0  0  0  0
   36.5570   29.7260   40.5470 C   0  0  0  0  0  0  0  0  0  0  0  0
   36.3620   26.0560   39.5180 H   0  0  0  0  0  0  0  0  0  0  0  0
   35.6080   27.7370   38.0110 H   0  0  0  0  0  0  0  0  0  0  0  0
   35.6810   30.0700   38.5690 H   0  0  0  0  0  0  0  0  0  0  0  0
   37.4800   26.4760   42.0940 C   0  0  0  0  0  0  0  0  0  0  0  0
   36.6260   25.9080   42.8320 O   0  0  0  0  0  0  0  0  0  0  0  0
   40.8710   25.5590   41.1890 C   0  0  0  0  0  0  0  0  0  0  0  0
   41.6010   25.6140   42.3760 C   0  0  0  0  0  0  0  0  0  0  0  0
   40.8690   25.9810   43.5050 C   0  0  0  0  0  0  0  0  0  0  0  0
   39.5310   26.2530   43.3800 N   0  0  0  0  0  0  0  0  0  0  0  0
   38.8850   26.1830   42.2130 C   0  0  0  0  0  0  0  0  0  0  0  0
   39.5760   25.8340   41.1270 N   0  0  0  0  0  0  0  0  0  0  0  0
   41.4820   25.2680   40.3310 H   0  0  0  0  0  0  0  0  0  0  0  0
   42.6570   25.3920   42.4350 H   0  0  0  0  0  0  0  0  0  0  0  0
   41.3400   26.0540   44.4780 H   0  0  0  0  0  0  0  0  0  0  0  0
   36.6000   31.1740   40.7560 C   0  0  0  0  0  2  0  0  0  0  0  0
   37.8030   31.9020   40.3470 C   0  0  1  0  0  0  0  0  0  0  0  0
   38.8940   32.0860   41.3150 C   0  0  0  0  0  2  0  0  0  0  0  0
   40.0880   32.5090   40.6170 N   0  0  1  0  0  0  0  0  0  0  0  0
   41.3690   33.0540   40.2540 C   0  0  1  0  0  0  0  0  0  0  0  0
   42.0330   34.0920   40.5010 O   0  0  0  0  0  1  0  0  0  0  0  0
   41.4830   31.7620   39.4510 C   0  0  0  0  0  3  0  0  0  0  0  0
   41.5670   30.8730   40.0740 H   0  0  0  0  0  0  0  0  0  0  0  0
   40.0920   32.1650   39.1580 C   0  0  1  0  0  0  0  0  0  0  0  0
   38.7910   30.8990   39.1170 S   0  0  0  0  0  0  0  0  0  0  0  0
   37.4830   33.2400   39.6690 C   0  0  0  0  0  2  0  0  0  0  0  0
   38.2740   33.9960   39.9140 H   0  0  0  0  0  0  0  0  0  0  0  0
  2  1  1  0  0  0  0
  3  2  1  0  0  0  0
  3 11  1  0  0  0  0
  4  3  2  0  0  0  0
  5  6  2  0  0  0  0
  5  4  1  0  0  0  0
  6  7  1  0  0  0  0
  7 22  1  0  0  0  0
  7  2  2  0  0  0  0
  8  4  1  0  0  0  0
  9  5  1  0  0  0  0
 10  6  1  0  0  0  0
 11 17  1  0  0  0  0
 11 12  2  0  0  0  0
 13 14  1  0  0  0  0
 14 20  1  0  0  0  0
 14 15  2  0  0  0  0
 15 21  1  0  0  0  0
 16 15  1  0  0  0  0
 17 16  2  0  0  0  0
 18 13  2  0  0  0  0
 18 17  1  0  0  0  0
 19 13  1  0  0  0  0
 23 32  1  6  0  0  0
 23 22  1  0  0  0  0
 23 24  1  0  0  0  0
 25 24  1  1  0  0  0
 26 27  1  1  0  0  0
 26 25  1  0  0  0  0
 28 29  1  0  0  0  0
 28 26  1  0  0  0  0
 30 31  1  6  0  0  0
 30 28  1  0  0  0  0
 30 26  1  0  0  0  0
 30 25  1  0  0  0  0
 31 23  1  0  0  0  0
 32 33  1  0  0  0  0
M  END
>  <minimizedAffinity>
-5.56810808

$$$$

 OpenBabel03242513153D

 33 37  0  0  1  0  0  0  0  0999 V2000
   40.5030   30.5560   38.3570 Cl  0  0  0  0  0  0  0  0  0  0  0  0
   39.3010   31.6710   39.0330 C   0  0  0  0  0  0  0  0  0  0  0  0
   39.6780   32.9380   39.3660 C   0  0  0  0  0  0  0  0  0  0  0  0
   38.7080   33.7920   39.8230 C   0  0  0  0  0  0  0  0  0  0  0  0
   37.4000   33.3750   39.9410 C   0  0  0  0  0  0  0  0  0  0  0  0
   37.0220   32.0650   39.5960 C   0  0  0  0  0  0  0  0  0  0  0  0
   38.0190   31.2120   39.1340 C   0  0  0  0  0  0  0  0  0  0  0  0
   38.8070   34.8150   40.1140 H   0  0  0  0  0  0  0  0  0  0  0  0
   36.5740   34.0110   40.3010 H   0  0  0  0  0  0  0  0  0  0  0  0
   35.9770   31.7660   39.7010 H   0  0  0  0  0  0  0  0  0  0  0  0
   41.0680   33.3330   39.2500 C   0  0  0  0  0  0  0  0  0  0  0  0
   41.4480   33.7400   38.1150 O   0  0  0  0  0  0  0  0  0  0  0  0
   42.6630   32.1880   42.2990 C   0  0  0  0  0  0  0  0  0  0  0  0
   43.7050   33.0850   42.5340 C   0  0  0  0  0  0  0  0  0  0  0  0
   43.8330   34.1060   41.5920 C   0  0  0  0  0  0  0  0  0  0  0  0
   42.9580   34.1590   40.5360 N   0  0  0  0  0  0  0  0  0  0  0  0
   41.9770   33.2690   40.3640 C   0  0  0  0  0  0  0  0  0  0  0  0
   41.8470   32.2890   41.2600 N   0  0  0  0  0  0  0  0  0  0  0  0
   42.6000   31.4080   43.0610 H   0  0  0  0  0  0  0  0  0  0  0  0
   44.3750   33.0100   43.3790 H   0  0  0  0  0  0  0  0  0  0  0  0
   44.6100   34.8560   41.6790 H   0  0  0  0  0  0  0  0  0  0  0  0
   37.5490   29.8560   38.8470 C   0  0  0  0  0  2  0  0  0  0  0  0
   37.6570   28.8430   39.9010 C   0  0  1  0  0  0  0  0  0  0  0  0
   38.6740   29.0050   40.9500 C   0  0  0  0  0  2  0  0  0  0  0  0
   38.3800   28.1080   42.0450 N   0  0  1  0  0  0  0  0  0  0  0  0
   38.4430   27.2620   43.2070 C   0  0  1  0  0  0  0  0  0  0  0  0
   39.2260   26.4010   43.6800 O   0  0  0  0  0  1  0  0  0  0  0  0
   37.1170   27.9380   43.5410 C   0  0  0  0  0  3  0  0  0  0  0  0
   37.2200   28.9940   43.7850 H   0  0  0  0  0  0  0  0  0  0  0  0
   36.9490   27.6650   42.0990 C   0  0  1  0  0  0  0  0  0  0  0  0
   36.1770   28.9230   41.0410 S   0  0  0  0  0  0  0  0  0  0  0  0
   37.7090   27.4150   39.3450 C   0  0  0  0  0  2  0  0  0  0  0  0
   38.3620   26.7730   39.9920 H   0  0  0  0  0  0  0  0  0  0  0  0
  1  2  1  0  0  0  0
  2  7  2  0  0  0  0
  2  3  1  0  0  0  0
  3  4  2  0  0  0  0
  4  5  1  0  0  0  0
  4  8  1  0  0  0  0
  5  9  1  0  0  0  0
  6 10  1  0  0  0  0
  6  5  2  0  0  0  0
  7  6  1  0  0  0  0
 11  3  1  0  0  0  0
 11 17  1  0  0  0  0
 12 11  2  0  0  0  0
 13 14  1  0  0  0  0
 13 19  1  0  0  0  0
 14 20  1  0  0  0  0
 15 21  1  0  0  0  0
 15 14  2  0  0  0  0
 16 15  1  0  0  0  0
 17 16  2  0  0  0  0
 17 18  1  0  0  0  0
 18 13  2  0  0  0  0
 22  7  1  0  0  0  0
 23 22  1  6  0  0  0
 23 24  1  0  0  0  0
 23 31  1  0  0  0  0
 25 24  1  1  0  0  0
 25 30  1  0  0  0  0
 25 26  1  0  0  0  0
 26 28  1  0  0  0  0
 26 27  1  1  0  0  0
 28 29  1  0  0  0  0
 30 31  1  6  0  0  0
 30 26  1  0  0  0  0
 30 28  1  0  0  0  0
 32 23  1  0  0  0  0
 32 33  1  0  0  0  0
M  END
>  <minimizedAffinity>
-5.56640673

$$$$

 OpenBabel03242513153D

 33 37  0  0  1  0  0  0  0  0999 V2000
   40.3910   29.9490   39.3170 Cl  0  0  0  0  0  0  0  0  0  0  0  0
   39.2670   31.2940   39.5830 C   0  0  0  0  0  0  0  0  0  0  0  0
   39.7430   32.4800   40.0560 C   0  0  0  0  0  0  0  0  0  0  0  0
   38.8570   33.5170   40.1860 C   0  0  0  0  0  0  0  0  0  0  0  0
   37.5310   33.3580   39.8480 C   0  0  0  0  0  0  0  0  0  0  0  0
   37.0480   32.1290   39.3620 C   0  0  0  0  0  0  0  0  0  0  0  0
   37.9620   31.0870   39.2370 C   0  0  0  0  0  0  0  0  0  0  0  0
   39.0450   34.5140   40.5210 H   0  0  0  0  0  0  0  0  0  0  0  0
   36.7680   34.1510   39.9290 H   0  0  0  0  0  0  0  0  0  0  0  0
   35.9920   32.0360   39.1030 H   0  0  0  0  0  0  0  0  0  0  0  0
   41.1410   32.6020   40.4220 C   0  0  0  0  0  0  0  0  0  0  0  0
   41.4260   32.4180   41.6400 O   0  0  0  0  0  0  0  0  0  0  0  0
   42.7920   34.0870   37.5540 C   0  0  0  0  0  0  0  0  0  0  0  0
   44.0870   33.5700   37.5610 C   0  0  0  0  0  0  0  0  0  0  0  0
   44.3660   32.6830   38.6010 C   0  0  0  0  0  0  0  0  0  0  0  0
   43.3860   32.3880   39.5140 N   0  0  0  0  0  0  0  0  0  0  0  0
   42.1600   32.9160   39.4550 C   0  0  0  0  0  0  0  0  0  0  0  0
   41.8840   33.7660   38.4650 N   0  0  0  0  0  0  0  0  0  0  0  0
   42.6170   34.7760   36.7250 H   0  0  0  0  0  0  0  0  0  0  0  0
   44.8340   33.8270   36.8220 H   0  0  0  0  0  0  0  0  0  0  0  0
   45.3430   32.2240   38.6990 H   0  0  0  0  0  0  0  0  0  0  0  0
   37.3670   29.8330   38.7730 C   0  0  0  0  0  2  0  0  0  0  0  0
   36.9580   28.8440   39.7730 C   0  0  1  0  0  0  0  0  0  0  0  0
   37.7620   27.6250   39.9470 C   0  0  0  0  0  2  0  0  0  0  0  0
   37.3910   26.9790   41.1860 N   0  0  1  0  0  0  0  0  0  0  0  0
   37.1680   26.0430   42.2560 C   0  0  1  0  0  0  0  0  0  0  0  0
   36.7760   24.8550   42.3740 O   0  0  0  0  0  1  0  0  0  0  0  0
   37.6380   27.2070   43.1230 C   0  0  0  0  0  3  0  0  0  0  0  0
   38.6910   27.4460   42.9890 H   0  0  0  0  0  0  0  0  0  0  0  0
   36.7370   27.8950   42.1760 C   0  0  1  0  0  0  0  0  0  0  0  0
   37.2250   29.5080   41.5010 S   0  0  0  0  0  0  0  0  0  0  0  0
   35.4730   28.4740   39.6680 C   0  0  0  0  0  2  0  0  0  0  0  0
   35.3230   27.3970   39.9440 H   0  0  0  0  0  0  0  0  0  0  0  0
  1  2  1  0  0  0  0
  2  3  1  0  0  0  0
  3  4  2  0  0  0  0
  3 11  1  0  0  0  0
  4  8  1  0  0  0  0
  5  9  1  0  0  0  0
  5  4  1  0  0  0  0
  6  5  2  0  0  0  0
  7  6  1  0  0  0  0
  7  2  2  0  0  0  0
 10  6  1  0  0  0  0
 11 12  2  0  0  0  0
 13 14  2  0  0  0  0
 13 18  1  0  0  0  0
 14 15  1  0  0  0  0
 15 21  1  0  0  0  0
 15 16  2  0  0  0  0
 17 16  1  0  0  0  0
 17 11  1  0  0  0  0
 18 17  2  0  0  0  0
 19 13  1  0  0  0  0
 20 14  1  0  0  0  0
 22  7  1  0  0  0  0
 23 22  1  6  0  0  0
 23 24  1  0  0  0  0
 23 31  1  0  0  0  0
 25 24  1  1  0  0  0
 25 30  1  0  0  0  0
 25 26  1  0  0  0  0
 26 27  1  1  0  0  0
 26 28  1  0  0  0  0
 29 28  1  0  0  0  0
 30 31  1  1  0  0  0
 30 26  1  0  0  0  0
 30 28  1  0  0  0  0
 32 23  1  0  0  0  0
 32 33  1  0  0  0  0
M  END
>  <minimizedAffinity>
-5.50694561

$$$$

 OpenBabel03242513153D

 33 37  0  0  1  0  0  0  0  0999 V2000
   36.8350   31.2290   39.4580 Cl  0  0  0  0  0  0  0  0  0  0  0  0
   38.0000   30.9760   40.7710 C   0  0  0  0  0  0  0  0  0  0  0  0
   38.9840   31.8960   40.9770 C   0  0  0  0  0  0  0  0  0  0  0  0
   39.8250   31.7020   42.0420 C   0  0  0  0  0  0  0  0  0  0  0  0
   39.6750   30.6100   42.8690 C   0  0  0  0  0  0  0  0  0  0  0  0
   38.6570   29.6650   42.6470 C   0  0  0  0  0  0  0  0  0  0  0  0
   37.8120   29.8780   41.5620 C   0  0  0  0  0  0  0  0  0  0  0  0
   40.6360   32.3160   42.3690 H   0  0  0  0  0  0  0  0  0  0  0  0
   40.3170   30.3970   43.7410 H   0  0  0  0  0  0  0  0  0  0  0  0
   38.5650   28.8120   43.3210 H   0  0  0  0  0  0  0  0  0  0  0  0
   39.1240   33.0200   40.0720 C   0  0  0  0  0  0  0  0  0  0  0  0
   38.2670   33.9430   40.1790 O   0  0  0  0  0  0  0  0  0  0  0  0
   41.2340   32.1660   37.2490 C   0  0  0  0  0  0  0  0  0  0  0  0
   42.1970   33.1730   37.1850 C   0  0  0  0  0  0  0  0  0  0  0  0
   42.0860   34.1610   38.1630 C   0  0  0  0  0  0  0  0  0  0  0  0
   41.0770   34.0820   39.0880 N   0  0  0  0  0  0  0  0  0  0  0  0
   40.1820   33.0900   39.0980 C   0  0  0  0  0  0  0  0  0  0  0  0
   40.2790   32.1400   38.1670 N   0  0  0  0  0  0  0  0  0  0  0  0
   41.3580   31.4140   36.4660 H   0  0  0  0  0  0  0  0  0  0  0  0
   42.9790   33.2010   36.4390 H   0  0  0  0  0  0  0  0  0  0  0  0
   42.7830   34.9900   38.2030 H   0  0  0  0  0  0  0  0  0  0  0  0
   36.8160   28.8230   41.3740 C   0  0  0  0  0  2  0  0  0  0  0  0
   37.2590   27.5340   40.8370 C   0  0  1  0  0  0  0  0  0  0  0  0
   38.6700   27.3590   40.4630 C   0  0  0  0  0  2  0  0  0  0  0  0
   38.9500   25.9500   40.2940 N   0  0  1  0  0  0  0  0  0  0  0  0
   39.5070   24.6760   39.9260 C   0  0  1  0  0  0  0  0  0  0  0  0
   39.9850   24.1420   38.8940 O   0  0  0  0  0  1  0  0  0  0  0  0
   39.2220   24.3390   41.3870 C   0  0  0  0  0  3  0  0  0  0  0  0
   39.8510   24.8850   42.0860 H   0  0  0  0  0  0  0  0  0  0  0  0
   37.9840   25.0510   41.0050 C   0  0  1  0  0  0  0  0  0  0  0  0
   37.2410   26.2250   42.1720 S   0  0  0  0  0  0  0  0  0  0  0  0
   36.3570   27.0220   39.7070 C   0  0  0  0  0  2  0  0  0  0  0  0
   36.9650   26.4570   38.9530 H   0  0  0  0  0  0  0  0  0  0  0  0
  1  2  1  0  0  0  0
  2  3  2  0  0  0  0
  2  7  1  0  0  0  0
  3  4  1  0  0  0  0
  4  8  1  0  0  0  0
  4  5  2  0  0  0  0
  5  9  1  0  0  0  0
  6  5  1  0  0  0  0
  6 10  1  0  0  0  0
  7  6  2  0  0  0  0
 11 12  2  0  0  0  0
 11  3  1  0  0  0  0
 13 18  1  0  0  0  0
 14 13  2  0  0  0  0
 14 15  1  0  0  0  0
 15 21  1  0  0  0  0
 15 16  2  0  0  0  0
 16 17  1  0  0  0  0
 17 11  1  0  0  0  0
 18 17  2  0  0  0  0
 19 13  1  0  0  0  0
 20 14  1  0  0  0  0
 22  7  1  0  0  0  0
 23 32  1  6  0  0  0
 23 22  1  0  0  0  0
 23 31  1  0  0  0  0
 24 23  1  0  0  0  0
 25 24  1  1  0  0  0
 25 30  1  0  0  0  0
 26 27  1  6  0  0  0
 26 25  1  0  0  0  0
 26 30  1  0  0  0  0
 26 28  1  0  0  0  0
 28 29  1  0  0  0  0
 30 28  1  1  0  0  0
 30 31  1  0  0  0  0
 33 32  1  0  0  0  0
M  END
>  <minimizedAffinity>
-5.4940443

$$$$

 OpenBabel03242513153D

 33 37  0  0  1  0  0  0  0  0999 V2000
   37.5040   31.4820   37.0900 Cl  0  0  0  0  0  0  0  0  0  0  0  0
   36.8620   30.7970   38.5940 C   0  0  0  0  0  0  0  0  0  0  0  0
   36.9510   31.5180   39.7480 C   0  0  0  0  0  0  0  0  0  0  0  0
   36.3840   30.9850   40.8770 C   0  0  0  0  0  0  0  0  0  0  0  0
   35.7510   29.7620   40.8390 C   0  0  0  0  0  0  0  0  0  0  0  0
   35.6660   29.0250   39.6430 C   0  0  0  0  0  0  0  0  0  0  0  0
   36.2470   29.5810   38.5070 C   0  0  0  0  0  0  0  0  0  0  0  0
   36.3390   31.4040   41.8580 H   0  0  0  0  0  0  0  0  0  0  0  0
   35.2760   29.2800   41.7090 H   0  0  0  0  0  0  0  0  0  0  0  0
   35.1570   28.0600   39.6460 H   0  0  0  0  0  0  0  0  0  0  0  0
   37.6450   32.7910   39.7530 C   0  0  0  0  0  0  0  0  0  0  0  0
   36.9660   33.8070   39.4340 O   0  0  0  0  0  0  0  0  0  0  0  0
   40.9880   34.1560   40.0900 C   0  0  0  0  0  0  0  0  0  0  0  0
   41.7230   33.1800   40.7640 C   0  0  0  0  0  0  0  0  0  0  0  0
   41.0120   32.0270   41.0960 C   0  0  0  0  0  0  0  0  0  0  0  0
   39.6880   31.9310   40.7520 N   0  0  0  0  0  0  0  0  0  0  0  0
   39.0360   32.9010   40.1050 C   0  0  0  0  0  0  0  0  0  0  0  0
   39.7070   34.0080   39.7830 N   0  0  0  0  0  0  0  0  0  0  0  0
   41.5830   35.0400   39.8500 H   0  0  0  0  0  0  0  0  0  0  0  0
   42.7680   33.2920   41.0180 H   0  0  0  0  0  0  0  0  0  0  0  0
   41.4880   31.2070   41.6210 H   0  0  0  0  0  0  0  0  0  0  0  0
   36.1580   28.7270   37.3220 C   0  0  0  0  0  2  0  0  0  0  0  0
   34.8310   28.4290   36.7760 C   0  0  1  0  0  0  0  0  0  0  0  0
   33.6580   29.1320   37.3150 C   0  0  0  0  0  2  0  0  0  0  0  0
   32.5370   28.9490   36.4200 N   0  0  1  0  0  0  0  0  0  0  0  0
   31.2280   28.8490   35.8300 C   0  0  1  0  0  0  0  0  0  0  0  0
   30.1080   28.3770   36.1470 O   0  0  0  0  0  1  0  0  0  0  0  0
   31.8970   29.5860   34.6740 C   0  0  0  0  0  3  0  0  0  0  0  0
   32.1710   30.6110   34.9170 H   0  0  0  0  0  0  0  0  0  0  0  0
   32.9310   28.5880   35.0200 C   0  0  1  0  0  0  0  0  0  0  0  0
   34.6760   29.0860   35.0320 S   0  0  0  0  0  0  0  0  0  0  0  0
   34.5460   26.9230   36.7060 C   0  0  0  0  0  2  0  0  0  0  0  0
   33.4560   26.7280   36.8900 H   0  0  0  0  0  0  0  0  0  0  0  0
  1  2  1  0  0  0  0
  2  3  1  0  0  0  0
  3 11  1  0  0  0  0
  3  4  2  0  0  0  0
  4  8  1  0  0  0  0
  5  4  1  0  0  0  0
  5  9  1  0  0  0  0
  6 10  1  0  0  0  0
  6  5  2  0  0  0  0
  7  2  2  0  0  0  0
  7  6  1  0  0  0  0
 11 17  1  0  0  0  0
 12 11  2  0  0  0  0
 13 14  1  0  0  0  0
 14 20  1  0  0  0  0
 14 15  2  0  0  0  0
 15 21  1  0  0  0  0
 16 15  1  0  0  0  0
 17 16  2  0  0  0  0
 18 13  2  0  0  0  0
 18 17  1  0  0  0  0
 19 13  1  0  0  0  0
 22  7  1  0  0  0  0
 23 32  1  1  0  0  0
 23 24  1  0  0  0  0
 23 22  1  0  0  0  0
 25 24  1  6  0  0  0
 26 27  1  1  0  0  0
 26 25  1  0  0  0  0
 28 29  1  0  0  0  0
 28 26  1  0  0  0  0
 30 28  1  6  0  0  0
 30 31  1  0  0  0  0
 30 26  1  0  0  0  0
 30 25  1  0  0  0  0
 31 23  1  0  0  0  0
 32 33  1  0  0  0  0
M  END
>  <minimizedAffinity>
-5.44262266

$$$$
