
 OpenBabel03252503193D

 42 46  0  0  1  0  0  0  0  0999 V2000
   44.8200   34.7530   41.8720 C   0  0  0  0  0  0  0  0  0  0  0  0
   43.4560   34.6740   41.9920 C   0  0  0  0  0  0  0  0  0  0  0  0
   43.0010   34.2490   40.7990 N   0  0  0  0  0  0  0  0  0  0  0  0
   44.0530   34.0750   39.9820 C   0  0  0  0  0  0  0  0  0  0  0  0
   45.1800   34.3830   40.6360 N   0  0  0  0  0  0  0  0  0  0  0  0
   44.1110   33.6400   38.6300 N   0  0  0  0  0  0  0  0  0  0  0  0
   42.8620   34.8980   42.8420 H   0  0  0  0  0  0  0  0  0  0  0  0
   44.6780   34.0730   37.8840 H   0  0  0  0  0  0  0  0  0  0  0  0
   43.6010   32.8370   38.1850 H   0  0  0  0  0  0  0  0  0  0  0  0
   41.6340   33.9960   40.3760 C   0  0  0  0  0  0  0  0  0  0  0  0
   40.9220   34.5170   41.0620 H   0  0  0  0  0  0  0  0  0  0  0  0
   41.4890   34.4300   39.3660 H   0  0  0  0  0  0  0  0  0  0  0  0
   38.2130   30.1540   40.5240 C   0  0  0  0  0  0  0  0  0  0  0  0
   38.1820   31.3180   39.5590 C   0  0  0  0  0  2  0  0  0  0  0  0
   39.5580   31.7580   39.4010 N   0  0  0  0  0  0  0  0  0  0  0  0
   40.8880   32.1110   39.0050 C   0  0  0  0  0  0  0  0  0  0  0  0
   41.3080   32.0270   37.8010 O   0  0  0  0  0  0  0  0  0  0  0  0
   41.3250   32.4940   40.3660 C   0  0  2  0  0  3  0  0  0  0  0  0
   39.9020   32.2780   40.7340 C   0  0  2  0  0  3  0  0  0  0  0  0
   39.5440   30.7270   41.6540 S   0  0  0  0  0  0  0  0  0  0  0  0
   38.5490   28.8590   39.8590 C   0  0  0  0  0  2  0  0  0  0  0  0
   38.2690   28.8520   38.7680 H   0  0  0  0  0  0  0  0  0  0  0  0
   36.9270   30.1390   41.3050 C   0  0  0  0  0  2  0  0  0  0  0  0
   37.0650   30.3150   42.3950 H   0  0  0  0  0  0  0  0  0  0  0  0
   45.7780   35.1800   42.9370 C   0  0  0  0  0  0  0  0  0  0  0  0
   46.4710   36.2350   42.8840 O   0  0  0  0  0  0  0  0  0  0  0  0
   45.1020   34.5410   45.2090 C   0  0  0  0  0  0  0  0  0  0  0  0
   45.9570   34.3830   44.0990 C   0  0  0  0  0  0  0  0  0  0  0  0
   46.9310   33.4170   44.2680 C   0  0  0  0  0  0  0  0  0  0  0  0
   47.0550   32.6980   45.3780 N   0  0  0  0  0  0  0  0  0  0  0  0
   46.2000   32.8910   46.4240 C   0  0  0  0  0  0  0  0  0  0  0  0
   45.2350   33.8090   46.3250 N   0  0  0  0  0  0  0  0  0  0  0  0
   44.3210   35.3000   45.0990 H   0  0  0  0  0  0  0  0  0  0  0  0
   46.2900   32.3110   47.3340 H   0  0  0  0  0  0  0  0  0  0  0  0
   47.8420   33.1930   43.1930 C   0  0  0  0  0  0  0  0  0  0  0  0
   49.0090   33.7510   42.7840 C   0  0  0  0  0  0  0  0  0  0  0  0
   49.6490   33.3180   41.7140 C   0  0  0  0  0  0  0  0  0  0  0  0
   49.0990   32.2980   41.0380 C   0  0  0  0  0  0  0  0  0  0  0  0
   47.5830   31.9220   41.9680 S   0  0  0  0  0  0  0  0  0  0  0  0
   49.3570   34.5850   43.4300 H   0  0  0  0  0  0  0  0  0  0  0  0
   50.5820   33.7170   41.3320 H   0  0  0  0  0  0  0  0  0  0  0  0
   49.4070   31.7510   40.1320 H   0  0  0  0  0  0  0  0  0  0  0  0
  1  2  2  0  0  0  0
  1 25  1  0  0  0  0
  2  7  1  0  0  0  0
  3  2  1  0  0  0  0
  4  5  2  0  0  0  0
  4  3  1  0  0  0  0
  5  1  1  0  0  0  0
  6  4  1  0  0  0  0
  8  6  1  0  0  0  0
  9  6  1  0  0  0  0
 10  3  1  0  0  0  0
 10 11  1  0  0  0  0
 12 10  1  0  0  0  0
 13 23  1  0  0  0  0
 13 20  1  0  0  0  0
 14 13  1  0  0  0  0
 15 14  1  0  0  0  0
 15 19  1  0  0  0  0
 16 15  1  0  0  0  0
 16 18  1  0  0  0  0
 17 16  2  0  0  0  0
 18 10  1  6  0  0  0
 18 19  1  0  0  0  0
 19 20  1  1  0  0  0
 21 13  1  0  0  0  0
 22 21  1  0  0  0  0
 23 24  1  0  0  0  0
 25 28  1  0  0  0  0
 26 25  2  0  0  0  0
 27 32  1  0  0  0  0
 28 29  1  0  0  0  0
 28 27  2  0  0  0  0
 29 30  2  0  0  0  0
 30 31  1  0  0  0  0
 31 34  1  0  0  0  0
 32 31  2  0  0  0  0
 33 27  1  0  0  0  0
 35 29  1  0  0  0  0
 36 35  2  0  0  0  0
 36 40  1  0  0  0  0
 37 36  1  0  0  0  0
 38 37  2  0  0  0  0
 38 39  1  0  0  0  0
 39 35  1  0  0  0  0
 41 37  1  0  0  0  0
 42 38  1  0  0  0  0
M  END
>  <minimizedAffinity>
-5.73826885

>  <minimizedRMSD>
3.9337492

$$$$
