
 OpenBabel03242522203D

 48 52  0  0  1  0  0  0  0  0999 V2000
   41.3970   34.7070   39.6980 C   0  0  0  0  0  0  0  0  0  0  0  0
   40.9350   34.6150   38.4090 C   0  0  0  0  0  0  0  0  0  0  0  0
   40.0380   33.6820   37.9300 C   0  0  0  0  0  0  0  0  0  0  0  0
   39.5750   32.7730   38.8270 C   0  0  0  0  0  0  0  0  0  0  0  0
   40.0410   32.8670   40.1210 C   0  0  0  0  0  0  0  0  0  0  0  0
   40.9150   33.7840   40.5650 N   0  0  0  0  0  0  0  0  0  0  0  0
   41.3530   35.3820   37.7400 H   0  0  0  0  0  0  0  0  0  0  0  0
   39.7600   33.7270   36.9020 H   0  0  0  0  0  0  0  0  0  0  0  0
   39.4910   31.8320   41.0650 C   0  0  0  0  0  0  0  0  0  0  0  0
   38.1110   31.9970   41.1640 F   0  0  0  0  0  0  0  0  0  0  0  0
   40.1140   31.7990   42.2730 F   0  0  0  0  0  0  0  0  0  0  0  0
   39.6600   30.5650   40.4990 F   0  0  0  0  0  0  0  0  0  0  0  0
   42.3280   35.6440   40.2770 C   0  0  0  0  0  0  0  0  0  0  0  0
   43.2550   35.6720   39.6500 H   0  0  0  0  0  0  0  0  0  0  0  0
   41.9060   36.6840   40.1820 H   0  0  0  0  0  0  0  0  0  0  0  0
   42.7410   35.3890   41.6830 C   0  0  0  0  0  0  0  0  0  0  0  0
   42.4530   36.1640   42.3990 H   0  0  0  0  0  0  0  0  0  0  0  0
   42.2480   34.4430   42.0300 H   0  0  0  0  0  0  0  0  0  0  0  0
   46.2980   34.4110   41.3280 C   0  0  0  0  0  0  0  0  0  0  0  0
   46.8030   35.0430   42.4140 C   0  0  0  0  0  0  0  0  0  0  0  0
   45.2930   35.8380   43.1260 S   0  0  0  0  0  0  0  0  0  0  0  0
   44.2100   35.1530   41.7850 C   0  0  0  0  0  0  0  0  0  0  0  0
   45.0200   34.5860   41.1950 N   0  0  0  0  0  0  0  0  0  0  0  0
   47.8020   35.1060   42.8110 H   0  0  0  0  0  0  0  0  0  0  0  0
   47.4950   32.5130   38.3110 C   0  0  0  0  0  0  0  0  0  0  0  0
   46.6620   33.2820   39.1390 C   0  0  0  0  0  0  0  0  0  0  0  0
   47.1090   33.6110   40.3950 C   0  0  0  0  0  0  0  0  0  0  0  0
   48.3690   33.1580   40.7640 N   0  0  0  0  0  0  0  0  0  0  0  0
   49.1290   32.4260   39.9340 C   0  0  0  0  0  0  0  0  0  0  0  0
   48.6970   32.0970   38.7000 N   0  0  0  0  0  0  0  0  0  0  0  0
   47.1500   32.2500   37.3250 H   0  0  0  0  0  0  0  0  0  0  0  0
   50.1020   32.0900   40.2530 H   0  0  0  0  0  0  0  0  0  0  0  0
   45.4040   33.6640   38.6130 N   0  0  0  0  0  0  0  0  0  0  0  0
   45.2560   34.6900   38.5350 H   0  0  0  0  0  0  0  0  0  0  0  0
   44.6270   33.0280   38.3030 H   0  0  0  0  0  0  0  0  0  0  0  0
   38.4260   31.5140   38.3200 S   0  0  0  0  0  0  0  0  0  0  0  0
   38.7910   30.7190   36.7660 C   0  0  0  0  0  2  0  0  0  0  0  0
   39.9760   29.8260   36.7150 C   0  0  2  0  0  0  0  0  0  0  0  0
   41.2930   30.2700   37.1550 C   0  0  0  0  0  2  0  0  0  0  0  0
   42.2690   30.2370   36.0590 N   0  0  0  0  0  0  0  0  0  0  0  0
   43.3640   30.6110   35.2330 C   0  0  0  0  0  0  0  0  0  0  0  0
   44.3610   31.3750   35.4310 O   0  0  0  0  0  0  0  0  0  0  0  0
   42.9000   29.7850   34.0870 C   0  0  0  0  0  3  0  0  0  0  0  0
   42.3560   30.3320   33.3070 H   0  0  0  0  0  0  0  0  0  0  0  0
   42.0810   29.0980   35.1490 C   0  0  2  0  0  3  0  0  0  0  0  0
   40.2730   29.2850   34.9680 S   0  0  0  0  0  0  0  0  0  0  0  0
   39.5910   28.4700   37.4040 C   0  0  0  0  0  2  0  0  0  0  0  0
   38.7580   28.1130   36.7660 H   0  0  0  0  0  0  0  0  0  0  0  0
  1 13  1  0  0  0  0
  1  6  1  0  0  0  0
  2  1  2  0  0  0  0
  3  2  1  0  0  0  0
  3  4  2  0  0  0  0
  4  5  1  0  0  0  0
  5  6  2  0  0  0  0
  5  9  1  0  0  0  0
  7  2  1  0  0  0  0
  8  3  1  0  0  0  0
  9 10  1  0  0  0  0
  9 11  1  0  0  0  0
 12  9  1  0  0  0  0
 13 16  1  0  0  0  0
 14 13  1  0  0  0  0
 15 13  1  0  0  0  0
 16 22  1  0  0  0  0
 16 18  1  0  0  0  0
 16 17  1  0  0  0  0
 19 20  2  0  0  0  0
 20 24  1  0  0  0  0
 20 21  1  0  0  0  0
 22 21  1  0  0  0  0
 23 19  1  0  0  0  0
 23 22  2  0  0  0  0
 25 30  2  0  0  0  0
 25 26  1  0  0  0  0
 26 27  2  0  0  0  0
 27 28  1  0  0  0  0
 27 19  1  0  0  0  0
 29 32  1  0  0  0  0
 29 28  2  0  0  0  0
 30 29  1  0  0  0  0
 31 25  1  0  0  0  0
 33 26  1  0  0  0  0
 34 33  1  0  0  0  0
 35 33  1  0  0  0  0
 36  4  1  0  0  0  0
 37 36  1  0  0  0  0
 38 37  1  1  0  0  0
 38 39  1  0  0  0  0
 38 47  1  0  0  0  0
 40 39  1  0  0  0  0
 41 42  2  0  0  0  0
 41 40  1  0  0  0  0
 43 41  1  0  0  0  0
 44 43  1  0  0  0  0
 45 43  1  6  0  0  0
 45 40  1  0  0  0  0
 46 45  1  0  0  0  0
 46 38  1  0  0  0  0
 48 47  1  0  0  0  0
M  END
>  <minimizedAffinity>
-5.75021267

>  <minimizedRMSD>
3.11529756

$$$$
