
 OpenBabel03242522203D

 48 52  0  0  1  0  0  0  0  0999 V2000
   43.0760   33.4410   39.6040 C   0  0  0  0  0  0  0  0  0  0  0  0
   42.6890   32.4710   38.7130 C   0  0  0  0  0  0  0  0  0  0  0  0
   41.3920   32.0730   38.4570 C   0  0  0  0  0  0  0  0  0  0  0  0
   40.4160   32.7070   39.1560 C   0  0  0  0  0  0  0  0  0  0  0  0
   40.8080   33.6800   40.0500 C   0  0  0  0  0  0  0  0  0  0  0  0
   42.0770   34.0520   40.2840 N   0  0  0  0  0  0  0  0  0  0  0  0
   43.5310   32.0010   38.1840 H   0  0  0  0  0  0  0  0  0  0  0  0
   41.2310   31.3060   37.7340 H   0  0  0  0  0  0  0  0  0  0  0  0
   39.6810   34.3450   40.7930 C   0  0  0  0  0  0  0  0  0  0  0  0
   39.0290   35.2260   39.9340 F   0  0  0  0  0  0  0  0  0  0  0  0
   40.0550   34.9200   41.9670 F   0  0  0  0  0  0  0  0  0  0  0  0
   38.7190   33.3820   41.1150 F   0  0  0  0  0  0  0  0  0  0  0  0
   44.4000   33.9140   39.9300 C   0  0  0  0  0  0  0  0  0  0  0  0
   45.0580   33.0340   40.1490 H   0  0  0  0  0  0  0  0  0  0  0  0
   44.8600   34.3720   39.0100 H   0  0  0  0  0  0  0  0  0  0  0  0
   44.5050   34.8550   41.0770 C   0  0  0  0  0  0  0  0  0  0  0  0
   44.7620   35.8840   40.8090 H   0  0  0  0  0  0  0  0  0  0  0  0
   43.5090   34.9020   41.5880 H   0  0  0  0  0  0  0  0  0  0  0  0
   47.3240   33.4630   43.0400 C   0  0  0  0  0  0  0  0  0  0  0  0
   46.8250   33.6400   44.2860 C   0  0  0  0  0  0  0  0  0  0  0  0
   45.1840   34.4150   43.9300 S   0  0  0  0  0  0  0  0  0  0  0  0
   45.4730   34.3610   42.0980 C   0  0  0  0  0  0  0  0  0  0  0  0
   46.5180   33.8770   42.1120 N   0  0  0  0  0  0  0  0  0  0  0  0
   47.2240   33.4140   45.2590 H   0  0  0  0  0  0  0  0  0  0  0  0
   50.9080   32.9580   42.0170 C   0  0  0  0  0  0  0  0  0  0  0  0
   49.6850   33.6040   42.2570 C   0  0  0  0  0  0  0  0  0  0  0  0
   48.6420   32.8660   42.7610 C   0  0  0  0  0  0  0  0  0  0  0  0
   48.8700   31.5180   43.0020 N   0  0  0  0  0  0  0  0  0  0  0  0
   50.0600   30.9460   42.7570 C   0  0  0  0  0  0  0  0  0  0  0  0
   51.0880   31.6630   42.2610 N   0  0  0  0  0  0  0  0  0  0  0  0
   51.7290   33.5300   41.6200 H   0  0  0  0  0  0  0  0  0  0  0  0
   50.2030   29.8960   42.9540 H   0  0  0  0  0  0  0  0  0  0  0  0
   49.6140   34.9860   41.9560 N   0  0  0  0  0  0  0  0  0  0  0  0
   49.4050   35.6000   42.7690 H   0  0  0  0  0  0  0  0  0  0  0  0
   49.7480   35.4380   41.0170 H   0  0  0  0  0  0  0  0  0  0  0  0
   38.7090   32.2680   38.9190 S   0  0  0  0  0  0  0  0  0  0  0  0
   38.3130   30.5480   39.1800 C   0  0  0  0  0  2  0  0  0  0  0  0
   38.4220   30.0220   40.5630 C   0  0  2  0  0  0  0  0  0  0  0  0
   39.5550   30.3430   41.4210 C   0  0  0  0  0  2  0  0  0  0  0  0
   40.3010   29.1380   41.8030 N   0  0  0  0  0  0  0  0  0  0  0  0
   41.3970   28.2890   42.1230 C   0  0  0  0  0  0  0  0  0  0  0  0
   42.5940   28.5380   42.4770 O   0  0  0  0  0  0  0  0  0  0  0  0
   40.6210   27.0440   41.8880 C   0  0  0  0  0  3  0  0  0  0  0  0
   40.7740   26.5760   40.9080 H   0  0  0  0  0  0  0  0  0  0  0  0
   39.4400   27.9690   42.0340 C   0  0  2  0  0  3  0  0  0  0  0  0
   38.4280   28.1700   40.5270 S   0  0  0  0  0  0  0  0  0  0  0  0
   37.0680   30.3190   41.3020 C   0  0  0  0  0  2  0  0  0  0  0  0
   36.3390   29.7560   40.6860 H   0  0  0  0  0  0  0  0  0  0  0  0
  1 13  1  0  0  0  0
  1  6  1  0  0  0  0
  2  1  2  0  0  0  0
  3  2  1  0  0  0  0
  3  4  2  0  0  0  0
  4  5  1  0  0  0  0
  5  6  2  0  0  0  0
  5  9  1  0  0  0  0
  7  2  1  0  0  0  0
  8  3  1  0  0  0  0
  9 12  1  0  0  0  0
  9 11  1  0  0  0  0
 10  9  1  0  0  0  0
 13 14  1  0  0  0  0
 13 16  1  0  0  0  0
 15 13  1  0  0  0  0
 16 18  1  0  0  0  0
 16 22  1  0  0  0  0
 17 16  1  0  0  0  0
 19 20  2  0  0  0  0
 20 24  1  0  0  0  0
 21 20  1  0  0  0  0
 22 23  2  0  0  0  0
 22 21  1  0  0  0  0
 23 19  1  0  0  0  0
 25 26  2  0  0  0  0
 25 30  1  0  0  0  0
 26 27  1  0  0  0  0
 27 28  2  0  0  0  0
 27 19  1  0  0  0  0
 29 32  1  0  0  0  0
 29 28  1  0  0  0  0
 30 29  2  0  0  0  0
 31 25  1  0  0  0  0
 33 26  1  0  0  0  0
 33 34  1  0  0  0  0
 35 33  1  0  0  0  0
 36  4  1  0  0  0  0
 36 37  1  0  0  0  0
 38 37  1  6  0  0  0
 38 47  1  0  0  0  0
 38 39  1  0  0  0  0
 39 40  1  0  0  0  0
 40 45  1  0  0  0  0
 40 41  1  0  0  0  0
 41 42  2  0  0  0  0
 43 45  1  0  0  0  0
 43 41  1  0  0  0  0
 44 43  1  0  0  0  0
 45 46  1  6  0  0  0
 46 38  1  0  0  0  0
 48 47  1  0  0  0  0
M  END
>  <minimizedAffinity>
-5.93772602

>  <minimizedRMSD>
4.4908886

$$$$
