
 OpenBabel03242511173D

 22 24  0  0  1  0  0  0  0  0999 V2000
   37.9340   29.4320   42.0830 C   0  0  0  0  0  2  0  0  0  0  0  0
   36.8810   29.5810   41.0130 C   0  0  1  0  0  0  0  0  0  0  0  0
   36.1880   30.9130   41.0650 C   0  0  0  0  0  2  0  0  0  0  0  0
   36.9740   31.8410   40.2690 N   0  0  0  0  0  0  0  0  0  0  0  0
   37.7750   32.9020   39.7510 C   0  0  0  0  0  0  0  0  0  0  0  0
   38.1760   33.9980   40.2360 O   0  0  0  0  0  0  0  0  0  0  0  0
   37.9780   32.2670   38.4250 C   0  0  0  0  0  3  0  0  0  0  0  0
   37.5610   32.8650   37.5650 H   0  0  0  0  0  0  0  0  0  0  0  0
   36.9620   31.2960   38.9030 C   0  0  1  0  0  3  0  0  0  0  0  0
   37.6070   29.6330   39.3480 S   0  0  0  0  0  0  0  0  0  0  0  0
   35.8600   28.4940   41.0440 C   0  0  0  0  0  2  0  0  0  0  0  0
   35.1280   28.7460   40.2200 H   0  0  0  0  0  0  0  0  0  0  0  0
   37.3570   28.1800   43.2490 S   0  0  0  0  0  0  0  0  0  0  0  0
   38.7450   24.4790   42.2830 C   0  0  0  0  0  0  0  0  0  0  0  0
   37.9020   25.6090   42.3690 C   0  0  0  0  0  0  0  0  0  0  0  0
   38.3840   26.7160   43.1060 C   0  0  0  0  0  0  0  0  0  0  0  0
   39.6090   26.6260   43.6800 N   0  0  0  0  0  0  0  0  0  0  0  0
   40.3770   25.5310   43.5740 C   0  0  0  0  0  0  0  0  0  0  0  0
   39.9510   24.4540   42.8770 N   0  0  0  0  0  0  0  0  0  0  0  0
   38.3040   23.6840   41.7070 H   0  0  0  0  0  0  0  0  0  0  0  0
   36.9270   25.6480   41.8990 H   0  0  0  0  0  0  0  0  0  0  0  0
   41.3550   25.4510   44.0270 H   0  0  0  0  0  0  0  0  0  0  0  0
  1 13  1  0  0  0  0
  2 11  1  1  0  0  0
  2  3  1  0  0  0  0
  2  1  1  0  0  0  0
  4  3  1  0  0  0  0
  5  6  2  0  0  0  0
  5  4  1  0  0  0  0
  7  5  1  0  0  0  0
  8  7  1  0  0  0  0
  9  7  1  6  0  0  0
  9 10  1  0  0  0  0
  9  4  1  0  0  0  0
 10  2  1  0  0  0  0
 12 11  1  0  0  0  0
 14 15  2  0  0  0  0
 14 19  1  0  0  0  0
 15 16  1  0  0  0  0
 16 13  1  0  0  0  0
 16 17  2  0  0  0  0
 18 17  1  0  0  0  0
 18 22  1  0  0  0  0
 19 18  2  0  0  0  0
 20 14  1  0  0  0  0
 21 15  1  0  0  0  0
M  END
>  <minimizedAffinity>
-4.73064089

$$$$

 OpenBabel03242511173D

 22 24  0  0  1  0  0  0  0  0999 V2000
   38.6750   27.3620   41.6940 C   0  0  0  0  0  2  0  0  0  0  0  0
   37.5750   28.1920   42.3070 C   0  0  1  0  0  0  0  0  0  0  0  0
   38.0430   29.5580   42.7190 C   0  0  0  0  0  2  0  0  0  0  0  0
   37.9090   30.4300   41.5630 N   0  0  0  0  0  0  0  0  0  0  0  0
   38.0780   31.3140   40.4560 C   0  0  0  0  0  0  0  0  0  0  0  0
   39.0590   31.9880   40.0320 O   0  0  0  0  0  0  0  0  0  0  0  0
   36.6850   31.1660   39.9670 C   0  0  0  0  0  3  0  0  0  0  0  0
   36.0960   32.1280   39.9710 H   0  0  0  0  0  0  0  0  0  0  0  0
   36.4730   30.4400   41.2440 C   0  0  1  0  0  3  0  0  0  0  0  0
   36.2900   28.6170   41.0950 S   0  0  0  0  0  0  0  0  0  0  0  0
   36.9200   27.5250   43.4690 C   0  0  0  0  0  2  0  0  0  0  0  0
   36.1480   28.2620   43.8420 H   0  0  0  0  0  0  0  0  0  0  0  0
   38.6990   25.7680   42.5440 S   0  0  0  0  0  0  0  0  0  0  0  0
   36.1820   23.6230   40.1730 C   0  0  0  0  0  0  0  0  0  0  0  0
   36.6780   24.6380   41.0210 C   0  0  0  0  0  0  0  0  0  0  0  0
   38.0140   24.5090   41.4650 C   0  0  0  0  0  0  0  0  0  0  0  0
   38.7290   23.4320   41.0580 N   0  0  0  0  0  0  0  0  0  0  0  0
   38.2180   22.4880   40.2510 C   0  0  0  0  0  0  0  0  0  0  0  0
   36.9450   22.5790   39.8060 N   0  0  0  0  0  0  0  0  0  0  0  0
   35.1610   23.7970   39.8820 H   0  0  0  0  0  0  0  0  0  0  0  0
   36.0790   25.4870   41.3280 H   0  0  0  0  0  0  0  0  0  0  0  0
   38.7800   21.6270   39.9210 H   0  0  0  0  0  0  0  0  0  0  0  0
  1 13  1  0  0  0  0
  2  1  1  6  0  0  0
  2  3  1  0  0  0  0
  2 11  1  0  0  0  0
  4  3  1  0  0  0  0
  5  4  1  0  0  0  0
  6  5  2  0  0  0  0
  7  8  1  0  0  0  0
  7  5  1  0  0  0  0
  9  7  1  6  0  0  0
  9  4  1  0  0  0  0
 10  9  1  0  0  0  0
 10  2  1  0  0  0  0
 11 12  1  0  0  0  0
 14 15  1  0  0  0  0
 15 21  1  0  0  0  0
 15 16  2  0  0  0  0
 16 13  1  0  0  0  0
 17 16  1  0  0  0  0
 18 17  2  0  0  0  0
 19 14  2  0  0  0  0
 19 18  1  0  0  0  0
 20 14  1  0  0  0  0
 22 18  1  0  0  0  0
M  END
>  <minimizedAffinity>
-4.39538717

$$$$

 OpenBabel03242511173D

 22 24  0  0  1  0  0  0  0  0999 V2000
   37.8710   29.1390   39.4030 C   0  0  0  0  0  2  0  0  0  0  0  0
   36.8800   29.0560   40.5370 C   0  0  1  0  0  0  0  0  0  0  0  0
   36.5130   27.6410   40.8820 C   0  0  0  0  0  2  0  0  0  0  0  0
   37.4910   27.1630   41.8460 N   0  0  0  0  0  0  0  0  0  0  0  0
   38.5150   26.4890   42.5760 C   0  0  0  0  0  0  0  0  0  0  0  0
   39.1590   25.4210   42.3750 O   0  0  0  0  0  0  0  0  0  0  0  0
   38.5630   27.4900   43.6710 C   0  0  0  0  0  3  0  0  0  0  0  0
   38.2940   27.0710   44.6830 H   0  0  0  0  0  0  0  0  0  0  0  0
   37.3510   28.0430   43.0170 C   0  0  1  0  0  3  0  0  0  0  0  0
   37.5950   29.6220   42.1080 S   0  0  0  0  0  0  0  0  0  0  0  0
   35.6350   29.8380   40.2820 C   0  0  0  0  0  2  0  0  0  0  0  0
   34.9800   29.6630   41.1860 H   0  0  0  0  0  0  0  0  0  0  0  0
   37.4810   30.6170   38.4410 S   0  0  0  0  0  0  0  0  0  0  0  0
   38.5070   34.0570   40.3560 C   0  0  0  0  0  0  0  0  0  0  0  0
   37.7370   32.9770   39.8690 C   0  0  0  0  0  0  0  0  0  0  0  0
   38.4080   32.0100   39.0860 C   0  0  0  0  0  0  0  0  0  0  0  0
   39.7330   32.1740   38.8530 N   0  0  0  0  0  0  0  0  0  0  0  0
   40.4280   33.2170   39.3350 C   0  0  0  0  0  0  0  0  0  0  0  0
   39.8200   34.1610   40.0880 N   0  0  0  0  0  0  0  0  0  0  0  0
   37.9210   34.7450   40.9400 H   0  0  0  0  0  0  0  0  0  0  0  0
   36.6780   32.8760   40.0740 H   0  0  0  0  0  0  0  0  0  0  0  0
   41.4840   33.3550   39.1550 H   0  0  0  0  0  0  0  0  0  0  0  0
  2  1  1  6  0  0  0
  2  3  1  0  0  0  0
  2 10  1  0  0  0  0
  3  4  1  0  0  0  0
  4  5  1  0  0  0  0
  4  9  1  0  0  0  0
  5  7  1  0  0  0  0
  6  5  2  0  0  0  0
  7  8  1  0  0  0  0
  9 10  1  6  0  0  0
  9  7  1  0  0  0  0
 11  2  1  0  0  0  0
 11 12  1  0  0  0  0
 13 16  1  0  0  0  0
 13  1  1  0  0  0  0
 14 20  1  0  0  0  0
 15 21  1  0  0  0  0
 15 14  2  0  0  0  0
 16 15  1  0  0  0  0
 17 16  2  0  0  0  0
 17 18  1  0  0  0  0
 18 19  2  0  0  0  0
 19 14  1  0  0  0  0
 22 18  1  0  0  0  0
M  END
>  <minimizedAffinity>
-4.38258696

$$$$

 OpenBabel03242511173D

 22 24  0  0  1  0  0  0  0  0999 V2000
   37.7710   28.4280   40.7830 C   0  0  0  0  0  2  0  0  0  0  0  0
   38.1300   27.7230   42.0670 C   0  0  1  0  0  0  0  0  0  0  0  0
   37.0100   26.8690   42.5890 C   0  0  0  0  0  2  0  0  0  0  0  0
   37.1340   25.5620   41.9650 N   0  0  0  0  0  0  0  0  0  0  0  0
   36.9810   24.3450   41.2360 C   0  0  0  0  0  0  0  0  0  0  0  0
   36.0110   23.8250   40.6170 O   0  0  0  0  0  0  0  0  0  0  0  0
   38.3760   23.8910   41.4630 C   0  0  0  0  0  3  0  0  0  0  0  0
   38.4530   22.9240   42.0380 H   0  0  0  0  0  0  0  0  0  0  0  0
   38.4400   25.0410   42.3990 C   0  0  1  0  0  3  0  0  0  0  0  0
   39.4290   26.4780   41.8180 S   0  0  0  0  0  0  0  0  0  0  0  0
   38.5770   28.6580   43.1400 C   0  0  0  0  0  2  0  0  0  0  0  0
   38.7810   28.0050   44.0400 H   0  0  0  0  0  0  0  0  0  0  0  0
   36.7470   29.8540   41.2070 S   0  0  0  0  0  0  0  0  0  0  0  0
   39.5870   32.7020   40.5930 C   0  0  0  0  0  0  0  0  0  0  0  0
   38.9660   31.5010   41.0000 C   0  0  0  0  0  0  0  0  0  0  0  0
   37.5890   31.3590   40.7130 C   0  0  0  0  0  0  0  0  0  0  0  0
   36.9550   32.3720   40.0740 N   0  0  0  0  0  0  0  0  0  0  0  0
   37.5840   33.4990   39.7050 C   0  0  0  0  0  0  0  0  0  0  0  0
   38.9000   33.6700   39.9610 N   0  0  0  0  0  0  0  0  0  0  0  0
   40.6320   32.7290   40.8490 H   0  0  0  0  0  0  0  0  0  0  0  0
   39.5030   30.7100   41.5110 H   0  0  0  0  0  0  0  0  0  0  0  0
   37.0860   34.3110   39.1940 H   0  0  0  0  0  0  0  0  0  0  0  0
  1 13  1  0  0  0  0
  2  1  1  6  0  0  0
  2  3  1  0  0  0  0
  2 11  1  0  0  0  0
  4  9  1  0  0  0  0
  4  3  1  0  0  0  0
  5  7  1  0  0  0  0
  5  4  1  0  0  0  0
  6  5  2  0  0  0  0
  7  8  1  0  0  0  0
  9  7  1  6  0  0  0
 10  2  1  0  0  0  0
 10  9  1  0  0  0  0
 11 12  1  0  0  0  0
 14 20  1  0  0  0  0
 14 15  1  0  0  0  0
 15 21  1  0  0  0  0
 16 15  2  0  0  0  0
 16 13  1  0  0  0  0
 17 16  1  0  0  0  0
 18 19  1  0  0  0  0
 18 17  2  0  0  0  0
 19 14  2  0  0  0  0
 22 18  1  0  0  0  0
M  END
>  <minimizedAffinity>
-4.37415981

$$$$

 OpenBabel03242511173D

 22 24  0  0  1  0  0  0  0  0999 V2000
   36.3110   28.7720   41.1360 C   0  0  0  0  0  2  0  0  0  0  0  0
   37.3460   28.2280   42.0890 C   0  0  1  0  0  0  0  0  0  0  0  0
   36.8540   27.0360   42.8590 C   0  0  0  0  0  2  0  0  0  0  0  0
   37.1310   25.8560   42.0560 N   0  0  0  0  0  0  0  0  0  0  0  0
   37.1010   24.6650   41.2710 C   0  0  0  0  0  0  0  0  0  0  0  0
   36.1850   23.8450   40.9810 O   0  0  0  0  0  0  0  0  0  0  0  0
   38.5380   24.7220   40.9060 C   0  0  0  0  0  3  0  0  0  0  0  0
   39.1370   23.8390   41.2730 H   0  0  0  0  0  0  0  0  0  0  0  0
   38.5940   25.8180   41.9060 C   0  0  1  0  0  3  0  0  0  0  0  0
   38.7670   27.5120   41.2120 S   0  0  0  0  0  0  0  0  0  0  0  0
   37.8560   29.2540   43.0440 C   0  0  0  0  0  2  0  0  0  0  0  0
   38.5910   28.7080   43.7070 H   0  0  0  0  0  0  0  0  0  0  0  0
   36.4840   30.5690   41.1060 S   0  0  0  0  0  0  0  0  0  0  0  0
   37.8840   31.6120   37.4310 C   0  0  0  0  0  0  0  0  0  0  0  0
   36.9990   31.2420   38.4680 C   0  0  0  0  0  0  0  0  0  0  0  0
   37.5600   31.0410   39.7500 C   0  0  0  0  0  0  0  0  0  0  0  0
   38.8950   31.2120   39.9060 N   0  0  0  0  0  0  0  0  0  0  0  0
   39.7010   31.5640   38.8920 C   0  0  0  0  0  0  0  0  0  0  0  0
   39.2010   31.7660   37.6520 N   0  0  0  0  0  0  0  0  0  0  0  0
   37.3780   31.7450   36.4910 H   0  0  0  0  0  0  0  0  0  0  0  0
   35.9360   31.1130   38.3090 H   0  0  0  0  0  0  0  0  0  0  0  0
   40.7670   31.7040   39.0070 H   0  0  0  0  0  0  0  0  0  0  0  0
  2  1  1  6  0  0  0
  2  3  1  0  0  0  0
  2 11  1  0  0  0  0
  4  3  1  0  0  0  0
  5  4  1  0  0  0  0
  6  5  2  0  0  0  0
  7  5  1  0  0  0  0
  7  8  1  0  0  0  0
  9  7  1  6  0  0  0
  9  4  1  0  0  0  0
 10  9  1  0  0  0  0
 10  2  1  0  0  0  0
 11 12  1  0  0  0  0
 13  1  1  0  0  0  0
 14 19  2  0  0  0  0
 14 15  1  0  0  0  0
 15 16  2  0  0  0  0
 16 17  1  0  0  0  0
 16 13  1  0  0  0  0
 18 22  1  0  0  0  0
 18 17  2  0  0  0  0
 19 18  1  0  0  0  0
 20 14  1  0  0  0  0
 21 15  1  0  0  0  0
M  END
>  <minimizedAffinity>
-4.28916502

$$$$

 OpenBabel03242511173D

 22 24  0  0  1  0  0  0  0  0999 V2000
   36.4970   27.4010   40.2660 C   0  0  0  0  0  2  0  0  0  0  0  0
   37.4070   27.0370   41.4130 C   0  0  1  0  0  0  0  0  0  0  0  0
   38.8610   27.1570   41.0580 C   0  0  0  0  0  2  0  0  0  0  0  0
   39.2600   28.5300   41.3200 N   0  0  0  0  0  0  0  0  0  0  0  0
   39.7090   29.8840   41.2780 C   0  0  0  0  0  0  0  0  0  0  0  0
   40.2620   30.5830   40.3830 O   0  0  0  0  0  0  0  0  0  0  0  0
   39.2980   30.1920   42.6710 C   0  0  0  0  0  3  0  0  0  0  0  0
   40.1540   30.4790   43.3460 H   0  0  0  0  0  0  0  0  0  0  0  0
   39.0530   28.7310   42.7620 C   0  0  1  0  0  3  0  0  0  0  0  0
   37.2850   28.2260   42.7800 S   0  0  0  0  0  0  0  0  0  0  0  0
   37.1440   25.6720   41.9550 C   0  0  0  0  0  2  0  0  0  0  0  0
   37.9060   25.5240   42.7760 H   0  0  0  0  0  0  0  0  0  0  0  0
   35.6160   28.9090   40.7230 S   0  0  0  0  0  0  0  0  0  0  0  0
   37.3870   31.3450   37.9870 C   0  0  0  0  0  0  0  0  0  0  0  0
   36.7790   30.2120   38.5720 C   0  0  0  0  0  0  0  0  0  0  0  0
   36.3930   30.3170   39.9280 C   0  0  0  0  0  0  0  0  0  0  0  0
   36.6270   31.4830   40.5770 N   0  0  0  0  0  0  0  0  0  0  0  0
   37.2100   32.5370   39.9830 C   0  0  0  0  0  0  0  0  0  0  0  0
   37.5910   32.4730   38.6880 N   0  0  0  0  0  0  0  0  0  0  0  0
   37.6490   31.1810   36.9560 H   0  0  0  0  0  0  0  0  0  0  0  0
   36.6070   29.2940   38.0230 H   0  0  0  0  0  0  0  0  0  0  0  0
   37.4000   33.4700   40.4930 H   0  0  0  0  0  0  0  0  0  0  0  0
  1 13  1  0  0  0  0
  2  1  1  6  0  0  0
  2 11  1  0  0  0  0
  2 10  1  0  0  0  0
  3  4  1  0  0  0  0
  3  2  1  0  0  0  0
  4  9  1  0  0  0  0
  5  4  1  0  0  0  0
  5  7  1  0  0  0  0
  6  5  2  0  0  0  0
  7  8  1  0  0  0  0
  9  7  1  6  0  0  0
  9 10  1  0  0  0  0
 11 12  1  0  0  0  0
 14 15  2  0  0  0  0
 14 19  1  0  0  0  0
 15 16  1  0  0  0  0
 16 17  2  0  0  0  0
 16 13  1  0  0  0  0
 18 22  1  0  0  0  0
 18 17  1  0  0  0  0
 19 18  2  0  0  0  0
 20 14  1  0  0  0  0
 21 15  1  0  0  0  0
M  END
>  <minimizedAffinity>
-4.2696476

$$$$

 OpenBabel03242511173D

 22 24  0  0  1  0  0  0  0  0999 V2000
   38.6290   31.7990   40.9530 C   0  0  0  0  0  2  0  0  0  0  0  0
   38.6090   32.5570   39.6490 C   0  0  1  0  0  0  0  0  0  0  0  0
   39.7990   33.4590   39.4870 C   0  0  0  0  0  2  0  0  0  0  0  0
   40.8620   32.6710   38.8870 N   0  0  0  0  0  0  0  0  0  0  0  0
   42.0540   31.9600   38.5560 C   0  0  0  0  0  0  0  0  0  0  0  0
   43.1950   31.8900   39.0940 O   0  0  0  0  0  0  0  0  0  0  0  0
   41.4840   31.3240   37.3420 C   0  0  0  0  0  3  0  0  0  0  0  0
   42.0140   31.6070   36.3880 H   0  0  0  0  0  0  0  0  0  0  0  0
   40.3440   32.2440   37.5780 C   0  0  1  0  0  3  0  0  0  0  0  0
   38.8120   31.4550   38.2190 S   0  0  0  0  0  0  0  0  0  0  0  0
   37.3600   33.3500   39.4550 C   0  0  0  0  0  2  0  0  0  0  0  0
   37.4930   33.8820   38.4670 H   0  0  0  0  0  0  0  0  0  0  0  0
   37.1620   30.7460   40.9970 S   0  0  0  0  0  0  0  0  0  0  0  0
   36.9130   27.0400   42.6590 C   0  0  0  0  0  0  0  0  0  0  0  0
   36.5770   28.2050   41.9330 C   0  0  0  0  0  0  0  0  0  0  0  0
   37.5350   29.2440   41.9040 C   0  0  0  0  0  0  0  0  0  0  0  0
   38.7030   29.0640   42.5670 N   0  0  0  0  0  0  0  0  0  0  0  0
   38.9830   27.9400   43.2460 C   0  0  0  0  0  0  0  0  0  0  0  0
   38.0910   26.9250   43.2960 N   0  0  0  0  0  0  0  0  0  0  0  0
   36.1320   26.3010   42.6300 H   0  0  0  0  0  0  0  0  0  0  0  0
   35.6320   28.3160   41.4140 H   0  0  0  0  0  0  0  0  0  0  0  0
   39.9110   27.7880   43.7770 H   0  0  0  0  0  0  0  0  0  0  0  0
  1 13  1  0  0  0  0
  2 11  1  6  0  0  0
  2  1  1  0  0  0  0
  3  2  1  0  0  0  0
  4  3  1  0  0  0  0
  5  4  1  0  0  0  0
  5  6  2  0  0  0  0
  7  5  1  0  0  0  0
  8  7  1  0  0  0  0
  9  7  1  1  0  0  0
  9 10  1  0  0  0  0
  9  4  1  0  0  0  0
 10  2  1  0  0  0  0
 12 11  1  0  0  0  0
 13 16  1  0  0  0  0
 14 19  1  0  0  0  0
 15 14  2  0  0  0  0
 16 15  1  0  0  0  0
 16 17  2  0  0  0  0
 17 18  1  0  0  0  0
 18 19  2  0  0  0  0
 18 22  1  0  0  0  0
 20 14  1  0  0  0  0
 21 15  1  0  0  0  0
M  END
>  <minimizedAffinity>
-4.19292355

$$$$

 OpenBabel03242511173D

 22 24  0  0  1  0  0  0  0  0999 V2000
   37.5150   29.0490   38.7900 C   0  0  0  0  0  2  0  0  0  0  0  0
   36.9490   27.9510   39.6560 C   0  0  1  0  0  0  0  0  0  0  0  0
   38.0170   27.1450   40.3400 C   0  0  0  0  0  2  0  0  0  0  0  0
   38.3350   27.8180   41.5880 N   0  0  0  0  0  0  0  0  0  0  0  0
   38.9260   28.5040   42.6910 C   0  0  0  0  0  0  0  0  0  0  0  0
   40.1150   28.8220   42.9730 O   0  0  0  0  0  0  0  0  0  0  0  0
   37.6420   28.7170   43.4040 C   0  0  0  0  0  3  0  0  0  0  0  0
   37.5940   28.2200   44.4150 H   0  0  0  0  0  0  0  0  0  0  0  0
   37.0890   27.8080   42.3690 C   0  0  1  0  0  3  0  0  0  0  0  0
   36.0450   28.6130   41.0870 S   0  0  0  0  0  0  0  0  0  0  0  0
   36.0390   27.0320   38.9130 C   0  0  0  0  0  2  0  0  0  0  0  0
   35.7170   26.2540   39.6670 H   0  0  0  0  0  0  0  0  0  0  0  0
   36.4850   30.5150   39.0210 S   0  0  0  0  0  0  0  0  0  0  0  0
   39.3320   32.5880   41.0580 C   0  0  0  0  0  0  0  0  0  0  0  0
   38.5770   31.5130   40.5390 C   0  0  0  0  0  0  0  0  0  0  0  0
   37.4800   31.8390   39.7080 C   0  0  0  0  0  0  0  0  0  0  0  0
   37.2230   33.1470   39.4630 N   0  0  0  0  0  0  0  0  0  0  0  0
   37.9670   34.1390   39.9780 C   0  0  0  0  0  0  0  0  0  0  0  0
   39.0230   33.8650   40.7750 N   0  0  0  0  0  0  0  0  0  0  0  0
   40.1460   32.2530   41.6780 H   0  0  0  0  0  0  0  0  0  0  0  0
   38.8100   30.4770   40.7560 H   0  0  0  0  0  0  0  0  0  0  0  0
   37.7690   35.1840   39.7870 H   0  0  0  0  0  0  0  0  0  0  0  0
  1 13  1  0  0  0  0
  2  1  1  6  0  0  0
  2  3  1  0  0  0  0
  2 10  1  0  0  0  0
  3  4  1  0  0  0  0
  4  9  1  0  0  0  0
  4  5  1  0  0  0  0
  5  6  2  0  0  0  0
  5  7  1  0  0  0  0
  7  8  1  0  0  0  0
  9 10  1  6  0  0  0
  9  7  1  0  0  0  0
 11  2  1  0  0  0  0
 11 12  1  0  0  0  0
 13 16  1  0  0  0  0
 14 20  1  0  0  0  0
 15 21  1  0  0  0  0
 15 14  2  0  0  0  0
 16 15  1  0  0  0  0
 17 16  2  0  0  0  0
 17 18  1  0  0  0  0
 18 19  2  0  0  0  0
 19 14  1  0  0  0  0
 22 18  1  0  0  0  0
M  END
>  <minimizedAffinity>
-4.18949652

$$$$

 OpenBabel03242511173D

 22 24  0  0  1  0  0  0  0  0999 V2000
   37.3400   29.1040   41.9400 C   0  0  0  0  0  2  0  0  0  0  0  0
   36.5130   29.6870   40.8220 C   0  0  1  0  0  0  0  0  0  0  0  0
   36.1750   31.1340   41.0480 C   0  0  0  0  0  2  0  0  0  0  0  0
   37.2670   31.9240   40.5050 N   0  0  0  0  0  0  0  0  0  0  0  0
   38.3710   32.7950   40.2610 C   0  0  0  0  0  0  0  0  0  0  0  0
   38.9640   33.6570   40.9690 O   0  0  0  0  0  0  0  0  0  0  0  0
   38.5850   32.3320   38.8670 C   0  0  0  0  0  3  0  0  0  0  0  0
   38.4520   33.1410   38.0930 H   0  0  0  0  0  0  0  0  0  0  0  0
   37.3040   31.6100   39.0690 C   0  0  1  0  0  3  0  0  0  0  0  0
   37.4460   29.7880   39.2670 S   0  0  0  0  0  0  0  0  0  0  0  0
   35.2570   28.9230   40.5650 C   0  0  0  0  0  2  0  0  0  0  0  0
   34.7300   29.4820   39.7360 H   0  0  0  0  0  0  0  0  0  0  0  0
   38.5470   27.9820   41.2000 S   0  0  0  0  0  0  0  0  0  0  0  0
   36.7610   24.5930   39.8290 C   0  0  0  0  0  0  0  0  0  0  0  0
   37.3050   25.8960   39.8640 C   0  0  0  0  0  0  0  0  0  0  0  0
   37.8420   26.3350   41.0960 C   0  0  0  0  0  0  0  0  0  0  0  0
   37.8040   25.4910   42.1550 N   0  0  0  0  0  0  0  0  0  0  0  0
   37.2760   24.2590   42.0790 C   0  0  0  0  0  0  0  0  0  0  0  0
   36.7540   23.8040   40.9180 N   0  0  0  0  0  0  0  0  0  0  0  0
   36.3740   24.3380   38.8580 H   0  0  0  0  0  0  0  0  0  0  0  0
   37.3190   26.5460   38.9980 H   0  0  0  0  0  0  0  0  0  0  0  0
   37.2420   23.5790   42.9180 H   0  0  0  0  0  0  0  0  0  0  0  0
  2 11  1  6  0  0  0
  2  3  1  0  0  0  0
  2  1  1  0  0  0  0
  4  3  1  0  0  0  0
  5  4  1  0  0  0  0
  5  6  2  0  0  0  0
  7  5  1  0  0  0  0
  8  7  1  0  0  0  0
  9  7  1  1  0  0  0
  9 10  1  0  0  0  0
  9  4  1  0  0  0  0
 10  2  1  0  0  0  0
 12 11  1  0  0  0  0
 13  1  1  0  0  0  0
 14 15  2  0  0  0  0
 14 19  1  0  0  0  0
 15 16  1  0  0  0  0
 16 13  1  0  0  0  0
 16 17  2  0  0  0  0
 18 17  1  0  0  0  0
 18 22  1  0  0  0  0
 19 18  2  0  0  0  0
 20 14  1  0  0  0  0
 21 15  1  0  0  0  0
M  END
>  <minimizedAffinity>
-4.1759553

$$$$
