
 OpenBabel03242511163D

 22 24  0  0  1  0  0  0  0  0999 V2000
   45.6000   32.9460   41.6310 C   0  0  0  0  0  2  0  0  0  0  0  0
   46.0620   33.6890   42.8610 C   0  0  1  0  0  0  0  0  0  0  0  0
   45.1920   33.4250   44.0560 C   0  0  0  0  0  2  0  0  0  0  0  0
   45.7070   32.2350   44.7130 N   0  0  0  0  0  0  0  0  0  0  0  0
   45.9370   30.9520   45.2930 C   0  0  0  0  0  0  0  0  0  0  0  0
   45.1860   29.9680   45.5380 O   0  0  0  0  0  0  0  0  0  0  0  0
   47.3880   31.1780   45.5160 C   0  0  0  0  0  3  0  0  0  0  0  0
   47.6950   31.1420   46.6000 H   0  0  0  0  0  0  0  0  0  0  0  0
   47.0770   32.5750   45.1250 C   0  0  1  0  0  3  0  0  0  0  0  0
   47.6660   33.0790   43.4580 S   0  0  0  0  0  0  0  0  0  0  0  0
   46.1720   35.1610   42.6460 C   0  0  0  0  0  2  0  0  0  0  0  0
   46.4940   35.5850   43.6420 H   0  0  0  0  0  0  0  0  0  0  0  0
   44.7470   34.1280   40.5640 S   0  0  0  0  0  0  0  0  0  0  0  0
   41.0210   35.3690   41.6290 C   0  0  0  0  0  0  0  0  0  0  0  0
   42.3960   35.3940   41.3050 C   0  0  0  0  0  0  0  0  0  0  0  0
   43.0030   34.1580   40.9840 C   0  0  0  0  0  0  0  0  0  0  0  0
   42.2400   33.0380   41.0070 N   0  0  0  0  0  0  0  0  0  0  0  0
   40.9350   33.0590   41.3220 C   0  0  0  0  0  0  0  0  0  0  0  0
   40.3200   34.2220   41.6330 N   0  0  0  0  0  0  0  0  0  0  0  0
   40.6380   36.3480   41.8590 H   0  0  0  0  0  0  0  0  0  0  0  0
   42.9770   36.3080   41.2960 H   0  0  0  0  0  0  0  0  0  0  0  0
   40.3200   32.1710   41.3430 H   0  0  0  0  0  0  0  0  0  0  0  0
  2  1  1  6  0  0  0
  2 10  1  0  0  0  0
  2  3  1  0  0  0  0
  3  4  1  0  0  0  0
  4  9  1  0  0  0  0
  4  5  1  0  0  0  0
  5  7  1  0  0  0  0
  5  6  2  0  0  0  0
  7  8  1  0  0  0  0
  9 10  1  6  0  0  0
  9  7  1  0  0  0  0
 11  2  1  0  0  0  0
 11 12  1  0  0  0  0
 13 16  1  0  0  0  0
 13  1  1  0  0  0  0
 14 19  1  0  0  0  0
 14 20  1  0  0  0  0
 15 14  2  0  0  0  0
 16 17  2  0  0  0  0
 16 15  1  0  0  0  0
 17 18  1  0  0  0  0
 18 22  1  0  0  0  0
 18 19  2  0  0  0  0
 21 15  1  0  0  0  0
M  END
>  <minimizedAffinity>
-3.72998977

>  <minimizedRMSD>
5.59430408

$$$$
