
 OpenBabel03242511163D

 22 24  0  0  1  0  0  0  0  0999 V2000
   45.6270   32.5310   41.5530 C   0  0  0  0  0  2  0  0  0  0  0  0
   46.1710   33.1880   42.7970 C   0  0  1  0  0  0  0  0  0  0  0  0
   47.3670   32.4720   43.3540 C   0  0  0  0  0  2  0  0  0  0  0  0
   48.5430   33.0060   42.6880 N   0  0  0  0  0  0  0  0  0  0  0  0
   49.7310   33.2460   41.9360 C   0  0  0  0  0  0  0  0  0  0  0  0
   50.5530   32.4840   41.3540 O   0  0  0  0  0  0  0  0  0  0  0  0
   49.6690   34.7220   42.0760 C   0  0  0  0  0  3  0  0  0  0  0  0
   50.5510   35.1670   42.6210 H   0  0  0  0  0  0  0  0  0  0  0  0
   48.5760   34.4360   43.0390 C   0  0  1  0  0  3  0  0  0  0  0  0
   46.8790   34.8240   42.4460 S   0  0  0  0  0  0  0  0  0  0  0  0
   45.1450   33.3430   43.8700 C   0  0  0  0  0  2  0  0  0  0  0  0
   45.6920   33.8150   44.7390 H   0  0  0  0  0  0  0  0  0  0  0  0
   45.1240   33.8410   40.4160 S   0  0  0  0  0  0  0  0  0  0  0  0
   41.3430   35.2540   39.9010 C   0  0  0  0  0  0  0  0  0  0  0  0
   42.7470   35.1290   39.8070 C   0  0  0  0  0  0  0  0  0  0  0  0
   43.3440   34.0500   40.5000 C   0  0  0  0  0  0  0  0  0  0  0  0
   42.5450   33.2130   41.2040 N   0  0  0  0  0  0  0  0  0  0  0  0
   41.2130   33.3700   41.2680 C   0  0  0  0  0  0  0  0  0  0  0  0
   40.6060   34.3880   40.6180 N   0  0  0  0  0  0  0  0  0  0  0  0
   40.9710   36.0980   39.3470 H   0  0  0  0  0  0  0  0  0  0  0  0
   43.3570   35.8170   39.2350 H   0  0  0  0  0  0  0  0  0  0  0  0
   40.5680   32.7070   41.8270 H   0  0  0  0  0  0  0  0  0  0  0  0
  2  1  1  6  0  0  0
  2  3  1  0  0  0  0
  2 11  1  0  0  0  0
  4  9  1  0  0  0  0
  4  3  1  0  0  0  0
  5  7  1  0  0  0  0
  5  4  1  0  0  0  0
  6  5  2  0  0  0  0
  7  8  1  0  0  0  0
  9  7  1  6  0  0  0
 10  2  1  0  0  0  0
 10  9  1  0  0  0  0
 11 12  1  0  0  0  0
 13 16  1  0  0  0  0
 13  1  1  0  0  0  0
 14 19  1  0  0  0  0
 15 14  2  0  0  0  0
 15 16  1  0  0  0  0
 16 17  2  0  0  0  0
 17 18  1  0  0  0  0
 18 22  1  0  0  0  0
 19 18  2  0  0  0  0
 20 14  1  0  0  0  0
 21 15  1  0  0  0  0
M  END
>  <minimizedAffinity>
-3.7770021

>  <minimizedRMSD>
4.1126852

$$$$
