
 OpenBabel03242511163D

 22 24  0  0  1  0  0  0  0  0999 V2000
   48.7350   33.8590   41.9540 C   0  0  0  0  0  2  0  0  0  0  0  0
   48.6800   32.6490   41.0560 C   0  0  1  0  0  0  0  0  0  0  0  0
   50.0350   32.0570   40.7980 C   0  0  0  0  0  2  0  0  0  0  0  0
   50.3100   31.1150   41.8700 N   0  0  0  0  0  0  0  0  0  0  0  0
   50.8130   30.3760   42.9820 C   0  0  0  0  0  0  0  0  0  0  0  0
   51.8680   30.4610   43.6690 O   0  0  0  0  0  0  0  0  0  0  0  0
   49.6480   29.4580   43.0540 C   0  0  0  0  0  3  0  0  0  0  0  0
   49.9100   28.3750   42.8860 H   0  0  0  0  0  0  0  0  0  0  0  0
   49.2610   30.0890   41.7670 C   0  0  1  0  0  3  0  0  0  0  0  0
   47.8380   31.2500   41.8530 S   0  0  0  0  0  0  0  0  0  0  0  0
   48.0050   32.9190   39.7520 C   0  0  0  0  0  2  0  0  0  0  0  0
   48.0620   31.9480   39.1780 H   0  0  0  0  0  0  0  0  0  0  0  0
   47.2150   34.8010   41.6990 S   0  0  0  0  0  0  0  0  0  0  0  0
   44.5620   35.8020   44.6170 C   0  0  0  0  0  0  0  0  0  0  0  0
   45.2840   35.8230   43.4030 C   0  0  0  0  0  0  0  0  0  0  0  0
   46.2670   34.8240   43.2220 C   0  0  0  0  0  0  0  0  0  0  0  0
   46.4570   33.9180   44.2120 N   0  0  0  0  0  0  0  0  0  0  0  0
   45.7490   33.9350   45.3520 C   0  0  0  0  0  0  0  0  0  0  0  0
   44.7990   34.8740   45.5600 N   0  0  0  0  0  0  0  0  0  0  0  0
   43.8350   36.5940   44.6730 H   0  0  0  0  0  0  0  0  0  0  0  0
   45.1070   36.5630   42.6310 H   0  0  0  0  0  0  0  0  0  0  0  0
   45.8930   33.2160   46.1460 H   0  0  0  0  0  0  0  0  0  0  0  0
  2 11  1  6  0  0  0
  2 10  1  0  0  0  0
  2  1  1  0  0  0  0
  3  2  1  0  0  0  0
  3  4  1  0  0  0  0
  4  5  1  0  0  0  0
  5  7  1  0  0  0  0
  5  6  2  0  0  0  0
  8  7  1  0  0  0  0
  9 10  1  1  0  0  0
  9  4  1  0  0  0  0
  9  7  1  0  0  0  0
 12 11  1  0  0  0  0
 13  1  1  0  0  0  0
 13 16  1  0  0  0  0
 14 20  1  0  0  0  0
 14 19  1  0  0  0  0
 15 14  2  0  0  0  0
 16 15  1  0  0  0  0
 16 17  2  0  0  0  0
 17 18  1  0  0  0  0
 18 19  2  0  0  0  0
 18 22  1  0  0  0  0
 21 15  1  0  0  0  0
M  END
>  <minimizedAffinity>
-3.7631948

>  <minimizedRMSD>
2.14540458

$$$$
