
 OpenBabel03242511163D

 22 24  0  0  1  0  0  0  0  0999 V2000
   45.4450   30.1540   42.3580 C   0  0  0  0  0  2  0  0  0  0  0  0
   46.2230   31.2900   42.9720 C   0  0  1  0  0  0  0  0  0  0  0  0
   45.4800   31.9630   44.0880 C   0  0  0  0  0  2  0  0  0  0  0  0
   45.7820   31.2390   45.3120 N   0  0  0  0  0  0  0  0  0  0  0  0
   45.7790   30.4750   46.5160 C   0  0  0  0  0  0  0  0  0  0  0  0
   44.8570   30.0250   47.2510 O   0  0  0  0  0  0  0  0  0  0  0  0
   47.2590   30.3890   46.6090 C   0  0  0  0  0  3  0  0  0  0  0  0
   47.6870   30.8690   47.5340 H   0  0  0  0  0  0  0  0  0  0  0  0
   47.2360   31.3690   45.4950 C   0  0  1  0  0  3  0  0  0  0  0  0
   47.7050   30.7040   43.8460 S   0  0  0  0  0  0  0  0  0  0  0  0
   46.6460   32.3150   41.9720 C   0  0  0  0  0  2  0  0  0  0  0  0
   47.1850   33.1090   42.5680 H   0  0  0  0  0  0  0  0  0  0  0  0
   43.7630   30.7390   42.0590 S   0  0  0  0  0  0  0  0  0  0  0  0
   40.3930   29.4460   43.9370 C   0  0  0  0  0  0  0  0  0  0  0  0
   41.2450   30.1330   43.0450 C   0  0  0  0  0  0  0  0  0  0  0  0
   42.6330   29.8930   43.1660 C   0  0  0  0  0  0  0  0  0  0  0  0
   43.0580   29.0290   44.1200 N   0  0  0  0  0  0  0  0  0  0  0  0
   42.2130   28.3970   44.9500 C   0  0  0  0  0  0  0  0  0  0  0  0
   40.8790   28.6010   44.8630 N   0  0  0  0  0  0  0  0  0  0  0  0
   39.3560   29.6850   43.7780 H   0  0  0  0  0  0  0  0  0  0  0  0
   40.8720   30.8180   42.2930 H   0  0  0  0  0  0  0  0  0  0  0  0
   42.5430   27.7060   45.7130 H   0  0  0  0  0  0  0  0  0  0  0  0
  1  2  1  0  0  0  0
  2 11  1  6  0  0  0
  2 10  1  0  0  0  0
  2  3  1  0  0  0  0
  3  4  1  0  0  0  0
  4  9  1  0  0  0  0
  4  5  1  0  0  0  0
  5  7  1  0  0  0  0
  5  6  2  0  0  0  0
  7  8  1  0  0  0  0
  9 10  1  6  0  0  0
  9  7  1  0  0  0  0
 11 12  1  0  0  0  0
 13  1  1  0  0  0  0
 13 16  1  0  0  0  0
 14 19  1  0  0  0  0
 15 16  1  0  0  0  0
 15 14  2  0  0  0  0
 16 17  2  0  0  0  0
 17 18  1  0  0  0  0
 18 22  1  0  0  0  0
 19 18  2  0  0  0  0
 20 14  1  0  0  0  0
 21 15  1  0  0  0  0
M  END
>  <minimizedAffinity>
-2.58408952

>  <minimizedRMSD>
6.81799889

$$$$
