
 OpenBabel03242511163D

 22 24  0  0  1  0  0  0  0  0999 V2000
   48.5840   33.9520   42.0040 C   0  0  0  0  0  2  0  0  0  0  0  0
   48.7310   32.5180   41.5620 C   0  0  1  0  0  0  0  0  0  0  0  0
   49.3760   31.6540   42.6070 C   0  0  0  0  0  2  0  0  0  0  0  0
   48.3210   31.1640   43.4780 N   0  0  0  0  0  0  0  0  0  0  0  0
   47.4380   30.8370   44.5490 C   0  0  0  0  0  0  0  0  0  0  0  0
   47.5000   30.9990   45.8000 O   0  0  0  0  0  0  0  0  0  0  0  0
   46.4060   30.2270   43.6730 C   0  0  0  0  0  3  0  0  0  0  0  0
   46.2190   29.1350   43.8820 H   0  0  0  0  0  0  0  0  0  0  0  0
   47.4350   30.3700   42.6140 C   0  0  1  0  0  3  0  0  0  0  0  0
   47.1200   31.6970   41.3800 S   0  0  0  0  0  0  0  0  0  0  0  0
   49.4750   32.3760   40.2760 C   0  0  0  0  0  2  0  0  0  0  0  0
   49.5340   31.2640   40.0850 H   0  0  0  0  0  0  0  0  0  0  0  0
   46.8960   34.4730   41.6260 S   0  0  0  0  0  0  0  0  0  0  0  0
   44.5400   36.1610   44.4810 C   0  0  0  0  0  0  0  0  0  0  0  0
   45.2160   35.9520   43.2580 C   0  0  0  0  0  0  0  0  0  0  0  0
   46.0150   34.7900   43.1550 C   0  0  0  0  0  0  0  0  0  0  0  0
   46.0830   33.9570   44.2220 N   0  0  0  0  0  0  0  0  0  0  0  0
   45.4240   34.1940   45.3670 C   0  0  0  0  0  0  0  0  0  0  0  0
   44.6510   35.2940   45.5020 N   0  0  0  0  0  0  0  0  0  0  0  0
   43.9570   37.0660   44.4760 H   0  0  0  0  0  0  0  0  0  0  0  0
   45.1400   36.6400   42.4250 H   0  0  0  0  0  0  0  0  0  0  0  0
   45.4730   33.5350   46.2220 H   0  0  0  0  0  0  0  0  0  0  0  0
  2 11  1  6  0  0  0
  2  1  1  0  0  0  0
  2  3  1  0  0  0  0
  3  4  1  0  0  0  0
  4  5  1  0  0  0  0
  5  6  2  0  0  0  0
  7  8  1  0  0  0  0
  7  5  1  0  0  0  0
  9 10  1  6  0  0  0
  9  4  1  0  0  0  0
  9  7  1  0  0  0  0
 10  2  1  0  0  0  0
 12 11  1  0  0  0  0
 13  1  1  0  0  0  0
 13 16  1  0  0  0  0
 14 19  1  0  0  0  0
 15 14  2  0  0  0  0
 16 15  1  0  0  0  0
 16 17  2  0  0  0  0
 17 18  1  0  0  0  0
 18 19  2  0  0  0  0
 18 22  1  0  0  0  0
 20 14  1  0  0  0  0
 21 15  1  0  0  0  0
M  END
>  <minimizedAffinity>
-3.7573452

>  <minimizedRMSD>
1.58378565

$$$$
