
 OpenBabel03242511163D

 22 24  0  0  1  0  0  0  0  0999 V2000
   47.6970   33.0170   41.6920 C   0  0  0  0  0  2  0  0  0  0  0  0
   48.1780   32.8430   40.2730 C   0  0  1  0  0  0  0  0  0  0  0  0
   49.5760   32.3010   40.1980 C   0  0  0  0  0  2  0  0  0  0  0  0
   49.4840   30.8510   40.2310 N   0  0  0  0  0  0  0  0  0  0  0  0
   49.5540   29.4560   40.5200 C   0  0  0  0  0  0  0  0  0  0  0  0
   50.2000   28.7820   41.3700 O   0  0  0  0  0  0  0  0  0  0  0  0
   48.5910   29.0640   39.4600 C   0  0  0  0  0  3  0  0  0  0  0  0
   49.0320   28.3880   38.6720 H   0  0  0  0  0  0  0  0  0  0  0  0
   48.7120   30.4800   39.0350 C   0  0  1  0  0  3  0  0  0  0  0  0
   47.2570   31.5420   39.4000 S   0  0  0  0  0  0  0  0  0  0  0  0
   48.0910   34.0970   39.4690 C   0  0  0  0  0  2  0  0  0  0  0  0
   48.5040   33.8290   38.4510 H   0  0  0  0  0  0  0  0  0  0  0  0
   47.0340   34.6900   41.8450 S   0  0  0  0  0  0  0  0  0  0  0  0
   44.4830   35.9620   44.7490 C   0  0  0  0  0  0  0  0  0  0  0  0
   45.1950   35.8970   43.5300 C   0  0  0  0  0  0  0  0  0  0  0  0
   46.1020   34.8230   43.3710 C   0  0  0  0  0  0  0  0  0  0  0  0
   46.2320   33.9330   44.3850 N   0  0  0  0  0  0  0  0  0  0  0  0
   45.5360   34.0320   45.5280 C   0  0  0  0  0  0  0  0  0  0  0  0
   44.6590   35.0450   45.7150 N   0  0  0  0  0  0  0  0  0  0  0  0
   43.8170   36.8060   44.7880 H   0  0  0  0  0  0  0  0  0  0  0  0
   45.0670   36.6270   42.7400 H   0  0  0  0  0  0  0  0  0  0  0  0
   45.6330   33.3270   46.3410 H   0  0  0  0  0  0  0  0  0  0  0  0
  1 13  1  0  0  0  0
  2 11  1  6  0  0  0
  2  1  1  0  0  0  0
  3  4  1  0  0  0  0
  3  2  1  0  0  0  0
  4  5  1  0  0  0  0
  5  6  2  0  0  0  0
  7  5  1  0  0  0  0
  8  7  1  0  0  0  0
  9 10  1  1  0  0  0
  9  7  1  0  0  0  0
  9  4  1  0  0  0  0
 10  2  1  0  0  0  0
 12 11  1  0  0  0  0
 13 16  1  0  0  0  0
 14 20  1  0  0  0  0
 14 19  1  0  0  0  0
 15 14  2  0  0  0  0
 16 15  1  0  0  0  0
 16 17  2  0  0  0  0
 17 18  1  0  0  0  0
 18 19  2  0  0  0  0
 18 22  1  0  0  0  0
 21 15  1  0  0  0  0
M  END
>  <minimizedAffinity>
-3.71768165

>  <minimizedRMSD>
1.09323847

$$$$
