
 OpenBabel03242511163D

 22 24  0  0  1  0  0  0  0  0999 V2000
   46.8510   33.0090   41.0960 C   0  0  0  0  0  2  0  0  0  0  0  0
   48.0620   33.5850   40.4050 C   0  0  1  0  0  0  0  0  0  0  0  0
   49.2680   32.7000   40.5200 C   0  0  0  0  0  2  0  0  0  0  0  0
   49.2220   31.7540   39.4160 N   0  0  0  0  0  0  0  0  0  0  0  0
   49.1610   30.6200   38.5540 C   0  0  0  0  0  0  0  0  0  0  0  0
   49.2270   29.3750   38.7600 O   0  0  0  0  0  0  0  0  0  0  0  0
   48.9900   31.4180   37.3140 C   0  0  0  0  0  3  0  0  0  0  0  0
   49.8240   31.2820   36.5670 H   0  0  0  0  0  0  0  0  0  0  0  0
   49.2860   32.5740   38.1950 C   0  0  1  0  0  3  0  0  0  0  0  0
   47.8480   33.6460   38.6010 S   0  0  0  0  0  0  0  0  0  0  0  0
   48.4090   34.9560   40.8810 C   0  0  0  0  0  2  0  0  0  0  0  0
   49.3380   35.2460   40.3070 H   0  0  0  0  0  0  0  0  0  0  0  0
   45.6400   34.3360   41.2780 S   0  0  0  0  0  0  0  0  0  0  0  0
   44.4580   35.9930   44.8010 C   0  0  0  0  0  0  0  0  0  0  0  0
   44.6890   35.8160   43.4190 C   0  0  0  0  0  0  0  0  0  0  0  0
   45.3200   34.6150   43.0210 C   0  0  0  0  0  0  0  0  0  0  0  0
   45.6620   33.7170   43.9770 N   0  0  0  0  0  0  0  0  0  0  0  0
   45.4240   33.9260   45.2820 C   0  0  0  0  0  0  0  0  0  0  0  0
   44.8210   35.0620   45.7000 N   0  0  0  0  0  0  0  0  0  0  0  0
   43.9750   36.9300   45.0180 H   0  0  0  0  0  0  0  0  0  0  0  0
   44.4040   36.5550   42.6800 H   0  0  0  0  0  0  0  0  0  0  0  0
   45.6920   33.2150   46.0500 H   0  0  0  0  0  0  0  0  0  0  0  0
  1 13  1  0  0  0  0
  2  3  1  0  0  0  0
  2 11  1  1  0  0  0
  2  1  1  0  0  0  0
  4  3  1  0  0  0  0
  5  6  2  0  0  0  0
  5  4  1  0  0  0  0
  7  5  1  0  0  0  0
  8  7  1  0  0  0  0
  9  7  1  6  0  0  0
  9 10  1  0  0  0  0
  9  4  1  0  0  0  0
 10  2  1  0  0  0  0
 12 11  1  0  0  0  0
 13 16  1  0  0  0  0
 14 20  1  0  0  0  0
 14 19  1  0  0  0  0
 15 14  2  0  0  0  0
 16 15  1  0  0  0  0
 16 17  2  0  0  0  0
 17 18  1  0  0  0  0
 18 19  2  0  0  0  0
 18 22  1  0  0  0  0
 21 15  1  0  0  0  0
M  END
>  <minimizedAffinity>
-4.03610611

>  <minimizedRMSD>
1.21837604

$$$$
