
 OpenBabel03242511163D

 22 24  0  0  1  0  0  0  0  0999 V2000
   48.0100   33.3050   41.7380 C   0  0  0  0  0  2  0  0  0  0  0  0
   48.2270   32.8990   40.3010 C   0  0  1  0  0  0  0  0  0  0  0  0
   49.5470   32.2170   40.0860 C   0  0  0  0  0  2  0  0  0  0  0  0
   49.3530   30.8010   40.3450 N   0  0  0  0  0  0  0  0  0  0  0  0
   49.3650   29.4560   40.8190 C   0  0  0  0  0  0  0  0  0  0  0  0
   50.0940   28.8380   41.6450 O   0  0  0  0  0  0  0  0  0  0  0  0
   48.2090   29.0240   39.9930 C   0  0  0  0  0  3  0  0  0  0  0  0
   48.4570   28.2110   39.2520 H   0  0  0  0  0  0  0  0  0  0  0  0
   48.3630   30.3530   39.3520 C   0  0  1  0  0  3  0  0  0  0  0  0
   47.0750   31.5930   39.7840 S   0  0  0  0  0  0  0  0  0  0  0  0
   48.0990   34.0390   39.3460 C   0  0  0  0  0  2  0  0  0  0  0  0
   48.3120   33.6010   38.3270 H   0  0  0  0  0  0  0  0  0  0  0  0
   46.9390   34.7600   41.7410 S   0  0  0  0  0  0  0  0  0  0  0  0
   44.4870   35.9420   44.7650 C   0  0  0  0  0  0  0  0  0  0  0  0
   45.1550   35.9120   43.5200 C   0  0  0  0  0  0  0  0  0  0  0  0
   46.0620   34.8490   43.3030 C   0  0  0  0  0  0  0  0  0  0  0  0
   46.2350   33.9360   44.2890 N   0  0  0  0  0  0  0  0  0  0  0  0
   45.5800   34.0030   45.4590 C   0  0  0  0  0  0  0  0  0  0  0  0
   44.7040   35.0040   45.7020 N   0  0  0  0  0  0  0  0  0  0  0  0
   43.8170   36.7800   44.8480 H   0  0  0  0  0  0  0  0  0  0  0  0
   44.9930   36.6590   42.7530 H   0  0  0  0  0  0  0  0  0  0  0  0
   45.7110   33.2790   46.2500 H   0  0  0  0  0  0  0  0  0  0  0  0
  1 13  1  0  0  0  0
  2 11  1  6  0  0  0
  2  1  1  0  0  0  0
  3  2  1  0  0  0  0
  3  4  1  0  0  0  0
  4  5  1  0  0  0  0
  5  6  2  0  0  0  0
  7  5  1  0  0  0  0
  8  7  1  0  0  0  0
  9 10  1  1  0  0  0
  9  7  1  0  0  0  0
  9  4  1  0  0  0  0
 10  2  1  0  0  0  0
 12 11  1  0  0  0  0
 13 16  1  0  0  0  0
 14 20  1  0  0  0  0
 14 19  1  0  0  0  0
 15 14  2  0  0  0  0
 16 15  1  0  0  0  0
 16 17  2  0  0  0  0
 17 18  1  0  0  0  0
 18 19  2  0  0  0  0
 18 22  1  0  0  0  0
 21 15  1  0  0  0  0
M  END
>  <minimizedAffinity>
-3.70415545

>  <minimizedRMSD>
1.06762373

$$$$
