
 OpenBabel03252506333D

 36 39  0  0  1  0  0  0  0  0999 V2000
   44.4020   35.7680   45.0160 C   0  0  0  0  0  0  0  0  0  0  0  0
   45.0870   35.8070   43.7720 C   0  0  0  0  0  0  0  0  0  0  0  0
   46.0520   34.8710   43.5120 C   0  0  0  0  0  0  0  0  0  0  0  0
   46.2790   33.9630   44.4890 N   0  0  0  0  0  0  0  0  0  0  0  0
   45.6450   33.9190   45.6510 C   0  0  0  0  0  0  0  0  0  0  0  0
   44.6950   34.8210   45.9380 N   0  0  0  0  0  0  0  0  0  0  0  0
   46.0000   32.9020   46.5690 N   0  0  0  0  0  0  0  0  0  0  0  0
   45.1870   32.5270   47.7350 C   0  0  0  0  0  0  0  0  0  0  0  0
   46.2500   32.2290   48.7650 C   0  0  0  0  0  0  0  0  0  0  0  0
   47.5650   32.1920   48.0460 C   0  0  0  0  0  0  0  0  0  0  0  0
   47.1580   32.0380   46.5940 C   0  0  1  0  0  0  0  0  0  0  0  0
   43.6270   36.4680   45.3030 H   0  0  0  0  0  0  0  0  0  0  0  0
   46.5450   34.9280   42.5730 H   0  0  0  0  0  0  0  0  0  0  0  0
   44.5610   31.6490   47.4720 H   0  0  0  0  0  0  0  0  0  0  0  0
   44.5750   33.3900   48.0390 H   0  0  0  0  0  0  0  0  0  0  0  0
   46.2320   33.0100   49.5550 H   0  0  0  0  0  0  0  0  0  0  0  0
   46.0110   31.2150   49.1790 H   0  0  0  0  0  0  0  0  0  0  0  0
   48.1340   31.2860   48.3200 H   0  0  0  0  0  0  0  0  0  0  0  0
   48.1640   33.1190   48.1890 H   0  0  0  0  0  0  0  0  0  0  0  0
   47.9490   32.3960   45.9040 H   0  0  0  0  0  0  0  0  0  0  0  0
   44.6780   36.8630   42.8880 N   0  0  0  0  0  0  0  0  0  0  0  0
   43.6500   37.0970   42.8160 H   0  0  0  0  0  0  0  0  0  0  0  0
   45.4660   37.3340   42.3660 H   0  0  0  0  0  0  0  0  0  0  0  0
   46.7130   30.3130   46.2970 S   0  0  0  0  0  0  0  0  0  0  0  0
   45.8540   30.2280   44.7020 C   0  0  0  0  0  2  0  0  0  0  0  0
   46.8070   29.9480   43.5680 C   0  0  2  0  0  0  0  0  0  0  0  0
   47.9840   30.8880   43.6730 C   0  0  0  0  0  2  0  0  0  0  0  0
   48.4130   31.1850   42.3240 N   0  0  0  0  0  0  0  0  0  0  0  0
   49.1160   31.3370   41.0950 C   0  0  0  0  0  0  0  0  0  0  0  0
   50.2980   31.2000   40.7070 O   0  0  0  0  0  0  0  0  0  0  0  0
   47.9100   31.7480   40.3330 C   0  0  0  0  0  3  0  0  0  0  0  0
   47.5040   31.0150   39.6260 H   0  0  0  0  0  0  0  0  0  0  0  0
   47.2720   31.8480   41.6740 C   0  0  1  0  0  3  0  0  0  0  0  0
   46.0120   30.5610   42.0420 S   0  0  0  0  0  0  0  0  0  0  0  0
   47.1990   28.5100   43.4770 C   0  0  0  0  0  2  0  0  0  0  0  0
   47.4350   28.1450   42.4700 H   0  0  0  0  0  0  0  0  0  0  0  0
  1 12  1  0  0  0  0
  1  6  1  0  0  0  0
  2  1  2  0  0  0  0
  3  2  1  0  0  0  0
  3  4  2  0  0  0  0
  4  5  1  0  0  0  0
  5  6  2  0  0  0  0
  5  7  1  0  0  0  0
  7 11  1  0  0  0  0
  7  8  1  0  0  0  0
  8 15  1  0  0  0  0
  8  9  1  0  0  0  0
  9 17  1  0  0  0  0
  9 16  1  0  0  0  0
 10 19  1  0  0  0  0
 10 18  1  0  0  0  0
 10  9  1  0  0  0  0
 11 20  1  6  0  0  0
 11 10  1  0  0  0  0
 13  3  1  0  0  0  0
 14  8  1  0  0  0  0
 21  2  1  0  0  0  0
 22 21  1  0  0  0  0
 23 21  1  0  0  0  0
 24 11  1  0  0  0  0
 25 24  1  0  0  0  0
 26 35  1  6  0  0  0
 26 27  1  0  0  0  0
 26 25  1  0  0  0  0
 28 27  1  0  0  0  0
 29 28  1  0  0  0  0
 30 29  2  0  0  0  0
 31 29  1  0  0  0  0
 32 31  1  0  0  0  0
 33 31  1  6  0  0  0
 33 34  1  0  0  0  0
 33 28  1  0  0  0  0
 34 26  1  0  0  0  0
 36 35  1  0  0  0  0
M  END
>  <minimizedAffinity>
-5.12473392

>  <minimizedRMSD>
0.448062301

$$$$
