
 OpenBabel03252506333D

 36 39  0  0  1  0  0  0  0  0999 V2000
   44.5510   35.8400   45.0000 C   0  0  0  0  0  0  0  0  0  0  0  0
   44.9340   35.6110   43.6520 C   0  0  0  0  0  0  0  0  0  0  0  0
   45.5850   34.4490   43.3310 C   0  0  0  0  0  0  0  0  0  0  0  0
   45.8150   33.5940   44.3550 N   0  0  0  0  0  0  0  0  0  0  0  0
   45.4600   33.8000   45.6140 C   0  0  0  0  0  0  0  0  0  0  0  0
   44.8230   34.9270   45.9620 N   0  0  0  0  0  0  0  0  0  0  0  0
   45.7740   32.8030   46.5690 N   0  0  0  0  0  0  0  0  0  0  0  0
   45.1760   32.7330   47.9110 C   0  0  0  0  0  0  0  0  0  0  0  0
   46.3480   32.2670   48.7420 C   0  0  0  0  0  0  0  0  0  0  0  0
   47.4280   31.8520   47.7900 C   0  0  0  0  0  0  0  0  0  0  0  0
   46.6870   31.6870   46.4790 C   0  0  1  0  0  0  0  0  0  0  0  0
   44.0350   36.7290   45.3410 H   0  0  0  0  0  0  0  0  0  0  0  0
   45.8580   34.3080   42.3150 H   0  0  0  0  0  0  0  0  0  0  0  0
   44.3290   32.0170   47.8920 H   0  0  0  0  0  0  0  0  0  0  0  0
   44.8540   33.7410   48.2140 H   0  0  0  0  0  0  0  0  0  0  0  0
   46.6790   33.0890   49.4120 H   0  0  0  0  0  0  0  0  0  0  0  0
   45.9870   31.3790   49.3230 H   0  0  0  0  0  0  0  0  0  0  0  0
   47.8280   30.8590   48.0630 H   0  0  0  0  0  0  0  0  0  0  0  0
   48.2360   32.6120   47.6910 H   0  0  0  0  0  0  0  0  0  0  0  0
   47.3650   31.7840   45.6060 H   0  0  0  0  0  0  0  0  0  0  0  0
   44.5850   36.6610   42.7360 N   0  0  0  0  0  0  0  0  0  0  0  0
   43.6460   37.1330   42.8370 H   0  0  0  0  0  0  0  0  0  0  0  0
   45.3230   36.8800   42.0130 H   0  0  0  0  0  0  0  0  0  0  0  0
   45.8140   30.1050   46.5010 S   0  0  0  0  0  0  0  0  0  0  0  0
   47.0270   28.7960   46.1850 C   0  0  0  0  0  2  0  0  0  0  0  0
   47.4020   28.7200   44.7250 C   0  0  2  0  0  0  0  0  0  0  0  0
   46.1990   28.2680   43.9350 C   0  0  0  0  0  2  0  0  0  0  0  0
   46.6900   27.4750   42.8290 N   0  0  0  0  0  0  0  0  0  0  0  0
   47.0320   26.9310   41.5590 C   0  0  0  0  0  0  0  0  0  0  0  0
   46.7190   27.1490   40.3670 O   0  0  0  0  0  0  0  0  0  0  0  0
   47.9650   25.9230   42.1240 C   0  0  0  0  0  3  0  0  0  0  0  0
   49.0350   26.1020   41.9640 H   0  0  0  0  0  0  0  0  0  0  0  0
   47.3810   26.3250   43.4330 C   0  0  1  0  0  3  0  0  0  0  0  0
   48.5040   27.2770   44.5340 S   0  0  0  0  0  0  0  0  0  0  0  0
   48.0110   29.9850   44.2150 C   0  0  0  0  0  2  0  0  0  0  0  0
   48.7350   29.8660   43.4000 H   0  0  0  0  0  0  0  0  0  0  0  0
  1 12  1  0  0  0  0
  1  6  1  0  0  0  0
  2  1  2  0  0  0  0
  3  2  1  0  0  0  0
  3  4  2  0  0  0  0
  4  5  1  0  0  0  0
  5  6  2  0  0  0  0
  5  7  1  0  0  0  0
  7  8  1  0  0  0  0
  8 15  1  0  0  0  0
  8  9  1  0  0  0  0
  9 17  1  0  0  0  0
  9 16  1  0  0  0  0
 10 18  1  0  0  0  0
 10  9  1  0  0  0  0
 11 20  1  6  0  0  0
 11 24  1  0  0  0  0
 11  7  1  0  0  0  0
 11 10  1  0  0  0  0
 13  3  1  0  0  0  0
 14  8  1  0  0  0  0
 19 10  1  0  0  0  0
 21 22  1  0  0  0  0
 21  2  1  0  0  0  0
 23 21  1  0  0  0  0
 25 24  1  0  0  0  0
 26 35  1  6  0  0  0
 26 25  1  0  0  0  0
 27 26  1  0  0  0  0
 28 33  1  0  0  0  0
 28 27  1  0  0  0  0
 29 31  1  0  0  0  0
 29 28  1  0  0  0  0
 30 29  2  0  0  0  0
 32 31  1  0  0  0  0
 33 31  1  6  0  0  0
 33 34  1  0  0  0  0
 34 26  1  0  0  0  0
 36 35  1  0  0  0  0
M  END
>  <minimizedAffinity>
-4.34985495

>  <minimizedRMSD>
4.15695524

$$$$
