
 OpenBabel03252506343D

 36 39  0  0  1  0  0  0  0  0999 V2000
   44.4810   35.7110   45.0140 C   0  0  0  0  0  0  0  0  0  0  0  0
   45.1330   35.6560   43.7540 C   0  0  0  0  0  0  0  0  0  0  0  0
   46.0380   34.6570   43.5140 C   0  0  0  0  0  0  0  0  0  0  0  0
   46.2430   33.7820   44.5260 N   0  0  0  0  0  0  0  0  0  0  0  0
   45.6390   33.8260   45.7040 C   0  0  0  0  0  0  0  0  0  0  0  0
   44.7470   34.7910   45.9720 N   0  0  0  0  0  0  0  0  0  0  0  0
   45.9630   32.8330   46.6590 N   0  0  0  0  0  0  0  0  0  0  0  0
   45.1620   32.5560   47.8610 C   0  0  0  0  0  0  0  0  0  0  0  0
   46.2350   32.2470   48.8770 C   0  0  0  0  0  0  0  0  0  0  0  0
   47.5260   32.1050   48.1290 C   0  0  0  0  0  0  0  0  0  0  0  0
   47.0730   31.9080   46.6960 C   0  0  1  0  0  0  0  0  0  0  0  0
   43.7530   36.4640   45.2890 H   0  0  0  0  0  0  0  0  0  0  0  0
   46.5080   34.6440   42.5620 H   0  0  0  0  0  0  0  0  0  0  0  0
   44.4830   31.7030   47.6550 H   0  0  0  0  0  0  0  0  0  0  0  0
   44.6060   33.4640   48.1390 H   0  0  0  0  0  0  0  0  0  0  0  0
   46.2810   33.0620   49.6310 H   0  0  0  0  0  0  0  0  0  0  0  0
   45.9530   31.2670   49.3440 H   0  0  0  0  0  0  0  0  0  0  0  0
   48.0530   31.1820   48.4310 H   0  0  0  0  0  0  0  0  0  0  0  0
   48.1780   33.0030   48.2140 H   0  0  0  0  0  0  0  0  0  0  0  0
   47.8630   32.1910   45.9710 H   0  0  0  0  0  0  0  0  0  0  0  0
   44.7580   36.6920   42.8330 N   0  0  0  0  0  0  0  0  0  0  0  0
   43.7430   36.9790   42.7750 H   0  0  0  0  0  0  0  0  0  0  0  0
   45.5560   37.0940   42.2700 H   0  0  0  0  0  0  0  0  0  0  0  0
   46.5270   30.1990   46.4900 S   0  0  0  0  0  0  0  0  0  0  0  0
   45.4640   30.1280   45.0230 C   0  0  0  0  0  2  0  0  0  0  0  0
   45.6920   28.8690   44.2260 C   0  0  2  0  0  0  0  0  0  0  0  0
   47.0830   28.9050   43.6390 C   0  0  0  0  0  2  0  0  0  0  0  0
   47.0240   28.2290   42.3620 N   0  0  0  0  0  0  0  0  0  0  0  0
   47.1800   27.3590   41.2470 C   0  0  0  0  0  0  0  0  0  0  0  0
   47.9500   26.4220   40.9320 O   0  0  0  0  0  0  0  0  0  0  0  0
   46.0470   27.9480   40.4920 C   0  0  0  0  0  3  0  0  0  0  0  0
   45.1370   27.3380   40.4180 H   0  0  0  0  0  0  0  0  0  0  0  0
   46.0880   29.0080   41.5360 C   0  0  1  0  0  3  0  0  0  0  0  0
   44.6760   29.0050   42.7130 S   0  0  0  0  0  0  0  0  0  0  0  0
   45.4050   27.6270   45.0050 C   0  0  0  0  0  2  0  0  0  0  0  0
   45.0570   26.7690   44.4170 H   0  0  0  0  0  0  0  0  0  0  0  0
  1 12  1  0  0  0  0
  1  6  1  0  0  0  0
  2  1  2  0  0  0  0
  3  2  1  0  0  0  0
  3  4  2  0  0  0  0
  4  5  1  0  0  0  0
  5  6  2  0  0  0  0
  5  7  1  0  0  0  0
  7 11  1  0  0  0  0
  7  8  1  0  0  0  0
  8 15  1  0  0  0  0
  8  9  1  0  0  0  0
  9 17  1  0  0  0  0
  9 16  1  0  0  0  0
 10 19  1  0  0  0  0
 10 18  1  0  0  0  0
 10  9  1  0  0  0  0
 11 20  1  6  0  0  0
 11 10  1  0  0  0  0
 13  3  1  0  0  0  0
 14  8  1  0  0  0  0
 21  2  1  0  0  0  0
 22 21  1  0  0  0  0
 23 21  1  0  0  0  0
 24 11  1  0  0  0  0
 25 24  1  0  0  0  0
 26 35  1  1  0  0  0
 26 25  1  0  0  0  0
 27 26  1  0  0  0  0
 28 27  1  0  0  0  0
 29 28  1  0  0  0  0
 30 29  2  0  0  0  0
 31 29  1  0  0  0  0
 32 31  1  0  0  0  0
 33 31  1  6  0  0  0
 33 28  1  0  0  0  0
 33 34  1  0  0  0  0
 34 26  1  0  0  0  0
 36 35  1  0  0  0  0
M  END
>  <minimizedAffinity>
-4.58566952

>  <minimizedRMSD>
0.637209654

$$$$
