
 OpenBabel03252506333D

 36 39  0  0  1  0  0  0  0  0999 V2000
   44.5120   35.5400   45.1040 C   0  0  0  0  0  0  0  0  0  0  0  0
   45.1970   35.4930   43.8610 C   0  0  0  0  0  0  0  0  0  0  0  0
   46.1260   34.5100   43.6470 C   0  0  0  0  0  0  0  0  0  0  0  0
   46.3190   33.6410   44.6670 N   0  0  0  0  0  0  0  0  0  0  0  0
   45.6850   33.6780   45.8290 C   0  0  0  0  0  0  0  0  0  0  0  0
   44.7700   34.6270   46.0710 N   0  0  0  0  0  0  0  0  0  0  0  0
   46.0020   32.6930   46.7950 N   0  0  0  0  0  0  0  0  0  0  0  0
   45.1750   32.4050   47.9770 C   0  0  0  0  0  0  0  0  0  0  0  0
   46.2270   32.1180   49.0220 C   0  0  0  0  0  0  0  0  0  0  0  0
   47.5390   31.9970   48.3070 C   0  0  0  0  0  0  0  0  0  0  0  0
   47.1260   31.7880   46.8640 C   0  0  1  0  0  0  0  0  0  0  0  0
   43.7640   36.2810   45.3570 H   0  0  0  0  0  0  0  0  0  0  0  0
   46.6200   34.5020   42.7080 H   0  0  0  0  0  0  0  0  0  0  0  0
   44.5170   31.5400   47.7560 H   0  0  0  0  0  0  0  0  0  0  0  0
   44.5960   33.3040   48.2380 H   0  0  0  0  0  0  0  0  0  0  0  0
   46.2380   32.9360   49.7740 H   0  0  0  0  0  0  0  0  0  0  0  0
   45.9500   31.1350   49.4840 H   0  0  0  0  0  0  0  0  0  0  0  0
   48.0740   31.0840   48.6250 H   0  0  0  0  0  0  0  0  0  0  0  0
   48.1730   32.9060   48.4060 H   0  0  0  0  0  0  0  0  0  0  0  0
   47.9300   32.0830   46.1580 H   0  0  0  0  0  0  0  0  0  0  0  0
   44.8270   36.5190   42.9270 N   0  0  0  0  0  0  0  0  0  0  0  0
   43.8090   36.7880   42.8420 H   0  0  0  0  0  0  0  0  0  0  0  0
   45.6320   36.9350   42.3840 H   0  0  0  0  0  0  0  0  0  0  0  0
   46.6160   30.0690   46.6490 S   0  0  0  0  0  0  0  0  0  0  0  0
   46.4170   29.7660   44.8730 C   0  0  0  0  0  0  0  0  0  0  0  0
   45.0300   29.2770   44.5400 C   0  0  2  0  0  0  0  0  0  0  0  0
   44.2130   29.2250   45.8070 C   0  0  0  0  0  0  0  0  0  0  0  0
   43.2970   28.1120   45.6790 N   0  0  0  0  0  0  0  0  0  0  0  0
   42.1680   27.2520   45.5780 C   0  0  0  0  0  0  0  0  0  0  0  0
   40.9320   27.3570   45.7480 O   0  0  0  0  0  0  0  0  0  0  0  0
   42.9710   26.0710   45.1680 C   0  0  0  0  0  0  0  0  0  0  0  0
   42.8840   25.7590   44.1200 H   0  0  0  0  0  0  0  0  0  0  0  0
   44.1380   26.9110   45.5500 C   0  0  1  0  0  0  0  0  0  0  0  0
   45.1730   27.4990   44.1480 S   0  0  0  0  0  0  0  0  0  0  0  0
   44.3840   30.0600   43.4440 C   0  0  0  0  0  0  0  0  0  0  0  0
   43.6680   29.5050   42.8250 H   0  0  0  0  0  0  0  0  0  0  0  0
  1 12  1  0  0  0  0
  1  6  1  0  0  0  0
  2  1  2  0  0  0  0
  3  2  1  0  0  0  0
  3  4  2  0  0  0  0
  4  5  1  0  0  0  0
  5  6  2  0  0  0  0
  5  7  1  0  0  0  0
  7 11  1  0  0  0  0
  7  8  1  0  0  0  0
  8 15  1  0  0  0  0
  8  9  1  0  0  0  0
  9 17  1  0  0  0  0
  9 16  1  0  0  0  0
 10 19  1  0  0  0  0
 10 18  1  0  0  0  0
 10  9  1  0  0  0  0
 11 20  1  6  0  0  0
 11 10  1  0  0  0  0
 13  3  1  0  0  0  0
 14  8  1  0  0  0  0
 21  2  1  0  0  0  0
 22 21  1  0  0  0  0
 23 21  1  0  0  0  0
 24 11  1  0  0  0  0
 25 24  1  0  0  0  0
 26 35  1  6  0  0  0
 26 25  1  0  0  0  0
 26 27  1  0  0  0  0
 28 27  1  0  0  0  0
 29 28  1  0  0  0  0
 29 30  2  0  0  0  0
 31 33  1  0  0  0  0
 31 29  1  0  0  0  0
 32 31  1  0  0  0  0
 33 34  1  6  0  0  0
 33 28  1  0  0  0  0
 34 26  1  0  0  0  0
 36 35  1  0  0  0  0
M  END
>  <minimizedAffinity>
-5.24340534

>  <minimizedRMSD>
2.39107633

$$$$
