
 OpenBabel03252506353D

 36 39  0  0  1  0  0  0  0  0999 V2000
   41.1260   32.6290   36.9390 C   0  0  0  0  0  0  0  0  0  0  0  0
   41.9730   33.4650   37.7150 C   0  0  0  0  0  0  0  0  0  0  0  0
   41.7740   33.5470   39.0670 C   0  0  0  0  0  0  0  0  0  0  0  0
   40.7590   32.8040   39.5650 N   0  0  0  0  0  0  0  0  0  0  0  0
   39.9650   32.0210   38.8500 C   0  0  0  0  0  0  0  0  0  0  0  0
   40.1320   31.9190   37.5240 N   0  0  0  0  0  0  0  0  0  0  0  0
   38.9470   31.3060   39.5240 N   0  0  0  0  0  0  0  0  0  0  0  0
   38.2120   30.1740   38.9380 C   0  0  0  0  0  0  0  0  0  0  0  0
   36.8230   30.3970   39.4880 C   0  0  0  0  0  0  0  0  0  0  0  0
   36.9280   31.4570   40.5410 C   0  0  0  0  0  0  0  0  0  0  0  0
   38.4100   31.4860   40.8540 C   0  0  1  0  0  0  0  0  0  0  0  0
   41.2130   32.5060   35.8670 H   0  0  0  0  0  0  0  0  0  0  0  0
   42.4240   34.1810   39.6180 H   0  0  0  0  0  0  0  0  0  0  0  0
   38.6790   29.2260   39.2760 H   0  0  0  0  0  0  0  0  0  0  0  0
   38.2220   30.2680   37.8420 H   0  0  0  0  0  0  0  0  0  0  0  0
   36.1400   30.6970   38.6640 H   0  0  0  0  0  0  0  0  0  0  0  0
   36.5090   29.4260   39.9520 H   0  0  0  0  0  0  0  0  0  0  0  0
   36.4090   31.1430   41.4650 H   0  0  0  0  0  0  0  0  0  0  0  0
   36.5820   32.4550   40.1890 H   0  0  0  0  0  0  0  0  0  0  0  0
   38.7220   32.4570   41.2900 H   0  0  0  0  0  0  0  0  0  0  0  0
   42.9840   34.1610   36.9690 N   0  0  0  0  0  0  0  0  0  0  0  0
   43.4860   33.6500   36.1920 H   0  0  0  0  0  0  0  0  0  0  0  0
   43.1480   35.1600   37.2700 H   0  0  0  0  0  0  0  0  0  0  0  0
   38.8040   30.0890   41.9290 S   0  0  0  0  0  0  0  0  0  0  0  0
   37.2410   29.3830   42.5180 C   0  0  0  0  0  2  0  0  0  0  0  0
   37.3520   27.8980   42.7540 C   0  0  2  0  0  0  0  0  0  0  0  0
   38.7590   27.5760   43.1940 C   0  0  0  0  0  2  0  0  0  0  0  0
   39.0800   26.2660   42.6700 N   0  0  0  0  0  0  0  0  0  0  0  0
   39.4270   24.9000   42.4720 C   0  0  0  0  0  0  0  0  0  0  0  0
   39.8570   23.9640   43.1830 O   0  0  0  0  0  0  0  0  0  0  0  0
   39.0920   24.9150   41.0250 C   0  0  0  0  0  3  0  0  0  0  0  0
   38.1800   24.3820   40.7280 H   0  0  0  0  0  0  0  0  0  0  0  0
   39.0070   26.3890   41.2050 C   0  0  1  0  0  3  0  0  0  0  0  0
   37.3120   27.0950   41.1130 S   0  0  0  0  0  0  0  0  0  0  0  0
   36.3020   27.3750   43.6790 C   0  0  0  0  0  2  0  0  0  0  0  0
   35.9960   26.3360   43.5080 H   0  0  0  0  0  0  0  0  0  0  0  0
  1  6  2  0  0  0  0
  1  2  1  0  0  0  0
  2  3  2  0  0  0  0
  3  4  1  0  0  0  0
  3 13  1  0  0  0  0
  5  7  1  0  0  0  0
  5  4  2  0  0  0  0
  6  5  1  0  0  0  0
  7 11  1  0  0  0  0
  8 14  1  0  0  0  0
  8  9  1  0  0  0  0
  8  7  1  0  0  0  0
  9 17  1  0  0  0  0
  9 10  1  0  0  0  0
 10 11  1  0  0  0  0
 10 18  1  0  0  0  0
 11 20  1  1  0  0  0
 11 24  1  0  0  0  0
 12  1  1  0  0  0  0
 15  8  1  0  0  0  0
 16  9  1  0  0  0  0
 19 10  1  0  0  0  0
 21 23  1  0  0  0  0
 21  2  1  0  0  0  0
 22 21  1  0  0  0  0
 24 25  1  0  0  0  0
 26 25  1  6  0  0  0
 26 27  1  0  0  0  0
 26 35  1  0  0  0  0
 28 27  1  0  0  0  0
 29 28  1  0  0  0  0
 29 30  2  0  0  0  0
 31 29  1  0  0  0  0
 32 31  1  0  0  0  0
 33 31  1  6  0  0  0
 33 28  1  0  0  0  0
 34 33  1  0  0  0  0
 34 26  1  0  0  0  0
 36 35  1  0  0  0  0
M  END
>  <minimizedAffinity>
-5.96875238

$$$$

 OpenBabel03252506353D

 36 39  0  0  1  0  0  0  0  0999 V2000
   42.6110   33.2830   37.3190 C   0  0  0  0  0  0  0  0  0  0  0  0
   43.4050   33.7580   38.3960 C   0  0  0  0  0  0  0  0  0  0  0  0
   42.8680   33.7960   39.6550 C   0  0  0  0  0  0  0  0  0  0  0  0
   41.5890   33.3670   39.7710 N   0  0  0  0  0  0  0  0  0  0  0  0
   40.8420   32.9220   38.7710 C   0  0  0  0  0  0  0  0  0  0  0  0
   41.3370   32.8720   37.5270 N   0  0  0  0  0  0  0  0  0  0  0  0
   39.5190   32.5080   39.0590 N   0  0  0  0  0  0  0  0  0  0  0  0
   38.6930   31.7040   38.1440 C   0  0  0  0  0  0  0  0  0  0  0  0
   37.3250   32.3030   38.3660 C   0  0  0  0  0  0  0  0  0  0  0  0
   37.4220   33.1980   39.5640 C   0  0  0  0  0  0  0  0  0  0  0  0
   38.7060   32.7460   40.2290 C   0  0  1  0  0  0  0  0  0  0  0  0
   42.9550   33.2190   36.2940 H   0  0  0  0  0  0  0  0  0  0  0  0
   43.4870   34.1560   40.4390 H   0  0  0  0  0  0  0  0  0  0  0  0
   38.7660   30.6360   38.4360 H   0  0  0  0  0  0  0  0  0  0  0  0
   39.0340   31.8710   37.1110 H   0  0  0  0  0  0  0  0  0  0  0  0
   37.0100   32.8590   37.4570 H   0  0  0  0  0  0  0  0  0  0  0  0
   36.6380   31.4440   38.5840 H   0  0  0  0  0  0  0  0  0  0  0  0
   36.6000   32.9920   40.2730 H   0  0  0  0  0  0  0  0  0  0  0  0
   37.4780   34.2770   39.2950 H   0  0  0  0  0  0  0  0  0  0  0  0
   39.1390   33.5380   40.8720 H   0  0  0  0  0  0  0  0  0  0  0  0
   44.7350   34.1610   38.0360 N   0  0  0  0  0  0  0  0  0  0  0  0
   45.2720   33.5800   37.3360 H   0  0  0  0  0  0  0  0  0  0  0  0
   45.0790   35.0360   38.5180 H   0  0  0  0  0  0  0  0  0  0  0  0
   38.3810   31.2190   41.1390 S   0  0  0  0  0  0  0  0  0  0  0  0
   39.9580   30.3500   41.3470 C   0  0  0  0  0  2  0  0  0  0  0  0
   39.7760   29.0150   42.0250 C   0  0  2  0  0  0  0  0  0  0  0  0
   39.3260   28.0030   41.0010 C   0  0  0  0  0  2  0  0  0  0  0  0
   38.4450   27.0750   41.6760 N   0  0  0  0  0  0  0  0  0  0  0  0
   37.8070   25.9430   42.2560 C   0  0  0  0  0  0  0  0  0  0  0  0
   37.9640   24.7010   42.2230 O   0  0  0  0  0  0  0  0  0  0  0  0
   36.7980   26.7510   42.9860 C   0  0  0  0  0  3  0  0  0  0  0  0
   36.9220   26.8220   44.0740 H   0  0  0  0  0  0  0  0  0  0  0  0
   37.3060   27.8750   42.1550 C   0  0  1  0  0  3  0  0  0  0  0  0
   38.2770   29.1460   43.0620 S   0  0  0  0  0  0  0  0  0  0  0  0
   40.9790   28.5870   42.8000 C   0  0  0  0  0  2  0  0  0  0  0  0
   40.7780   27.9580   43.6760 H   0  0  0  0  0  0  0  0  0  0  0  0
  1  6  2  0  0  0  0
  1  2  1  0  0  0  0
  2  3  2  0  0  0  0
  3  4  1  0  0  0  0
  3 13  1  0  0  0  0
  5  7  1  0  0  0  0
  5  4  2  0  0  0  0
  6  5  1  0  0  0  0
  7 11  1  0  0  0  0
  8  9  1  0  0  0  0
  8 14  1  0  0  0  0
  8  7  1  0  0  0  0
  9 17  1  0  0  0  0
  9 10  1  0  0  0  0
 10 11  1  0  0  0  0
 10 18  1  0  0  0  0
 11 20  1  1  0  0  0
 11 24  1  0  0  0  0
 12  1  1  0  0  0  0
 15  8  1  0  0  0  0
 16  9  1  0  0  0  0
 19 10  1  0  0  0  0
 21  2  1  0  0  0  0
 21 23  1  0  0  0  0
 22 21  1  0  0  0  0
 24 25  1  0  0  0  0
 26 25  1  6  0  0  0
 26 35  1  0  0  0  0
 26 34  1  0  0  0  0
 27 28  1  0  0  0  0
 27 26  1  0  0  0  0
 28 33  1  0  0  0  0
 28 29  1  0  0  0  0
 29 31  1  0  0  0  0
 30 29  2  0  0  0  0
 31 32  1  0  0  0  0
 33 31  1  1  0  0  0
 33 34  1  0  0  0  0
 35 36  1  0  0  0  0
M  END
>  <minimizedAffinity>
-5.65241814

$$$$

 OpenBabel03252506353D

 36 39  0  0  1  0  0  0  0  0999 V2000
   42.3540   33.1420   37.0250 C   0  0  0  0  0  0  0  0  0  0  0  0
   43.2550   33.6590   37.9930 C   0  0  0  0  0  0  0  0  0  0  0  0
   42.8950   33.6470   39.3140 C   0  0  0  0  0  0  0  0  0  0  0  0
   41.6770   33.1280   39.5940 N   0  0  0  0  0  0  0  0  0  0  0  0
   40.8310   32.6430   38.6980 C   0  0  0  0  0  0  0  0  0  0  0  0
   41.1520   32.6410   37.3960 N   0  0  0  0  0  0  0  0  0  0  0  0
   39.5920   32.1340   39.1550 N   0  0  0  0  0  0  0  0  0  0  0  0
   38.7040   31.2850   38.3470 C   0  0  0  0  0  0  0  0  0  0  0  0
   37.3410   31.7840   38.7650 C   0  0  0  0  0  0  0  0  0  0  0  0
   37.5420   32.6710   39.9560 C   0  0  0  0  0  0  0  0  0  0  0  0
   38.9330   32.3020   40.4300 C   0  0  1  0  0  0  0  0  0  0  0  0
   42.5570   33.1130   35.9610 H   0  0  0  0  0  0  0  0  0  0  0  0
   43.5910   34.0410   40.0120 H   0  0  0  0  0  0  0  0  0  0  0  0
   38.8880   30.2220   38.6040 H   0  0  0  0  0  0  0  0  0  0  0  0
   38.8870   31.4860   37.2800 H   0  0  0  0  0  0  0  0  0  0  0  0
   36.8670   32.3260   37.9190 H   0  0  0  0  0  0  0  0  0  0  0  0
   36.7510   30.8770   39.0580 H   0  0  0  0  0  0  0  0  0  0  0  0
   36.8420   32.4000   40.7670 H   0  0  0  0  0  0  0  0  0  0  0  0
   37.4870   33.7540   39.7050 H   0  0  0  0  0  0  0  0  0  0  0  0
   39.3960   33.1160   41.0240 H   0  0  0  0  0  0  0  0  0  0  0  0
   44.4920   34.1590   37.4620 N   0  0  0  0  0  0  0  0  0  0  0  0
   44.9660   33.6240   36.6830 H   0  0  0  0  0  0  0  0  0  0  0  0
   44.8390   35.0500   37.9100 H   0  0  0  0  0  0  0  0  0  0  0  0
   38.8410   30.7480   41.3450 S   0  0  0  0  0  0  0  0  0  0  0  0
   37.0940   30.4080   41.6910 C   0  0  0  0  0  2  0  0  0  0  0  0
   36.7140   28.9960   41.3200 C   0  0  2  0  0  0  0  0  0  0  0  0
   36.7120   28.1470   42.5680 C   0  0  0  0  0  2  0  0  0  0  0  0
   37.1360   26.8200   42.1810 N   0  0  0  0  0  0  0  0  0  0  0  0
   37.2550   25.4280   41.9070 C   0  0  0  0  0  0  0  0  0  0  0  0
   36.6050   24.3940   42.1800 O   0  0  0  0  0  0  0  0  0  0  0  0
   38.5060   25.5810   41.1220 C   0  0  0  0  0  3  0  0  0  0  0  0
   38.4220   25.4490   40.0360 H   0  0  0  0  0  0  0  0  0  0  0  0
   38.5020   26.9700   41.6540 C   0  0  1  0  0  3  0  0  0  0  0  0
   38.1350   28.2830   40.4200 S   0  0  0  0  0  0  0  0  0  0  0  0
   35.4410   28.9200   40.5440 C   0  0  0  0  0  2  0  0  0  0  0  0
   35.3670   28.0840   39.8370 H   0  0  0  0  0  0  0  0  0  0  0  0
  1  6  2  0  0  0  0
  1  2  1  0  0  0  0
  2  3  2  0  0  0  0
  3  4  1  0  0  0  0
  3 13  1  0  0  0  0
  5  7  1  0  0  0  0
  5  4  2  0  0  0  0
  6  5  1  0  0  0  0
  7 11  1  0  0  0  0
  8 14  1  0  0  0  0
  8  9  1  0  0  0  0
  8  7  1  0  0  0  0
  9 17  1  0  0  0  0
  9 10  1  0  0  0  0
 10 11  1  0  0  0  0
 10 18  1  0  0  0  0
 11 20  1  1  0  0  0
 11 24  1  0  0  0  0
 12  1  1  0  0  0  0
 15  8  1  0  0  0  0
 16  9  1  0  0  0  0
 19 10  1  0  0  0  0
 21 23  1  0  0  0  0
 21  2  1  0  0  0  0
 22 21  1  0  0  0  0
 24 25  1  0  0  0  0
 26 35  1  6  0  0  0
 26 25  1  0  0  0  0
 26 27  1  0  0  0  0
 28 27  1  0  0  0  0
 29 30  2  0  0  0  0
 29 28  1  0  0  0  0
 31 33  1  0  0  0  0
 31 29  1  0  0  0  0
 32 31  1  0  0  0  0
 33 34  1  6  0  0  0
 33 28  1  0  0  0  0
 34 26  1  0  0  0  0
 36 35  1  0  0  0  0
M  END
>  <minimizedAffinity>
-5.64197922

$$$$

 OpenBabel03252506353D

 36 39  0  0  1  0  0  0  0  0999 V2000
   37.1100   30.3190   36.5200 C   0  0  0  0  0  0  0  0  0  0  0  0
   37.6800   29.0350   36.3070 C   0  0  0  0  0  0  0  0  0  0  0  0
   38.4800   28.4910   37.2760 C   0  0  0  0  0  0  0  0  0  0  0  0
   38.6650   29.2420   38.3860 N   0  0  0  0  0  0  0  0  0  0  0  0
   38.1370   30.4390   38.5930 C   0  0  0  0  0  0  0  0  0  0  0  0
   37.3500   31.0010   37.6640 N   0  0  0  0  0  0  0  0  0  0  0  0
   38.4280   31.0970   39.8120 N   0  0  0  0  0  0  0  0  0  0  0  0
   37.6770   32.2550   40.3210 C   0  0  0  0  0  0  0  0  0  0  0  0
   38.7760   33.0800   40.9470 C   0  0  0  0  0  0  0  0  0  0  0  0
   40.0040   32.2210   40.9900 C   0  0  0  0  0  0  0  0  0  0  0  0
   39.4530   30.8230   40.7930 C   0  0  1  0  0  0  0  0  0  0  0  0
   36.4680   30.8230   35.8080 H   0  0  0  0  0  0  0  0  0  0  0  0
   38.8910   27.5310   37.0860 H   0  0  0  0  0  0  0  0  0  0  0  0
   36.9150   31.9020   41.0460 H   0  0  0  0  0  0  0  0  0  0  0  0
   37.2190   32.7870   39.4730 H   0  0  0  0  0  0  0  0  0  0  0  0
   38.9360   34.0020   40.3490 H   0  0  0  0  0  0  0  0  0  0  0  0
   38.4370   33.3160   41.9890 H   0  0  0  0  0  0  0  0  0  0  0  0
   40.4650   32.2490   41.9930 H   0  0  0  0  0  0  0  0  0  0  0  0
   40.7360   32.4710   40.1890 H   0  0  0  0  0  0  0  0  0  0  0  0
   40.2220   30.1290   40.3960 H   0  0  0  0  0  0  0  0  0  0  0  0
   37.3440   28.4250   35.0510 N   0  0  0  0  0  0  0  0  0  0  0  0
   36.3570   28.5170   34.6880 H   0  0  0  0  0  0  0  0  0  0  0  0
   38.1410   27.9160   34.5790 H   0  0  0  0  0  0  0  0  0  0  0  0
   38.7490   30.2520   42.3550 S   0  0  0  0  0  0  0  0  0  0  0  0
   37.2580   29.2940   41.9750 C   0  0  0  0  0  2  0  0  0  0  0  0
   37.3890   27.8570   42.4140 C   0  0  2  0  0  0  0  0  0  0  0  0
   38.8370   27.5730   42.7310 C   0  0  0  0  0  2  0  0  0  0  0  0
   39.0890   26.1940   42.3740 N   0  0  0  0  0  0  0  0  0  0  0  0
   39.4040   24.8070   42.3410 C   0  0  0  0  0  0  0  0  0  0  0  0
   39.9110   23.9750   43.1280 O   0  0  0  0  0  0  0  0  0  0  0  0
   38.9010   24.6160   40.9570 C   0  0  0  0  0  3  0  0  0  0  0  0
   37.9590   24.0650   40.8490 H   0  0  0  0  0  0  0  0  0  0  0  0
   38.8450   26.1020   40.9250 C   0  0  1  0  0  3  0  0  0  0  0  0
   37.1530   26.8230   40.9270 S   0  0  0  0  0  0  0  0  0  0  0  0
   36.4530   27.4980   43.5220 C   0  0  0  0  0  2  0  0  0  0  0  0
   36.1250   26.4520   43.5430 H   0  0  0  0  0  0  0  0  0  0  0  0
  1  6  1  0  0  0  0
  2  1  2  0  0  0  0
  2  3  1  0  0  0  0
  3  4  2  0  0  0  0
  4  5  1  0  0  0  0
  5  7  1  0  0  0  0
  6  5  2  0  0  0  0
  7  8  1  0  0  0  0
  7 11  1  0  0  0  0
  8  9  1  0  0  0  0
  8 14  1  0  0  0  0
  9 10  1  0  0  0  0
  9 17  1  0  0  0  0
 10 18  1  0  0  0  0
 11 20  1  6  0  0  0
 11 10  1  0  0  0  0
 11 24  1  0  0  0  0
 12  1  1  0  0  0  0
 13  3  1  0  0  0  0
 15  8  1  0  0  0  0
 16  9  1  0  0  0  0
 19 10  1  0  0  0  0
 21  2  1  0  0  0  0
 22 21  1  0  0  0  0
 23 21  1  0  0  0  0
 25 24  1  0  0  0  0
 26 25  1  6  0  0  0
 26 27  1  0  0  0  0
 26 35  1  0  0  0  0
 28 27  1  0  0  0  0
 29 28  1  0  0  0  0
 29 30  2  0  0  0  0
 31 29  1  0  0  0  0
 32 31  1  0  0  0  0
 33 34  1  1  0  0  0
 33 31  1  0  0  0  0
 33 28  1  0  0  0  0
 34 26  1  0  0  0  0
 35 36  1  0  0  0  0
M  END
>  <minimizedAffinity>
-5.42246485

$$$$

 OpenBabel03252506353D

 36 39  0  0  1  0  0  0  0  0999 V2000
   40.2800   32.6350   38.8010 C   0  0  0  0  0  0  0  0  0  0  0  0
   39.8930   31.7320   37.7750 C   0  0  0  0  0  0  0  0  0  0  0  0
   39.9620   30.3850   38.0100 C   0  0  0  0  0  0  0  0  0  0  0  0
   40.4070   30.0170   39.2350 N   0  0  0  0  0  0  0  0  0  0  0  0
   40.7690   30.8520   40.1970 C   0  0  0  0  0  0  0  0  0  0  0  0
   40.7140   32.1770   39.9990 N   0  0  0  0  0  0  0  0  0  0  0  0
   41.2120   30.3060   41.4250 N   0  0  0  0  0  0  0  0  0  0  0  0
   41.3350   31.0780   42.6710 C   0  0  0  0  0  0  0  0  0  0  0  0
   42.5810   30.4780   43.2790 C   0  0  0  0  0  0  0  0  0  0  0  0
   42.9130   29.2510   42.4860 C   0  0  0  0  0  0  0  0  0  0  0  0
   41.6230   28.9580   41.7470 C   0  0  1  0  0  0  0  0  0  0  0  0
   40.2570   33.7140   38.7000 H   0  0  0  0  0  0  0  0  0  0  0  0
   39.6660   29.7370   37.2240 H   0  0  0  0  0  0  0  0  0  0  0  0
   40.4220   30.9250   43.2820 H   0  0  0  0  0  0  0  0  0  0  0  0
   41.4890   32.1390   42.4230 H   0  0  0  0  0  0  0  0  0  0  0  0
   43.4040   31.2240   43.2520 H   0  0  0  0  0  0  0  0  0  0  0  0
   42.3130   30.1950   44.3290 H   0  0  0  0  0  0  0  0  0  0  0  0
   43.1040   28.3930   43.1560 H   0  0  0  0  0  0  0  0  0  0  0  0
   43.7490   29.4110   41.7680 H   0  0  0  0  0  0  0  0  0  0  0  0
   41.7990   28.3560   40.8320 H   0  0  0  0  0  0  0  0  0  0  0  0
   39.4540   32.3530   36.5570 N   0  0  0  0  0  0  0  0  0  0  0  0
   38.8480   33.2160   36.6140 H   0  0  0  0  0  0  0  0  0  0  0  0
   39.7840   31.8770   35.6730 H   0  0  0  0  0  0  0  0  0  0  0  0
   40.4700   28.1610   42.8860 S   0  0  0  0  0  0  0  0  0  0  0  0
   39.4830   26.9730   41.9370 C   0  0  0  0  0  2  0  0  0  0  0  0
   38.0270   27.3630   41.8940 C   0  0  2  0  0  0  0  0  0  0  0  0
   37.6110   27.5430   40.4550 C   0  0  0  0  0  2  0  0  0  0  0  0
   36.6180   28.5940   40.4260 N   0  0  0  0  0  0  0  0  0  0  0  0
   35.4480   29.3920   40.2800 C   0  0  0  0  0  0  0  0  0  0  0  0
   34.3260   29.2610   39.7410 O   0  0  0  0  0  0  0  0  0  0  0  0
   36.0080   30.5420   41.0340 C   0  0  0  0  0  3  0  0  0  0  0  0
   35.5990   30.7160   42.0370 H   0  0  0  0  0  0  0  0  0  0  0  0
   37.2940   29.8010   40.9270 C   0  0  1  0  0  3  0  0  0  0  0  0
   37.9190   29.0830   42.5000 S   0  0  0  0  0  0  0  0  0  0  0  0
   37.1500   26.4250   42.6570 C   0  0  0  0  0  2  0  0  0  0  0  0
   36.2470   26.8710   43.0920 H   0  0  0  0  0  0  0  0  0  0  0  0
  1  6  1  0  0  0  0
  2  3  1  0  0  0  0
  2  1  2  0  0  0  0
  3  4  2  0  0  0  0
  4  5  1  0  0  0  0
  5  7  1  0  0  0  0
  6  5  2  0  0  0  0
  7 11  1  0  0  0  0
  7  8  1  0  0  0  0
  8  9  1  0  0  0  0
  8 14  1  0  0  0  0
  9 17  1  0  0  0  0
 10 18  1  0  0  0  0
 10  9  1  0  0  0  0
 11 20  1  6  0  0  0
 11 10  1  0  0  0  0
 11 24  1  0  0  0  0
 12  1  1  0  0  0  0
 13  3  1  0  0  0  0
 15  8  1  0  0  0  0
 16  9  1  0  0  0  0
 19 10  1  0  0  0  0
 21 22  1  0  0  0  0
 21  2  1  0  0  0  0
 23 21  1  0  0  0  0
 25 24  1  0  0  0  0
 26 25  1  1  0  0  0
 26 34  1  0  0  0  0
 26 35  1  0  0  0  0
 27 26  1  0  0  0  0
 28 27  1  0  0  0  0
 28 33  1  0  0  0  0
 29 28  1  0  0  0  0
 29 31  1  0  0  0  0
 30 29  2  0  0  0  0
 31 32  1  0  0  0  0
 33 31  1  1  0  0  0
 33 34  1  0  0  0  0
 35 36  1  0  0  0  0
M  END
>  <minimizedAffinity>
-5.3606596

$$$$

 OpenBabel03252506353D

 36 39  0  0  1  0  0  0  0  0999 V2000
   41.9830   26.4040   41.7580 C   0  0  0  0  0  0  0  0  0  0  0  0
   41.8670   25.4550   40.7080 C   0  0  0  0  0  0  0  0  0  0  0  0
   40.6440   25.2460   40.1290 C   0  0  0  0  0  0  0  0  0  0  0  0
   39.6200   25.9830   40.6180 N   0  0  0  0  0  0  0  0  0  0  0  0
   39.7190   26.8710   41.5960 C   0  0  0  0  0  0  0  0  0  0  0  0
   40.9020   27.0990   42.1850 N   0  0  0  0  0  0  0  0  0  0  0  0
   38.5500   27.5620   41.9930 N   0  0  0  0  0  0  0  0  0  0  0  0
   38.5550   28.7810   42.8170 C   0  0  0  0  0  0  0  0  0  0  0  0
   37.3340   28.5710   43.6790 C   0  0  0  0  0  0  0  0  0  0  0  0
   36.5840   27.4050   43.1090 C   0  0  0  0  0  0  0  0  0  0  0  0
   37.1610   27.2740   41.7140 C   0  0  1  0  0  0  0  0  0  0  0  0
   42.9090   26.6310   42.2710 H   0  0  0  0  0  0  0  0  0  0  0  0
   40.5910   24.5300   39.3470 H   0  0  0  0  0  0  0  0  0  0  0  0
   38.4850   29.6660   42.1520 H   0  0  0  0  0  0  0  0  0  0  0  0
   39.4710   28.7980   43.4270 H   0  0  0  0  0  0  0  0  0  0  0  0
   37.6470   28.3880   44.7300 H   0  0  0  0  0  0  0  0  0  0  0  0
   36.7190   29.5040   43.5870 H   0  0  0  0  0  0  0  0  0  0  0  0
   35.5120   27.6490   42.9940 H   0  0  0  0  0  0  0  0  0  0  0  0
   36.7370   26.4660   43.6860 H   0  0  0  0  0  0  0  0  0  0  0  0
   37.0310   26.2500   41.3080 H   0  0  0  0  0  0  0  0  0  0  0  0
   43.0910   24.7910   40.3550 N   0  0  0  0  0  0  0  0  0  0  0  0
   43.9850   25.3520   40.3240 H   0  0  0  0  0  0  0  0  0  0  0  0
   42.9910   23.7600   40.1490 H   0  0  0  0  0  0  0  0  0  0  0  0
   36.4160   28.5350   40.6570 S   0  0  0  0  0  0  0  0  0  0  0  0
   37.3930   28.6310   39.1330 C   0  0  0  0  0  2  0  0  0  0  0  0
   37.7480   30.0550   38.7840 C   0  0  2  0  0  0  0  0  0  0  0  0
   39.1970   30.2960   39.1280 C   0  0  0  0  0  2  0  0  0  0  0  0
   39.3110   31.6750   39.5490 N   0  0  0  0  0  0  0  0  0  0  0  0
   39.6240   33.0550   39.7050 C   0  0  0  0  0  0  0  0  0  0  0  0
   40.4490   33.8570   39.2110 O   0  0  0  0  0  0  0  0  0  0  0  0
   38.5750   33.2860   40.7300 C   0  0  0  0  0  3  0  0  0  0  0  0
   37.6970   33.8630   40.4120 H   0  0  0  0  0  0  0  0  0  0  0  0
   38.4640   31.8030   40.7450 C   0  0  1  0  0  3  0  0  0  0  0  0
   36.9200   31.1250   40.0120 S   0  0  0  0  0  0  0  0  0  0  0  0
   37.3990   30.4140   37.3770 C   0  0  0  0  0  2  0  0  0  0  0  0
   37.1460   31.4670   37.2060 H   0  0  0  0  0  0  0  0  0  0  0  0
  1  6  1  0  0  0  0
  1 12  1  0  0  0  0
  2  1  2  0  0  0  0
  3  4  2  0  0  0  0
  3  2  1  0  0  0  0
  4  5  1  0  0  0  0
  5  7  1  0  0  0  0
  5  6  2  0  0  0  0
  7  8  1  0  0  0  0
  8 15  1  0  0  0  0
  8  9  1  0  0  0  0
  9 16  1  0  0  0  0
 10  9  1  0  0  0  0
 10 19  1  0  0  0  0
 11 20  1  6  0  0  0
 11  7  1  0  0  0  0
 11 10  1  0  0  0  0
 13  3  1  0  0  0  0
 14  8  1  0  0  0  0
 17  9  1  0  0  0  0
 18 10  1  0  0  0  0
 21  2  1  0  0  0  0
 22 21  1  0  0  0  0
 23 21  1  0  0  0  0
 24 11  1  0  0  0  0
 25 24  1  0  0  0  0
 26 35  1  6  0  0  0
 26 27  1  0  0  0  0
 26 25  1  0  0  0  0
 26 34  1  0  0  0  0
 27 28  1  0  0  0  0
 28 29  1  0  0  0  0
 28 33  1  0  0  0  0
 29 31  1  0  0  0  0
 30 29  2  0  0  0  0
 31 33  1  0  0  0  0
 32 31  1  0  0  0  0
 33 34  1  6  0  0  0
 36 35  1  0  0  0  0
M  END
>  <minimizedAffinity>
-5.26056099

$$$$

 OpenBabel03252506353D

 36 39  0  0  1  0  0  0  0  0999 V2000
   36.5680   29.0860   36.8150 C   0  0  0  0  0  0  0  0  0  0  0  0
   37.6580   28.2720   36.4060 C   0  0  0  0  0  0  0  0  0  0  0  0
   38.8930   28.4830   36.9580 C   0  0  0  0  0  0  0  0  0  0  0  0
   38.9740   29.4770   37.8740 N   0  0  0  0  0  0  0  0  0  0  0  0
   37.9630   30.2400   38.2620 C   0  0  0  0  0  0  0  0  0  0  0  0
   36.7410   30.0600   37.7400 N   0  0  0  0  0  0  0  0  0  0  0  0
   38.2130   31.2380   39.2330 N   0  0  0  0  0  0  0  0  0  0  0  0
   37.1590   31.9320   39.9890 C   0  0  0  0  0  0  0  0  0  0  0  0
   37.7190   33.3310   40.0790 C   0  0  0  0  0  0  0  0  0  0  0  0
   39.1440   33.2680   39.6170 C   0  0  0  0  0  0  0  0  0  0  0  0
   39.4660   31.7890   39.6960 C   0  0  1  0  0  0  0  0  0  0  0  0
   35.5600   28.9890   36.4300 H   0  0  0  0  0  0  0  0  0  0  0  0
   39.6870   27.8580   36.6310 H   0  0  0  0  0  0  0  0  0  0  0  0
   37.0340   31.4360   40.9730 H   0  0  0  0  0  0  0  0  0  0  0  0
   36.2280   31.9170   39.4020 H   0  0  0  0  0  0  0  0  0  0  0  0
   37.1100   34.0170   39.4520 H   0  0  0  0  0  0  0  0  0  0  0  0
   37.6800   33.6160   41.1630 H   0  0  0  0  0  0  0  0  0  0  0  0
   39.8100   33.7820   40.3330 H   0  0  0  0  0  0  0  0  0  0  0  0
   39.2800   33.6440   38.5790 H   0  0  0  0  0  0  0  0  0  0  0  0
   40.3050   31.5130   39.0260 H   0  0  0  0  0  0  0  0  0  0  0  0
   37.3350   27.2800   35.4190 N   0  0  0  0  0  0  0  0  0  0  0  0
   36.4220   26.7560   35.5030 H   0  0  0  0  0  0  0  0  0  0  0  0
   38.0640   27.1510   34.6660 H   0  0  0  0  0  0  0  0  0  0  0  0
   39.7890   31.3570   41.4200 S   0  0  0  0  0  0  0  0  0  0  0  0
   40.8150   29.8620   41.4360 C   0  0  0  0  0  2  0  0  0  0  0  0
   40.1320   28.7220   42.1480 C   0  0  2  0  0  0  0  0  0  0  0  0
   39.5170   27.8030   41.1230 C   0  0  0  0  0  2  0  0  0  0  0  0
   38.3080   27.2620   41.7050 N   0  0  0  0  0  0  0  0  0  0  0  0
   37.2740   26.4440   42.2400 C   0  0  0  0  0  0  0  0  0  0  0  0
   37.0290   25.2170   42.2980 O   0  0  0  0  0  0  0  0  0  0  0  0
   36.4910   27.5920   42.7650 C   0  0  0  0  0  3  0  0  0  0  0  0
   36.4910   27.7280   43.8530 H   0  0  0  0  0  0  0  0  0  0  0  0
   37.4320   28.4170   41.9610 C   0  0  1  0  0  3  0  0  0  0  0  0
   38.6340   29.4100   42.9370 S   0  0  0  0  0  0  0  0  0  0  0  0
   41.0260   28.0220   43.1180 C   0  0  0  0  0  2  0  0  0  0  0  0
   40.5250   27.5760   43.9860 H   0  0  0  0  0  0  0  0  0  0  0  0
  1  6  1  0  0  0  0
  2  1  2  0  0  0  0
  2  3  1  0  0  0  0
  3  4  2  0  0  0  0
  4  5  1  0  0  0  0
  5  7  1  0  0  0  0
  6  5  2  0  0  0  0
  7 11  1  0  0  0  0
  7  8  1  0  0  0  0
  8  9  1  0  0  0  0
  8 14  1  0  0  0  0
  9 17  1  0  0  0  0
 10 11  1  0  0  0  0
 10  9  1  0  0  0  0
 10 18  1  0  0  0  0
 11 20  1  6  0  0  0
 11 24  1  0  0  0  0
 12  1  1  0  0  0  0
 13  3  1  0  0  0  0
 15  8  1  0  0  0  0
 16  9  1  0  0  0  0
 19 10  1  0  0  0  0
 21 22  1  0  0  0  0
 21  2  1  0  0  0  0
 23 21  1  0  0  0  0
 24 25  1  0  0  0  0
 26 25  1  6  0  0  0
 26 34  1  0  0  0  0
 26 35  1  0  0  0  0
 27 28  1  0  0  0  0
 27 26  1  0  0  0  0
 28 33  1  0  0  0  0
 28 29  1  0  0  0  0
 29 30  2  0  0  0  0
 29 31  1  0  0  0  0
 31 32  1  0  0  0  0
 33 31  1  1  0  0  0
 33 34  1  0  0  0  0
 35 36  1  0  0  0  0
M  END
>  <minimizedAffinity>
-5.21286583

$$$$

 OpenBabel03252506353D

 36 39  0  0  1  0  0  0  0  0999 V2000
   38.3540   24.3210   39.2370 C   0  0  0  0  0  0  0  0  0  0  0  0
   37.2330   24.3970   38.3680 C   0  0  0  0  0  0  0  0  0  0  0  0
   36.2820   25.3580   38.5870 C   0  0  0  0  0  0  0  0  0  0  0  0
   36.4970   26.1770   39.6430 N   0  0  0  0  0  0  0  0  0  0  0  0
   37.5390   26.1140   40.4580 C   0  0  0  0  0  0  0  0  0  0  0  0
   38.4880   25.1850   40.2710 N   0  0  0  0  0  0  0  0  0  0  0  0
   37.6170   27.0480   41.5180 N   0  0  0  0  0  0  0  0  0  0  0  0
   38.8400   27.3130   42.2910 C   0  0  0  0  0  0  0  0  0  0  0  0
   38.2830   27.5250   43.6790 C   0  0  0  0  0  0  0  0  0  0  0  0
   36.7940   27.6330   43.5460 C   0  0  0  0  0  0  0  0  0  0  0  0
   36.6000   27.9130   42.0700 C   0  0  1  0  0  0  0  0  0  0  0  0
   39.1510   23.5940   39.1370 H   0  0  0  0  0  0  0  0  0  0  0  0
   35.4570   25.3880   37.9210 H   0  0  0  0  0  0  0  0  0  0  0  0
   39.3460   28.2070   41.8720 H   0  0  0  0  0  0  0  0  0  0  0  0
   39.4870   26.4230   42.2570 H   0  0  0  0  0  0  0  0  0  0  0  0
   38.5800   26.6770   44.3320 H   0  0  0  0  0  0  0  0  0  0  0  0
   38.7070   28.4960   44.0430 H   0  0  0  0  0  0  0  0  0  0  0  0
   36.4160   28.5150   44.0950 H   0  0  0  0  0  0  0  0  0  0  0  0
   36.2630   26.7010   43.8420 H   0  0  0  0  0  0  0  0  0  0  0  0
   35.5860   27.6220   41.7240 H   0  0  0  0  0  0  0  0  0  0  0  0
   37.2170   23.4210   37.3150 N   0  0  0  0  0  0  0  0  0  0  0  0
   38.1220   23.1880   36.8220 H   0  0  0  0  0  0  0  0  0  0  0  0
   36.2680   23.0030   37.1130 H   0  0  0  0  0  0  0  0  0  0  0  0
   36.9610   29.6550   41.7570 S   0  0  0  0  0  0  0  0  0  0  0  0
   36.7130   29.9650   39.9880 C   0  0  0  0  0  2  0  0  0  0  0  0
   37.8290   30.7950   39.4030 C   0  0  2  0  0  0  0  0  0  0  0  0
   39.0110   30.7530   40.3400 C   0  0  0  0  0  2  0  0  0  0  0  0
   39.6740   32.0360   40.2470 N   0  0  0  0  0  0  0  0  0  0  0  0
   40.5770   33.1170   40.0500 C   0  0  0  0  0  0  0  0  0  0  0  0
   41.8010   33.2420   39.8130 O   0  0  0  0  0  0  0  0  0  0  0  0
   39.5350   34.1600   40.2240 C   0  0  0  0  0  3  0  0  0  0  0  0
   39.2210   34.6950   39.3190 H   0  0  0  0  0  0  0  0  0  0  0  0
   38.6880   33.0330   40.6950 C   0  0  1  0  0  3  0  0  0  0  0  0
   37.3280   32.5450   39.5580 S   0  0  0  0  0  0  0  0  0  0  0  0
   38.1650   30.4120   38.0000 C   0  0  0  0  0  2  0  0  0  0  0  0
   38.5490   31.2220   37.3670 H   0  0  0  0  0  0  0  0  0  0  0  0
  1  6  1  0  0  0  0
  2  3  1  0  0  0  0
  2  1  2  0  0  0  0
  3  4  2  0  0  0  0
  4  5  1  0  0  0  0
  5  7  1  0  0  0  0
  6  5  2  0  0  0  0
  7 11  1  0  0  0  0
  7  8  1  0  0  0  0
  8  9  1  0  0  0  0
  9 17  1  0  0  0  0
  9 16  1  0  0  0  0
 10  9  1  0  0  0  0
 10 19  1  0  0  0  0
 10 18  1  0  0  0  0
 11 20  1  6  0  0  0
 11 10  1  0  0  0  0
 12  1  1  0  0  0  0
 13  3  1  0  0  0  0
 14  8  1  0  0  0  0
 15  8  1  0  0  0  0
 21  2  1  0  0  0  0
 22 21  1  0  0  0  0
 23 21  1  0  0  0  0
 24 11  1  0  0  0  0
 25 24  1  0  0  0  0
 26 35  1  6  0  0  0
 26 34  1  0  0  0  0
 26 25  1  0  0  0  0
 26 27  1  0  0  0  0
 28 27  1  0  0  0  0
 28 33  1  0  0  0  0
 29 31  1  0  0  0  0
 29 28  1  0  0  0  0
 30 29  2  0  0  0  0
 31 33  1  0  0  0  0
 32 31  1  0  0  0  0
 33 34  1  6  0  0  0
 36 35  1  0  0  0  0
M  END
>  <minimizedAffinity>
-5.18653154

$$$$

 OpenBabel03252506353D

 36 39  0  0  1  0  0  0  0  0999 V2000
   40.7440   32.2880   39.4250 C   0  0  0  0  0  0  0  0  0  0  0  0
   40.1710   33.0490   40.4780 C   0  0  0  0  0  0  0  0  0  0  0  0
   38.8820   32.7920   40.8620 C   0  0  0  0  0  0  0  0  0  0  0  0
   38.2440   31.8070   40.1860 N   0  0  0  0  0  0  0  0  0  0  0  0
   38.7720   31.0930   39.2030 C   0  0  0  0  0  0  0  0  0  0  0  0
   40.0310   31.3200   38.8030 N   0  0  0  0  0  0  0  0  0  0  0  0
   37.9710   30.0960   38.5970 N   0  0  0  0  0  0  0  0  0  0  0  0
   38.5010   29.0260   37.7380 C   0  0  0  0  0  0  0  0  0  0  0  0
   37.4120   28.9010   36.6990 C   0  0  0  0  0  0  0  0  0  0  0  0
   36.2420   29.7010   37.1870 C   0  0  0  0  0  0  0  0  0  0  0  0
   36.5430   29.8870   38.6610 C   0  0  1  0  0  0  0  0  0  0  0  0
   41.7540   32.4250   39.0580 H   0  0  0  0  0  0  0  0  0  0  0  0
   38.4820   33.3780   41.6520 H   0  0  0  0  0  0  0  0  0  0  0  0
   38.6430   28.1100   38.3480 H   0  0  0  0  0  0  0  0  0  0  0  0
   39.4440   29.3650   37.2830 H   0  0  0  0  0  0  0  0  0  0  0  0
   37.7880   29.2710   35.7210 H   0  0  0  0  0  0  0  0  0  0  0  0
   37.1430   27.8140   36.6560 H   0  0  0  0  0  0  0  0  0  0  0  0
   35.3110   29.1100   37.1190 H   0  0  0  0  0  0  0  0  0  0  0  0
   36.1470   30.6860   36.6780 H   0  0  0  0  0  0  0  0  0  0  0  0
   36.0200   30.7700   39.0800 H   0  0  0  0  0  0  0  0  0  0  0  0
   41.0370   34.0420   41.0480 N   0  0  0  0  0  0  0  0  0  0  0  0
   42.0550   33.8040   41.2010 H   0  0  0  0  0  0  0  0  0  0  0  0
   40.5680   34.9610   41.2760 H   0  0  0  0  0  0  0  0  0  0  0  0
   36.1280   28.3610   39.5350 S   0  0  0  0  0  0  0  0  0  0  0  0
   35.9930   28.7510   41.3000 C   0  0  0  0  0  2  0  0  0  0  0  0
   37.0800   28.0830   42.1050 C   0  0  2  0  0  0  0  0  0  0  0  0
   38.1670   29.0900   42.3880 C   0  0  0  0  0  2  0  0  0  0  0  0
   39.4220   28.3700   42.4050 N   0  0  0  0  0  0  0  0  0  0  0  0
   40.6680   27.7660   42.7310 C   0  0  0  0  0  0  0  0  0  0  0  0
   41.4840   27.8300   43.6800 O   0  0  0  0  0  0  0  0  0  0  0  0
   40.7210   26.9540   41.4900 C   0  0  0  0  0  3  0  0  0  0  0  0
   40.5480   25.8760   41.6010 H   0  0  0  0  0  0  0  0  0  0  0  0
   39.5770   27.8000   41.0570 C   0  0  1  0  0  3  0  0  0  0  0  0
   37.9530   26.9420   40.9760 S   0  0  0  0  0  0  0  0  0  0  0  0
   36.5630   27.4020   43.3290 C   0  0  0  0  0  2  0  0  0  0  0  0
   37.1320   26.5240   43.6580 H   0  0  0  0  0  0  0  0  0  0  0  0
  1  2  1  0  0  0  0
  2  3  2  0  0  0  0
  2 21  1  0  0  0  0
  3 13  1  0  0  0  0
  4  3  1  0  0  0  0
  5  4  2  0  0  0  0
  6  5  1  0  0  0  0
  6  1  2  0  0  0  0
  7 11  1  0  0  0  0
  7  5  1  0  0  0  0
  8 14  1  0  0  0  0
  8  7  1  0  0  0  0
  9 10  1  0  0  0  0
  9  8  1  0  0  0  0
 10 11  1  0  0  0  0
 11 20  1  1  0  0  0
 11 24  1  0  0  0  0
 12  1  1  0  0  0  0
 15  8  1  0  0  0  0
 16  9  1  0  0  0  0
 17  9  1  0  0  0  0
 18 10  1  0  0  0  0
 19 10  1  0  0  0  0
 21 22  1  0  0  0  0
 21 23  1  0  0  0  0
 24 25  1  0  0  0  0
 26 25  1  6  0  0  0
 26 27  1  0  0  0  0
 26 35  1  0  0  0  0
 27 28  1  0  0  0  0
 28 29  1  0  0  0  0
 29 30  2  0  0  0  0
 31 32  1  0  0  0  0
 31 29  1  0  0  0  0
 33 34  1  1  0  0  0
 33 31  1  0  0  0  0
 33 28  1  0  0  0  0
 34 26  1  0  0  0  0
 35 36  1  0  0  0  0
M  END
>  <minimizedAffinity>
-5.16770124

$$$$
