
 OpenBabel03252506333D

 36 39  0  0  1  0  0  0  0  0999 V2000
   44.4680   35.6910   44.9880 C   0  0  0  0  0  0  0  0  0  0  0  0
   45.1390   35.6660   43.7360 C   0  0  0  0  0  0  0  0  0  0  0  0
   46.0760   34.6960   43.5000 C   0  0  0  0  0  0  0  0  0  0  0  0
   46.2900   33.8170   44.5060 N   0  0  0  0  0  0  0  0  0  0  0  0
   45.6690   33.8320   45.6760 C   0  0  0  0  0  0  0  0  0  0  0  0
   44.7470   34.7690   45.9400 N   0  0  0  0  0  0  0  0  0  0  0  0
   46.0080   32.8390   46.6260 N   0  0  0  0  0  0  0  0  0  0  0  0
   45.1980   32.5280   47.8140 C   0  0  0  0  0  0  0  0  0  0  0  0
   46.2650   32.2390   48.8420 C   0  0  0  0  0  0  0  0  0  0  0  0
   47.5700   32.1410   48.1110 C   0  0  0  0  0  0  0  0  0  0  0  0
   47.1430   31.9460   46.6700 C   0  0  1  0  0  0  0  0  0  0  0  0
   43.7160   36.4210   45.2590 H   0  0  0  0  0  0  0  0  0  0  0  0
   46.5590   34.7060   42.5540 H   0  0  0  0  0  0  0  0  0  0  0  0
   44.5470   31.6590   47.5900 H   0  0  0  0  0  0  0  0  0  0  0  0
   44.6130   33.4180   48.0930 H   0  0  0  0  0  0  0  0  0  0  0  0
   46.2770   33.0480   49.6040 H   0  0  0  0  0  0  0  0  0  0  0  0
   46.0050   31.2470   49.2950 H   0  0  0  0  0  0  0  0  0  0  0  0
   48.1180   31.2300   48.4110 H   0  0  0  0  0  0  0  0  0  0  0  0
   48.1950   33.0560   48.2140 H   0  0  0  0  0  0  0  0  0  0  0  0
   47.9350   32.2580   45.9590 H   0  0  0  0  0  0  0  0  0  0  0  0
   44.7480   36.7010   42.8200 N   0  0  0  0  0  0  0  0  0  0  0  0
   43.7260   36.9600   42.7500 H   0  0  0  0  0  0  0  0  0  0  0  0
   45.5420   37.1310   42.2730 H   0  0  0  0  0  0  0  0  0  0  0  0
   46.6480   30.2240   46.4390 S   0  0  0  0  0  0  0  0  0  0  0  0
   45.6560   30.1290   44.9250 C   0  0  0  0  0  2  0  0  0  0  0  0
   44.7070   28.9570   44.9490 C   0  0  2  0  0  0  0  0  0  0  0  0
   45.4250   27.7350   44.4310 C   0  0  0  0  0  2  0  0  0  0  0  0
   44.4470   26.9280   43.7360 N   0  0  0  0  0  0  0  0  0  0  0  0
   43.5600   25.9130   43.2800 C   0  0  0  0  0  0  0  0  0  0  0  0
   43.3730   24.6990   43.5260 O   0  0  0  0  0  0  0  0  0  0  0  0
   42.8490   26.8080   42.3330 C   0  0  0  0  0  3  0  0  0  0  0  0
   41.8320   27.1080   42.6120 H   0  0  0  0  0  0  0  0  0  0  0  0
   43.9570   27.7580   42.6230 C   0  0  1  0  0  3  0  0  0  0  0  0
   43.4890   29.2320   43.6170 S   0  0  0  0  0  0  0  0  0  0  0  0
   44.0690   28.7520   46.2840 C   0  0  0  0  0  2  0  0  0  0  0  0
   43.0650   28.3100   46.2670 H   0  0  0  0  0  0  0  0  0  0  0  0
  1 12  1  0  0  0  0
  1  6  1  0  0  0  0
  2  1  2  0  0  0  0
  3  2  1  0  0  0  0
  3  4  2  0  0  0  0
  4  5  1  0  0  0  0
  5  6  2  0  0  0  0
  5  7  1  0  0  0  0
  7 11  1  0  0  0  0
  7  8  1  0  0  0  0
  8 15  1  0  0  0  0
  8  9  1  0  0  0  0
  9 17  1  0  0  0  0
  9 16  1  0  0  0  0
 10 19  1  0  0  0  0
 10 18  1  0  0  0  0
 10  9  1  0  0  0  0
 11 20  1  6  0  0  0
 11 10  1  0  0  0  0
 13  3  1  0  0  0  0
 14  8  1  0  0  0  0
 21  2  1  0  0  0  0
 22 21  1  0  0  0  0
 23 21  1  0  0  0  0
 24 11  1  0  0  0  0
 25 24  1  0  0  0  0
 26 25  1  1  0  0  0
 26 35  1  0  0  0  0
 27 26  1  0  0  0  0
 28 27  1  0  0  0  0
 29 30  2  0  0  0  0
 29 28  1  0  0  0  0
 31 32  1  0  0  0  0
 31 29  1  0  0  0  0
 33 31  1  1  0  0  0
 33 34  1  0  0  0  0
 33 28  1  0  0  0  0
 34 26  1  0  0  0  0
 36 35  1  0  0  0  0
M  END
>  <minimizedAffinity>
-5.06827927

>  <minimizedRMSD>
1.21905756

$$$$
