
 OpenBabel03252508073D

 47 51  0  0  1  0  0  0  0  0999 V2000
   45.2250   35.5620   43.1100 C   0  0  0  0  0  0  0  0  0  0  0  0
   45.5800   34.2250   43.1970 C   0  0  0  0  0  0  0  0  0  0  0  0
   45.4460   33.5570   44.3890 C   0  0  0  0  0  0  0  0  0  0  0  0
   44.9490   34.2770   45.4580 N   0  0  0  0  0  0  0  0  0  0  0  0
   44.6090   35.5620   45.3670 C   0  0  0  0  0  0  0  0  0  0  0  0
   44.7540   36.1930   44.1830 N   0  0  0  0  0  0  0  0  0  0  0  0
   45.3180   36.1220   42.1910 H   0  0  0  0  0  0  0  0  0  0  0  0
   44.2240   36.1270   46.1930 H   0  0  0  0  0  0  0  0  0  0  0  0
   45.7600   32.2020   44.6430 C   0  0  0  0  0  0  0  0  0  0  0  0
   45.4010   31.1440   43.8030 C   0  0  0  0  0  0  0  0  0  0  0  0
   45.6450   29.8250   44.0800 C   0  0  0  0  0  0  0  0  0  0  0  0
   46.2800   29.4790   45.2480 C   0  0  0  0  0  0  0  0  0  0  0  0
   46.6570   30.5440   46.1230 C   0  0  0  0  0  0  0  0  0  0  0  0
   47.2900   30.2070   47.2890 C   0  0  0  0  0  0  0  0  0  0  0  0
   47.6820   31.1880   48.1750 C   0  0  0  0  0  0  0  0  0  0  0  0
   47.4300   32.5350   47.8710 C   0  0  0  0  0  0  0  0  0  0  0  0
   46.7760   32.8260   46.6600 C   0  0  0  0  0  0  0  0  0  0  0  0
   46.3940   31.8320   45.8010 C   0  0  0  0  0  0  0  0  0  0  0  0
   44.9000   31.3950   42.8790 H   0  0  0  0  0  0  0  0  0  0  0  0
   45.3480   29.0440   43.3960 H   0  0  0  0  0  0  0  0  0  0  0  0
   46.4940   28.4730   45.5150 H   0  0  0  0  0  0  0  0  0  0  0  0
   47.4860   29.1730   47.5250 H   0  0  0  0  0  0  0  0  0  0  0  0
   48.1810   30.8640   49.0900 H   0  0  0  0  0  0  0  0  0  0  0  0
   47.7740   33.2060   48.6180 H   0  0  0  0  0  0  0  0  0  0  0  0
   46.6980   33.8910   46.6000 H   0  0  0  0  0  0  0  0  0  0  0  0
   46.0540   33.6280   42.0630 O   0  0  0  0  0  0  0  0  0  0  0  0
   48.2290   32.1920   41.8170 O   0  0  0  0  0  0  0  0  0  0  0  0
   47.6870   33.5620   41.6190 P   0  0  1  0  0  0  0  0  0  0  0  0
   47.8760   33.9450   39.9820 O   0  0  0  0  0  0  0  0  0  0  0  0
   47.6690   32.8680   39.1450 C   0  0  0  0  0  2  0  0  0  0  0  0
   48.1330   33.3170   37.7600 C   0  0  2  0  0  0  0  0  0  0  0  0
   47.1440   32.9430   36.6930 C   0  0  0  0  0  2  0  0  0  0  0  0
   47.8670   32.5370   35.5130 N   0  0  0  0  0  0  0  0  0  0  0  0
   48.3940   32.4120   34.1960 C   0  0  0  0  0  0  0  0  0  0  0  0
   48.1020   32.8690   33.0420 O   0  0  0  0  0  0  0  0  0  0  0  0
   49.4960   31.4970   34.6180 C   0  0  0  0  0  3  0  0  0  0  0  0
   49.5880   30.5550   34.0740 H   0  0  0  0  0  0  0  0  0  0  0  0
   48.7150   31.3990   35.9010 C   0  0  1  0  0  3  0  0  0  0  0  0
   49.5200   32.1840   37.3480 S   0  0  0  0  0  0  0  0  0  0  0  0
   48.5570   34.7460   37.7550 C   0  0  0  0  0  2  0  0  0  0  0  0
   47.9310   35.3000   38.4940 H   0  0  0  0  0  0  0  0  0  0  0  0
   48.5280   34.6890   42.5370 O   0  0  0  0  0  0  0  0  0  0  0  0
   49.7030   35.3340   42.1870 C   0  0  0  0  0  0  0  0  0  0  0  0
   49.3340   36.3840   41.6310 O   0  0  0  0  0  0  0  0  0  0  0  0
   50.8520   34.5610   42.5910 N   0  0  0  0  0  0  0  0  0  0  0  0
   51.0630   34.4850   43.6260 H   0  0  0  0  0  0  0  0  0  0  0  0
   51.5430   34.0380   42.0030 H   0  0  0  0  0  0  0  0  0  0  0  0
  1  2  2  0  0  0  0
  1  6  1  0  0  0  0
  2  3  1  0  0  0  0
  3  9  1  0  0  0  0
  3  4  2  0  0  0  0
  5  4  1  0  0  0  0
  5  8  1  0  0  0  0
  6  5  2  0  0  0  0
  7  1  1  0  0  0  0
  9 18  1  0  0  0  0
 10 11  1  0  0  0  0
 10  9  2  0  0  0  0
 11 12  2  0  0  0  0
 12 21  1  0  0  0  0
 12 13  1  0  0  0  0
 13 14  1  0  0  0  0
 14 22  1  0  0  0  0
 14 15  2  0  0  0  0
 15 23  1  0  0  0  0
 16 15  1  0  0  0  0
 16 24  1  0  0  0  0
 17 16  2  0  0  0  0
 18 13  2  0  0  0  0
 18 17  1  0  0  0  0
 19 10  1  0  0  0  0
 20 11  1  0  0  0  0
 25 17  1  0  0  0  0
 26  2  1  0  0  0  0
 28 27  2  1  0  0  0
 28 26  1  0  0  0  0
 28 42  1  0  0  0  0
 29 28  1  0  0  0  0
 30 29  1  0  0  0  0
 31 40  1  6  0  0  0
 31 30  1  0  0  0  0
 32 31  1  0  0  0  0
 33 38  1  0  0  0  0
 33 32  1  0  0  0  0
 34 36  1  0  0  0  0
 34 33  1  0  0  0  0
 35 34  2  0  0  0  0
 37 36  1  0  0  0  0
 38 36  1  6  0  0  0
 38 39  1  0  0  0  0
 39 31  1  0  0  0  0
 40 41  1  0  0  0  0
 43 42  1  0  0  0  0
 43 45  1  0  0  0  0
 44 43  2  0  0  0  0
 45 46  1  0  0  0  0
 47 45  1  0  0  0  0
M  END
>  <minimizedAffinity>
-6.6950655

>  <minimizedRMSD>
1.21457529

$$$$
