
 OpenBabel03252508073D

 47 51  0  0  1  0  0  0  0  0999 V2000
   45.2310   35.5520   43.2160 C   0  0  0  0  0  0  0  0  0  0  0  0
   45.5900   34.2160   43.3010 C   0  0  0  0  0  0  0  0  0  0  0  0
   45.4470   33.5420   44.4890 C   0  0  0  0  0  0  0  0  0  0  0  0
   44.9360   34.2550   45.5560 N   0  0  0  0  0  0  0  0  0  0  0  0
   44.5930   35.5390   45.4670 C   0  0  0  0  0  0  0  0  0  0  0  0
   44.7460   36.1760   44.2870 N   0  0  0  0  0  0  0  0  0  0  0  0
   45.3300   36.1160   42.3000 H   0  0  0  0  0  0  0  0  0  0  0  0
   44.1970   36.0990   46.2920 H   0  0  0  0  0  0  0  0  0  0  0  0
   45.7640   32.1870   44.7400 C   0  0  0  0  0  0  0  0  0  0  0  0
   45.3880   31.1270   43.9090 C   0  0  0  0  0  0  0  0  0  0  0  0
   45.6360   29.8090   44.1840 C   0  0  0  0  0  0  0  0  0  0  0  0
   46.2920   29.4650   45.3410 C   0  0  0  0  0  0  0  0  0  0  0  0
   46.6860   30.5310   46.2070 C   0  0  0  0  0  0  0  0  0  0  0  0
   47.3390   30.1960   47.3620 C   0  0  0  0  0  0  0  0  0  0  0  0
   47.7480   31.1780   48.2390 C   0  0  0  0  0  0  0  0  0  0  0  0
   47.4930   32.5250   47.9360 C   0  0  0  0  0  0  0  0  0  0  0  0
   46.8170   32.8150   46.7360 C   0  0  0  0  0  0  0  0  0  0  0  0
   46.4190   31.8190   45.8860 C   0  0  0  0  0  0  0  0  0  0  0  0
   44.8710   31.3770   42.9930 H   0  0  0  0  0  0  0  0  0  0  0  0
   45.3260   29.0270   43.5080 H   0  0  0  0  0  0  0  0  0  0  0  0
   46.5090   28.4590   45.6070 H   0  0  0  0  0  0  0  0  0  0  0  0
   47.5380   29.1620   47.5970 H   0  0  0  0  0  0  0  0  0  0  0  0
   48.2630   30.8560   49.1450 H   0  0  0  0  0  0  0  0  0  0  0  0
   47.8510   33.1970   48.6750 H   0  0  0  0  0  0  0  0  0  0  0  0
   46.7390   33.8790   46.6760 H   0  0  0  0  0  0  0  0  0  0  0  0
   46.0780   33.6260   42.1700 O   0  0  0  0  0  0  0  0  0  0  0  0
   48.2380   32.1490   42.0830 O   0  0  0  0  0  0  0  0  0  0  0  0
   47.7210   33.5080   41.7750 P   0  0  1  0  0  0  0  0  0  0  0  0
   47.9570   33.7730   40.1200 O   0  0  0  0  0  0  0  0  0  0  0  0
   48.3960   32.6490   39.4490 C   0  0  0  0  0  2  0  0  0  0  0  0
   47.5610   32.5700   38.1720 C   0  0  2  0  0  0  0  0  0  0  0  0
   47.6930   31.2340   37.5010 C   0  0  0  0  0  2  0  0  0  0  0  0
   47.7190   31.4330   36.0720 N   0  0  0  0  0  0  0  0  0  0  0  0
   47.4500   31.4130   34.6740 C   0  0  0  0  0  0  0  0  0  0  0  0
   46.7170   30.7240   33.8890 O   0  0  0  0  0  0  0  0  0  0  0  0
   48.3740   32.5480   34.3800 C   0  0  0  0  0  3  0  0  0  0  0  0
   49.1270   32.3810   33.6060 H   0  0  0  0  0  0  0  0  0  0  0  0
   48.8640   32.3110   35.7830 C   0  0  1  0  0  3  0  0  0  0  0  0
   48.4520   33.6410   36.9720 S   0  0  0  0  0  0  0  0  0  0  0  0
   46.1590   33.0280   38.3970 C   0  0  0  0  0  2  0  0  0  0  0  0
   45.8660   32.7570   39.4390 H   0  0  0  0  0  0  0  0  0  0  0  0
   48.5530   34.6870   42.6330 O   0  0  0  0  0  0  0  0  0  0  0  0
   49.7120   35.3380   42.2400 C   0  0  0  0  0  0  0  0  0  0  0  0
   49.3170   36.3840   41.6940 O   0  0  0  0  0  0  0  0  0  0  0  0
   50.8780   34.5730   42.6040 N   0  0  0  0  0  0  0  0  0  0  0  0
   51.1270   34.5000   43.6310 H   0  0  0  0  0  0  0  0  0  0  0  0
   51.5520   34.0520   41.9930 H   0  0  0  0  0  0  0  0  0  0  0  0
  1  2  2  0  0  0  0
  1  6  1  0  0  0  0
  2  3  1  0  0  0  0
  3  9  1  0  0  0  0
  3  4  2  0  0  0  0
  5  4  1  0  0  0  0
  5  8  1  0  0  0  0
  6  5  2  0  0  0  0
  7  1  1  0  0  0  0
  9 18  1  0  0  0  0
 10 11  1  0  0  0  0
 10  9  2  0  0  0  0
 11 12  2  0  0  0  0
 12 21  1  0  0  0  0
 12 13  1  0  0  0  0
 13 14  1  0  0  0  0
 14 22  1  0  0  0  0
 14 15  2  0  0  0  0
 15 23  1  0  0  0  0
 16 15  1  0  0  0  0
 16 24  1  0  0  0  0
 17 16  2  0  0  0  0
 18 13  2  0  0  0  0
 18 17  1  0  0  0  0
 19 10  1  0  0  0  0
 20 11  1  0  0  0  0
 25 17  1  0  0  0  0
 26  2  1  0  0  0  0
 28 27  2  1  0  0  0
 28 26  1  0  0  0  0
 28 42  1  0  0  0  0
 29 28  1  0  0  0  0
 30 29  1  0  0  0  0
 31 40  1  1  0  0  0
 31 30  1  0  0  0  0
 32 31  1  0  0  0  0
 33 32  1  0  0  0  0
 34 33  1  0  0  0  0
 35 34  2  0  0  0  0
 36 34  1  0  0  0  0
 37 36  1  0  0  0  0
 38 36  1  6  0  0  0
 38 33  1  0  0  0  0
 38 39  1  0  0  0  0
 39 31  1  0  0  0  0
 40 41  1  0  0  0  0
 43 45  1  0  0  0  0
 43 42  1  0  0  0  0
 44 43  2  0  0  0  0
 45 46  1  0  0  0  0
 47 45  1  0  0  0  0
M  END
>  <minimizedAffinity>
-6.3487277

>  <minimizedRMSD>
2.70629525

$$$$
