
 OpenBabel03242519253D

 43 47  0  0  0  0  0  0  0  0999 V2000
   47.8880   33.7380   42.8780 C   0  0  0  0  0  0  0  0  0  0  0  0
   48.5840   34.9370   42.7100 C   0  0  0  0  0  0  0  0  0  0  0  0
   49.9500   34.9270   42.3830 C   0  0  0  0  0  0  0  0  0  0  0  0
   50.5210   33.6800   42.2460 N   0  0  0  0  0  0  0  0  0  0  0  0
   49.8070   32.5270   42.4190 C   0  0  0  0  0  0  0  0  0  0  0  0
   48.5150   32.5680   42.7290 N   0  0  0  0  0  0  0  0  0  0  0  0
   48.2220   35.9530   42.7970 H   0  0  0  0  0  0  0  0  0  0  0  0
   50.5500   35.8090   42.2380 H   0  0  0  0  0  0  0  0  0  0  0  0
   46.4610   33.8840   43.2270 C   0  0  0  0  0  0  0  0  0  0  0  0
   45.7570   34.8850   42.4270 C   0  0  0  0  0  0  0  0  0  0  0  0
   45.3250   36.0870   43.1850 C   0  0  0  0  0  0  0  0  0  0  0  0
   44.5460   35.7610   44.4480 C   0  0  0  0  0  0  0  0  0  0  0  0
   44.9820   34.4870   45.1310 C   0  0  0  0  0  0  0  0  0  0  0  0
   46.4070   34.1550   44.7410 C   0  0  0  0  0  0  0  0  0  0  0  0
   46.0120   32.8530   43.1140 H   0  0  0  0  0  0  0  0  0  0  0  0
   44.8270   34.4370   41.9740 H   0  0  0  0  0  0  0  0  0  0  0  0
   46.4180   35.2300   41.6120 H   0  0  0  0  0  0  0  0  0  0  0  0
   46.0820   36.8500   43.3780 H   0  0  0  0  0  0  0  0  0  0  0  0
   44.5630   36.6060   42.5290 H   0  0  0  0  0  0  0  0  0  0  0  0
   44.7460   36.5890   45.1810 H   0  0  0  0  0  0  0  0  0  0  0  0
   43.4490   35.7690   44.2990 H   0  0  0  0  0  0  0  0  0  0  0  0
   44.8830   34.5200   46.2150 H   0  0  0  0  0  0  0  0  0  0  0  0
   44.3620   33.6690   44.6830 H   0  0  0  0  0  0  0  0  0  0  0  0
   47.0560   35.0630   44.8870 H   0  0  0  0  0  0  0  0  0  0  0  0
   46.7530   33.2770   45.2990 H   0  0  0  0  0  0  0  0  0  0  0  0
   50.5630   31.2920   42.2440 C   0  0  0  0  0  0  0  0  0  0  0  0
   50.2500   30.5230   41.1740 N   0  0  0  0  0  0  0  0  0  0  0  0
   51.0340   29.4320   41.1590 C   0  0  0  0  0  0  0  0  0  0  0  0
   51.8550   29.5330   42.2530 N   0  0  0  0  0  0  0  0  0  0  0  0
   51.5620   30.6610   42.9030 N   0  0  0  0  0  0  0  0  0  0  0  0
   51.0830   28.6000   40.4740 H   0  0  0  0  0  0  0  0  0  0  0  0
   53.1900   27.4550   42.1230 C   0  0  0  0  0  0  0  0  0  0  0  0
   52.8790   28.6690   42.7330 C   0  0  0  0  0  0  0  0  0  0  0  0
   53.6240   29.0040   43.8480 C   0  0  0  0  0  0  0  0  0  0  0  0
   53.3860   29.9440   44.3240 H   0  0  0  0  0  0  0  0  0  0  0  0
   54.6300   28.2110   44.3630 C   0  0  0  0  0  0  0  0  0  0  0  0
   55.4380   28.3930   45.4280 N   0  0  0  0  0  0  0  0  0  0  0  0
   55.3980   29.2280   46.0450 H   0  0  0  0  0  0  0  0  0  0  0  0
   56.2370   27.3370   45.4980 N   0  0  0  0  0  0  0  0  0  0  0  0
   55.9540   26.4690   44.4850 C   0  0  0  0  0  0  0  0  0  0  0  0
   56.4230   25.5260   44.2700 H   0  0  0  0  0  0  0  0  0  0  0  0
   54.9270   27.0010   43.7410 C   0  0  0  0  0  0  0  0  0  0  0  0
   54.1930   26.6600   42.6330 C   0  0  0  0  0  0  0  0  0  0  0  0
  1  9  1  0  0  0  0
  2  7  1  0  0  0  0
  2  1  2  0  0  0  0
  3  2  1  0  0  0  0
  4  3  2  0  0  0  0
  4  5  1  0  0  0  0
  5  6  2  0  0  0  0
  6  1  1  0  0  0  0
  8  3  1  0  0  0  0
  9 14  1  0  0  0  0
 10 11  1  0  0  0  0
 10  9  1  0  0  0  0
 11 18  1  0  0  0  0
 11 12  1  0  0  0  0
 12 13  1  0  0  0  0
 12 20  1  0  0  0  0
 13 22  1  0  0  0  0
 14 24  1  0  0  0  0
 14 13  1  0  0  0  0
 14 25  1  0  0  0  0
 15  9  1  0  0  0  0
 16 10  1  0  0  0  0
 17 10  1  0  0  0  0
 19 11  1  0  0  0  0
 21 12  1  0  0  0  0
 23 13  1  0  0  0  0
 26  5  1  0  0  0  0
 26 30  2  0  0  0  0
 27 26  1  0  0  0  0
 28 27  2  0  0  0  0
 28 29  1  0  0  0  0
 29 33  1  0  0  0  0
 29 30  1  0  0  0  0
 31 28  1  0  0  0  0
 32 43  2  0  0  0  0
 32 33  1  0  0  0  0
 33 34  2  0  0  0  0
 34 35  1  0  0  0  0
 34 36  1  0  0  0  0
 36 37  1  0  0  0  0
 37 39  1  0  0  0  0
 37 38  1  0  0  0  0
 40 39  2  0  0  0  0
 41 40  1  0  0  0  0
 42 36  2  0  0  0  0
 42 40  1  0  0  0  0
 43 42  1  0  0  0  0
M  END
>  <minimizedAffinity>
-4.3433404

>  <minimizedRMSD>
2.79680729

$$$$
