
 OpenBabel03252509093D

 44 48  0  0  0  0  0  0  0  0999 V2000
   47.8120   32.8870   39.0880 C   0  0  0  0  0  0  0  0  0  0  0  0
   46.4520   32.7870   39.0960 C   0  0  0  0  0  0  0  0  0  0  0  0
   45.7120   33.5320   40.0010 C   0  0  0  0  0  0  0  0  0  0  0  0
   46.3400   34.3700   40.8920 C   0  0  0  0  0  0  0  0  0  0  0  0
   47.7270   34.5020   40.9170 C   0  0  0  0  0  0  0  0  0  0  0  0
   48.4490   33.7400   39.9940 C   0  0  0  0  0  0  0  0  0  0  0  0
   44.6460   33.4760   40.0320 H   0  0  0  0  0  0  0  0  0  0  0  0
   45.8380   34.9680   41.6100 H   0  0  0  0  0  0  0  0  0  0  0  0
   48.2760   35.1260   41.5730 H   0  0  0  0  0  0  0  0  0  0  0  0
   49.5290   33.8230   39.9910 H   0  0  0  0  0  0  0  0  0  0  0  0
   44.2650   28.2290   38.0560 Cl  0  0  0  0  0  0  0  0  0  0  0  0
   44.7000   29.8770   37.6830 C   0  0  0  0  0  0  0  0  0  0  0  0
   45.3940   30.6390   38.5660 C   0  0  0  0  0  0  0  0  0  0  0  0
   45.6920   31.9380   38.1900 C   0  0  0  0  0  0  0  0  0  0  0  0
   45.3040   32.4450   36.9740 C   0  0  0  0  0  0  0  0  0  0  0  0
   44.6110   31.6730   36.0990 C   0  0  0  0  0  0  0  0  0  0  0  0
   44.3060   30.3720   36.4610 C   0  0  0  0  0  0  0  0  0  0  0  0
   45.5650   33.4700   36.7390 H   0  0  0  0  0  0  0  0  0  0  0  0
   44.3280   32.1100   35.1580 H   0  0  0  0  0  0  0  0  0  0  0  0
   43.7540   29.7840   35.7390 H   0  0  0  0  0  0  0  0  0  0  0  0
   45.4150   29.6840   42.2310 C   0  0  0  0  0  0  0  0  0  0  0  0
   45.0360   30.2370   41.0040 C   0  0  0  0  0  0  0  0  0  0  0  0
   45.7800   30.0710   39.8480 C   0  0  0  0  0  0  0  0  0  0  0  0
   46.8850   29.3370   40.0270 N   0  0  0  0  0  0  0  0  0  0  0  0
   47.2650   28.8010   41.1850 C   0  0  0  0  0  0  0  0  0  0  0  0
   46.5360   28.9720   42.2800 N   0  0  0  0  0  0  0  0  0  0  0  0
   44.7780   29.8590   43.0940 H   0  0  0  0  0  0  0  0  0  0  0  0
   44.1110   30.8270   40.9460 H   0  0  0  0  0  0  0  0  0  0  0  0
   48.2040   28.2390   41.0970 H   0  0  0  0  0  0  0  0  0  0  0  0
   48.7660   31.9890   38.0270 S   0  0  0  0  0  0  0  0  0  0  0  0
   50.1380   32.6900   37.8560 O   0  0  0  0  0  0  0  0  0  0  0  0
   49.1270   30.7010   38.7700 O   0  0  0  0  0  0  0  0  0  0  0  0
   48.3150   32.5470   35.3130 C   0  0  0  0  0  3  0  0  0  0  0  0
   48.3980   31.6720   36.3870 C   0  0  0  0  0  0  0  0  0  0  0  0
   48.0560   30.3740   35.9190 C   0  0  0  0  0  0  0  0  0  0  0  0
   48.0830   29.5740   36.6850 H   0  0  0  0  0  0  0  0  0  0  0  0
   47.7000   29.9870   34.6460 C   0  0  0  0  0  0  0  0  0  0  0  0
   47.3670   28.8060   34.1150 N   0  0  0  0  0  0  0  0  0  0  0  0
   47.3210   27.9070   34.6420 H   0  0  0  0  0  0  0  0  0  0  0  0
   47.1230   29.0350   32.8430 N   0  0  0  0  0  0  0  0  0  0  0  0
   47.2940   30.3340   32.5520 C   0  0  0  0  0  0  0  0  0  0  0  0
   47.1670   30.8220   31.5830 H   0  0  0  0  0  0  0  0  0  0  0  0
   47.6750   30.9790   33.7260 C   0  0  0  0  0  0  0  0  0  0  0  0
   47.9760   32.2910   34.0100 C   0  0  0  0  0  3  0  0  0  0  0  0
  1  2  2  0  0  0  0
  1  6  1  0  0  0  0
  2  3  1  0  0  0  0
  3  7  1  0  0  0  0
  3  4  2  0  0  0  0
  4  5  1  0  0  0  0
  4  8  1  0  0  0  0
  5  9  1  0  0  0  0
  6  5  2  0  0  0  0
 10  6  1  0  0  0  0
 12 11  1  0  0  0  0
 12 13  1  0  0  0  0
 13 23  1  0  0  0  0
 14 13  2  0  0  0  0
 14  2  1  0  0  0  0
 15 14  1  0  0  0  0
 16 17  1  0  0  0  0
 16 15  2  0  0  0  0
 17 12  2  0  0  0  0
 18 15  1  0  0  0  0
 19 16  1  0  0  0  0
 20 17  1  0  0  0  0
 21 26  1  0  0  0  0
 21 27  1  0  0  0  0
 22 21  2  0  0  0  0
 23 24  2  0  0  0  0
 23 22  1  0  0  0  0
 24 25  1  0  0  0  0
 25 26  2  0  0  0  0
 28 22  1  0  0  0  0
 29 25  1  0  0  0  0
 30 32  2  0  0  0  0
 30  1  1  0  0  0  0
 31 30  2  0  0  0  0
 33 34  1  0  0  0  0
 34 30  1  0  0  0  0
 35 34  2  0  0  0  0
 35 36  1  0  0  0  0
 37 35  1  0  0  0  0
 38 39  1  0  0  0  0
 38 37  1  0  0  0  0
 40 38  1  0  0  0  0
 41 40  2  0  0  0  0
 41 43  1  0  0  0  0
 42 41  1  0  0  0  0
 43 44  1  0  0  0  0
 43 37  2  0  0  0  0
 44 33  2  0  0  0  0
M  END
>  <minimizedAffinity>
-3.6437912

>  <minimizedRMSD>
6.55515385

$$$$
