
 OpenBabel03252508313D

 35 38  0  0  1  0  0  0  0  0999 V2000
   44.7110   34.1200   41.7040 N   0  0  0  0  0  0  0  0  0  0  0  0
   45.3150   32.9650   41.1570 C   0  0  1  0  0  0  0  0  0  0  0  0
   45.1090   32.7540   39.7030 C   0  0  0  0  0  0  0  0  0  0  0  0
   43.8400   33.0890   39.2120 N   0  0  0  0  0  0  0  0  0  0  0  0
   43.1830   34.1880   39.7970 C   0  0  0  0  0  0  0  0  0  0  0  0
   44.0850   34.9600   40.7220 C   0  0  0  0  0  0  0  0  0  0  0  0
   44.8680   32.0760   41.6770 H   0  0  0  0  0  0  0  0  0  0  0  0
   45.3530   31.7040   39.4350 H   0  0  0  0  0  0  0  0  0  0  0  0
   45.8630   33.4060   39.1730 H   0  0  0  0  0  0  0  0  0  0  0  0
   43.6440   32.8400   38.2470 H   0  0  0  0  0  0  0  0  0  0  0  0
   42.2660   33.9100   40.3900 H   0  0  0  0  0  0  0  0  0  0  0  0
   42.8150   34.8770   39.0130 H   0  0  0  0  0  0  0  0  0  0  0  0
   44.8790   35.5140   40.1570 H   0  0  0  0  0  0  0  0  0  0  0  0
   43.4340   35.7420   41.1640 H   0  0  0  0  0  0  0  0  0  0  0  0
   47.2420   31.5480   41.5190 C   0  0  0  0  0  3  0  0  0  0  0  0
   46.7960   32.8600   41.4280 C   0  0  0  0  0  0  0  0  0  0  0  0
   47.7260   33.8580   41.6050 C   0  0  0  0  0  0  0  0  0  0  0  0
   47.2780   34.8550   41.5150 H   0  0  0  0  0  0  0  0  0  0  0  0
   49.0230   33.5660   41.8570 C   0  0  0  0  0  0  0  0  0  0  0  0
   50.0210   34.4340   42.0470 N   0  0  0  0  0  0  0  0  0  0  0  0
   50.0450   35.4910   42.0470 H   0  0  0  0  0  0  0  0  0  0  0  0
   51.1210   33.7460   42.2630 N   0  0  0  0  0  0  0  0  0  0  0  0
   50.8450   32.4450   42.2130 C   0  0  0  0  0  0  0  0  0  0  0  0
   51.5180   31.5930   42.3460 H   0  0  0  0  0  0  0  0  0  0  0  0
   49.4960   32.2740   41.9530 C   0  0  0  0  0  0  0  0  0  0  0  0
   48.5890   31.2680   41.7810 C   0  0  0  0  0  3  0  0  0  0  0  0
   44.4010   35.6240   43.5340 C   0  0  0  0  0  0  0  0  0  0  0  0
   44.7800   34.3350   43.1000 C   0  0  0  0  0  0  0  0  0  0  0  0
   45.1830   33.4150   44.0480 C   0  0  0  0  0  0  0  0  0  0  0  0
   45.2120   33.7480   45.3660 N   0  0  0  0  0  0  0  0  0  0  0  0
   44.8400   35.0020   45.7640 C   0  0  0  0  0  0  0  0  0  0  0  0
   44.4440   35.9180   44.8580 N   0  0  0  0  0  0  0  0  0  0  0  0
   44.0650   36.4720   42.9630 H   0  0  0  0  0  0  0  0  0  0  0  0
   45.4630   32.4370   43.7180 H   0  0  0  0  0  0  0  0  0  0  0  0
   44.8710   35.2460   46.8260 H   0  0  0  0  0  0  0  0  0  0  0  0
  1 28  1  0  0  0  0
  2 16  1  0  0  0  0
  2  7  1  1  0  0  0
  2  1  1  0  0  0  0
  3  2  1  0  0  0  0
  4  3  1  0  0  0  0
  4  5  1  0  0  0  0
  5 11  1  0  0  0  0
  5  6  1  0  0  0  0
  6 14  1  0  0  0  0
  6  1  1  0  0  0  0
  8  3  1  0  0  0  0
  9  3  1  0  0  0  0
 10  4  1  0  0  0  0
 12  5  1  0  0  0  0
 13  6  1  0  0  0  0
 15 26  1  0  0  0  0
 16 15  2  0  0  0  0
 16 17  1  0  0  0  0
 17 19  2  0  0  0  0
 18 17  1  0  0  0  0
 19 25  1  0  0  0  0
 19 20  1  0  0  0  0
 20 22  1  0  0  0  0
 21 20  1  0  0  0  0
 23 22  2  0  0  0  0
 23 24  1  0  0  0  0
 25 23  1  0  0  0  0
 26 25  2  0  0  0  0
 27 32  1  0  0  0  0
 28 27  2  0  0  0  0
 28 29  1  0  0  0  0
 29 30  2  0  0  0  0
 30 31  1  0  0  0  0
 31 35  1  0  0  0  0
 32 31  2  0  0  0  0
 33 27  1  0  0  0  0
 34 29  1  0  0  0  0
M  END
>  <minimizedAffinity>
-4.72411203

>  <minimizedRMSD>
1.70801687

$$$$
