
 OpenBabel03252509083D

 44 48  0  0  0  0  0  0  0  0999 V2000
   47.5680   31.7820   39.0090 C   0  0  0  0  0  0  0  0  0  0  0  0
   47.1270   33.0670   38.8970 C   0  0  0  0  0  0  0  0  0  0  0  0
   47.7900   33.9530   38.0630 C   0  0  0  0  0  0  0  0  0  0  0  0
   48.8920   33.5450   37.3490 C   0  0  0  0  0  0  0  0  0  0  0  0
   49.3760   32.2410   37.4350 C   0  0  0  0  0  0  0  0  0  0  0  0
   48.6880   31.3680   38.2830 C   0  0  0  0  0  0  0  0  0  0  0  0
   47.4690   34.9650   37.9540 H   0  0  0  0  0  0  0  0  0  0  0  0
   49.4470   34.1680   36.6940 H   0  0  0  0  0  0  0  0  0  0  0  0
   50.2160   31.8600   36.9150 H   0  0  0  0  0  0  0  0  0  0  0  0
   49.0430   30.3490   38.3680 H   0  0  0  0  0  0  0  0  0  0  0  0
   45.1290   35.4480   43.0180 Cl  0  0  0  0  0  0  0  0  0  0  0  0
   45.0280   34.6610   41.4650 C   0  0  0  0  0  0  0  0  0  0  0  0
   46.1380   34.2010   40.8350 C   0  0  0  0  0  0  0  0  0  0  0  0
   45.9660   33.5930   39.6020 C   0  0  0  0  0  0  0  0  0  0  0  0
   44.7250   33.4590   39.0300 C   0  0  0  0  0  0  0  0  0  0  0  0
   43.6220   33.9230   39.6700 C   0  0  0  0  0  0  0  0  0  0  0  0
   43.7780   34.5310   40.9030 C   0  0  0  0  0  0  0  0  0  0  0  0
   44.6560   32.9770   38.0620 H   0  0  0  0  0  0  0  0  0  0  0  0
   42.6700   33.7950   39.1860 H   0  0  0  0  0  0  0  0  0  0  0  0
   42.8780   34.8880   41.3860 H   0  0  0  0  0  0  0  0  0  0  0  0
   49.4840   35.6350   41.8820 C   0  0  0  0  0  0  0  0  0  0  0  0
   48.2370   35.4820   41.2670 C   0  0  0  0  0  0  0  0  0  0  0  0
   47.4370   34.3690   41.4670 C   0  0  0  0  0  0  0  0  0  0  0  0
   47.9760   33.4690   42.2980 N   0  0  0  0  0  0  0  0  0  0  0  0
   49.1600   33.5940   42.8940 C   0  0  0  0  0  0  0  0  0  0  0  0
   49.9090   34.6690   42.6890 N   0  0  0  0  0  0  0  0  0  0  0  0
   50.0530   36.5370   41.6750 H   0  0  0  0  0  0  0  0  0  0  0  0
   47.8700   36.2720   40.5980 H   0  0  0  0  0  0  0  0  0  0  0  0
   49.3980   32.7330   43.5330 H   0  0  0  0  0  0  0  0  0  0  0  0
   46.8170   30.6650   40.0260 S   0  0  0  0  0  0  0  0  0  0  0  0
   47.1510   29.2310   39.5430 O   0  0  0  0  0  0  0  0  0  0  0  0
   47.5460   30.7570   41.3670 O   0  0  0  0  0  0  0  0  0  0  0  0
   44.1490   30.1080   39.3540 C   0  0  0  0  0  0  0  0  0  0  0  0
   45.1290   30.5080   40.2510 C   0  0  0  0  0  0  0  0  0  0  0  0
   44.4880   30.8500   41.4740 C   0  0  0  0  0  0  0  0  0  0  0  0
   45.1640   31.1900   42.2820 H   0  0  0  0  0  0  0  0  0  0  0  0
   43.1450   30.8120   41.7760 C   0  0  0  0  0  0  0  0  0  0  0  0
   42.4530   31.1100   42.8820 N   0  0  0  0  0  0  0  0  0  0  0  0
   42.8750   31.4520   43.7730 H   0  0  0  0  0  0  0  0  0  0  0  0
   41.1910   30.8840   42.5940 N   0  0  0  0  0  0  0  0  0  0  0  0
   41.0610   30.4480   41.3320 C   0  0  0  0  0  0  0  0  0  0  0  0
   40.1390   30.1790   40.8110 H   0  0  0  0  0  0  0  0  0  0  0  0
   42.3360   30.3940   40.7740 C   0  0  0  0  0  0  0  0  0  0  0  0
   42.7920   30.0250   39.5290 C   0  0  0  0  0  0  0  0  0  0  0  0
  1 30  1  0  0  0  0
  2  1  1  0  0  0  0
  2 14  1  0  0  0  0
  3  2  2  0  0  0  0
  4  5  2  0  0  0  0
  4  3  1  0  0  0  0
  5  6  1  0  0  0  0
  6 10  1  0  0  0  0
  6  1  2  0  0  0  0
  7  3  1  0  0  0  0
  8  4  1  0  0  0  0
  9  5  1  0  0  0  0
 12 11  1  0  0  0  0
 13 12  2  0  0  0  0
 13 23  1  0  0  0  0
 14 13  1  0  0  0  0
 15 14  2  0  0  0  0
 15 16  1  0  0  0  0
 16 17  2  0  0  0  0
 17 20  1  0  0  0  0
 17 12  1  0  0  0  0
 18 15  1  0  0  0  0
 19 16  1  0  0  0  0
 21 26  1  0  0  0  0
 22 23  1  0  0  0  0
 22 21  2  0  0  0  0
 23 24  2  0  0  0  0
 24 25  1  0  0  0  0
 25 29  1  0  0  0  0
 26 25  2  0  0  0  0
 27 21  1  0  0  0  0
 28 22  1  0  0  0  0
 30 34  1  0  0  0  0
 30 32  2  0  0  0  0
 31 30  2  0  0  0  0
 33 44  2  0  0  0  0
 33 34  1  0  0  0  0
 34 35  2  0  0  0  0
 35 37  1  0  0  0  0
 35 36  1  0  0  0  0
 37 38  1  0  0  0  0
 38 39  1  0  0  0  0
 40 38  1  0  0  0  0
 41 40  2  0  0  0  0
 42 41  1  0  0  0  0
 43 41  1  0  0  0  0
 43 37  2  0  0  0  0
 44 43  1  0  0  0  0
M  END
>  <minimizedAffinity>
-5.32642698

>  <minimizedRMSD>
1.34262371

$$$$
