
 OpenBabel03242519163D

 45 49  0  0  1  0  0  0  0  0999 V2000
   48.2950   34.2160   40.9290 C   0  0  0  0  0  0  0  0  0  0  0  0
   47.7730   34.3050   39.6580 C   0  0  0  0  0  0  0  0  0  0  0  0
   48.1230   33.4240   38.6330 C   0  0  0  0  0  0  0  0  0  0  0  0
   49.0250   32.4600   38.9740 N   0  0  0  0  0  0  0  0  0  0  0  0
   49.5300   32.3780   40.2140 C   0  0  0  0  0  0  0  0  0  0  0  0
   49.1700   33.2420   41.1690 N   0  0  0  0  0  0  0  0  0  0  0  0
   47.0660   35.0930   39.4660 H   0  0  0  0  0  0  0  0  0  0  0  0
   47.6930   33.5220   37.6450 H   0  0  0  0  0  0  0  0  0  0  0  0
   50.4960   31.3100   40.6040 C   0  0  2  0  0  0  0  0  0  0  0  0
   51.2660   31.4660   41.8780 C   0  0  0  0  0  0  0  0  0  0  0  0
   51.9430   31.6530   40.5140 C   0  0  1  0  0  0  0  0  0  0  0  0
   50.1770   30.2810   40.3440 H   0  0  0  0  0  0  0  0  0  0  0  0
   51.1780   32.4120   42.4500 H   0  0  0  0  0  0  0  0  0  0  0  0
   51.5160   30.5960   42.4980 H   0  0  0  0  0  0  0  0  0  0  0  0
   52.2370   32.6620   40.2140 H   0  0  0  0  0  0  0  0  0  0  0  0
   53.8970   30.7140   39.3250 C   0  0  0  0  0  3  0  0  0  0  0  0
   52.8370   30.5130   40.1750 C   0  0  0  0  0  0  0  0  0  0  0  0
   52.5680   29.2730   40.7320 C   0  0  0  0  0  0  0  0  0  0  0  0
   51.7420   29.0790   41.4050 H   0  0  0  0  0  0  0  0  0  0  0  0
   53.4430   28.2650   40.3680 C   0  0  0  0  0  0  0  0  0  0  0  0
   53.4780   26.9710   40.7150 N   0  0  0  0  0  0  0  0  0  0  0  0
   52.8520   26.4110   41.3440 H   0  0  0  0  0  0  0  0  0  0  0  0
   54.4790   26.3250   40.1530 N   0  0  0  0  0  0  0  0  0  0  0  0
   55.1750   27.2030   39.3810 C   0  0  0  0  0  0  0  0  0  0  0  0
   56.0550   27.0810   38.7580 H   0  0  0  0  0  0  0  0  0  0  0  0
   54.5170   28.4250   39.5210 C   0  0  0  0  0  0  0  0  0  0  0  0
   54.7450   29.6840   38.9880 C   0  0  0  0  0  3  0  0  0  0  0  0
   47.9100   35.1320   41.9830 C   0  0  0  0  0  0  0  0  0  0  0  0
   48.5430   35.0410   42.8790 H   0  0  0  0  0  0  0  0  0  0  0  0
   48.0540   36.1770   41.6040 H   0  0  0  0  0  0  0  0  0  0  0  0
   46.4590   34.9640   42.3060 C   0  0  0  0  0  0  0  0  0  0  0  0
   45.8930   35.9290   42.2470 H   0  0  0  0  0  0  0  0  0  0  0  0
   45.9800   34.2870   41.5880 H   0  0  0  0  0  0  0  0  0  0  0  0
   44.5230   36.4180   44.0500 Cl  0  0  0  0  0  0  0  0  0  0  0  0
   45.3700   34.9710   44.5680 C   0  0  0  0  0  0  0  0  0  0  0  0
   46.2280   34.3970   43.6620 C   0  0  0  0  0  0  0  0  0  0  0  0
   46.8890   33.2450   44.0630 C   0  0  0  0  0  0  0  0  0  0  0  0
   46.6870   32.7050   45.3240 C   0  0  0  0  0  0  0  0  0  0  0  0
   45.8080   33.3160   46.2190 C   0  0  0  0  0  0  0  0  0  0  0  0
   45.1590   34.4500   45.8180 C   0  0  0  0  0  0  0  0  0  0  0  0
   47.5830   32.7360   43.3990 H   0  0  0  0  0  0  0  0  0  0  0  0
   47.2200   31.8050   45.6040 H   0  0  0  0  0  0  0  0  0  0  0  0
   45.6410   32.9030   47.2090 H   0  0  0  0  0  0  0  0  0  0  0  0
   44.2590   35.1320   46.6460 O   0  0  0  0  0  0  0  0  0  0  0  0
   43.4420   34.6610   47.0350 H   0  0  0  0  0  0  0  0  0  0  0  0
  1  6  1  0  0  0  0
  1 28  1  0  0  0  0
  2  1  2  0  0  0  0
  3  4  2  0  0  0  0
  3  2  1  0  0  0  0
  4  5  1  0  0  0  0
  5  9  1  0  0  0  0
  5  6  2  0  0  0  0
  7  2  1  0  0  0  0
  8  3  1  0  0  0  0
  9 12  1  6  0  0  0
  9 10  1  0  0  0  0
 10 13  1  0  0  0  0
 10 14  1  0  0  0  0
 11 15  1  6  0  0  0
 11  9  1  0  0  0  0
 11 10  1  0  0  0  0
 16 17  1  0  0  0  0
 17 11  1  0  0  0  0
 17 18  2  0  0  0  0
 18 19  1  0  0  0  0
 20 21  1  0  0  0  0
 20 18  1  0  0  0  0
 21 22  1  0  0  0  0
 23 21  1  0  0  0  0
 24 26  1  0  0  0  0
 24 23  2  0  0  0  0
 25 24  1  0  0  0  0
 26 20  2  0  0  0  0
 27 16  2  0  0  0  0
 27 26  1  0  0  0  0
 28 31  1  0  0  0  0
 28 29  1  0  0  0  0
 30 28  1  0  0  0  0
 31 36  1  0  0  0  0
 32 31  1  0  0  0  0
 33 31  1  0  0  0  0
 34 35  1  0  0  0  0
 35 40  1  0  0  0  0
 36 37  1  0  0  0  0
 36 35  2  0  0  0  0
 37 38  2  0  0  0  0
 38 42  1  0  0  0  0
 38 39  1  0  0  0  0
 39 43  1  0  0  0  0
 40 39  2  0  0  0  0
 40 44  1  0  0  0  0
 41 37  1  0  0  0  0
 44 45  1  0  0  0  0
M  END
>  <minimizedAffinity>
-5.90596581

>  <minimizedRMSD>
0.174974367

$$$$
