
 OpenBabel03242522203D

 48 52  0  0  0  0  0  0  0  0999 V2000
   42.2320   34.9170   39.9330 C   0  0  0  0  0  0  0  0  0  0  0  0
   41.8200   35.0360   38.6360 C   0  0  0  0  0  0  0  0  0  0  0  0
   40.6960   34.4610   38.0660 C   0  0  0  0  0  0  0  0  0  0  0  0
   39.9440   33.7000   38.9250 C   0  0  0  0  0  0  0  0  0  0  0  0
   40.3480   33.5740   40.2310 C   0  0  0  0  0  0  0  0  0  0  0  0
   41.4390   34.1450   40.7400 N   0  0  0  0  0  0  0  0  0  0  0  0
   42.4750   35.6580   38.0200 H   0  0  0  0  0  0  0  0  0  0  0  0
   40.4620   34.6160   37.0420 H   0  0  0  0  0  0  0  0  0  0  0  0
   39.4550   32.7260   41.0660 C   0  0  0  0  0  0  0  0  0  0  0  0
   38.1110   33.0810   40.8150 F   0  0  0  0  0  0  0  0  0  0  0  0
   39.7600   32.7570   42.3980 F   0  0  0  0  0  0  0  0  0  0  0  0
   39.5420   31.4010   40.6740 F   0  0  0  0  0  0  0  0  0  0  0  0
   43.3830   35.4790   40.6040 C   0  0  0  0  0  0  0  0  0  0  0  0
   44.3150   35.0250   40.2000 H   0  0  0  0  0  0  0  0  0  0  0  0
   43.4430   36.5580   40.3380 H   0  0  0  0  0  0  0  0  0  0  0  0
   43.4230   35.3540   42.0940 C   0  0  0  0  0  0  0  0  0  0  0  0
   43.2740   36.3240   42.6020 H   0  0  0  0  0  0  0  0  0  0  0  0
   42.5720   34.7040   42.3930 H   0  0  0  0  0  0  0  0  0  0  0  0
   46.6400   33.5740   42.5470 C   0  0  0  0  0  0  0  0  0  0  0  0
   46.8240   33.8040   43.8710 C   0  0  0  0  0  0  0  0  0  0  0  0
   45.3300   34.7930   44.2920 S   0  0  0  0  0  0  0  0  0  0  0  0
   44.6930   34.7210   42.5450 C   0  0  0  0  0  0  0  0  0  0  0  0
   45.5470   34.0980   42.0800 N   0  0  0  0  0  0  0  0  0  0  0  0
   47.6420   33.4780   44.4800 H   0  0  0  0  0  0  0  0  0  0  0  0
   49.2230   32.5740   39.9970 C   0  0  0  0  0  0  0  0  0  0  0  0
   48.3580   33.3810   40.7570 C   0  0  0  0  0  0  0  0  0  0  0  0
   47.5740   32.8070   41.7060 C   0  0  0  0  0  0  0  0  0  0  0  0
   47.6890   31.4180   41.8620 N   0  0  0  0  0  0  0  0  0  0  0  0
   48.5320   30.6950   41.1100 C   0  0  0  0  0  0  0  0  0  0  0  0
   49.2980   31.2660   40.1800 N   0  0  0  0  0  0  0  0  0  0  0  0
   49.8690   32.9850   39.2280 H   0  0  0  0  0  0  0  0  0  0  0  0
   48.4690   29.6490   41.3860 H   0  0  0  0  0  0  0  0  0  0  0  0
   48.3640   34.7790   40.4710 N   0  0  0  0  0  0  0  0  0  0  0  0
   47.6790   34.8360   39.6770 H   0  0  0  0  0  0  0  0  0  0  0  0
   48.9550   35.4250   41.0100 H   0  0  0  0  0  0  0  0  0  0  0  0
   38.4660   32.9150   38.2710 S   0  0  0  0  0  0  0  0  0  0  0  0
   37.9840   31.3390   36.1650 C   0  0  0  0  0  3  0  0  0  0  0  0
   38.8320   31.4960   37.2680 C   0  0  0  0  0  0  0  0  0  0  0  0
   39.8400   30.5680   37.4700 C   0  0  0  0  0  0  0  0  0  0  0  0
   40.4280   30.7870   38.3450 H   0  0  0  0  0  0  0  0  0  0  0  0
   40.0100   29.5070   36.6060 C   0  0  0  0  0  0  0  0  0  0  0  0
   40.9230   28.5210   36.6430 N   0  0  0  0  0  0  0  0  0  0  0  0
   41.6700   28.4150   37.3730 H   0  0  0  0  0  0  0  0  0  0  0  0
   40.7210   27.7120   35.6130 N   0  0  0  0  0  0  0  0  0  0  0  0
   39.6620   28.1890   34.9050 C   0  0  0  0  0  0  0  0  0  0  0  0
   39.2160   27.7790   33.9990 H   0  0  0  0  0  0  0  0  0  0  0  0
   39.1920   29.3240   35.5100 C   0  0  0  0  0  0  0  0  0  0  0  0
   38.2010   30.2540   35.3290 C   0  0  0  0  0  3  0  0  0  0  0  0
  1 13  1  0  0  0  0
  1  6  1  0  0  0  0
  2  1  2  0  0  0  0
  3  2  1  0  0  0  0
  3  4  2  0  0  0  0
  4  5  1  0  0  0  0
  5  6  2  0  0  0  0
  5  9  1  0  0  0  0
  7  2  1  0  0  0  0
  8  3  1  0  0  0  0
  9 11  1  0  0  0  0
 10  9  1  0  0  0  0
 12  9  1  0  0  0  0
 13 16  1  0  0  0  0
 14 13  1  0  0  0  0
 15 13  1  0  0  0  0
 16 18  1  0  0  0  0
 16 22  1  0  0  0  0
 16 17  1  0  0  0  0
 19 20  2  0  0  0  0
 20 21  1  0  0  0  0
 20 24  1  0  0  0  0
 22 21  1  0  0  0  0
 23 22  2  0  0  0  0
 23 19  1  0  0  0  0
 25 30  2  0  0  0  0
 25 26  1  0  0  0  0
 26 27  2  0  0  0  0
 27 28  1  0  0  0  0
 27 19  1  0  0  0  0
 29 32  1  0  0  0  0
 29 28  2  0  0  0  0
 30 29  1  0  0  0  0
 31 25  1  0  0  0  0
 33 26  1  0  0  0  0
 33 35  1  0  0  0  0
 34 33  1  0  0  0  0
 36  4  1  0  0  0  0
 37 38  1  0  0  0  0
 38 39  2  0  0  0  0
 38 36  1  0  0  0  0
 39 40  1  0  0  0  0
 41 42  1  0  0  0  0
 41 39  1  0  0  0  0
 42 43  1  0  0  0  0
 44 42  1  0  0  0  0
 45 47  1  0  0  0  0
 45 44  2  0  0  0  0
 46 45  1  0  0  0  0
 47 41  2  0  0  0  0
 48 47  1  0  0  0  0
 48 37  2  0  0  0  0
M  END
>  <minimizedAffinity>
-5.79160213

>  <minimizedRMSD>
0.481067687

$$$$
