
 OpenBabel03242519263D

 43 47  0  0  0  0  0  0  0  0999 V2000
   41.1510   34.2470   40.6320 C   0  0  0  0  0  0  0  0  0  0  0  0
   40.5180   35.4380   40.2660 C   0  0  0  0  0  0  0  0  0  0  0  0
   39.1280   35.4710   40.0620 C   0  0  0  0  0  0  0  0  0  0  0  0
   38.4700   34.2740   40.2490 N   0  0  0  0  0  0  0  0  0  0  0  0
   39.1250   33.1290   40.6060 C   0  0  0  0  0  0  0  0  0  0  0  0
   40.4410   33.1280   40.7920 N   0  0  0  0  0  0  0  0  0  0  0  0
   40.9500   36.4150   40.0980 H   0  0  0  0  0  0  0  0  0  0  0  0
   38.5740   36.3490   39.7790 H   0  0  0  0  0  0  0  0  0  0  0  0
   42.6130   34.3430   40.8100 C   0  0  0  0  0  0  0  0  0  0  0  0
   43.2520   33.0710   41.1420 C   0  0  0  0  0  0  0  0  0  0  0  0
   43.8120   33.0030   42.5170 C   0  0  0  0  0  0  0  0  0  0  0  0
   44.7230   34.1690   42.8590 C   0  0  0  0  0  0  0  0  0  0  0  0
   44.3260   35.4740   42.2110 C   0  0  0  0  0  0  0  0  0  0  0  0
   42.8550   35.4460   41.8550 C   0  0  0  0  0  0  0  0  0  0  0  0
   43.0100   34.7820   39.8470 H   0  0  0  0  0  0  0  0  0  0  0  0
   44.1060   32.8680   40.4360 H   0  0  0  0  0  0  0  0  0  0  0  0
   42.5130   32.2560   41.0480 H   0  0  0  0  0  0  0  0  0  0  0  0
   43.1090   32.8030   43.3290 H   0  0  0  0  0  0  0  0  0  0  0  0
   44.5090   32.1110   42.5210 H   0  0  0  0  0  0  0  0  0  0  0  0
   44.6390   34.3370   43.9680 H   0  0  0  0  0  0  0  0  0  0  0  0
   45.7940   33.9540   42.6830 H   0  0  0  0  0  0  0  0  0  0  0  0
   44.5530   36.3480   42.8190 H   0  0  0  0  0  0  0  0  0  0  0  0
   44.8610   35.5040   41.2270 H   0  0  0  0  0  0  0  0  0  0  0  0
   42.2590   35.1180   42.7520 H   0  0  0  0  0  0  0  0  0  0  0  0
   42.5470   36.4210   41.4600 H   0  0  0  0  0  0  0  0  0  0  0  0
   38.2810   31.9490   40.7570 C   0  0  0  0  0  0  0  0  0  0  0  0
   36.9740   32.0760   40.4250 N   0  0  0  0  0  0  0  0  0  0  0  0
   36.3430   30.9060   40.6190 C   0  0  0  0  0  0  0  0  0  0  0  0
   37.2910   30.0310   41.0840 N   0  0  0  0  0  0  0  0  0  0  0  0
   38.4600   30.6710   41.1640 N   0  0  0  0  0  0  0  0  0  0  0  0
   35.3150   30.6190   40.4690 H   0  0  0  0  0  0  0  0  0  0  0  0
   37.1530   28.2380   42.7830 C   0  0  0  0  0  3  0  0  0  0  0  0
   37.1920   28.6600   41.4560 C   0  0  0  0  0  0  0  0  0  0  0  0
   37.1290   27.6690   40.4950 C   0  0  0  0  0  0  0  0  0  0  0  0
   37.1590   27.9910   39.4640 H   0  0  0  0  0  0  0  0  0  0  0  0
   37.0310   26.3240   40.7880 C   0  0  0  0  0  0  0  0  0  0  0  0
   36.9600   25.2460   39.9780 N   0  0  0  0  0  0  0  0  0  0  0  0
   36.9710   25.3050   38.9400 H   0  0  0  0  0  0  0  0  0  0  0  0
   36.8780   24.1760   40.7570 N   0  0  0  0  0  0  0  0  0  0  0  0
   36.8960   24.5490   42.0680 C   0  0  0  0  0  0  0  0  0  0  0  0
   36.8450   23.9180   42.9360 H   0  0  0  0  0  0  0  0  0  0  0  0
   36.9940   25.9200   42.1210 C   0  0  0  0  0  0  0  0  0  0  0  0
   37.0560   26.8970   43.0820 C   0  0  0  0  0  3  0  0  0  0  0  0
  1  6  1  0  0  0  0
  1  9  1  0  0  0  0
  2  1  2  0  0  0  0
  3  4  2  0  0  0  0
  3  2  1  0  0  0  0
  4  5  1  0  0  0  0
  5 26  1  0  0  0  0
  5  6  2  0  0  0  0
  7  2  1  0  0  0  0
  8  3  1  0  0  0  0
  9 10  1  0  0  0  0
  9 14  1  0  0  0  0
 10 11  1  0  0  0  0
 11 19  1  0  0  0  0
 11 12  1  0  0  0  0
 11 18  1  0  0  0  0
 12 20  1  0  0  0  0
 13 22  1  0  0  0  0
 13 12  1  0  0  0  0
 14 13  1  0  0  0  0
 14 24  1  0  0  0  0
 15  9  1  0  0  0  0
 16 10  1  0  0  0  0
 17 10  1  0  0  0  0
 21 12  1  0  0  0  0
 23 13  1  0  0  0  0
 25 14  1  0  0  0  0
 26 30  2  0  0  0  0
 27 28  2  0  0  0  0
 27 26  1  0  0  0  0
 28 29  1  0  0  0  0
 29 30  1  0  0  0  0
 29 33  1  0  0  0  0
 31 28  1  0  0  0  0
 32 43  1  0  0  0  0
 33 32  2  0  0  0  0
 34 36  2  0  0  0  0
 34 33  1  0  0  0  0
 35 34  1  0  0  0  0
 36 42  1  0  0  0  0
 37 39  1  0  0  0  0
 37 36  1  0  0  0  0
 38 37  1  0  0  0  0
 39 40  2  0  0  0  0
 40 42  1  0  0  0  0
 40 41  1  0  0  0  0
 42 43  2  0  0  0  0
M  END
>  <minimizedAffinity>
-7.02529716

$$$$

 OpenBabel03242519263D

 43 47  0  0  0  0  0  0  0  0999 V2000
   41.0010   34.1790   39.2540 C   0  0  0  0  0  0  0  0  0  0  0  0
   40.6500   35.3930   39.8490 C   0  0  0  0  0  0  0  0  0  0  0  0
   39.5290   35.4740   40.6920 C   0  0  0  0  0  0  0  0  0  0  0  0
   38.8350   34.2970   40.8750 N   0  0  0  0  0  0  0  0  0  0  0  0
   39.2090   33.1280   40.2740 C   0  0  0  0  0  0  0  0  0  0  0  0
   40.2740   33.0820   39.4800 N   0  0  0  0  0  0  0  0  0  0  0  0
   41.1320   36.3570   39.7640 H   0  0  0  0  0  0  0  0  0  0  0  0
   39.1990   36.3730   41.1840 H   0  0  0  0  0  0  0  0  0  0  0  0
   42.1940   34.2270   38.3860 C   0  0  0  0  0  0  0  0  0  0  0  0
   42.1170   33.3400   37.2270 C   0  0  0  0  0  0  0  0  0  0  0  0
   43.0710   32.2020   37.2570 C   0  0  0  0  0  0  0  0  0  0  0  0
   44.5070   32.6200   37.5220 C   0  0  0  0  0  0  0  0  0  0  0  0
   44.6440   33.8150   38.4340 C   0  0  0  0  0  0  0  0  0  0  0  0
   43.4060   33.9520   39.2940 C   0  0  0  0  0  0  0  0  0  0  0  0
   42.3110   35.3110   38.0880 H   0  0  0  0  0  0  0  0  0  0  0  0
   42.3320   33.9150   36.2820 H   0  0  0  0  0  0  0  0  0  0  0  0
   41.1000   32.9140   37.1600 H   0  0  0  0  0  0  0  0  0  0  0  0
   42.7950   31.3400   37.8700 H   0  0  0  0  0  0  0  0  0  0  0  0
   43.1020   31.7980   36.2010 H   0  0  0  0  0  0  0  0  0  0  0  0
   45.0060   31.7650   38.0550 H   0  0  0  0  0  0  0  0  0  0  0  0
   45.0980   32.7630   36.5970 H   0  0  0  0  0  0  0  0  0  0  0  0
   45.5370   33.7870   39.0560 H   0  0  0  0  0  0  0  0  0  0  0  0
   44.6340   34.7150   37.7670 H   0  0  0  0  0  0  0  0  0  0  0  0
   43.1760   32.9620   39.7770 H   0  0  0  0  0  0  0  0  0  0  0  0
   43.5380   34.7690   40.0130 H   0  0  0  0  0  0  0  0  0  0  0  0
   38.3620   31.9770   40.5670 C   0  0  0  0  0  0  0  0  0  0  0  0
   37.0250   32.1400   40.4270 N   0  0  0  0  0  0  0  0  0  0  0  0
   36.3960   30.9940   40.7310 C   0  0  0  0  0  0  0  0  0  0  0  0
   37.3760   30.0950   41.0690 N   0  0  0  0  0  0  0  0  0  0  0  0
   38.5620   30.7000   40.9670 N   0  0  0  0  0  0  0  0  0  0  0  0
   35.3480   30.7360   40.7370 H   0  0  0  0  0  0  0  0  0  0  0  0
   37.4130   28.3340   42.8050 C   0  0  0  0  0  3  0  0  0  0  0  0
   37.2930   28.7330   41.4750 C   0  0  0  0  0  0  0  0  0  0  0  0
   37.0830   27.7300   40.5490 C   0  0  0  0  0  0  0  0  0  0  0  0
   36.9890   28.0350   39.5170 H   0  0  0  0  0  0  0  0  0  0  0  0
   36.9920   26.3920   40.8780 C   0  0  0  0  0  0  0  0  0  0  0  0
   36.7940   25.3050   40.1030 N   0  0  0  0  0  0  0  0  0  0  0  0
   36.6730   25.3470   39.0710 H   0  0  0  0  0  0  0  0  0  0  0  0
   36.7860   24.2490   40.9060 N   0  0  0  0  0  0  0  0  0  0  0  0
   36.9790   24.6410   42.1970 C   0  0  0  0  0  0  0  0  0  0  0  0
   37.0250   24.0260   43.0760 H   0  0  0  0  0  0  0  0  0  0  0  0
   37.1160   26.0100   42.2110 C   0  0  0  0  0  0  0  0  0  0  0  0
   37.3230   27.0000   43.1380 C   0  0  0  0  0  3  0  0  0  0  0  0
  1  6  2  0  0  0  0
  1  2  1  0  0  0  0
  2  3  2  0  0  0  0
  3  4  1  0  0  0  0
  3  8  1  0  0  0  0
  5 26  1  0  0  0  0
  5  4  2  0  0  0  0
  6  5  1  0  0  0  0
  7  2  1  0  0  0  0
  9  1  1  0  0  0  0
  9 14  1  0  0  0  0
 10 11  1  0  0  0  0
 10  9  1  0  0  0  0
 11 12  1  0  0  0  0
 11 18  1  0  0  0  0
 12 20  1  0  0  0  0
 12 13  1  0  0  0  0
 13 22  1  0  0  0  0
 13 14  1  0  0  0  0
 14 24  1  0  0  0  0
 14 25  1  0  0  0  0
 15  9  1  0  0  0  0
 16 10  1  0  0  0  0
 17 10  1  0  0  0  0
 19 11  1  0  0  0  0
 21 12  1  0  0  0  0
 23 13  1  0  0  0  0
 26 30  2  0  0  0  0
 27 26  1  0  0  0  0
 27 28  2  0  0  0  0
 28 31  1  0  0  0  0
 28 29  1  0  0  0  0
 29 33  1  0  0  0  0
 30 29  1  0  0  0  0
 32 43  1  0  0  0  0
 33 32  2  0  0  0  0
 34 36  2  0  0  0  0
 34 33  1  0  0  0  0
 35 34  1  0  0  0  0
 36 42  1  0  0  0  0
 37 36  1  0  0  0  0
 37 39  1  0  0  0  0
 38 37  1  0  0  0  0
 39 40  2  0  0  0  0
 40 42  1  0  0  0  0
 40 41  1  0  0  0  0
 42 43  2  0  0  0  0
M  END
>  <minimizedAffinity>
-6.84952068

$$$$

 OpenBabel03242519263D

 43 47  0  0  0  0  0  0  0  0999 V2000
   37.9300   24.6950   41.6360 C   0  0  0  0  0  0  0  0  0  0  0  0
   38.9320   24.4690   42.5840 C   0  0  0  0  0  0  0  0  0  0  0  0
   39.5800   25.5490   43.2050 C   0  0  0  0  0  0  0  0  0  0  0  0
   39.1590   26.8020   42.8150 N   0  0  0  0  0  0  0  0  0  0  0  0
   38.1760   26.9840   41.8830 C   0  0  0  0  0  0  0  0  0  0  0  0
   37.5800   25.9420   41.3110 N   0  0  0  0  0  0  0  0  0  0  0  0
   39.3240   23.5300   42.9480 H   0  0  0  0  0  0  0  0  0  0  0  0
   40.3580   25.4510   43.9430 H   0  0  0  0  0  0  0  0  0  0  0  0
   37.3320   23.4800   41.0520 C   0  0  0  0  0  0  0  0  0  0  0  0
   38.3030   22.5850   40.4260 C   0  0  0  0  0  0  0  0  0  0  0  0
   38.1850   22.4840   38.9480 C   0  0  0  0  0  0  0  0  0  0  0  0
   36.7770   22.1690   38.4720 C   0  0  0  0  0  0  0  0  0  0  0  0
   35.6880   22.7620   39.3320 C   0  0  0  0  0  0  0  0  0  0  0  0
   36.2240   23.9550   40.0950 C   0  0  0  0  0  0  0  0  0  0  0  0
   36.7720   22.9790   41.8970 H   0  0  0  0  0  0  0  0  0  0  0  0
   38.1880   21.5400   40.8300 H   0  0  0  0  0  0  0  0  0  0  0  0
   39.3250   22.9420   40.6500 H   0  0  0  0  0  0  0  0  0  0  0  0
   38.6260   23.2920   38.3590 H   0  0  0  0  0  0  0  0  0  0  0  0
   38.7770   21.5660   38.6540 H   0  0  0  0  0  0  0  0  0  0  0  0
   36.6600   22.6390   37.4580 H   0  0  0  0  0  0  0  0  0  0  0  0
   36.6030   21.0890   38.3080 H   0  0  0  0  0  0  0  0  0  0  0  0
   34.7950   23.0390   38.7730 H   0  0  0  0  0  0  0  0  0  0  0  0
   35.4630   21.9950   40.1170 H   0  0  0  0  0  0  0  0  0  0  0  0
   36.7480   24.6490   39.3820 H   0  0  0  0  0  0  0  0  0  0  0  0
   35.4140   24.4350   40.6560 H   0  0  0  0  0  0  0  0  0  0  0  0
   37.8530   28.3740   41.5790 C   0  0  0  0  0  0  0  0  0  0  0  0
   36.5440   28.7220   41.5960 N   0  0  0  0  0  0  0  0  0  0  0  0
   36.4200   30.0270   41.2990 C   0  0  0  0  0  0  0  0  0  0  0  0
   37.6930   30.4960   41.0940 N   0  0  0  0  0  0  0  0  0  0  0  0
   38.5520   29.4890   41.2650 N   0  0  0  0  0  0  0  0  0  0  0  0
   35.5510   30.6590   41.2170 H   0  0  0  0  0  0  0  0  0  0  0  0
   37.3740   32.7370   40.0960 C   0  0  0  0  0  3  0  0  0  0  0  0
   38.1640   31.7960   40.7540 C   0  0  0  0  0  0  0  0  0  0  0  0
   39.4510   32.1880   41.0690 C   0  0  0  0  0  0  0  0  0  0  0  0
   40.0670   31.4620   41.5800 H   0  0  0  0  0  0  0  0  0  0  0  0
   39.9670   33.4320   40.7690 C   0  0  0  0  0  0  0  0  0  0  0  0
   41.1860   33.9630   41.0050 N   0  0  0  0  0  0  0  0  0  0  0  0
   41.9520   33.4520   41.4860 H   0  0  0  0  0  0  0  0  0  0  0  0
   41.1760   35.1960   40.5170 N   0  0  0  0  0  0  0  0  0  0  0  0
   39.9610   35.4720   39.9650 C   0  0  0  0  0  0  0  0  0  0  0  0
   39.6400   36.3810   39.4900 H   0  0  0  0  0  0  0  0  0  0  0  0
   39.1640   34.3600   40.1100 C   0  0  0  0  0  0  0  0  0  0  0  0
   37.8840   33.9800   39.7930 C   0  0  0  0  0  3  0  0  0  0  0  0
  1  2  1  0  0  0  0
  2  7  1  0  0  0  0
  2  3  2  0  0  0  0
  3  8  1  0  0  0  0
  4  3  1  0  0  0  0
  5  4  2  0  0  0  0
  6  1  2  0  0  0  0
  6  5  1  0  0  0  0
  9  1  1  0  0  0  0
  9 15  1  0  0  0  0
 10 17  1  0  0  0  0
 10 16  1  0  0  0  0
 10  9  1  0  0  0  0
 11 10  1  0  0  0  0
 12 11  1  0  0  0  0
 12 13  1  0  0  0  0
 13 14  1  0  0  0  0
 13 23  1  0  0  0  0
 14 25  1  0  0  0  0
 14  9  1  0  0  0  0
 18 11  1  0  0  0  0
 19 11  1  0  0  0  0
 20 12  1  0  0  0  0
 21 12  1  0  0  0  0
 22 13  1  0  0  0  0
 24 14  1  0  0  0  0
 26 27  1  0  0  0  0
 26  5  1  0  0  0  0
 28 27  2  0  0  0  0
 29 30  1  0  0  0  0
 29 28  1  0  0  0  0
 30 26  2  0  0  0  0
 31 28  1  0  0  0  0
 32 33  1  0  0  0  0
 33 34  2  0  0  0  0
 33 29  1  0  0  0  0
 34 35  1  0  0  0  0
 36 37  1  0  0  0  0
 36 34  1  0  0  0  0
 37 38  1  0  0  0  0
 39 37  1  0  0  0  0
 40 42  1  0  0  0  0
 40 39  2  0  0  0  0
 41 40  1  0  0  0  0
 42 36  2  0  0  0  0
 43 32  2  0  0  0  0
 43 42  1  0  0  0  0
M  END
>  <minimizedAffinity>
-6.7156415

$$$$

 OpenBabel03242519263D

 43 47  0  0  0  0  0  0  0  0999 V2000
   37.0690   28.4250   41.6190 C   0  0  0  0  0  0  0  0  0  0  0  0
   35.8170   28.6730   41.0520 C   0  0  0  0  0  0  0  0  0  0  0  0
   35.5940   29.8400   40.3030 C   0  0  0  0  0  0  0  0  0  0  0  0
   36.6750   30.6850   40.1780 N   0  0  0  0  0  0  0  0  0  0  0  0
   37.8870   30.4080   40.7480 C   0  0  0  0  0  0  0  0  0  0  0  0
   38.0680   29.2960   41.4530 N   0  0  0  0  0  0  0  0  0  0  0  0
   34.9180   28.0730   41.0970 H   0  0  0  0  0  0  0  0  0  0  0  0
   34.6570   30.0970   39.8380 H   0  0  0  0  0  0  0  0  0  0  0  0
   37.1730   27.1700   42.3870 C   0  0  0  0  0  0  0  0  0  0  0  0
   38.3650   27.0900   43.2300 C   0  0  0  0  0  0  0  0  0  0  0  0
   39.3560   26.0680   42.8020 C   0  0  0  0  0  0  0  0  0  0  0  0
   38.7530   24.6910   42.5880 C   0  0  0  0  0  0  0  0  0  0  0  0
   37.3360   24.7100   42.0700 C   0  0  0  0  0  0  0  0  0  0  0  0
   37.0620   26.0230   41.3670 C   0  0  0  0  0  0  0  0  0  0  0  0
   36.2190   27.0990   42.9880 H   0  0  0  0  0  0  0  0  0  0  0  0
   38.0770   26.8350   44.2890 H   0  0  0  0  0  0  0  0  0  0  0  0
   38.8800   28.0670   43.2280 H   0  0  0  0  0  0  0  0  0  0  0  0
   40.0200   26.3370   41.9770 H   0  0  0  0  0  0  0  0  0  0  0  0
   40.0480   25.9220   43.6850 H   0  0  0  0  0  0  0  0  0  0  0  0
   39.3660   24.1830   41.7940 H   0  0  0  0  0  0  0  0  0  0  0  0
   38.8360   24.0350   43.4760 H   0  0  0  0  0  0  0  0  0  0  0  0
   37.1010   23.8720   41.4140 H   0  0  0  0  0  0  0  0  0  0  0  0
   36.6760   24.7240   42.9750 H   0  0  0  0  0  0  0  0  0  0  0  0
   37.8820   26.2270   40.6240 H   0  0  0  0  0  0  0  0  0  0  0  0
   36.0610   26.0060   40.9190 H   0  0  0  0  0  0  0  0  0  0  0  0
   38.9240   31.4090   40.5260 C   0  0  0  0  0  0  0  0  0  0  0  0
   38.6470   32.6810   40.8990 N   0  0  0  0  0  0  0  0  0  0  0  0
   39.7000   33.4700   40.6290 C   0  0  0  0  0  0  0  0  0  0  0  0
   40.6560   32.6580   40.0740 N   0  0  0  0  0  0  0  0  0  0  0  0
   40.1770   31.4140   40.0150 N   0  0  0  0  0  0  0  0  0  0  0  0
   39.8560   34.5270   40.7810 H   0  0  0  0  0  0  0  0  0  0  0  0
   42.8450   33.7920   40.2780 C   0  0  0  0  0  3  0  0  0  0  0  0
   41.9660   32.9510   39.5980 C   0  0  0  0  0  0  0  0  0  0  0  0
   42.4300   32.4010   38.4190 C   0  0  0  0  0  0  0  0  0  0  0  0
   41.7520   31.7480   37.8890 H   0  0  0  0  0  0  0  0  0  0  0  0
   43.6880   32.6430   37.9040 C   0  0  0  0  0  0  0  0  0  0  0  0
   44.2850   32.1910   36.7810 N   0  0  0  0  0  0  0  0  0  0  0  0
   43.8280   31.5450   36.1070 H   0  0  0  0  0  0  0  0  0  0  0  0
   45.5000   32.7210   36.7430 N   0  0  0  0  0  0  0  0  0  0  0  0
   45.6980   33.5150   37.8330 C   0  0  0  0  0  0  0  0  0  0  0  0
   46.5740   34.0820   38.0890 H   0  0  0  0  0  0  0  0  0  0  0  0
   44.5540   33.4870   38.5960 C   0  0  0  0  0  0  0  0  0  0  0  0
   44.1020   34.0370   39.7680 C   0  0  0  0  0  3  0  0  0  0  0  0
  1  9  1  0  0  0  0
  2  7  1  0  0  0  0
  2  1  2  0  0  0  0
  3  2  1  0  0  0  0
  4  3  2  0  0  0  0
  4  5  1  0  0  0  0
  5  6  2  0  0  0  0
  6  1  1  0  0  0  0
  8  3  1  0  0  0  0
  9 15  1  0  0  0  0
  9 10  1  0  0  0  0
 10 16  1  0  0  0  0
 11 10  1  0  0  0  0
 11 19  1  0  0  0  0
 12 11  1  0  0  0  0
 12 21  1  0  0  0  0
 13 12  1  0  0  0  0
 13 23  1  0  0  0  0
 14 13  1  0  0  0  0
 14  9  1  0  0  0  0
 17 10  1  0  0  0  0
 18 11  1  0  0  0  0
 20 12  1  0  0  0  0
 22 13  1  0  0  0  0
 24 14  1  0  0  0  0
 25 14  1  0  0  0  0
 26  5  1  0  0  0  0
 26 27  1  0  0  0  0
 28 31  1  0  0  0  0
 28 27  2  0  0  0  0
 29 28  1  0  0  0  0
 30 29  1  0  0  0  0
 30 26  2  0  0  0  0
 33 29  1  0  0  0  0
 33 32  2  0  0  0  0
 34 33  1  0  0  0  0
 35 34  1  0  0  0  0
 36 34  2  0  0  0  0
 36 42  1  0  0  0  0
 37 36  1  0  0  0  0
 38 37  1  0  0  0  0
 39 37  1  0  0  0  0
 39 40  2  0  0  0  0
 40 41  1  0  0  0  0
 40 42  1  0  0  0  0
 42 43  2  0  0  0  0
 43 32  1  0  0  0  0
M  END
>  <minimizedAffinity>
-6.35873938

$$$$

 OpenBabel03242519263D

 43 47  0  0  0  0  0  0  0  0999 V2000
   40.0860   33.3170   40.3400 C   0  0  0  0  0  0  0  0  0  0  0  0
   39.0070   34.1290   39.9820 C   0  0  0  0  0  0  0  0  0  0  0  0
   37.6920   33.6400   40.0600 C   0  0  0  0  0  0  0  0  0  0  0  0
   37.5640   32.3420   40.5030 N   0  0  0  0  0  0  0  0  0  0  0  0
   38.6440   31.5770   40.8440 C   0  0  0  0  0  0  0  0  0  0  0  0
   39.8780   32.0670   40.7600 N   0  0  0  0  0  0  0  0  0  0  0  0
   39.0120   35.1510   39.6260 H   0  0  0  0  0  0  0  0  0  0  0  0
   36.8140   34.2070   39.8010 H   0  0  0  0  0  0  0  0  0  0  0  0
   41.4150   33.9450   40.2090 C   0  0  0  0  0  0  0  0  0  0  0  0
   41.4980   34.9310   39.1330 C   0  0  0  0  0  0  0  0  0  0  0  0
   42.3690   34.5320   37.9970 C   0  0  0  0  0  0  0  0  0  0  0  0
   43.7550   34.0810   38.4240 C   0  0  0  0  0  0  0  0  0  0  0  0
   43.7920   33.3760   39.7580 C   0  0  0  0  0  0  0  0  0  0  0  0
   42.4290   32.7950   40.0710 C   0  0  0  0  0  0  0  0  0  0  0  0
   41.6420   34.3950   41.2200 H   0  0  0  0  0  0  0  0  0  0  0  0
   41.9090   35.9040   39.5270 H   0  0  0  0  0  0  0  0  0  0  0  0
   40.4880   35.1120   38.7240 H   0  0  0  0  0  0  0  0  0  0  0  0
   41.9420   33.8440   37.2630 H   0  0  0  0  0  0  0  0  0  0  0  0
   42.5660   35.4810   37.4120 H   0  0  0  0  0  0  0  0  0  0  0  0
   44.1040   33.3280   37.6660 H   0  0  0  0  0  0  0  0  0  0  0  0
   44.5080   34.8920   38.3890 H   0  0  0  0  0  0  0  0  0  0  0  0
   44.5570   32.6030   39.8200 H   0  0  0  0  0  0  0  0  0  0  0  0
   43.9490   34.1760   40.5260 H   0  0  0  0  0  0  0  0  0  0  0  0
   42.0630   32.2020   39.1880 H   0  0  0  0  0  0  0  0  0  0  0  0
   42.4750   32.2130   40.9990 H   0  0  0  0  0  0  0  0  0  0  0  0
   38.3360   30.2230   41.2890 C   0  0  0  0  0  0  0  0  0  0  0  0
   38.5150   29.9470   42.6020 N   0  0  0  0  0  0  0  0  0  0  0  0
   38.1860   28.6670   42.8440 C   0  0  0  0  0  0  0  0  0  0  0  0
   37.7910   28.1390   41.6410 N   0  0  0  0  0  0  0  0  0  0  0  0
   37.8860   29.0870   40.7070 N   0  0  0  0  0  0  0  0  0  0  0  0
   38.1950   28.0900   43.7550 H   0  0  0  0  0  0  0  0  0  0  0  0
   37.3370   25.7740   42.2080 C   0  0  0  0  0  3  0  0  0  0  0  0
   37.3380   26.8320   41.3010 C   0  0  0  0  0  0  0  0  0  0  0  0
   36.8710   26.5540   40.0310 C   0  0  0  0  0  0  0  0  0  0  0  0
   36.8700   27.3720   39.3250 H   0  0  0  0  0  0  0  0  0  0  0  0
   36.4180   25.3110   39.6380 C   0  0  0  0  0  0  0  0  0  0  0  0
   35.9370   24.8810   38.4520 N   0  0  0  0  0  0  0  0  0  0  0  0
   35.8390   25.4900   37.6160 H   0  0  0  0  0  0  0  0  0  0  0  0
   35.6380   23.5970   38.5940 N   0  0  0  0  0  0  0  0  0  0  0  0
   35.9210   23.1870   39.8630 C   0  0  0  0  0  0  0  0  0  0  0  0
   35.7920   22.2090   40.2880 H   0  0  0  0  0  0  0  0  0  0  0  0
   36.4240   24.2640   40.5570 C   0  0  0  0  0  0  0  0  0  0  0  0
   36.8860   24.5310   41.8200 C   0  0  0  0  0  3  0  0  0  0  0  0
  1  6  1  0  0  0  0
  2  3  1  0  0  0  0
  2  1  2  0  0  0  0
  3  4  2  0  0  0  0
  4  5  1  0  0  0  0
  5 26  1  0  0  0  0
  6  5  2  0  0  0  0
  7  2  1  0  0  0  0
  8  3  1  0  0  0  0
  9  1  1  0  0  0  0
  9 15  1  0  0  0  0
 10 16  1  0  0  0  0
 10  9  1  0  0  0  0
 11 12  1  0  0  0  0
 11 10  1  0  0  0  0
 12 13  1  0  0  0  0
 13 22  1  0  0  0  0
 13 14  1  0  0  0  0
 13 23  1  0  0  0  0
 14  9  1  0  0  0  0
 14 25  1  0  0  0  0
 17 10  1  0  0  0  0
 18 11  1  0  0  0  0
 19 11  1  0  0  0  0
 20 12  1  0  0  0  0
 21 12  1  0  0  0  0
 24 14  1  0  0  0  0
 26 27  1  0  0  0  0
 27 28  2  0  0  0  0
 28 31  1  0  0  0  0
 29 28  1  0  0  0  0
 30 26  2  0  0  0  0
 30 29  1  0  0  0  0
 33 29  1  0  0  0  0
 33 32  2  0  0  0  0
 34 33  1  0  0  0  0
 35 34  1  0  0  0  0
 36 34  2  0  0  0  0
 36 42  1  0  0  0  0
 37 39  1  0  0  0  0
 37 36  1  0  0  0  0
 38 37  1  0  0  0  0
 39 40  2  0  0  0  0
 40 41  1  0  0  0  0
 40 42  1  0  0  0  0
 42 43  2  0  0  0  0
 43 32  1  0  0  0  0
M  END
>  <minimizedAffinity>
-6.29513407

$$$$

 OpenBabel03242519263D

 43 47  0  0  0  0  0  0  0  0999 V2000
   32.5570   29.3000   36.5730 C   0  0  0  0  0  0  0  0  0  0  0  0
   33.2440   29.1370   35.3670 C   0  0  0  0  0  0  0  0  0  0  0  0
   34.5930   28.7460   35.3640 C   0  0  0  0  0  0  0  0  0  0  0  0
   35.1580   28.5440   36.6040 N   0  0  0  0  0  0  0  0  0  0  0  0
   34.4540   28.7150   37.7640 C   0  0  0  0  0  0  0  0  0  0  0  0
   33.1780   29.0850   37.7360 N   0  0  0  0  0  0  0  0  0  0  0  0
   32.8850   29.2720   34.3560 H   0  0  0  0  0  0  0  0  0  0  0  0
   35.1840   28.6010   34.4760 H   0  0  0  0  0  0  0  0  0  0  0  0
   31.1490   29.7180   36.4420 C   0  0  0  0  0  0  0  0  0  0  0  0
   30.9320   30.7560   35.4350 C   0  0  0  0  0  0  0  0  0  0  0  0
   30.5220   32.0740   35.9860 C   0  0  0  0  0  0  0  0  0  0  0  0
   29.3430   31.9930   36.9390 C   0  0  0  0  0  0  0  0  0  0  0  0
   29.2940   30.7250   37.7560 C   0  0  0  0  0  0  0  0  0  0  0  0
   30.6790   30.1200   37.8520 C   0  0  0  0  0  0  0  0  0  0  0  0
   30.5690   28.7750   36.2150 H   0  0  0  0  0  0  0  0  0  0  0  0
   30.1210   30.4410   34.7190 H   0  0  0  0  0  0  0  0  0  0  0  0
   31.8660   30.9140   34.8670 H   0  0  0  0  0  0  0  0  0  0  0  0
   31.3130   32.7080   36.3940 H   0  0  0  0  0  0  0  0  0  0  0  0
   30.1160   32.6610   35.1090 H   0  0  0  0  0  0  0  0  0  0  0  0
   29.4590   32.8320   37.6780 H   0  0  0  0  0  0  0  0  0  0  0  0
   28.3690   32.1790   36.4470 H   0  0  0  0  0  0  0  0  0  0  0  0
   28.8720   30.8630   38.7500 H   0  0  0  0  0  0  0  0  0  0  0  0
   28.7000   29.9920   37.1520 H   0  0  0  0  0  0  0  0  0  0  0  0
   31.4110   30.9110   38.1770 H   0  0  0  0  0  0  0  0  0  0  0  0
   30.6610   29.2450   38.5120 H   0  0  0  0  0  0  0  0  0  0  0  0
   35.2020   28.4660   38.9910 C   0  0  0  0  0  0  0  0  0  0  0  0
   35.0150   29.3320   40.0150 N   0  0  0  0  0  0  0  0  0  0  0  0
   35.7710   28.9620   41.0630 C   0  0  0  0  0  0  0  0  0  0  0  0
   36.4440   27.8330   40.6710 N   0  0  0  0  0  0  0  0  0  0  0  0
   36.0940   27.5410   39.4160 N   0  0  0  0  0  0  0  0  0  0  0  0
   35.8890   29.3950   42.0440 H   0  0  0  0  0  0  0  0  0  0  0  0
   37.3190   25.6230   41.3560 C   0  0  0  0  0  3  0  0  0  0  0  0
   37.3780   27.0150   41.3680 C   0  0  0  0  0  0  0  0  0  0  0  0
   38.4040   27.5800   42.1020 C   0  0  0  0  0  0  0  0  0  0  0  0
   38.4530   28.6590   42.1140 H   0  0  0  0  0  0  0  0  0  0  0  0
   39.3410   26.8440   42.7980 C   0  0  0  0  0  0  0  0  0  0  0  0
   40.3890   27.2370   43.5520 N   0  0  0  0  0  0  0  0  0  0  0  0
   40.6410   28.2330   43.7120 H   0  0  0  0  0  0  0  0  0  0  0  0
   40.9800   26.1390   44.0040 N   0  0  0  0  0  0  0  0  0  0  0  0
   40.3230   25.0340   43.5510 C   0  0  0  0  0  0  0  0  0  0  0  0
   40.5530   24.0020   43.7410 H   0  0  0  0  0  0  0  0  0  0  0  0
   39.2670   25.4530   42.7760 C   0  0  0  0  0  0  0  0  0  0  0  0
   38.2520   24.8840   42.0500 C   0  0  0  0  0  3  0  0  0  0  0  0
  1  6  1  0  0  0  0
  2  1  2  0  0  0  0
  3  2  1  0  0  0  0
  3  4  2  0  0  0  0
  4  5  1  0  0  0  0
  5 26  1  0  0  0  0
  6  5  2  0  0  0  0
  7  2  1  0  0  0  0
  8  3  1  0  0  0  0
  9  1  1  0  0  0  0
  9 14  1  0  0  0  0
 10 11  1  0  0  0  0
 10  9  1  0  0  0  0
 11 18  1  0  0  0  0
 11 12  1  0  0  0  0
 12 20  1  0  0  0  0
 12 13  1  0  0  0  0
 13 14  1  0  0  0  0
 13 22  1  0  0  0  0
 14 24  1  0  0  0  0
 14 25  1  0  0  0  0
 15  9  1  0  0  0  0
 16 10  1  0  0  0  0
 17 10  1  0  0  0  0
 19 11  1  0  0  0  0
 21 12  1  0  0  0  0
 23 13  1  0  0  0  0
 26 30  2  0  0  0  0
 26 27  1  0  0  0  0
 27 28  2  0  0  0  0
 28 31  1  0  0  0  0
 29 28  1  0  0  0  0
 29 33  1  0  0  0  0
 30 29  1  0  0  0  0
 32 33  2  0  0  0  0
 32 43  1  0  0  0  0
 33 34  1  0  0  0  0
 34 35  1  0  0  0  0
 34 36  2  0  0  0  0
 36 37  1  0  0  0  0
 37 38  1  0  0  0  0
 37 39  1  0  0  0  0
 40 41  1  0  0  0  0
 40 39  2  0  0  0  0
 42 36  1  0  0  0  0
 42 40  1  0  0  0  0
 43 42  2  0  0  0  0
M  END
>  <minimizedAffinity>
-6.23900318

$$$$

 OpenBabel03242519263D

 43 47  0  0  0  0  0  0  0  0999 V2000
   32.4630   28.8050   36.7370 C   0  0  0  0  0  0  0  0  0  0  0  0
   32.6570   27.5750   36.1030 C   0  0  0  0  0  0  0  0  0  0  0  0
   33.9030   26.9290   36.1690 C   0  0  0  0  0  0  0  0  0  0  0  0
   34.8780   27.5870   36.8860 N   0  0  0  0  0  0  0  0  0  0  0  0
   34.6510   28.7910   37.4920 C   0  0  0  0  0  0  0  0  0  0  0  0
   33.4610   29.3790   37.4130 N   0  0  0  0  0  0  0  0  0  0  0  0
   31.9550   26.9900   35.5240 H   0  0  0  0  0  0  0  0  0  0  0  0
   34.1240   25.9830   35.7060 H   0  0  0  0  0  0  0  0  0  0  0  0
   31.1130   29.3820   36.5880 C   0  0  0  0  0  0  0  0  0  0  0  0
   30.9700   30.2580   35.4270 C   0  0  0  0  0  0  0  0  0  0  0  0
   30.7640   31.6920   35.7570 C   0  0  0  0  0  0  0  0  0  0  0  0
   29.6430   31.9300   36.7530 C   0  0  0  0  0  0  0  0  0  0  0  0
   29.4830   30.8330   37.7770 C   0  0  0  0  0  0  0  0  0  0  0  0
   30.7830   30.0710   37.9250 C   0  0  0  0  0  0  0  0  0  0  0  0
   30.4070   28.5010   36.5490 H   0  0  0  0  0  0  0  0  0  0  0  0
   30.0850   29.9400   34.8060 H   0  0  0  0  0  0  0  0  0  0  0  0
   31.8810   30.1920   34.8050 H   0  0  0  0  0  0  0  0  0  0  0  0
   31.6520   32.2720   36.0200 H   0  0  0  0  0  0  0  0  0  0  0  0
   30.3840   32.1750   34.8070 H   0  0  0  0  0  0  0  0  0  0  0  0
   29.9080   32.8570   37.3320 H   0  0  0  0  0  0  0  0  0  0  0  0
   28.6730   32.1610   36.2730 H   0  0  0  0  0  0  0  0  0  0  0  0
   29.1410   31.1900   38.7480 H   0  0  0  0  0  0  0  0  0  0  0  0
   28.7660   30.0970   37.3320 H   0  0  0  0  0  0  0  0  0  0  0  0
   31.6270   30.7990   38.0810 H   0  0  0  0  0  0  0  0  0  0  0  0
   30.6930   29.3280   38.7250 H   0  0  0  0  0  0  0  0  0  0  0  0
   35.7910   29.3560   38.2060 C   0  0  0  0  0  0  0  0  0  0  0  0
   36.3520   28.5940   39.1750 N   0  0  0  0  0  0  0  0  0  0  0  0
   37.3830   29.2550   39.7290 C   0  0  0  0  0  0  0  0  0  0  0  0
   37.4580   30.4610   39.0790 N   0  0  0  0  0  0  0  0  0  0  0  0
   36.4910   30.5120   38.1610 N   0  0  0  0  0  0  0  0  0  0  0  0
   38.0640   28.9790   40.5180 H   0  0  0  0  0  0  0  0  0  0  0  0
   39.5100   31.7100   38.4870 C   0  0  0  0  0  3  0  0  0  0  0  0
   38.3530   31.5560   39.2480 C   0  0  0  0  0  0  0  0  0  0  0  0
   38.1050   32.5330   40.1930 C   0  0  0  0  0  0  0  0  0  0  0  0
   37.2080   32.4180   40.7850 H   0  0  0  0  0  0  0  0  0  0  0  0
   38.9300   33.6190   40.4050 C   0  0  0  0  0  0  0  0  0  0  0  0
   38.8310   34.6460   41.2760 N   0  0  0  0  0  0  0  0  0  0  0  0
   38.0490   34.7530   41.9520 H   0  0  0  0  0  0  0  0  0  0  0  0
   39.8840   35.4280   41.0800 N   0  0  0  0  0  0  0  0  0  0  0  0
   40.6680   34.9170   40.0880 C   0  0  0  0  0  0  0  0  0  0  0  0
   41.5860   35.3160   39.6980 H   0  0  0  0  0  0  0  0  0  0  0  0
   40.0830   33.7570   39.6360 C   0  0  0  0  0  0  0  0  0  0  0  0
   40.3370   32.7920   38.6950 C   0  0  0  0  0  3  0  0  0  0  0  0
  1  6  1  0  0  0  0
  2  3  1  0  0  0  0
  2  1  2  0  0  0  0
  3  4  2  0  0  0  0
  4  5  1  0  0  0  0
  5 26  1  0  0  0  0
  6  5  2  0  0  0  0
  7  2  1  0  0  0  0
  8  3  1  0  0  0  0
  9  1  1  0  0  0  0
  9 14  1  0  0  0  0
 10 11  1  0  0  0  0
 10  9  1  0  0  0  0
 11 18  1  0  0  0  0
 11 12  1  0  0  0  0
 12 20  1  0  0  0  0
 12 13  1  0  0  0  0
 13 14  1  0  0  0  0
 13 22  1  0  0  0  0
 14 24  1  0  0  0  0
 14 25  1  0  0  0  0
 15  9  1  0  0  0  0
 16 10  1  0  0  0  0
 17 10  1  0  0  0  0
 19 11  1  0  0  0  0
 21 12  1  0  0  0  0
 23 13  1  0  0  0  0
 26 27  1  0  0  0  0
 27 28  2  0  0  0  0
 28 31  1  0  0  0  0
 29 33  1  0  0  0  0
 29 28  1  0  0  0  0
 30 26  2  0  0  0  0
 30 29  1  0  0  0  0
 32 43  2  0  0  0  0
 32 33  1  0  0  0  0
 33 34  2  0  0  0  0
 34 36  1  0  0  0  0
 34 35  1  0  0  0  0
 36 37  1  0  0  0  0
 37 38  1  0  0  0  0
 39 37  1  0  0  0  0
 40 39  2  0  0  0  0
 41 40  1  0  0  0  0
 42 40  1  0  0  0  0
 42 36  2  0  0  0  0
 43 42  1  0  0  0  0
M  END
>  <minimizedAffinity>
-6.14247084

$$$$

 OpenBabel03242519263D

 43 47  0  0  0  0  0  0  0  0999 V2000
   37.5180   26.4960   40.1410 C   0  0  0  0  0  0  0  0  0  0  0  0
   38.0860   25.3680   39.5460 C   0  0  0  0  0  0  0  0  0  0  0  0
   37.6850   24.9620   38.2620 C   0  0  0  0  0  0  0  0  0  0  0  0
   36.7210   25.7450   37.6640 N   0  0  0  0  0  0  0  0  0  0  0  0
   36.1860   26.8420   38.2790 C   0  0  0  0  0  0  0  0  0  0  0  0
   36.5860   27.2020   39.4950 N   0  0  0  0  0  0  0  0  0  0  0  0
   38.8420   24.7000   39.9370 H   0  0  0  0  0  0  0  0  0  0  0  0
   38.0790   24.1060   37.7420 H   0  0  0  0  0  0  0  0  0  0  0  0
   38.0190   26.8130   41.4920 C   0  0  0  0  0  0  0  0  0  0  0  0
   37.2170   26.2370   42.5700 C   0  0  0  0  0  0  0  0  0  0  0  0
   36.4810   27.2330   43.3920 C   0  0  0  0  0  0  0  0  0  0  0  0
   37.3590   28.3560   43.9150 C   0  0  0  0  0  0  0  0  0  0  0  0
   38.4820   28.7460   42.9840 C   0  0  0  0  0  0  0  0  0  0  0  0
   38.1390   28.3460   41.5650 C   0  0  0  0  0  0  0  0  0  0  0  0
   39.0890   26.4500   41.5140 H   0  0  0  0  0  0  0  0  0  0  0  0
   37.8750   25.6590   43.2790 H   0  0  0  0  0  0  0  0  0  0  0  0
   36.4680   25.5490   42.1400 H   0  0  0  0  0  0  0  0  0  0  0  0
   35.5490   27.6250   42.9780 H   0  0  0  0  0  0  0  0  0  0  0  0
   36.1640   26.6840   44.3290 H   0  0  0  0  0  0  0  0  0  0  0  0
   36.7070   29.2670   44.0100 H   0  0  0  0  0  0  0  0  0  0  0  0
   37.7430   28.1710   44.9360 H   0  0  0  0  0  0  0  0  0  0  0  0
   38.7360   29.8040   43.0290 H   0  0  0  0  0  0  0  0  0  0  0  0
   39.3530   28.1000   43.2640 H   0  0  0  0  0  0  0  0  0  0  0  0
   37.1090   28.7210   41.3100 H   0  0  0  0  0  0  0  0  0  0  0  0
   38.9150   28.7020   40.8780 H   0  0  0  0  0  0  0  0  0  0  0  0
   35.1730   27.5560   37.5110 C   0  0  0  0  0  0  0  0  0  0  0  0
   35.2790   27.5190   36.1620 N   0  0  0  0  0  0  0  0  0  0  0  0
   34.2740   28.2200   35.6100 C   0  0  0  0  0  0  0  0  0  0  0  0
   33.5250   28.7020   36.6540 N   0  0  0  0  0  0  0  0  0  0  0  0
   34.0770   28.2960   37.7990 N   0  0  0  0  0  0  0  0  0  0  0  0
   34.0240   28.4160   34.5800 H   0  0  0  0  0  0  0  0  0  0  0  0
   31.8570   30.1380   35.5240 C   0  0  0  0  0  3  0  0  0  0  0  0
   32.3480   29.5050   36.6640 C   0  0  0  0  0  0  0  0  0  0  0  0
   31.6290   29.6920   37.8290 C   0  0  0  0  0  0  0  0  0  0  0  0
   32.0070   29.2020   38.7150 H   0  0  0  0  0  0  0  0  0  0  0  0
   30.4820   30.4550   37.9050 C   0  0  0  0  0  0  0  0  0  0  0  0
   29.6750   30.7340   38.9510 N   0  0  0  0  0  0  0  0  0  0  0  0
   29.8340   30.3720   39.9130 H   0  0  0  0  0  0  0  0  0  0  0  0
   28.7040   31.5150   38.4990 N   0  0  0  0  0  0  0  0  0  0  0  0
   28.8730   31.7470   37.1660 C   0  0  0  0  0  0  0  0  0  0  0  0
   28.2570   32.3390   36.5140 H   0  0  0  0  0  0  0  0  0  0  0  0
   30.0050   31.0820   36.7570 C   0  0  0  0  0  0  0  0  0  0  0  0
   30.7120   30.9020   35.5950 C   0  0  0  0  0  3  0  0  0  0  0  0
  1  9  1  0  0  0  0
  2  7  1  0  0  0  0
  2  1  1  0  0  0  0
  3  2  2  0  0  0  0
  4  3  1  0  0  0  0
  4  5  2  0  0  0  0
  5  6  1  0  0  0  0
  6  1  2  0  0  0  0
  8  3  1  0  0  0  0
  9 15  1  0  0  0  0
  9 14  1  0  0  0  0
  9 10  1  0  0  0  0
 10 16  1  0  0  0  0
 10 11  1  0  0  0  0
 11 12  1  0  0  0  0
 11 19  1  0  0  0  0
 12 20  1  0  0  0  0
 12 21  1  0  0  0  0
 13 22  1  0  0  0  0
 13 23  1  0  0  0  0
 13 12  1  0  0  0  0
 14 13  1  0  0  0  0
 17 10  1  0  0  0  0
 18 11  1  0  0  0  0
 24 14  1  0  0  0  0
 25 14  1  0  0  0  0
 26 30  2  0  0  0  0
 26  5  1  0  0  0  0
 27 26  1  0  0  0  0
 28 27  2  0  0  0  0
 28 29  1  0  0  0  0
 29 33  1  0  0  0  0
 29 30  1  0  0  0  0
 31 28  1  0  0  0  0
 32 43  2  0  0  0  0
 32 33  1  0  0  0  0
 33 34  2  0  0  0  0
 34 36  1  0  0  0  0
 34 35  1  0  0  0  0
 36 37  1  0  0  0  0
 37 38  1  0  0  0  0
 39 37  1  0  0  0  0
 40 39  2  0  0  0  0
 41 40  1  0  0  0  0
 42 40  1  0  0  0  0
 42 36  2  0  0  0  0
 43 42  1  0  0  0  0
M  END
>  <minimizedAffinity>
-6.0949316

$$$$

 OpenBabel03242519263D

 43 47  0  0  0  0  0  0  0  0999 V2000
   41.0440   34.0320   39.9480 C   0  0  0  0  0  0  0  0  0  0  0  0
   40.0810   35.0310   40.1120 C   0  0  0  0  0  0  0  0  0  0  0  0
   38.8290   34.7270   40.6720 C   0  0  0  0  0  0  0  0  0  0  0  0
   38.6410   33.4100   41.0330 N   0  0  0  0  0  0  0  0  0  0  0  0
   39.6080   32.4590   40.8560 C   0  0  0  0  0  0  0  0  0  0  0  0
   40.7840   32.7770   40.3220 N   0  0  0  0  0  0  0  0  0  0  0  0
   40.1400   36.0810   39.8610 H   0  0  0  0  0  0  0  0  0  0  0  0
   38.0410   35.4430   40.8290 H   0  0  0  0  0  0  0  0  0  0  0  0
   42.3140   34.4780   39.3430 C   0  0  0  0  0  0  0  0  0  0  0  0
   42.3460   34.3650   37.8860 C   0  0  0  0  0  0  0  0  0  0  0  0
   43.2900   33.3420   37.3670 C   0  0  0  0  0  0  0  0  0  0  0  0
   44.6950   33.4710   37.9280 C   0  0  0  0  0  0  0  0  0  0  0  0
   44.7480   33.9730   39.3510 C   0  0  0  0  0  0  0  0  0  0  0  0
   43.4330   33.6890   40.0470 C   0  0  0  0  0  0  0  0  0  0  0  0
   42.4630   35.5420   39.6940 H   0  0  0  0  0  0  0  0  0  0  0  0
   42.6510   35.3480   37.4260 H   0  0  0  0  0  0  0  0  0  0  0  0
   41.3390   34.1000   37.5190 H   0  0  0  0  0  0  0  0  0  0  0  0
   42.9540   32.3020   37.3880 H   0  0  0  0  0  0  0  0  0  0  0  0
   43.4200   33.5730   36.2670 H   0  0  0  0  0  0  0  0  0  0  0  0
   45.1380   32.4380   37.9480 H   0  0  0  0  0  0  0  0  0  0  0  0
   45.3720   34.0600   37.2800 H   0  0  0  0  0  0  0  0  0  0  0  0
   45.5770   33.5630   39.9260 H   0  0  0  0  0  0  0  0  0  0  0  0
   44.8040   35.0890   39.2830 H   0  0  0  0  0  0  0  0  0  0  0  0
   43.1550   32.6090   39.8940 H   0  0  0  0  0  0  0  0  0  0  0  0
   43.4990   33.9770   41.1020 H   0  0  0  0  0  0  0  0  0  0  0  0
   39.2460   31.1130   41.2850 C   0  0  0  0  0  0  0  0  0  0  0  0
   39.4590   30.8000   42.5850 N   0  0  0  0  0  0  0  0  0  0  0  0
   39.0740   29.5340   42.8140 C   0  0  0  0  0  0  0  0  0  0  0  0
   38.6080   29.0530   41.6170 N   0  0  0  0  0  0  0  0  0  0  0  0
   38.7160   30.0150   40.6990 N   0  0  0  0  0  0  0  0  0  0  0  0
   39.0870   28.9370   43.7120 H   0  0  0  0  0  0  0  0  0  0  0  0
   37.0540   27.6170   40.3340 C   0  0  0  0  0  3  0  0  0  0  0  0
   38.0750   27.7790   41.2680 C   0  0  0  0  0  0  0  0  0  0  0  0
   38.5600   26.6250   41.8530 C   0  0  0  0  0  0  0  0  0  0  0  0
   39.3530   26.7460   42.5780 H   0  0  0  0  0  0  0  0  0  0  0  0
   38.0890   25.3610   41.5580 C   0  0  0  0  0  0  0  0  0  0  0  0
   38.4500   24.1510   42.0350 N   0  0  0  0  0  0  0  0  0  0  0  0
   39.1960   24.0120   42.7450 H   0  0  0  0  0  0  0  0  0  0  0  0
   37.6900   23.2490   41.4290 N   0  0  0  0  0  0  0  0  0  0  0  0
   36.8360   23.8630   40.5620 C   0  0  0  0  0  0  0  0  0  0  0  0
   36.0980   23.4100   39.9260 H   0  0  0  0  0  0  0  0  0  0  0  0
   37.0670   25.2180   40.6230 C   0  0  0  0  0  0  0  0  0  0  0  0
   36.5800   26.3580   40.0370 C   0  0  0  0  0  3  0  0  0  0  0  0
  1  2  2  0  0  0  0
  1  6  1  0  0  0  0
  2  3  1  0  0  0  0
  3  8  1  0  0  0  0
  3  4  2  0  0  0  0
  5  4  1  0  0  0  0
  5 26  1  0  0  0  0
  6  5  2  0  0  0  0
  7  2  1  0  0  0  0
  9 15  1  0  0  0  0
  9  1  1  0  0  0  0
  9 14  1  0  0  0  0
 10  9  1  0  0  0  0
 11 18  1  0  0  0  0
 11 10  1  0  0  0  0
 11 12  1  0  0  0  0
 12 20  1  0  0  0  0
 12 13  1  0  0  0  0
 13 22  1  0  0  0  0
 13 14  1  0  0  0  0
 14 25  1  0  0  0  0
 16 10  1  0  0  0  0
 17 10  1  0  0  0  0
 19 11  1  0  0  0  0
 21 12  1  0  0  0  0
 23 13  1  0  0  0  0
 24 14  1  0  0  0  0
 26 27  1  0  0  0  0
 27 28  2  0  0  0  0
 28 31  1  0  0  0  0
 29 28  1  0  0  0  0
 30 26  2  0  0  0  0
 30 29  1  0  0  0  0
 32 33  1  0  0  0  0
 33 29  1  0  0  0  0
 33 34  2  0  0  0  0
 34 35  1  0  0  0  0
 36 34  1  0  0  0  0
 36 37  1  0  0  0  0
 37 38  1  0  0  0  0
 39 37  1  0  0  0  0
 40 42  1  0  0  0  0
 40 39  2  0  0  0  0
 41 40  1  0  0  0  0
 42 36  2  0  0  0  0
 43 32  2  0  0  0  0
 43 42  1  0  0  0  0
M  END
>  <minimizedAffinity>
-6.05728006

$$$$
