
 OpenBabel03252509123D

 35 39  0  0  0  0  0  0  0  0999 V2000
   47.5610   31.2550   45.0490 C   0  0  0  0  0  0  0  0  0  0  0  0
   47.2810   32.2650   44.1400 C   0  0  0  0  0  0  0  0  0  0  0  0
   46.4400   33.3080   44.4320 C   0  0  0  0  0  0  0  0  0  0  0  0
   45.8240   33.3870   45.6850 C   0  0  0  0  0  0  0  0  0  0  0  0
   44.9690   34.2390   46.2980 N   0  0  0  0  0  0  0  0  0  0  0  0
   44.7180   33.7810   47.5560 C   0  0  0  0  0  0  0  0  0  0  0  0
   45.4300   32.6500   47.6830 N   0  0  0  0  0  0  0  0  0  0  0  0
   46.1180   32.3740   46.5690 C   0  0  0  0  0  0  0  0  0  0  0  0
   46.9530   31.3160   46.3110 C   0  0  0  0  0  0  0  0  0  0  0  0
   48.2290   30.4290   44.8110 H   0  0  0  0  0  0  0  0  0  0  0  0
   44.6400   35.0770   45.7650 H   0  0  0  0  0  0  0  0  0  0  0  0
   44.0530   34.3730   48.1390 H   0  0  0  0  0  0  0  0  0  0  0  0
   47.1440   30.5450   47.0550 H   0  0  0  0  0  0  0  0  0  0  0  0
   47.8420   31.5190   40.5900 C   0  0  0  0  0  0  0  0  0  0  0  0
   49.0700   32.1380   40.3370 C   0  0  0  0  0  0  0  0  0  0  0  0
   49.6960   32.8080   41.3910 C   0  0  0  0  0  0  0  0  0  0  0  0
   49.0840   32.8290   42.6160 N   0  0  0  0  0  0  0  0  0  0  0  0
   47.9010   32.2220   42.8210 C   0  0  0  0  0  0  0  0  0  0  0  0
   47.2820   31.5700   41.8200 N   0  0  0  0  0  0  0  0  0  0  0  0
   47.3820   31.0070   39.7550 H   0  0  0  0  0  0  0  0  0  0  0  0
   49.5970   32.1580   39.4080 H   0  0  0  0  0  0  0  0  0  0  0  0
   50.6390   33.3310   41.3530 H   0  0  0  0  0  0  0  0  0  0  0  0
   46.0830   34.6120   43.2590 S   0  0  0  0  0  0  0  0  0  0  0  0
   44.0620   33.1690   41.9710 C   0  0  0  0  0  3  0  0  0  0  0  0
   44.5020   34.3750   42.4780 C   0  0  0  0  0  0  0  0  0  0  0  0
   43.6810   35.4800   42.3840 C   0  0  0  0  0  0  0  0  0  0  0  0
   43.9930   36.4410   42.7700 H   0  0  0  0  0  0  0  0  0  0  0  0
   42.4540   35.3050   41.7810 C   0  0  0  0  0  0  0  0  0  0  0  0
   41.4710   36.2220   41.5650 N   0  0  0  0  0  0  0  0  0  0  0  0
   41.4000   37.2450   41.7930 H   0  0  0  0  0  0  0  0  0  0  0  0
   40.4440   35.6410   40.9500 N   0  0  0  0  0  0  0  0  0  0  0  0
   40.7470   34.3440   40.7580 C   0  0  0  0  0  0  0  0  0  0  0  0
   40.1380   33.5910   40.2880 H   0  0  0  0  0  0  0  0  0  0  0  0
   42.0210   34.0870   41.2740 C   0  0  0  0  0  0  0  0  0  0  0  0
   42.8370   32.9780   41.3640 C   0  0  0  0  0  3  0  0  0  0  0  0
  1  9  1  0  0  0  0
  2  3  1  0  0  0  0
  2  1  2  0  0  0  0
  3  4  2  0  0  0  0
  4  5  1  0  0  0  0
  4  8  1  0  0  0  0
  5  6  1  0  0  0  0
  6  7  2  0  0  0  0
  6 12  1  0  0  0  0
  8  7  1  0  0  0  0
  9  8  2  0  0  0  0
  9 13  1  0  0  0  0
 10  1  1  0  0  0  0
 11  5  1  0  0  0  0
 14 19  1  0  0  0  0
 15 14  2  0  0  0  0
 15 16  1  0  0  0  0
 16 17  2  0  0  0  0
 17 18  1  0  0  0  0
 18  2  1  0  0  0  0
 19 18  2  0  0  0  0
 20 14  1  0  0  0  0
 21 15  1  0  0  0  0
 22 16  1  0  0  0  0
 23  3  1  0  0  0  0
 24 25  1  0  0  0  0
 25 23  1  0  0  0  0
 26 25  2  0  0  0  0
 26 27  1  0  0  0  0
 28 26  1  0  0  0  0
 29 28  1  0  0  0  0
 29 30  1  0  0  0  0
 31 29  1  0  0  0  0
 32 31  2  0  0  0  0
 32 34  1  0  0  0  0
 33 32  1  0  0  0  0
 34 35  1  0  0  0  0
 34 28  2  0  0  0  0
 35 24  2  0  0  0  0
M  END
>  <minimizedAffinity>
-5.74235344

>  <minimizedRMSD>
2.05293322

$$$$
