
 OpenBabel03242519253D

 43 47  0  0  0  0  0  0  0  0999 V2000
   47.8780   33.7240   42.8950 C   0  0  0  0  0  0  0  0  0  0  0  0
   48.5780   34.9180   42.7000 C   0  0  0  0  0  0  0  0  0  0  0  0
   49.9430   34.8970   42.3710 C   0  0  0  0  0  0  0  0  0  0  0  0
   50.5110   33.6450   42.2600 N   0  0  0  0  0  0  0  0  0  0  0  0
   49.7940   32.4990   42.4600 C   0  0  0  0  0  0  0  0  0  0  0  0
   48.5020   32.5500   42.7710 N   0  0  0  0  0  0  0  0  0  0  0  0
   48.2180   35.9350   42.7660 H   0  0  0  0  0  0  0  0  0  0  0  0
   50.5450   35.7740   42.2070 H   0  0  0  0  0  0  0  0  0  0  0  0
   46.4530   33.8810   43.2430 C   0  0  0  0  0  0  0  0  0  0  0  0
   45.7560   34.8830   42.4390 C   0  0  0  0  0  0  0  0  0  0  0  0
   45.3310   36.0910   43.1910 C   0  0  0  0  0  0  0  0  0  0  0  0
   44.5500   35.7760   44.4550 C   0  0  0  0  0  0  0  0  0  0  0  0
   44.9780   34.5020   45.1440 C   0  0  0  0  0  0  0  0  0  0  0  0
   46.4000   34.1590   44.7560 C   0  0  0  0  0  0  0  0  0  0  0  0
   45.9970   32.8520   43.1340 H   0  0  0  0  0  0  0  0  0  0  0  0
   44.8230   34.4400   41.9870 H   0  0  0  0  0  0  0  0  0  0  0  0
   46.4190   35.2200   41.6220 H   0  0  0  0  0  0  0  0  0  0  0  0
   46.0940   36.8500   43.3810 H   0  0  0  0  0  0  0  0  0  0  0  0
   44.5730   36.6130   42.5330 H   0  0  0  0  0  0  0  0  0  0  0  0
   44.7560   36.6060   45.1850 H   0  0  0  0  0  0  0  0  0  0  0  0
   43.4540   35.7910   44.3060 H   0  0  0  0  0  0  0  0  0  0  0  0
   44.8790   34.5400   46.2280 H   0  0  0  0  0  0  0  0  0  0  0  0
   44.3520   33.6860   44.6990 H   0  0  0  0  0  0  0  0  0  0  0  0
   47.0550   35.0630   44.8980 H   0  0  0  0  0  0  0  0  0  0  0  0
   46.7400   33.2810   45.3180 H   0  0  0  0  0  0  0  0  0  0  0  0
   50.5460   31.2580   42.3100 C   0  0  0  0  0  0  0  0  0  0  0  0
   51.5490   31.2490   41.4000 N   0  0  0  0  0  0  0  0  0  0  0  0
   52.1370   30.0410   41.3880 C   0  0  0  0  0  0  0  0  0  0  0  0
   51.4760   29.2830   42.3210 N   0  0  0  0  0  0  0  0  0  0  0  0
   50.5160   30.0280   42.8730 N   0  0  0  0  0  0  0  0  0  0  0  0
   52.9600   29.6560   40.8070 H   0  0  0  0  0  0  0  0  0  0  0  0
   51.4000   27.4950   44.0280 C   0  0  0  0  0  3  0  0  0  0  0  0
   51.6690   27.9340   42.7320 C   0  0  0  0  0  0  0  0  0  0  0  0
   52.1390   26.9830   41.8470 C   0  0  0  0  0  0  0  0  0  0  0  0
   52.3480   27.3200   40.8420 H   0  0  0  0  0  0  0  0  0  0  0  0
   52.3460   25.6600   42.1820 C   0  0  0  0  0  0  0  0  0  0  0  0
   52.7950   24.6230   41.4450 N   0  0  0  0  0  0  0  0  0  0  0  0
   53.0610   24.7020   40.4440 H   0  0  0  0  0  0  0  0  0  0  0  0
   52.8120   23.5590   42.2370 N   0  0  0  0  0  0  0  0  0  0  0  0
   52.3790   23.8970   43.4840 C   0  0  0  0  0  0  0  0  0  0  0  0
   52.2790   23.2630   44.3460 H   0  0  0  0  0  0  0  0  0  0  0  0
   52.0730   25.2390   43.4820 C   0  0  0  0  0  0  0  0  0  0  0  0
   51.6050   26.1740   44.3680 C   0  0  0  0  0  3  0  0  0  0  0  0
  1  9  1  0  0  0  0
  2  7  1  0  0  0  0
  2  1  2  0  0  0  0
  3  2  1  0  0  0  0
  4  3  2  0  0  0  0
  4  5  1  0  0  0  0
  5  6  2  0  0  0  0
  6  1  1  0  0  0  0
  8  3  1  0  0  0  0
  9 14  1  0  0  0  0
 10 11  1  0  0  0  0
 10  9  1  0  0  0  0
 11 18  1  0  0  0  0
 11 12  1  0  0  0  0
 12 13  1  0  0  0  0
 12 20  1  0  0  0  0
 13 22  1  0  0  0  0
 14 24  1  0  0  0  0
 14 13  1  0  0  0  0
 14 25  1  0  0  0  0
 15  9  1  0  0  0  0
 16 10  1  0  0  0  0
 17 10  1  0  0  0  0
 19 11  1  0  0  0  0
 21 12  1  0  0  0  0
 23 13  1  0  0  0  0
 26  5  1  0  0  0  0
 26 30  2  0  0  0  0
 27 26  1  0  0  0  0
 28 27  2  0  0  0  0
 28 29  1  0  0  0  0
 29 33  1  0  0  0  0
 29 30  1  0  0  0  0
 31 28  1  0  0  0  0
 32 43  1  0  0  0  0
 33 32  2  0  0  0  0
 34 36  2  0  0  0  0
 34 33  1  0  0  0  0
 35 34  1  0  0  0  0
 36 42  1  0  0  0  0
 37 36  1  0  0  0  0
 37 39  1  0  0  0  0
 38 37  1  0  0  0  0
 39 40  2  0  0  0  0
 40 41  1  0  0  0  0
 42 40  1  0  0  0  0
 42 43  2  0  0  0  0
M  END
>  <minimizedAffinity>
-4.14686155

>  <minimizedRMSD>
0.16057612

$$$$
