
 OpenBabel03242519253D

 43 47  0  0  0  0  0  0  0  0999 V2000
   47.8790   33.7240   42.8960 C   0  0  0  0  0  0  0  0  0  0  0  0
   48.5780   34.9170   42.6960 C   0  0  0  0  0  0  0  0  0  0  0  0
   49.9430   34.8950   42.3670 C   0  0  0  0  0  0  0  0  0  0  0  0
   50.5110   33.6440   42.2630 N   0  0  0  0  0  0  0  0  0  0  0  0
   49.7950   32.4980   42.4680 C   0  0  0  0  0  0  0  0  0  0  0  0
   48.5030   32.5500   42.7780 N   0  0  0  0  0  0  0  0  0  0  0  0
   48.2180   35.9350   42.7560 H   0  0  0  0  0  0  0  0  0  0  0  0
   50.5450   35.7720   42.1990 H   0  0  0  0  0  0  0  0  0  0  0  0
   46.4530   33.8820   43.2410 C   0  0  0  0  0  0  0  0  0  0  0  0
   45.7580   34.8860   42.4370 C   0  0  0  0  0  0  0  0  0  0  0  0
   45.3340   36.0940   43.1900 C   0  0  0  0  0  0  0  0  0  0  0  0
   44.5500   35.7790   44.4520 C   0  0  0  0  0  0  0  0  0  0  0  0
   44.9750   34.5040   45.1410 C   0  0  0  0  0  0  0  0  0  0  0  0
   46.3980   34.1600   44.7550 C   0  0  0  0  0  0  0  0  0  0  0  0
   45.9960   32.8540   43.1320 H   0  0  0  0  0  0  0  0  0  0  0  0
   44.8250   34.4440   41.9840 H   0  0  0  0  0  0  0  0  0  0  0  0
   46.4220   35.2230   41.6210 H   0  0  0  0  0  0  0  0  0  0  0  0
   46.0970   36.8520   43.3820 H   0  0  0  0  0  0  0  0  0  0  0  0
   44.5770   36.6170   42.5310 H   0  0  0  0  0  0  0  0  0  0  0  0
   44.7560   36.6080   45.1830 H   0  0  0  0  0  0  0  0  0  0  0  0
   43.4540   35.7950   44.3020 H   0  0  0  0  0  0  0  0  0  0  0  0
   44.8750   34.5420   46.2250 H   0  0  0  0  0  0  0  0  0  0  0  0
   44.3500   33.6900   44.6950 H   0  0  0  0  0  0  0  0  0  0  0  0
   47.0540   35.0630   44.8980 H   0  0  0  0  0  0  0  0  0  0  0  0
   46.7360   33.2810   45.3170 H   0  0  0  0  0  0  0  0  0  0  0  0
   50.5480   31.2570   42.3250 C   0  0  0  0  0  0  0  0  0  0  0  0
   51.5370   31.2370   41.4010 N   0  0  0  0  0  0  0  0  0  0  0  0
   52.1280   30.0300   41.3980 C   0  0  0  0  0  0  0  0  0  0  0  0
   51.4820   29.2840   42.3510 N   0  0  0  0  0  0  0  0  0  0  0  0
   50.5280   30.0350   42.9050 N   0  0  0  0  0  0  0  0  0  0  0  0
   52.9430   29.6380   40.8100 H   0  0  0  0  0  0  0  0  0  0  0  0
   50.9580   26.8680   42.2620 C   0  0  0  0  0  3  0  0  0  0  0  0
   51.6840   27.9410   42.7780 C   0  0  0  0  0  0  0  0  0  0  0  0
   52.6250   27.6380   43.7420 C   0  0  0  0  0  0  0  0  0  0  0  0
   53.1880   28.4660   44.1450 H   0  0  0  0  0  0  0  0  0  0  0  0
   52.8670   26.3580   44.2000 C   0  0  0  0  0  0  0  0  0  0  0  0
   53.7400   25.9010   45.1230 N   0  0  0  0  0  0  0  0  0  0  0  0
   54.3920   26.5140   45.6490 H   0  0  0  0  0  0  0  0  0  0  0  0
   53.5790   24.5860   45.1960 N   0  0  0  0  0  0  0  0  0  0  0  0
   52.6100   24.1850   44.3270 C   0  0  0  0  0  0  0  0  0  0  0  0
   52.2480   23.1870   44.1500 H   0  0  0  0  0  0  0  0  0  0  0  0
   52.1340   25.2980   43.6730 C   0  0  0  0  0  0  0  0  0  0  0  0
   51.1970   25.5880   42.7140 C   0  0  0  0  0  3  0  0  0  0  0  0
  1  9  1  0  0  0  0
  2  7  1  0  0  0  0
  2  1  2  0  0  0  0
  3  2  1  0  0  0  0
  4  3  2  0  0  0  0
  4  5  1  0  0  0  0
  5  6  2  0  0  0  0
  6  1  1  0  0  0  0
  8  3  1  0  0  0  0
  9 14  1  0  0  0  0
 10 11  1  0  0  0  0
 10  9  1  0  0  0  0
 11 18  1  0  0  0  0
 11 12  1  0  0  0  0
 12 13  1  0  0  0  0
 12 20  1  0  0  0  0
 13 22  1  0  0  0  0
 14 24  1  0  0  0  0
 14 13  1  0  0  0  0
 14 25  1  0  0  0  0
 15  9  1  0  0  0  0
 16 10  1  0  0  0  0
 17 10  1  0  0  0  0
 19 11  1  0  0  0  0
 21 12  1  0  0  0  0
 23 13  1  0  0  0  0
 26  5  1  0  0  0  0
 26 30  2  0  0  0  0
 27 26  1  0  0  0  0
 28 27  2  0  0  0  0
 28 29  1  0  0  0  0
 29 33  1  0  0  0  0
 29 30  1  0  0  0  0
 31 28  1  0  0  0  0
 32 43  2  0  0  0  0
 32 33  1  0  0  0  0
 33 34  2  0  0  0  0
 34 35  1  0  0  0  0
 34 36  1  0  0  0  0
 36 37  1  0  0  0  0
 37 39  1  0  0  0  0
 37 38  1  0  0  0  0
 40 39  2  0  0  0  0
 41 40  1  0  0  0  0
 42 36  2  0  0  0  0
 42 40  1  0  0  0  0
 43 42  1  0  0  0  0
M  END
>  <minimizedAffinity>
-4.17238665

>  <minimizedRMSD>
0.260760039

$$$$
