
 OpenBabel03252509083D

 44 48  0  0  0  0  0  0  0  0999 V2000
   47.5090   33.3000   40.4470 C   0  0  0  0  0  0  0  0  0  0  0  0
   46.3930   33.8480   41.0080 C   0  0  0  0  0  0  0  0  0  0  0  0
   46.5100   34.9620   41.8250 C   0  0  0  0  0  0  0  0  0  0  0  0
   47.7420   35.5170   42.0760 C   0  0  0  0  0  0  0  0  0  0  0  0
   48.9070   34.9870   41.5230 C   0  0  0  0  0  0  0  0  0  0  0  0
   48.7620   33.8650   40.7030 C   0  0  0  0  0  0  0  0  0  0  0  0
   45.6550   35.4140   42.2780 H   0  0  0  0  0  0  0  0  0  0  0  0
   47.9050   36.3660   42.6900 H   0  0  0  0  0  0  0  0  0  0  0  0
   49.8860   35.3620   41.6730 H   0  0  0  0  0  0  0  0  0  0  0  0
   49.6510   33.4340   40.2600 H   0  0  0  0  0  0  0  0  0  0  0  0
   42.4300   30.9520   42.6030 Cl  0  0  0  0  0  0  0  0  0  0  0  0
   43.2320   32.0280   41.4880 C   0  0  0  0  0  0  0  0  0  0  0  0
   44.4850   32.4890   41.7330 C   0  0  0  0  0  0  0  0  0  0  0  0
   45.0440   33.3430   40.7970 C   0  0  0  0  0  0  0  0  0  0  0  0
   44.3650   33.7170   39.6630 C   0  0  0  0  0  0  0  0  0  0  0  0
   43.1130   33.2480   39.4290 C   0  0  0  0  0  0  0  0  0  0  0  0
   42.5420   32.3920   40.3550 C   0  0  0  0  0  0  0  0  0  0  0  0
   44.8550   34.3900   38.9700 H   0  0  0  0  0  0  0  0  0  0  0  0
   42.6190   33.5650   38.5280 H   0  0  0  0  0  0  0  0  0  0  0  0
   41.5430   32.0370   40.1360 H   0  0  0  0  0  0  0  0  0  0  0  0
   45.9160   32.4770   45.2400 C   0  0  0  0  0  0  0  0  0  0  0  0
   45.2570   32.8820   44.0750 C   0  0  0  0  0  0  0  0  0  0  0  0
   45.1700   32.0790   42.9490 C   0  0  0  0  0  0  0  0  0  0  0  0
   45.7740   30.8940   43.0920 N   0  0  0  0  0  0  0  0  0  0  0  0
   46.4070   30.4880   44.1920 C   0  0  0  0  0  0  0  0  0  0  0  0
   46.4780   31.2730   45.2580 N   0  0  0  0  0  0  0  0  0  0  0  0
   45.9420   33.1630   46.0820 H   0  0  0  0  0  0  0  0  0  0  0  0
   44.7870   33.8740   44.0430 H   0  0  0  0  0  0  0  0  0  0  0  0
   46.8270   29.4800   44.0830 H   0  0  0  0  0  0  0  0  0  0  0  0
   47.4340   31.9320   39.4630 S   0  0  0  0  0  0  0  0  0  0  0  0
   48.8380   31.6510   38.8720 O   0  0  0  0  0  0  0  0  0  0  0  0
   47.2120   30.7470   40.4050 O   0  0  0  0  0  0  0  0  0  0  0  0
   46.4240   32.6030   36.9330 C   0  0  0  0  0  3  0  0  0  0  0  0
   46.4880   31.7800   38.0470 C   0  0  0  0  0  0  0  0  0  0  0  0
   45.5460   30.7300   37.8680 C   0  0  0  0  0  0  0  0  0  0  0  0
   45.4960   29.9950   38.6950 H   0  0  0  0  0  0  0  0  0  0  0  0
   44.6980   30.5130   36.8060 C   0  0  0  0  0  0  0  0  0  0  0  0
   43.7870   29.5650   36.5480 N   0  0  0  0  0  0  0  0  0  0  0  0
   43.5640   28.7670   37.1810 H   0  0  0  0  0  0  0  0  0  0  0  0
   43.2740   29.8640   35.3750 N   0  0  0  0  0  0  0  0  0  0  0  0
   43.8350   30.9770   34.8800 C   0  0  0  0  0  0  0  0  0  0  0  0
   43.6140   31.4680   33.9280 H   0  0  0  0  0  0  0  0  0  0  0  0
   44.7750   31.4210   35.8060 C   0  0  0  0  0  0  0  0  0  0  0  0
   45.6310   32.4980   35.8190 C   0  0  0  0  0  3  0  0  0  0  0  0
  1  6  2  0  0  0  0
  1  2  1  0  0  0  0
  2  3  2  0  0  0  0
  3  4  1  0  0  0  0
  3  7  1  0  0  0  0
  4  8  1  0  0  0  0
  5  9  1  0  0  0  0
  5  4  2  0  0  0  0
  6  5  1  0  0  0  0
 10  6  1  0  0  0  0
 12 13  1  0  0  0  0
 12 11  1  0  0  0  0
 13 23  1  0  0  0  0
 14  2  1  0  0  0  0
 14 13  2  0  0  0  0
 15 14  1  0  0  0  0
 16 15  2  0  0  0  0
 16 17  1  0  0  0  0
 17 12  2  0  0  0  0
 18 15  1  0  0  0  0
 19 16  1  0  0  0  0
 20 17  1  0  0  0  0
 21 26  1  0  0  0  0
 21 27  1  0  0  0  0
 22 21  2  0  0  0  0
 23 24  2  0  0  0  0
 23 22  1  0  0  0  0
 24 25  1  0  0  0  0
 25 26  2  0  0  0  0
 28 22  1  0  0  0  0
 29 25  1  0  0  0  0
 30 32  2  0  0  0  0
 30  1  1  0  0  0  0
 31 30  2  0  0  0  0
 33 34  1  0  0  0  0
 34 30  1  0  0  0  0
 35 34  2  0  0  0  0
 35 36  1  0  0  0  0
 37 35  1  0  0  0  0
 38 37  1  0  0  0  0
 38 39  1  0  0  0  0
 40 38  1  0  0  0  0
 41 40  2  0  0  0  0
 41 43  1  0  0  0  0
 42 41  1  0  0  0  0
 43 44  1  0  0  0  0
 43 37  2  0  0  0  0
 44 33  2  0  0  0  0
M  END
>  <minimizedAffinity>
-4.5744462

>  <minimizedRMSD>
4.76481247

$$$$
