
 OpenBabel03242522203D

 48 52  0  0  0  0  0  0  0  0999 V2000
   42.2780   34.8600   39.8350 C   0  0  0  0  0  0  0  0  0  0  0  0
   41.8250   35.0270   38.5570 C   0  0  0  0  0  0  0  0  0  0  0  0
   40.6440   34.5360   38.0250 C   0  0  0  0  0  0  0  0  0  0  0  0
   39.8770   33.8120   38.9030 C   0  0  0  0  0  0  0  0  0  0  0  0
   40.3220   33.6390   40.1890 C   0  0  0  0  0  0  0  0  0  0  0  0
   41.4680   34.1280   40.6620 N   0  0  0  0  0  0  0  0  0  0  0  0
   42.4940   35.6150   37.9240 H   0  0  0  0  0  0  0  0  0  0  0  0
   40.3810   34.7230   37.0130 H   0  0  0  0  0  0  0  0  0  0  0  0
   39.4090   32.8380   41.0480 C   0  0  0  0  0  0  0  0  0  0  0  0
   38.0760   33.2380   40.8060 F   0  0  0  0  0  0  0  0  0  0  0  0
   39.7300   32.8770   42.3750 F   0  0  0  0  0  0  0  0  0  0  0  0
   39.4420   31.5040   40.6750 F   0  0  0  0  0  0  0  0  0  0  0  0
   43.4890   35.3350   40.4670 C   0  0  0  0  0  0  0  0  0  0  0  0
   44.3590   34.7440   40.1070 H   0  0  0  0  0  0  0  0  0  0  0  0
   43.6750   36.3740   40.1160 H   0  0  0  0  0  0  0  0  0  0  0  0
   43.5170   35.3260   41.9620 C   0  0  0  0  0  0  0  0  0  0  0  0
   43.3840   36.3370   42.3920 H   0  0  0  0  0  0  0  0  0  0  0  0
   42.6510   34.7180   42.3050 H   0  0  0  0  0  0  0  0  0  0  0  0
   46.7300   33.5830   42.5620 C   0  0  0  0  0  0  0  0  0  0  0  0
   46.8460   33.8060   43.8950 C   0  0  0  0  0  0  0  0  0  0  0  0
   45.3200   34.7730   44.2480 S   0  0  0  0  0  0  0  0  0  0  0  0
   44.7710   34.7060   42.4720 C   0  0  0  0  0  0  0  0  0  0  0  0
   45.6540   34.0980   42.0460 N   0  0  0  0  0  0  0  0  0  0  0  0
   47.6360   33.4860   44.5420 H   0  0  0  0  0  0  0  0  0  0  0  0
   49.3760   32.6150   40.0650 C   0  0  0  0  0  0  0  0  0  0  0  0
   48.4570   33.4040   40.7800 C   0  0  0  0  0  0  0  0  0  0  0  0
   47.7140   32.8340   41.7640 C   0  0  0  0  0  0  0  0  0  0  0  0
   47.9230   31.4670   42.0000 N   0  0  0  0  0  0  0  0  0  0  0  0
   48.8130   30.7610   41.2870 C   0  0  0  0  0  0  0  0  0  0  0  0
   49.5390   31.3270   40.3240 N   0  0  0  0  0  0  0  0  0  0  0  0
   49.9920   33.0240   39.2710 H   0  0  0  0  0  0  0  0  0  0  0  0
   48.8210   29.7310   41.6240 H   0  0  0  0  0  0  0  0  0  0  0  0
   48.3680   34.7800   40.4130 N   0  0  0  0  0  0  0  0  0  0  0  0
   47.6810   34.7440   39.6200 H   0  0  0  0  0  0  0  0  0  0  0  0
   48.9130   35.4950   40.9120 H   0  0  0  0  0  0  0  0  0  0  0  0
   38.3260   33.1370   38.2970 S   0  0  0  0  0  0  0  0  0  0  0  0
   39.5940   30.9290   37.4800 C   0  0  0  0  0  3  0  0  0  0  0  0
   38.5640   31.8140   37.1370 C   0  0  0  0  0  0  0  0  0  0  0  0
   37.8520   31.5860   35.9720 C   0  0  0  0  0  0  0  0  0  0  0  0
   37.0860   32.3270   35.8080 H   0  0  0  0  0  0  0  0  0  0  0  0
   38.1460   30.5110   35.1580 C   0  0  0  0  0  0  0  0  0  0  0  0
   37.5690   30.1370   34.0030 N   0  0  0  0  0  0  0  0  0  0  0  0
   36.7740   30.6370   33.5350 H   0  0  0  0  0  0  0  0  0  0  0  0
   38.1680   29.0420   33.5610 N   0  0  0  0  0  0  0  0  0  0  0  0
   39.1450   28.7100   34.4460 C   0  0  0  0  0  0  0  0  0  0  0  0
   39.8370   27.8690   34.4040 H   0  0  0  0  0  0  0  0  0  0  0  0
   39.1550   29.6200   35.4680 C   0  0  0  0  0  0  0  0  0  0  0  0
   39.8470   29.8660   36.6270 C   0  0  0  0  0  3  0  0  0  0  0  0
  1 13  1  0  0  0  0
  1  6  1  0  0  0  0
  2  1  2  0  0  0  0
  3  2  1  0  0  0  0
  3  4  2  0  0  0  0
  4  5  1  0  0  0  0
  5  6  2  0  0  0  0
  5  9  1  0  0  0  0
  7  2  1  0  0  0  0
  8  3  1  0  0  0  0
  9 11  1  0  0  0  0
 10  9  1  0  0  0  0
 12  9  1  0  0  0  0
 13 16  1  0  0  0  0
 14 13  1  0  0  0  0
 15 13  1  0  0  0  0
 16 18  1  0  0  0  0
 16 17  1  0  0  0  0
 16 22  1  0  0  0  0
 19 20  2  0  0  0  0
 20 21  1  0  0  0  0
 20 24  1  0  0  0  0
 22 21  1  0  0  0  0
 23 22  2  0  0  0  0
 23 19  1  0  0  0  0
 25 30  2  0  0  0  0
 25 26  1  0  0  0  0
 26 27  2  0  0  0  0
 27 28  1  0  0  0  0
 27 19  1  0  0  0  0
 29 32  1  0  0  0  0
 29 28  2  0  0  0  0
 30 29  1  0  0  0  0
 31 25  1  0  0  0  0
 33 26  1  0  0  0  0
 33 35  1  0  0  0  0
 34 33  1  0  0  0  0
 36  4  1  0  0  0  0
 38 37  1  0  0  0  0
 38 36  1  0  0  0  0
 39 38  2  0  0  0  0
 40 39  1  0  0  0  0
 41 47  2  0  0  0  0
 41 39  1  0  0  0  0
 42 41  1  0  0  0  0
 43 42  1  0  0  0  0
 44 42  1  0  0  0  0
 44 45  2  0  0  0  0
 45 47  1  0  0  0  0
 46 45  1  0  0  0  0
 47 48  1  0  0  0  0
 48 37  2  0  0  0  0
M  END
>  <minimizedAffinity>
-5.96395445

>  <minimizedRMSD>
0.439768851

$$$$
