
 OpenBabel03252509123D

 35 39  0  0  0  0  0  0  0  0999 V2000
   47.7070   30.7150   44.6300 C   0  0  0  0  0  0  0  0  0  0  0  0
   47.7060   31.8700   43.8590 C   0  0  0  0  0  0  0  0  0  0  0  0
   47.0520   33.0110   44.2430 C   0  0  0  0  0  0  0  0  0  0  0  0
   46.3480   33.0490   45.4510 C   0  0  0  0  0  0  0  0  0  0  0  0
   45.6140   33.9670   46.1230 N   0  0  0  0  0  0  0  0  0  0  0  0
   45.1660   33.4090   47.2820 C   0  0  0  0  0  0  0  0  0  0  0  0
   45.6400   32.1530   47.2910 N   0  0  0  0  0  0  0  0  0  0  0  0
   46.3640   31.8920   46.1970 C   0  0  0  0  0  0  0  0  0  0  0  0
   47.0080   30.7330   45.8450 C   0  0  0  0  0  0  0  0  0  0  0  0
   48.2290   29.8110   44.3200 H   0  0  0  0  0  0  0  0  0  0  0  0
   45.4970   34.9140   45.6960 H   0  0  0  0  0  0  0  0  0  0  0  0
   44.5720   34.0400   47.9000 H   0  0  0  0  0  0  0  0  0  0  0  0
   46.9820   29.8490   46.4810 H   0  0  0  0  0  0  0  0  0  0  0  0
   48.4580   31.4470   40.2920 C   0  0  0  0  0  0  0  0  0  0  0  0
   49.7840   31.8820   40.2040 C   0  0  0  0  0  0  0  0  0  0  0  0
   50.4100   32.3180   41.3750 C   0  0  0  0  0  0  0  0  0  0  0  0
   49.7020   32.3000   42.5470 N   0  0  0  0  0  0  0  0  0  0  0  0
   48.4270   31.8740   42.5920 C   0  0  0  0  0  0  0  0  0  0  0  0
   47.8060   31.4500   41.4760 N   0  0  0  0  0  0  0  0  0  0  0  0
   48.0000   31.1150   39.3690 H   0  0  0  0  0  0  0  0  0  0  0  0
   50.3880   31.9210   39.3240 H   0  0  0  0  0  0  0  0  0  0  0  0
   51.4220   32.6810   41.4690 H   0  0  0  0  0  0  0  0  0  0  0  0
   47.0540   34.5000   43.2500 S   0  0  0  0  0  0  0  0  0  0  0  0
   44.4000   35.2680   42.8040 C   0  0  0  0  0  3  0  0  0  0  0  0
   45.5460   34.6690   42.3190 C   0  0  0  0  0  0  0  0  0  0  0  0
   45.5450   34.1640   41.0370 C   0  0  0  0  0  0  0  0  0  0  0  0
   46.4240   33.6880   40.6230 H   0  0  0  0  0  0  0  0  0  0  0  0
   44.3800   34.2920   40.3100 C   0  0  0  0  0  0  0  0  0  0  0  0
   44.1190   33.8830   39.0370 N   0  0  0  0  0  0  0  0  0  0  0  0
   44.7100   33.3910   38.3210 H   0  0  0  0  0  0  0  0  0  0  0  0
   42.8680   34.2000   38.7120 N   0  0  0  0  0  0  0  0  0  0  0  0
   42.3020   34.8170   39.7660 C   0  0  0  0  0  0  0  0  0  0  0  0
   41.3010   35.2020   39.8400 H   0  0  0  0  0  0  0  0  0  0  0  0
   43.2330   34.8970   40.8070 C   0  0  0  0  0  0  0  0  0  0  0  0
   43.2280   35.4040   42.0910 C   0  0  0  0  0  3  0  0  0  0  0  0
  1  9  1  0  0  0  0
  2  3  1  0  0  0  0
  2  1  2  0  0  0  0
  3  4  2  0  0  0  0
  4  5  1  0  0  0  0
  4  8  1  0  0  0  0
  5  6  1  0  0  0  0
  6  7  2  0  0  0  0
  6 12  1  0  0  0  0
  8  7  1  0  0  0  0
  9  8  2  0  0  0  0
  9 13  1  0  0  0  0
 10  1  1  0  0  0  0
 11  5  1  0  0  0  0
 14 19  1  0  0  0  0
 15 14  2  0  0  0  0
 15 16  1  0  0  0  0
 16 22  1  0  0  0  0
 16 17  2  0  0  0  0
 17 18  1  0  0  0  0
 18  2  1  0  0  0  0
 19 18  2  0  0  0  0
 20 14  1  0  0  0  0
 21 15  1  0  0  0  0
 23  3  1  0  0  0  0
 25 24  1  0  0  0  0
 25 23  1  0  0  0  0
 26 25  2  0  0  0  0
 27 26  1  0  0  0  0
 28 34  2  0  0  0  0
 28 26  1  0  0  0  0
 29 28  1  0  0  0  0
 30 29  1  0  0  0  0
 31 29  1  0  0  0  0
 31 32  2  0  0  0  0
 32 33  1  0  0  0  0
 32 34  1  0  0  0  0
 34 35  1  0  0  0  0
 35 24  2  0  0  0  0
M  END
>  <minimizedAffinity>
-5.68066311

>  <minimizedRMSD>
2.5711298

$$$$
