
 OpenBabel03252508313D

 35 38  0  0  1  0  0  0  0  0999 V2000
   44.3340   34.2240   41.6200 N   0  0  0  0  0  0  0  0  0  0  0  0
   44.0530   33.4760   40.4550 C   0  0  1  0  0  0  0  0  0  0  0  0
   43.1220   34.1080   39.4870 C   0  0  0  0  0  0  0  0  0  0  0  0
   42.0520   34.8190   40.0470 N   0  0  0  0  0  0  0  0  0  0  0  0
   42.2850   35.5080   41.2530 C   0  0  0  0  0  0  0  0  0  0  0  0
   43.7460   35.5350   41.6160 C   0  0  0  0  0  0  0  0  0  0  0  0
   43.5720   32.5160   40.7820 H   0  0  0  0  0  0  0  0  0  0  0  0
   42.7390   33.3450   38.7770 H   0  0  0  0  0  0  0  0  0  0  0  0
   43.7360   34.8360   38.8800 H   0  0  0  0  0  0  0  0  0  0  0  0
   41.3420   35.1570   39.4040 H   0  0  0  0  0  0  0  0  0  0  0  0
   41.7350   35.0800   42.1380 H   0  0  0  0  0  0  0  0  0  0  0  0
   41.9270   36.5520   41.1750 H   0  0  0  0  0  0  0  0  0  0  0  0
   44.3320   36.1940   40.9240 H   0  0  0  0  0  0  0  0  0  0  0  0
   43.7820   36.0350   42.6060 H   0  0  0  0  0  0  0  0  0  0  0  0
   45.1900   31.7520   39.1950 C   0  0  0  0  0  3  0  0  0  0  0  0
   45.2810   33.0460   39.6920 C   0  0  0  0  0  0  0  0  0  0  0  0
   46.4440   33.7380   39.4440 C   0  0  0  0  0  0  0  0  0  0  0  0
   46.4200   34.7450   39.8750 H   0  0  0  0  0  0  0  0  0  0  0  0
   47.4560   33.1750   38.7420 C   0  0  0  0  0  0  0  0  0  0  0  0
   48.6300   33.7330   38.4350 N   0  0  0  0  0  0  0  0  0  0  0  0
   49.0330   34.6870   38.6470 H   0  0  0  0  0  0  0  0  0  0  0  0
   49.3280   32.8570   37.7470 N   0  0  0  0  0  0  0  0  0  0  0  0
   48.6190   31.7380   37.6080 C   0  0  0  0  0  0  0  0  0  0  0  0
   48.8890   30.8100   37.0970 H   0  0  0  0  0  0  0  0  0  0  0  0
   47.3940   31.8930   38.2370 C   0  0  0  0  0  0  0  0  0  0  0  0
   46.2490   31.1890   38.4710 C   0  0  0  0  0  3  0  0  0  0  0  0
   46.2300   34.4230   43.0600 C   0  0  0  0  0  0  0  0  0  0  0  0
   45.1320   33.6450   42.6330 C   0  0  0  0  0  0  0  0  0  0  0  0
   44.9360   32.4090   43.2190 C   0  0  0  0  0  0  0  0  0  0  0  0
   45.7830   31.9590   44.1830 N   0  0  0  0  0  0  0  0  0  0  0  0
   46.8390   32.7300   44.5820 C   0  0  0  0  0  0  0  0  0  0  0  0
   47.0530   33.9390   44.0240 N   0  0  0  0  0  0  0  0  0  0  0  0
   46.5530   35.3970   42.7320 H   0  0  0  0  0  0  0  0  0  0  0  0
   44.1000   31.8240   42.9000 H   0  0  0  0  0  0  0  0  0  0  0  0
   47.5050   32.3500   45.3560 H   0  0  0  0  0  0  0  0  0  0  0  0
  1 28  1  0  0  0  0
  2  7  1  1  0  0  0
  2  1  1  0  0  0  0
  3  4  1  0  0  0  0
  3  2  1  0  0  0  0
  4  5  1  0  0  0  0
  5  6  1  0  0  0  0
  5 11  1  0  0  0  0
  6  1  1  0  0  0  0
  6 14  1  0  0  0  0
  8  3  1  0  0  0  0
  9  3  1  0  0  0  0
 10  4  1  0  0  0  0
 12  5  1  0  0  0  0
 13  6  1  0  0  0  0
 15 16  1  0  0  0  0
 16  2  1  0  0  0  0
 17 16  2  0  0  0  0
 17 18  1  0  0  0  0
 19 17  1  0  0  0  0
 20 21  1  0  0  0  0
 20 19  1  0  0  0  0
 22 20  1  0  0  0  0
 23 22  2  0  0  0  0
 23 25  1  0  0  0  0
 24 23  1  0  0  0  0
 25 26  1  0  0  0  0
 25 19  2  0  0  0  0
 26 15  2  0  0  0  0
 27 32  1  0  0  0  0
 28 27  2  0  0  0  0
 28 29  1  0  0  0  0
 29 30  2  0  0  0  0
 30 31  1  0  0  0  0
 31 35  1  0  0  0  0
 32 31  2  0  0  0  0
 33 27  1  0  0  0  0
 34 29  1  0  0  0  0
M  END
>  <minimizedAffinity>
-4.11438942

>  <minimizedRMSD>
1.69341016

$$$$
