
 OpenBabel03242522203D

 48 52  0  0  0  0  0  0  0  0999 V2000
   42.4600   34.7320   39.8300 C   0  0  0  0  0  0  0  0  0  0  0  0
   41.9650   34.7590   38.5570 C   0  0  0  0  0  0  0  0  0  0  0  0
   40.7390   34.2740   38.1330 C   0  0  0  0  0  0  0  0  0  0  0  0
   39.9700   33.7160   39.1240 C   0  0  0  0  0  0  0  0  0  0  0  0
   40.4570   33.6840   40.4060 C   0  0  0  0  0  0  0  0  0  0  0  0
   41.6450   34.1630   40.7730 N   0  0  0  0  0  0  0  0  0  0  0  0
   42.6400   35.2190   37.8310 H   0  0  0  0  0  0  0  0  0  0  0  0
   40.4450   34.3440   37.1150 H   0  0  0  0  0  0  0  0  0  0  0  0
   39.5370   33.0570   41.3920 C   0  0  0  0  0  0  0  0  0  0  0  0
   38.2030   33.2410   40.9650 F   0  0  0  0  0  0  0  0  0  0  0  0
   39.7340   33.4840   42.6750 F   0  0  0  0  0  0  0  0  0  0  0  0
   39.7090   31.6830   41.4060 F   0  0  0  0  0  0  0  0  0  0  0  0
   43.7200   35.2120   40.3540 C   0  0  0  0  0  0  0  0  0  0  0  0
   44.5160   34.4570   40.1740 H   0  0  0  0  0  0  0  0  0  0  0  0
   44.0220   36.1030   39.7600 H   0  0  0  0  0  0  0  0  0  0  0  0
   43.7520   35.5740   41.8050 C   0  0  0  0  0  0  0  0  0  0  0  0
   43.8140   36.6660   41.9650 H   0  0  0  0  0  0  0  0  0  0  0  0
   42.7890   35.2400   42.2490 H   0  0  0  0  0  0  0  0  0  0  0  0
   46.7280   33.6590   42.9000 C   0  0  0  0  0  0  0  0  0  0  0  0
   46.6260   33.8560   44.2380 C   0  0  0  0  0  0  0  0  0  0  0  0
   45.1100   34.8950   44.3500 S   0  0  0  0  0  0  0  0  0  0  0  0
   44.8700   34.8820   42.5050 C   0  0  0  0  0  0  0  0  0  0  0  0
   45.7830   34.2350   42.2200 N   0  0  0  0  0  0  0  0  0  0  0  0
   47.2780   33.4860   45.0010 H   0  0  0  0  0  0  0  0  0  0  0  0
   49.6630   32.5760   40.8050 C   0  0  0  0  0  0  0  0  0  0  0  0
   48.6710   33.4000   41.3660 C   0  0  0  0  0  0  0  0  0  0  0  0
   47.7970   32.8720   42.2630 C   0  0  0  0  0  0  0  0  0  0  0  0
   47.9530   31.5120   42.5690 N   0  0  0  0  0  0  0  0  0  0  0  0
   48.9180   30.7710   42.0030 C   0  0  0  0  0  0  0  0  0  0  0  0
   49.7720   31.2970   41.1250 N   0  0  0  0  0  0  0  0  0  0  0  0
   50.3840   32.9510   40.0850 H   0  0  0  0  0  0  0  0  0  0  0  0
   48.8660   29.7540   42.3720 H   0  0  0  0  0  0  0  0  0  0  0  0
   48.6510   34.7630   40.9460 N   0  0  0  0  0  0  0  0  0  0  0  0
   48.0730   34.7070   40.0710 H   0  0  0  0  0  0  0  0  0  0  0  0
   49.1380   35.4890   41.4880 H   0  0  0  0  0  0  0  0  0  0  0  0
   38.3620   33.0610   38.6640 S   0  0  0  0  0  0  0  0  0  0  0  0
   38.8910   31.0360   36.9990 C   0  0  0  0  0  3  0  0  0  0  0  0
   38.4130   31.3270   38.2840 C   0  0  0  0  0  0  0  0  0  0  0  0
   38.0390   30.2790   39.1090 C   0  0  0  0  0  0  0  0  0  0  0  0
   37.6880   30.6200   40.0690 H   0  0  0  0  0  0  0  0  0  0  0  0
   38.1320   28.9720   38.6800 C   0  0  0  0  0  0  0  0  0  0  0  0
   37.8190   27.8400   39.3350 N   0  0  0  0  0  0  0  0  0  0  0  0
   37.4400   27.7920   40.3120 H   0  0  0  0  0  0  0  0  0  0  0  0
   38.0660   26.8060   38.5440 N   0  0  0  0  0  0  0  0  0  0  0  0
   38.5460   27.2830   37.3640 C   0  0  0  0  0  0  0  0  0  0  0  0
   38.8530   26.7210   36.4840 H   0  0  0  0  0  0  0  0  0  0  0  0
   38.5980   28.6500   37.4210 C   0  0  0  0  0  0  0  0  0  0  0  0
   38.9630   29.7040   36.6210 C   0  0  0  0  0  3  0  0  0  0  0  0
  1 13  1  0  0  0  0
  1  6  1  0  0  0  0
  2  1  2  0  0  0  0
  3  2  1  0  0  0  0
  3  4  2  0  0  0  0
  4  5  1  0  0  0  0
  5  6  2  0  0  0  0
  5  9  1  0  0  0  0
  7  2  1  0  0  0  0
  8  3  1  0  0  0  0
  9 12  1  0  0  0  0
  9 11  1  0  0  0  0
 10  9  1  0  0  0  0
 13 16  1  0  0  0  0
 14 13  1  0  0  0  0
 15 13  1  0  0  0  0
 16 17  1  0  0  0  0
 16 18  1  0  0  0  0
 16 22  1  0  0  0  0
 19 20  2  0  0  0  0
 20 21  1  0  0  0  0
 20 24  1  0  0  0  0
 22 21  1  0  0  0  0
 23 22  2  0  0  0  0
 23 19  1  0  0  0  0
 25 30  2  0  0  0  0
 25 26  1  0  0  0  0
 26 27  2  0  0  0  0
 27 28  1  0  0  0  0
 27 19  1  0  0  0  0
 29 32  1  0  0  0  0
 29 28  2  0  0  0  0
 30 29  1  0  0  0  0
 31 25  1  0  0  0  0
 33 26  1  0  0  0  0
 33 35  1  0  0  0  0
 34 33  1  0  0  0  0
 36  4  1  0  0  0  0
 37 38  1  0  0  0  0
 38 36  1  0  0  0  0
 38 39  2  0  0  0  0
 39 40  1  0  0  0  0
 41 39  1  0  0  0  0
 41 42  1  0  0  0  0
 42 43  1  0  0  0  0
 44 42  1  0  0  0  0
 45 47  1  0  0  0  0
 45 44  2  0  0  0  0
 46 45  1  0  0  0  0
 47 41  2  0  0  0  0
 48 37  2  0  0  0  0
 48 47  1  0  0  0  0
M  END
>  <minimizedAffinity>
-5.95470428

>  <minimizedRMSD>
1.13448548

$$$$
