
 OpenBabel03242519153D

 45 49  0  0  1  0  0  0  0  0999 V2000
   48.2960   34.2160   40.9230 C   0  0  0  0  0  0  0  0  0  0  0  0
   47.7710   34.3240   39.6550 C   0  0  0  0  0  0  0  0  0  0  0  0
   48.1140   33.4540   38.6180 C   0  0  0  0  0  0  0  0  0  0  0  0
   49.0100   32.4800   38.9450 N   0  0  0  0  0  0  0  0  0  0  0  0
   49.5180   32.3800   40.1830 C   0  0  0  0  0  0  0  0  0  0  0  0
   49.1650   33.2330   41.1500 N   0  0  0  0  0  0  0  0  0  0  0  0
   47.0690   35.1190   39.4740 H   0  0  0  0  0  0  0  0  0  0  0  0
   47.6830   33.5680   37.6320 H   0  0  0  0  0  0  0  0  0  0  0  0
   50.4770   31.3000   40.5570 C   0  0  2  0  0  0  0  0  0  0  0  0
   51.2880   31.4590   41.8050 C   0  0  0  0  0  0  0  0  0  0  0  0
   51.9270   31.6180   40.4190 C   0  0  1  0  0  0  0  0  0  0  0  0
   50.1330   30.2730   40.3210 H   0  0  0  0  0  0  0  0  0  0  0  0
   51.2340   32.4140   42.3670 H   0  0  0  0  0  0  0  0  0  0  0  0
   51.5430   30.5940   42.4280 H   0  0  0  0  0  0  0  0  0  0  0  0
   52.2280   32.6170   40.0960 H   0  0  0  0  0  0  0  0  0  0  0  0
   52.4060   29.1930   40.4390 C   0  0  0  0  0  3  0  0  0  0  0  0
   52.7900   30.4580   40.0680 C   0  0  0  0  0  0  0  0  0  0  0  0
   53.9650   30.6940   39.3710 C   0  0  0  0  0  0  0  0  0  0  0  0
   54.2980   31.6770   39.0640 H   0  0  0  0  0  0  0  0  0  0  0  0
   54.7120   29.5650   39.0830 C   0  0  0  0  0  0  0  0  0  0  0  0
   55.8780   29.4310   38.4360 N   0  0  0  0  0  0  0  0  0  0  0  0
   56.5040   30.1470   37.9940 H   0  0  0  0  0  0  0  0  0  0  0  0
   56.2720   28.1770   38.3630 N   0  0  0  0  0  0  0  0  0  0  0  0
   55.3450   27.3990   38.9850 C   0  0  0  0  0  0  0  0  0  0  0  0
   55.2880   26.3280   39.1470 H   0  0  0  0  0  0  0  0  0  0  0  0
   54.3620   28.2810   39.4370 C   0  0  0  0  0  0  0  0  0  0  0  0
   53.1780   28.0960   40.1320 C   0  0  0  0  0  3  0  0  0  0  0  0
   47.9190   35.1210   41.9900 C   0  0  0  0  0  0  0  0  0  0  0  0
   48.5530   35.0150   42.8840 H   0  0  0  0  0  0  0  0  0  0  0  0
   48.0690   36.1700   41.6230 H   0  0  0  0  0  0  0  0  0  0  0  0
   46.4670   34.9580   42.3130 C   0  0  0  0  0  0  0  0  0  0  0  0
   45.9050   35.9260   42.2550 H   0  0  0  0  0  0  0  0  0  0  0  0
   45.9850   34.2840   41.5950 H   0  0  0  0  0  0  0  0  0  0  0  0
   44.5280   36.4110   44.0540 Cl  0  0  0  0  0  0  0  0  0  0  0  0
   45.3750   34.9640   44.5740 C   0  0  0  0  0  0  0  0  0  0  0  0
   46.2340   34.3910   43.6690 C   0  0  0  0  0  0  0  0  0  0  0  0
   46.8960   33.2400   44.0700 C   0  0  0  0  0  0  0  0  0  0  0  0
   46.6930   32.6990   45.3310 C   0  0  0  0  0  0  0  0  0  0  0  0
   45.8110   33.3090   46.2250 C   0  0  0  0  0  0  0  0  0  0  0  0
   45.1620   34.4430   45.8240 C   0  0  0  0  0  0  0  0  0  0  0  0
   47.5910   32.7310   43.4080 H   0  0  0  0  0  0  0  0  0  0  0  0
   47.2260   31.7990   45.6120 H   0  0  0  0  0  0  0  0  0  0  0  0
   45.6430   32.8960   47.2140 H   0  0  0  0  0  0  0  0  0  0  0  0
   44.2610   35.1240   46.6500 O   0  0  0  0  0  0  0  0  0  0  0  0
   43.4430   34.6520   47.0380 H   0  0  0  0  0  0  0  0  0  0  0  0
  1  6  1  0  0  0  0
  1 28  1  0  0  0  0
  2  1  2  0  0  0  0
  3  4  2  0  0  0  0
  3  2  1  0  0  0  0
  4  5  1  0  0  0  0
  5  9  1  0  0  0  0
  5  6  2  0  0  0  0
  7  2  1  0  0  0  0
  8  3  1  0  0  0  0
  9 12  1  6  0  0  0
  9 10  1  0  0  0  0
 10 13  1  0  0  0  0
 10 14  1  0  0  0  0
 11 15  1  6  0  0  0
 11  9  1  0  0  0  0
 11 10  1  0  0  0  0
 17 11  1  0  0  0  0
 17 16  2  0  0  0  0
 18 17  1  0  0  0  0
 19 18  1  0  0  0  0
 20 18  2  0  0  0  0
 20 26  1  0  0  0  0
 21 20  1  0  0  0  0
 22 21  1  0  0  0  0
 23 21  1  0  0  0  0
 23 24  2  0  0  0  0
 24 25  1  0  0  0  0
 24 26  1  0  0  0  0
 26 27  2  0  0  0  0
 27 16  1  0  0  0  0
 28 31  1  0  0  0  0
 28 29  1  0  0  0  0
 30 28  1  0  0  0  0
 31 36  1  0  0  0  0
 32 31  1  0  0  0  0
 33 31  1  0  0  0  0
 34 35  1  0  0  0  0
 35 40  1  0  0  0  0
 36 37  1  0  0  0  0
 36 35  2  0  0  0  0
 37 38  2  0  0  0  0
 38 42  1  0  0  0  0
 38 39  1  0  0  0  0
 39 43  1  0  0  0  0
 40 39  2  0  0  0  0
 40 44  1  0  0  0  0
 41 37  1  0  0  0  0
 44 45  1  0  0  0  0
M  END
>  <minimizedAffinity>
-5.92148018

>  <minimizedRMSD>
0.329637617

$$$$
