
 OpenBabel03252508333D

 35 38  0  0  1  0  0  0  0  0999 V2000
   38.4990   30.6390   40.9280 N   0  0  0  0  0  0  0  0  0  0  0  0
   37.2480   31.2340   40.6490 C   0  0  1  0  0  0  0  0  0  0  0  0
   37.2930   32.6180   40.1160 C   0  0  0  0  0  0  0  0  0  0  0  0
   38.2740   33.4520   40.6680 N   0  0  0  0  0  0  0  0  0  0  0  0
   39.5030   32.8660   41.0290 C   0  0  0  0  0  0  0  0  0  0  0  0
   39.6200   31.4480   40.5370 C   0  0  0  0  0  0  0  0  0  0  0  0
   36.6790   31.2820   41.6160 H   0  0  0  0  0  0  0  0  0  0  0  0
   36.2940   33.0930   40.2120 H   0  0  0  0  0  0  0  0  0  0  0  0
   37.5030   32.5290   39.0100 H   0  0  0  0  0  0  0  0  0  0  0  0
   38.2430   34.4320   40.4020 H   0  0  0  0  0  0  0  0  0  0  0  0
   39.6910   32.8440   42.1390 H   0  0  0  0  0  0  0  0  0  0  0  0
   40.3440   33.4500   40.6110 H   0  0  0  0  0  0  0  0  0  0  0  0
   39.7280   31.4050   39.4220 H   0  0  0  0  0  0  0  0  0  0  0  0
   40.5860   31.0870   40.9430 H   0  0  0  0  0  0  0  0  0  0  0  0
   35.3120   29.8070   40.3870 C   0  0  0  0  0  3  0  0  0  0  0  0
   36.3720   30.4190   39.7300 C   0  0  0  0  0  0  0  0  0  0  0  0
   36.4890   30.1990   38.3780 C   0  0  0  0  0  0  0  0  0  0  0  0
   37.3530   30.7210   37.9520 H   0  0  0  0  0  0  0  0  0  0  0  0
   35.6030   29.4160   37.7190 C   0  0  0  0  0  0  0  0  0  0  0  0
   35.6020   29.1220   36.4150 N   0  0  0  0  0  0  0  0  0  0  0  0
   36.2480   29.4080   35.6290 H   0  0  0  0  0  0  0  0  0  0  0  0
   34.5780   28.3340   36.1770 N   0  0  0  0  0  0  0  0  0  0  0  0
   33.9160   28.1160   37.3120 C   0  0  0  0  0  0  0  0  0  0  0  0
   33.0200   27.5120   37.4810 H   0  0  0  0  0  0  0  0  0  0  0  0
   34.5410   28.7960   38.3440 C   0  0  0  0  0  0  0  0  0  0  0  0
   34.4060   29.0010   39.6860 C   0  0  0  0  0  3  0  0  0  0  0  0
   38.1150   29.3140   42.8780 C   0  0  0  0  0  0  0  0  0  0  0  0
   38.5330   29.3610   41.5310 C   0  0  0  0  0  0  0  0  0  0  0  0
   38.9350   28.1840   40.9270 C   0  0  0  0  0  0  0  0  0  0  0  0
   38.9290   27.0150   41.6210 N   0  0  0  0  0  0  0  0  0  0  0  0
   38.5200   26.9930   42.9250 C   0  0  0  0  0  0  0  0  0  0  0  0
   38.1230   28.1280   43.5370 N   0  0  0  0  0  0  0  0  0  0  0  0
   37.7720   30.1080   43.5210 H   0  0  0  0  0  0  0  0  0  0  0  0
   39.2450   28.2200   39.9040 H   0  0  0  0  0  0  0  0  0  0  0  0
   38.5220   26.0450   43.4610 H   0  0  0  0  0  0  0  0  0  0  0  0
  1 28  1  0  0  0  0
  2  1  1  0  0  0  0
  2  7  1  1  0  0  0
  3  8  1  0  0  0  0
  3  2  1  0  0  0  0
  3  4  1  0  0  0  0
  4  5  1  0  0  0  0
  5 11  1  0  0  0  0
  6  1  1  0  0  0  0
  6 14  1  0  0  0  0
  6  5  1  0  0  0  0
  9  3  1  0  0  0  0
 10  4  1  0  0  0  0
 12  5  1  0  0  0  0
 13  6  1  0  0  0  0
 16 15  1  0  0  0  0
 16  2  1  0  0  0  0
 17 16  2  0  0  0  0
 18 17  1  0  0  0  0
 19 25  2  0  0  0  0
 19 17  1  0  0  0  0
 20 19  1  0  0  0  0
 21 20  1  0  0  0  0
 22 20  1  0  0  0  0
 22 23  2  0  0  0  0
 23 24  1  0  0  0  0
 23 25  1  0  0  0  0
 25 26  1  0  0  0  0
 26 15  2  0  0  0  0
 27 33  1  0  0  0  0
 27 32  1  0  0  0  0
 28 27  2  0  0  0  0
 29 28  1  0  0  0  0
 29 30  2  0  0  0  0
 30 31  1  0  0  0  0
 31 35  1  0  0  0  0
 31 32  2  0  0  0  0
 34 29  1  0  0  0  0
M  END
>  <minimizedAffinity>
-5.61988735

$$$$

 OpenBabel03252508333D

 35 38  0  0  1  0  0  0  0  0999 V2000
   38.9420   30.7490   40.7710 N   0  0  0  0  0  0  0  0  0  0  0  0
   37.7520   30.4360   41.4660 C   0  0  1  0  0  0  0  0  0  0  0  0
   36.5070   31.0330   40.9220 C   0  0  0  0  0  0  0  0  0  0  0  0
   36.6220   32.3420   40.4340 N   0  0  0  0  0  0  0  0  0  0  0  0
   37.8300   32.7020   39.8070 C   0  0  0  0  0  0  0  0  0  0  0  0
   38.7230   31.5140   39.5740 C   0  0  0  0  0  0  0  0  0  0  0  0
   37.8640   30.8280   42.5120 H   0  0  0  0  0  0  0  0  0  0  0  0
   35.6990   30.9820   41.6820 H   0  0  0  0  0  0  0  0  0  0  0  0
   36.1850   30.3750   40.0630 H   0  0  0  0  0  0  0  0  0  0  0  0
   35.7580   32.8070   40.1680 H   0  0  0  0  0  0  0  0  0  0  0  0
   38.4350   33.4590   40.3820 H   0  0  0  0  0  0  0  0  0  0  0  0
   37.6280   33.1830   38.8320 H   0  0  0  0  0  0  0  0  0  0  0  0
   38.3120   30.8370   38.7810 H   0  0  0  0  0  0  0  0  0  0  0  0
   39.6550   31.9390   39.1490 H   0  0  0  0  0  0  0  0  0  0  0  0
   37.5030   28.5540   42.9660 C   0  0  0  0  0  3  0  0  0  0  0  0
   37.5120   28.9560   41.6370 C   0  0  0  0  0  0  0  0  0  0  0  0
   37.3210   27.9860   40.6810 C   0  0  0  0  0  0  0  0  0  0  0  0
   37.3450   28.4000   39.6670 H   0  0  0  0  0  0  0  0  0  0  0  0
   37.1340   26.6910   41.0300 C   0  0  0  0  0  0  0  0  0  0  0  0
   36.9380   25.6560   40.2060 N   0  0  0  0  0  0  0  0  0  0  0  0
   36.8860   25.5960   39.1530 H   0  0  0  0  0  0  0  0  0  0  0  0
   36.8000   24.5740   40.9400 N   0  0  0  0  0  0  0  0  0  0  0  0
   36.9020   24.9000   42.2280 C   0  0  0  0  0  0  0  0  0  0  0  0
   36.8370   24.2530   43.1080 H   0  0  0  0  0  0  0  0  0  0  0  0
   37.1200   26.2620   42.3400 C   0  0  0  0  0  0  0  0  0  0  0  0
   37.3070   27.2090   43.3040 C   0  0  0  0  0  3  0  0  0  0  0  0
   40.6240   30.9560   42.4550 C   0  0  0  0  0  0  0  0  0  0  0  0
   40.1780   30.2990   41.2880 C   0  0  0  0  0  0  0  0  0  0  0  0
   40.9690   29.2980   40.7550 C   0  0  0  0  0  0  0  0  0  0  0  0
   42.1460   28.9610   41.3450 N   0  0  0  0  0  0  0  0  0  0  0  0
   42.5580   29.6100   42.4750 C   0  0  0  0  0  0  0  0  0  0  0  0
   41.8050   30.5900   43.0140 N   0  0  0  0  0  0  0  0  0  0  0  0
   40.1630   31.7510   43.0160 H   0  0  0  0  0  0  0  0  0  0  0  0
   40.6270   28.7970   39.8750 H   0  0  0  0  0  0  0  0  0  0  0  0
   43.5050   29.3230   42.9310 H   0  0  0  0  0  0  0  0  0  0  0  0
  1 28  1  0  0  0  0
  1  2  1  0  0  0  0
  2 16  1  0  0  0  0
  2  7  1  1  0  0  0
  3  2  1  0  0  0  0
  3  8  1  0  0  0  0
  4  3  1  0  0  0  0
  5 11  1  0  0  0  0
  5  4  1  0  0  0  0
  6  5  1  0  0  0  0
  6  1  1  0  0  0  0
  9  3  1  0  0  0  0
 10  4  1  0  0  0  0
 12  5  1  0  0  0  0
 13  6  1  0  0  0  0
 14  6  1  0  0  0  0
 15 26  1  0  0  0  0
 16 15  2  0  0  0  0
 17 19  2  0  0  0  0
 17 16  1  0  0  0  0
 18 17  1  0  0  0  0
 19 25  1  0  0  0  0
 20 22  1  0  0  0  0
 20 19  1  0  0  0  0
 21 20  1  0  0  0  0
 22 23  2  0  0  0  0
 23 25  1  0  0  0  0
 23 24  1  0  0  0  0
 25 26  2  0  0  0  0
 27 32  1  0  0  0  0
 27 33  1  0  0  0  0
 28 27  2  0  0  0  0
 29 28  1  0  0  0  0
 29 30  2  0  0  0  0
 30 31  1  0  0  0  0
 31 35  1  0  0  0  0
 31 32  2  0  0  0  0
 34 29  1  0  0  0  0
M  END
>  <minimizedAffinity>
-5.508811

$$$$

 OpenBabel03252508333D

 35 38  0  0  1  0  0  0  0  0999 V2000
   38.1560   30.6230   40.7000 N   0  0  0  0  0  0  0  0  0  0  0  0
   36.9750   31.1830   40.1630 C   0  0  1  0  0  0  0  0  0  0  0  0
   37.0870   32.5770   39.6660 C   0  0  0  0  0  0  0  0  0  0  0  0
   37.8960   33.4320   40.4270 N   0  0  0  0  0  0  0  0  0  0  0  0
   39.0370   32.8790   41.0390 C   0  0  0  0  0  0  0  0  0  0  0  0
   39.3060   31.4740   40.5690 C   0  0  0  0  0  0  0  0  0  0  0  0
   36.2090   31.1960   40.9840 H   0  0  0  0  0  0  0  0  0  0  0  0
   36.0750   33.0200   39.5490 H   0  0  0  0  0  0  0  0  0  0  0  0
   37.5340   32.5150   38.6320 H   0  0  0  0  0  0  0  0  0  0  0  0
   37.8900   34.4150   40.1700 H   0  0  0  0  0  0  0  0  0  0  0  0
   38.9810   32.8430   42.1630 H   0  0  0  0  0  0  0  0  0  0  0  0
   39.9290   33.4960   40.8200 H   0  0  0  0  0  0  0  0  0  0  0  0
   39.6550   31.4540   39.5040 H   0  0  0  0  0  0  0  0  0  0  0  0
   40.1740   31.1360   41.1720 H   0  0  0  0  0  0  0  0  0  0  0  0
   37.0150   30.4610   37.8550 C   0  0  0  0  0  3  0  0  0  0  0  0
   36.3470   30.3580   39.0680 C   0  0  0  0  0  0  0  0  0  0  0  0
   35.2300   29.5560   39.1080 C   0  0  0  0  0  0  0  0  0  0  0  0
   34.7740   29.5400   40.1040 H   0  0  0  0  0  0  0  0  0  0  0  0
   34.8050   28.8960   38.0050 C   0  0  0  0  0  0  0  0  0  0  0  0
   33.7420   28.0900   37.9090 N   0  0  0  0  0  0  0  0  0  0  0  0
   33.0210   27.7900   38.6190 H   0  0  0  0  0  0  0  0  0  0  0  0
   33.6770   27.6520   36.6710 N   0  0  0  0  0  0  0  0  0  0  0  0
   34.6860   28.1640   35.9680 C   0  0  0  0  0  0  0  0  0  0  0  0
   34.9360   28.0130   34.9140 H   0  0  0  0  0  0  0  0  0  0  0  0
   35.4480   28.9790   36.7880 C   0  0  0  0  0  0  0  0  0  0  0  0
   36.5580   29.7700   36.7260 C   0  0  0  0  0  3  0  0  0  0  0  0
   37.3610   29.2420   42.4800 C   0  0  0  0  0  0  0  0  0  0  0  0
   38.1030   29.3360   41.2820 C   0  0  0  0  0  0  0  0  0  0  0  0
   38.7050   28.1930   40.7920 C   0  0  0  0  0  0  0  0  0  0  0  0
   38.5840   27.0110   41.4530 N   0  0  0  0  0  0  0  0  0  0  0  0
   37.8610   26.9430   42.6110 C   0  0  0  0  0  0  0  0  0  0  0  0
   37.2640   28.0450   43.1100 N   0  0  0  0  0  0  0  0  0  0  0  0
   36.8260   30.0050   43.0200 H   0  0  0  0  0  0  0  0  0  0  0  0
   39.2610   28.2640   39.8810 H   0  0  0  0  0  0  0  0  0  0  0  0
   37.7770   25.9850   43.1230 H   0  0  0  0  0  0  0  0  0  0  0  0
  1 28  1  0  0  0  0
  2  1  1  0  0  0  0
  2  7  1  1  0  0  0
  3  2  1  0  0  0  0
  3  4  1  0  0  0  0
  4  5  1  0  0  0  0
  5 11  1  0  0  0  0
  6  1  1  0  0  0  0
  6  5  1  0  0  0  0
  6 14  1  0  0  0  0
  8  3  1  0  0  0  0
  9  3  1  0  0  0  0
 10  4  1  0  0  0  0
 12  5  1  0  0  0  0
 13  6  1  0  0  0  0
 15 16  1  0  0  0  0
 16 17  2  0  0  0  0
 16  2  1  0  0  0  0
 17 18  1  0  0  0  0
 19 17  1  0  0  0  0
 20 19  1  0  0  0  0
 20 21  1  0  0  0  0
 22 20  1  0  0  0  0
 23 22  2  0  0  0  0
 23 25  1  0  0  0  0
 24 23  1  0  0  0  0
 25 19  2  0  0  0  0
 26 25  1  0  0  0  0
 26 15  2  0  0  0  0
 27 33  1  0  0  0  0
 27 32  1  0  0  0  0
 28 27  2  0  0  0  0
 29 28  1  0  0  0  0
 29 30  2  0  0  0  0
 30 31  1  0  0  0  0
 31 32  2  0  0  0  0
 31 35  1  0  0  0  0
 34 29  1  0  0  0  0
M  END
>  <minimizedAffinity>
-5.41695595

$$$$

 OpenBabel03252508333D

 35 38  0  0  1  0  0  0  0  0999 V2000
   38.0500   29.1130   41.0610 N   0  0  0  0  0  0  0  0  0  0  0  0
   36.9140   28.3320   41.3690 C   0  0  1  0  0  0  0  0  0  0  0  0
   35.6100   28.8800   40.9190 C   0  0  0  0  0  0  0  0  0  0  0  0
   35.4630   30.2700   41.0280 N   0  0  0  0  0  0  0  0  0  0  0  0
   36.6020   31.0670   40.8040 C   0  0  0  0  0  0  0  0  0  0  0  0
   37.7540   30.2670   40.2570 C   0  0  0  0  0  0  0  0  0  0  0  0
   36.8580   28.2500   42.4870 H   0  0  0  0  0  0  0  0  0  0  0  0
   34.7800   28.3700   41.4520 H   0  0  0  0  0  0  0  0  0  0  0  0
   35.5070   28.6100   39.8270 H   0  0  0  0  0  0  0  0  0  0  0  0
   34.5390   30.6470   40.8370 H   0  0  0  0  0  0  0  0  0  0  0  0
   36.9780   31.5950   41.7250 H   0  0  0  0  0  0  0  0  0  0  0  0
   36.3690   31.8770   40.0880 H   0  0  0  0  0  0  0  0  0  0  0  0
   37.5640   29.9370   39.2030 H   0  0  0  0  0  0  0  0  0  0  0  0
   38.5950   30.9870   40.1960 H   0  0  0  0  0  0  0  0  0  0  0  0
   36.5530   26.7440   39.5800 C   0  0  0  0  0  3  0  0  0  0  0  0
   37.0000   26.9060   40.8850 C   0  0  0  0  0  0  0  0  0  0  0  0
   37.4350   25.7820   41.5480 C   0  0  0  0  0  0  0  0  0  0  0  0
   37.7650   26.0110   42.5670 H   0  0  0  0  0  0  0  0  0  0  0  0
   37.4240   24.5690   40.9460 C   0  0  0  0  0  0  0  0  0  0  0  0
   37.8170   23.4060   41.4750 N   0  0  0  0  0  0  0  0  0  0  0  0
   38.2050   23.1600   42.4270 H   0  0  0  0  0  0  0  0  0  0  0  0
   37.6470   22.4700   40.5670 N   0  0  0  0  0  0  0  0  0  0  0  0
   37.1510   23.0170   39.4590 C   0  0  0  0  0  0  0  0  0  0  0  0
   36.8890   22.5360   38.5120 H   0  0  0  0  0  0  0  0  0  0  0  0
   36.9870   24.3780   39.6530 C   0  0  0  0  0  0  0  0  0  0  0  0
   36.5510   25.4800   38.9770 C   0  0  0  0  0  3  0  0  0  0  0  0
   40.3070   28.5120   40.5580 C   0  0  0  0  0  0  0  0  0  0  0  0
   39.3150   28.7060   41.5430 C   0  0  0  0  0  0  0  0  0  0  0  0
   39.6500   28.4810   42.8650 C   0  0  0  0  0  0  0  0  0  0  0  0
   40.9050   28.0820   43.2010 N   0  0  0  0  0  0  0  0  0  0  0  0
   41.8510   27.9020   42.2300 C   0  0  0  0  0  0  0  0  0  0  0  0
   41.5490   28.1140   40.9330 N   0  0  0  0  0  0  0  0  0  0  0  0
   40.2480   28.6300   39.4890 H   0  0  0  0  0  0  0  0  0  0  0  0
   38.8990   28.6340   43.6110 H   0  0  0  0  0  0  0  0  0  0  0  0
   42.8500   27.5820   42.5230 H   0  0  0  0  0  0  0  0  0  0  0  0
  1  2  1  0  0  0  0
  1 28  1  0  0  0  0
  2  7  1  1  0  0  0
  3  4  1  0  0  0  0
  3  2  1  0  0  0  0
  3  8  1  0  0  0  0
  5  4  1  0  0  0  0
  5 11  1  0  0  0  0
  6  5  1  0  0  0  0
  6  1  1  0  0  0  0
  9  3  1  0  0  0  0
 10  4  1  0  0  0  0
 12  5  1  0  0  0  0
 13  6  1  0  0  0  0
 14  6  1  0  0  0  0
 15 16  1  0  0  0  0
 16  2  1  0  0  0  0
 16 17  2  0  0  0  0
 17 18  1  0  0  0  0
 19 20  1  0  0  0  0
 19 17  1  0  0  0  0
 20 21  1  0  0  0  0
 22 20  1  0  0  0  0
 23 25  1  0  0  0  0
 23 22  2  0  0  0  0
 24 23  1  0  0  0  0
 25 19  2  0  0  0  0
 26 15  2  0  0  0  0
 26 25  1  0  0  0  0
 27 32  2  0  0  0  0
 27 28  1  0  0  0  0
 28 29  2  0  0  0  0
 29 30  1  0  0  0  0
 29 34  1  0  0  0  0
 31 35  1  0  0  0  0
 31 30  2  0  0  0  0
 32 31  1  0  0  0  0
 33 27  1  0  0  0  0
M  END
>  <minimizedAffinity>
-5.38591194

$$$$

 OpenBabel03252508333D

 35 38  0  0  1  0  0  0  0  0999 V2000
   38.6230   30.4690   41.1600 N   0  0  0  0  0  0  0  0  0  0  0  0
   37.7340   29.6950   41.9400 C   0  0  1  0  0  0  0  0  0  0  0  0
   36.3020   29.7710   41.5590 C   0  0  0  0  0  0  0  0  0  0  0  0
   35.8450   31.0330   41.1570 N   0  0  0  0  0  0  0  0  0  0  0  0
   36.7400   31.8560   40.4460 C   0  0  0  0  0  0  0  0  0  0  0  0
   37.9900   31.1200   40.0460 C   0  0  0  0  0  0  0  0  0  0  0  0
   37.8050   30.0690   42.9960 H   0  0  0  0  0  0  0  0  0  0  0  0
   35.6690   29.3850   42.3850 H   0  0  0  0  0  0  0  0  0  0  0  0
   36.1630   29.0640   40.6890 H   0  0  0  0  0  0  0  0  0  0  0  0
   34.8450   31.1300   41.0060 H   0  0  0  0  0  0  0  0  0  0  0  0
   37.0670   32.7730   41.0140 H   0  0  0  0  0  0  0  0  0  0  0  0
   36.2580   32.2480   39.5310 H   0  0  0  0  0  0  0  0  0  0  0  0
   37.7850   30.3600   39.2490 H   0  0  0  0  0  0  0  0  0  0  0  0
   38.6300   31.8890   39.5660 H   0  0  0  0  0  0  0  0  0  0  0  0
   37.5200   27.4630   41.0320 C   0  0  0  0  0  3  0  0  0  0  0  0
   38.1060   28.2350   42.0260 C   0  0  0  0  0  0  0  0  0  0  0  0
   38.9100   27.5900   42.9370 C   0  0  0  0  0  0  0  0  0  0  0  0
   39.3240   28.2810   43.6790 H   0  0  0  0  0  0  0  0  0  0  0  0
   39.1170   26.2540   42.8620 C   0  0  0  0  0  0  0  0  0  0  0  0
   39.8700   25.5090   43.6770 N   0  0  0  0  0  0  0  0  0  0  0  0
   40.4490   25.7600   44.5240 H   0  0  0  0  0  0  0  0  0  0  0  0
   39.8060   24.2630   43.2620 N   0  0  0  0  0  0  0  0  0  0  0  0
   39.0230   24.1960   42.1880 C   0  0  0  0  0  0  0  0  0  0  0  0
   38.7500   23.3220   41.5890 H   0  0  0  0  0  0  0  0  0  0  0  0
   38.5490   25.4620   41.8860 C   0  0  0  0  0  0  0  0  0  0  0  0
   37.7480   26.0820   40.9730 C   0  0  0  0  0  3  0  0  0  0  0  0
   40.8930   30.0280   40.5630 C   0  0  0  0  0  0  0  0  0  0  0  0
   39.9870   30.5250   41.5240 C   0  0  0  0  0  0  0  0  0  0  0  0
   40.4940   31.0070   42.7160 C   0  0  0  0  0  0  0  0  0  0  0  0
   41.8330   31.0000   42.9510 N   0  0  0  0  0  0  0  0  0  0  0  0
   42.6920   30.5150   42.0050 C   0  0  0  0  0  0  0  0  0  0  0  0
   42.2230   30.0380   40.8340 N   0  0  0  0  0  0  0  0  0  0  0  0
   40.7040   29.6120   39.5880 H   0  0  0  0  0  0  0  0  0  0  0  0
   39.8060   31.3890   43.4410 H   0  0  0  0  0  0  0  0  0  0  0  0
   43.7610   30.5190   42.2150 H   0  0  0  0  0  0  0  0  0  0  0  0
  1 28  1  0  0  0  0
  1  2  1  0  0  0  0
  2 16  1  0  0  0  0
  2  7  1  1  0  0  0
  3  2  1  0  0  0  0
  3  8  1  0  0  0  0
  4  3  1  0  0  0  0
  5 11  1  0  0  0  0
  5  4  1  0  0  0  0
  6  5  1  0  0  0  0
  6  1  1  0  0  0  0
  9  3  1  0  0  0  0
 10  4  1  0  0  0  0
 12  5  1  0  0  0  0
 13  6  1  0  0  0  0
 14  6  1  0  0  0  0
 15 16  1  0  0  0  0
 16 17  2  0  0  0  0
 17 18  1  0  0  0  0
 19 17  1  0  0  0  0
 19 20  1  0  0  0  0
 20 21  1  0  0  0  0
 22 20  1  0  0  0  0
 23 22  2  0  0  0  0
 24 23  1  0  0  0  0
 25 23  1  0  0  0  0
 25 19  2  0  0  0  0
 26 15  2  0  0  0  0
 26 25  1  0  0  0  0
 27 32  2  0  0  0  0
 27 28  1  0  0  0  0
 28 29  2  0  0  0  0
 29 30  1  0  0  0  0
 29 34  1  0  0  0  0
 31 35  1  0  0  0  0
 31 30  2  0  0  0  0
 32 31  1  0  0  0  0
 33 27  1  0  0  0  0
M  END
>  <minimizedAffinity>
-5.36158514

$$$$

 OpenBabel03252508333D

 35 38  0  0  1  0  0  0  0  0999 V2000
   36.4580   29.4640   37.1020 N   0  0  0  0  0  0  0  0  0  0  0  0
   35.4800   29.4420   38.1220 C   0  0  1  0  0  0  0  0  0  0  0  0
   34.1970   28.7810   37.7760 C   0  0  0  0  0  0  0  0  0  0  0  0
   33.7350   28.9940   36.4700 N   0  0  0  0  0  0  0  0  0  0  0  0
   34.6960   29.0990   35.4460 C   0  0  0  0  0  0  0  0  0  0  0  0
   36.0760   28.7350   35.9240 C   0  0  0  0  0  0  0  0  0  0  0  0
   35.2340   30.5080   38.3710 H   0  0  0  0  0  0  0  0  0  0  0  0
   33.4130   29.0710   38.5060 H   0  0  0  0  0  0  0  0  0  0  0  0
   34.3630   27.6710   37.9030 H   0  0  0  0  0  0  0  0  0  0  0  0
   32.8050   28.6490   36.2530 H   0  0  0  0  0  0  0  0  0  0  0  0
   34.7690   30.1270   34.9910 H   0  0  0  0  0  0  0  0  0  0  0  0
   34.4330   28.4350   34.6020 H   0  0  0  0  0  0  0  0  0  0  0  0
   36.1640   27.6360   36.1320 H   0  0  0  0  0  0  0  0  0  0  0  0
   36.7370   28.9270   35.0550 H   0  0  0  0  0  0  0  0  0  0  0  0
   36.1850   27.4790   39.3480 C   0  0  0  0  0  3  0  0  0  0  0  0
   35.9630   28.8480   39.4220 C   0  0  0  0  0  0  0  0  0  0  0  0
   36.1910   29.4610   40.6320 C   0  0  0  0  0  0  0  0  0  0  0  0
   35.9890   30.5370   40.5900 H   0  0  0  0  0  0  0  0  0  0  0  0
   36.6140   28.7510   41.7050 C   0  0  0  0  0  0  0  0  0  0  0  0
   36.8720   29.2210   42.9300 N   0  0  0  0  0  0  0  0  0  0  0  0
   36.8120   30.1940   43.3370 H   0  0  0  0  0  0  0  0  0  0  0  0
   37.2570   28.2110   43.6780 N   0  0  0  0  0  0  0  0  0  0  0  0
   37.2530   27.0960   42.9500 C   0  0  0  0  0  0  0  0  0  0  0  0
   37.5160   26.0770   43.2500 H   0  0  0  0  0  0  0  0  0  0  0  0
   36.8430   27.3920   41.6610 C   0  0  0  0  0  0  0  0  0  0  0  0
   36.6230   26.7640   40.4700 C   0  0  0  0  0  3  0  0  0  0  0  0
   38.8230   29.3580   37.4250 C   0  0  0  0  0  0  0  0  0  0  0  0
   37.6670   30.1620   37.3240 C   0  0  0  0  0  0  0  0  0  0  0  0
   37.8060   31.5310   37.4530 C   0  0  0  0  0  0  0  0  0  0  0  0
   39.0290   32.0830   37.6720 N   0  0  0  0  0  0  0  0  0  0  0  0
   40.1350   31.2850   37.7660 C   0  0  0  0  0  0  0  0  0  0  0  0
   40.0260   29.9460   37.6450 N   0  0  0  0  0  0  0  0  0  0  0  0
   38.9250   28.2880   37.3570 H   0  0  0  0  0  0  0  0  0  0  0  0
   36.9310   32.1390   37.3690 H   0  0  0  0  0  0  0  0  0  0  0  0
   41.1050   31.7490   37.9420 H   0  0  0  0  0  0  0  0  0  0  0  0
  1 28  1  0  0  0  0
  1  2  1  0  0  0  0
  2  7  1  1  0  0  0
  2 16  1  0  0  0  0
  3  9  1  0  0  0  0
  3  2  1  0  0  0  0
  3  8  1  0  0  0  0
  4  3  1  0  0  0  0
  5  6  1  0  0  0  0
  5  4  1  0  0  0  0
  6 13  1  0  0  0  0
  6  1  1  0  0  0  0
 10  4  1  0  0  0  0
 11  5  1  0  0  0  0
 12  5  1  0  0  0  0
 14  6  1  0  0  0  0
 15 16  2  0  0  0  0
 15 26  1  0  0  0  0
 16 17  1  0  0  0  0
 17 19  2  0  0  0  0
 18 17  1  0  0  0  0
 19 20  1  0  0  0  0
 20 21  1  0  0  0  0
 20 22  1  0  0  0  0
 23 24  1  0  0  0  0
 23 22  2  0  0  0  0
 25 19  1  0  0  0  0
 25 23  1  0  0  0  0
 26 25  2  0  0  0  0
 27 32  1  0  0  0  0
 28 27  2  0  0  0  0
 28 29  1  0  0  0  0
 29 30  2  0  0  0  0
 30 31  1  0  0  0  0
 31 35  1  0  0  0  0
 32 31  2  0  0  0  0
 33 27  1  0  0  0  0
 34 29  1  0  0  0  0
M  END
>  <minimizedAffinity>
-5.30359077

$$$$

 OpenBabel03252508333D

 35 38  0  0  1  0  0  0  0  0999 V2000
   37.3970   27.4750   40.4350 N   0  0  0  0  0  0  0  0  0  0  0  0
   36.8650   28.4350   41.3260 C   0  0  1  0  0  0  0  0  0  0  0  0
   37.0050   28.1250   42.7700 C   0  0  0  0  0  0  0  0  0  0  0  0
   36.8350   26.7790   43.1240 N   0  0  0  0  0  0  0  0  0  0  0  0
   37.2850   25.8030   42.2150 C   0  0  0  0  0  0  0  0  0  0  0  0
   38.0890   26.4020   41.0930 C   0  0  0  0  0  0  0  0  0  0  0  0
   35.7640   28.5080   41.1190 H   0  0  0  0  0  0  0  0  0  0  0  0
   36.3150   28.7610   43.3630 H   0  0  0  0  0  0  0  0  0  0  0  0
   38.0530   28.4250   43.0630 H   0  0  0  0  0  0  0  0  0  0  0  0
   36.8100   26.5680   44.1180 H   0  0  0  0  0  0  0  0  0  0  0  0
   36.4570   25.2030   41.7410 H   0  0  0  0  0  0  0  0  0  0  0  0
   37.9140   25.0550   42.7340 H   0  0  0  0  0  0  0  0  0  0  0  0
   39.0840   26.7760   41.4510 H   0  0  0  0  0  0  0  0  0  0  0  0
   38.3170   25.5490   40.4210 H   0  0  0  0  0  0  0  0  0  0  0  0
   38.6750   30.0170   41.5970 C   0  0  0  0  0  3  0  0  0  0  0  0
   37.3880   29.8330   41.1060 C   0  0  0  0  0  0  0  0  0  0  0  0
   36.7750   30.9140   40.5180 C   0  0  0  0  0  0  0  0  0  0  0  0
   35.7670   30.6700   40.1650 H   0  0  0  0  0  0  0  0  0  0  0  0
   37.4060   32.1080   40.4240 C   0  0  0  0  0  0  0  0  0  0  0  0
   36.9260   33.2310   39.8790 N   0  0  0  0  0  0  0  0  0  0  0  0
   36.0000   33.4500   39.4200 H   0  0  0  0  0  0  0  0  0  0  0  0
   37.8480   34.1610   39.9900 N   0  0  0  0  0  0  0  0  0  0  0  0
   38.9180   33.6510   40.5980 C   0  0  0  0  0  0  0  0  0  0  0  0
   39.8630   34.1400   40.8510 H   0  0  0  0  0  0  0  0  0  0  0  0
   38.6820   32.3210   40.9010 C   0  0  0  0  0  0  0  0  0  0  0  0
   39.3090   31.2610   41.4890 C   0  0  0  0  0  3  0  0  0  0  0  0
   35.8810   27.5490   38.5900 C   0  0  0  0  0  0  0  0  0  0  0  0
   37.2130   27.6530   39.0450 C   0  0  0  0  0  0  0  0  0  0  0  0
   38.2050   27.9090   38.1170 C   0  0  0  0  0  0  0  0  0  0  0  0
   37.8990   28.0540   36.8000 N   0  0  0  0  0  0  0  0  0  0  0  0
   36.6010   27.9490   36.3830 C   0  0  0  0  0  0  0  0  0  0  0  0
   35.6150   27.7000   37.2680 N   0  0  0  0  0  0  0  0  0  0  0  0
   34.9780   27.3540   39.1440 H   0  0  0  0  0  0  0  0  0  0  0  0
   39.2130   27.9940   38.4640 H   0  0  0  0  0  0  0  0  0  0  0  0
   36.3790   28.0690   35.3220 H   0  0  0  0  0  0  0  0  0  0  0  0
  1  6  1  0  0  0  0
  1  2  1  0  0  0  0
  2  7  1  6  0  0  0
  2  3  1  0  0  0  0
  3  9  1  0  0  0  0
  3  4  1  0  0  0  0
  3  8  1  0  0  0  0
  4 10  1  0  0  0  0
  5 12  1  0  0  0  0
  5  4  1  0  0  0  0
  6 13  1  0  0  0  0
  6  5  1  0  0  0  0
 11  5  1  0  0  0  0
 14  6  1  0  0  0  0
 16  2  1  0  0  0  0
 16 15  2  0  0  0  0
 17 16  1  0  0  0  0
 18 17  1  0  0  0  0
 19 17  2  0  0  0  0
 19 25  1  0  0  0  0
 20 22  1  0  0  0  0
 20 19  1  0  0  0  0
 21 20  1  0  0  0  0
 22 23  2  0  0  0  0
 23 24  1  0  0  0  0
 23 25  1  0  0  0  0
 25 26  2  0  0  0  0
 26 15  1  0  0  0  0
 27 28  1  0  0  0  0
 27 33  1  0  0  0  0
 28  1  1  0  0  0  0
 29 34  1  0  0  0  0
 29 28  2  0  0  0  0
 30 29  1  0  0  0  0
 31 30  2  0  0  0  0
 31 32  1  0  0  0  0
 32 27  2  0  0  0  0
 35 31  1  0  0  0  0
M  END
>  <minimizedAffinity>
-5.26006651

$$$$

 OpenBabel03252508333D

 35 38  0  0  1  0  0  0  0  0999 V2000
   36.2270   29.1000   39.9970 N   0  0  0  0  0  0  0  0  0  0  0  0
   36.9750   29.6350   38.9250 C   0  0  1  0  0  0  0  0  0  0  0  0
   36.1990   30.0080   37.7160 C   0  0  0  0  0  0  0  0  0  0  0  0
   35.1470   29.1450   37.3770 N   0  0  0  0  0  0  0  0  0  0  0  0
   34.4370   28.5360   38.4290 C   0  0  0  0  0  0  0  0  0  0  0  0
   34.8090   29.1110   39.7700 C   0  0  0  0  0  0  0  0  0  0  0  0
   37.7090   28.8480   38.6040 H   0  0  0  0  0  0  0  0  0  0  0  0
   36.8830   30.1290   36.8490 H   0  0  0  0  0  0  0  0  0  0  0  0
   35.7540   31.0250   37.9210 H   0  0  0  0  0  0  0  0  0  0  0  0
   34.6830   29.3190   36.4910 H   0  0  0  0  0  0  0  0  0  0  0  0
   34.5880   27.4220   38.4980 H   0  0  0  0  0  0  0  0  0  0  0  0
   33.3480   28.6660   38.2840 H   0  0  0  0  0  0  0  0  0  0  0  0
   34.4300   30.1590   39.8900 H   0  0  0  0  0  0  0  0  0  0  0  0
   34.2410   28.5040   40.5050 H   0  0  0  0  0  0  0  0  0  0  0  0
   37.0920   31.9820   39.4990 C   0  0  0  0  0  3  0  0  0  0  0  0
   37.8280   30.8210   39.3020 C   0  0  0  0  0  0  0  0  0  0  0  0
   39.1920   30.9020   39.4590 C   0  0  0  0  0  0  0  0  0  0  0  0
   39.6820   29.9380   39.2840 H   0  0  0  0  0  0  0  0  0  0  0  0
   39.7880   32.0720   39.7910 C   0  0  0  0  0  0  0  0  0  0  0  0
   41.0940   32.2870   39.9730 N   0  0  0  0  0  0  0  0  0  0  0  0
   41.9290   31.6420   39.9070 H   0  0  0  0  0  0  0  0  0  0  0  0
   41.2580   33.5540   40.2830 N   0  0  0  0  0  0  0  0  0  0  0  0
   40.0710   34.1590   40.3050 C   0  0  0  0  0  0  0  0  0  0  0  0
   39.8360   35.2040   40.5250 H   0  0  0  0  0  0  0  0  0  0  0  0
   39.0840   33.2410   39.9920 C   0  0  0  0  0  0  0  0  0  0  0  0
   37.7290   33.1820   39.8420 C   0  0  0  0  0  3  0  0  0  0  0  0
   37.5190   27.3640   41.0100 C   0  0  0  0  0  0  0  0  0  0  0  0
   36.9090   28.6300   41.1430 C   0  0  0  0  0  0  0  0  0  0  0  0
   37.0200   29.2880   42.3530 C   0  0  0  0  0  0  0  0  0  0  0  0
   37.7000   28.7240   43.3860 N   0  0  0  0  0  0  0  0  0  0  0  0
   38.2840   27.4970   43.2340 C   0  0  0  0  0  0  0  0  0  0  0  0
   38.1900   26.8340   42.0640 N   0  0  0  0  0  0  0  0  0  0  0  0
   37.5460   26.6980   40.1640 H   0  0  0  0  0  0  0  0  0  0  0  0
   36.5630   30.2500   42.4500 H   0  0  0  0  0  0  0  0  0  0  0  0
   38.8240   27.0640   44.0760 H   0  0  0  0  0  0  0  0  0  0  0  0
  1 28  1  0  0  0  0
  2  7  1  6  0  0  0
  2 16  1  0  0  0  0
  2  1  1  0  0  0  0
  3  9  1  0  0  0  0
  3  2  1  0  0  0  0
  4  3  1  0  0  0  0
  4  5  1  0  0  0  0
  5 11  1  0  0  0  0
  5  6  1  0  0  0  0
  6 13  1  0  0  0  0
  6  1  1  0  0  0  0
  6 14  1  0  0  0  0
  8  3  1  0  0  0  0
 10  4  1  0  0  0  0
 12  5  1  0  0  0  0
 15 26  1  0  0  0  0
 16 17  1  0  0  0  0
 16 15  2  0  0  0  0
 17 19  2  0  0  0  0
 18 17  1  0  0  0  0
 19 20  1  0  0  0  0
 19 25  1  0  0  0  0
 20 22  1  0  0  0  0
 21 20  1  0  0  0  0
 22 23  2  0  0  0  0
 23 24  1  0  0  0  0
 25 23  1  0  0  0  0
 26 25  2  0  0  0  0
 27 28  2  0  0  0  0
 27 32  1  0  0  0  0
 28 29  1  0  0  0  0
 29 34  1  0  0  0  0
 29 30  2  0  0  0  0
 31 30  1  0  0  0  0
 31 35  1  0  0  0  0
 32 31  2  0  0  0  0
 33 27  1  0  0  0  0
M  END
>  <minimizedAffinity>
-5.19812536

$$$$

 OpenBabel03252508333D

 35 38  0  0  1  0  0  0  0  0999 V2000
   35.7930   28.3970   38.6620 N   0  0  0  0  0  0  0  0  0  0  0  0
   36.6120   29.0740   37.7310 C   0  0  1  0  0  0  0  0  0  0  0  0
   35.9490   29.4980   36.4730 C   0  0  0  0  0  0  0  0  0  0  0  0
   35.0120   28.6000   35.9450 N   0  0  0  0  0  0  0  0  0  0  0  0
   34.2380   27.8530   36.8550 C   0  0  0  0  0  0  0  0  0  0  0  0
   34.4120   28.3320   38.2720 C   0  0  0  0  0  0  0  0  0  0  0  0
   37.4360   28.3700   37.4370 H   0  0  0  0  0  0  0  0  0  0  0  0
   36.7140   29.7410   35.7050 H   0  0  0  0  0  0  0  0  0  0  0  0
   35.4070   30.4610   36.7040 H   0  0  0  0  0  0  0  0  0  0  0  0
   34.6370   28.8180   35.0270 H   0  0  0  0  0  0  0  0  0  0  0  0
   34.4660   26.7500   36.8520 H   0  0  0  0  0  0  0  0  0  0  0  0
   33.1650   27.9210   36.5930 H   0  0  0  0  0  0  0  0  0  0  0  0
   33.9420   29.3370   38.4290 H   0  0  0  0  0  0  0  0  0  0  0  0
   33.8160   27.6250   38.8840 H   0  0  0  0  0  0  0  0  0  0  0  0
   38.6990   30.2360   38.1150 C   0  0  0  0  0  3  0  0  0  0  0  0
   37.3230   30.2770   38.3000 C   0  0  0  0  0  0  0  0  0  0  0  0
   36.8070   31.3640   38.9660 C   0  0  0  0  0  0  0  0  0  0  0  0
   35.7180   31.3050   39.0620 H   0  0  0  0  0  0  0  0  0  0  0  0
   37.6150   32.3510   39.4210 C   0  0  0  0  0  0  0  0  0  0  0  0
   37.2440   33.4540   40.0790 N   0  0  0  0  0  0  0  0  0  0  0  0
   36.2960   33.8040   40.3870 H   0  0  0  0  0  0  0  0  0  0  0  0
   38.3270   34.1520   40.3420 N   0  0  0  0  0  0  0  0  0  0  0  0
   39.3910   33.5130   39.8600 C   0  0  0  0  0  0  0  0  0  0  0  0
   40.4440   33.8040   39.8980 H   0  0  0  0  0  0  0  0  0  0  0  0
   38.9830   32.3370   39.2530 C   0  0  0  0  0  0  0  0  0  0  0  0
   39.5160   31.2680   38.5940 C   0  0  0  0  0  3  0  0  0  0  0  0
   35.9330   28.4560   41.0460 C   0  0  0  0  0  0  0  0  0  0  0  0
   36.3780   27.8750   39.8390 C   0  0  0  0  0  0  0  0  0  0  0  0
   37.3280   26.8740   39.9030 C   0  0  0  0  0  0  0  0  0  0  0  0
   37.8190   26.4640   41.1020 N   0  0  0  0  0  0  0  0  0  0  0  0
   37.3730   27.0400   42.2590 C   0  0  0  0  0  0  0  0  0  0  0  0
   36.4470   28.0180   42.2240 N   0  0  0  0  0  0  0  0  0  0  0  0
   35.2110   29.2380   41.2090 H   0  0  0  0  0  0  0  0  0  0  0  0
   37.6590   26.4310   38.9880 H   0  0  0  0  0  0  0  0  0  0  0  0
   37.7810   26.6950   43.2090 H   0  0  0  0  0  0  0  0  0  0  0  0
  1 28  1  0  0  0  0
  2  7  1  6  0  0  0
  2 16  1  0  0  0  0
  2  1  1  0  0  0  0
  3  9  1  0  0  0  0
  3  2  1  0  0  0  0
  4  3  1  0  0  0  0
  4  5  1  0  0  0  0
  5  6  1  0  0  0  0
  6 13  1  0  0  0  0
  6  1  1  0  0  0  0
  6 14  1  0  0  0  0
  8  3  1  0  0  0  0
 10  4  1  0  0  0  0
 11  5  1  0  0  0  0
 12  5  1  0  0  0  0
 15 16  2  0  0  0  0
 15 26  1  0  0  0  0
 16 17  1  0  0  0  0
 17 18  1  0  0  0  0
 17 19  2  0  0  0  0
 19 20  1  0  0  0  0
 20 22  1  0  0  0  0
 20 21  1  0  0  0  0
 23 24  1  0  0  0  0
 23 22  2  0  0  0  0
 25 19  1  0  0  0  0
 25 23  1  0  0  0  0
 26 25  2  0  0  0  0
 27 33  1  0  0  0  0
 27 32  1  0  0  0  0
 28 29  1  0  0  0  0
 28 27  2  0  0  0  0
 29 30  2  0  0  0  0
 30 31  1  0  0  0  0
 31 35  1  0  0  0  0
 32 31  2  0  0  0  0
 34 29  1  0  0  0  0
M  END
>  <minimizedAffinity>
-5.1871829

$$$$
