
 OpenBabel03242519153D

 45 49  0  0  1  0  0  0  0  0999 V2000
   48.3520   34.0030   40.9890 C   0  0  0  0  0  0  0  0  0  0  0  0
   47.5860   34.2700   39.8770 C   0  0  0  0  0  0  0  0  0  0  0  0
   47.7500   33.5950   38.6660 C   0  0  0  0  0  0  0  0  0  0  0  0
   48.7270   32.6450   38.6540 N   0  0  0  0  0  0  0  0  0  0  0  0
   49.4700   32.3890   39.7410 C   0  0  0  0  0  0  0  0  0  0  0  0
   49.2840   33.0580   40.8840 N   0  0  0  0  0  0  0  0  0  0  0  0
   46.8340   35.0350   39.9640 H   0  0  0  0  0  0  0  0  0  0  0  0
   47.1300   33.8300   37.8110 H   0  0  0  0  0  0  0  0  0  0  0  0
   50.5230   31.3310   39.7460 C   0  0  2  0  0  0  0  0  0  0  0  0
   50.8260   30.6240   41.0300 C   0  0  0  0  0  0  0  0  0  0  0  0
   51.7960   31.6600   40.4470 C   0  0  1  0  0  0  0  0  0  0  0  0
   50.5660   30.7170   38.8240 H   0  0  0  0  0  0  0  0  0  0  0  0
   50.3380   30.9690   41.9650 H   0  0  0  0  0  0  0  0  0  0  0  0
   51.1010   29.5630   41.0410 H   0  0  0  0  0  0  0  0  0  0  0  0
   51.8960   32.6220   40.9540 H   0  0  0  0  0  0  0  0  0  0  0  0
   53.7310   30.1330   40.6280 C   0  0  0  0  0  3  0  0  0  0  0  0
   53.0100   31.0220   39.8700 C   0  0  0  0  0  0  0  0  0  0  0  0
   53.3760   31.3480   38.5740 C   0  0  0  0  0  0  0  0  0  0  0  0
   52.8310   32.0430   37.9490 H   0  0  0  0  0  0  0  0  0  0  0  0
   54.5160   30.7130   38.1090 C   0  0  0  0  0  0  0  0  0  0  0  0
   55.1400   30.7950   36.9270 N   0  0  0  0  0  0  0  0  0  0  0  0
   54.9180   31.3570   36.0690 H   0  0  0  0  0  0  0  0  0  0  0  0
   56.2080   30.0260   36.8670 N   0  0  0  0  0  0  0  0  0  0  0  0
   56.3380   29.3790   38.0570 C   0  0  0  0  0  0  0  0  0  0  0  0
   57.0700   28.6660   38.4190 H   0  0  0  0  0  0  0  0  0  0  0  0
   55.2660   29.8180   38.8370 C   0  0  0  0  0  0  0  0  0  0  0  0
   54.8590   29.5230   40.1290 C   0  0  0  0  0  3  0  0  0  0  0  0
   48.1600   34.7060   42.2410 C   0  0  0  0  0  0  0  0  0  0  0  0
   48.7520   34.2790   43.0650 H   0  0  0  0  0  0  0  0  0  0  0  0
   48.5230   35.7580   42.1070 H   0  0  0  0  0  0  0  0  0  0  0  0
   46.7030   34.7700   42.5760 C   0  0  0  0  0  0  0  0  0  0  0  0
   46.3050   35.8170   42.5540 H   0  0  0  0  0  0  0  0  0  0  0  0
   46.1130   34.2060   41.8430 H   0  0  0  0  0  0  0  0  0  0  0  0
   44.6800   36.2370   44.2060 Cl  0  0  0  0  0  0  0  0  0  0  0  0
   45.4860   34.7840   44.7720 C   0  0  0  0  0  0  0  0  0  0  0  0
   46.3900   34.2050   43.9160 C   0  0  0  0  0  0  0  0  0  0  0  0
   47.0190   33.0480   44.3540 C   0  0  0  0  0  0  0  0  0  0  0  0
   46.7410   32.5090   45.6010 C   0  0  0  0  0  0  0  0  0  0  0  0
   45.8160   33.1260   46.4450 C   0  0  0  0  0  0  0  0  0  0  0  0
   45.1990   34.2650   46.0070 C   0  0  0  0  0  0  0  0  0  0  0  0
   47.7470   32.5340   43.7310 H   0  0  0  0  0  0  0  0  0  0  0  0
   47.2510   31.6050   45.9110 H   0  0  0  0  0  0  0  0  0  0  0  0
   45.5900   32.7140   47.4220 H   0  0  0  0  0  0  0  0  0  0  0  0
   44.2580   34.9530   46.7820 O   0  0  0  0  0  0  0  0  0  0  0  0
   43.4160   34.4870   47.1230 H   0  0  0  0  0  0  0  0  0  0  0  0
  1 28  1  0  0  0  0
  2  7  1  0  0  0  0
  2  1  2  0  0  0  0
  3  2  1  0  0  0  0
  4  3  2  0  0  0  0
  4  5  1  0  0  0  0
  5  9  1  0  0  0  0
  5  6  2  0  0  0  0
  6  1  1  0  0  0  0
  8  3  1  0  0  0  0
  9 12  1  6  0  0  0
  9 11  1  0  0  0  0
  9 10  1  0  0  0  0
 10 14  1  0  0  0  0
 10 13  1  0  0  0  0
 11 15  1  1  0  0  0
 11 10  1  0  0  0  0
 17 11  1  0  0  0  0
 17 16  2  0  0  0  0
 18 17  1  0  0  0  0
 19 18  1  0  0  0  0
 20 18  2  0  0  0  0
 20 26  1  0  0  0  0
 21 20  1  0  0  0  0
 22 21  1  0  0  0  0
 23 21  1  0  0  0  0
 23 24  2  0  0  0  0
 24 25  1  0  0  0  0
 24 26  1  0  0  0  0
 26 27  2  0  0  0  0
 27 16  1  0  0  0  0
 28 31  1  0  0  0  0
 28 29  1  0  0  0  0
 30 28  1  0  0  0  0
 31 36  1  0  0  0  0
 32 31  1  0  0  0  0
 33 31  1  0  0  0  0
 34 35  1  0  0  0  0
 35 40  1  0  0  0  0
 36 37  1  0  0  0  0
 36 35  2  0  0  0  0
 37 38  2  0  0  0  0
 38 42  1  0  0  0  0
 38 39  1  0  0  0  0
 39 43  1  0  0  0  0
 40 39  2  0  0  0  0
 40 44  1  0  0  0  0
 41 37  1  0  0  0  0
 44 45  1  0  0  0  0
M  END
>  <minimizedAffinity>
-6.34591579

>  <minimizedRMSD>
1.00710654

$$$$
