
 OpenBabel03242522203D

 48 52  0  0  0  0  0  0  0  0999 V2000
   42.2980   34.8320   39.8680 C   0  0  0  0  0  0  0  0  0  0  0  0
   41.7960   34.9460   38.6030 C   0  0  0  0  0  0  0  0  0  0  0  0
   40.5950   34.4380   38.1370 C   0  0  0  0  0  0  0  0  0  0  0  0
   39.8610   33.7550   39.0740 C   0  0  0  0  0  0  0  0  0  0  0  0
   40.3540   33.6340   40.3480 C   0  0  0  0  0  0  0  0  0  0  0  0
   41.5180   34.1390   40.7560 N   0  0  0  0  0  0  0  0  0  0  0  0
   42.4430   35.5040   37.9200 H   0  0  0  0  0  0  0  0  0  0  0  0
   40.2930   34.5820   37.1290 H   0  0  0  0  0  0  0  0  0  0  0  0
   39.4730   32.8740   41.2750 C   0  0  0  0  0  0  0  0  0  0  0  0
   38.1260   33.0770   40.9030 F   0  0  0  0  0  0  0  0  0  0  0  0
   39.6950   33.1520   42.5940 F   0  0  0  0  0  0  0  0  0  0  0  0
   39.6730   31.5120   41.1220 F   0  0  0  0  0  0  0  0  0  0  0  0
   43.5340   35.3280   40.4320 C   0  0  0  0  0  0  0  0  0  0  0  0
   44.3840   34.6970   40.0930 H   0  0  0  0  0  0  0  0  0  0  0  0
   43.7270   36.3360   40.0030 H   0  0  0  0  0  0  0  0  0  0  0  0
   43.6020   35.4260   41.9230 C   0  0  0  0  0  0  0  0  0  0  0  0
   43.5450   36.4710   42.2800 H   0  0  0  0  0  0  0  0  0  0  0  0
   42.7100   34.9010   42.3290 H   0  0  0  0  0  0  0  0  0  0  0  0
   46.7570   33.5920   42.5590 C   0  0  0  0  0  0  0  0  0  0  0  0
   46.8460   33.7830   43.8990 C   0  0  0  0  0  0  0  0  0  0  0  0
   45.3360   34.7790   44.2380 S   0  0  0  0  0  0  0  0  0  0  0  0
   44.8290   34.7640   42.4480 C   0  0  0  0  0  0  0  0  0  0  0  0
   45.7070   34.1430   42.0290 N   0  0  0  0  0  0  0  0  0  0  0  0
   47.6130   33.4300   44.5570 H   0  0  0  0  0  0  0  0  0  0  0  0
   49.4010   32.6020   40.0680 C   0  0  0  0  0  0  0  0  0  0  0  0
   48.4820   33.3970   40.7750 C   0  0  0  0  0  0  0  0  0  0  0  0
   47.7420   32.8360   41.7680 C   0  0  0  0  0  0  0  0  0  0  0  0
   47.9560   31.4730   42.0190 N   0  0  0  0  0  0  0  0  0  0  0  0
   48.8470   30.7600   41.3130 C   0  0  0  0  0  0  0  0  0  0  0  0
   49.5690   31.3180   40.3410 N   0  0  0  0  0  0  0  0  0  0  0  0
   50.0150   33.0030   39.2680 H   0  0  0  0  0  0  0  0  0  0  0  0
   48.8580   29.7340   41.6620 H   0  0  0  0  0  0  0  0  0  0  0  0
   48.3870   34.7680   40.3930 N   0  0  0  0  0  0  0  0  0  0  0  0
   47.6990   34.7200   39.6020 H   0  0  0  0  0  0  0  0  0  0  0  0
   48.9320   35.4910   40.8820 H   0  0  0  0  0  0  0  0  0  0  0  0
   38.2860   33.0600   38.5570 S   0  0  0  0  0  0  0  0  0  0  0  0
   38.8300   30.4510   38.3440 C   0  0  0  0  0  3  0  0  0  0  0  0
   38.4750   31.5800   37.5950 C   0  0  0  0  0  0  0  0  0  0  0  0
   38.3090   31.4460   36.2260 C   0  0  0  0  0  0  0  0  0  0  0  0
   38.0390   32.3750   35.7530 H   0  0  0  0  0  0  0  0  0  0  0  0
   38.4900   30.2260   35.6070 C   0  0  0  0  0  0  0  0  0  0  0  0
   38.3740   29.9110   34.3040 N   0  0  0  0  0  0  0  0  0  0  0  0
   38.1180   30.5830   33.5400 H   0  0  0  0  0  0  0  0  0  0  0  0
   38.6360   28.6220   34.1520 N   0  0  0  0  0  0  0  0  0  0  0  0
   38.9240   28.1020   35.3760 C   0  0  0  0  0  0  0  0  0  0  0  0
   39.1860   27.0760   35.6300 H   0  0  0  0  0  0  0  0  0  0  0  0
   38.8390   29.0950   36.3160 C   0  0  0  0  0  0  0  0  0  0  0  0
   38.9970   29.2510   37.6690 C   0  0  0  0  0  3  0  0  0  0  0  0
  1 13  1  0  0  0  0
  1  6  1  0  0  0  0
  2  1  2  0  0  0  0
  3  2  1  0  0  0  0
  3  4  2  0  0  0  0
  4  5  1  0  0  0  0
  5  6  2  0  0  0  0
  5  9  1  0  0  0  0
  7  2  1  0  0  0  0
  8  3  1  0  0  0  0
  9 11  1  0  0  0  0
 10  9  1  0  0  0  0
 12  9  1  0  0  0  0
 13 16  1  0  0  0  0
 14 13  1  0  0  0  0
 15 13  1  0  0  0  0
 16 17  1  0  0  0  0
 16 18  1  0  0  0  0
 16 22  1  0  0  0  0
 19 20  2  0  0  0  0
 20 21  1  0  0  0  0
 20 24  1  0  0  0  0
 22 21  1  0  0  0  0
 23 22  2  0  0  0  0
 23 19  1  0  0  0  0
 25 30  2  0  0  0  0
 25 26  1  0  0  0  0
 26 27  2  0  0  0  0
 27 28  1  0  0  0  0
 27 19  1  0  0  0  0
 29 32  1  0  0  0  0
 29 28  2  0  0  0  0
 30 29  1  0  0  0  0
 31 25  1  0  0  0  0
 33 26  1  0  0  0  0
 33 35  1  0  0  0  0
 34 33  1  0  0  0  0
 36  4  1  0  0  0  0
 38 37  2  0  0  0  0
 38 36  1  0  0  0  0
 39 38  1  0  0  0  0
 40 39  1  0  0  0  0
 41 39  2  0  0  0  0
 41 47  1  0  0  0  0
 42 41  1  0  0  0  0
 43 42  1  0  0  0  0
 44 42  1  0  0  0  0
 44 45  2  0  0  0  0
 45 46  1  0  0  0  0
 45 47  1  0  0  0  0
 47 48  2  0  0  0  0
 48 37  1  0  0  0  0
M  END
>  <minimizedAffinity>
-5.87809515

>  <minimizedRMSD>
0.488441288

$$$$
