
 OpenBabel03242519253D

 43 47  0  0  0  0  0  0  0  0999 V2000
   47.9200   33.8650   42.8800 C   0  0  0  0  0  0  0  0  0  0  0  0
   48.5550   35.0870   42.6440 C   0  0  0  0  0  0  0  0  0  0  0  0
   49.9200   35.1280   42.3140 C   0  0  0  0  0  0  0  0  0  0  0  0
   50.5530   33.9060   42.2460 N   0  0  0  0  0  0  0  0  0  0  0  0
   49.8990   32.7300   42.4850 C   0  0  0  0  0  0  0  0  0  0  0  0
   48.6060   32.7220   42.7950 N   0  0  0  0  0  0  0  0  0  0  0  0
   48.1410   36.0860   42.6750 H   0  0  0  0  0  0  0  0  0  0  0  0
   50.4740   36.0300   42.1200 H   0  0  0  0  0  0  0  0  0  0  0  0
   46.4880   33.9570   43.2220 C   0  0  0  0  0  0  0  0  0  0  0  0
   45.7580   34.9580   42.4470 C   0  0  0  0  0  0  0  0  0  0  0  0
   45.2850   36.1250   43.2350 C   0  0  0  0  0  0  0  0  0  0  0  0
   44.5090   35.7400   44.4830 C   0  0  0  0  0  0  0  0  0  0  0  0
   44.9800   34.4610   45.1330 C   0  0  0  0  0  0  0  0  0  0  0  0
   46.4170   34.1840   44.7430 C   0  0  0  0  0  0  0  0  0  0  0  0
   46.0720   32.9160   43.0780 H   0  0  0  0  0  0  0  0  0  0  0  0
   44.8450   34.4960   41.9750 H   0  0  0  0  0  0  0  0  0  0  0  0
   46.4120   35.3470   41.6450 H   0  0  0  0  0  0  0  0  0  0  0  0
   46.0170   36.9050   43.4550 H   0  0  0  0  0  0  0  0  0  0  0  0
   44.5110   36.6390   42.5890 H   0  0  0  0  0  0  0  0  0  0  0  0
   44.6790   36.5530   45.2400 H   0  0  0  0  0  0  0  0  0  0  0  0
   43.4130   35.7190   44.3270 H   0  0  0  0  0  0  0  0  0  0  0  0
   44.8740   34.4600   46.2170 H   0  0  0  0  0  0  0  0  0  0  0  0
   44.3880   33.6380   44.6580 H   0  0  0  0  0  0  0  0  0  0  0  0
   47.0360   35.1070   44.9190 H   0  0  0  0  0  0  0  0  0  0  0  0
   46.7860   33.3020   45.2790 H   0  0  0  0  0  0  0  0  0  0  0  0
   50.7160   31.5270   42.3770 C   0  0  0  0  0  0  0  0  0  0  0  0
   51.4180   31.3570   41.2310 N   0  0  0  0  0  0  0  0  0  0  0  0
   52.1140   30.2100   41.2940 C   0  0  0  0  0  0  0  0  0  0  0  0
   51.8320   29.6560   42.5170 N   0  0  0  0  0  0  0  0  0  0  0  0
   50.9860   30.4600   43.1640 N   0  0  0  0  0  0  0  0  0  0  0  0
   52.7800   29.7410   40.5860 H   0  0  0  0  0  0  0  0  0  0  0  0
   53.0970   27.5300   42.4570 C   0  0  0  0  0  3  0  0  0  0  0  0
   52.2860   28.4490   43.1210 C   0  0  0  0  0  0  0  0  0  0  0  0
   51.9340   28.1320   44.4190 C   0  0  0  0  0  0  0  0  0  0  0  0
   51.3050   28.8410   44.9370 H   0  0  0  0  0  0  0  0  0  0  0  0
   52.3390   26.9780   45.0620 C   0  0  0  0  0  0  0  0  0  0  0  0
   52.0870   26.5280   46.3080 N   0  0  0  0  0  0  0  0  0  0  0  0
   51.5020   27.0400   46.9980 H   0  0  0  0  0  0  0  0  0  0  0  0
   52.7110   25.3650   46.4370 N   0  0  0  0  0  0  0  0  0  0  0  0
   53.3680   25.0560   45.2850 C   0  0  0  0  0  0  0  0  0  0  0  0
   53.9630   24.1860   45.0730 H   0  0  0  0  0  0  0  0  0  0  0  0
   53.1500   26.0720   44.3820 C   0  0  0  0  0  0  0  0  0  0  0  0
   53.5040   26.3780   43.0940 C   0  0  0  0  0  3  0  0  0  0  0  0
  1  9  1  0  0  0  0
  2  7  1  0  0  0  0
  2  1  2  0  0  0  0
  3  2  1  0  0  0  0
  4  3  2  0  0  0  0
  4  5  1  0  0  0  0
  5  6  2  0  0  0  0
  6  1  1  0  0  0  0
  8  3  1  0  0  0  0
  9 14  1  0  0  0  0
 10  9  1  0  0  0  0
 10 11  1  0  0  0  0
 11 18  1  0  0  0  0
 11 12  1  0  0  0  0
 12 13  1  0  0  0  0
 12 20  1  0  0  0  0
 13 22  1  0  0  0  0
 14 24  1  0  0  0  0
 14 13  1  0  0  0  0
 14 25  1  0  0  0  0
 15  9  1  0  0  0  0
 16 10  1  0  0  0  0
 17 10  1  0  0  0  0
 19 11  1  0  0  0  0
 21 12  1  0  0  0  0
 23 13  1  0  0  0  0
 26  5  1  0  0  0  0
 26 30  2  0  0  0  0
 27 28  2  0  0  0  0
 27 26  1  0  0  0  0
 28 29  1  0  0  0  0
 29 33  1  0  0  0  0
 29 30  1  0  0  0  0
 31 28  1  0  0  0  0
 32 43  2  0  0  0  0
 32 33  1  0  0  0  0
 33 34  2  0  0  0  0
 34 35  1  0  0  0  0
 34 36  1  0  0  0  0
 36 37  1  0  0  0  0
 37 39  1  0  0  0  0
 37 38  1  0  0  0  0
 40 39  2  0  0  0  0
 41 40  1  0  0  0  0
 42 36  2  0  0  0  0
 42 40  1  0  0  0  0
 43 42  1  0  0  0  0
M  END
>  <minimizedAffinity>
-4.25772905

>  <minimizedRMSD>
1.21635926

$$$$
