
 OpenBabel03242519253D

 43 47  0  0  0  0  0  0  0  0999 V2000
   47.9230   33.8020   42.8900 C   0  0  0  0  0  0  0  0  0  0  0  0
   48.5780   35.0120   42.6470 C   0  0  0  0  0  0  0  0  0  0  0  0
   49.9450   35.0290   42.3260 C   0  0  0  0  0  0  0  0  0  0  0  0
   50.5600   33.7970   42.2720 N   0  0  0  0  0  0  0  0  0  0  0  0
   49.8870   32.6330   42.5180 C   0  0  0  0  0  0  0  0  0  0  0  0
   48.5920   32.6480   42.8200 N   0  0  0  0  0  0  0  0  0  0  0  0
   48.1790   36.0170   42.6660 H   0  0  0  0  0  0  0  0  0  0  0  0
   50.5140   35.9210   42.1260 H   0  0  0  0  0  0  0  0  0  0  0  0
   46.4900   33.9180   43.2230 C   0  0  0  0  0  0  0  0  0  0  0  0
   45.7780   34.9160   42.4270 C   0  0  0  0  0  0  0  0  0  0  0  0
   45.3160   36.1020   43.1930 C   0  0  0  0  0  0  0  0  0  0  0  0
   44.5280   35.7480   44.4420 C   0  0  0  0  0  0  0  0  0  0  0  0
   44.9790   34.4740   45.1160 C   0  0  0  0  0  0  0  0  0  0  0  0
   46.4140   34.1710   44.7400 C   0  0  0  0  0  0  0  0  0  0  0  0
   46.0610   32.8810   43.0930 H   0  0  0  0  0  0  0  0  0  0  0  0
   44.8620   34.4580   41.9580 H   0  0  0  0  0  0  0  0  0  0  0  0
   46.4420   35.2820   41.6230 H   0  0  0  0  0  0  0  0  0  0  0  0
   46.0580   36.8760   43.4040 H   0  0  0  0  0  0  0  0  0  0  0  0
   44.5530   36.6150   42.5340 H   0  0  0  0  0  0  0  0  0  0  0  0
   44.7050   36.5710   45.1870 H   0  0  0  0  0  0  0  0  0  0  0  0
   43.4330   35.7390   44.2810 H   0  0  0  0  0  0  0  0  0  0  0  0
   44.8670   34.4920   46.1990 H   0  0  0  0  0  0  0  0  0  0  0  0
   44.3780   33.6510   44.6520 H   0  0  0  0  0  0  0  0  0  0  0  0
   47.0450   35.0890   44.9030 H   0  0  0  0  0  0  0  0  0  0  0  0
   46.7680   33.2940   45.2920 H   0  0  0  0  0  0  0  0  0  0  0  0
   50.6870   31.4170   42.4260 C   0  0  0  0  0  0  0  0  0  0  0  0
   51.3850   31.2210   41.2830 N   0  0  0  0  0  0  0  0  0  0  0  0
   52.0650   30.0650   41.3610 C   0  0  0  0  0  0  0  0  0  0  0  0
   51.7760   29.5330   42.5920 N   0  0  0  0  0  0  0  0  0  0  0  0
   50.9420   30.3580   43.2280 N   0  0  0  0  0  0  0  0  0  0  0  0
   52.7230   29.5770   40.6600 H   0  0  0  0  0  0  0  0  0  0  0  0
   52.9240   27.3420   42.5300 C   0  0  0  0  0  3  0  0  0  0  0  0
   52.2130   28.3280   43.2130 C   0  0  0  0  0  0  0  0  0  0  0  0
   51.9440   28.0790   44.5450 C   0  0  0  0  0  0  0  0  0  0  0  0
   51.3930   28.8410   45.0770 H   0  0  0  0  0  0  0  0  0  0  0  0
   52.3380   26.9330   45.2050 C   0  0  0  0  0  0  0  0  0  0  0  0
   52.1570   26.5450   46.4850 N   0  0  0  0  0  0  0  0  0  0  0  0
   51.6520   27.1150   47.1920 H   0  0  0  0  0  0  0  0  0  0  0  0
   52.7310   25.3560   46.6170 N   0  0  0  0  0  0  0  0  0  0  0  0
   53.2830   24.9690   45.4340 C   0  0  0  0  0  0  0  0  0  0  0  0
   53.8150   24.0610   45.2160 H   0  0  0  0  0  0  0  0  0  0  0  0
   53.0480   25.9590   44.5080 C   0  0  0  0  0  0  0  0  0  0  0  0
   53.3200   26.1960   43.1850 C   0  0  0  0  0  3  0  0  0  0  0  0
  1  9  1  0  0  0  0
  2  7  1  0  0  0  0
  2  1  2  0  0  0  0
  3  2  1  0  0  0  0
  4  3  2  0  0  0  0
  4  5  1  0  0  0  0
  5  6  2  0  0  0  0
  6  1  1  0  0  0  0
  8  3  1  0  0  0  0
  9 14  1  0  0  0  0
 10 11  1  0  0  0  0
 10  9  1  0  0  0  0
 11 18  1  0  0  0  0
 11 12  1  0  0  0  0
 12 13  1  0  0  0  0
 12 20  1  0  0  0  0
 13 22  1  0  0  0  0
 14 24  1  0  0  0  0
 14 13  1  0  0  0  0
 14 25  1  0  0  0  0
 15  9  1  0  0  0  0
 16 10  1  0  0  0  0
 17 10  1  0  0  0  0
 19 11  1  0  0  0  0
 21 12  1  0  0  0  0
 23 13  1  0  0  0  0
 26  5  1  0  0  0  0
 26 30  2  0  0  0  0
 27 28  2  0  0  0  0
 27 26  1  0  0  0  0
 28 29  1  0  0  0  0
 29 33  1  0  0  0  0
 29 30  1  0  0  0  0
 31 28  1  0  0  0  0
 32 43  2  0  0  0  0
 32 33  1  0  0  0  0
 33 34  2  0  0  0  0
 34 35  1  0  0  0  0
 34 36  1  0  0  0  0
 36 37  1  0  0  0  0
 37 39  1  0  0  0  0
 37 38  1  0  0  0  0
 40 39  2  0  0  0  0
 41 40  1  0  0  0  0
 42 36  2  0  0  0  0
 42 40  1  0  0  0  0
 43 42  1  0  0  0  0
M  END
>  <minimizedAffinity>
-4.24894428

>  <minimizedRMSD>
0.95011133

$$$$
