
 OpenBabel03252509123D

 35 39  0  0  0  0  0  0  0  0999 V2000
   47.5110   31.2230   44.9820 C   0  0  0  0  0  0  0  0  0  0  0  0
   47.2940   32.2740   44.1020 C   0  0  0  0  0  0  0  0  0  0  0  0
   46.4910   33.3410   44.4120 C   0  0  0  0  0  0  0  0  0  0  0  0
   45.8490   33.4040   45.6530 C   0  0  0  0  0  0  0  0  0  0  0  0
   45.0150   34.2690   46.2760 N   0  0  0  0  0  0  0  0  0  0  0  0
   44.7160   33.7800   47.5110 C   0  0  0  0  0  0  0  0  0  0  0  0
   45.3780   32.6160   47.6140 N   0  0  0  0  0  0  0  0  0  0  0  0
   46.0800   32.3490   46.5070 C   0  0  0  0  0  0  0  0  0  0  0  0
   46.8770   31.2670   46.2310 C   0  0  0  0  0  0  0  0  0  0  0  0
   48.1510   30.3780   44.7300 H   0  0  0  0  0  0  0  0  0  0  0  0
   44.7330   35.1370   45.7650 H   0  0  0  0  0  0  0  0  0  0  0  0
   44.0620   34.3790   48.1000 H   0  0  0  0  0  0  0  0  0  0  0  0
   47.0190   30.4630   46.9520 H   0  0  0  0  0  0  0  0  0  0  0  0
   47.9100   31.6200   40.5430 C   0  0  0  0  0  0  0  0  0  0  0  0
   49.1660   32.2000   40.3370 C   0  0  0  0  0  0  0  0  0  0  0  0
   49.7920   32.8130   41.4260 C   0  0  0  0  0  0  0  0  0  0  0  0
   49.1520   32.8180   42.6370 N   0  0  0  0  0  0  0  0  0  0  0  0
   47.9430   32.2490   42.7960 C   0  0  0  0  0  0  0  0  0  0  0  0
   47.3240   31.6540   41.7610 N   0  0  0  0  0  0  0  0  0  0  0  0
   47.4510   31.1540   39.6810 H   0  0  0  0  0  0  0  0  0  0  0  0
   49.7150   32.2310   39.4220 H   0  0  0  0  0  0  0  0  0  0  0  0
   50.7540   33.3010   41.4270 H   0  0  0  0  0  0  0  0  0  0  0  0
   46.2150   34.6970   43.2770 S   0  0  0  0  0  0  0  0  0  0  0  0
   43.9530   35.5920   41.8960 C   0  0  0  0  0  3  0  0  0  0  0  0
   44.6620   34.5320   42.4220 C   0  0  0  0  0  0  0  0  0  0  0  0
   44.1560   33.2560   42.2900 C   0  0  0  0  0  0  0  0  0  0  0  0
   44.6840   32.4010   42.6900 H   0  0  0  0  0  0  0  0  0  0  0  0
   42.9530   33.1200   41.6300 C   0  0  0  0  0  0  0  0  0  0  0  0
   42.2480   31.9850   41.3680 N   0  0  0  0  0  0  0  0  0  0  0  0
   42.4290   30.9750   41.5910 H   0  0  0  0  0  0  0  0  0  0  0  0
   41.1350   32.2930   40.7050 N   0  0  0  0  0  0  0  0  0  0  0  0
   41.1060   33.6270   40.5280 C   0  0  0  0  0  0  0  0  0  0  0  0
   40.3460   34.2050   40.0300 H   0  0  0  0  0  0  0  0  0  0  0  0
   42.2480   34.1940   41.1030 C   0  0  0  0  0  0  0  0  0  0  0  0
   42.7480   35.4720   41.2320 C   0  0  0  0  0  3  0  0  0  0  0  0
  1  9  1  0  0  0  0
  2  3  1  0  0  0  0
  2  1  2  0  0  0  0
  3  4  2  0  0  0  0
  4  5  1  0  0  0  0
  4  8  1  0  0  0  0
  5  6  1  0  0  0  0
  6  7  2  0  0  0  0
  6 12  1  0  0  0  0
  8  7  1  0  0  0  0
  9  8  2  0  0  0  0
  9 13  1  0  0  0  0
 10  1  1  0  0  0  0
 11  5  1  0  0  0  0
 14 19  1  0  0  0  0
 15 14  2  0  0  0  0
 15 16  1  0  0  0  0
 16 22  1  0  0  0  0
 16 17  2  0  0  0  0
 17 18  1  0  0  0  0
 18  2  1  0  0  0  0
 19 18  2  0  0  0  0
 20 14  1  0  0  0  0
 21 15  1  0  0  0  0
 23  3  1  0  0  0  0
 24 25  1  0  0  0  0
 25 23  1  0  0  0  0
 26 25  2  0  0  0  0
 26 27  1  0  0  0  0
 28 26  1  0  0  0  0
 29 30  1  0  0  0  0
 29 28  1  0  0  0  0
 31 29  1  0  0  0  0
 32 31  2  0  0  0  0
 32 34  1  0  0  0  0
 33 32  1  0  0  0  0
 34 35  1  0  0  0  0
 34 28  2  0  0  0  0
 35 24  2  0  0  0  0
M  END
>  <minimizedAffinity>
-5.470294

>  <minimizedRMSD>
1.9116255

$$$$
