
 OpenBabel03252509083D

 44 48  0  0  0  0  0  0  0  0999 V2000
   47.6630   31.8000   38.9800 C   0  0  0  0  0  0  0  0  0  0  0  0
   47.1850   33.0720   38.8620 C   0  0  0  0  0  0  0  0  0  0  0  0
   47.8200   33.9710   38.0200 C   0  0  0  0  0  0  0  0  0  0  0  0
   48.9300   33.5910   37.3030 C   0  0  0  0  0  0  0  0  0  0  0  0
   49.4500   32.3010   37.3940 C   0  0  0  0  0  0  0  0  0  0  0  0
   48.7900   31.4140   38.2500 C   0  0  0  0  0  0  0  0  0  0  0  0
   47.4700   34.9740   37.9070 H   0  0  0  0  0  0  0  0  0  0  0  0
   49.4650   34.2250   36.6420 H   0  0  0  0  0  0  0  0  0  0  0  0
   50.2980   31.9400   36.8730 H   0  0  0  0  0  0  0  0  0  0  0  0
   49.1740   30.4050   38.3390 H   0  0  0  0  0  0  0  0  0  0  0  0
   45.1360   35.3830   42.9980 Cl  0  0  0  0  0  0  0  0  0  0  0  0
   45.0520   34.6050   41.4380 C   0  0  0  0  0  0  0  0  0  0  0  0
   46.1720   34.1720   40.8070 C   0  0  0  0  0  0  0  0  0  0  0  0
   46.0130   33.5700   39.5690 C   0  0  0  0  0  0  0  0  0  0  0  0
   44.7760   33.4150   38.9950 C   0  0  0  0  0  0  0  0  0  0  0  0
   43.6630   33.8520   39.6370 C   0  0  0  0  0  0  0  0  0  0  0  0
   43.8050   34.4550   40.8750 C   0  0  0  0  0  0  0  0  0  0  0  0
   44.7180   32.9390   38.0240 H   0  0  0  0  0  0  0  0  0  0  0  0
   42.7140   33.7090   39.1510 H   0  0  0  0  0  0  0  0  0  0  0  0
   42.8980   34.7900   41.3590 H   0  0  0  0  0  0  0  0  0  0  0  0
   49.4910   35.6610   41.8620 C   0  0  0  0  0  0  0  0  0  0  0  0
   48.2490   35.4880   41.2440 C   0  0  0  0  0  0  0  0  0  0  0  0
   47.4670   34.3620   41.4420 C   0  0  0  0  0  0  0  0  0  0  0  0
   48.0180   33.4710   42.2730 N   0  0  0  0  0  0  0  0  0  0  0  0
   49.1990   33.6150   42.8720 C   0  0  0  0  0  0  0  0  0  0  0  0
   49.9310   34.7020   42.6690 N   0  0  0  0  0  0  0  0  0  0  0  0
   50.0460   36.5730   41.6560 H   0  0  0  0  0  0  0  0  0  0  0  0
   47.8700   36.2720   40.5740 H   0  0  0  0  0  0  0  0  0  0  0  0
   49.4500   32.7580   43.5110 H   0  0  0  0  0  0  0  0  0  0  0  0
   46.9470   30.6690   40.0050 S   0  0  0  0  0  0  0  0  0  0  0  0
   47.2930   29.2420   39.5110 O   0  0  0  0  0  0  0  0  0  0  0  0
   47.7000   30.7670   41.3330 O   0  0  0  0  0  0  0  0  0  0  0  0
   44.2790   30.0550   39.3870 C   0  0  0  0  0  3  0  0  0  0  0  0
   45.2660   30.4860   40.2610 C   0  0  0  0  0  0  0  0  0  0  0  0
   44.6390   30.8360   41.4880 C   0  0  0  0  0  0  0  0  0  0  0  0
   45.3220   31.2010   42.2800 H   0  0  0  0  0  0  0  0  0  0  0  0
   43.3020   30.7800   41.8130 C   0  0  0  0  0  0  0  0  0  0  0  0
   42.6230   31.0840   42.9270 N   0  0  0  0  0  0  0  0  0  0  0  0
   43.0520   31.4460   43.8050 H   0  0  0  0  0  0  0  0  0  0  0  0
   41.3600   30.8290   42.6630 N   0  0  0  0  0  0  0  0  0  0  0  0
   41.2190   30.3710   41.4090 C   0  0  0  0  0  0  0  0  0  0  0  0
   40.2930   30.0780   40.9090 H   0  0  0  0  0  0  0  0  0  0  0  0
   42.4840   30.3320   40.8320 C   0  0  0  0  0  0  0  0  0  0  0  0
   42.9270   29.9510   39.5850 C   0  0  0  0  0  3  0  0  0  0  0  0
  1 30  1  0  0  0  0
  2  1  1  0  0  0  0
  2 14  1  0  0  0  0
  3  2  2  0  0  0  0
  4  5  2  0  0  0  0
  4  3  1  0  0  0  0
  5  6  1  0  0  0  0
  6 10  1  0  0  0  0
  6  1  2  0  0  0  0
  7  3  1  0  0  0  0
  8  4  1  0  0  0  0
  9  5  1  0  0  0  0
 12 11  1  0  0  0  0
 13 12  2  0  0  0  0
 13 23  1  0  0  0  0
 14 13  1  0  0  0  0
 15 14  2  0  0  0  0
 15 16  1  0  0  0  0
 16 17  2  0  0  0  0
 17 20  1  0  0  0  0
 17 12  1  0  0  0  0
 18 15  1  0  0  0  0
 19 16  1  0  0  0  0
 21 26  1  0  0  0  0
 22 23  1  0  0  0  0
 22 21  2  0  0  0  0
 23 24  2  0  0  0  0
 24 25  1  0  0  0  0
 25 29  1  0  0  0  0
 26 25  2  0  0  0  0
 27 21  1  0  0  0  0
 28 22  1  0  0  0  0
 30 34  1  0  0  0  0
 30 32  2  0  0  0  0
 31 30  2  0  0  0  0
 33 44  2  0  0  0  0
 33 34  1  0  0  0  0
 34 35  2  0  0  0  0
 35 37  1  0  0  0  0
 35 36  1  0  0  0  0
 37 38  1  0  0  0  0
 38 39  1  0  0  0  0
 40 38  1  0  0  0  0
 41 40  2  0  0  0  0
 42 41  1  0  0  0  0
 43 41  1  0  0  0  0
 43 37  2  0  0  0  0
 44 43  1  0  0  0  0
M  END
>  <minimizedAffinity>
-5.30104399

>  <minimizedRMSD>
1.27728677

$$$$
