
 OpenBabel03242522203D

 48 52  0  0  0  0  0  0  0  0999 V2000
   42.2820   34.8240   39.9250 C   0  0  0  0  0  0  0  0  0  0  0  0
   41.7470   34.9440   38.6740 C   0  0  0  0  0  0  0  0  0  0  0  0
   40.5600   34.3910   38.2220 C   0  0  0  0  0  0  0  0  0  0  0  0
   39.8800   33.6520   39.1580 C   0  0  0  0  0  0  0  0  0  0  0  0
   40.4080   33.5250   40.4180 C   0  0  0  0  0  0  0  0  0  0  0  0
   41.5560   34.0750   40.8130 N   0  0  0  0  0  0  0  0  0  0  0  0
   42.3510   35.5470   37.9910 H   0  0  0  0  0  0  0  0  0  0  0  0
   40.2300   34.5440   37.2250 H   0  0  0  0  0  0  0  0  0  0  0  0
   39.5840   32.7030   41.3440 C   0  0  0  0  0  0  0  0  0  0  0  0
   38.2210   32.8450   41.0020 F   0  0  0  0  0  0  0  0  0  0  0  0
   39.8180   32.9660   42.6650 F   0  0  0  0  0  0  0  0  0  0  0  0
   39.8480   31.3570   41.1590 F   0  0  0  0  0  0  0  0  0  0  0  0
   43.5060   35.3650   40.4740 C   0  0  0  0  0  0  0  0  0  0  0  0
   44.3740   34.7680   40.1200 H   0  0  0  0  0  0  0  0  0  0  0  0
   43.6550   36.3820   40.0470 H   0  0  0  0  0  0  0  0  0  0  0  0
   43.5920   35.4580   41.9640 C   0  0  0  0  0  0  0  0  0  0  0  0
   43.5550   36.5040   42.3240 H   0  0  0  0  0  0  0  0  0  0  0  0
   42.6960   34.9470   42.3790 H   0  0  0  0  0  0  0  0  0  0  0  0
   46.7150   33.5600   42.5670 C   0  0  0  0  0  0  0  0  0  0  0  0
   46.8390   33.7740   43.9000 C   0  0  0  0  0  0  0  0  0  0  0  0
   45.3610   34.8130   44.2520 S   0  0  0  0  0  0  0  0  0  0  0  0
   44.8130   34.7760   42.4750 C   0  0  0  0  0  0  0  0  0  0  0  0
   45.6670   34.1270   42.0490 N   0  0  0  0  0  0  0  0  0  0  0  0
   47.6110   33.4140   44.5470 H   0  0  0  0  0  0  0  0  0  0  0  0
   49.3110   32.4680   40.0680 C   0  0  0  0  0  0  0  0  0  0  0  0
   48.4310   33.2990   40.7830 C   0  0  0  0  0  0  0  0  0  0  0  0
   47.6630   32.7650   41.7680 C   0  0  0  0  0  0  0  0  0  0  0  0
   47.8100   31.3910   42.0060 N   0  0  0  0  0  0  0  0  0  0  0  0
   48.6660   30.6430   41.2940 C   0  0  0  0  0  0  0  0  0  0  0  0
   49.4160   31.1750   40.3280 N   0  0  0  0  0  0  0  0  0  0  0  0
   49.9450   32.8470   39.2730 H   0  0  0  0  0  0  0  0  0  0  0  0
   48.6270   29.6140   41.6320 H   0  0  0  0  0  0  0  0  0  0  0  0
   48.4040   34.6780   40.4140 N   0  0  0  0  0  0  0  0  0  0  0  0
   47.7150   34.6710   39.6220 H   0  0  0  0  0  0  0  0  0  0  0  0
   48.9820   35.3680   40.9110 H   0  0  0  0  0  0  0  0  0  0  0  0
   38.3290   32.8960   38.6580 S   0  0  0  0  0  0  0  0  0  0  0  0
   38.0460   30.2430   38.8250 C   0  0  0  0  0  3  0  0  0  0  0  0
   38.5450   31.2600   38.0030 C   0  0  0  0  0  0  0  0  0  0  0  0
   39.1380   30.9140   36.8000 C   0  0  0  0  0  0  0  0  0  0  0  0
   39.4830   31.7740   36.2520 H   0  0  0  0  0  0  0  0  0  0  0  0
   39.2380   29.5930   36.4140 C   0  0  0  0  0  0  0  0  0  0  0  0
   39.7760   29.0750   35.2950 N   0  0  0  0  0  0  0  0  0  0  0  0
   40.2140   29.6310   34.5220 H   0  0  0  0  0  0  0  0  0  0  0  0
   39.6570   27.7550   35.3360 N   0  0  0  0  0  0  0  0  0  0  0  0
   39.0350   27.4250   36.5000 C   0  0  0  0  0  0  0  0  0  0  0  0
   38.7730   26.4330   36.8660 H   0  0  0  0  0  0  0  0  0  0  0  0
   38.7580   28.5670   37.2020 C   0  0  0  0  0  0  0  0  0  0  0  0
   38.1750   28.9330   38.3880 C   0  0  0  0  0  3  0  0  0  0  0  0
  1 13  1  0  0  0  0
  1  6  1  0  0  0  0
  2  1  2  0  0  0  0
  3  2  1  0  0  0  0
  3  4  2  0  0  0  0
  4  5  1  0  0  0  0
  5  6  2  0  0  0  0
  5  9  1  0  0  0  0
  7  2  1  0  0  0  0
  8  3  1  0  0  0  0
  9 11  1  0  0  0  0
 10  9  1  0  0  0  0
 12  9  1  0  0  0  0
 13 16  1  0  0  0  0
 14 13  1  0  0  0  0
 15 13  1  0  0  0  0
 16 17  1  0  0  0  0
 16 18  1  0  0  0  0
 16 22  1  0  0  0  0
 19 20  2  0  0  0  0
 20 21  1  0  0  0  0
 20 24  1  0  0  0  0
 22 21  1  0  0  0  0
 23 22  2  0  0  0  0
 23 19  1  0  0  0  0
 25 30  2  0  0  0  0
 25 26  1  0  0  0  0
 26 27  2  0  0  0  0
 27 28  1  0  0  0  0
 27 19  1  0  0  0  0
 29 32  1  0  0  0  0
 29 28  2  0  0  0  0
 30 29  1  0  0  0  0
 31 25  1  0  0  0  0
 33 26  1  0  0  0  0
 33 35  1  0  0  0  0
 34 33  1  0  0  0  0
 36  4  1  0  0  0  0
 38 36  1  0  0  0  0
 38 37  2  0  0  0  0
 39 38  1  0  0  0  0
 40 39  1  0  0  0  0
 41 39  2  0  0  0  0
 41 47  1  0  0  0  0
 42 44  1  0  0  0  0
 42 41  1  0  0  0  0
 43 42  1  0  0  0  0
 44 45  2  0  0  0  0
 45 46  1  0  0  0  0
 45 47  1  0  0  0  0
 47 48  2  0  0  0  0
 48 37  1  0  0  0  0
M  END
>  <minimizedAffinity>
-5.90194893

>  <minimizedRMSD>
0.817481637

$$$$
