
 OpenBabel03242519253D

 43 47  0  0  0  0  0  0  0  0999 V2000
   47.9290   33.7920   42.8920 C   0  0  0  0  0  0  0  0  0  0  0  0
   48.5830   35.0040   42.6550 C   0  0  0  0  0  0  0  0  0  0  0  0
   49.9500   35.0240   42.3340 C   0  0  0  0  0  0  0  0  0  0  0  0
   50.5660   33.7930   42.2740 N   0  0  0  0  0  0  0  0  0  0  0  0
   49.8930   32.6270   42.5130 C   0  0  0  0  0  0  0  0  0  0  0  0
   48.5990   32.6400   42.8150 N   0  0  0  0  0  0  0  0  0  0  0  0
   48.1840   36.0090   42.6800 H   0  0  0  0  0  0  0  0  0  0  0  0
   50.5180   35.9180   42.1390 H   0  0  0  0  0  0  0  0  0  0  0  0
   46.4960   33.9070   43.2260 C   0  0  0  0  0  0  0  0  0  0  0  0
   45.7810   34.8980   42.4250 C   0  0  0  0  0  0  0  0  0  0  0  0
   45.3150   36.0860   43.1850 C   0  0  0  0  0  0  0  0  0  0  0  0
   44.5300   35.7360   44.4370 C   0  0  0  0  0  0  0  0  0  0  0  0
   44.9850   34.4680   45.1180 C   0  0  0  0  0  0  0  0  0  0  0  0
   46.4210   34.1670   44.7410 C   0  0  0  0  0  0  0  0  0  0  0  0
   46.0700   32.8670   43.1020 H   0  0  0  0  0  0  0  0  0  0  0  0
   44.8650   34.4340   41.9590 H   0  0  0  0  0  0  0  0  0  0  0  0
   46.4420   35.2620   41.6190 H   0  0  0  0  0  0  0  0  0  0  0  0
   46.0550   36.8640   43.3910 H   0  0  0  0  0  0  0  0  0  0  0  0
   44.5500   36.5940   42.5240 H   0  0  0  0  0  0  0  0  0  0  0  0
   44.7050   36.5640   45.1780 H   0  0  0  0  0  0  0  0  0  0  0  0
   43.4350   35.7230   44.2770 H   0  0  0  0  0  0  0  0  0  0  0  0
   44.8740   34.4920   46.2010 H   0  0  0  0  0  0  0  0  0  0  0  0
   44.3870   33.6400   44.6590 H   0  0  0  0  0  0  0  0  0  0  0  0
   47.0490   35.0880   44.8990 H   0  0  0  0  0  0  0  0  0  0  0  0
   46.7780   33.2940   45.2980 H   0  0  0  0  0  0  0  0  0  0  0  0
   50.6940   31.4120   42.4140 C   0  0  0  0  0  0  0  0  0  0  0  0
   51.4130   31.2360   41.2800 N   0  0  0  0  0  0  0  0  0  0  0  0
   52.0900   30.0780   41.3500 C   0  0  0  0  0  0  0  0  0  0  0  0
   51.7780   29.5240   42.5660 N   0  0  0  0  0  0  0  0  0  0  0  0
   50.9330   30.3380   43.2010 N   0  0  0  0  0  0  0  0  0  0  0  0
   52.7610   29.6020   40.6520 H   0  0  0  0  0  0  0  0  0  0  0  0
   53.3590   27.6330   42.7840 C   0  0  0  0  0  3  0  0  0  0  0  0
   52.2030   28.3070   43.1720 C   0  0  0  0  0  0  0  0  0  0  0  0
   51.4700   27.7320   44.1930 C   0  0  0  0  0  0  0  0  0  0  0  0
   50.5730   28.2520   44.4970 H   0  0  0  0  0  0  0  0  0  0  0  0
   51.8260   26.5560   44.8230 C   0  0  0  0  0  0  0  0  0  0  0  0
   51.2270   25.8730   45.8210 N   0  0  0  0  0  0  0  0  0  0  0  0
   50.3450   26.1790   46.2780 H   0  0  0  0  0  0  0  0  0  0  0  0
   51.9730   24.8030   46.0630 N   0  0  0  0  0  0  0  0  0  0  0  0
   53.0510   24.7840   45.2310 C   0  0  0  0  0  0  0  0  0  0  0  0
   53.8360   24.0530   45.1790 H   0  0  0  0  0  0  0  0  0  0  0  0
   52.9850   25.8960   44.4220 C   0  0  0  0  0  0  0  0  0  0  0  0
   53.7200   26.4590   43.4100 C   0  0  0  0  0  3  0  0  0  0  0  0
  1  9  1  0  0  0  0
  2  7  1  0  0  0  0
  2  1  2  0  0  0  0
  3  2  1  0  0  0  0
  4  3  2  0  0  0  0
  4  5  1  0  0  0  0
  5  6  2  0  0  0  0
  6  1  1  0  0  0  0
  8  3  1  0  0  0  0
  9 14  1  0  0  0  0
 10 11  1  0  0  0  0
 10  9  1  0  0  0  0
 11 18  1  0  0  0  0
 11 12  1  0  0  0  0
 12 13  1  0  0  0  0
 12 20  1  0  0  0  0
 13 22  1  0  0  0  0
 14 24  1  0  0  0  0
 14 13  1  0  0  0  0
 14 25  1  0  0  0  0
 15  9  1  0  0  0  0
 16 10  1  0  0  0  0
 17 10  1  0  0  0  0
 19 11  1  0  0  0  0
 21 12  1  0  0  0  0
 23 13  1  0  0  0  0
 26  5  1  0  0  0  0
 26 30  2  0  0  0  0
 27 28  2  0  0  0  0
 27 26  1  0  0  0  0
 28 29  1  0  0  0  0
 29 33  1  0  0  0  0
 29 30  1  0  0  0  0
 31 28  1  0  0  0  0
 32 33  2  0  0  0  0
 32 43  1  0  0  0  0
 33 34  1  0  0  0  0
 34 35  1  0  0  0  0
 34 36  2  0  0  0  0
 36 37  1  0  0  0  0
 37 39  1  0  0  0  0
 37 38  1  0  0  0  0
 40 39  2  0  0  0  0
 41 40  1  0  0  0  0
 42 36  1  0  0  0  0
 42 40  1  0  0  0  0
 43 42  2  0  0  0  0
M  END
>  <minimizedAffinity>
-4.2173934

>  <minimizedRMSD>
1.16496098

$$$$
