
 OpenBabel03252509123D

 35 39  0  0  0  0  0  0  0  0999 V2000
   47.8520   30.7740   44.8770 C   0  0  0  0  0  0  0  0  0  0  0  0
   47.4880   31.9030   44.1560 C   0  0  0  0  0  0  0  0  0  0  0  0
   46.6470   32.8610   44.6620 C   0  0  0  0  0  0  0  0  0  0  0  0
   46.1170   32.7270   45.9490 C   0  0  0  0  0  0  0  0  0  0  0  0
   45.2880   33.4460   46.7410 N   0  0  0  0  0  0  0  0  0  0  0  0
   45.1340   32.7920   47.9260 C   0  0  0  0  0  0  0  0  0  0  0  0
   45.8780   31.6780   47.8280 N   0  0  0  0  0  0  0  0  0  0  0  0
   46.4930   31.5990   46.6430 C   0  0  0  0  0  0  0  0  0  0  0  0
   47.3320   30.6210   46.1700 C   0  0  0  0  0  0  0  0  0  0  0  0
   48.5200   30.0170   44.4700 H   0  0  0  0  0  0  0  0  0  0  0  0
   44.9040   34.3440   46.3670 H   0  0  0  0  0  0  0  0  0  0  0  0
   44.4980   33.2640   48.6360 H   0  0  0  0  0  0  0  0  0  0  0  0
   47.5900   29.7500   46.7710 H   0  0  0  0  0  0  0  0  0  0  0  0
   47.8730   31.6500   40.5150 C   0  0  0  0  0  0  0  0  0  0  0  0
   49.0140   32.4210   40.2720 C   0  0  0  0  0  0  0  0  0  0  0  0
   49.6430   33.0230   41.3660 C   0  0  0  0  0  0  0  0  0  0  0  0
   49.1170   32.8320   42.6160 N   0  0  0  0  0  0  0  0  0  0  0  0
   48.0170   32.0840   42.8100 C   0  0  0  0  0  0  0  0  0  0  0  0
   47.3970   31.4950   41.7710 N   0  0  0  0  0  0  0  0  0  0  0  0
   47.4080   31.1970   39.6490 H   0  0  0  0  0  0  0  0  0  0  0  0
   49.4710   32.6080   39.3260 H   0  0  0  0  0  0  0  0  0  0  0  0
   50.5250   33.6430   41.3410 H   0  0  0  0  0  0  0  0  0  0  0  0
   46.1820   34.3180   43.7320 S   0  0  0  0  0  0  0  0  0  0  0  0
   44.1480   32.7990   42.5570 C   0  0  0  0  0  3  0  0  0  0  0  0
   44.8880   33.9630   42.5620 C   0  0  0  0  0  0  0  0  0  0  0  0
   44.6260   34.9280   41.6120 C   0  0  0  0  0  0  0  0  0  0  0  0
   45.1850   35.8530   41.5860 H   0  0  0  0  0  0  0  0  0  0  0  0
   43.6230   34.6610   40.7040 C   0  0  0  0  0  0  0  0  0  0  0  0
   43.1730   35.4370   39.6780 N   0  0  0  0  0  0  0  0  0  0  0  0
   43.4600   36.3870   39.3370 H   0  0  0  0  0  0  0  0  0  0  0  0
   42.1900   34.8070   39.0400 N   0  0  0  0  0  0  0  0  0  0  0  0
   41.9900   33.6180   39.6390 C   0  0  0  0  0  0  0  0  0  0  0  0
   41.2710   32.8630   39.3740 H   0  0  0  0  0  0  0  0  0  0  0  0
   42.8850   33.4860   40.7060 C   0  0  0  0  0  0  0  0  0  0  0  0
   43.1420   32.5160   41.6540 C   0  0  0  0  0  3  0  0  0  0  0  0
  1  9  1  0  0  0  0
  2  3  1  0  0  0  0
  2  1  2  0  0  0  0
  3  4  2  0  0  0  0
  4  8  1  0  0  0  0
  4  5  1  0  0  0  0
  5  6  1  0  0  0  0
  6 12  1  0  0  0  0
  7  6  2  0  0  0  0
  8  7  1  0  0  0  0
  9  8  2  0  0  0  0
  9 13  1  0  0  0  0
 10  1  1  0  0  0  0
 11  5  1  0  0  0  0
 14 19  1  0  0  0  0
 15 14  2  0  0  0  0
 15 16  1  0  0  0  0
 16 17  2  0  0  0  0
 17 18  1  0  0  0  0
 18  2  1  0  0  0  0
 19 18  2  0  0  0  0
 20 14  1  0  0  0  0
 21 15  1  0  0  0  0
 22 16  1  0  0  0  0
 23  3  1  0  0  0  0
 24 25  1  0  0  0  0
 25 23  1  0  0  0  0
 26 25  2  0  0  0  0
 27 26  1  0  0  0  0
 28 34  2  0  0  0  0
 28 26  1  0  0  0  0
 29 28  1  0  0  0  0
 30 29  1  0  0  0  0
 31 32  2  0  0  0  0
 31 29  1  0  0  0  0
 32 34  1  0  0  0  0
 33 32  1  0  0  0  0
 34 35  1  0  0  0  0
 35 24  2  0  0  0  0
M  END
>  <minimizedAffinity>
-5.60150146

>  <minimizedRMSD>
2.35805416

$$$$
