
 OpenBabel03242522203D

 48 52  0  0  0  0  0  0  0  0999 V2000
   42.3570   35.0240   40.1170 C   0  0  0  0  0  0  0  0  0  0  0  0
   41.9640   35.1780   38.8180 C   0  0  0  0  0  0  0  0  0  0  0  0
   40.8370   34.6360   38.2220 C   0  0  0  0  0  0  0  0  0  0  0  0
   40.0610   33.8710   39.0550 C   0  0  0  0  0  0  0  0  0  0  0  0
   40.4450   33.7090   40.3620 C   0  0  0  0  0  0  0  0  0  0  0  0
   41.5400   34.2500   40.8970 N   0  0  0  0  0  0  0  0  0  0  0  0
   42.6370   35.8010   38.2230 H   0  0  0  0  0  0  0  0  0  0  0  0
   40.6190   34.8170   37.1980 H   0  0  0  0  0  0  0  0  0  0  0  0
   39.5270   32.8610   41.1680 C   0  0  0  0  0  0  0  0  0  0  0  0
   38.1920   33.2170   40.8770 F   0  0  0  0  0  0  0  0  0  0  0  0
   39.7910   32.8870   42.5080 F   0  0  0  0  0  0  0  0  0  0  0  0
   39.6250   31.5360   40.7750 F   0  0  0  0  0  0  0  0  0  0  0  0
   43.5090   35.5520   40.8140 C   0  0  0  0  0  0  0  0  0  0  0  0
   44.4400   35.1210   40.3830 H   0  0  0  0  0  0  0  0  0  0  0  0
   43.5670   36.6430   40.6060 H   0  0  0  0  0  0  0  0  0  0  0  0
   43.5530   35.3460   42.2950 C   0  0  0  0  0  0  0  0  0  0  0  0
   43.4260   36.2920   42.8540 H   0  0  0  0  0  0  0  0  0  0  0  0
   42.6900   34.6990   42.5640 H   0  0  0  0  0  0  0  0  0  0  0  0
   46.7360   33.4810   42.6340 C   0  0  0  0  0  0  0  0  0  0  0  0
   46.9290   33.6350   43.9680 C   0  0  0  0  0  0  0  0  0  0  0  0
   45.4560   34.6280   44.4500 S   0  0  0  0  0  0  0  0  0  0  0  0
   44.8120   34.6650   42.7050 C   0  0  0  0  0  0  0  0  0  0  0  0
   45.6510   34.0520   42.2020 N   0  0  0  0  0  0  0  0  0  0  0  0
   47.7420   33.2600   44.5540 H   0  0  0  0  0  0  0  0  0  0  0  0
   49.2540   32.5680   39.9890 C   0  0  0  0  0  0  0  0  0  0  0  0
   48.4040   33.3480   40.7930 C   0  0  0  0  0  0  0  0  0  0  0  0
   47.6510   32.7440   41.7490 C   0  0  0  0  0  0  0  0  0  0  0  0
   47.7810   31.3520   41.8650 N   0  0  0  0  0  0  0  0  0  0  0  0
   48.6080   30.6550   41.0720 C   0  0  0  0  0  0  0  0  0  0  0  0
   49.3430   31.2560   40.1360 N   0  0  0  0  0  0  0  0  0  0  0  0
   49.8750   33.0040   39.2130 H   0  0  0  0  0  0  0  0  0  0  0  0
   48.5600   29.6020   41.3230 H   0  0  0  0  0  0  0  0  0  0  0  0
   48.3920   34.7530   40.5430 N   0  0  0  0  0  0  0  0  0  0  0  0
   47.6850   34.8250   39.7700 H   0  0  0  0  0  0  0  0  0  0  0  0
   48.9930   35.3900   41.0820 H   0  0  0  0  0  0  0  0  0  0  0  0
   38.5780   33.1270   38.3650 S   0  0  0  0  0  0  0  0  0  0  0  0
   38.0300   31.4680   36.3400 C   0  0  0  0  0  3  0  0  0  0  0  0
   38.9260   31.6800   37.3960 C   0  0  0  0  0  0  0  0  0  0  0  0
   39.9610   30.7790   37.5820 C   0  0  0  0  0  0  0  0  0  0  0  0
   40.5850   31.0400   38.4200 H   0  0  0  0  0  0  0  0  0  0  0  0
   40.1120   29.6920   36.7470 C   0  0  0  0  0  0  0  0  0  0  0  0
   41.0460   28.7230   36.7750 N   0  0  0  0  0  0  0  0  0  0  0  0
   41.8270   28.6580   37.4710 H   0  0  0  0  0  0  0  0  0  0  0  0
   40.8120   27.8750   35.7840 N   0  0  0  0  0  0  0  0  0  0  0  0
   39.7110   28.3070   35.1110 C   0  0  0  0  0  0  0  0  0  0  0  0
   39.2320   27.8590   34.2430 H   0  0  0  0  0  0  0  0  0  0  0  0
   39.2470   29.4540   35.6970 C   0  0  0  0  0  0  0  0  0  0  0  0
   38.2310   30.3600   35.5320 C   0  0  0  0  0  3  0  0  0  0  0  0
  1 13  1  0  0  0  0
  1  6  1  0  0  0  0
  2  1  2  0  0  0  0
  3  2  1  0  0  0  0
  3  4  2  0  0  0  0
  4  5  1  0  0  0  0
  5  6  2  0  0  0  0
  5  9  1  0  0  0  0
  7  2  1  0  0  0  0
  8  3  1  0  0  0  0
  9 11  1  0  0  0  0
 10  9  1  0  0  0  0
 12  9  1  0  0  0  0
 13 16  1  0  0  0  0
 14 13  1  0  0  0  0
 15 13  1  0  0  0  0
 16 18  1  0  0  0  0
 16 22  1  0  0  0  0
 16 17  1  0  0  0  0
 19 20  2  0  0  0  0
 20 21  1  0  0  0  0
 20 24  1  0  0  0  0
 22 21  1  0  0  0  0
 23 19  1  0  0  0  0
 23 22  2  0  0  0  0
 25 30  2  0  0  0  0
 25 26  1  0  0  0  0
 26 27  2  0  0  0  0
 27 28  1  0  0  0  0
 27 19  1  0  0  0  0
 29 32  1  0  0  0  0
 29 28  2  0  0  0  0
 30 29  1  0  0  0  0
 31 25  1  0  0  0  0
 33 26  1  0  0  0  0
 33 35  1  0  0  0  0
 34 33  1  0  0  0  0
 36  4  1  0  0  0  0
 37 38  1  0  0  0  0
 38 39  2  0  0  0  0
 38 36  1  0  0  0  0
 39 40  1  0  0  0  0
 41 42  1  0  0  0  0
 41 39  1  0  0  0  0
 42 43  1  0  0  0  0
 44 42  1  0  0  0  0
 45 47  1  0  0  0  0
 45 44  2  0  0  0  0
 46 45  1  0  0  0  0
 47 41  2  0  0  0  0
 48 47  1  0  0  0  0
 48 37  2  0  0  0  0
M  END
>  <minimizedAffinity>
-5.7661171

>  <minimizedRMSD>
0.452523917

$$$$
