
 OpenBabel03242519163D

 45 49  0  0  1  0  0  0  0  0999 V2000
   48.3390   34.2290   40.9280 C   0  0  0  0  0  0  0  0  0  0  0  0
   47.8790   34.3810   39.6400 C   0  0  0  0  0  0  0  0  0  0  0  0
   48.2390   33.5180   38.6020 C   0  0  0  0  0  0  0  0  0  0  0  0
   49.0830   32.5060   38.9510 N   0  0  0  0  0  0  0  0  0  0  0  0
   49.5270   32.3630   40.2080 C   0  0  0  0  0  0  0  0  0  0  0  0
   49.1600   33.2110   41.1750 N   0  0  0  0  0  0  0  0  0  0  0  0
   47.2150   35.2040   39.4430 H   0  0  0  0  0  0  0  0  0  0  0  0
   47.8590   33.6660   37.6000 H   0  0  0  0  0  0  0  0  0  0  0  0
   50.4290   31.2420   40.6050 C   0  0  2  0  0  0  0  0  0  0  0  0
   51.1850   31.3480   41.8920 C   0  0  0  0  0  0  0  0  0  0  0  0
   51.8930   31.5090   40.5410 C   0  0  1  0  0  0  0  0  0  0  0  0
   50.0590   30.2340   40.3320 H   0  0  0  0  0  0  0  0  0  0  0  0
   51.1380   32.2930   42.4700 H   0  0  0  0  0  0  0  0  0  0  0  0
   51.3790   30.4620   42.5080 H   0  0  0  0  0  0  0  0  0  0  0  0
   52.2450   32.5030   40.2530 H   0  0  0  0  0  0  0  0  0  0  0  0
   52.1920   29.3070   39.4580 C   0  0  0  0  0  3  0  0  0  0  0  0
   52.7300   30.3250   40.2060 C   0  0  0  0  0  0  0  0  0  0  0  0
   54.0380   30.2880   40.6630 C   0  0  0  0  0  0  0  0  0  0  0  0
   54.4930   31.0730   41.2540 H   0  0  0  0  0  0  0  0  0  0  0  0
   54.7500   29.1550   40.3110 C   0  0  0  0  0  0  0  0  0  0  0  0
   56.0130   28.7990   40.5800 N   0  0  0  0  0  0  0  0  0  0  0  0
   56.7670   29.2910   41.1220 H   0  0  0  0  0  0  0  0  0  0  0  0
   56.3290   27.6290   40.0640 N   0  0  0  0  0  0  0  0  0  0  0  0
   55.2410   27.1450   39.4040 C   0  0  0  0  0  0  0  0  0  0  0  0
   55.0780   26.2280   38.8490 H   0  0  0  0  0  0  0  0  0  0  0  0
   54.2490   28.1140   39.5660 C   0  0  0  0  0  0  0  0  0  0  0  0
   52.9340   28.1950   39.1300 C   0  0  0  0  0  3  0  0  0  0  0  0
   47.9450   35.1270   41.9950 C   0  0  0  0  0  0  0  0  0  0  0  0
   48.5700   35.0220   42.8950 H   0  0  0  0  0  0  0  0  0  0  0  0
   48.0920   36.1790   41.6340 H   0  0  0  0  0  0  0  0  0  0  0  0
   46.4910   34.9540   42.3020 C   0  0  0  0  0  0  0  0  0  0  0  0
   45.9210   35.9160   42.2310 H   0  0  0  0  0  0  0  0  0  0  0  0
   46.0230   34.2710   41.5820 H   0  0  0  0  0  0  0  0  0  0  0  0
   44.5490   36.4240   44.0260 Cl  0  0  0  0  0  0  0  0  0  0  0  0
   45.3850   34.9740   44.5560 C   0  0  0  0  0  0  0  0  0  0  0  0
   46.2460   34.3940   43.6580 C   0  0  0  0  0  0  0  0  0  0  0  0
   46.8990   33.2400   44.0680 C   0  0  0  0  0  0  0  0  0  0  0  0
   46.6850   32.7050   45.3300 C   0  0  0  0  0  0  0  0  0  0  0  0
   45.8020   33.3230   46.2160 C   0  0  0  0  0  0  0  0  0  0  0  0
   45.1620   34.4590   45.8070 C   0  0  0  0  0  0  0  0  0  0  0  0
   47.5960   32.7240   43.4120 H   0  0  0  0  0  0  0  0  0  0  0  0
   47.2120   31.8030   45.6170 H   0  0  0  0  0  0  0  0  0  0  0  0
   45.6260   32.9150   47.2060 H   0  0  0  0  0  0  0  0  0  0  0  0
   44.2590   35.1490   46.6250 O   0  0  0  0  0  0  0  0  0  0  0  0
   43.4370   34.6830   47.0090 H   0  0  0  0  0  0  0  0  0  0  0  0
  1  6  1  0  0  0  0
  1 28  1  0  0  0  0
  2  1  2  0  0  0  0
  3  4  2  0  0  0  0
  3  2  1  0  0  0  0
  4  5  1  0  0  0  0
  5  9  1  0  0  0  0
  5  6  2  0  0  0  0
  7  2  1  0  0  0  0
  8  3  1  0  0  0  0
  9 12  1  6  0  0  0
  9 10  1  0  0  0  0
 10 13  1  0  0  0  0
 10 14  1  0  0  0  0
 11 15  1  6  0  0  0
 11  9  1  0  0  0  0
 11 10  1  0  0  0  0
 16 17  1  0  0  0  0
 17 11  1  0  0  0  0
 17 18  2  0  0  0  0
 18 19  1  0  0  0  0
 20 21  1  0  0  0  0
 20 18  1  0  0  0  0
 21 22  1  0  0  0  0
 23 21  1  0  0  0  0
 24 26  1  0  0  0  0
 24 23  2  0  0  0  0
 25 24  1  0  0  0  0
 26 20  2  0  0  0  0
 27 16  2  0  0  0  0
 27 26  1  0  0  0  0
 28 31  1  0  0  0  0
 28 29  1  0  0  0  0
 30 28  1  0  0  0  0
 31 36  1  0  0  0  0
 32 31  1  0  0  0  0
 33 31  1  0  0  0  0
 34 35  1  0  0  0  0
 35 40  1  0  0  0  0
 36 37  1  0  0  0  0
 36 35  2  0  0  0  0
 37 38  2  0  0  0  0
 38 42  1  0  0  0  0
 38 39  1  0  0  0  0
 39 43  1  0  0  0  0
 40 39  2  0  0  0  0
 40 44  1  0  0  0  0
 41 37  1  0  0  0  0
 44 45  1  0  0  0  0
M  END
>  <minimizedAffinity>
-5.85070801

>  <minimizedRMSD>
0.351392001

$$$$
