
 OpenBabel03252509103D

 44 48  0  0  0  0  0  0  0  0999 V2000
   35.8710   27.7660   38.8770 C   0  0  0  0  0  0  0  0  0  0  0  0
   35.5720   28.5040   39.9840 C   0  0  0  0  0  0  0  0  0  0  0  0
   34.4150   29.2680   40.0100 C   0  0  0  0  0  0  0  0  0  0  0  0
   33.5680   29.2870   38.9280 C   0  0  0  0  0  0  0  0  0  0  0  0
   33.8370   28.5470   37.7780 C   0  0  0  0  0  0  0  0  0  0  0  0
   35.0100   27.7860   37.7780 C   0  0  0  0  0  0  0  0  0  0  0  0
   34.1540   29.8560   40.8620 H   0  0  0  0  0  0  0  0  0  0  0  0
   32.6690   29.8470   38.8790 H   0  0  0  0  0  0  0  0  0  0  0  0
   33.2310   28.5150   36.9100 H   0  0  0  0  0  0  0  0  0  0  0  0
   35.2420   27.2010   36.8960 H   0  0  0  0  0  0  0  0  0  0  0  0
   39.4530   30.6280   42.6430 Cl  0  0  0  0  0  0  0  0  0  0  0  0
   38.1610   29.4790   42.4100 C   0  0  0  0  0  0  0  0  0  0  0  0
   37.4050   29.4890   41.2830 C   0  0  0  0  0  0  0  0  0  0  0  0
   36.3960   28.5450   41.1840 C   0  0  0  0  0  0  0  0  0  0  0  0
   36.1610   27.6310   42.1820 C   0  0  0  0  0  0  0  0  0  0  0  0
   36.9240   27.6310   43.3040 C   0  0  0  0  0  0  0  0  0  0  0  0
   37.9370   28.5680   43.4170 C   0  0  0  0  0  0  0  0  0  0  0  0
   35.3560   26.9200   42.0460 H   0  0  0  0  0  0  0  0  0  0  0  0
   36.7060   26.8970   44.0590 H   0  0  0  0  0  0  0  0  0  0  0  0
   38.5270   28.5390   44.3240 H   0  0  0  0  0  0  0  0  0  0  0  0
   37.2590   32.6180   39.1540 C   0  0  0  0  0  0  0  0  0  0  0  0
   36.9870   31.6740   40.1480 C   0  0  0  0  0  0  0  0  0  0  0  0
   37.6770   30.4770   40.2510 C   0  0  0  0  0  0  0  0  0  0  0  0
   38.6170   30.3230   39.3120 N   0  0  0  0  0  0  0  0  0  0  0  0
   38.8930   31.2090   38.3560 C   0  0  0  0  0  0  0  0  0  0  0  0
   38.2200   32.3480   38.2770 N   0  0  0  0  0  0  0  0  0  0  0  0
   36.6730   33.5330   39.1390 H   0  0  0  0  0  0  0  0  0  0  0  0
   36.1960   31.8810   40.8820 H   0  0  0  0  0  0  0  0  0  0  0  0
   39.7030   30.8720   37.6960 H   0  0  0  0  0  0  0  0  0  0  0  0
   37.2750   26.8370   38.7780 S   0  0  0  0  0  0  0  0  0  0  0  0
   37.0350   25.6530   37.8060 O   0  0  0  0  0  0  0  0  0  0  0  0
   38.2980   27.6940   38.0300 O   0  0  0  0  0  0  0  0  0  0  0  0
   37.5350   24.9230   40.8140 C   0  0  0  0  0  3  0  0  0  0  0  0
   38.0060   26.0000   40.0780 C   0  0  0  0  0  0  0  0  0  0  0  0
   39.2610   26.3870   40.6250 C   0  0  0  0  0  0  0  0  0  0  0  0
   39.7490   27.2450   40.1240 H   0  0  0  0  0  0  0  0  0  0  0  0
   39.9380   25.8330   41.6880 C   0  0  0  0  0  0  0  0  0  0  0  0
   41.1080   26.1220   42.2700 N   0  0  0  0  0  0  0  0  0  0  0  0
   41.7460   26.8910   41.9720 H   0  0  0  0  0  0  0  0  0  0  0  0
   41.2510   25.2560   43.2490 N   0  0  0  0  0  0  0  0  0  0  0  0
   40.2010   24.4230   43.3040 C   0  0  0  0  0  0  0  0  0  0  0  0
   40.0370   23.6040   44.0080 H   0  0  0  0  0  0  0  0  0  0  0  0
   39.3240   24.7850   42.2860 C   0  0  0  0  0  0  0  0  0  0  0  0
   38.1070   24.2840   41.8830 C   0  0  0  0  0  3  0  0  0  0  0  0
  1  2  1  0  0  0  0
  2  3  2  0  0  0  0
  2 14  1  0  0  0  0
  3  7  1  0  0  0  0
  4  3  1  0  0  0  0
  5  6  1  0  0  0  0
  5  4  2  0  0  0  0
  6  1  2  0  0  0  0
  8  4  1  0  0  0  0
  9  5  1  0  0  0  0
 10  6  1  0  0  0  0
 12 11  1  0  0  0  0
 12 17  1  0  0  0  0
 13 12  2  0  0  0  0
 14 13  1  0  0  0  0
 14 15  2  0  0  0  0
 15 16  1  0  0  0  0
 16 17  2  0  0  0  0
 16 19  1  0  0  0  0
 17 20  1  0  0  0  0
 18 15  1  0  0  0  0
 21 22  1  0  0  0  0
 22 23  2  0  0  0  0
 22 28  1  0  0  0  0
 23 13  1  0  0  0  0
 24 23  1  0  0  0  0
 25 24  2  0  0  0  0
 26 25  1  0  0  0  0
 26 21  2  0  0  0  0
 27 21  1  0  0  0  0
 29 25  1  0  0  0  0
 30  1  1  0  0  0  0
 30 34  1  0  0  0  0
 31 30  2  0  0  0  0
 32 30  2  0  0  0  0
 33 44  1  0  0  0  0
 34 35  1  0  0  0  0
 34 33  2  0  0  0  0
 35 37  2  0  0  0  0
 36 35  1  0  0  0  0
 37 38  1  0  0  0  0
 37 43  1  0  0  0  0
 38 40  1  0  0  0  0
 39 38  1  0  0  0  0
 40 41  2  0  0  0  0
 41 42  1  0  0  0  0
 43 41  1  0  0  0  0
 44 43  2  0  0  0  0
M  END
>  <minimizedAffinity>
-6.88762665

$$$$

 OpenBabel03252509103D

 44 48  0  0  0  0  0  0  0  0999 V2000
   36.1120   27.2250   39.1840 C   0  0  0  0  0  0  0  0  0  0  0  0
   35.8780   28.2280   40.0770 C   0  0  0  0  0  0  0  0  0  0  0  0
   34.8730   29.1500   39.8280 C   0  0  0  0  0  0  0  0  0  0  0  0
   34.1110   29.0600   38.6870 C   0  0  0  0  0  0  0  0  0  0  0  0
   34.3190   28.0500   37.7500 C   0  0  0  0  0  0  0  0  0  0  0  0
   35.3380   27.1340   38.0250 C   0  0  0  0  0  0  0  0  0  0  0  0
   34.6650   29.9470   40.5080 H   0  0  0  0  0  0  0  0  0  0  0  0
   33.3280   29.7290   38.4330 H   0  0  0  0  0  0  0  0  0  0  0  0
   33.7720   27.9200   36.8520 H   0  0  0  0  0  0  0  0  0  0  0  0
   35.5200   26.3390   37.3130 H   0  0  0  0  0  0  0  0  0  0  0  0
   39.4790   30.7470   42.7850 Cl  0  0  0  0  0  0  0  0  0  0  0  0
   38.2570   29.5210   42.5690 C   0  0  0  0  0  0  0  0  0  0  0  0
   37.5760   29.4030   41.4000 C   0  0  0  0  0  0  0  0  0  0  0  0
   36.6190   28.4050   41.3180 C   0  0  0  0  0  0  0  0  0  0  0  0
   36.3600   27.5630   42.3720 C   0  0  0  0  0  0  0  0  0  0  0  0
   37.0480   27.6910   43.5350 C   0  0  0  0  0  0  0  0  0  0  0  0
   38.0080   28.6830   43.6320 C   0  0  0  0  0  0  0  0  0  0  0  0
   35.5980   26.8050   42.2460 H   0  0  0  0  0  0  0  0  0  0  0  0
   36.8140   27.0100   44.3330 H   0  0  0  0  0  0  0  0  0  0  0  0
   38.5380   28.7560   44.5720 H   0  0  0  0  0  0  0  0  0  0  0  0
   37.5860   32.4450   39.1440 C   0  0  0  0  0  0  0  0  0  0  0  0
   37.2930   31.5720   40.1960 C   0  0  0  0  0  0  0  0  0  0  0  0
   37.8710   30.3180   40.3090 C   0  0  0  0  0  0  0  0  0  0  0  0
   38.7250   30.0350   39.3190 N   0  0  0  0  0  0  0  0  0  0  0  0
   39.0190   30.8510   38.3080 C   0  0  0  0  0  0  0  0  0  0  0  0
   38.4540   32.0470   38.2200 N   0  0  0  0  0  0  0  0  0  0  0  0
   37.0920   33.4130   39.1240 H   0  0  0  0  0  0  0  0  0  0  0  0
   36.5780   31.8860   40.9690 H   0  0  0  0  0  0  0  0  0  0  0  0
   39.7460   30.4100   37.6140 H   0  0  0  0  0  0  0  0  0  0  0  0
   37.3360   26.0880   39.4210 S   0  0  0  0  0  0  0  0  0  0  0  0
   36.7920   24.9260   40.2900 O   0  0  0  0  0  0  0  0  0  0  0  0
   37.5640   25.4240   38.0610 O   0  0  0  0  0  0  0  0  0  0  0  0
   39.8690   27.2120   39.8650 C   0  0  0  0  0  3  0  0  0  0  0  0
   38.8180   26.3790   40.2210 C   0  0  0  0  0  0  0  0  0  0  0  0
   39.1870   25.6980   41.4150 C   0  0  0  0  0  0  0  0  0  0  0  0
   38.4290   24.9940   41.8090 H   0  0  0  0  0  0  0  0  0  0  0  0
   40.3560   25.8030   42.1340 C   0  0  0  0  0  0  0  0  0  0  0  0
   40.7910   25.2130   43.2550 N   0  0  0  0  0  0  0  0  0  0  0  0
   40.2500   24.5120   43.8050 H   0  0  0  0  0  0  0  0  0  0  0  0
   41.9910   25.7000   43.4790 N   0  0  0  0  0  0  0  0  0  0  0  0
   42.3310   26.5860   42.5310 C   0  0  0  0  0  0  0  0  0  0  0  0
   43.2630   27.1510   42.4510 H   0  0  0  0  0  0  0  0  0  0  0  0
   41.2700   26.6690   41.6350 C   0  0  0  0  0  0  0  0  0  0  0  0
   41.0740   27.4070   40.4900 C   0  0  0  0  0  3  0  0  0  0  0  0
  1 30  1  0  0  0  0
  1  2  1  0  0  0  0
  2 14  1  0  0  0  0
  3  2  2  0  0  0  0
  3  7  1  0  0  0  0
  4  3  1  0  0  0  0
  5  6  1  0  0  0  0
  5  4  2  0  0  0  0
  6  1  2  0  0  0  0
  8  4  1  0  0  0  0
  9  5  1  0  0  0  0
 10  6  1  0  0  0  0
 12 11  1  0  0  0  0
 12 17  1  0  0  0  0
 13 12  2  0  0  0  0
 14 13  1  0  0  0  0
 14 15  2  0  0  0  0
 15 16  1  0  0  0  0
 16 17  2  0  0  0  0
 16 19  1  0  0  0  0
 17 20  1  0  0  0  0
 18 15  1  0  0  0  0
 21 22  1  0  0  0  0
 22 23  2  0  0  0  0
 22 28  1  0  0  0  0
 23 13  1  0  0  0  0
 24 23  1  0  0  0  0
 25 24  2  0  0  0  0
 26 25  1  0  0  0  0
 26 21  2  0  0  0  0
 27 21  1  0  0  0  0
 29 25  1  0  0  0  0
 30 34  1  0  0  0  0
 30 31  2  0  0  0  0
 32 30  2  0  0  0  0
 33 34  2  0  0  0  0
 33 44  1  0  0  0  0
 34 35  1  0  0  0  0
 35 36  1  0  0  0  0
 35 37  2  0  0  0  0
 37 38  1  0  0  0  0
 38 40  1  0  0  0  0
 38 39  1  0  0  0  0
 41 40  2  0  0  0  0
 42 41  1  0  0  0  0
 43 37  1  0  0  0  0
 43 41  1  0  0  0  0
 44 43  2  0  0  0  0
M  END
>  <minimizedAffinity>
-6.69957161

$$$$

 OpenBabel03252509103D

 44 48  0  0  0  0  0  0  0  0999 V2000
   36.5520   29.7940   38.3420 C   0  0  0  0  0  0  0  0  0  0  0  0
   36.4940   30.3760   39.5730 C   0  0  0  0  0  0  0  0  0  0  0  0
   35.4540   30.0610   40.4350 C   0  0  0  0  0  0  0  0  0  0  0  0
   34.4810   29.1670   40.0560 C   0  0  0  0  0  0  0  0  0  0  0  0
   34.5040   28.5500   38.8060 C   0  0  0  0  0  0  0  0  0  0  0  0
   35.5630   28.8850   37.9570 C   0  0  0  0  0  0  0  0  0  0  0  0
   35.3810   30.4990   41.4060 H   0  0  0  0  0  0  0  0  0  0  0  0
   33.6590   28.8800   40.6620 H   0  0  0  0  0  0  0  0  0  0  0  0
   33.7900   27.8540   38.4490 H   0  0  0  0  0  0  0  0  0  0  0  0
   35.6050   28.4200   36.9800 H   0  0  0  0  0  0  0  0  0  0  0  0
   40.5200   31.4090   42.6330 Cl  0  0  0  0  0  0  0  0  0  0  0  0
   39.2980   31.8290   41.4600 C   0  0  0  0  0  0  0  0  0  0  0  0
   38.4110   30.9070   41.0080 C   0  0  0  0  0  0  0  0  0  0  0  0
   37.4780   31.3250   40.0730 C   0  0  0  0  0  0  0  0  0  0  0  0
   37.4440   32.6190   39.6160 C   0  0  0  0  0  0  0  0  0  0  0  0
   38.3360   33.5320   40.0760 C   0  0  0  0  0  0  0  0  0  0  0  0
   39.2740   33.1300   41.0110 C   0  0  0  0  0  0  0  0  0  0  0  0
   36.6920   32.8840   38.8830 H   0  0  0  0  0  0  0  0  0  0  0  0
   38.2730   34.5350   39.6920 H   0  0  0  0  0  0  0  0  0  0  0  0
   39.9690   33.8830   41.3580 H   0  0  0  0  0  0  0  0  0  0  0  0
   38.0580   27.8500   43.2160 C   0  0  0  0  0  0  0  0  0  0  0  0
   37.9860   29.1650   42.7450 C   0  0  0  0  0  0  0  0  0  0  0  0
   38.4830   29.5430   41.5090 C   0  0  0  0  0  0  0  0  0  0  0  0
   39.0310   28.5330   40.8240 N   0  0  0  0  0  0  0  0  0  0  0  0
   39.1100   27.2750   41.2530 C   0  0  0  0  0  0  0  0  0  0  0  0
   38.6270   26.9340   42.4400 N   0  0  0  0  0  0  0  0  0  0  0  0
   37.6450   27.6310   44.1970 H   0  0  0  0  0  0  0  0  0  0  0  0
   37.5180   29.9340   43.3740 H   0  0  0  0  0  0  0  0  0  0  0  0
   39.6000   26.6160   40.5240 H   0  0  0  0  0  0  0  0  0  0  0  0
   37.7790   30.1540   37.2420 S   0  0  0  0  0  0  0  0  0  0  0  0
   38.0710   28.9030   36.3750 O   0  0  0  0  0  0  0  0  0  0  0  0
   37.1710   31.1350   36.2380 O   0  0  0  0  0  0  0  0  0  0  0  0
   40.3350   29.9060   38.3730 C   0  0  0  0  0  3  0  0  0  0  0  0
   39.3780   30.6020   37.6500 C   0  0  0  0  0  0  0  0  0  0  0  0
   39.9260   31.8690   37.3070 C   0  0  0  0  0  0  0  0  0  0  0  0
   39.2570   32.5300   36.7230 H   0  0  0  0  0  0  0  0  0  0  0  0
   41.1730   32.3720   37.6060 C   0  0  0  0  0  0  0  0  0  0  0  0
   41.7740   33.5360   37.3310 N   0  0  0  0  0  0  0  0  0  0  0  0
   41.3390   34.3160   36.7930 H   0  0  0  0  0  0  0  0  0  0  0  0
   42.9700   33.4630   37.8710 N   0  0  0  0  0  0  0  0  0  0  0  0
   43.1460   32.2820   38.4820 C   0  0  0  0  0  0  0  0  0  0  0  0
   44.0340   31.9340   39.0160 H   0  0  0  0  0  0  0  0  0  0  0  0
   41.9750   31.5470   38.3210 C   0  0  0  0  0  0  0  0  0  0  0  0
   41.6010   30.2890   38.7340 C   0  0  0  0  0  3  0  0  0  0  0  0
  1  2  1  0  0  0  0
  2 14  1  0  0  0  0
  2  3  2  0  0  0  0
  3  7  1  0  0  0  0
  4  3  1  0  0  0  0
  4  8  1  0  0  0  0
  5  4  2  0  0  0  0
  6  1  2  0  0  0  0
  6  5  1  0  0  0  0
  9  5  1  0  0  0  0
 10  6  1  0  0  0  0
 12 11  1  0  0  0  0
 13 12  2  0  0  0  0
 13 23  1  0  0  0  0
 14 13  1  0  0  0  0
 15 14  2  0  0  0  0
 15 16  1  0  0  0  0
 16 17  2  0  0  0  0
 17 20  1  0  0  0  0
 17 12  1  0  0  0  0
 18 15  1  0  0  0  0
 19 16  1  0  0  0  0
 21 27  1  0  0  0  0
 22 21  1  0  0  0  0
 22 28  1  0  0  0  0
 23 22  2  0  0  0  0
 24 25  2  0  0  0  0
 24 23  1  0  0  0  0
 25 26  1  0  0  0  0
 26 21  2  0  0  0  0
 29 25  1  0  0  0  0
 30 34  1  0  0  0  0
 30  1  1  0  0  0  0
 31 30  2  0  0  0  0
 32 30  2  0  0  0  0
 33 44  1  0  0  0  0
 34 33  2  0  0  0  0
 35 37  2  0  0  0  0
 35 34  1  0  0  0  0
 36 35  1  0  0  0  0
 37 43  1  0  0  0  0
 38 37  1  0  0  0  0
 38 40  1  0  0  0  0
 39 38  1  0  0  0  0
 40 41  2  0  0  0  0
 41 42  1  0  0  0  0
 43 41  1  0  0  0  0
 43 44  2  0  0  0  0
M  END
>  <minimizedAffinity>
-6.57964849

$$$$

 OpenBabel03252509103D

 44 48  0  0  0  0  0  0  0  0999 V2000
   36.1370   27.4460   39.1040 C   0  0  0  0  0  0  0  0  0  0  0  0
   36.7200   26.6950   40.0810 C   0  0  0  0  0  0  0  0  0  0  0  0
   36.6930   25.3120   39.9950 C   0  0  0  0  0  0  0  0  0  0  0  0
   36.0810   24.6910   38.9320 C   0  0  0  0  0  0  0  0  0  0  0  0
   35.4730   25.4220   37.9130 C   0  0  0  0  0  0  0  0  0  0  0  0
   35.5150   26.8150   38.0230 C   0  0  0  0  0  0  0  0  0  0  0  0
   37.1410   24.6970   40.7440 H   0  0  0  0  0  0  0  0  0  0  0  0
   36.0220   23.6400   38.8020 H   0  0  0  0  0  0  0  0  0  0  0  0
   34.9840   25.0110   37.0670 H   0  0  0  0  0  0  0  0  0  0  0  0
   35.0510   27.4060   37.2440 H   0  0  0  0  0  0  0  0  0  0  0  0
   41.1180   27.9070   42.4970 Cl  0  0  0  0  0  0  0  0  0  0  0  0
   39.3810   27.8040   42.3680 C   0  0  0  0  0  0  0  0  0  0  0  0
   38.7860   27.2920   41.2600 C   0  0  0  0  0  0  0  0  0  0  0  0
   37.4020   27.2540   41.2400 C   0  0  0  0  0  0  0  0  0  0  0  0
   36.6510   27.7150   42.2940 C   0  0  0  0  0  0  0  0  0  0  0  0
   37.2570   28.2240   43.3960 C   0  0  0  0  0  0  0  0  0  0  0  0
   38.6400   28.2680   43.4310 C   0  0  0  0  0  0  0  0  0  0  0  0
   35.5720   27.6600   42.2160 H   0  0  0  0  0  0  0  0  0  0  0  0
   36.6310   28.5720   44.1980 H   0  0  0  0  0  0  0  0  0  0  0  0
   39.0900   28.6790   44.3250 H   0  0  0  0  0  0  0  0  0  0  0  0
   40.7630   27.1580   38.0320 C   0  0  0  0  0  0  0  0  0  0  0  0
   39.9640   27.6190   39.0830 C   0  0  0  0  0  0  0  0  0  0  0  0
   39.6140   26.8220   40.1600 C   0  0  0  0  0  0  0  0  0  0  0  0
   40.1130   25.5830   40.0900 N   0  0  0  0  0  0  0  0  0  0  0  0
   40.8750   25.1230   39.0990 C   0  0  0  0  0  0  0  0  0  0  0  0
   41.1980   25.9030   38.0770 N   0  0  0  0  0  0  0  0  0  0  0  0
   40.9940   27.8430   37.2210 H   0  0  0  0  0  0  0  0  0  0  0  0
   39.5960   28.6540   39.0610 H   0  0  0  0  0  0  0  0  0  0  0  0
   41.1690   24.0760   39.2510 H   0  0  0  0  0  0  0  0  0  0  0  0
   36.1180   29.1310   39.1650 S   0  0  0  0  0  0  0  0  0  0  0  0
   35.4780   29.6820   37.8650 O   0  0  0  0  0  0  0  0  0  0  0  0
   35.0940   29.5030   40.2380 O   0  0  0  0  0  0  0  0  0  0  0  0
   38.1650   30.6270   40.3680 C   0  0  0  0  0  3  0  0  0  0  0  0
   37.4980   30.1370   39.2550 C   0  0  0  0  0  0  0  0  0  0  0  0
   38.1340   30.6650   38.0980 C   0  0  0  0  0  0  0  0  0  0  0  0
   37.6940   30.3490   37.1320 H   0  0  0  0  0  0  0  0  0  0  0  0
   39.2170   31.5130   38.0270 C   0  0  0  0  0  0  0  0  0  0  0  0
   39.8790   32.0590   37.0000 N   0  0  0  0  0  0  0  0  0  0  0  0
   39.6470   31.9060   35.9950 H   0  0  0  0  0  0  0  0  0  0  0  0
   40.8340   32.7900   37.5310 N   0  0  0  0  0  0  0  0  0  0  0  0
   40.7970   32.7220   38.8700 C   0  0  0  0  0  0  0  0  0  0  0  0
   41.4610   33.2210   39.5810 H   0  0  0  0  0  0  0  0  0  0  0  0
   39.7390   31.8880   39.2190 C   0  0  0  0  0  0  0  0  0  0  0  0
   39.2460   31.4680   40.4330 C   0  0  0  0  0  3  0  0  0  0  0  0
  1 30  1  0  0  0  0
  1  2  1  0  0  0  0
  2 14  1  0  0  0  0
  3  2  2  0  0  0  0
  3  7  1  0  0  0  0
  4  3  1  0  0  0  0
  5  6  1  0  0  0  0
  5  4  2  0  0  0  0
  6  1  2  0  0  0  0
  8  4  1  0  0  0  0
  9  5  1  0  0  0  0
 10  6  1  0  0  0  0
 12 11  1  0  0  0  0
 12 17  1  0  0  0  0
 13 12  2  0  0  0  0
 14 13  1  0  0  0  0
 14 15  2  0  0  0  0
 15 16  1  0  0  0  0
 16 17  2  0  0  0  0
 16 19  1  0  0  0  0
 17 20  1  0  0  0  0
 18 15  1  0  0  0  0
 21 26  2  0  0  0  0
 21 22  1  0  0  0  0
 22 23  2  0  0  0  0
 23 13  1  0  0  0  0
 24 23  1  0  0  0  0
 25 29  1  0  0  0  0
 25 24  2  0  0  0  0
 26 25  1  0  0  0  0
 27 21  1  0  0  0  0
 28 22  1  0  0  0  0
 30 34  1  0  0  0  0
 30 32  2  0  0  0  0
 31 30  2  0  0  0  0
 33 44  1  0  0  0  0
 34 33  2  0  0  0  0
 35 34  1  0  0  0  0
 36 35  1  0  0  0  0
 37 35  2  0  0  0  0
 37 43  1  0  0  0  0
 38 40  1  0  0  0  0
 38 37  1  0  0  0  0
 39 38  1  0  0  0  0
 40 41  2  0  0  0  0
 41 43  1  0  0  0  0
 41 42  1  0  0  0  0
 43 44  2  0  0  0  0
M  END
>  <minimizedAffinity>
-6.47881794

$$$$

 OpenBabel03252509103D

 44 48  0  0  0  0  0  0  0  0999 V2000
   36.5760   28.0920   41.2650 C   0  0  0  0  0  0  0  0  0  0  0  0
   36.6610   27.1250   40.3060 C   0  0  0  0  0  0  0  0  0  0  0  0
   36.0190   27.3040   39.0910 C   0  0  0  0  0  0  0  0  0  0  0  0
   35.2970   28.4470   38.8440 C   0  0  0  0  0  0  0  0  0  0  0  0
   35.1850   29.4580   39.7970 C   0  0  0  0  0  0  0  0  0  0  0  0
   35.8420   29.2540   41.0140 C   0  0  0  0  0  0  0  0  0  0  0  0
   36.0670   26.5650   38.3200 H   0  0  0  0  0  0  0  0  0  0  0  0
   34.7820   28.6490   37.9400 H   0  0  0  0  0  0  0  0  0  0  0  0
   34.6470   30.3630   39.6750 H   0  0  0  0  0  0  0  0  0  0  0  0
   35.7720   30.0240   41.7710 H   0  0  0  0  0  0  0  0  0  0  0  0
   40.8490   24.2940   39.2640 Cl  0  0  0  0  0  0  0  0  0  0  0  0
   39.2910   24.5700   39.9990 C   0  0  0  0  0  0  0  0  0  0  0  0
   38.6380   25.7500   39.8410 C   0  0  0  0  0  0  0  0  0  0  0  0
   37.4080   25.8850   40.4630 C   0  0  0  0  0  0  0  0  0  0  0  0
   36.8630   24.8730   41.2150 C   0  0  0  0  0  0  0  0  0  0  0  0
   37.5250   23.6980   41.3650 C   0  0  0  0  0  0  0  0  0  0  0  0
   38.7550   23.5470   40.7470 C   0  0  0  0  0  0  0  0  0  0  0  0
   35.8990   25.0410   41.6780 H   0  0  0  0  0  0  0  0  0  0  0  0
   37.0610   22.9320   41.9600 H   0  0  0  0  0  0  0  0  0  0  0  0
   39.2560   22.5980   40.8870 H   0  0  0  0  0  0  0  0  0  0  0  0
   40.6110   28.8170   38.8200 C   0  0  0  0  0  0  0  0  0  0  0  0
   40.0250   27.8110   39.5940 C   0  0  0  0  0  0  0  0  0  0  0  0
   39.2500   26.8020   39.0460 C   0  0  0  0  0  0  0  0  0  0  0  0
   39.1230   26.8920   37.7170 N   0  0  0  0  0  0  0  0  0  0  0  0
   39.6720   27.8400   36.9600 C   0  0  0  0  0  0  0  0  0  0  0  0
   40.4110   28.7960   37.5060 N   0  0  0  0  0  0  0  0  0  0  0  0
   41.2060   29.5740   39.3240 H   0  0  0  0  0  0  0  0  0  0  0  0
   40.1810   27.8130   40.6820 H   0  0  0  0  0  0  0  0  0  0  0  0
   39.4340   27.7150   35.8960 H   0  0  0  0  0  0  0  0  0  0  0  0
   37.3160   27.9220   42.7710 S   0  0  0  0  0  0  0  0  0  0  0  0
   37.3830   29.3050   43.4650 O   0  0  0  0  0  0  0  0  0  0  0  0
   36.3260   27.1460   43.6420 O   0  0  0  0  0  0  0  0  0  0  0  0
   39.3830   26.1410   43.4270 C   0  0  0  0  0  3  0  0  0  0  0  0
   38.9180   27.3880   43.0350 C   0  0  0  0  0  0  0  0  0  0  0  0
   40.0400   28.2550   42.9210 C   0  0  0  0  0  0  0  0  0  0  0  0
   39.8050   29.2920   42.6130 H   0  0  0  0  0  0  0  0  0  0  0  0
   41.3690   27.9710   43.1450 C   0  0  0  0  0  0  0  0  0  0  0  0
   42.4820   28.7090   43.0650 N   0  0  0  0  0  0  0  0  0  0  0  0
   42.5100   29.7150   42.7940 H   0  0  0  0  0  0  0  0  0  0  0  0
   43.4730   27.9080   43.3920 N   0  0  0  0  0  0  0  0  0  0  0  0
   43.0180   26.6790   43.6770 C   0  0  0  0  0  0  0  0  0  0  0  0
   43.6010   25.8060   43.9790 H   0  0  0  0  0  0  0  0  0  0  0  0
   41.6340   26.6980   43.5210 C   0  0  0  0  0  0  0  0  0  0  0  0
   40.6670   25.7320   43.6790 C   0  0  0  0  0  3  0  0  0  0  0  0
  1 30  1  0  0  0  0
  2 14  1  0  0  0  0
  2  1  2  0  0  0  0
  3  2  1  0  0  0  0
  4  3  2  0  0  0  0
  4  5  1  0  0  0  0
  5  6  2  0  0  0  0
  6  1  1  0  0  0  0
  6 10  1  0  0  0  0
  7  3  1  0  0  0  0
  8  4  1  0  0  0  0
  9  5  1  0  0  0  0
 11 12  1  0  0  0  0
 12 17  1  0  0  0  0
 13 12  2  0  0  0  0
 13 14  1  0  0  0  0
 14 15  2  0  0  0  0
 15 16  1  0  0  0  0
 15 18  1  0  0  0  0
 16 19  1  0  0  0  0
 17 20  1  0  0  0  0
 17 16  2  0  0  0  0
 21 27  1  0  0  0  0
 21 22  1  0  0  0  0
 22 28  1  0  0  0  0
 23 22  2  0  0  0  0
 23 13  1  0  0  0  0
 24 23  1  0  0  0  0
 25 26  1  0  0  0  0
 25 24  2  0  0  0  0
 26 21  2  0  0  0  0
 29 25  1  0  0  0  0
 30 34  1  0  0  0  0
 30 31  2  0  0  0  0
 30 32  2  0  0  0  0
 33 44  1  0  0  0  0
 34 33  2  0  0  0  0
 35 34  1  0  0  0  0
 35 37  2  0  0  0  0
 36 35  1  0  0  0  0
 37 43  1  0  0  0  0
 38 37  1  0  0  0  0
 38 40  1  0  0  0  0
 39 38  1  0  0  0  0
 40 41  2  0  0  0  0
 41 42  1  0  0  0  0
 43 41  1  0  0  0  0
 43 44  2  0  0  0  0
M  END
>  <minimizedAffinity>
-6.36871624

$$$$

 OpenBabel03252509103D

 44 48  0  0  0  0  0  0  0  0999 V2000
   38.3690   26.8100   41.9610 C   0  0  0  0  0  0  0  0  0  0  0  0
   37.4440   26.8420   40.9600 C   0  0  0  0  0  0  0  0  0  0  0  0
   36.8820   25.6610   40.5030 C   0  0  0  0  0  0  0  0  0  0  0  0
   37.2510   24.4550   41.0520 C   0  0  0  0  0  0  0  0  0  0  0  0
   38.1920   24.3780   42.0770 C   0  0  0  0  0  0  0  0  0  0  0  0
   38.7440   25.5840   42.5190 C   0  0  0  0  0  0  0  0  0  0  0  0
   36.1550   25.6530   39.7210 H   0  0  0  0  0  0  0  0  0  0  0  0
   36.8630   23.5150   40.7530 H   0  0  0  0  0  0  0  0  0  0  0  0
   38.5230   23.4870   42.5450 H   0  0  0  0  0  0  0  0  0  0  0  0
   39.4770   25.5530   43.3140 H   0  0  0  0  0  0  0  0  0  0  0  0
   37.4450   30.0040   36.8800 Cl  0  0  0  0  0  0  0  0  0  0  0  0
   36.9680   29.5270   38.4890 C   0  0  0  0  0  0  0  0  0  0  0  0
   37.4120   28.3680   39.0400 C   0  0  0  0  0  0  0  0  0  0  0  0
   36.9790   28.0650   40.3200 C   0  0  0  0  0  0  0  0  0  0  0  0
   36.1320   28.8960   41.0120 C   0  0  0  0  0  0  0  0  0  0  0  0
   35.6960   30.0510   40.4510 C   0  0  0  0  0  0  0  0  0  0  0  0
   36.1210   30.3690   39.1720 C   0  0  0  0  0  0  0  0  0  0  0  0
   35.8270   28.6010   42.0090 H   0  0  0  0  0  0  0  0  0  0  0  0
   35.0360   30.6730   41.0290 H   0  0  0  0  0  0  0  0  0  0  0  0
   35.7550   31.2980   38.7550 H   0  0  0  0  0  0  0  0  0  0  0  0
   40.5200   26.6590   37.7100 C   0  0  0  0  0  0  0  0  0  0  0  0
   39.6750   27.4910   38.4510 C   0  0  0  0  0  0  0  0  0  0  0  0
   38.3010   27.5090   38.2730 C   0  0  0  0  0  0  0  0  0  0  0  0
   37.8750   26.6600   37.3320 N   0  0  0  0  0  0  0  0  0  0  0  0
   38.6610   25.8580   36.6150 C   0  0  0  0  0  0  0  0  0  0  0  0
   39.9740   25.8570   36.8020 N   0  0  0  0  0  0  0  0  0  0  0  0
   41.5870   26.7020   37.9070 H   0  0  0  0  0  0  0  0  0  0  0  0
   40.1090   28.1600   39.2060 H   0  0  0  0  0  0  0  0  0  0  0  0
   38.0940   25.2480   35.9010 H   0  0  0  0  0  0  0  0  0  0  0  0
   39.1050   28.2120   42.5420 S   0  0  0  0  0  0  0  0  0  0  0  0
   38.1650   28.8950   43.5670 O   0  0  0  0  0  0  0  0  0  0  0  0
   40.2780   27.7460   43.4070 O   0  0  0  0  0  0  0  0  0  0  0  0
   40.4590   29.6740   40.5650 C   0  0  0  0  0  3  0  0  0  0  0  0
   39.5380   29.5700   41.5970 C   0  0  0  0  0  0  0  0  0  0  0  0
   38.9890   30.8630   41.8240 C   0  0  0  0  0  0  0  0  0  0  0  0
   38.2340   30.9190   42.6310 H   0  0  0  0  0  0  0  0  0  0  0  0
   39.2770   32.0410   41.1720 C   0  0  0  0  0  0  0  0  0  0  0  0
   38.8200   33.2910   41.3100 N   0  0  0  0  0  0  0  0  0  0  0  0
   38.1030   33.5880   42.0070 H   0  0  0  0  0  0  0  0  0  0  0  0
   39.4540   34.0110   40.4120 N   0  0  0  0  0  0  0  0  0  0  0  0
   40.3030   33.2510   39.7050 C   0  0  0  0  0  0  0  0  0  0  0  0
   40.9640   33.5670   38.8940 H   0  0  0  0  0  0  0  0  0  0  0  0
   40.2030   31.9490   40.1890 C   0  0  0  0  0  0  0  0  0  0  0  0
   40.8320   30.7760   39.8410 C   0  0  0  0  0  3  0  0  0  0  0  0
  1  6  1  0  0  0  0
  1 30  1  0  0  0  0
  2  1  2  0  0  0  0
  3  2  1  0  0  0  0
  3  4  2  0  0  0  0
  4  5  1  0  0  0  0
  5  6  2  0  0  0  0
  5  9  1  0  0  0  0
  6 10  1  0  0  0  0
  7  3  1  0  0  0  0
  8  4  1  0  0  0  0
 11 12  1  0  0  0  0
 12 13  2  0  0  0  0
 12 17  1  0  0  0  0
 13 14  1  0  0  0  0
 14  2  1  0  0  0  0
 14 15  2  0  0  0  0
 15 18  1  0  0  0  0
 16 15  1  0  0  0  0
 16 19  1  0  0  0  0
 17 16  2  0  0  0  0
 20 17  1  0  0  0  0
 21 27  1  0  0  0  0
 21 22  1  0  0  0  0
 22 28  1  0  0  0  0
 23 22  2  0  0  0  0
 23 13  1  0  0  0  0
 24 23  1  0  0  0  0
 25 26  1  0  0  0  0
 25 24  2  0  0  0  0
 26 21  2  0  0  0  0
 29 25  1  0  0  0  0
 30 32  2  0  0  0  0
 30 31  2  0  0  0  0
 33 34  1  0  0  0  0
 34 35  2  0  0  0  0
 34 30  1  0  0  0  0
 35 36  1  0  0  0  0
 37 38  1  0  0  0  0
 37 35  1  0  0  0  0
 38 39  1  0  0  0  0
 40 38  1  0  0  0  0
 41 43  1  0  0  0  0
 41 40  2  0  0  0  0
 42 41  1  0  0  0  0
 43 37  2  0  0  0  0
 44 43  1  0  0  0  0
 44 33  2  0  0  0  0
M  END
>  <minimizedAffinity>
-6.34363842

$$$$

 OpenBabel03252509103D

 44 48  0  0  0  0  0  0  0  0999 V2000
   36.5970   25.9850   39.5930 C   0  0  0  0  0  0  0  0  0  0  0  0
   36.5330   27.2720   40.0410 C   0  0  0  0  0  0  0  0  0  0  0  0
   35.8880   28.2340   39.2800 C   0  0  0  0  0  0  0  0  0  0  0  0
   35.3150   27.9020   38.0760 C   0  0  0  0  0  0  0  0  0  0  0  0
   35.3590   26.5990   37.5820 C   0  0  0  0  0  0  0  0  0  0  0  0
   36.0140   25.6480   38.3690 C   0  0  0  0  0  0  0  0  0  0  0  0
   35.8210   29.2490   39.6040 H   0  0  0  0  0  0  0  0  0  0  0  0
   34.8080   28.5850   37.4420 H   0  0  0  0  0  0  0  0  0  0  0  0
   34.9400   26.2730   36.6650 H   0  0  0  0  0  0  0  0  0  0  0  0
   36.0620   24.6280   38.0090 H   0  0  0  0  0  0  0  0  0  0  0  0
   40.2560   29.7550   42.6120 Cl  0  0  0  0  0  0  0  0  0  0  0  0
   38.7790   28.8330   42.5010 C   0  0  0  0  0  0  0  0  0  0  0  0
   38.2780   28.4480   41.3000 C   0  0  0  0  0  0  0  0  0  0  0  0
   37.0980   27.7230   41.3050 C   0  0  0  0  0  0  0  0  0  0  0  0
   36.4510   27.4040   42.4740 C   0  0  0  0  0  0  0  0  0  0  0  0
   36.9620   27.7940   43.6680 C   0  0  0  0  0  0  0  0  0  0  0  0
   38.1420   28.5180   43.6800 C   0  0  0  0  0  0  0  0  0  0  0  0
   35.5300   26.8370   42.4110 H   0  0  0  0  0  0  0  0  0  0  0  0
   36.4240   27.5210   44.5580 H   0  0  0  0  0  0  0  0  0  0  0  0
   38.5220   28.8120   44.6490 H   0  0  0  0  0  0  0  0  0  0  0  0
   39.5250   30.3820   38.2910 C   0  0  0  0  0  0  0  0  0  0  0  0
   38.8370   30.0410   39.4600 C   0  0  0  0  0  0  0  0  0  0  0  0
   38.9860   28.8120   40.0830 C   0  0  0  0  0  0  0  0  0  0  0  0
   39.8440   27.9990   39.4560 N   0  0  0  0  0  0  0  0  0  0  0  0
   40.5090   28.3030   38.3430 C   0  0  0  0  0  0  0  0  0  0  0  0
   40.3510   29.4860   37.7640 N   0  0  0  0  0  0  0  0  0  0  0  0
   39.3550   31.3660   37.8620 H   0  0  0  0  0  0  0  0  0  0  0  0
   38.1500   30.7710   39.9100 H   0  0  0  0  0  0  0  0  0  0  0  0
   41.1570   27.4830   38.0080 H   0  0  0  0  0  0  0  0  0  0  0  0
   37.3870   24.7760   40.4640 S   0  0  0  0  0  0  0  0  0  0  0  0
   36.4800   24.3120   41.6310 O   0  0  0  0  0  0  0  0  0  0  0  0
   37.4230   23.5510   39.5480 O   0  0  0  0  0  0  0  0  0  0  0  0
   39.1060   25.0360   42.6670 C   0  0  0  0  0  3  0  0  0  0  0  0
   38.8650   24.9620   41.3030 C   0  0  0  0  0  0  0  0  0  0  0  0
   40.1080   25.1270   40.6310 C   0  0  0  0  0  0  0  0  0  0  0  0
   40.0550   25.0890   39.5260 H   0  0  0  0  0  0  0  0  0  0  0  0
   41.3560   25.3270   41.1770 C   0  0  0  0  0  0  0  0  0  0  0  0
   42.5700   25.4910   40.6360 N   0  0  0  0  0  0  0  0  0  0  0  0
   42.7690   25.4930   39.6130 H   0  0  0  0  0  0  0  0  0  0  0  0
   43.4000   25.6420   41.6450 N   0  0  0  0  0  0  0  0  0  0  0  0
   42.7460   25.5760   42.8140 C   0  0  0  0  0  0  0  0  0  0  0  0
   43.1660   25.6660   43.8180 H   0  0  0  0  0  0  0  0  0  0  0  0
   41.3990   25.3700   42.5300 C   0  0  0  0  0  0  0  0  0  0  0  0
   40.2890   25.2280   43.3320 C   0  0  0  0  0  3  0  0  0  0  0  0
  1  2  1  0  0  0  0
  1 30  1  0  0  0  0
  2 14  1  0  0  0  0
  3  7  1  0  0  0  0
  3  2  2  0  0  0  0
  4  3  1  0  0  0  0
  5  4  2  0  0  0  0
  5  6  1  0  0  0  0
  6  1  2  0  0  0  0
  8  4  1  0  0  0  0
  9  5  1  0  0  0  0
 10  6  1  0  0  0  0
 12 11  1  0  0  0  0
 12 17  1  0  0  0  0
 13 14  1  0  0  0  0
 13 12  2  0  0  0  0
 14 15  2  0  0  0  0
 15 16  1  0  0  0  0
 16 17  2  0  0  0  0
 16 19  1  0  0  0  0
 17 20  1  0  0  0  0
 18 15  1  0  0  0  0
 21 22  1  0  0  0  0
 22 28  1  0  0  0  0
 22 23  2  0  0  0  0
 23 13  1  0  0  0  0
 24 23  1  0  0  0  0
 25 24  2  0  0  0  0
 26 21  2  0  0  0  0
 26 25  1  0  0  0  0
 27 21  1  0  0  0  0
 29 25  1  0  0  0  0
 30 34  1  0  0  0  0
 30 31  2  0  0  0  0
 32 30  2  0  0  0  0
 33 44  1  0  0  0  0
 34 33  2  0  0  0  0
 35 37  2  0  0  0  0
 35 34  1  0  0  0  0
 36 35  1  0  0  0  0
 37 43  1  0  0  0  0
 38 37  1  0  0  0  0
 38 40  1  0  0  0  0
 39 38  1  0  0  0  0
 40 41  2  0  0  0  0
 41 42  1  0  0  0  0
 43 41  1  0  0  0  0
 43 44  2  0  0  0  0
M  END
>  <minimizedAffinity>
-6.30944681

$$$$

 OpenBabel03252509103D

 44 48  0  0  0  0  0  0  0  0999 V2000
   38.6990   29.0020   42.3330 C   0  0  0  0  0  0  0  0  0  0  0  0
   37.5600   29.2070   41.6120 C   0  0  0  0  0  0  0  0  0  0  0  0
   36.4320   28.4470   41.8770 C   0  0  0  0  0  0  0  0  0  0  0  0
   36.4540   27.4870   42.8610 C   0  0  0  0  0  0  0  0  0  0  0  0
   37.5970   27.2460   43.6200 C   0  0  0  0  0  0  0  0  0  0  0  0
   38.7210   28.0260   43.3320 C   0  0  0  0  0  0  0  0  0  0  0  0
   35.5250   28.5840   41.3310 H   0  0  0  0  0  0  0  0  0  0  0  0
   35.6300   26.8690   43.1170 H   0  0  0  0  0  0  0  0  0  0  0  0
   37.6850   26.5250   44.3910 H   0  0  0  0  0  0  0  0  0  0  0  0
   39.6230   27.8600   43.9080 H   0  0  0  0  0  0  0  0  0  0  0  0
   37.2060   30.3490   36.5910 Cl  0  0  0  0  0  0  0  0  0  0  0  0
   37.2800   30.7550   38.2860 C   0  0  0  0  0  0  0  0  0  0  0  0
   37.3830   29.7920   39.2370 C   0  0  0  0  0  0  0  0  0  0  0  0
   37.4300   30.2030   40.5580 C   0  0  0  0  0  0  0  0  0  0  0  0
   37.3750   31.5320   40.9040 C   0  0  0  0  0  0  0  0  0  0  0  0
   37.2730   32.4850   39.9440 C   0  0  0  0  0  0  0  0  0  0  0  0
   37.2260   32.0890   38.6190 C   0  0  0  0  0  0  0  0  0  0  0  0
   37.4140   31.7900   41.9550 H   0  0  0  0  0  0  0  0  0  0  0  0
   37.2350   33.5130   40.2590 H   0  0  0  0  0  0  0  0  0  0  0  0
   37.1460   32.8750   37.8790 H   0  0  0  0  0  0  0  0  0  0  0  0
   38.6460   26.3440   38.3090 C   0  0  0  0  0  0  0  0  0  0  0  0
   38.6120   27.6870   38.6940 C   0  0  0  0  0  0  0  0  0  0  0  0
   37.4290   28.3950   38.8340 C   0  0  0  0  0  0  0  0  0  0  0  0
   36.3390   27.6680   38.5640 N   0  0  0  0  0  0  0  0  0  0  0  0
   36.3480   26.3880   38.1960 C   0  0  0  0  0  0  0  0  0  0  0  0
   37.4920   25.7300   38.0690 N   0  0  0  0  0  0  0  0  0  0  0  0
   39.6130   25.8570   38.2210 H   0  0  0  0  0  0  0  0  0  0  0  0
   39.5570   28.2100   38.8970 H   0  0  0  0  0  0  0  0  0  0  0  0
   35.3370   25.9960   38.0270 H   0  0  0  0  0  0  0  0  0  0  0  0
   40.1100   29.8790   42.0400 S   0  0  0  0  0  0  0  0  0  0  0  0
   40.0420   31.2250   42.8060 O   0  0  0  0  0  0  0  0  0  0  0  0
   41.2310   29.1290   42.7610 O   0  0  0  0  0  0  0  0  0  0  0  0
   40.9880   29.7280   39.3790 C   0  0  0  0  0  3  0  0  0  0  0  0
   40.6280   30.4430   40.5120 C   0  0  0  0  0  0  0  0  0  0  0  0
   40.8130   31.8260   40.2310 C   0  0  0  0  0  0  0  0  0  0  0  0
   40.5600   32.5130   41.0610 H   0  0  0  0  0  0  0  0  0  0  0  0
   41.2610   32.4110   39.0680 C   0  0  0  0  0  0  0  0  0  0  0  0
   41.4660   33.6850   38.7110 N   0  0  0  0  0  0  0  0  0  0  0  0
   41.2970   34.5080   39.3270 H   0  0  0  0  0  0  0  0  0  0  0  0
   41.9040   33.6490   37.4710 N   0  0  0  0  0  0  0  0  0  0  0  0
   41.9830   32.3840   37.0310 C   0  0  0  0  0  0  0  0  0  0  0  0
   42.3110   32.0410   36.0460 H   0  0  0  0  0  0  0  0  0  0  0  0
   41.5650   31.5520   38.0660 C   0  0  0  0  0  0  0  0  0  0  0  0
   41.4450   30.1850   38.1700 C   0  0  0  0  0  3  0  0  0  0  0  0
  1  6  1  0  0  0  0
  2  3  1  0  0  0  0
  2  1  2  0  0  0  0
  3  4  2  0  0  0  0
  4  8  1  0  0  0  0
  4  5  1  0  0  0  0
  5  9  1  0  0  0  0
  6  5  2  0  0  0  0
  6 10  1  0  0  0  0
  7  3  1  0  0  0  0
 11 12  1  0  0  0  0
 12 17  2  0  0  0  0
 12 13  1  0  0  0  0
 13 14  2  0  0  0  0
 14 15  1  0  0  0  0
 14  2  1  0  0  0  0
 15 18  1  0  0  0  0
 16 19  1  0  0  0  0
 16 15  2  0  0  0  0
 17 16  1  0  0  0  0
 20 17  1  0  0  0  0
 21 22  1  0  0  0  0
 22 23  2  0  0  0  0
 22 28  1  0  0  0  0
 23 13  1  0  0  0  0
 24 23  1  0  0  0  0
 25 24  2  0  0  0  0
 26 25  1  0  0  0  0
 26 21  2  0  0  0  0
 27 21  1  0  0  0  0
 29 25  1  0  0  0  0
 30  1  1  0  0  0  0
 30 32  2  0  0  0  0
 30 31  2  0  0  0  0
 33 34  1  0  0  0  0
 34 30  1  0  0  0  0
 35 34  2  0  0  0  0
 35 36  1  0  0  0  0
 37 35  1  0  0  0  0
 38 37  1  0  0  0  0
 38 39  1  0  0  0  0
 40 38  1  0  0  0  0
 41 40  2  0  0  0  0
 41 43  1  0  0  0  0
 42 41  1  0  0  0  0
 43 44  1  0  0  0  0
 43 37  2  0  0  0  0
 44 33  2  0  0  0  0
M  END
>  <minimizedAffinity>
-6.30430746

$$$$

 OpenBabel03252509103D

 44 48  0  0  0  0  0  0  0  0999 V2000
   38.4660   27.1250   41.0820 C   0  0  0  0  0  0  0  0  0  0  0  0
   38.1090   26.9180   39.7830 C   0  0  0  0  0  0  0  0  0  0  0  0
   38.6250   25.8330   39.0910 C   0  0  0  0  0  0  0  0  0  0  0  0
   39.4960   24.9650   39.7050 C   0  0  0  0  0  0  0  0  0  0  0  0
   39.8880   25.1410   41.0310 C   0  0  0  0  0  0  0  0  0  0  0  0
   39.3520   26.2420   41.7060 C   0  0  0  0  0  0  0  0  0  0  0  0
   38.3640   25.6440   38.0730 H   0  0  0  0  0  0  0  0  0  0  0  0
   39.9300   24.1170   39.2380 H   0  0  0  0  0  0  0  0  0  0  0  0
   40.5530   24.5140   41.5660 H   0  0  0  0  0  0  0  0  0  0  0  0
   39.6390   26.4020   42.7380 H   0  0  0  0  0  0  0  0  0  0  0  0
   37.3220   30.7290   36.3920 Cl  0  0  0  0  0  0  0  0  0  0  0  0
   36.7970   29.5060   37.5200 C   0  0  0  0  0  0  0  0  0  0  0  0
   37.6910   28.7200   38.1720 C   0  0  0  0  0  0  0  0  0  0  0  0
   37.1870   27.7700   39.0460 C   0  0  0  0  0  0  0  0  0  0  0  0
   35.8370   27.6210   39.2500 C   0  0  0  0  0  0  0  0  0  0  0  0
   34.9530   28.4130   38.5920 C   0  0  0  0  0  0  0  0  0  0  0  0
   35.4420   29.3670   37.7170 C   0  0  0  0  0  0  0  0  0  0  0  0
   35.5050   26.8590   39.9440 H   0  0  0  0  0  0  0  0  0  0  0  0
   33.9050   28.2630   38.7830 H   0  0  0  0  0  0  0  0  0  0  0  0
   34.7100   29.9830   37.2100 H   0  0  0  0  0  0  0  0  0  0  0  0
   41.1690   28.3980   36.7060 C   0  0  0  0  0  0  0  0  0  0  0  0
   39.8020   28.2150   36.9380 C   0  0  0  0  0  0  0  0  0  0  0  0
   39.1130   28.9010   37.9240 C   0  0  0  0  0  0  0  0  0  0  0  0
   39.8820   29.7440   38.6220 N   0  0  0  0  0  0  0  0  0  0  0  0
   41.1840   29.9350   38.4180 C   0  0  0  0  0  0  0  0  0  0  0  0
   41.8240   29.2680   37.4670 N   0  0  0  0  0  0  0  0  0  0  0  0
   41.6380   27.8230   35.9130 H   0  0  0  0  0  0  0  0  0  0  0  0
   39.2440   27.5000   36.3160 H   0  0  0  0  0  0  0  0  0  0  0  0
   41.6100   30.6740   39.1090 H   0  0  0  0  0  0  0  0  0  0  0  0
   37.8900   28.4390   41.9680 S   0  0  0  0  0  0  0  0  0  0  0  0
   36.3750   28.2510   42.2320 O   0  0  0  0  0  0  0  0  0  0  0  0
   38.5020   28.3090   43.3640 O   0  0  0  0  0  0  0  0  0  0  0  0
   36.8800   30.8060   40.8480 C   0  0  0  0  0  3  0  0  0  0  0  0
   37.8920   30.0660   41.4430 C   0  0  0  0  0  0  0  0  0  0  0  0
   39.0480   30.8920   41.5210 C   0  0  0  0  0  0  0  0  0  0  0  0
   39.9360   30.4170   41.9800 H   0  0  0  0  0  0  0  0  0  0  0  0
   39.1990   32.1940   41.1010 C   0  0  0  0  0  0  0  0  0  0  0  0
   40.2330   33.0440   41.1300 N   0  0  0  0  0  0  0  0  0  0  0  0
   41.1760   32.8210   41.5160 H   0  0  0  0  0  0  0  0  0  0  0  0
   39.8000   34.1610   40.5870 N   0  0  0  0  0  0  0  0  0  0  0  0
   38.5170   34.0430   40.2140 C   0  0  0  0  0  0  0  0  0  0  0  0
   37.8900   34.8010   39.7380 H   0  0  0  0  0  0  0  0  0  0  0  0
   38.1010   32.7560   40.5430 C   0  0  0  0  0  0  0  0  0  0  0  0
   36.9020   32.0980   40.3910 C   0  0  0  0  0  3  0  0  0  0  0  0
  1  6  1  0  0  0  0
  1 30  1  0  0  0  0
  2  1  2  0  0  0  0
  3  4  2  0  0  0  0
  3  2  1  0  0  0  0
  4  5  1  0  0  0  0
  5  9  1  0  0  0  0
  5  6  2  0  0  0  0
  6 10  1  0  0  0  0
  7  3  1  0  0  0  0
  8  4  1  0  0  0  0
 11 12  1  0  0  0  0
 12 17  2  0  0  0  0
 12 13  1  0  0  0  0
 13 14  2  0  0  0  0
 14 15  1  0  0  0  0
 14  2  1  0  0  0  0
 15 18  1  0  0  0  0
 16 19  1  0  0  0  0
 16 15  2  0  0  0  0
 17 16  1  0  0  0  0
 20 17  1  0  0  0  0
 21 22  2  0  0  0  0
 21 26  1  0  0  0  0
 22 23  1  0  0  0  0
 23 13  1  0  0  0  0
 23 24  2  0  0  0  0
 25 24  1  0  0  0  0
 25 29  1  0  0  0  0
 26 25  2  0  0  0  0
 27 21  1  0  0  0  0
 28 22  1  0  0  0  0
 30 31  2  0  0  0  0
 30 32  2  0  0  0  0
 33 34  1  0  0  0  0
 34 35  2  0  0  0  0
 34 30  1  0  0  0  0
 35 36  1  0  0  0  0
 37 38  1  0  0  0  0
 37 35  1  0  0  0  0
 38 39  1  0  0  0  0
 40 38  1  0  0  0  0
 41 43  1  0  0  0  0
 41 40  2  0  0  0  0
 42 41  1  0  0  0  0
 43 37  2  0  0  0  0
 44 43  1  0  0  0  0
 44 33  2  0  0  0  0
M  END
>  <minimizedAffinity>
-6.28803253

$$$$
