
 OpenBabel03252508313D

 35 38  0  0  1  0  0  0  0  0999 V2000
   44.7280   34.2820   41.9130 N   0  0  0  0  0  0  0  0  0  0  0  0
   45.3020   33.1820   41.2370 C   0  0  1  0  0  0  0  0  0  0  0  0
   45.0730   33.1290   39.7720 C   0  0  0  0  0  0  0  0  0  0  0  0
   43.8030   33.5370   39.3390 N   0  0  0  0  0  0  0  0  0  0  0  0
   43.1750   34.5790   40.0470 C   0  0  0  0  0  0  0  0  0  0  0  0
   44.1040   35.2330   41.0340 C   0  0  0  0  0  0  0  0  0  0  0  0
   44.8450   32.2510   41.6660 H   0  0  0  0  0  0  0  0  0  0  0  0
   45.2930   32.1100   39.3910 H   0  0  0  0  0  0  0  0  0  0  0  0
   45.8320   33.8210   39.3030 H   0  0  0  0  0  0  0  0  0  0  0  0
   43.5890   33.3950   38.3560 H   0  0  0  0  0  0  0  0  0  0  0  0
   42.2610   34.2560   40.6210 H   0  0  0  0  0  0  0  0  0  0  0  0
   42.8100   35.3540   39.3470 H   0  0  0  0  0  0  0  0  0  0  0  0
   44.9010   35.8300   40.5190 H   0  0  0  0  0  0  0  0  0  0  0  0
   43.4740   35.9750   41.5670 H   0  0  0  0  0  0  0  0  0  0  0  0
   47.1960   31.6970   41.4810 C   0  0  0  0  0  3  0  0  0  0  0  0
   46.7840   33.0230   41.4730 C   0  0  0  0  0  0  0  0  0  0  0  0
   47.7450   33.9850   41.6860 C   0  0  0  0  0  0  0  0  0  0  0  0
   47.3220   34.9960   41.6600 H   0  0  0  0  0  0  0  0  0  0  0  0
   49.0380   33.6450   41.8950 C   0  0  0  0  0  0  0  0  0  0  0  0
   50.0620   34.4740   42.1140 N   0  0  0  0  0  0  0  0  0  0  0  0
   50.1140   35.5280   42.1720 H   0  0  0  0  0  0  0  0  0  0  0  0
   51.1460   33.7470   42.2680 N   0  0  0  0  0  0  0  0  0  0  0  0
   50.8340   32.4570   42.1520 C   0  0  0  0  0  0  0  0  0  0  0  0
   51.4850   31.5830   42.2250 H   0  0  0  0  0  0  0  0  0  0  0  0
   49.4760   32.3370   41.9100 C   0  0  0  0  0  0  0  0  0  0  0  0
   48.5390   31.3680   41.7000 C   0  0  0  0  0  3  0  0  0  0  0  0
   44.4220   35.5720   43.9000 C   0  0  0  0  0  0  0  0  0  0  0  0
   44.8200   34.3470   43.3220 C   0  0  0  0  0  0  0  0  0  0  0  0
   45.2600   33.3390   44.1580 C   0  0  0  0  0  0  0  0  0  0  0  0
   45.3080   33.5290   45.5030 N   0  0  0  0  0  0  0  0  0  0  0  0
   44.9180   34.7230   46.0410 C   0  0  0  0  0  0  0  0  0  0  0  0
   44.4850   35.7230   45.2470 N   0  0  0  0  0  0  0  0  0  0  0  0
   44.0570   36.4690   43.4300 H   0  0  0  0  0  0  0  0  0  0  0  0
   45.5540   32.4090   43.7190 H   0  0  0  0  0  0  0  0  0  0  0  0
   44.9650   34.8530   47.1220 H   0  0  0  0  0  0  0  0  0  0  0  0
  1 28  1  0  0  0  0
  2 16  1  0  0  0  0
  2  7  1  1  0  0  0
  2  1  1  0  0  0  0
  3  2  1  0  0  0  0
  4  3  1  0  0  0  0
  4  5  1  0  0  0  0
  5 11  1  0  0  0  0
  5  6  1  0  0  0  0
  6 14  1  0  0  0  0
  6  1  1  0  0  0  0
  8  3  1  0  0  0  0
  9  3  1  0  0  0  0
 10  4  1  0  0  0  0
 12  5  1  0  0  0  0
 13  6  1  0  0  0  0
 15 26  1  0  0  0  0
 16 15  2  0  0  0  0
 16 17  1  0  0  0  0
 17 19  2  0  0  0  0
 18 17  1  0  0  0  0
 19 25  1  0  0  0  0
 19 20  1  0  0  0  0
 20 21  1  0  0  0  0
 20 22  1  0  0  0  0
 23 24  1  0  0  0  0
 23 22  2  0  0  0  0
 25 23  1  0  0  0  0
 26 25  2  0  0  0  0
 27 32  1  0  0  0  0
 28 27  2  0  0  0  0
 28 29  1  0  0  0  0
 29 30  2  0  0  0  0
 30 31  1  0  0  0  0
 31 35  1  0  0  0  0
 32 31  2  0  0  0  0
 33 27  1  0  0  0  0
 34 29  1  0  0  0  0
M  END
>  <minimizedAffinity>
-4.78922939

>  <minimizedRMSD>
1.39607298

$$$$
