
 OpenBabel03252509123D

 35 39  0  0  0  0  0  0  0  0999 V2000
   47.6890   30.7190   44.6820 C   0  0  0  0  0  0  0  0  0  0  0  0
   47.5110   31.8860   43.9520 C   0  0  0  0  0  0  0  0  0  0  0  0
   46.7750   32.9430   44.4210 C   0  0  0  0  0  0  0  0  0  0  0  0
   46.1650   32.8770   45.6780 C   0  0  0  0  0  0  0  0  0  0  0  0
   45.3950   33.6960   46.4310 N   0  0  0  0  0  0  0  0  0  0  0  0
   45.0970   33.0660   47.6010 C   0  0  0  0  0  0  0  0  0  0  0  0
   45.6960   31.8660   47.5340 N   0  0  0  0  0  0  0  0  0  0  0  0
   46.3570   31.7100   46.3820 C   0  0  0  0  0  0  0  0  0  0  0  0
   47.0870   30.6330   45.9450 C   0  0  0  0  0  0  0  0  0  0  0  0
   48.2750   29.8830   44.3050 H   0  0  0  0  0  0  0  0  0  0  0  0
   45.1500   34.6370   46.0450 H   0  0  0  0  0  0  0  0  0  0  0  0
   44.4910   33.6160   48.2820 H   0  0  0  0  0  0  0  0  0  0  0  0
   47.2000   29.7360   46.5520 H   0  0  0  0  0  0  0  0  0  0  0  0
   47.9690   31.7760   40.3120 C   0  0  0  0  0  0  0  0  0  0  0  0
   49.2910   32.2070   40.1560 C   0  0  0  0  0  0  0  0  0  0  0  0
   50.0140   32.5330   41.3060 C   0  0  0  0  0  0  0  0  0  0  0  0
   49.4020   32.4160   42.5260 N   0  0  0  0  0  0  0  0  0  0  0  0
   48.1280   31.9980   42.6360 C   0  0  0  0  0  0  0  0  0  0  0  0
   47.4140   31.6790   41.5410 N   0  0  0  0  0  0  0  0  0  0  0  0
   47.4340   31.5320   39.4040 H   0  0  0  0  0  0  0  0  0  0  0  0
   49.8230   32.3200   39.2370 H   0  0  0  0  0  0  0  0  0  0  0  0
   51.0350   32.8780   41.3490 H   0  0  0  0  0  0  0  0  0  0  0  0
   46.5490   34.4480   43.4790 S   0  0  0  0  0  0  0  0  0  0  0  0
   44.4450   35.5750   42.0190 C   0  0  0  0  0  3  0  0  0  0  0  0
   44.9870   34.4590   42.6250 C   0  0  0  0  0  0  0  0  0  0  0  0
   44.2930   33.2690   42.5800 C   0  0  0  0  0  0  0  0  0  0  0  0
   44.6860   32.3740   43.0440 H   0  0  0  0  0  0  0  0  0  0  0  0
   43.0830   33.2700   41.9200 C   0  0  0  0  0  0  0  0  0  0  0  0
   42.2120   32.2380   41.7340 N   0  0  0  0  0  0  0  0  0  0  0  0
   42.2390   31.2310   42.0290 H   0  0  0  0  0  0  0  0  0  0  0  0
   41.1580   32.6640   41.0410 N   0  0  0  0  0  0  0  0  0  0  0  0
   41.3300   33.9710   40.7700 C   0  0  0  0  0  0  0  0  0  0  0  0
   40.6650   34.6200   40.2270 H   0  0  0  0  0  0  0  0  0  0  0  0
   42.5450   34.3980   41.3130 C   0  0  0  0  0  0  0  0  0  0  0  0
   43.2340   35.5920   41.3560 C   0  0  0  0  0  3  0  0  0  0  0  0
  1  9  1  0  0  0  0
  2  3  1  0  0  0  0
  2  1  2  0  0  0  0
  3  4  2  0  0  0  0
  4  8  1  0  0  0  0
  4  5  1  0  0  0  0
  5  6  1  0  0  0  0
  6 12  1  0  0  0  0
  7  6  2  0  0  0  0
  8  7  1  0  0  0  0
  9  8  2  0  0  0  0
  9 13  1  0  0  0  0
 10  1  1  0  0  0  0
 11  5  1  0  0  0  0
 14 19  1  0  0  0  0
 15 14  2  0  0  0  0
 15 16  1  0  0  0  0
 16 22  1  0  0  0  0
 16 17  2  0  0  0  0
 17 18  1  0  0  0  0
 18  2  1  0  0  0  0
 19 18  2  0  0  0  0
 20 14  1  0  0  0  0
 21 15  1  0  0  0  0
 23  3  1  0  0  0  0
 24 25  1  0  0  0  0
 25 23  1  0  0  0  0
 26 25  2  0  0  0  0
 26 27  1  0  0  0  0
 28 26  1  0  0  0  0
 29 28  1  0  0  0  0
 29 30  1  0  0  0  0
 31 29  1  0  0  0  0
 32 31  2  0  0  0  0
 32 34  1  0  0  0  0
 33 32  1  0  0  0  0
 34 35  1  0  0  0  0
 34 28  2  0  0  0  0
 35 24  2  0  0  0  0
M  END
>  <minimizedAffinity>
-5.55541325

>  <minimizedRMSD>
1.99658644

$$$$
