
 OpenBabel03252500163D

 41 45  0  0  0  0  0  0  0  0999 V2000
   41.0970   31.9170   40.2170 Cl  0  0  0  0  0  0  0  0  0  0  0  0
   40.2890   33.4560   40.1850 C   0  0  0  0  0  0  0  0  0  0  0  0
   41.0010   34.6060   40.3450 C   0  0  0  0  0  0  0  0  0  0  0  0
   40.3790   35.8650   40.3240 C   0  0  0  0  0  0  0  0  0  0  0  0
   39.0060   35.8590   40.1320 C   0  0  0  0  0  0  0  0  0  0  0  0
   38.3070   34.6840   39.9720 C   0  0  0  0  0  0  0  0  0  0  0  0
   38.9240   33.4980   39.9950 C   0  0  0  0  0  0  0  0  0  0  0  0
   40.9640   36.7420   40.4530 H   0  0  0  0  0  0  0  0  0  0  0  0
   38.5470   36.8400   40.1190 H   0  0  0  0  0  0  0  0  0  0  0  0
   37.2320   34.7890   39.8270 H   0  0  0  0  0  0  0  0  0  0  0  0
   44.5940   34.0880   39.7330 C   0  0  0  0  0  0  0  0  0  0  0  0
   45.1740   34.4510   40.9640 C   0  0  0  0  0  0  0  0  0  0  0  0
   44.3170   34.8700   41.9890 C   0  0  0  0  0  0  0  0  0  0  0  0
   42.9770   34.9050   41.7470 N   0  0  0  0  0  0  0  0  0  0  0  0
   42.4590   34.5470   40.5450 C   0  0  0  0  0  0  0  0  0  0  0  0
   43.2700   34.1450   39.5590 N   0  0  0  0  0  0  0  0  0  0  0  0
   45.2880   33.7710   38.9670 H   0  0  0  0  0  0  0  0  0  0  0  0
   46.2230   34.4410   41.2040 H   0  0  0  0  0  0  0  0  0  0  0  0
   44.8130   35.2800   43.3380 C   0  0  0  0  0  0  0  0  0  0  0  0
   45.9490   36.0360   43.2270 F   0  0  0  0  0  0  0  0  0  0  0  0
   43.8320   36.0350   43.9510 F   0  0  0  0  0  0  0  0  0  0  0  0
   45.0260   34.1370   44.0550 F   0  0  0  0  0  0  0  0  0  0  0  0
   38.1950   32.2390   39.8270 C   0  0  0  0  0  0  0  0  0  0  0  0
   37.3060   31.9660   38.7930 C   0  0  0  0  0  0  0  0  0  0  0  0
   36.8070   30.6870   38.9540 C   0  0  0  0  0  0  0  0  0  0  0  0
   37.4330   30.2450   40.0970 C   0  0  0  0  0  0  0  0  0  0  0  0
   38.2360   31.1740   40.5820 O   0  0  0  0  0  0  0  0  0  0  0  0
   36.9960   32.6050   37.9530 H   0  0  0  0  0  0  0  0  0  0  0  0
   36.0960   30.1460   38.3390 H   0  0  0  0  0  0  0  0  0  0  0  0
   37.1390   28.8890   42.1160 C   0  0  0  0  0  3  0  0  0  0  0  0
   37.2790   28.9360   40.7470 C   0  0  0  0  0  0  0  0  0  0  0  0
   37.2790   27.7750   39.9750 C   0  0  0  0  0  0  0  0  0  0  0  0
   37.3890   27.8140   38.8920 H   0  0  0  0  0  0  0  0  0  0  0  0
   37.1310   26.5540   40.6230 C   0  0  0  0  0  0  0  0  0  0  0  0
   37.0890   25.2740   40.1790 N   0  0  0  0  0  0  0  0  0  0  0  0
   37.1670   24.9440   39.1800 H   0  0  0  0  0  0  0  0  0  0  0  0
   36.9300   24.4750   41.2290 N   0  0  0  0  0  0  0  0  0  0  0  0
   36.8650   25.2080   42.3750 C   0  0  0  0  0  0  0  0  0  0  0  0
   36.7400   24.8710   43.3980 H   0  0  0  0  0  0  0  0  0  0  0  0
   36.9940   26.5460   41.9960 C   0  0  0  0  0  0  0  0  0  0  0  0
   36.9910   27.6740   42.7790 C   0  0  0  0  0  3  0  0  0  0  0  0
  2  1  1  0  0  0  0
  2  3  1  0  0  0  0
  3 15  1  0  0  0  0
  4  3  2  0  0  0  0
  4  8  1  0  0  0  0
  5  4  1  0  0  0  0
  6  7  1  0  0  0  0
  6  5  2  0  0  0  0
  7  2  2  0  0  0  0
  9  5  1  0  0  0  0
 10  6  1  0  0  0  0
 11 12  1  0  0  0  0
 12 18  1  0  0  0  0
 12 13  2  0  0  0  0
 13 19  1  0  0  0  0
 14 13  1  0  0  0  0
 15 14  2  0  0  0  0
 16 11  2  0  0  0  0
 16 15  1  0  0  0  0
 17 11  1  0  0  0  0
 19 21  1  0  0  0  0
 19 22  1  0  0  0  0
 20 19  1  0  0  0  0
 23  7  1  0  0  0  0
 23 27  1  0  0  0  0
 24 25  1  0  0  0  0
 24 23  2  0  0  0  0
 25 26  2  0  0  0  0
 26 27  1  0  0  0  0
 26 31  1  0  0  0  0
 28 24  1  0  0  0  0
 29 25  1  0  0  0  0
 30 41  1  0  0  0  0
 31 30  2  0  0  0  0
 32 34  2  0  0  0  0
 32 31  1  0  0  0  0
 33 32  1  0  0  0  0
 34 40  1  0  0  0  0
 35 34  1  0  0  0  0
 35 37  1  0  0  0  0
 36 35  1  0  0  0  0
 37 38  2  0  0  0  0
 38 39  1  0  0  0  0
 40 38  1  0  0  0  0
 40 41  2  0  0  0  0
M  END
>  <minimizedAffinity>
-7.73998117

$$$$

 OpenBabel03252500163D

 41 45  0  0  0  0  0  0  0  0999 V2000
   40.9000   31.5860   40.1250 Cl  0  0  0  0  0  0  0  0  0  0  0  0
   40.0660   33.1120   40.1340 C   0  0  0  0  0  0  0  0  0  0  0  0
   40.7650   34.2720   40.2860 C   0  0  0  0  0  0  0  0  0  0  0  0
   40.1220   35.5200   40.2980 C   0  0  0  0  0  0  0  0  0  0  0  0
   38.7450   35.4940   40.1460 C   0  0  0  0  0  0  0  0  0  0  0  0
   38.0600   34.3090   39.9920 C   0  0  0  0  0  0  0  0  0  0  0  0
   38.6960   33.1330   39.9850 C   0  0  0  0  0  0  0  0  0  0  0  0
   40.6970   36.4050   40.4190 H   0  0  0  0  0  0  0  0  0  0  0  0
   38.2690   36.4670   40.1580 H   0  0  0  0  0  0  0  0  0  0  0  0
   36.9800   34.3990   39.8800 H   0  0  0  0  0  0  0  0  0  0  0  0
   44.1230   34.4420   41.7850 C   0  0  0  0  0  0  0  0  0  0  0  0
   44.9640   34.1520   40.6930 C   0  0  0  0  0  0  0  0  0  0  0  0
   44.3620   33.9030   39.4540 C   0  0  0  0  0  0  0  0  0  0  0  0
   43.0030   33.9520   39.3670 N   0  0  0  0  0  0  0  0  0  0  0  0
   42.2280   34.2340   40.4440 C   0  0  0  0  0  0  0  0  0  0  0  0
   42.7950   34.4740   41.6330 N   0  0  0  0  0  0  0  0  0  0  0  0
   44.6250   34.6290   42.7230 H   0  0  0  0  0  0  0  0  0  0  0  0
   46.0390   34.1020   40.7110 H   0  0  0  0  0  0  0  0  0  0  0  0
   45.1490   33.5850   38.2230 C   0  0  0  0  0  0  0  0  0  0  0  0
   44.3140   33.3470   37.1640 F   0  0  0  0  0  0  0  0  0  0  0  0
   45.9490   34.6710   37.9260 F   0  0  0  0  0  0  0  0  0  0  0  0
   45.9320   32.5030   38.5120 F   0  0  0  0  0  0  0  0  0  0  0  0
   37.9820   31.8650   39.8230 C   0  0  0  0  0  0  0  0  0  0  0  0
   37.0480   31.5970   38.8290 C   0  0  0  0  0  0  0  0  0  0  0  0
   36.5820   30.3060   38.9840 C   0  0  0  0  0  0  0  0  0  0  0  0
   37.2720   29.8510   40.0830 C   0  0  0  0  0  0  0  0  0  0  0  0
   38.0810   30.7830   40.5500 O   0  0  0  0  0  0  0  0  0  0  0  0
   36.6850   32.2500   38.0200 H   0  0  0  0  0  0  0  0  0  0  0  0
   35.8500   29.7660   38.3920 H   0  0  0  0  0  0  0  0  0  0  0  0
   37.0520   28.4460   42.0780 C   0  0  0  0  0  3  0  0  0  0  0  0
   37.1750   28.5240   40.7090 C   0  0  0  0  0  0  0  0  0  0  0  0
   37.2110   27.3790   39.9150 C   0  0  0  0  0  0  0  0  0  0  0  0
   37.3080   27.4430   38.8310 H   0  0  0  0  0  0  0  0  0  0  0  0
   37.1160   26.1410   40.5400 C   0  0  0  0  0  0  0  0  0  0  0  0
   37.1180   24.8690   40.0720 N   0  0  0  0  0  0  0  0  0  0  0  0
   37.1980   24.5620   39.0660 H   0  0  0  0  0  0  0  0  0  0  0  0
   37.0010   24.0440   41.1080 N   0  0  0  0  0  0  0  0  0  0  0  0
   36.9210   24.7530   42.2680 C   0  0  0  0  0  0  0  0  0  0  0  0
   36.8200   24.3910   43.2850 H   0  0  0  0  0  0  0  0  0  0  0  0
   36.9940   26.1020   41.9140 C   0  0  0  0  0  0  0  0  0  0  0  0
   36.9580   27.2130   42.7190 C   0  0  0  0  0  3  0  0  0  0  0  0
  1  2  1  0  0  0  0
  2  3  1  0  0  0  0
  3  4  2  0  0  0  0
  3 15  1  0  0  0  0
  4  8  1  0  0  0  0
  5  9  1  0  0  0  0
  5  4  1  0  0  0  0
  6  5  2  0  0  0  0
  7  6  1  0  0  0  0
  7  2  2  0  0  0  0
 10  6  1  0  0  0  0
 11 17  1  0  0  0  0
 12 18  1  0  0  0  0
 12 11  2  0  0  0  0
 13 12  1  0  0  0  0
 14 13  2  0  0  0  0
 14 15  1  0  0  0  0
 15 16  2  0  0  0  0
 16 11  1  0  0  0  0
 19 22  1  0  0  0  0
 19 13  1  0  0  0  0
 20 19  1  0  0  0  0
 21 19  1  0  0  0  0
 23  7  1  0  0  0  0
 23 27  1  0  0  0  0
 24 25  1  0  0  0  0
 24 23  2  0  0  0  0
 25 26  2  0  0  0  0
 26 27  1  0  0  0  0
 26 31  1  0  0  0  0
 28 24  1  0  0  0  0
 29 25  1  0  0  0  0
 30 41  1  0  0  0  0
 31 30  2  0  0  0  0
 32 34  2  0  0  0  0
 32 31  1  0  0  0  0
 33 32  1  0  0  0  0
 34 40  1  0  0  0  0
 35 34  1  0  0  0  0
 35 37  1  0  0  0  0
 36 35  1  0  0  0  0
 37 38  2  0  0  0  0
 38 39  1  0  0  0  0
 40 38  1  0  0  0  0
 40 41  2  0  0  0  0
M  END
>  <minimizedAffinity>
-7.23696709

$$$$

 OpenBabel03252500163D

 41 45  0  0  0  0  0  0  0  0999 V2000
   37.6920   27.6220   39.4220 Cl  0  0  0  0  0  0  0  0  0  0  0  0
   37.3540   27.5670   41.1270 C   0  0  0  0  0  0  0  0  0  0  0  0
   37.1970   26.3680   41.7550 C   0  0  0  0  0  0  0  0  0  0  0  0
   36.9230   26.2900   43.1290 C   0  0  0  0  0  0  0  0  0  0  0  0
   36.8240   27.5000   43.7980 C   0  0  0  0  0  0  0  0  0  0  0  0
   36.9880   28.6990   43.1420 C   0  0  0  0  0  0  0  0  0  0  0  0
   37.2480   28.7460   41.8320 C   0  0  0  0  0  0  0  0  0  0  0  0
   36.8050   25.3380   43.5880 H   0  0  0  0  0  0  0  0  0  0  0  0
   36.6130   27.4160   44.8570 H   0  0  0  0  0  0  0  0  0  0  0  0
   36.8910   29.5920   43.7590 H   0  0  0  0  0  0  0  0  0  0  0  0
   38.6180   23.3880   40.1260 C   0  0  0  0  0  0  0  0  0  0  0  0
   37.4840   22.7780   39.5530 C   0  0  0  0  0  0  0  0  0  0  0  0
   36.2450   23.4040   39.7360 C   0  0  0  0  0  0  0  0  0  0  0  0
   36.1970   24.5610   40.4530 N   0  0  0  0  0  0  0  0  0  0  0  0
   37.3130   25.1160   40.9890 C   0  0  0  0  0  0  0  0  0  0  0  0
   38.5030   24.5250   40.8190 N   0  0  0  0  0  0  0  0  0  0  0  0
   39.5550   22.8750   39.9620 H   0  0  0  0  0  0  0  0  0  0  0  0
   37.4700   21.8680   38.9800 H   0  0  0  0  0  0  0  0  0  0  0  0
   34.9730   22.8540   39.1760 C   0  0  0  0  0  0  0  0  0  0  0  0
   35.1340   21.5460   38.8020 F   0  0  0  0  0  0  0  0  0  0  0  0
   34.0020   22.9200   40.1560 F   0  0  0  0  0  0  0  0  0  0  0  0
   34.6180   23.6480   38.1230 F   0  0  0  0  0  0  0  0  0  0  0  0
   37.4240   30.0140   41.1200 C   0  0  0  0  0  0  0  0  0  0  0  0
   36.3890   30.8200   40.6590 C   0  0  0  0  0  0  0  0  0  0  0  0
   36.9260   31.9310   40.0370 C   0  0  0  0  0  0  0  0  0  0  0  0
   38.2820   31.7370   40.1580 C   0  0  0  0  0  0  0  0  0  0  0  0
   38.5410   30.6100   40.7940 O   0  0  0  0  0  0  0  0  0  0  0  0
   35.3020   30.6680   40.7340 H   0  0  0  0  0  0  0  0  0  0  0  0
   36.4170   32.7640   39.5640 H   0  0  0  0  0  0  0  0  0  0  0  0
   39.6140   33.7830   40.3560 C   0  0  0  0  0  3  0  0  0  0  0  0
   39.3550   32.6170   39.6720 C   0  0  0  0  0  0  0  0  0  0  0  0
   40.0830   32.2600   38.5380 C   0  0  0  0  0  0  0  0  0  0  0  0
   39.8760   31.3360   37.9980 H   0  0  0  0  0  0  0  0  0  0  0  0
   41.0900   33.1160   38.1060 C   0  0  0  0  0  0  0  0  0  0  0  0
   41.9610   33.0650   37.0680 N   0  0  0  0  0  0  0  0  0  0  0  0
   42.0390   32.3060   36.3400 H   0  0  0  0  0  0  0  0  0  0  0  0
   42.7220   34.1540   37.1120 N   0  0  0  0  0  0  0  0  0  0  0  0
   42.3710   34.9340   38.1710 C   0  0  0  0  0  0  0  0  0  0  0  0
   42.7880   35.8820   38.4910 H   0  0  0  0  0  0  0  0  0  0  0  0
   41.3210   34.2760   38.8160 C   0  0  0  0  0  0  0  0  0  0  0  0
   40.6190   34.6500   39.9350 C   0  0  0  0  0  3  0  0  0  0  0  0
  1  2  1  0  0  0  0
  2  3  2  0  0  0  0
  2  7  1  0  0  0  0
  3  4  1  0  0  0  0
  4  8  1  0  0  0  0
  4  5  2  0  0  0  0
  5  9  1  0  0  0  0
  6 10  1  0  0  0  0
  6  5  1  0  0  0  0
  7  6  2  0  0  0  0
 11 16  1  0  0  0  0
 12 13  1  0  0  0  0
 12 11  2  0  0  0  0
 13 14  2  0  0  0  0
 14 15  1  0  0  0  0
 15  3  1  0  0  0  0
 16 15  2  0  0  0  0
 17 11  1  0  0  0  0
 18 12  1  0  0  0  0
 19 13  1  0  0  0  0
 19 21  1  0  0  0  0
 20 19  1  0  0  0  0
 22 19  1  0  0  0  0
 23  7  1  0  0  0  0
 24 28  1  0  0  0  0
 24 23  2  0  0  0  0
 25 26  2  0  0  0  0
 25 24  1  0  0  0  0
 26 27  1  0  0  0  0
 27 23  1  0  0  0  0
 29 25  1  0  0  0  0
 31 26  1  0  0  0  0
 31 30  2  0  0  0  0
 32 31  1  0  0  0  0
 33 32  1  0  0  0  0
 34 32  2  0  0  0  0
 34 40  1  0  0  0  0
 35 37  1  0  0  0  0
 35 34  1  0  0  0  0
 36 35  1  0  0  0  0
 37 38  2  0  0  0  0
 38 39  1  0  0  0  0
 38 40  1  0  0  0  0
 40 41  2  0  0  0  0
 41 30  1  0  0  0  0
M  END
>  <minimizedAffinity>
-7.08996916

$$$$

 OpenBabel03252500163D

 41 45  0  0  0  0  0  0  0  0999 V2000
   36.4250   27.1150   39.1860 Cl  0  0  0  0  0  0  0  0  0  0  0  0
   37.2230   26.6440   40.6570 C   0  0  0  0  0  0  0  0  0  0  0  0
   37.4530   25.3270   40.9190 C   0  0  0  0  0  0  0  0  0  0  0  0
   38.0950   24.9130   42.0970 C   0  0  0  0  0  0  0  0  0  0  0  0
   38.4760   25.9230   42.9650 C   0  0  0  0  0  0  0  0  0  0  0  0
   38.2360   27.2480   42.6790 C   0  0  0  0  0  0  0  0  0  0  0  0
   37.6220   27.6150   41.5490 C   0  0  0  0  0  0  0  0  0  0  0  0
   38.2570   23.8780   42.2700 H   0  0  0  0  0  0  0  0  0  0  0  0
   38.9700   25.5820   43.8670 H   0  0  0  0  0  0  0  0  0  0  0  0
   38.5760   27.9630   43.4280 H   0  0  0  0  0  0  0  0  0  0  0  0
   37.4910   22.8890   38.1600 C   0  0  0  0  0  0  0  0  0  0  0  0
   36.1770   22.3810   38.1770 C   0  0  0  0  0  0  0  0  0  0  0  0
   35.2950   22.8870   39.1390 C   0  0  0  0  0  0  0  0  0  0  0  0
   35.7480   23.8370   40.0050 N   0  0  0  0  0  0  0  0  0  0  0  0
   37.0220   24.2990   39.9560 C   0  0  0  0  0  0  0  0  0  0  0  0
   37.8730   23.8210   39.0380 N   0  0  0  0  0  0  0  0  0  0  0  0
   38.1410   22.4740   37.4030 H   0  0  0  0  0  0  0  0  0  0  0  0
   35.7730   21.6340   37.5170 H   0  0  0  0  0  0  0  0  0  0  0  0
   33.8770   22.4280   39.2560 C   0  0  0  0  0  0  0  0  0  0  0  0
   33.8050   21.0620   39.1940 F   0  0  0  0  0  0  0  0  0  0  0  0
   33.3840   22.8460   40.4760 F   0  0  0  0  0  0  0  0  0  0  0  0
   33.1750   23.0240   38.2480 F   0  0  0  0  0  0  0  0  0  0  0  0
   37.3580   29.0200   41.2300 C   0  0  0  0  0  0  0  0  0  0  0  0
   36.0970   29.5650   41.0150 C   0  0  0  0  0  0  0  0  0  0  0  0
   36.2300   30.9130   40.7390 C   0  0  0  0  0  0  0  0  0  0  0  0
   37.5890   31.1160   40.8030 C   0  0  0  0  0  0  0  0  0  0  0  0
   38.2200   29.9930   41.0910 O   0  0  0  0  0  0  0  0  0  0  0  0
   35.1130   29.0750   41.0410 H   0  0  0  0  0  0  0  0  0  0  0  0
   35.4610   31.6470   40.5220 H   0  0  0  0  0  0  0  0  0  0  0  0
   37.6270   33.4530   40.0700 C   0  0  0  0  0  3  0  0  0  0  0  0
   38.3120   32.3780   40.5920 C   0  0  0  0  0  0  0  0  0  0  0  0
   39.6650   32.4660   40.9180 C   0  0  0  0  0  0  0  0  0  0  0  0
   40.2050   31.6140   41.3310 H   0  0  0  0  0  0  0  0  0  0  0  0
   40.3160   33.6750   40.7050 C   0  0  0  0  0  0  0  0  0  0  0  0
   41.5930   34.0830   40.9100 N   0  0  0  0  0  0  0  0  0  0  0  0
   42.3890   33.5110   41.3000 H   0  0  0  0  0  0  0  0  0  0  0  0
   41.6890   35.3540   40.5310 N   0  0  0  0  0  0  0  0  0  0  0  0
   40.4870   35.8020   40.0740 C   0  0  0  0  0  0  0  0  0  0  0  0
   40.2220   36.7820   39.6930 H   0  0  0  0  0  0  0  0  0  0  0  0
   39.5980   34.7300   40.1810 C   0  0  0  0  0  0  0  0  0  0  0  0
   38.2670   34.6710   39.8510 C   0  0  0  0  0  3  0  0  0  0  0  0
  1  2  1  0  0  0  0
  2  3  2  0  0  0  0
  2  7  1  0  0  0  0
  3  4  1  0  0  0  0
  4  8  1  0  0  0  0
  4  5  2  0  0  0  0
  5  9  1  0  0  0  0
  6  5  1  0  0  0  0
  6 10  1  0  0  0  0
  7  6  2  0  0  0  0
 11 12  2  0  0  0  0
 11 16  1  0  0  0  0
 12 13  1  0  0  0  0
 13 19  1  0  0  0  0
 13 14  2  0  0  0  0
 15 14  1  0  0  0  0
 15  3  1  0  0  0  0
 16 15  2  0  0  0  0
 17 11  1  0  0  0  0
 18 12  1  0  0  0  0
 19 21  1  0  0  0  0
 20 19  1  0  0  0  0
 22 19  1  0  0  0  0
 23  7  1  0  0  0  0
 24 28  1  0  0  0  0
 24 23  2  0  0  0  0
 25 26  2  0  0  0  0
 25 24  1  0  0  0  0
 26 27  1  0  0  0  0
 27 23  1  0  0  0  0
 29 25  1  0  0  0  0
 30 31  1  0  0  0  0
 31 26  1  0  0  0  0
 31 32  2  0  0  0  0
 32 33  1  0  0  0  0
 34 35  1  0  0  0  0
 34 32  1  0  0  0  0
 35 36  1  0  0  0  0
 37 35  1  0  0  0  0
 38 40  1  0  0  0  0
 38 37  2  0  0  0  0
 39 38  1  0  0  0  0
 40 34  2  0  0  0  0
 41 30  2  0  0  0  0
 41 40  1  0  0  0  0
M  END
>  <minimizedAffinity>
-7.07031536

$$$$

 OpenBabel03252500163D

 41 45  0  0  0  0  0  0  0  0999 V2000
   40.8280   30.4130   41.0030 Cl  0  0  0  0  0  0  0  0  0  0  0  0
   39.5620   31.5370   40.6070 C   0  0  0  0  0  0  0  0  0  0  0  0
   39.8700   32.7880   40.1670 C   0  0  0  0  0  0  0  0  0  0  0  0
   38.8710   33.7190   39.8400 C   0  0  0  0  0  0  0  0  0  0  0  0
   37.5650   33.2840   39.9910 C   0  0  0  0  0  0  0  0  0  0  0  0
   37.2760   32.0130   40.4370 C   0  0  0  0  0  0  0  0  0  0  0  0
   38.2470   31.1460   40.7420 C   0  0  0  0  0  0  0  0  0  0  0  0
   39.1470   34.6870   39.5000 H   0  0  0  0  0  0  0  0  0  0  0  0
   36.8110   34.0170   39.7330 H   0  0  0  0  0  0  0  0  0  0  0  0
   36.2170   31.7710   40.5210 H   0  0  0  0  0  0  0  0  0  0  0  0
   43.2560   33.2370   38.7930 C   0  0  0  0  0  0  0  0  0  0  0  0
   43.9080   33.9660   39.8070 C   0  0  0  0  0  0  0  0  0  0  0  0
   43.1710   34.2930   40.9510 C   0  0  0  0  0  0  0  0  0  0  0  0
   41.8710   33.8930   41.0270 N   0  0  0  0  0  0  0  0  0  0  0  0
   41.2800   33.1920   40.0270 C   0  0  0  0  0  0  0  0  0  0  0  0
   41.9770   32.8750   38.9280 N   0  0  0  0  0  0  0  0  0  0  0  0
   43.8580   33.0040   37.9260 H   0  0  0  0  0  0  0  0  0  0  0  0
   44.9300   34.3030   39.7950 H   0  0  0  0  0  0  0  0  0  0  0  0
   43.7520   35.0620   42.0940 C   0  0  0  0  0  0  0  0  0  0  0  0
   44.9200   35.6730   41.7210 F   0  0  0  0  0  0  0  0  0  0  0  0
   42.8430   36.0300   42.4740 F   0  0  0  0  0  0  0  0  0  0  0  0
   43.9400   34.1810   43.1200 F   0  0  0  0  0  0  0  0  0  0  0  0
   37.9560   29.7910   41.2170 C   0  0  0  0  0  0  0  0  0  0  0  0
   37.7680   29.4370   42.5490 C   0  0  0  0  0  0  0  0  0  0  0  0
   37.5150   28.0810   42.6230 C   0  0  0  0  0  0  0  0  0  0  0  0
   37.5640   27.6780   41.3080 C   0  0  0  0  0  0  0  0  0  0  0  0
   37.8230   28.6990   40.5130 O   0  0  0  0  0  0  0  0  0  0  0  0
   37.8000   30.0690   43.4490 H   0  0  0  0  0  0  0  0  0  0  0  0
   37.3230   27.4660   43.4960 H   0  0  0  0  0  0  0  0  0  0  0  0
   36.5100   26.1370   39.7220 C   0  0  0  0  0  3  0  0  0  0  0  0
   37.3660   26.3190   40.7850 C   0  0  0  0  0  0  0  0  0  0  0  0
   38.0390   25.2470   41.3690 C   0  0  0  0  0  0  0  0  0  0  0  0
   38.7160   25.3930   42.2110 H   0  0  0  0  0  0  0  0  0  0  0  0
   37.8280   23.9750   40.8490 C   0  0  0  0  0  0  0  0  0  0  0  0
   38.3140   22.7520   41.1770 N   0  0  0  0  0  0  0  0  0  0  0  0
   38.9970   22.5250   41.9480 H   0  0  0  0  0  0  0  0  0  0  0  0
   37.7810   21.8580   40.3500 N   0  0  0  0  0  0  0  0  0  0  0  0
   36.9410   22.4700   39.4700 C   0  0  0  0  0  0  0  0  0  0  0  0
   36.3510   22.0350   38.6720 H   0  0  0  0  0  0  0  0  0  0  0  0
   36.9640   23.8310   39.7840 C   0  0  0  0  0  0  0  0  0  0  0  0
   36.2880   24.8690   39.1900 C   0  0  0  0  0  3  0  0  0  0  0  0
  2  7  1  0  0  0  0
  2  1  1  0  0  0  0
  3  2  2  0  0  0  0
  4  5  2  0  0  0  0
  4  3  1  0  0  0  0
  5  6  1  0  0  0  0
  6 10  1  0  0  0  0
  6  7  2  0  0  0  0
  7 23  1  0  0  0  0
  8  4  1  0  0  0  0
  9  5  1  0  0  0  0
 11 16  2  0  0  0  0
 11 12  1  0  0  0  0
 12 13  2  0  0  0  0
 13 14  1  0  0  0  0
 13 19  1  0  0  0  0
 15  3  1  0  0  0  0
 15 14  2  0  0  0  0
 16 15  1  0  0  0  0
 17 11  1  0  0  0  0
 18 12  1  0  0  0  0
 19 21  1  0  0  0  0
 19 22  1  0  0  0  0
 20 19  1  0  0  0  0
 23 24  2  0  0  0  0
 24 25  1  0  0  0  0
 24 28  1  0  0  0  0
 25 29  1  0  0  0  0
 26 25  2  0  0  0  0
 27 23  1  0  0  0  0
 27 26  1  0  0  0  0
 30 31  1  0  0  0  0
 31 26  1  0  0  0  0
 31 32  2  0  0  0  0
 32 33  1  0  0  0  0
 34 35  1  0  0  0  0
 34 32  1  0  0  0  0
 35 36  1  0  0  0  0
 37 35  1  0  0  0  0
 38 40  1  0  0  0  0
 38 37  2  0  0  0  0
 39 38  1  0  0  0  0
 40 34  2  0  0  0  0
 41 30  2  0  0  0  0
 41 40  1  0  0  0  0
M  END
>  <minimizedAffinity>
-7.02751732

$$$$

 OpenBabel03252500163D

 41 45  0  0  0  0  0  0  0  0999 V2000
   36.2790   27.0790   38.5210 Cl  0  0  0  0  0  0  0  0  0  0  0  0
   36.6260   26.3570   40.0650 C   0  0  0  0  0  0  0  0  0  0  0  0
   36.6520   25.0020   40.1960 C   0  0  0  0  0  0  0  0  0  0  0  0
   36.9290   24.3880   41.4280 C   0  0  0  0  0  0  0  0  0  0  0  0
   37.1730   25.2450   42.4900 C   0  0  0  0  0  0  0  0  0  0  0  0
   37.1440   26.6120   42.3330 C   0  0  0  0  0  0  0  0  0  0  0  0
   36.8770   27.1710   41.1480 C   0  0  0  0  0  0  0  0  0  0  0  0
   36.9400   23.3280   41.4960 H   0  0  0  0  0  0  0  0  0  0  0  0
   37.3850   24.7500   43.4300 H   0  0  0  0  0  0  0  0  0  0  0  0
   37.3500   27.1950   43.2300 H   0  0  0  0  0  0  0  0  0  0  0  0
   37.1250   23.0580   37.1050 C   0  0  0  0  0  0  0  0  0  0  0  0
   35.8370   22.5410   36.8650 C   0  0  0  0  0  0  0  0  0  0  0  0
   34.8230   22.8690   37.7720 C   0  0  0  0  0  0  0  0  0  0  0  0
   35.1290   23.6660   38.8330 N   0  0  0  0  0  0  0  0  0  0  0  0
   36.3830   24.1450   39.0290 C   0  0  0  0  0  0  0  0  0  0  0  0
   37.3600   23.8360   38.1670 N   0  0  0  0  0  0  0  0  0  0  0  0
   37.8800   22.7830   36.3830 H   0  0  0  0  0  0  0  0  0  0  0  0
   35.5460   21.9090   36.0430 H   0  0  0  0  0  0  0  0  0  0  0  0
   33.4180   22.3810   37.6230 C   0  0  0  0  0  0  0  0  0  0  0  0
   33.3140   21.0750   38.0250 F   0  0  0  0  0  0  0  0  0  0  0  0
   32.6000   23.1590   38.4190 F   0  0  0  0  0  0  0  0  0  0  0  0
   33.0700   22.5420   36.3120 F   0  0  0  0  0  0  0  0  0  0  0  0
   36.8420   28.6240   40.9650 C   0  0  0  0  0  0  0  0  0  0  0  0
   35.6830   29.3860   40.8600 C   0  0  0  0  0  0  0  0  0  0  0  0
   36.0300   30.7130   40.6950 C   0  0  0  0  0  0  0  0  0  0  0  0
   37.4060   30.6840   40.7120 C   0  0  0  0  0  0  0  0  0  0  0  0
   37.8480   29.4520   40.8710 O   0  0  0  0  0  0  0  0  0  0  0  0
   34.6320   29.0630   40.8900 H   0  0  0  0  0  0  0  0  0  0  0  0
   35.3880   31.5800   40.5810 H   0  0  0  0  0  0  0  0  0  0  0  0
   39.6680   31.6210   40.7780 C   0  0  0  0  0  3  0  0  0  0  0  0
   38.3220   31.8260   40.5760 C   0  0  0  0  0  0  0  0  0  0  0  0
   37.8170   33.0840   40.2510 C   0  0  0  0  0  0  0  0  0  0  0  0
   36.7510   33.2440   40.0910 H   0  0  0  0  0  0  0  0  0  0  0  0
   38.7130   34.1410   40.1310 C   0  0  0  0  0  0  0  0  0  0  0  0
   38.5540   35.4540   39.8330 N   0  0  0  0  0  0  0  0  0  0  0  0
   37.6500   35.9540   39.6220 H   0  0  0  0  0  0  0  0  0  0  0  0
   39.7510   36.0320   39.8510 N   0  0  0  0  0  0  0  0  0  0  0  0
   40.7130   35.1170   40.1580 C   0  0  0  0  0  0  0  0  0  0  0  0
   41.7830   35.2550   40.2540 H   0  0  0  0  0  0  0  0  0  0  0  0
   40.0540   33.8980   40.3400 C   0  0  0  0  0  0  0  0  0  0  0  0
   40.5770   32.6700   40.6620 C   0  0  0  0  0  3  0  0  0  0  0  0
  1  2  1  0  0  0  0
  2  3  2  0  0  0  0
  2  7  1  0  0  0  0
  3  4  1  0  0  0  0
  4  8  1  0  0  0  0
  4  5  2  0  0  0  0
  5  9  1  0  0  0  0
  6  5  1  0  0  0  0
  6 10  1  0  0  0  0
  7  6  2  0  0  0  0
 11 16  1  0  0  0  0
 12 11  2  0  0  0  0
 12 13  1  0  0  0  0
 13 14  2  0  0  0  0
 14 15  1  0  0  0  0
 15  3  1  0  0  0  0
 16 15  2  0  0  0  0
 17 11  1  0  0  0  0
 18 12  1  0  0  0  0
 19 13  1  0  0  0  0
 19 20  1  0  0  0  0
 19 21  1  0  0  0  0
 22 19  1  0  0  0  0
 23  7  1  0  0  0  0
 24 28  1  0  0  0  0
 24 23  2  0  0  0  0
 25 26  2  0  0  0  0
 25 24  1  0  0  0  0
 26 27  1  0  0  0  0
 27 23  1  0  0  0  0
 29 25  1  0  0  0  0
 31 26  1  0  0  0  0
 31 30  2  0  0  0  0
 32 31  1  0  0  0  0
 33 32  1  0  0  0  0
 34 32  2  0  0  0  0
 34 40  1  0  0  0  0
 35 37  1  0  0  0  0
 35 34  1  0  0  0  0
 36 35  1  0  0  0  0
 37 38  2  0  0  0  0
 38 39  1  0  0  0  0
 38 40  1  0  0  0  0
 40 41  2  0  0  0  0
 41 30  1  0  0  0  0
M  END
>  <minimizedAffinity>
-6.88742161

$$$$

 OpenBabel03252500163D

 41 45  0  0  0  0  0  0  0  0999 V2000
   39.4870   29.5660   40.8430 Cl  0  0  0  0  0  0  0  0  0  0  0  0
   38.1960   29.7340   39.6910 C   0  0  0  0  0  0  0  0  0  0  0  0
   37.1550   28.8550   39.6970 C   0  0  0  0  0  0  0  0  0  0  0  0
   36.0970   28.9630   38.7810 C   0  0  0  0  0  0  0  0  0  0  0  0
   36.1800   30.0130   37.8810 C   0  0  0  0  0  0  0  0  0  0  0  0
   37.2410   30.8910   37.8940 C   0  0  0  0  0  0  0  0  0  0  0  0
   38.2360   30.7650   38.7780 C   0  0  0  0  0  0  0  0  0  0  0  0
   35.3010   28.2590   38.8130 H   0  0  0  0  0  0  0  0  0  0  0  0
   35.3530   30.0780   37.1840 H   0  0  0  0  0  0  0  0  0  0  0  0
   37.2100   31.6810   37.1450 H   0  0  0  0  0  0  0  0  0  0  0  0
   36.6660   26.9830   42.8300 C   0  0  0  0  0  0  0  0  0  0  0  0
   37.0830   25.6830   42.4810 C   0  0  0  0  0  0  0  0  0  0  0  0
   37.5260   25.4700   41.1710 C   0  0  0  0  0  0  0  0  0  0  0  0
   37.5340   26.5210   40.3050 N   0  0  0  0  0  0  0  0  0  0  0  0
   37.1240   27.7580   40.6800 C   0  0  0  0  0  0  0  0  0  0  0  0
   36.6980   27.9720   41.9310 N   0  0  0  0  0  0  0  0  0  0  0  0
   36.3310   27.1070   43.8490 H   0  0  0  0  0  0  0  0  0  0  0  0
   37.0960   24.8220   43.1280 H   0  0  0  0  0  0  0  0  0  0  0  0
   37.9930   24.1350   40.6840 C   0  0  0  0  0  0  0  0  0  0  0  0
   38.7430   23.5060   41.6420 F   0  0  0  0  0  0  0  0  0  0  0  0
   36.8830   23.3610   40.4060 F   0  0  0  0  0  0  0  0  0  0  0  0
   38.7020   24.3500   39.5370 F   0  0  0  0  0  0  0  0  0  0  0  0
   39.3720   31.6900   38.8050 C   0  0  0  0  0  0  0  0  0  0  0  0
   40.1290   32.0550   37.6970 C   0  0  0  0  0  0  0  0  0  0  0  0
   41.1120   32.9400   38.0960 C   0  0  0  0  0  0  0  0  0  0  0  0
   40.8950   33.0670   39.4480 C   0  0  0  0  0  0  0  0  0  0  0  0
   39.8720   32.3250   39.8310 O   0  0  0  0  0  0  0  0  0  0  0  0
   40.0270   31.7370   36.6490 H   0  0  0  0  0  0  0  0  0  0  0  0
   41.8790   33.4260   37.5010 H   0  0  0  0  0  0  0  0  0  0  0  0
   41.2910   35.2110   40.5650 C   0  0  0  0  0  3  0  0  0  0  0  0
   41.6530   33.8930   40.3990 C   0  0  0  0  0  0  0  0  0  0  0  0
   42.7150   33.3350   41.1080 C   0  0  0  0  0  0  0  0  0  0  0  0
   43.0000   32.2910   40.9750 H   0  0  0  0  0  0  0  0  0  0  0  0
   43.4100   34.1460   41.9990 C   0  0  0  0  0  0  0  0  0  0  0  0
   44.4640   33.9200   42.8210 N   0  0  0  0  0  0  0  0  0  0  0  0
   44.9910   33.0150   42.9460 H   0  0  0  0  0  0  0  0  0  0  0  0
   44.7370   35.0500   43.4650 N   0  0  0  0  0  0  0  0  0  0  0  0
   43.8760   36.0330   43.0820 C   0  0  0  0  0  0  0  0  0  0  0  0
   43.8240   37.0640   43.4110 H   0  0  0  0  0  0  0  0  0  0  0  0
   43.0190   35.4610   42.1380 C   0  0  0  0  0  0  0  0  0  0  0  0
   41.9770   36.0350   41.4530 C   0  0  0  0  0  3  0  0  0  0  0  0
  2  3  1  0  0  0  0
  2  1  1  0  0  0  0
  3 15  1  0  0  0  0
  4  8  1  0  0  0  0
  4  3  2  0  0  0  0
  5  6  2  0  0  0  0
  5  4  1  0  0  0  0
  6  7  1  0  0  0  0
  7 23  1  0  0  0  0
  7  2  2  0  0  0  0
  9  5  1  0  0  0  0
 10  6  1  0  0  0  0
 11 17  1  0  0  0  0
 12 11  1  0  0  0  0
 12 18  1  0  0  0  0
 13 12  2  0  0  0  0
 14 15  2  0  0  0  0
 14 13  1  0  0  0  0
 15 16  1  0  0  0  0
 16 11  2  0  0  0  0
 19 13  1  0  0  0  0
 19 20  1  0  0  0  0
 21 19  1  0  0  0  0
 22 19  1  0  0  0  0
 23 27  1  0  0  0  0
 24 25  1  0  0  0  0
 24 23  2  0  0  0  0
 25 26  2  0  0  0  0
 26 27  1  0  0  0  0
 26 31  1  0  0  0  0
 28 24  1  0  0  0  0
 29 25  1  0  0  0  0
 30 41  1  0  0  0  0
 31 30  2  0  0  0  0
 31 32  1  0  0  0  0
 32 34  2  0  0  0  0
 33 32  1  0  0  0  0
 34 40  1  0  0  0  0
 34 35  1  0  0  0  0
 35 36  1  0  0  0  0
 35 37  1  0  0  0  0
 38 39  1  0  0  0  0
 38 37  2  0  0  0  0
 40 38  1  0  0  0  0
 41 40  2  0  0  0  0
M  END
>  <minimizedAffinity>
-6.88165092

$$$$

 OpenBabel03252500163D

 41 45  0  0  0  0  0  0  0  0999 V2000
   36.4030   28.6380   38.5320 Cl  0  0  0  0  0  0  0  0  0  0  0  0
   35.9290   26.9700   38.4160 C   0  0  0  0  0  0  0  0  0  0  0  0
   36.4690   26.0450   39.2580 C   0  0  0  0  0  0  0  0  0  0  0  0
   36.1070   24.6900   39.1900 C   0  0  0  0  0  0  0  0  0  0  0  0
   35.1740   24.3600   38.2210 C   0  0  0  0  0  0  0  0  0  0  0  0
   34.6400   25.3120   37.3820 C   0  0  0  0  0  0  0  0  0  0  0  0
   35.0010   26.5960   37.4670 C   0  0  0  0  0  0  0  0  0  0  0  0
   36.5490   23.9950   39.8610 H   0  0  0  0  0  0  0  0  0  0  0  0
   34.9090   23.3100   38.1870 H   0  0  0  0  0  0  0  0  0  0  0  0
   33.9140   24.9480   36.6550 H   0  0  0  0  0  0  0  0  0  0  0  0
   39.6740   26.7650   40.9190 C   0  0  0  0  0  0  0  0  0  0  0  0
   39.2680   27.2410   42.1820 C   0  0  0  0  0  0  0  0  0  0  0  0
   37.8950   27.3060   42.4430 C   0  0  0  0  0  0  0  0  0  0  0  0
   37.0260   26.9100   41.4710 N   0  0  0  0  0  0  0  0  0  0  0  0
   37.4580   26.4580   40.2680 C   0  0  0  0  0  0  0  0  0  0  0  0
   38.7700   26.3920   40.0090 N   0  0  0  0  0  0  0  0  0  0  0  0
   40.7420   26.7290   40.7560 H   0  0  0  0  0  0  0  0  0  0  0  0
   39.9140   27.5640   42.9800 H   0  0  0  0  0  0  0  0  0  0  0  0
   37.3430   27.7930   43.7440 C   0  0  0  0  0  0  0  0  0  0  0  0
   37.3260   29.1620   43.7810 F   0  0  0  0  0  0  0  0  0  0  0  0
   36.0490   27.3270   43.8690 F   0  0  0  0  0  0  0  0  0  0  0  0
   38.1190   27.2630   44.7360 F   0  0  0  0  0  0  0  0  0  0  0  0
   34.4430   27.6200   36.5820 C   0  0  0  0  0  0  0  0  0  0  0  0
   35.0130   28.0340   35.3830 C   0  0  0  0  0  0  0  0  0  0  0  0
   34.2160   29.0110   34.8190 C   0  0  0  0  0  0  0  0  0  0  0  0
   33.1860   29.1400   35.7220 C   0  0  0  0  0  0  0  0  0  0  0  0
   33.3480   28.3150   36.7390 O   0  0  0  0  0  0  0  0  0  0  0  0
   35.9390   27.6920   34.8970 H   0  0  0  0  0  0  0  0  0  0  0  0
   34.3530   29.5560   33.8900 H   0  0  0  0  0  0  0  0  0  0  0  0
   31.2720   30.2610   36.7620 C   0  0  0  0  0  3  0  0  0  0  0  0
   32.0330   30.0480   35.6350 C   0  0  0  0  0  0  0  0  0  0  0  0
   31.7310   30.6700   34.4240 C   0  0  0  0  0  0  0  0  0  0  0  0
   32.3350   30.5000   33.5330 H   0  0  0  0  0  0  0  0  0  0  0  0
   30.6340   31.5220   34.3780 C   0  0  0  0  0  0  0  0  0  0  0  0
   30.0830   32.2640   33.3860 N   0  0  0  0  0  0  0  0  0  0  0  0
   30.4150   32.3360   32.3870 H   0  0  0  0  0  0  0  0  0  0  0  0
   29.0300   32.9050   33.8820 N   0  0  0  0  0  0  0  0  0  0  0  0
   28.8680   32.6000   35.1990 C   0  0  0  0  0  0  0  0  0  0  0  0
   28.1140   32.9490   35.8950 H   0  0  0  0  0  0  0  0  0  0  0  0
   29.8950   31.7110   35.5280 C   0  0  0  0  0  0  0  0  0  0  0  0
   30.1700   31.1110   36.7310 C   0  0  0  0  0  3  0  0  0  0  0  0
  2  1  1  0  0  0  0
  2  3  1  0  0  0  0
  3 15  1  0  0  0  0
  4  3  2  0  0  0  0
  4  8  1  0  0  0  0
  5  4  1  0  0  0  0
  6  7  1  0  0  0  0
  6  5  2  0  0  0  0
  7  2  2  0  0  0  0
  9  5  1  0  0  0  0
 10  6  1  0  0  0  0
 11 12  1  0  0  0  0
 12 13  2  0  0  0  0
 12 18  1  0  0  0  0
 13 19  1  0  0  0  0
 14 13  1  0  0  0  0
 15 14  2  0  0  0  0
 16 15  1  0  0  0  0
 16 11  2  0  0  0  0
 17 11  1  0  0  0  0
 19 20  1  0  0  0  0
 19 21  1  0  0  0  0
 19 22  1  0  0  0  0
 23 27  1  0  0  0  0
 23  7  1  0  0  0  0
 24 23  2  0  0  0  0
 25 24  1  0  0  0  0
 25 26  2  0  0  0  0
 26 27  1  0  0  0  0
 28 24  1  0  0  0  0
 29 25  1  0  0  0  0
 31 26  1  0  0  0  0
 31 30  2  0  0  0  0
 32 31  1  0  0  0  0
 33 32  1  0  0  0  0
 34 32  2  0  0  0  0
 34 40  1  0  0  0  0
 35 37  1  0  0  0  0
 35 34  1  0  0  0  0
 36 35  1  0  0  0  0
 37 38  2  0  0  0  0
 38 40  1  0  0  0  0
 38 39  1  0  0  0  0
 40 41  2  0  0  0  0
 41 30  1  0  0  0  0
M  END
>  <minimizedAffinity>
-6.82162809

$$$$

 OpenBabel03252500163D

 41 45  0  0  0  0  0  0  0  0999 V2000
   38.7060   28.6930   40.7830 Cl  0  0  0  0  0  0  0  0  0  0  0  0
   37.3520   28.6570   39.6930 C   0  0  0  0  0  0  0  0  0  0  0  0
   36.6350   27.5100   39.5310 C   0  0  0  0  0  0  0  0  0  0  0  0
   35.5360   27.4480   38.6590 C   0  0  0  0  0  0  0  0  0  0  0  0
   35.2330   28.6180   37.9820 C   0  0  0  0  0  0  0  0  0  0  0  0
   35.9710   29.7660   38.1630 C   0  0  0  0  0  0  0  0  0  0  0  0
   37.0130   29.7990   39.0000 C   0  0  0  0  0  0  0  0  0  0  0  0
   35.0000   26.5360   38.5550 H   0  0  0  0  0  0  0  0  0  0  0  0
   34.3820   28.5480   37.3160 H   0  0  0  0  0  0  0  0  0  0  0  0
   35.6480   30.6310   37.5840 H   0  0  0  0  0  0  0  0  0  0  0  0
   36.7330   24.0230   40.7100 C   0  0  0  0  0  0  0  0  0  0  0  0
   37.7360   24.0590   41.6990 C   0  0  0  0  0  0  0  0  0  0  0  0
   38.3650   25.2850   41.9450 C   0  0  0  0  0  0  0  0  0  0  0  0
   37.9790   26.3740   41.2230 N   0  0  0  0  0  0  0  0  0  0  0  0
   37.0080   26.2970   40.2790 C   0  0  0  0  0  0  0  0  0  0  0  0
   36.4000   25.1290   40.0360 N   0  0  0  0  0  0  0  0  0  0  0  0
   36.2710   23.0600   40.5500 H   0  0  0  0  0  0  0  0  0  0  0  0
   38.0750   23.2290   42.2940 H   0  0  0  0  0  0  0  0  0  0  0  0
   39.4420   25.4480   42.9680 C   0  0  0  0  0  0  0  0  0  0  0  0
   40.6180   25.8270   42.3760 F   0  0  0  0  0  0  0  0  0  0  0  0
   39.0530   26.4310   43.8570 F   0  0  0  0  0  0  0  0  0  0  0  0
   39.5600   24.2560   43.6250 F   0  0  0  0  0  0  0  0  0  0  0  0
   37.8080   31.0120   39.2030 C   0  0  0  0  0  0  0  0  0  0  0  0
   37.3150   32.2150   39.6970 C   0  0  0  0  0  0  0  0  0  0  0  0
   38.3440   33.1340   39.7530 C   0  0  0  0  0  0  0  0  0  0  0  0
   39.4260   32.4270   39.2830 C   0  0  0  0  0  0  0  0  0  0  0  0
   39.0810   31.1930   38.9710 O   0  0  0  0  0  0  0  0  0  0  0  0
   36.2910   32.4720   40.0110 H   0  0  0  0  0  0  0  0  0  0  0  0
   38.3230   34.1670   40.0850 H   0  0  0  0  0  0  0  0  0  0  0  0
   41.3170   33.7730   40.0660 C   0  0  0  0  0  3  0  0  0  0  0  0
   40.8050   32.9110   39.1230 C   0  0  0  0  0  0  0  0  0  0  0  0
   41.5620   32.4960   38.0280 C   0  0  0  0  0  0  0  0  0  0  0  0
   41.1540   31.8140   37.2820 H   0  0  0  0  0  0  0  0  0  0  0  0
   42.8620   32.9730   37.9080 C   0  0  0  0  0  0  0  0  0  0  0  0
   43.8370   32.7700   36.9890 N   0  0  0  0  0  0  0  0  0  0  0  0
   43.7830   32.1630   36.1280 H   0  0  0  0  0  0  0  0  0  0  0  0
   44.9040   33.4750   37.3520 N   0  0  0  0  0  0  0  0  0  0  0  0
   44.6530   34.1510   38.5070 C   0  0  0  0  0  0  0  0  0  0  0  0
   45.3030   34.8110   39.0690 H   0  0  0  0  0  0  0  0  0  0  0  0
   43.3420   33.8350   38.8730 C   0  0  0  0  0  0  0  0  0  0  0  0
   42.6180   34.2600   39.9590 C   0  0  0  0  0  3  0  0  0  0  0  0
  2  1  1  0  0  0  0
  3  2  1  0  0  0  0
  3 15  1  0  0  0  0
  4  3  2  0  0  0  0
  5  6  2  0  0  0  0
  5  4  1  0  0  0  0
  6  7  1  0  0  0  0
  7 23  1  0  0  0  0
  7  2  2  0  0  0  0
  8  4  1  0  0  0  0
  9  5  1  0  0  0  0
 10  6  1  0  0  0  0
 11 12  1  0  0  0  0
 12 13  2  0  0  0  0
 12 18  1  0  0  0  0
 13 19  1  0  0  0  0
 14 13  1  0  0  0  0
 15 14  2  0  0  0  0
 16 15  1  0  0  0  0
 16 11  2  0  0  0  0
 17 11  1  0  0  0  0
 19 22  1  0  0  0  0
 19 21  1  0  0  0  0
 20 19  1  0  0  0  0
 23 24  2  0  0  0  0
 24 25  1  0  0  0  0
 24 28  1  0  0  0  0
 25 29  1  0  0  0  0
 26 25  2  0  0  0  0
 27 23  1  0  0  0  0
 27 26  1  0  0  0  0
 31 26  1  0  0  0  0
 31 30  2  0  0  0  0
 32 31  1  0  0  0  0
 33 32  1  0  0  0  0
 34 32  2  0  0  0  0
 34 40  1  0  0  0  0
 35 37  1  0  0  0  0
 35 34  1  0  0  0  0
 36 35  1  0  0  0  0
 37 38  2  0  0  0  0
 38 40  1  0  0  0  0
 38 39  1  0  0  0  0
 40 41  2  0  0  0  0
 41 30  1  0  0  0  0
M  END
>  <minimizedAffinity>
-6.80681181

$$$$
