
 OpenBabel03242519253D

 43 47  0  0  0  0  0  0  0  0999 V2000
   47.8810   33.7200   42.8910 C   0  0  0  0  0  0  0  0  0  0  0  0
   48.5840   34.9150   42.7100 C   0  0  0  0  0  0  0  0  0  0  0  0
   49.9490   34.8950   42.3810 C   0  0  0  0  0  0  0  0  0  0  0  0
   50.5140   33.6440   42.2570 N   0  0  0  0  0  0  0  0  0  0  0  0
   49.7950   32.4960   42.4430 C   0  0  0  0  0  0  0  0  0  0  0  0
   48.5030   32.5460   42.7530 N   0  0  0  0  0  0  0  0  0  0  0  0
   48.2260   35.9320   42.7860 H   0  0  0  0  0  0  0  0  0  0  0  0
   50.5530   35.7730   42.2270 H   0  0  0  0  0  0  0  0  0  0  0  0
   46.4560   33.8760   43.2380 C   0  0  0  0  0  0  0  0  0  0  0  0
   45.7580   34.8780   42.4340 C   0  0  0  0  0  0  0  0  0  0  0  0
   45.3330   36.0860   43.1870 C   0  0  0  0  0  0  0  0  0  0  0  0
   44.5520   35.7700   44.4510 C   0  0  0  0  0  0  0  0  0  0  0  0
   44.9810   34.4970   45.1400 C   0  0  0  0  0  0  0  0  0  0  0  0
   46.4040   34.1550   44.7520 C   0  0  0  0  0  0  0  0  0  0  0  0
   46.0010   32.8470   43.1300 H   0  0  0  0  0  0  0  0  0  0  0  0
   44.8250   34.4340   41.9840 H   0  0  0  0  0  0  0  0  0  0  0  0
   46.4200   35.2160   41.6170 H   0  0  0  0  0  0  0  0  0  0  0  0
   46.0950   36.8460   43.3770 H   0  0  0  0  0  0  0  0  0  0  0  0
   44.5740   36.6070   42.5290 H   0  0  0  0  0  0  0  0  0  0  0  0
   44.7580   36.6010   45.1810 H   0  0  0  0  0  0  0  0  0  0  0  0
   43.4560   35.7850   44.3030 H   0  0  0  0  0  0  0  0  0  0  0  0
   44.8830   34.5350   46.2240 H   0  0  0  0  0  0  0  0  0  0  0  0
   44.3560   33.6810   44.6960 H   0  0  0  0  0  0  0  0  0  0  0  0
   47.0580   35.0590   44.8930 H   0  0  0  0  0  0  0  0  0  0  0  0
   46.7440   33.2770   45.3130 H   0  0  0  0  0  0  0  0  0  0  0  0
   50.5440   31.2560   42.2790 C   0  0  0  0  0  0  0  0  0  0  0  0
   51.5520   31.2570   41.3750 N   0  0  0  0  0  0  0  0  0  0  0  0
   52.1370   30.0480   41.3490 C   0  0  0  0  0  0  0  0  0  0  0  0
   51.4690   29.2790   42.2670 N   0  0  0  0  0  0  0  0  0  0  0  0
   50.5080   30.0180   42.8240 N   0  0  0  0  0  0  0  0  0  0  0  0
   52.9620   29.6680   40.7670 H   0  0  0  0  0  0  0  0  0  0  0  0
   52.2640   27.5620   43.8620 C   0  0  0  0  0  3  0  0  0  0  0  0
   51.6560   27.9230   42.6600 C   0  0  0  0  0  0  0  0  0  0  0  0
   51.2320   26.8860   41.8510 C   0  0  0  0  0  0  0  0  0  0  0  0
   50.7610   27.1610   40.9200 H   0  0  0  0  0  0  0  0  0  0  0  0
   51.3840   25.5520   42.1750 C   0  0  0  0  0  0  0  0  0  0  0  0
   51.0290   24.4360   41.5030 N   0  0  0  0  0  0  0  0  0  0  0  0
   50.5590   24.4470   40.5770 H   0  0  0  0  0  0  0  0  0  0  0  0
   51.3970   23.4000   42.2460 N   0  0  0  0  0  0  0  0  0  0  0  0
   51.9880   23.8340   43.3950 C   0  0  0  0  0  0  0  0  0  0  0  0
   52.3890   23.2430   44.1970 H   0  0  0  0  0  0  0  0  0  0  0  0
   51.9940   25.2110   43.3790 C   0  0  0  0  0  0  0  0  0  0  0  0
   52.4170   26.2320   44.1890 C   0  0  0  0  0  3  0  0  0  0  0  0
  1  9  1  0  0  0  0
  2  7  1  0  0  0  0
  2  1  2  0  0  0  0
  3  2  1  0  0  0  0
  4  3  2  0  0  0  0
  4  5  1  0  0  0  0
  5  6  2  0  0  0  0
  6  1  1  0  0  0  0
  8  3  1  0  0  0  0
  9 14  1  0  0  0  0
 10 11  1  0  0  0  0
 10  9  1  0  0  0  0
 11 18  1  0  0  0  0
 11 12  1  0  0  0  0
 12 13  1  0  0  0  0
 12 20  1  0  0  0  0
 13 22  1  0  0  0  0
 14 24  1  0  0  0  0
 14 13  1  0  0  0  0
 14 25  1  0  0  0  0
 15  9  1  0  0  0  0
 16 10  1  0  0  0  0
 17 10  1  0  0  0  0
 19 11  1  0  0  0  0
 21 12  1  0  0  0  0
 23 13  1  0  0  0  0
 26  5  1  0  0  0  0
 26 30  2  0  0  0  0
 27 26  1  0  0  0  0
 28 27  2  0  0  0  0
 28 29  1  0  0  0  0
 29 33  1  0  0  0  0
 29 30  1  0  0  0  0
 31 28  1  0  0  0  0
 32 43  1  0  0  0  0
 33 32  2  0  0  0  0
 34 36  2  0  0  0  0
 34 33  1  0  0  0  0
 35 34  1  0  0  0  0
 36 42  1  0  0  0  0
 37 36  1  0  0  0  0
 37 39  1  0  0  0  0
 38 37  1  0  0  0  0
 39 40  2  0  0  0  0
 40 41  1  0  0  0  0
 42 40  1  0  0  0  0
 42 43  2  0  0  0  0
M  END
>  <minimizedAffinity>
-4.14961672

>  <minimizedRMSD>
0.111885279

$$$$
