
 OpenBabel03252509083D

 44 48  0  0  0  0  0  0  0  0999 V2000
   47.7010   32.6430   39.1650 C   0  0  0  0  0  0  0  0  0  0  0  0
   46.3460   32.6570   39.0120 C   0  0  0  0  0  0  0  0  0  0  0  0
   45.5700   33.4700   39.8230 C   0  0  0  0  0  0  0  0  0  0  0  0
   46.1560   34.2610   40.7820 C   0  0  0  0  0  0  0  0  0  0  0  0
   47.5360   34.2760   40.9720 C   0  0  0  0  0  0  0  0  0  0  0  0
   48.2960   33.4480   40.1400 C   0  0  0  0  0  0  0  0  0  0  0  0
   44.5070   33.5030   39.7270 H   0  0  0  0  0  0  0  0  0  0  0  0
   45.6250   34.9050   41.4370 H   0  0  0  0  0  0  0  0  0  0  0  0
   48.0540   34.8590   41.6890 H   0  0  0  0  0  0  0  0  0  0  0  0
   49.3710   33.4410   40.2660 H   0  0  0  0  0  0  0  0  0  0  0  0
   43.5200   28.5000   37.8380 Cl  0  0  0  0  0  0  0  0  0  0  0  0
   44.3570   29.9830   37.4540 C   0  0  0  0  0  0  0  0  0  0  0  0
   44.9960   30.6990   38.4130 C   0  0  0  0  0  0  0  0  0  0  0  0
   45.6300   31.8660   38.0210 C   0  0  0  0  0  0  0  0  0  0  0  0
   45.6170   32.2920   36.7150 C   0  0  0  0  0  0  0  0  0  0  0  0
   44.9740   31.5670   35.7650 C   0  0  0  0  0  0  0  0  0  0  0  0
   44.3370   30.3970   36.1420 C   0  0  0  0  0  0  0  0  0  0  0  0
   46.1290   33.2140   36.4720 H   0  0  0  0  0  0  0  0  0  0  0  0
   44.9900   31.9360   34.7550 H   0  0  0  0  0  0  0  0  0  0  0  0
   43.8360   29.8430   35.3590 H   0  0  0  0  0  0  0  0  0  0  0  0
   43.9930   30.1030   42.0170 C   0  0  0  0  0  0  0  0  0  0  0  0
   43.9980   30.5700   40.6990 C   0  0  0  0  0  0  0  0  0  0  0  0
   44.9820   30.2210   39.7870 C   0  0  0  0  0  0  0  0  0  0  0  0
   45.9110   29.4040   40.2940 N   0  0  0  0  0  0  0  0  0  0  0  0
   45.9250   28.9470   41.5450 C   0  0  0  0  0  0  0  0  0  0  0  0
   44.9730   29.2940   42.4010 N   0  0  0  0  0  0  0  0  0  0  0  0
   43.1870   30.4220   42.6720 H   0  0  0  0  0  0  0  0  0  0  0  0
   43.1940   31.2400   40.3640 H   0  0  0  0  0  0  0  0  0  0  0  0
   46.7830   28.2900   41.7400 H   0  0  0  0  0  0  0  0  0  0  0  0
   48.6950   31.6590   38.2240 S   0  0  0  0  0  0  0  0  0  0  0  0
   50.1440   31.7270   38.7700 O   0  0  0  0  0  0  0  0  0  0  0  0
   48.2780   30.2190   38.5320 O   0  0  0  0  0  0  0  0  0  0  0  0
   48.4770   32.7900   35.6650 C   0  0  0  0  0  3  0  0  0  0  0  0
   49.0050   31.8670   36.5550 C   0  0  0  0  0  0  0  0  0  0  0  0
   49.8740   31.0070   35.8280 C   0  0  0  0  0  0  0  0  0  0  0  0
   50.3630   30.2150   36.4270 H   0  0  0  0  0  0  0  0  0  0  0  0
   50.1770   31.0350   34.4850 C   0  0  0  0  0  0  0  0  0  0  0  0
   50.9720   30.2780   33.7170 N   0  0  0  0  0  0  0  0  0  0  0  0
   51.5380   29.4720   34.0600 H   0  0  0  0  0  0  0  0  0  0  0  0
   50.8740   30.7680   32.5000 N   0  0  0  0  0  0  0  0  0  0  0  0
   50.0370   31.8160   32.4750 C   0  0  0  0  0  0  0  0  0  0  0  0
   49.7580   32.4240   31.6110 H   0  0  0  0  0  0  0  0  0  0  0  0
   49.5670   32.0090   33.7710 C   0  0  0  0  0  0  0  0  0  0  0  0
   48.6970   32.9240   34.3190 C   0  0  0  0  0  3  0  0  0  0  0  0
  1  6  1  0  0  0  0
  2  1  2  0  0  0  0
  2  3  1  0  0  0  0
  3  4  2  0  0  0  0
  4  5  1  0  0  0  0
  4  8  1  0  0  0  0
  5  9  1  0  0  0  0
  6 10  1  0  0  0  0
  6  5  2  0  0  0  0
  7  3  1  0  0  0  0
 12 11  1  0  0  0  0
 12 13  1  0  0  0  0
 13 23  1  0  0  0  0
 14 13  2  0  0  0  0
 14  2  1  0  0  0  0
 15 14  1  0  0  0  0
 16 17  1  0  0  0  0
 16 15  2  0  0  0  0
 17 12  2  0  0  0  0
 18 15  1  0  0  0  0
 19 16  1  0  0  0  0
 20 17  1  0  0  0  0
 21 26  1  0  0  0  0
 21 27  1  0  0  0  0
 22 21  2  0  0  0  0
 23 24  2  0  0  0  0
 23 22  1  0  0  0  0
 24 25  1  0  0  0  0
 25 29  1  0  0  0  0
 25 26  2  0  0  0  0
 28 22  1  0  0  0  0
 30 32  2  0  0  0  0
 30 31  2  0  0  0  0
 30  1  1  0  0  0  0
 33 34  1  0  0  0  0
 34 30  1  0  0  0  0
 35 36  1  0  0  0  0
 35 34  2  0  0  0  0
 37 35  1  0  0  0  0
 38 39  1  0  0  0  0
 38 37  1  0  0  0  0
 40 38  1  0  0  0  0
 41 40  2  0  0  0  0
 41 43  1  0  0  0  0
 42 41  1  0  0  0  0
 43 44  1  0  0  0  0
 43 37  2  0  0  0  0
 44 33  2  0  0  0  0
M  END
>  <minimizedAffinity>
-3.86312771

>  <minimizedRMSD>
7.03084469

$$$$
