
 OpenBabel03252508313D

 35 38  0  0  1  0  0  0  0  0999 V2000
   44.8300   34.6650   42.4630 N   0  0  0  0  0  0  0  0  0  0  0  0
   45.4790   33.7760   41.5770 C   0  0  1  0  0  0  0  0  0  0  0  0
   45.2440   34.0150   40.1310 C   0  0  0  0  0  0  0  0  0  0  0  0
   43.9450   34.4100   39.7830 N   0  0  0  0  0  0  0  0  0  0  0  0
   43.2460   35.2320   40.6880 C   0  0  0  0  0  0  0  0  0  0  0  0
   44.1320   35.7300   41.7990 C   0  0  0  0  0  0  0  0  0  0  0  0
   45.0940   32.7450   41.7970 H   0  0  0  0  0  0  0  0  0  0  0  0
   45.5360   33.1180   39.5470 H   0  0  0  0  0  0  0  0  0  0  0  0
   45.9470   34.8440   39.8240 H   0  0  0  0  0  0  0  0  0  0  0  0
   43.7350   34.4630   38.7900 H   0  0  0  0  0  0  0  0  0  0  0  0
   42.3630   34.7290   41.1740 H   0  0  0  0  0  0  0  0  0  0  0  0
   42.8200   36.1070   40.1620 H   0  0  0  0  0  0  0  0  0  0  0  0
   44.8790   36.4790   41.4270 H   0  0  0  0  0  0  0  0  0  0  0  0
   43.4530   36.2960   42.4690 H   0  0  0  0  0  0  0  0  0  0  0  0
   47.6070   34.9130   41.7470 C   0  0  0  0  0  3  0  0  0  0  0  0
   46.9700   33.6800   41.7870 C   0  0  0  0  0  0  0  0  0  0  0  0
   47.7550   32.5690   41.9920 C   0  0  0  0  0  0  0  0  0  0  0  0
   47.1630   31.6480   42.0080 H   0  0  0  0  0  0  0  0  0  0  0  0
   49.0960   32.6810   42.1470 C   0  0  0  0  0  0  0  0  0  0  0  0
   49.9670   31.6890   42.3520 N   0  0  0  0  0  0  0  0  0  0  0  0
   49.8370   30.6440   42.4360 H   0  0  0  0  0  0  0  0  0  0  0  0
   51.1660   32.2180   42.4480 N   0  0  0  0  0  0  0  0  0  0  0  0
   51.0800   33.5390   42.3100 C   0  0  0  0  0  0  0  0  0  0  0  0
   51.8770   34.2880   42.3360 H   0  0  0  0  0  0  0  0  0  0  0  0
   49.7550   33.8910   42.1110 C   0  0  0  0  0  0  0  0  0  0  0  0
   48.9940   35.0060   41.9090 C   0  0  0  0  0  3  0  0  0  0  0  0
   44.4450   35.4830   44.6740 C   0  0  0  0  0  0  0  0  0  0  0  0
   44.9260   34.4390   43.8550 C   0  0  0  0  0  0  0  0  0  0  0  0
   45.4440   33.3130   44.4650 C   0  0  0  0  0  0  0  0  0  0  0  0
   45.4880   33.2190   45.8200 N   0  0  0  0  0  0  0  0  0  0  0  0
   45.0160   34.2430   46.5940 C   0  0  0  0  0  0  0  0  0  0  0  0
   44.5050   35.3520   46.0230 N   0  0  0  0  0  0  0  0  0  0  0  0
   44.0120   36.4310   44.3990 H   0  0  0  0  0  0  0  0  0  0  0  0
   45.8030   32.5200   43.8430 H   0  0  0  0  0  0  0  0  0  0  0  0
   45.0600   34.1450   47.6780 H   0  0  0  0  0  0  0  0  0  0  0  0
  1 28  1  0  0  0  0
  2 16  1  0  0  0  0
  2  7  1  1  0  0  0
  2  1  1  0  0  0  0
  3  2  1  0  0  0  0
  4  3  1  0  0  0  0
  4  5  1  0  0  0  0
  5 11  1  0  0  0  0
  5  6  1  0  0  0  0
  6  1  1  0  0  0  0
  6 14  1  0  0  0  0
  8  3  1  0  0  0  0
  9  3  1  0  0  0  0
 10  4  1  0  0  0  0
 12  5  1  0  0  0  0
 13  6  1  0  0  0  0
 15 16  2  0  0  0  0
 15 26  1  0  0  0  0
 16 17  1  0  0  0  0
 17 18  1  0  0  0  0
 17 19  2  0  0  0  0
 19 20  1  0  0  0  0
 20 21  1  0  0  0  0
 20 22  1  0  0  0  0
 23 24  1  0  0  0  0
 23 22  2  0  0  0  0
 25 19  1  0  0  0  0
 25 23  1  0  0  0  0
 26 25  2  0  0  0  0
 27 32  1  0  0  0  0
 28 29  1  0  0  0  0
 28 27  2  0  0  0  0
 29 30  2  0  0  0  0
 30 31  1  0  0  0  0
 31 35  1  0  0  0  0
 32 31  2  0  0  0  0
 33 27  1  0  0  0  0
 34 29  1  0  0  0  0
M  END
>  <minimizedAffinity>
-5.2748189

>  <minimizedRMSD>
1.72516608

$$$$
