
 OpenBabel03242517563D

 46 49  0  0  0  0  0  0  0  0999 V2000
   45.4630   30.1690   47.2880 C   0  0  0  0  0  0  0  0  0  0  0  0
   46.0570   31.2320   46.6960 C   0  0  0  0  0  0  0  0  0  0  0  0
   46.2670   32.3670   47.4570 C   0  0  0  0  0  0  0  0  0  0  0  0
   45.9000   32.4590   48.7790 C   0  0  0  0  0  0  0  0  0  0  0  0
   45.2980   31.3690   49.3690 C   0  0  0  0  0  0  0  0  0  0  0  0
   45.0830   30.2260   48.6120 C   0  0  0  0  0  0  0  0  0  0  0  0
   46.7330   33.2600   47.0650 H   0  0  0  0  0  0  0  0  0  0  0  0
   46.0680   33.3520   49.3700 H   0  0  0  0  0  0  0  0  0  0  0  0
   44.9740   31.3360   50.3920 H   0  0  0  0  0  0  0  0  0  0  0  0
   44.6150   29.3020   48.9750 H   0  0  0  0  0  0  0  0  0  0  0  0
   45.1330   28.8060   46.2480 S   0  0  0  0  0  0  0  0  0  0  0  0
   44.1730   29.0830   45.1660 O   0  0  0  0  0  0  0  0  0  0  0  0
   44.4220   27.7700   47.1530 O   0  0  0  0  0  0  0  0  0  0  0  0
   47.3660   27.1830   46.6500 C   0  0  0  0  0  3  0  0  0  0  0  0
   46.5780   27.9330   45.7920 C   0  0  0  0  0  0  0  0  0  0  0  0
   47.0460   27.9320   44.4750 C   0  0  0  0  0  0  0  0  0  0  0  0
   46.4590   28.5090   43.7590 H   0  0  0  0  0  0  0  0  0  0  0  0
   48.1580   27.2820   44.0040 C   0  0  0  0  0  0  0  0  0  0  0  0
   48.6890   27.2170   42.7700 N   0  0  0  0  0  0  0  0  0  0  0  0
   48.3360   27.6710   41.8990 H   0  0  0  0  0  0  0  0  0  0  0  0
   49.7630   26.4550   42.8670 N   0  0  0  0  0  0  0  0  0  0  0  0
   49.9350   26.0260   44.1490 C   0  0  0  0  0  0  0  0  0  0  0  0
   50.7180   25.3900   44.5510 H   0  0  0  0  0  0  0  0  0  0  0  0
   48.8920   26.5600   44.9040 C   0  0  0  0  0  0  0  0  0  0  0  0
   48.4930   26.5130   46.2240 C   0  0  0  0  0  3  0  0  0  0  0  0
   46.5030   31.3380   45.3830 O   0  0  0  0  0  0  0  0  0  0  0  0
   45.3140   34.2520   43.7850 C   0  0  0  0  0  0  0  0  0  0  0  0
   46.4720   34.7480   43.1550 C   0  0  0  0  0  0  0  0  0  0  0  0
   47.6510   34.0670   43.2920 C   0  0  0  0  0  0  0  0  0  0  0  0
   47.6160   32.9480   44.0370 N   0  0  0  0  0  0  0  0  0  0  0  0
   46.5260   32.4850   44.6250 C   0  0  0  0  0  0  0  0  0  0  0  0
   45.3740   33.1360   44.5010 N   0  0  0  0  0  0  0  0  0  0  0  0
   44.3840   34.7930   43.6730 H   0  0  0  0  0  0  0  0  0  0  0  0
   46.3590   35.6390   42.5980 H   0  0  0  0  0  0  0  0  0  0  0  0
   48.9030   34.4990   42.6660 C   0  0  0  0  0  0  0  0  0  0  0  0
   49.5970   34.7790   43.4720 H   0  0  0  0  0  0  0  0  0  0  0  0
   49.3660   33.6660   42.1060 H   0  0  0  0  0  0  0  0  0  0  0  0
   48.7410   35.6540   41.7280 C   0  0  0  0  0  0  0  0  0  0  0  0
   49.7480   36.1800   41.7610 H   0  0  0  0  0  0  0  0  0  0  0  0
   48.0420   36.4280   42.0040 H   0  0  0  0  0  0  0  0  0  0  0  0
   48.6010   35.2650   40.3270 C   0  0  0  0  0  3  0  0  0  0  0  0
   48.0410   34.3470   39.5530 C   0  0  0  0  0  3  0  0  0  0  0  0
   48.2310   34.1930   38.0550 C   0  0  0  0  0  0  0  0  0  0  0  0
   48.9370   34.9640   37.7260 H   0  0  0  0  0  0  0  0  0  0  0  0
   47.2360   34.3300   37.6330 H   0  0  0  0  0  0  0  0  0  0  0  0
   48.5680   33.1560   37.8360 H   0  0  0  0  0  0  0  0  0  0  0  0
  1  6  1  0  0  0  0
  2  1  2  0  0  0  0
  2  3  1  0  0  0  0
  3  4  2  0  0  0  0
  4  5  1  0  0  0  0
  4  8  1  0  0  0  0
  5  9  1  0  0  0  0
  6 10  1  0  0  0  0
  6  5  2  0  0  0  0
  7  3  1  0  0  0  0
 11 13  2  0  0  0  0
 11  1  1  0  0  0  0
 12 11  2  0  0  0  0
 15 11  1  0  0  0  0
 15 14  2  0  0  0  0
 16 15  1  0  0  0  0
 17 16  1  0  0  0  0
 18 16  2  0  0  0  0
 18 24  1  0  0  0  0
 19 21  1  0  0  0  0
 19 18  1  0  0  0  0
 20 19  1  0  0  0  0
 21 22  2  0  0  0  0
 22 23  1  0  0  0  0
 22 24  1  0  0  0  0
 24 25  2  0  0  0  0
 25 14  1  0  0  0  0
 26  2  1  0  0  0  0
 27 32  1  0  0  0  0
 28 29  1  0  0  0  0
 28 27  2  0  0  0  0
 29 30  2  0  0  0  0
 30 31  1  0  0  0  0
 31 26  1  0  0  0  0
 32 31  2  0  0  0  0
 33 27  1  0  0  0  0
 34 28  1  0  0  0  0
 35 29  1  0  0  0  0
 35 36  1  0  0  0  0
 37 35  1  0  0  0  0
 38 39  1  0  0  0  0
 38 40  1  0  0  0  0
 38 35  1  0  0  0  0
 41 38  1  0  0  0  0
 42 41  2  0  0  0  0
 43 42  1  0  0  0  0
 44 43  1  0  0  0  0
 45 43  1  0  0  0  0
 46 43  1  0  0  0  0
M  END
>  <minimizedAffinity>
-5.55191612

>  <minimizedRMSD>
1.76000381

$$$$
