
 OpenBabel03252508033D

 45 49  0  0  1  0  0  0  0  0999 V2000
   42.1520   33.2710   41.2000 C   0  0  0  0  0  0  0  0  0  0  0  0
   42.8420   34.4360   41.3670 C   0  0  0  0  0  0  0  0  0  0  0  0
   42.1220   35.6440   41.2860 C   0  0  0  0  0  0  0  0  0  0  0  0
   40.7710   35.7040   41.0500 C   0  0  0  0  0  0  0  0  0  0  0  0
   40.0860   34.5310   40.8840 C   0  0  0  0  0  0  0  0  0  0  0  0
   40.7740   33.3550   40.9600 C   0  0  0  0  0  0  0  0  0  0  0  0
   42.5870   36.6170   41.3970 H   0  0  0  0  0  0  0  0  0  0  0  0
   40.2360   36.6300   40.9900 H   0  0  0  0  0  0  0  0  0  0  0  0
   39.0390   34.4810   40.6970 H   0  0  0  0  0  0  0  0  0  0  0  0
   40.2270   32.4070   40.8270 H   0  0  0  0  0  0  0  0  0  0  0  0
   42.8950   31.7610   41.3130 S   0  0  0  0  0  0  0  0  0  0  0  0
   42.1950   30.9840   40.1790 O   0  0  0  0  0  0  0  0  0  0  0  0
   42.5330   31.0770   42.6210 O   0  0  0  0  0  0  0  0  0  0  0  0
   44.6380   31.1400   39.4210 C   0  0  0  0  0  3  0  0  0  0  0  0
   44.3640   31.1800   40.8140 C   0  0  0  0  0  0  0  0  0  0  0  0
   45.4800   30.7300   41.5620 C   0  0  0  0  0  0  0  0  0  0  0  0
   45.2640   30.7770   42.6470 H   0  0  0  0  0  0  0  0  0  0  0  0
   46.7220   30.2830   41.1740 C   0  0  0  0  0  0  0  0  0  0  0  0
   47.8320   29.8420   41.7250 N   0  0  0  0  0  0  0  0  0  0  0  0
   47.9400   29.7550   42.7580 H   0  0  0  0  0  0  0  0  0  0  0  0
   48.6460   29.5830   40.7220 N   0  0  0  0  0  0  0  0  0  0  0  0
   48.0840   29.8480   39.5310 C   0  0  0  0  0  0  0  0  0  0  0  0
   48.5410   29.7200   38.5570 H   0  0  0  0  0  0  0  0  0  0  0  0
   46.8020   30.3150   39.8120 C   0  0  0  0  0  0  0  0  0  0  0  0
   45.8430   30.7130   38.9280 C   0  0  0  0  0  3  0  0  0  0  0  0
   44.2750   34.4770   41.6150 C   0  0  0  0  0  0  0  0  0  0  0  0
   45.1660   34.4730   40.7020 O   0  0  0  0  0  0  0  0  0  0  0  0
   44.6010   34.5270   43.0100 C   0  0  0  0  0  0  0  0  0  0  0  0
   44.2940   35.7570   43.6810 C   0  0  0  0  0  0  0  0  0  0  0  0
   44.5930   35.8170   45.0350 C   0  0  0  0  0  0  0  0  0  0  0  0
   45.1470   34.7280   45.6290 N   0  0  0  0  0  0  0  0  0  0  0  0
   45.4210   33.5730   44.9420 C   0  0  0  0  0  0  0  0  0  0  0  0
   45.1430   33.5220   43.6890 N   0  0  0  0  0  0  0  0  0  0  0  0
   43.8650   36.6490   43.2930 H   0  0  0  0  0  0  0  0  0  0  0  0
   44.4160   36.6710   45.6540 H   0  0  0  0  0  0  0  0  0  0  0  0
   46.0170   32.4430   45.6740 C   0  0  1  0  0  0  0  0  0  0  0  0
   46.9720   32.7290   46.8170 C   0  0  0  0  0  0  0  0  0  0  0  0
   45.5580   32.2960   47.0820 C   0  0  1  0  0  0  0  0  0  0  0  0
   46.2420   31.5280   45.1350 H   0  0  0  0  0  0  0  0  0  0  0  0
   47.2840   33.7810   46.9050 H   0  0  0  0  0  0  0  0  0  0  0  0
   47.7770   32.0150   47.0430 H   0  0  0  0  0  0  0  0  0  0  0  0
   45.4440   31.3110   47.5630 H   0  0  0  0  0  0  0  0  0  0  0  0
   44.7880   33.3630   47.7050 N   0  0  0  0  0  0  0  0  0  0  0  0
   44.8770   33.3490   48.7450 H   0  0  0  0  0  0  0  0  0  0  0  0
   43.7730   33.1080   47.5320 H   0  0  0  0  0  0  0  0  0  0  0  0
  1 11  1  0  0  0  0
  1  2  1  0  0  0  0
  2 26  1  0  0  0  0
  3  2  2  0  0  0  0
  3  7  1  0  0  0  0
  4  3  1  0  0  0  0
  5  6  1  0  0  0  0
  5  4  2  0  0  0  0
  6  1  2  0  0  0  0
  8  4  1  0  0  0  0
  9  5  1  0  0  0  0
 10  6  1  0  0  0  0
 11 13  2  0  0  0  0
 12 11  2  0  0  0  0
 14 15  1  0  0  0  0
 15 11  1  0  0  0  0
 15 16  2  0  0  0  0
 16 17  1  0  0  0  0
 18 16  1  0  0  0  0
 18 19  1  0  0  0  0
 19 20  1  0  0  0  0
 21 19  1  0  0  0  0
 22 24  1  0  0  0  0
 22 21  2  0  0  0  0
 23 22  1  0  0  0  0
 24 18  2  0  0  0  0
 25 14  2  0  0  0  0
 25 24  1  0  0  0  0
 26 28  1  0  0  0  0
 27 26  2  0  0  0  0
 28 29  2  0  0  0  0
 28 33  1  0  0  0  0
 29 30  1  0  0  0  0
 30 31  2  0  0  0  0
 30 35  1  0  0  0  0
 32 31  1  0  0  0  0
 32 36  1  0  0  0  0
 33 32  2  0  0  0  0
 34 29  1  0  0  0  0
 36 39  1  6  0  0  0
 36 37  1  0  0  0  0
 36 38  1  0  0  0  0
 37 40  1  0  0  0  0
 37 41  1  0  0  0  0
 37 38  1  0  0  0  0
 38 42  1  1  0  0  0
 38 43  1  0  0  0  0
 43 44  1  0  0  0  0
 45 43  1  0  0  0  0
M  END
>  <minimizedAffinity>
-5.83137751

>  <minimizedRMSD>
1.13809216

$$$$
