
 OpenBabel03242515103D

 39 42  0  0  0  0  0  0  0  0999 V2000
   47.1740   32.7330   44.1030 N   0  0  0  0  0  0  0  0  0  0  0  0
   47.1120   31.9340   44.8000 H   0  0  0  0  0  0  0  0  0  0  0  0
   45.6540   33.9020   45.6670 C   0  0  0  0  0  0  0  0  0  0  0  0
   44.7810   34.9450   45.7780 C   0  0  0  0  0  0  0  0  0  0  0  0
   44.4670   35.8240   44.7570 C   0  0  0  0  0  0  0  0  0  0  0  0
   45.0640   35.6460   43.5460 C   0  0  0  0  0  0  0  0  0  0  0  0
   45.9490   34.6140   43.3830 C   0  0  0  0  0  0  0  0  0  0  0  0
   46.2440   33.7470   44.4290 C   0  0  0  0  0  0  0  0  0  0  0  0
   44.2700   35.1390   46.7220 H   0  0  0  0  0  0  0  0  0  0  0  0
   43.7730   36.6470   44.8550 H   0  0  0  0  0  0  0  0  0  0  0  0
   44.8430   36.3160   42.7210 H   0  0  0  0  0  0  0  0  0  0  0  0
   46.4000   34.5160   42.3950 H   0  0  0  0  0  0  0  0  0  0  0  0
   47.5670   31.8150   47.9800 C   0  0  0  0  0  0  0  0  0  0  0  0
   46.5910   31.3200   48.8400 C   0  0  0  0  0  0  0  0  0  0  0  0
   45.2580   31.7030   48.6310 C   0  0  0  0  0  0  0  0  0  0  0  0
   44.9530   32.5440   47.5970 N   0  0  0  0  0  0  0  0  0  0  0  0
   45.9460   33.0120   46.7680 C   0  0  0  0  0  0  0  0  0  0  0  0
   47.2130   32.6310   46.9890 N   0  0  0  0  0  0  0  0  0  0  0  0
   48.5770   31.4840   48.1920 H   0  0  0  0  0  0  0  0  0  0  0  0
   46.7640   30.6570   49.6700 H   0  0  0  0  0  0  0  0  0  0  0  0
   44.4500   31.3550   49.2630 H   0  0  0  0  0  0  0  0  0  0  0  0
   48.3200   32.5720   42.8540 S   0  0  0  0  0  0  0  0  0  0  0  0
   47.5600   32.5280   41.5220 O   0  0  0  0  0  0  0  0  0  0  0  0
   47.9710   32.6520   40.6450 H   0  0  0  0  0  0  0  0  0  0  0  0
   49.3280   33.6600   42.7870 O   0  0  0  0  0  0  0  0  0  0  0  0
   49.1810   34.4850   42.2720 H   0  0  0  0  0  0  0  0  0  0  0  0
   48.9950   31.0390   43.0070 O   0  0  0  0  0  0  0  0  0  0  0  0
   50.3900   30.6120   41.1080 C   0  0  0  0  0  3  0  0  0  0  0  0
   50.1990   30.6830   42.4760 C   0  0  0  0  0  0  0  0  0  0  0  0
   51.2500   30.3860   43.3390 C   0  0  0  0  0  0  0  0  0  0  0  0
   51.0870   30.4450   44.4160 H   0  0  0  0  0  0  0  0  0  0  0  0
   52.4860   30.0190   42.8310 C   0  0  0  0  0  0  0  0  0  0  0  0
   53.6600   29.6830   43.3970 N   0  0  0  0  0  0  0  0  0  0  0  0
   53.7810   29.6590   44.4340 H   0  0  0  0  0  0  0  0  0  0  0  0
   54.5610   29.4100   42.4680 N   0  0  0  0  0  0  0  0  0  0  0  0
   54.0200   29.5540   41.2440 C   0  0  0  0  0  0  0  0  0  0  0  0
   54.4970   29.4040   40.2740 H   0  0  0  0  0  0  0  0  0  0  0  0
   52.7080   29.9390   41.4740 C   0  0  0  0  0  0  0  0  0  0  0  0
   51.6440   30.2410   40.6400 C   0  0  0  0  0  3  0  0  0  0  0  0
  1  8  1  0  0  0  0
  1  2  1  0  0  0  0
  3  4  1  0  0  0  0
  3 17  1  0  0  0  0
  4  9  1  0  0  0  0
  5 10  1  0  0  0  0
  5  4  2  0  0  0  0
  6  5  1  0  0  0  0
  7  6  2  0  0  0  0
  7  8  1  0  0  0  0
  8  3  2  0  0  0  0
 11  6  1  0  0  0  0
 12  7  1  0  0  0  0
 13 19  1  0  0  0  0
 13 14  1  0  0  0  0
 14 20  1  0  0  0  0
 15 14  2  0  0  0  0
 15 21  1  0  0  0  0
 16 15  1  0  0  0  0
 17 18  1  0  0  0  0
 17 16  2  0  0  0  0
 18 13  2  0  0  0  0
 22 27  1  0  0  0  0
 22  1  1  0  0  0  0
 23 22  1  0  0  0  0
 24 23  1  0  0  0  0
 25 22  1  0  0  0  0
 26 25  1  0  0  0  0
 28 29  1  0  0  0  0
 29 27  1  0  0  0  0
 29 30  2  0  0  0  0
 30 31  1  0  0  0  0
 32 30  1  0  0  0  0
 32 33  1  0  0  0  0
 33 34  1  0  0  0  0
 35 33  1  0  0  0  0
 36 38  1  0  0  0  0
 36 35  2  0  0  0  0
 37 36  1  0  0  0  0
 38 32  2  0  0  0  0
 39 28  2  0  0  0  0
 39 38  1  0  0  0  0
M  END
>  <minimizedAffinity>
-5.30734634

>  <minimizedRMSD>
0.707596898

$$$$
