
 OpenBabel03252500543D

 33 35  0  0  0  0  0  0  0  0999 V2000
   43.0990   34.9870   39.7190 O   0  0  0  0  0  0  0  0  0  0  0  0
   42.8250   33.6080   40.3140 P   0  0  1  0  0  0  0  0  0  0  0  0
   42.3400   33.8220   41.9370 O   0  0  0  0  0  0  0  0  0  0  0  0
   42.8090   33.2220   42.5360 H   0  0  0  0  0  0  0  0  0  0  0  0
   41.5480   32.8740   39.4800 O   0  0  0  0  0  0  0  0  0  0  0  0
   39.2310   33.0260   39.9230 C   0  0  0  0  0  0  0  0  0  0  0  0
   40.4120   32.3050   40.0390 C   0  0  0  0  0  0  0  0  0  0  0  0
   40.3680   31.0680   40.7070 C   0  0  0  0  0  0  0  0  0  0  0  0
   39.1640   30.6720   41.1900 N   0  0  0  0  0  0  0  0  0  0  0  0
   38.0360   31.3930   41.0600 C   0  0  0  0  0  0  0  0  0  0  0  0
   38.0850   32.5550   40.4320 N   0  0  0  0  0  0  0  0  0  0  0  0
   41.2830   30.5380   40.7820 H   0  0  0  0  0  0  0  0  0  0  0  0
   37.0850   31.0580   41.4530 H   0  0  0  0  0  0  0  0  0  0  0  0
   39.2090   34.3210   39.2400 C   0  0  0  0  0  0  0  0  0  0  0  0
   40.2570   34.7410   39.2110 H   0  0  0  0  0  0  0  0  0  0  0  0
   38.5600   35.0520   39.7320 H   0  0  0  0  0  0  0  0  0  0  0  0
   38.8070   34.1190   37.7930 C   0  0  0  0  0  0  0  0  0  0  0  0
   38.6450   35.1500   37.3650 H   0  0  0  0  0  0  0  0  0  0  0  0
   37.7940   33.6680   37.8290 H   0  0  0  0  0  0  0  0  0  0  0  0
   39.5510   33.5410   37.2440 H   0  0  0  0  0  0  0  0  0  0  0  0
   44.2380   32.6750   40.3340 O   0  0  0  0  0  0  0  0  0  0  0  0
   46.3170   33.2790   39.1700 C   0  0  0  0  0  3  0  0  0  0  0  0
   45.4840   33.3230   40.2700 C   0  0  0  0  0  0  0  0  0  0  0  0
   45.8870   34.0460   41.3890 C   0  0  0  0  0  0  0  0  0  0  0  0
   45.3260   34.1510   42.3000 H   0  0  0  0  0  0  0  0  0  0  0  0
   47.1050   34.7220   41.4220 C   0  0  0  0  0  0  0  0  0  0  0  0
   47.7470   35.4830   42.3360 N   0  0  0  0  0  0  0  0  0  0  0  0
   47.3750   35.7140   43.2970 H   0  0  0  0  0  0  0  0  0  0  0  0
   48.9140   35.8970   41.8480 N   0  0  0  0  0  0  0  0  0  0  0  0
   49.0600   35.4080   40.5860 C   0  0  0  0  0  0  0  0  0  0  0  0
   49.9190   35.5920   39.9570 H   0  0  0  0  0  0  0  0  0  0  0  0
   47.9460   34.6800   40.3120 C   0  0  0  0  0  0  0  0  0  0  0  0
   47.5230   33.9510   39.2050 C   0  0  0  0  0  3  0  0  0  0  0  0
  2  1  2  6  0  0  0
  2 21  1  0  0  0  0
  2  3  1  0  0  0  0
  3  4  1  0  0  0  0
  5  7  1  0  0  0  0
  5  2  1  0  0  0  0
  6  7  2  0  0  0  0
  6 11  1  0  0  0  0
  7  8  1  0  0  0  0
  8 12  1  0  0  0  0
  8  9  2  0  0  0  0
 10  9  1  0  0  0  0
 10 13  1  0  0  0  0
 11 10  2  0  0  0  0
 14 16  1  0  0  0  0
 14  6  1  0  0  0  0
 15 14  1  0  0  0  0
 17 19  1  0  0  0  0
 17 14  1  0  0  0  0
 18 17  1  0  0  0  0
 20 17  1  0  0  0  0
 22 33  2  0  0  0  0
 22 23  1  0  0  0  0
 23 21  1  0  0  0  0
 23 24  2  0  0  0  0
 24 26  1  0  0  0  0
 24 25  1  0  0  0  0
 26 27  1  0  0  0  0
 27 28  1  0  0  0  0
 29 27  1  0  0  0  0
 30 29  2  0  0  0  0
 31 30  1  0  0  0  0
 32 30  1  0  0  0  0
 32 26  2  0  0  0  0
 33 32  1  0  0  0  0
M  END
>  <minimizedAffinity>
-4.89350748

>  <minimizedRMSD>
7.7445178

$$$$
