
 OpenBabel03252508033D

 45 49  0  0  1  0  0  0  0  0999 V2000
   42.2100   33.2750   41.1830 C   0  0  0  0  0  0  0  0  0  0  0  0
   42.8560   34.4580   41.3920 C   0  0  0  0  0  0  0  0  0  0  0  0
   42.0920   35.6410   41.3510 C   0  0  0  0  0  0  0  0  0  0  0  0
   40.7410   35.6600   41.1140 C   0  0  0  0  0  0  0  0  0  0  0  0
   40.1000   34.4690   40.9050 C   0  0  0  0  0  0  0  0  0  0  0  0
   40.8300   33.3170   40.9420 C   0  0  0  0  0  0  0  0  0  0  0  0
   42.5200   36.6260   41.4980 H   0  0  0  0  0  0  0  0  0  0  0  0
   40.1710   36.5670   41.0850 H   0  0  0  0  0  0  0  0  0  0  0  0
   39.0550   34.3870   40.7140 H   0  0  0  0  0  0  0  0  0  0  0  0
   40.3190   32.3550   40.7740 H   0  0  0  0  0  0  0  0  0  0  0  0
   43.0080   31.7910   41.2440 S   0  0  0  0  0  0  0  0  0  0  0  0
   42.2630   30.9910   40.1570 O   0  0  0  0  0  0  0  0  0  0  0  0
   42.7540   31.0950   42.5720 O   0  0  0  0  0  0  0  0  0  0  0  0
   45.3540   30.6040   41.5370 C   0  0  0  0  0  3  0  0  0  0  0  0
   44.4600   31.2590   40.6510 C   0  0  0  0  0  0  0  0  0  0  0  0
   44.9910   31.3000   39.3370 C   0  0  0  0  0  0  0  0  0  0  0  0
   44.2830   31.8010   38.6480 H   0  0  0  0  0  0  0  0  0  0  0  0
   46.1730   30.8310   38.8110 C   0  0  0  0  0  0  0  0  0  0  0  0
   46.7950   30.7920   37.6540 N   0  0  0  0  0  0  0  0  0  0  0  0
   46.3810   31.2030   36.7900 H   0  0  0  0  0  0  0  0  0  0  0  0
   47.9330   30.1690   37.8850 N   0  0  0  0  0  0  0  0  0  0  0  0
   48.0590   29.8030   39.1700 C   0  0  0  0  0  0  0  0  0  0  0  0
   48.8970   29.2790   39.6160 H   0  0  0  0  0  0  0  0  0  0  0  0
   46.8960   30.2360   39.8030 C   0  0  0  0  0  0  0  0  0  0  0  0
   46.5580   30.0970   41.1170 C   0  0  0  0  0  3  0  0  0  0  0  0
   44.2870   34.5440   41.6450 C   0  0  0  0  0  0  0  0  0  0  0  0
   45.1790   34.5960   40.7350 O   0  0  0  0  0  0  0  0  0  0  0  0
   44.6070   34.5680   43.0420 C   0  0  0  0  0  0  0  0  0  0  0  0
   44.2940   35.7840   43.7360 C   0  0  0  0  0  0  0  0  0  0  0  0
   44.5880   35.8180   45.0920 C   0  0  0  0  0  0  0  0  0  0  0  0
   45.1450   34.7200   45.6660 N   0  0  0  0  0  0  0  0  0  0  0  0
   45.4260   33.5800   44.9580 C   0  0  0  0  0  0  0  0  0  0  0  0
   45.1510   33.5520   43.7030 N   0  0  0  0  0  0  0  0  0  0  0  0
   43.8620   36.6820   43.3640 H   0  0  0  0  0  0  0  0  0  0  0  0
   44.4060   36.6600   45.7260 H   0  0  0  0  0  0  0  0  0  0  0  0
   46.0230   32.4380   45.6700 C   0  0  1  0  0  0  0  0  0  0  0  0
   46.9810   32.7050   46.8150 C   0  0  0  0  0  0  0  0  0  0  0  0
   45.5680   32.2680   47.0770 C   0  0  1  0  0  0  0  0  0  0  0  0
   46.2470   31.5320   45.1150 H   0  0  0  0  0  0  0  0  0  0  0  0
   47.2930   33.7560   46.9200 H   0  0  0  0  0  0  0  0  0  0  0  0
   47.7870   31.9880   47.0270 H   0  0  0  0  0  0  0  0  0  0  0  0
   45.4550   31.2750   47.5420 H   0  0  0  0  0  0  0  0  0  0  0  0
   44.7990   33.3240   47.7180 N   0  0  0  0  0  0  0  0  0  0  0  0
   44.8910   33.2930   48.7580 H   0  0  0  0  0  0  0  0  0  0  0  0
   43.7840   33.0720   47.5430 H   0  0  0  0  0  0  0  0  0  0  0  0
  1 11  1  0  0  0  0
  1  2  1  0  0  0  0
  2 26  1  0  0  0  0
  3  2  2  0  0  0  0
  3  7  1  0  0  0  0
  4  3  1  0  0  0  0
  5  6  1  0  0  0  0
  5  4  2  0  0  0  0
  6  1  2  0  0  0  0
  8  4  1  0  0  0  0
  9  5  1  0  0  0  0
 10  6  1  0  0  0  0
 11 13  2  0  0  0  0
 12 11  2  0  0  0  0
 15 11  1  0  0  0  0
 15 14  2  0  0  0  0
 16 15  1  0  0  0  0
 17 16  1  0  0  0  0
 18 16  2  0  0  0  0
 18 24  1  0  0  0  0
 19 21  1  0  0  0  0
 19 18  1  0  0  0  0
 20 19  1  0  0  0  0
 21 22  2  0  0  0  0
 22 23  1  0  0  0  0
 22 24  1  0  0  0  0
 24 25  2  0  0  0  0
 25 14  1  0  0  0  0
 26 28  1  0  0  0  0
 27 26  2  0  0  0  0
 28 33  2  0  0  0  0
 28 29  1  0  0  0  0
 29 30  2  0  0  0  0
 30 31  1  0  0  0  0
 30 35  1  0  0  0  0
 32 31  2  0  0  0  0
 32 36  1  0  0  0  0
 33 32  1  0  0  0  0
 34 29  1  0  0  0  0
 36 39  1  6  0  0  0
 36 37  1  0  0  0  0
 36 38  1  0  0  0  0
 37 40  1  0  0  0  0
 37 41  1  0  0  0  0
 37 38  1  0  0  0  0
 38 42  1  1  0  0  0
 38 43  1  0  0  0  0
 43 44  1  0  0  0  0
 45 43  1  0  0  0  0
M  END
>  <minimizedAffinity>
-5.84761333

>  <minimizedRMSD>
1.31441462

$$$$
