
 OpenBabel03242517563D

 46 49  0  0  0  0  0  0  0  0999 V2000
   45.4670   30.1740   47.2960 C   0  0  0  0  0  0  0  0  0  0  0  0
   46.0610   31.2380   46.7070 C   0  0  0  0  0  0  0  0  0  0  0  0
   46.2590   32.3760   47.4660 C   0  0  0  0  0  0  0  0  0  0  0  0
   45.8790   32.4710   48.7840 C   0  0  0  0  0  0  0  0  0  0  0  0
   45.2760   31.3800   49.3710 C   0  0  0  0  0  0  0  0  0  0  0  0
   45.0740   30.2340   48.6160 C   0  0  0  0  0  0  0  0  0  0  0  0
   46.7250   33.2700   47.0760 H   0  0  0  0  0  0  0  0  0  0  0  0
   46.0370   33.3660   49.3740 H   0  0  0  0  0  0  0  0  0  0  0  0
   44.9430   31.3490   50.3920 H   0  0  0  0  0  0  0  0  0  0  0  0
   44.6060   29.3090   48.9780 H   0  0  0  0  0  0  0  0  0  0  0  0
   45.1520   28.8060   46.2570 S   0  0  0  0  0  0  0  0  0  0  0  0
   44.2940   29.1060   45.0990 O   0  0  0  0  0  0  0  0  0  0  0  0
   44.3240   27.8250   47.1220 O   0  0  0  0  0  0  0  0  0  0  0  0
   46.7830   27.0600   44.8170 C   0  0  0  0  0  3  0  0  0  0  0  0
   46.5850   27.8570   45.9320 C   0  0  0  0  0  0  0  0  0  0  0  0
   47.6700   27.8490   46.8130 C   0  0  0  0  0  0  0  0  0  0  0  0
   47.5640   28.4620   47.7090 H   0  0  0  0  0  0  0  0  0  0  0  0
   48.8410   27.1520   46.6590 C   0  0  0  0  0  0  0  0  0  0  0  0
   49.9350   27.0750   47.4380 N   0  0  0  0  0  0  0  0  0  0  0  0
   50.1050   27.5550   48.3480 H   0  0  0  0  0  0  0  0  0  0  0  0
   50.7730   26.2620   46.8220 N   0  0  0  0  0  0  0  0  0  0  0  0
   50.2360   25.8100   45.6550 C   0  0  0  0  0  0  0  0  0  0  0  0
   50.6730   25.1320   44.9260 H   0  0  0  0  0  0  0  0  0  0  0  0
   48.9730   26.3830   45.5340 C   0  0  0  0  0  0  0  0  0  0  0  0
   47.9430   26.3410   44.6170 C   0  0  0  0  0  3  0  0  0  0  0  0
   46.5200   31.3420   45.3980 O   0  0  0  0  0  0  0  0  0  0  0  0
   45.3190   34.2420   43.7840 C   0  0  0  0  0  0  0  0  0  0  0  0
   46.4750   34.7410   43.1520 C   0  0  0  0  0  0  0  0  0  0  0  0
   47.6570   34.0650   43.2930 C   0  0  0  0  0  0  0  0  0  0  0  0
   47.6260   32.9490   44.0430 N   0  0  0  0  0  0  0  0  0  0  0  0
   46.5390   32.4850   44.6340 C   0  0  0  0  0  0  0  0  0  0  0  0
   45.3840   33.1300   44.5060 N   0  0  0  0  0  0  0  0  0  0  0  0
   44.3870   34.7790   43.6690 H   0  0  0  0  0  0  0  0  0  0  0  0
   46.3590   35.6280   42.5910 H   0  0  0  0  0  0  0  0  0  0  0  0
   48.9070   34.4990   42.6660 C   0  0  0  0  0  0  0  0  0  0  0  0
   49.6020   34.7800   43.4710 H   0  0  0  0  0  0  0  0  0  0  0  0
   49.3710   33.6660   42.1050 H   0  0  0  0  0  0  0  0  0  0  0  0
   48.7420   35.6540   41.7270 C   0  0  0  0  0  0  0  0  0  0  0  0
   49.7480   36.1820   41.7600 H   0  0  0  0  0  0  0  0  0  0  0  0
   48.0410   36.4250   42.0030 H   0  0  0  0  0  0  0  0  0  0  0  0
   48.6030   35.2640   40.3260 C   0  0  0  0  0  3  0  0  0  0  0  0
   48.0400   34.3480   39.5510 C   0  0  0  0  0  3  0  0  0  0  0  0
   48.2330   34.1920   38.0550 C   0  0  0  0  0  0  0  0  0  0  0  0
   48.9430   34.9590   37.7260 H   0  0  0  0  0  0  0  0  0  0  0  0
   47.2390   34.3340   37.6300 H   0  0  0  0  0  0  0  0  0  0  0  0
   48.5640   33.1540   37.8370 H   0  0  0  0  0  0  0  0  0  0  0  0
  1  6  1  0  0  0  0
  2  1  2  0  0  0  0
  2  3  1  0  0  0  0
  3  4  2  0  0  0  0
  4  5  1  0  0  0  0
  4  8  1  0  0  0  0
  5  9  1  0  0  0  0
  6 10  1  0  0  0  0
  6  5  2  0  0  0  0
  7  3  1  0  0  0  0
 11 13  2  0  0  0  0
 11  1  1  0  0  0  0
 12 11  2  0  0  0  0
 14 15  1  0  0  0  0
 15 11  1  0  0  0  0
 15 16  2  0  0  0  0
 16 17  1  0  0  0  0
 18 16  1  0  0  0  0
 18 19  1  0  0  0  0
 19 20  1  0  0  0  0
 21 19  1  0  0  0  0
 22 21  2  0  0  0  0
 23 22  1  0  0  0  0
 24 22  1  0  0  0  0
 24 18  2  0  0  0  0
 25 14  2  0  0  0  0
 25 24  1  0  0  0  0
 26  2  1  0  0  0  0
 27 32  1  0  0  0  0
 28 29  1  0  0  0  0
 28 27  2  0  0  0  0
 29 30  2  0  0  0  0
 30 31  1  0  0  0  0
 31 26  1  0  0  0  0
 32 31  2  0  0  0  0
 33 27  1  0  0  0  0
 34 28  1  0  0  0  0
 35 29  1  0  0  0  0
 35 36  1  0  0  0  0
 37 35  1  0  0  0  0
 38 39  1  0  0  0  0
 38 40  1  0  0  0  0
 38 35  1  0  0  0  0
 41 38  1  0  0  0  0
 42 41  2  0  0  0  0
 43 42  1  0  0  0  0
 44 43  1  0  0  0  0
 45 43  1  0  0  0  0
 46 43  1  0  0  0  0
M  END
>  <minimizedAffinity>
-5.63405704

>  <minimizedRMSD>
2.23951054

$$$$
