
 OpenBabel03242523113D

 49 54  0  0  1  0  0  0  0  0999 V2000
   46.3300   31.9190   45.4030 C   0  0  0  0  0  0  0  0  0  0  0  0
   46.7430   32.7430   44.3330 C   0  0  0  0  0  0  0  0  0  0  0  0
   47.7920   32.1780   43.6530 C   0  0  0  0  0  0  0  0  0  0  0  0
   48.3900   30.9900   43.9330 C   0  0  0  0  0  0  0  0  0  0  0  0
   47.9220   30.2420   45.0100 C   0  0  0  0  0  0  0  0  0  0  0  0
   46.8770   30.7150   45.7520 C   0  0  0  0  0  0  0  0  0  0  0  0
   48.7290   29.1150   45.0330 O   0  0  0  0  0  0  0  0  0  0  0  0
   49.6430   29.1420   43.9540 C   0  0  2  0  0  0  0  0  0  0  0  0
   49.4440   30.3800   43.2760 O   0  0  0  0  0  0  0  0  0  0  0  0
   45.5090   32.0730   46.1350 H   0  0  0  0  0  0  0  0  0  0  0  0
   48.1160   32.7710   42.8560 H   0  0  0  0  0  0  0  0  0  0  0  0
   46.6100   30.0630   46.5380 H   0  0  0  0  0  0  0  0  0  0  0  0
   50.7010   29.1450   44.2610 H   0  0  0  0  0  0  0  0  0  0  0  0
   45.0990   36.0100   43.5150 C   0  0  0  0  0  0  0  0  0  0  0  0
   45.8960   34.8890   43.2730 C   0  0  0  0  0  0  0  0  0  0  0  0
   46.0410   33.9490   44.2460 C   0  0  0  0  0  0  0  0  0  0  0  0
   45.3850   34.1660   45.4270 N   0  0  0  0  0  0  0  0  0  0  0  0
   44.6220   35.2400   45.6570 C   0  0  0  0  0  0  0  0  0  0  0  0
   44.4830   36.1440   44.7160 N   0  0  0  0  0  0  0  0  0  0  0  0
   44.9790   36.7610   42.7460 H   0  0  0  0  0  0  0  0  0  0  0  0
   44.0780   35.4710   46.5610 H   0  0  0  0  0  0  0  0  0  0  0  0
   46.5300   34.8140   42.0340 N   0  0  0  0  0  0  0  0  0  0  0  0
   47.8520   35.3120   41.8330 C   0  0  0  0  0  0  0  0  0  0  0  0
   48.4550   35.0030   40.4980 C   0  0  0  0  0  0  0  0  0  0  0  0
   48.1760   33.7200   40.0020 N   0  0  0  0  0  0  0  0  0  0  0  0
   46.8860   33.2640   40.1630 C   0  0  0  0  0  0  0  0  0  0  0  0
   45.9890   34.2690   40.8530 C   0  0  0  0  0  0  0  0  0  0  0  0
   48.5670   34.9900   42.6320 H   0  0  0  0  0  0  0  0  0  0  0  0
   47.7880   36.4170   41.9290 H   0  0  0  0  0  0  0  0  0  0  0  0
   48.1610   35.7730   39.7580 H   0  0  0  0  0  0  0  0  0  0  0  0
   49.5710   35.1050   40.5960 H   0  0  0  0  0  0  0  0  0  0  0  0
   48.5530   33.6030   39.0560 H   0  0  0  0  0  0  0  0  0  0  0  0
   46.8180   32.2560   40.6490 H   0  0  0  0  0  0  0  0  0  0  0  0
   46.4260   33.0880   39.1470 H   0  0  0  0  0  0  0  0  0  0  0  0
   45.7780   35.1000   40.1260 H   0  0  0  0  0  0  0  0  0  0  0  0
   45.0090   33.7890   41.0500 H   0  0  0  0  0  0  0  0  0  0  0  0
   49.2800   28.0900   43.0950 O   0  0  0  0  0  0  0  0  0  0  0  0
   50.0730   25.9770   42.3620 C   0  0  0  0  0  3  0  0  0  0  0  0
   50.0840   27.3720   42.2570 C   0  0  0  0  0  0  0  0  0  0  0  0
   50.9130   27.9290   41.3050 C   0  0  0  0  0  0  0  0  0  0  0  0
   50.9490   28.9940   41.1930 H   0  0  0  0  0  0  0  0  0  0  0  0
   51.7060   27.1610   40.4820 C   0  0  0  0  0  0  0  0  0  0  0  0
   52.5780   27.4820   39.4990 N   0  0  0  0  0  0  0  0  0  0  0  0
   52.8350   28.4280   39.1520 H   0  0  0  0  0  0  0  0  0  0  0  0
   53.1050   26.3710   38.9920 N   0  0  0  0  0  0  0  0  0  0  0  0
   52.5970   25.3120   39.6230 C   0  0  0  0  0  0  0  0  0  0  0  0
   52.8020   24.2520   39.4690 H   0  0  0  0  0  0  0  0  0  0  0  0
   51.7170   25.7850   40.5620 C   0  0  0  0  0  0  0  0  0  0  0  0
   50.8770   25.2250   41.5260 C   0  0  0  0  0  3  0  0  0  0  0  0
  1  6  1  0  0  0  0
  1 10  1  0  0  0  0
  2  1  2  0  0  0  0
  3  4  2  0  0  0  0
  3  2  1  0  0  0  0
  4  5  1  0  0  0  0
  5  7  1  0  0  0  0
  5  6  2  0  0  0  0
  6 12  1  0  0  0  0
  8 13  1  1  0  0  0
  8  7  1  0  0  0  0
  9  4  1  0  0  0  0
  9  8  1  0  0  0  0
 11  3  1  0  0  0  0
 14 19  1  0  0  0  0
 15 14  2  0  0  0  0
 15 16  1  0  0  0  0
 16  2  1  0  0  0  0
 16 17  2  0  0  0  0
 17 18  1  0  0  0  0
 18 21  1  0  0  0  0
 19 18  2  0  0  0  0
 20 14  1  0  0  0  0
 22 15  1  0  0  0  0
 23 29  1  0  0  0  0
 23 22  1  0  0  0  0
 23 28  1  0  0  0  0
 24 31  1  0  0  0  0
 24 23  1  0  0  0  0
 25 26  1  0  0  0  0
 25 24  1  0  0  0  0
 26 33  1  0  0  0  0
 26 27  1  0  0  0  0
 27 36  1  0  0  0  0
 27 22  1  0  0  0  0
 30 24  1  0  0  0  0
 32 25  1  0  0  0  0
 34 26  1  0  0  0  0
 35 27  1  0  0  0  0
 37  8  1  0  0  0  0
 39 38  1  0  0  0  0
 39 37  1  0  0  0  0
 40 39  2  0  0  0  0
 41 40  1  0  0  0  0
 42 48  2  0  0  0  0
 42 40  1  0  0  0  0
 43 42  1  0  0  0  0
 44 43  1  0  0  0  0
 45 43  1  0  0  0  0
 45 46  2  0  0  0  0
 46 48  1  0  0  0  0
 47 46  1  0  0  0  0
 48 49  1  0  0  0  0
 49 38  2  0  0  0  0
M  END
>  <minimizedAffinity>
-4.69540262

>  <minimizedRMSD>
0.854602873

$$$$
