
 OpenBabel03242515103D

 39 42  0  0  0  0  0  0  0  0999 V2000
   47.2900   33.1220   43.7570 N   0  0  0  0  0  0  0  0  0  0  0  0
   47.1030   32.1990   44.2460 H   0  0  0  0  0  0  0  0  0  0  0  0
   45.6690   34.1250   45.3360 C   0  0  0  0  0  0  0  0  0  0  0  0
   44.7530   35.1260   45.4830 C   0  0  0  0  0  0  0  0  0  0  0  0
   44.4440   36.0620   44.5130 C   0  0  0  0  0  0  0  0  0  0  0  0
   45.0920   35.9910   43.3170 C   0  0  0  0  0  0  0  0  0  0  0  0
   46.0200   35.0040   43.1190 C   0  0  0  0  0  0  0  0  0  0  0  0
   46.3100   34.0780   44.1150 C   0  0  0  0  0  0  0  0  0  0  0  0
   44.2010   35.2360   46.4180 H   0  0  0  0  0  0  0  0  0  0  0  0
   43.7160   36.8520   44.6400 H   0  0  0  0  0  0  0  0  0  0  0  0
   44.8750   36.7080   42.5320 H   0  0  0  0  0  0  0  0  0  0  0  0
   46.5110   34.9920   42.1450 H   0  0  0  0  0  0  0  0  0  0  0  0
   47.3850   31.5020   47.2170 C   0  0  0  0  0  0  0  0  0  0  0  0
   46.5740   31.3310   48.3350 C   0  0  0  0  0  0  0  0  0  0  0  0
   45.4210   32.1230   48.4520 C   0  0  0  0  0  0  0  0  0  0  0  0
   45.1270   33.0340   47.4740 N   0  0  0  0  0  0  0  0  0  0  0  0
   45.9550   33.1710   46.3840 C   0  0  0  0  0  0  0  0  0  0  0  0
   47.0500   32.4020   46.2960 N   0  0  0  0  0  0  0  0  0  0  0  0
   48.2590   30.8620   47.1820 H   0  0  0  0  0  0  0  0  0  0  0  0
   46.7480   30.6350   49.1360 H   0  0  0  0  0  0  0  0  0  0  0  0
   44.7460   32.0430   49.2950 H   0  0  0  0  0  0  0  0  0  0  0  0
   48.6490   33.1860   42.7330 S   0  0  0  0  0  0  0  0  0  0  0  0
   48.1690   33.6260   41.3440 O   0  0  0  0  0  0  0  0  0  0  0  0
   48.7540   33.9460   40.6300 H   0  0  0  0  0  0  0  0  0  0  0  0
   49.7220   34.1110   43.1770 O   0  0  0  0  0  0  0  0  0  0  0  0
   49.7390   35.0610   42.9240 H   0  0  0  0  0  0  0  0  0  0  0  0
   49.1710   31.6020   42.5190 O   0  0  0  0  0  0  0  0  0  0  0  0
   51.2400   30.3980   42.5650 C   0  0  0  0  0  0  0  0  0  0  0  0
   50.3610   31.2660   41.9440 C   0  0  0  0  0  0  0  0  0  0  0  0
   50.6850   31.8140   40.7060 C   0  0  0  0  0  0  0  0  0  0  0  0
   49.9820   32.4970   40.2260 H   0  0  0  0  0  0  0  0  0  0  0  0
   51.8870   31.4920   40.0950 C   0  0  0  0  0  0  0  0  0  0  0  0
   52.4630   31.8510   38.9330 N   0  0  0  0  0  0  0  0  0  0  0  0
   51.9960   32.5090   38.2700 H   0  0  0  0  0  0  0  0  0  0  0  0
   53.6400   31.2620   38.7980 N   0  0  0  0  0  0  0  0  0  0  0  0
   53.8930   30.4850   39.8680 C   0  0  0  0  0  0  0  0  0  0  0  0
   54.7720   29.8690   40.0610 H   0  0  0  0  0  0  0  0  0  0  0  0
   52.7840   30.6300   40.6870 C   0  0  0  0  0  0  0  0  0  0  0  0
   52.4330   30.1010   41.9190 C   0  0  0  0  0  0  0  0  0  0  0  0
  1  8  1  0  0  0  0
  1  2  1  0  0  0  0
  3  4  1  0  0  0  0
  3 17  1  0  0  0  0
  4  9  1  0  0  0  0
  5 10  1  0  0  0  0
  5  4  2  0  0  0  0
  6  5  1  0  0  0  0
  7  6  2  0  0  0  0
  7  8  1  0  0  0  0
  8  3  2  0  0  0  0
 11  6  1  0  0  0  0
 12  7  1  0  0  0  0
 13 14  1  0  0  0  0
 14 15  2  0  0  0  0
 14 20  1  0  0  0  0
 15 21  1  0  0  0  0
 16 15  1  0  0  0  0
 17 16  2  0  0  0  0
 18 17  1  0  0  0  0
 18 13  2  0  0  0  0
 19 13  1  0  0  0  0
 22 25  1  0  0  0  0
 22  1  1  0  0  0  0
 23 22  1  0  0  0  0
 24 23  1  0  0  0  0
 26 25  1  0  0  0  0
 27 22  1  0  0  0  0
 29 27  1  0  0  0  0
 29 28  1  0  0  0  0
 30 29  2  0  0  0  0
 31 30  1  0  0  0  0
 32 38  2  0  0  0  0
 32 30  1  0  0  0  0
 33 32  1  0  0  0  0
 34 33  1  0  0  0  0
 35 33  1  0  0  0  0
 35 36  2  0  0  0  0
 36 37  1  0  0  0  0
 36 38  1  0  0  0  0
 38 39  1  0  0  0  0
 39 28  2  0  0  0  0
M  END
>  <minimizedAffinity>
-6.31129837

>  <minimizedRMSD>
1.46414852

$$$$
