
 OpenBabel03242515103D

 39 42  0  0  0  0  0  0  0  0999 V2000
   47.5580   33.3640   43.7220 N   0  0  0  0  0  0  0  0  0  0  0  0
   47.4430   32.4160   44.1850 H   0  0  0  0  0  0  0  0  0  0  0  0
   45.7430   34.1290   45.2210 C   0  0  0  0  0  0  0  0  0  0  0  0
   44.7340   35.0400   45.3500 C   0  0  0  0  0  0  0  0  0  0  0  0
   44.4170   36.0040   44.4110 C   0  0  0  0  0  0  0  0  0  0  0  0
   45.1550   36.0610   43.2680 C   0  0  0  0  0  0  0  0  0  0  0  0
   46.1790   35.1690   43.0900 C   0  0  0  0  0  0  0  0  0  0  0  0
   46.4740   34.2110   44.0530 C   0  0  0  0  0  0  0  0  0  0  0  0
   44.1070   35.0450   46.2420 H   0  0  0  0  0  0  0  0  0  0  0  0
   43.6150   36.7210   44.5230 H   0  0  0  0  0  0  0  0  0  0  0  0
   44.9350   36.8050   42.5090 H   0  0  0  0  0  0  0  0  0  0  0  0
   46.7390   35.2570   42.1590 H   0  0  0  0  0  0  0  0  0  0  0  0
   47.3670   31.3320   46.9230 C   0  0  0  0  0  0  0  0  0  0  0  0
   46.6520   31.2260   48.1120 C   0  0  0  0  0  0  0  0  0  0  0  0
   45.5970   32.1220   48.3400 C   0  0  0  0  0  0  0  0  0  0  0  0
   45.3020   33.0690   47.3970 N   0  0  0  0  0  0  0  0  0  0  0  0
   46.0330   33.1400   46.2340 C   0  0  0  0  0  0  0  0  0  0  0  0
   47.0360   32.2710   46.0410 N   0  0  0  0  0  0  0  0  0  0  0  0
   48.1690   30.6120   46.8040 H   0  0  0  0  0  0  0  0  0  0  0  0
   46.8330   30.5070   48.8920 H   0  0  0  0  0  0  0  0  0  0  0  0
   45.0000   32.0970   49.2430 H   0  0  0  0  0  0  0  0  0  0  0  0
   48.9470   33.5840   42.7620 S   0  0  0  0  0  0  0  0  0  0  0  0
   48.4860   33.8550   41.3250 O   0  0  0  0  0  0  0  0  0  0  0  0
   49.0540   34.2210   40.6190 H   0  0  0  0  0  0  0  0  0  0  0  0
   49.8330   34.6960   43.1910 O   0  0  0  0  0  0  0  0  0  0  0  0
   49.7140   35.6190   42.8740 H   0  0  0  0  0  0  0  0  0  0  0  0
   49.7250   32.0960   42.6840 O   0  0  0  0  0  0  0  0  0  0  0  0
   51.5700   32.0340   41.1580 C   0  0  0  0  0  3  0  0  0  0  0  0
   50.3170   31.6060   41.5580 C   0  0  0  0  0  0  0  0  0  0  0  0
   49.6360   30.6550   40.8020 C   0  0  0  0  0  0  0  0  0  0  0  0
   48.6480   30.3250   41.1290 H   0  0  0  0  0  0  0  0  0  0  0  0
   50.2100   30.1370   39.6530 C   0  0  0  0  0  0  0  0  0  0  0  0
   49.8100   29.2320   38.7410 N   0  0  0  0  0  0  0  0  0  0  0  0
   48.8830   28.7520   38.8150 H   0  0  0  0  0  0  0  0  0  0  0  0
   50.7320   29.0760   37.8070 N   0  0  0  0  0  0  0  0  0  0  0  0
   51.7870   29.8730   38.0610 C   0  0  0  0  0  0  0  0  0  0  0  0
   52.7060   29.9780   37.4840 H   0  0  0  0  0  0  0  0  0  0  0  0
   51.4560   30.5440   39.2280 C   0  0  0  0  0  0  0  0  0  0  0  0
   52.1090   31.4910   40.0000 C   0  0  0  0  0  3  0  0  0  0  0  0
  1  8  1  0  0  0  0
  1  2  1  0  0  0  0
  3  4  1  0  0  0  0
  3 17  1  0  0  0  0
  4  9  1  0  0  0  0
  5 10  1  0  0  0  0
  5  4  2  0  0  0  0
  6  5  1  0  0  0  0
  7  6  2  0  0  0  0
  7  8  1  0  0  0  0
  8  3  2  0  0  0  0
 11  6  1  0  0  0  0
 12  7  1  0  0  0  0
 13 14  1  0  0  0  0
 14 15  2  0  0  0  0
 14 20  1  0  0  0  0
 15 21  1  0  0  0  0
 16 15  1  0  0  0  0
 17 16  2  0  0  0  0
 18 17  1  0  0  0  0
 18 13  2  0  0  0  0
 19 13  1  0  0  0  0
 22 25  1  0  0  0  0
 22  1  1  0  0  0  0
 23 22  1  0  0  0  0
 24 23  1  0  0  0  0
 26 25  1  0  0  0  0
 27 22  1  0  0  0  0
 28 29  1  0  0  0  0
 29 27  1  0  0  0  0
 30 31  1  0  0  0  0
 30 29  2  0  0  0  0
 32 30  1  0  0  0  0
 33 34  1  0  0  0  0
 33 32  1  0  0  0  0
 35 36  2  0  0  0  0
 35 33  1  0  0  0  0
 36 38  1  0  0  0  0
 37 36  1  0  0  0  0
 38 32  2  0  0  0  0
 38 39  1  0  0  0  0
 39 28  2  0  0  0  0
M  END
>  <minimizedAffinity>
-5.84135103

>  <minimizedRMSD>
2.24640346

$$$$
