
 OpenBabel03242515113D

 39 42  0  0  0  0  0  0  0  0999 V2000
   35.9490   28.2410   41.7060 N   0  0  0  0  0  0  0  0  0  0  0  0
   35.1010   27.7700   42.1360 H   0  0  0  0  0  0  0  0  0  0  0  0
   37.6010   26.4000   41.6420 C   0  0  0  0  0  0  0  0  0  0  0  0
   38.7710   25.9530   42.1850 C   0  0  0  0  0  0  0  0  0  0  0  0
   39.4910   26.6150   43.1630 C   0  0  0  0  0  0  0  0  0  0  0  0
   39.0090   27.8010   43.6280 C   0  0  0  0  0  0  0  0  0  0  0  0
   37.8390   28.2930   43.1150 C   0  0  0  0  0  0  0  0  0  0  0  0
   37.1380   27.6040   42.1320 C   0  0  0  0  0  0  0  0  0  0  0  0
   39.2080   25.0100   41.8550 H   0  0  0  0  0  0  0  0  0  0  0  0
   40.4170   26.2510   43.5870 H   0  0  0  0  0  0  0  0  0  0  0  0
   39.5470   28.3490   44.3950 H   0  0  0  0  0  0  0  0  0  0  0  0
   37.4970   29.2460   43.5200 H   0  0  0  0  0  0  0  0  0  0  0  0
   35.8350   23.6660   39.9790 C   0  0  0  0  0  0  0  0  0  0  0  0
   35.5260   24.2000   38.7320 C   0  0  0  0  0  0  0  0  0  0  0  0
   35.9250   25.5150   38.4500 C   0  0  0  0  0  0  0  0  0  0  0  0
   36.6010   26.2320   39.3990 N   0  0  0  0  0  0  0  0  0  0  0  0
   36.8880   25.6670   40.6200 C   0  0  0  0  0  0  0  0  0  0  0  0
   36.4950   24.4080   40.8640 N   0  0  0  0  0  0  0  0  0  0  0  0
   35.5010   22.6470   40.1370 H   0  0  0  0  0  0  0  0  0  0  0  0
   34.9980   23.6920   37.9440 H   0  0  0  0  0  0  0  0  0  0  0  0
   35.7170   25.9930   37.5010 H   0  0  0  0  0  0  0  0  0  0  0  0
   35.6500   29.5640   40.6760 S   0  0  0  0  0  0  0  0  0  0  0  0
   34.2530   29.3810   40.0700 O   0  0  0  0  0  0  0  0  0  0  0  0
   33.7470   30.0840   39.6180 H   0  0  0  0  0  0  0  0  0  0  0  0
   35.7090   30.8940   41.3340 O   0  0  0  0  0  0  0  0  0  0  0  0
   34.9250   31.3070   41.7600 H   0  0  0  0  0  0  0  0  0  0  0  0
   36.7000   29.4120   39.3720 O   0  0  0  0  0  0  0  0  0  0  0  0
   38.8130   30.0810   40.2780 C   0  0  0  0  0  3  0  0  0  0  0  0
   37.8770   30.0910   39.2600 C   0  0  0  0  0  0  0  0  0  0  0  0
   38.1300   30.8060   38.0930 C   0  0  0  0  0  0  0  0  0  0  0  0
   37.3830   30.8060   37.2970 H   0  0  0  0  0  0  0  0  0  0  0  0
   39.3170   31.5080   37.9480 C   0  0  0  0  0  0  0  0  0  0  0  0
   39.8320   32.2690   36.9660 N   0  0  0  0  0  0  0  0  0  0  0  0
   39.3130   32.4370   36.0740 H   0  0  0  0  0  0  0  0  0  0  0  0
   41.0230   32.7290   37.3120 N   0  0  0  0  0  0  0  0  0  0  0  0
   41.3480   32.2900   38.5420 C   0  0  0  0  0  0  0  0  0  0  0  0
   42.2570   32.4890   39.1100 H   0  0  0  0  0  0  0  0  0  0  0  0
   40.2690   31.5170   38.9440 C   0  0  0  0  0  0  0  0  0  0  0  0
   39.9890   30.7970   40.0940 C   0  0  0  0  0  3  0  0  0  0  0  0
  1  8  1  0  0  0  0
  1  2  1  0  0  0  0
  3  8  2  0  0  0  0
  3  4  1  0  0  0  0
  4  5  2  0  0  0  0
  5 10  1  0  0  0  0
  5  6  1  0  0  0  0
  6 11  1  0  0  0  0
  7 12  1  0  0  0  0
  7  6  2  0  0  0  0
  8  7  1  0  0  0  0
  9  4  1  0  0  0  0
 13 19  1  0  0  0  0
 13 18  1  0  0  0  0
 14 13  2  0  0  0  0
 15 14  1  0  0  0  0
 15 16  2  0  0  0  0
 16 17  1  0  0  0  0
 17 18  2  0  0  0  0
 17  3  1  0  0  0  0
 20 14  1  0  0  0  0
 21 15  1  0  0  0  0
 22 25  1  0  0  0  0
 22  1  1  0  0  0  0
 23 22  1  0  0  0  0
 24 23  1  0  0  0  0
 25 26  1  0  0  0  0
 27 22  1  0  0  0  0
 29 27  1  0  0  0  0
 29 28  2  0  0  0  0
 30 29  1  0  0  0  0
 31 30  1  0  0  0  0
 32 30  2  0  0  0  0
 32 38  1  0  0  0  0
 33 35  1  0  0  0  0
 33 32  1  0  0  0  0
 34 33  1  0  0  0  0
 35 36  2  0  0  0  0
 36 38  1  0  0  0  0
 36 37  1  0  0  0  0
 38 39  2  0  0  0  0
 39 28  1  0  0  0  0
M  END
>  <minimizedAffinity>
-6.77464342

$$$$

 OpenBabel03242515113D

 39 42  0  0  0  0  0  0  0  0999 V2000
   35.9710   30.7500   40.9140 N   0  0  0  0  0  0  0  0  0  0  0  0
   35.3180   31.1230   41.6640 H   0  0  0  0  0  0  0  0  0  0  0  0
   38.3580   31.0250   41.5060 C   0  0  0  0  0  0  0  0  0  0  0  0
   39.4270   31.8680   41.4020 C   0  0  0  0  0  0  0  0  0  0  0  0
   39.4050   33.0950   40.7650 C   0  0  0  0  0  0  0  0  0  0  0  0
   38.2370   33.5070   40.1970 C   0  0  0  0  0  0  0  0  0  0  0  0
   37.1360   32.6970   40.2730 C   0  0  0  0  0  0  0  0  0  0  0  0
   37.1900   31.4680   40.9200 C   0  0  0  0  0  0  0  0  0  0  0  0
   40.3890   31.5950   41.8370 H   0  0  0  0  0  0  0  0  0  0  0  0
   40.2570   33.7560   40.6890 H   0  0  0  0  0  0  0  0  0  0  0  0
   38.1820   34.4640   39.6880 H   0  0  0  0  0  0  0  0  0  0  0  0
   36.2270   33.0730   39.8010 H   0  0  0  0  0  0  0  0  0  0  0  0
   37.4460   28.2310   43.6790 C   0  0  0  0  0  0  0  0  0  0  0  0
   38.5040   27.3420   43.5140 C   0  0  0  0  0  0  0  0  0  0  0  0
   39.5480   27.7000   42.6480 C   0  0  0  0  0  0  0  0  0  0  0  0
   39.5000   28.9000   41.9930 N   0  0  0  0  0  0  0  0  0  0  0  0
   38.4360   29.7500   42.1840 C   0  0  0  0  0  0  0  0  0  0  0  0
   37.4510   29.3850   43.0180 N   0  0  0  0  0  0  0  0  0  0  0  0
   36.6700   27.9000   44.3610 H   0  0  0  0  0  0  0  0  0  0  0  0
   38.6020   26.3870   43.9980 H   0  0  0  0  0  0  0  0  0  0  0  0
   40.4010   27.0550   42.4730 H   0  0  0  0  0  0  0  0  0  0  0  0
   35.3930   29.4590   39.9670 S   0  0  0  0  0  0  0  0  0  0  0  0
   35.9800   28.1610   40.5340 O   0  0  0  0  0  0  0  0  0  0  0  0
   35.6530   27.2650   40.3230 H   0  0  0  0  0  0  0  0  0  0  0  0
   33.9140   29.3300   39.9230 O   0  0  0  0  0  0  0  0  0  0  0  0
   33.4100   28.8050   40.5850 H   0  0  0  0  0  0  0  0  0  0  0  0
   36.1000   29.6150   38.4490 O   0  0  0  0  0  0  0  0  0  0  0  0
   38.3630   28.8480   38.6030 C   0  0  0  0  0  3  0  0  0  0  0  0
   37.4340   29.8100   38.2490 C   0  0  0  0  0  0  0  0  0  0  0  0
   37.8580   31.0060   37.6760 C   0  0  0  0  0  0  0  0  0  0  0  0
   37.1150   31.7570   37.4010 H   0  0  0  0  0  0  0  0  0  0  0  0
   39.2080   31.2350   37.4600 C   0  0  0  0  0  0  0  0  0  0  0  0
   39.9030   32.2620   36.9390 N   0  0  0  0  0  0  0  0  0  0  0  0
   39.4280   33.1250   36.5920 H   0  0  0  0  0  0  0  0  0  0  0  0
   41.1990   31.9970   36.9500 N   0  0  0  0  0  0  0  0  0  0  0  0
   41.4170   30.7780   37.4780 C   0  0  0  0  0  0  0  0  0  0  0  0
   42.3700   30.2690   37.6260 H   0  0  0  0  0  0  0  0  0  0  0  0
   40.1570   30.2970   37.8000 C   0  0  0  0  0  0  0  0  0  0  0  0
   39.7060   29.1170   38.3690 C   0  0  0  0  0  3  0  0  0  0  0  0
  1  8  1  0  0  0  0
  1  2  1  0  0  0  0
  3 17  1  0  0  0  0
  4  3  1  0  0  0  0
  4  9  1  0  0  0  0
  5  4  2  0  0  0  0
  6  7  2  0  0  0  0
  6  5  1  0  0  0  0
  7  8  1  0  0  0  0
  8  3  2  0  0  0  0
 10  5  1  0  0  0  0
 11  6  1  0  0  0  0
 12  7  1  0  0  0  0
 13 19  1  0  0  0  0
 14 13  1  0  0  0  0
 14 20  1  0  0  0  0
 15 14  2  0  0  0  0
 16 17  2  0  0  0  0
 16 15  1  0  0  0  0
 17 18  1  0  0  0  0
 18 13  2  0  0  0  0
 21 15  1  0  0  0  0
 22 23  1  0  0  0  0
 22  1  1  0  0  0  0
 24 23  1  0  0  0  0
 25 22  1  0  0  0  0
 25 26  1  0  0  0  0
 27 22  1  0  0  0  0
 29 27  1  0  0  0  0
 29 28  2  0  0  0  0
 30 29  1  0  0  0  0
 31 30  1  0  0  0  0
 32 30  2  0  0  0  0
 32 38  1  0  0  0  0
 33 35  1  0  0  0  0
 33 32  1  0  0  0  0
 34 33  1  0  0  0  0
 35 36  2  0  0  0  0
 36 37  1  0  0  0  0
 36 38  1  0  0  0  0
 38 39  2  0  0  0  0
 39 28  1  0  0  0  0
M  END
>  <minimizedAffinity>
-6.46282864

$$$$

 OpenBabel03242515113D

 39 42  0  0  0  0  0  0  0  0999 V2000
   37.1680   29.6100   39.8390 N   0  0  0  0  0  0  0  0  0  0  0  0
   38.1270   29.2120   40.0610 H   0  0  0  0  0  0  0  0  0  0  0  0
   37.5450   31.0450   37.8580 C   0  0  0  0  0  0  0  0  0  0  0  0
   37.3390   31.1370   36.5120 C   0  0  0  0  0  0  0  0  0  0  0  0
   36.6960   30.1830   35.7450 C   0  0  0  0  0  0  0  0  0  0  0  0
   36.2280   29.0640   36.3650 C   0  0  0  0  0  0  0  0  0  0  0  0
   36.4090   28.9240   37.7150 C   0  0  0  0  0  0  0  0  0  0  0  0
   37.0600   29.9020   38.4590 C   0  0  0  0  0  0  0  0  0  0  0  0
   37.6900   32.0090   35.9580 H   0  0  0  0  0  0  0  0  0  0  0  0
   36.5370   30.2660   34.6790 H   0  0  0  0  0  0  0  0  0  0  0  0
   35.7180   28.2930   35.7960 H   0  0  0  0  0  0  0  0  0  0  0  0
   36.0160   28.0110   38.1620 H   0  0  0  0  0  0  0  0  0  0  0  0
   38.0660   33.8350   40.1630 C   0  0  0  0  0  0  0  0  0  0  0  0
   39.4380   34.0560   40.0870 C   0  0  0  0  0  0  0  0  0  0  0  0
   40.2010   33.2430   39.2350 C   0  0  0  0  0  0  0  0  0  0  0  0
   39.5830   32.2610   38.5100 N   0  0  0  0  0  0  0  0  0  0  0  0
   38.2240   32.0740   38.6130 C   0  0  0  0  0  0  0  0  0  0  0  0
   37.5180   32.8660   39.4340 N   0  0  0  0  0  0  0  0  0  0  0  0
   37.5310   34.4940   40.8360 H   0  0  0  0  0  0  0  0  0  0  0  0
   39.9830   34.8090   40.6290 H   0  0  0  0  0  0  0  0  0  0  0  0
   41.2720   33.3600   39.1290 H   0  0  0  0  0  0  0  0  0  0  0  0
   36.0870   29.7750   41.1440 S   0  0  0  0  0  0  0  0  0  0  0  0
   35.7740   31.2670   41.3090 O   0  0  0  0  0  0  0  0  0  0  0  0
   35.0310   31.6240   41.8340 H   0  0  0  0  0  0  0  0  0  0  0  0
   34.8070   29.0380   40.9920 O   0  0  0  0  0  0  0  0  0  0  0  0
   34.0200   29.4310   40.5520 H   0  0  0  0  0  0  0  0  0  0  0  0
   36.9380   29.3650   42.5350 O   0  0  0  0  0  0  0  0  0  0  0  0
   37.1660   26.9890   42.3400 C   0  0  0  0  0  3  0  0  0  0  0  0
   37.6840   28.2310   42.6630 C   0  0  0  0  0  0  0  0  0  0  0  0
   38.9910   28.3380   43.1270 C   0  0  0  0  0  0  0  0  0  0  0  0
   39.3880   29.3230   43.3770 H   0  0  0  0  0  0  0  0  0  0  0  0
   39.7760   27.2040   43.2670 C   0  0  0  0  0  0  0  0  0  0  0  0
   41.0400   26.9940   43.6800 N   0  0  0  0  0  0  0  0  0  0  0  0
   41.6550   27.7820   43.9830 H   0  0  0  0  0  0  0  0  0  0  0  0
   41.3340   25.7050   43.6330 N   0  0  0  0  0  0  0  0  0  0  0  0
   40.2750   25.0050   43.1860 C   0  0  0  0  0  0  0  0  0  0  0  0
   40.1950   23.9280   43.0340 H   0  0  0  0  0  0  0  0  0  0  0  0
   39.2900   25.9530   42.9540 C   0  0  0  0  0  0  0  0  0  0  0  0
   37.9850   25.8780   42.4950 C   0  0  0  0  0  3  0  0  0  0  0  0
  1  2  1  0  0  0  0
  1 22  1  0  0  0  0
  3  8  1  0  0  0  0
  3 17  1  0  0  0  0
  4  3  2  0  0  0  0
  5  6  2  0  0  0  0
  5  4  1  0  0  0  0
  6  7  1  0  0  0  0
  7 12  1  0  0  0  0
  7  8  2  0  0  0  0
  8  1  1  0  0  0  0
  9  4  1  0  0  0  0
 10  5  1  0  0  0  0
 11  6  1  0  0  0  0
 13 19  1  0  0  0  0
 14 13  1  0  0  0  0
 14 20  1  0  0  0  0
 15 14  2  0  0  0  0
 16 17  2  0  0  0  0
 16 15  1  0  0  0  0
 17 18  1  0  0  0  0
 18 13  2  0  0  0  0
 21 15  1  0  0  0  0
 22 23  1  0  0  0  0
 22 27  1  0  0  0  0
 23 24  1  0  0  0  0
 25 22  1  0  0  0  0
 26 25  1  0  0  0  0
 27 29  1  0  0  0  0
 28 39  2  0  0  0  0
 28 29  1  0  0  0  0
 29 30  2  0  0  0  0
 30 32  1  0  0  0  0
 30 31  1  0  0  0  0
 32 33  1  0  0  0  0
 33 34  1  0  0  0  0
 35 33  1  0  0  0  0
 36 35  2  0  0  0  0
 37 36  1  0  0  0  0
 38 36  1  0  0  0  0
 38 32  2  0  0  0  0
 39 38  1  0  0  0  0
M  END
>  <minimizedAffinity>
-6.46093082

$$$$

 OpenBabel03242515113D

 39 42  0  0  0  0  0  0  0  0999 V2000
   37.6710   30.3720   42.1440 N   0  0  0  0  0  0  0  0  0  0  0  0
   37.1080   30.1270   43.0100 H   0  0  0  0  0  0  0  0  0  0  0  0
   39.5630   28.8070   42.4500 C   0  0  0  0  0  0  0  0  0  0  0  0
   40.9130   28.7380   42.6440 C   0  0  0  0  0  0  0  0  0  0  0  0
   41.7540   29.8320   42.7380 C   0  0  0  0  0  0  0  0  0  0  0  0
   41.2090   31.0760   42.6320 C   0  0  0  0  0  0  0  0  0  0  0  0
   39.8590   31.1990   42.4360 C   0  0  0  0  0  0  0  0  0  0  0  0
   39.0400   30.0800   42.3460 C   0  0  0  0  0  0  0  0  0  0  0  0
   41.4090   27.7710   42.7370 H   0  0  0  0  0  0  0  0  0  0  0  0
   42.8220   29.7670   42.8920 H   0  0  0  0  0  0  0  0  0  0  0  0
   41.8370   31.9590   42.7010 H   0  0  0  0  0  0  0  0  0  0  0  0
   39.4740   32.2160   42.3580 H   0  0  0  0  0  0  0  0  0  0  0  0
   38.4660   25.4380   41.5500 C   0  0  0  0  0  0  0  0  0  0  0  0
   37.2070   25.3480   42.1360 C   0  0  0  0  0  0  0  0  0  0  0  0
   36.7210   26.4540   42.8500 C   0  0  0  0  0  0  0  0  0  0  0  0
   37.4900   27.5800   42.9530 N   0  0  0  0  0  0  0  0  0  0  0  0
   38.7300   27.6300   42.3590 C   0  0  0  0  0  0  0  0  0  0  0  0
   39.1700   26.5600   41.6810 N   0  0  0  0  0  0  0  0  0  0  0  0
   38.7860   24.5540   41.0120 H   0  0  0  0  0  0  0  0  0  0  0  0
   36.5550   24.4940   42.0930 H   0  0  0  0  0  0  0  0  0  0  0  0
   35.7510   26.4510   43.3320 H   0  0  0  0  0  0  0  0  0  0  0  0
   36.8060   31.0150   40.8250 S   0  0  0  0  0  0  0  0  0  0  0  0
   35.3390   30.5940   40.9760 O   0  0  0  0  0  0  0  0  0  0  0  0
   34.5940   30.9930   40.4860 H   0  0  0  0  0  0  0  0  0  0  0  0
   36.8640   32.4930   40.7010 O   0  0  0  0  0  0  0  0  0  0  0  0
   36.2220   33.0860   41.1520 H   0  0  0  0  0  0  0  0  0  0  0  0
   37.3400   30.2030   39.4530 O   0  0  0  0  0  0  0  0  0  0  0  0
   39.4860   29.3120   38.8720 C   0  0  0  0  0  3  0  0  0  0  0  0
   38.5830   30.3590   38.9140 C   0  0  0  0  0  0  0  0  0  0  0  0
   38.9380   31.6020   38.3970 C   0  0  0  0  0  0  0  0  0  0  0  0
   38.2160   32.4200   38.4350 H   0  0  0  0  0  0  0  0  0  0  0  0
   40.1940   31.7930   37.8420 C   0  0  0  0  0  0  0  0  0  0  0  0
   40.8090   32.8490   37.2780 N   0  0  0  0  0  0  0  0  0  0  0  0
   40.3340   33.7750   37.1870 H   0  0  0  0  0  0  0  0  0  0  0  0
   42.0310   32.5210   36.8930 N   0  0  0  0  0  0  0  0  0  0  0  0
   42.2780   31.2300   37.1860 C   0  0  0  0  0  0  0  0  0  0  0  0
   43.1870   30.6590   36.9970 H   0  0  0  0  0  0  0  0  0  0  0  0
   41.1150   30.7700   37.7850 C   0  0  0  0  0  0  0  0  0  0  0  0
   40.7330   29.5450   38.3070 C   0  0  0  0  0  3  0  0  0  0  0  0
  1  8  1  0  0  0  0
  1  2  1  0  0  0  0
  3  4  1  0  0  0  0
  4  9  1  0  0  0  0
  4  5  2  0  0  0  0
  5 10  1  0  0  0  0
  6 11  1  0  0  0  0
  6  5  1  0  0  0  0
  7  6  2  0  0  0  0
  8  7  1  0  0  0  0
  8  3  2  0  0  0  0
 12  7  1  0  0  0  0
 13 18  2  0  0  0  0
 13 14  1  0  0  0  0
 14 15  2  0  0  0  0
 15 16  1  0  0  0  0
 15 21  1  0  0  0  0
 17  3  1  0  0  0  0
 17 16  2  0  0  0  0
 18 17  1  0  0  0  0
 19 13  1  0  0  0  0
 20 14  1  0  0  0  0
 22 23  1  0  0  0  0
 22  1  1  0  0  0  0
 24 23  1  0  0  0  0
 25 22  1  0  0  0  0
 25 26  1  0  0  0  0
 27 22  1  0  0  0  0
 28 29  1  0  0  0  0
 29 27  1  0  0  0  0
 30 31  1  0  0  0  0
 30 29  2  0  0  0  0
 32 30  1  0  0  0  0
 33 32  1  0  0  0  0
 34 33  1  0  0  0  0
 35 36  2  0  0  0  0
 35 33  1  0  0  0  0
 36 38  1  0  0  0  0
 37 36  1  0  0  0  0
 38 32  2  0  0  0  0
 38 39  1  0  0  0  0
 39 28  2  0  0  0  0
M  END
>  <minimizedAffinity>
-6.37583351

$$$$

 OpenBabel03242515113D

 39 42  0  0  0  0  0  0  0  0999 V2000
   36.2070   29.6170   41.6580 N   0  0  0  0  0  0  0  0  0  0  0  0
   35.5600   30.3260   42.1100 H   0  0  0  0  0  0  0  0  0  0  0  0
   36.6710   30.5230   39.4030 C   0  0  0  0  0  0  0  0  0  0  0  0
   36.3880   30.3690   38.0760 C   0  0  0  0  0  0  0  0  0  0  0  0
   35.5470   29.4030   37.5560 C   0  0  0  0  0  0  0  0  0  0  0  0
   34.9480   28.5360   38.4190 C   0  0  0  0  0  0  0  0  0  0  0  0
   35.2000   28.6480   39.7590 C   0  0  0  0  0  0  0  0  0  0  0  0
   36.0510   29.6300   40.2530 C   0  0  0  0  0  0  0  0  0  0  0  0
   36.8360   31.0330   37.3360 H   0  0  0  0  0  0  0  0  0  0  0  0
   35.3290   29.2900   36.5030 H   0  0  0  0  0  0  0  0  0  0  0  0
   34.2820   27.7640   38.0460 H   0  0  0  0  0  0  0  0  0  0  0  0
   34.6960   27.9290   40.4070 H   0  0  0  0  0  0  0  0  0  0  0  0
   38.0760   33.8420   40.0140 C   0  0  0  0  0  0  0  0  0  0  0  0
   39.2000   33.5730   40.7890 C   0  0  0  0  0  0  0  0  0  0  0  0
   39.4860   32.2380   41.1100 C   0  0  0  0  0  0  0  0  0  0  0  0
   38.6610   31.2440   40.6590 N   0  0  0  0  0  0  0  0  0  0  0  0
   37.5600   31.5520   39.8940 C   0  0  0  0  0  0  0  0  0  0  0  0
   37.3090   32.8360   39.6010 N   0  0  0  0  0  0  0  0  0  0  0  0
   37.9070   34.8910   39.7990 H   0  0  0  0  0  0  0  0  0  0  0  0
   39.8870   34.3060   41.1740 H   0  0  0  0  0  0  0  0  0  0  0  0
   40.3440   31.9570   41.7100 H   0  0  0  0  0  0  0  0  0  0  0  0
   37.2000   28.7110   42.7040 S   0  0  0  0  0  0  0  0  0  0  0  0
   38.0740   29.6950   43.4910 O   0  0  0  0  0  0  0  0  0  0  0  0
   38.5750   29.4690   44.2990 H   0  0  0  0  0  0  0  0  0  0  0  0
   36.4700   27.8500   43.6680 O   0  0  0  0  0  0  0  0  0  0  0  0
   36.1810   28.1740   44.5510 H   0  0  0  0  0  0  0  0  0  0  0  0
   38.2840   27.8660   41.7340 O   0  0  0  0  0  0  0  0  0  0  0  0
   38.9240   25.6220   42.2750 C   0  0  0  0  0  3  0  0  0  0  0  0
   38.2110   26.5240   41.5060 C   0  0  0  0  0  0  0  0  0  0  0  0
   37.3980   26.0630   40.4740 C   0  0  0  0  0  0  0  0  0  0  0  0
   36.8390   26.7840   39.8740 H   0  0  0  0  0  0  0  0  0  0  0  0
   37.3020   24.7040   40.2160 C   0  0  0  0  0  0  0  0  0  0  0  0
   36.6180   23.9770   39.3140 N   0  0  0  0  0  0  0  0  0  0  0  0
   35.9950   24.4270   38.6060 H   0  0  0  0  0  0  0  0  0  0  0  0
   36.8650   22.6870   39.4760 N   0  0  0  0  0  0  0  0  0  0  0  0
   37.7240   22.5060   40.4970 C   0  0  0  0  0  0  0  0  0  0  0  0
   38.1230   21.5680   40.8830 H   0  0  0  0  0  0  0  0  0  0  0  0
   37.9990   23.7820   40.9650 C   0  0  0  0  0  0  0  0  0  0  0  0
   38.8000   24.2700   41.9840 C   0  0  0  0  0  3  0  0  0  0  0  0
  1  2  1  0  0  0  0
  1 22  1  0  0  0  0
  3 17  1  0  0  0  0
  3  8  1  0  0  0  0
  4  3  2  0  0  0  0
  5  4  1  0  0  0  0
  5  6  2  0  0  0  0
  6  7  1  0  0  0  0
  7  8  2  0  0  0  0
  7 12  1  0  0  0  0
  8  1  1  0  0  0  0
  9  4  1  0  0  0  0
 10  5  1  0  0  0  0
 11  6  1  0  0  0  0
 13 14  1  0  0  0  0
 14 15  2  0  0  0  0
 14 20  1  0  0  0  0
 15 21  1  0  0  0  0
 16 15  1  0  0  0  0
 17 16  2  0  0  0  0
 18 17  1  0  0  0  0
 18 13  2  0  0  0  0
 19 13  1  0  0  0  0
 22 23  1  0  0  0  0
 22 25  1  0  0  0  0
 23 24  1  0  0  0  0
 25 26  1  0  0  0  0
 27 22  1  0  0  0  0
 29 27  1  0  0  0  0
 29 28  2  0  0  0  0
 30 29  1  0  0  0  0
 31 30  1  0  0  0  0
 32 30  2  0  0  0  0
 32 38  1  0  0  0  0
 33 35  1  0  0  0  0
 33 32  1  0  0  0  0
 34 33  1  0  0  0  0
 35 36  2  0  0  0  0
 36 37  1  0  0  0  0
 36 38  1  0  0  0  0
 38 39  2  0  0  0  0
 39 28  1  0  0  0  0
M  END
>  <minimizedAffinity>
-6.34428167

$$$$

 OpenBabel03242515113D

 39 42  0  0  0  0  0  0  0  0999 V2000
   37.1520   29.0400   40.6750 N   0  0  0  0  0  0  0  0  0  0  0  0
   38.1510   29.3960   40.7380 H   0  0  0  0  0  0  0  0  0  0  0  0
   37.2070   26.7520   39.7350 C   0  0  0  0  0  0  0  0  0  0  0  0
   37.1560   25.4270   40.0620 C   0  0  0  0  0  0  0  0  0  0  0  0
   37.0290   24.9360   41.3480 C   0  0  0  0  0  0  0  0  0  0  0  0
   36.9450   25.8280   42.3740 C   0  0  0  0  0  0  0  0  0  0  0  0
   36.9920   27.1680   42.0990 C   0  0  0  0  0  0  0  0  0  0  0  0
   37.1210   27.6310   40.7940 C   0  0  0  0  0  0  0  0  0  0  0  0
   37.2180   24.6640   39.2850 H   0  0  0  0  0  0  0  0  0  0  0  0
   36.9890   23.8850   41.5960 H   0  0  0  0  0  0  0  0  0  0  0  0
   36.8450   25.4800   43.3980 H   0  0  0  0  0  0  0  0  0  0  0  0
   36.9210   27.8400   42.9560 H   0  0  0  0  0  0  0  0  0  0  0  0
   38.6000   27.2060   36.3860 C   0  0  0  0  0  0  0  0  0  0  0  0
   37.6740   28.0410   35.7680 C   0  0  0  0  0  0  0  0  0  0  0  0
   36.5550   28.4580   36.5040 C   0  0  0  0  0  0  0  0  0  0  0  0
   36.4030   28.0370   37.7960 N   0  0  0  0  0  0  0  0  0  0  0  0
   37.3410   27.2120   38.3710 C   0  0  0  0  0  0  0  0  0  0  0  0
   38.4020   26.8280   37.6460 N   0  0  0  0  0  0  0  0  0  0  0  0
   39.4430   26.9180   35.7680 H   0  0  0  0  0  0  0  0  0  0  0  0
   37.7350   28.4060   34.7580 H   0  0  0  0  0  0  0  0  0  0  0  0
   35.7960   29.1070   36.0840 H   0  0  0  0  0  0  0  0  0  0  0  0
   35.9350   30.2110   40.4590 S   0  0  0  0  0  0  0  0  0  0  0  0
   34.6730   29.4910   39.9680 O   0  0  0  0  0  0  0  0  0  0  0  0
   33.7770   29.8800   39.9680 H   0  0  0  0  0  0  0  0  0  0  0  0
   35.5920   30.9870   41.6780 O   0  0  0  0  0  0  0  0  0  0  0  0
   34.9100   30.6880   42.3200 H   0  0  0  0  0  0  0  0  0  0  0  0
   36.4060   31.1700   39.1610 O   0  0  0  0  0  0  0  0  0  0  0  0
   38.1090   32.6130   40.0310 C   0  0  0  0  0  3  0  0  0  0  0  0
   37.6340   31.7550   39.0550 C   0  0  0  0  0  0  0  0  0  0  0  0
   38.4150   31.4730   37.9390 C   0  0  0  0  0  0  0  0  0  0  0  0
   38.0300   30.7940   37.1760 H   0  0  0  0  0  0  0  0  0  0  0  0
   39.6680   32.0510   37.8010 C   0  0  0  0  0  0  0  0  0  0  0  0
   40.6280   31.9740   36.8610 N   0  0  0  0  0  0  0  0  0  0  0  0
   40.5130   31.3820   36.0080 H   0  0  0  0  0  0  0  0  0  0  0  0
   41.6630   32.7280   37.1930 N   0  0  0  0  0  0  0  0  0  0  0  0
   41.4310   33.3380   38.3710 C   0  0  0  0  0  0  0  0  0  0  0  0
   42.0830   34.0220   38.9150 H   0  0  0  0  0  0  0  0  0  0  0  0
   40.1700   32.9090   38.7550 C   0  0  0  0  0  0  0  0  0  0  0  0
   39.3690   33.1700   39.8550 C   0  0  0  0  0  3  0  0  0  0  0  0
  1  2  1  0  0  0  0
  1  8  1  0  0  0  0
  3  4  2  0  0  0  0
  3  8  1  0  0  0  0
  4  5  1  0  0  0  0
  5 10  1  0  0  0  0
  5  6  2  0  0  0  0
  6 11  1  0  0  0  0
  7  6  1  0  0  0  0
  7 12  1  0  0  0  0
  8  7  2  0  0  0  0
  9  4  1  0  0  0  0
 13 18  1  0  0  0  0
 14 13  2  0  0  0  0
 14 15  1  0  0  0  0
 15 16  2  0  0  0  0
 16 17  1  0  0  0  0
 17  3  1  0  0  0  0
 18 17  2  0  0  0  0
 19 13  1  0  0  0  0
 20 14  1  0  0  0  0
 21 15  1  0  0  0  0
 22  1  1  0  0  0  0
 22 25  1  0  0  0  0
 23 22  1  0  0  0  0
 24 23  1  0  0  0  0
 25 26  1  0  0  0  0
 27 22  1  0  0  0  0
 29 27  1  0  0  0  0
 29 28  2  0  0  0  0
 30 29  1  0  0  0  0
 31 30  1  0  0  0  0
 32 30  2  0  0  0  0
 32 38  1  0  0  0  0
 33 35  1  0  0  0  0
 33 32  1  0  0  0  0
 34 33  1  0  0  0  0
 35 36  2  0  0  0  0
 36 38  1  0  0  0  0
 36 37  1  0  0  0  0
 38 39  2  0  0  0  0
 39 28  1  0  0  0  0
M  END
>  <minimizedAffinity>
-6.32029486

$$$$

 OpenBabel03242515113D

 39 42  0  0  0  0  0  0  0  0999 V2000
   36.3940   27.6380   38.9810 N   0  0  0  0  0  0  0  0  0  0  0  0
   37.2510   27.8330   38.3840 H   0  0  0  0  0  0  0  0  0  0  0  0
   37.1220   26.1660   40.8320 C   0  0  0  0  0  0  0  0  0  0  0  0
   37.1270   24.8740   41.2720 C   0  0  0  0  0  0  0  0  0  0  0  0
   36.5710   23.8060   40.5920 C   0  0  0  0  0  0  0  0  0  0  0  0
   35.9730   24.0470   39.3930 C   0  0  0  0  0  0  0  0  0  0  0  0
   35.9400   25.3260   38.9070 C   0  0  0  0  0  0  0  0  0  0  0  0
   36.5080   26.3790   39.6150 C   0  0  0  0  0  0  0  0  0  0  0  0
   37.5920   24.6180   42.2250 H   0  0  0  0  0  0  0  0  0  0  0  0
   36.5820   22.7860   40.9500 H   0  0  0  0  0  0  0  0  0  0  0  0
   35.5250   23.2330   38.8300 H   0  0  0  0  0  0  0  0  0  0  0  0
   35.4490   25.4640   37.9430 H   0  0  0  0  0  0  0  0  0  0  0  0
   37.3970   29.1520   42.9230 C   0  0  0  0  0  0  0  0  0  0  0  0
   38.7720   29.3340   43.0380 C   0  0  0  0  0  0  0  0  0  0  0  0
   39.6220   28.4240   42.3910 C   0  0  0  0  0  0  0  0  0  0  0  0
   39.0840   27.3920   41.6730 N   0  0  0  0  0  0  0  0  0  0  0  0
   37.7190   27.2470   41.5840 C   0  0  0  0  0  0  0  0  0  0  0  0
   36.9280   28.1300   42.2110 N   0  0  0  0  0  0  0  0  0  0  0  0
   36.7920   29.8860   43.4440 H   0  0  0  0  0  0  0  0  0  0  0  0
   39.2570   30.1220   43.5850 H   0  0  0  0  0  0  0  0  0  0  0  0
   40.7010   28.5060   42.4390 H   0  0  0  0  0  0  0  0  0  0  0  0
   35.1880   28.8400   39.0030 S   0  0  0  0  0  0  0  0  0  0  0  0
   34.0160   28.3450   38.1470 O   0  0  0  0  0  0  0  0  0  0  0  0
   33.1190   28.7310   38.1580 H   0  0  0  0  0  0  0  0  0  0  0  0
   34.6750   29.1860   40.3530 O   0  0  0  0  0  0  0  0  0  0  0  0
   33.9240   28.7080   40.7700 H   0  0  0  0  0  0  0  0  0  0  0  0
   35.8010   30.1590   38.1580 O   0  0  0  0  0  0  0  0  0  0  0  0
   37.4270   30.9340   39.7370 C   0  0  0  0  0  3  0  0  0  0  0  0
   36.9990   30.7480   38.4340 C   0  0  0  0  0  0  0  0  0  0  0  0
   37.8000   31.1650   37.3750 C   0  0  0  0  0  0  0  0  0  0  0  0
   37.4520   31.0120   36.3520 H   0  0  0  0  0  0  0  0  0  0  0  0
   39.0250   31.7660   37.6220 C   0  0  0  0  0  0  0  0  0  0  0  0
   39.9930   32.2600   36.8290 N   0  0  0  0  0  0  0  0  0  0  0  0
   39.9120   32.2400   35.7880 H   0  0  0  0  0  0  0  0  0  0  0  0
   40.9890   32.7390   37.5580 N   0  0  0  0  0  0  0  0  0  0  0  0
   40.7210   32.5810   38.8670 C   0  0  0  0  0  0  0  0  0  0  0  0
   41.3360   32.8690   39.7200 H   0  0  0  0  0  0  0  0  0  0  0  0
   39.4790   31.9650   38.9070 C   0  0  0  0  0  0  0  0  0  0  0  0
   38.6600   31.5400   39.9410 C   0  0  0  0  0  3  0  0  0  0  0  0
  1 22  1  0  0  0  0
  1  8  1  0  0  0  0
  2  1  1  0  0  0  0
  3  4  1  0  0  0  0
  3 17  1  0  0  0  0
  4  9  1  0  0  0  0
  5 10  1  0  0  0  0
  5  4  2  0  0  0  0
  6  5  1  0  0  0  0
  7  6  2  0  0  0  0
  7  8  1  0  0  0  0
  8  3  2  0  0  0  0
 11  6  1  0  0  0  0
 12  7  1  0  0  0  0
 13 14  1  0  0  0  0
 13 19  1  0  0  0  0
 14 20  1  0  0  0  0
 15 21  1  0  0  0  0
 15 14  2  0  0  0  0
 16 15  1  0  0  0  0
 17 16  2  0  0  0  0
 17 18  1  0  0  0  0
 18 13  2  0  0  0  0
 22 25  1  0  0  0  0
 23 24  1  0  0  0  0
 23 22  1  0  0  0  0
 25 26  1  0  0  0  0
 27 29  1  0  0  0  0
 27 22  1  0  0  0  0
 28 39  1  0  0  0  0
 29 28  2  0  0  0  0
 30 32  2  0  0  0  0
 30 29  1  0  0  0  0
 31 30  1  0  0  0  0
 32 38  1  0  0  0  0
 33 35  1  0  0  0  0
 33 32  1  0  0  0  0
 34 33  1  0  0  0  0
 35 36  2  0  0  0  0
 36 38  1  0  0  0  0
 36 37  1  0  0  0  0
 38 39  2  0  0  0  0
M  END
>  <minimizedAffinity>
-6.31121111

$$$$

 OpenBabel03242515113D

 39 42  0  0  0  0  0  0  0  0999 V2000
   38.4360   29.9570   40.9970 N   0  0  0  0  0  0  0  0  0  0  0  0
   39.2410   29.5180   40.4620 H   0  0  0  0  0  0  0  0  0  0  0  0
   37.2680   31.5740   39.5310 C   0  0  0  0  0  0  0  0  0  0  0  0
   37.1700   32.8970   39.2120 C   0  0  0  0  0  0  0  0  0  0  0  0
   37.9060   33.9080   39.8030 C   0  0  0  0  0  0  0  0  0  0  0  0
   38.8000   33.5720   40.7750 C   0  0  0  0  0  0  0  0  0  0  0  0
   38.9350   32.2580   41.1320 C   0  0  0  0  0  0  0  0  0  0  0  0
   38.1800   31.2640   40.5190 C   0  0  0  0  0  0  0  0  0  0  0  0
   36.4730   33.2290   38.4420 H   0  0  0  0  0  0  0  0  0  0  0  0
   37.8220   34.9540   39.5420 H   0  0  0  0  0  0  0  0  0  0  0  0
   39.3960   34.3390   41.2610 H   0  0  0  0  0  0  0  0  0  0  0  0
   39.6630   32.0430   41.9150 H   0  0  0  0  0  0  0  0  0  0  0  0
   36.0230   29.3320   36.9260 C   0  0  0  0  0  0  0  0  0  0  0  0
   35.0060   28.6330   37.5690 C   0  0  0  0  0  0  0  0  0  0  0  0
   34.7370   28.9290   38.9140 C   0  0  0  0  0  0  0  0  0  0  0  0
   35.4750   29.8870   39.5530 N   0  0  0  0  0  0  0  0  0  0  0  0
   36.4720   30.5560   38.8820 C   0  0  0  0  0  0  0  0  0  0  0  0
   36.7080   30.2550   37.5970 N   0  0  0  0  0  0  0  0  0  0  0  0
   36.1830   29.0600   35.8890 H   0  0  0  0  0  0  0  0  0  0  0  0
   34.3910   27.8700   37.1250 H   0  0  0  0  0  0  0  0  0  0  0  0
   33.9610   28.4230   39.4740 H   0  0  0  0  0  0  0  0  0  0  0  0
   37.7180   29.0090   42.2160 S   0  0  0  0  0  0  0  0  0  0  0  0
   38.2400   29.5100   43.5680 O   0  0  0  0  0  0  0  0  0  0  0  0
   37.8400   29.2930   44.4330 H   0  0  0  0  0  0  0  0  0  0  0  0
   36.2340   29.0430   42.2410 O   0  0  0  0  0  0  0  0  0  0  0  0
   35.7290   29.7170   42.7490 H   0  0  0  0  0  0  0  0  0  0  0  0
   38.3530   27.4600   42.0640 O   0  0  0  0  0  0  0  0  0  0  0  0
   37.3930   25.2710   42.2080 C   0  0  0  0  0  3  0  0  0  0  0  0
   37.6860   26.4180   41.4930 C   0  0  0  0  0  0  0  0  0  0  0  0
   37.2950   26.5230   40.1610 C   0  0  0  0  0  0  0  0  0  0  0  0
   37.5310   27.4330   39.6070 H   0  0  0  0  0  0  0  0  0  0  0  0
   36.6140   25.4810   39.5500 C   0  0  0  0  0  0  0  0  0  0  0  0
   36.1190   25.2940   38.3130 N   0  0  0  0  0  0  0  0  0  0  0  0
   36.2110   26.0230   37.5700 H   0  0  0  0  0  0  0  0  0  0  0  0
   35.5420   24.1070   38.2190 N   0  0  0  0  0  0  0  0  0  0  0  0
   35.6300   23.4560   39.3940 C   0  0  0  0  0  0  0  0  0  0  0  0
   35.2540   22.4640   39.6450 H   0  0  0  0  0  0  0  0  0  0  0  0
   36.3070   24.3260   40.2360 C   0  0  0  0  0  0  0  0  0  0  0  0
   36.7090   24.2510   41.5600 C   0  0  0  0  0  3  0  0  0  0  0  0
  1 22  1  0  0  0  0
  2  1  1  0  0  0  0
  3  8  1  0  0  0  0
  4  3  2  0  0  0  0
  4  5  1  0  0  0  0
  5  6  2  0  0  0  0
  6  7  1  0  0  0  0
  6 11  1  0  0  0  0
  7 12  1  0  0  0  0
  8  1  1  0  0  0  0
  8  7  2  0  0  0  0
  9  4  1  0  0  0  0
 10  5  1  0  0  0  0
 13 14  2  0  0  0  0
 13 18  1  0  0  0  0
 14 15  1  0  0  0  0
 15 21  1  0  0  0  0
 15 16  2  0  0  0  0
 17  3  1  0  0  0  0
 17 16  1  0  0  0  0
 18 17  2  0  0  0  0
 19 13  1  0  0  0  0
 20 14  1  0  0  0  0
 22 25  1  0  0  0  0
 22 23  1  0  0  0  0
 23 24  1  0  0  0  0
 25 26  1  0  0  0  0
 27 22  1  0  0  0  0
 29 27  1  0  0  0  0
 29 28  2  0  0  0  0
 30 29  1  0  0  0  0
 31 30  1  0  0  0  0
 32 30  2  0  0  0  0
 32 38  1  0  0  0  0
 33 32  1  0  0  0  0
 34 33  1  0  0  0  0
 35 33  1  0  0  0  0
 35 36  2  0  0  0  0
 36 37  1  0  0  0  0
 36 38  1  0  0  0  0
 38 39  2  0  0  0  0
 39 28  1  0  0  0  0
M  END
>  <minimizedAffinity>
-6.21976662

$$$$

 OpenBabel03242515113D

 39 42  0  0  0  0  0  0  0  0999 V2000
   38.0170   26.9810   42.9670 N   0  0  0  0  0  0  0  0  0  0  0  0
   38.4360   26.9030   43.9390 H   0  0  0  0  0  0  0  0  0  0  0  0
   39.4730   25.2080   42.0390 C   0  0  0  0  0  0  0  0  0  0  0  0
   39.4730   24.0590   41.3030 C   0  0  0  0  0  0  0  0  0  0  0  0
   38.3460   23.4660   40.7650 C   0  0  0  0  0  0  0  0  0  0  0  0
   37.1400   24.0630   40.9750 C   0  0  0  0  0  0  0  0  0  0  0  0
   37.0860   25.2190   41.7080 C   0  0  0  0  0  0  0  0  0  0  0  0
   38.2370   25.7900   42.2370 C   0  0  0  0  0  0  0  0  0  0  0  0
   40.4070   23.5340   41.1000 H   0  0  0  0  0  0  0  0  0  0  0  0
   38.3570   22.5550   40.1820 H   0  0  0  0  0  0  0  0  0  0  0  0
   36.2320   23.6270   40.5680 H   0  0  0  0  0  0  0  0  0  0  0  0
   36.0960   25.6560   41.8470 H   0  0  0  0  0  0  0  0  0  0  0  0
   41.8470   27.7270   43.2160 C   0  0  0  0  0  0  0  0  0  0  0  0
   42.9490   26.9680   43.6010 C   0  0  0  0  0  0  0  0  0  0  0  0
   42.8830   25.5740   43.4580 C   0  0  0  0  0  0  0  0  0  0  0  0
   41.7500   25.0010   42.9490 N   0  0  0  0  0  0  0  0  0  0  0  0
   40.6830   25.7860   42.5800 C   0  0  0  0  0  0  0  0  0  0  0  0
   40.7710   27.1160   42.7260 N   0  0  0  0  0  0  0  0  0  0  0  0
   41.9580   28.7960   43.3490 H   0  0  0  0  0  0  0  0  0  0  0  0
   43.8670   27.3550   44.0060 H   0  0  0  0  0  0  0  0  0  0  0  0
   43.7040   24.9240   43.7380 H   0  0  0  0  0  0  0  0  0  0  0  0
   37.2350   28.4450   42.5850 S   0  0  0  0  0  0  0  0  0  0  0  0
   35.7870   28.1170   42.1990 O   0  0  0  0  0  0  0  0  0  0  0  0
   35.0660   28.7740   42.1410 H   0  0  0  0  0  0  0  0  0  0  0  0
   37.2170   29.4480   43.6790 O   0  0  0  0  0  0  0  0  0  0  0  0
   36.5050   29.4780   44.3570 H   0  0  0  0  0  0  0  0  0  0  0  0
   37.9340   29.0120   41.1640 O   0  0  0  0  0  0  0  0  0  0  0  0
   37.0850   31.0650   40.2680 C   0  0  0  0  0  3  0  0  0  0  0  0
   38.0930   30.3340   40.8710 C   0  0  0  0  0  0  0  0  0  0  0  0
   39.2990   30.9510   41.1920 C   0  0  0  0  0  0  0  0  0  0  0  0
   40.0870   30.3640   41.6680 H   0  0  0  0  0  0  0  0  0  0  0  0
   39.4930   32.2940   40.9080 C   0  0  0  0  0  0  0  0  0  0  0  0
   40.5190   33.1440   41.0930 N   0  0  0  0  0  0  0  0  0  0  0  0
   41.4130   32.8340   41.5370 H   0  0  0  0  0  0  0  0  0  0  0  0
   40.2100   34.3490   40.6430 N   0  0  0  0  0  0  0  0  0  0  0  0
   38.9620   34.3480   40.1400 C   0  0  0  0  0  0  0  0  0  0  0  0
   38.4140   35.1790   39.6960 H   0  0  0  0  0  0  0  0  0  0  0  0
   38.5080   33.0480   40.3080 C   0  0  0  0  0  0  0  0  0  0  0  0
   37.3190   32.4070   40.0010 C   0  0  0  0  0  3  0  0  0  0  0  0
  1  2  1  0  0  0  0
  3  8  1  0  0  0  0
  3 17  1  0  0  0  0
  4  3  2  0  0  0  0
  5  6  2  0  0  0  0
  5  4  1  0  0  0  0
  6  7  1  0  0  0  0
  7 12  1  0  0  0  0
  7  8  2  0  0  0  0
  8  1  1  0  0  0  0
  9  4  1  0  0  0  0
 10  5  1  0  0  0  0
 11  6  1  0  0  0  0
 13 19  1  0  0  0  0
 13 14  1  0  0  0  0
 14 20  1  0  0  0  0
 15 14  2  0  0  0  0
 15 21  1  0  0  0  0
 16 15  1  0  0  0  0
 17 18  1  0  0  0  0
 17 16  2  0  0  0  0
 18 13  2  0  0  0  0
 22  1  1  0  0  0  0
 22 25  1  0  0  0  0
 23 22  1  0  0  0  0
 24 23  1  0  0  0  0
 25 26  1  0  0  0  0
 27 22  1  0  0  0  0
 28 29  1  0  0  0  0
 29 27  1  0  0  0  0
 29 30  2  0  0  0  0
 30 31  1  0  0  0  0
 32 33  1  0  0  0  0
 32 30  1  0  0  0  0
 33 34  1  0  0  0  0
 35 33  1  0  0  0  0
 36 38  1  0  0  0  0
 36 35  2  0  0  0  0
 37 36  1  0  0  0  0
 38 32  2  0  0  0  0
 39 28  2  0  0  0  0
 39 38  1  0  0  0  0
M  END
>  <minimizedAffinity>
-6.21578646

$$$$
