
 OpenBabel03242517563D

 46 49  0  0  0  0  0  0  0  0999 V2000
   45.4610   30.1700   47.2810 C   0  0  0  0  0  0  0  0  0  0  0  0
   46.0600   31.2330   46.6950 C   0  0  0  0  0  0  0  0  0  0  0  0
   46.2680   32.3660   47.4590 C   0  0  0  0  0  0  0  0  0  0  0  0
   45.8950   32.4560   48.7800 C   0  0  0  0  0  0  0  0  0  0  0  0
   45.2880   31.3660   49.3640 C   0  0  0  0  0  0  0  0  0  0  0  0
   45.0750   30.2250   48.6040 C   0  0  0  0  0  0  0  0  0  0  0  0
   46.7390   33.2590   47.0720 H   0  0  0  0  0  0  0  0  0  0  0  0
   46.0610   33.3470   49.3740 H   0  0  0  0  0  0  0  0  0  0  0  0
   44.9580   31.3310   50.3850 H   0  0  0  0  0  0  0  0  0  0  0  0
   44.6020   29.3010   48.9620 H   0  0  0  0  0  0  0  0  0  0  0  0
   45.1340   28.8100   46.2370 S   0  0  0  0  0  0  0  0  0  0  0  0
   44.2320   29.1090   45.1120 O   0  0  0  0  0  0  0  0  0  0  0  0
   44.3510   27.8050   47.1160 O   0  0  0  0  0  0  0  0  0  0  0  0
   47.2050   26.9990   46.7030 C   0  0  0  0  0  3  0  0  0  0  0  0
   46.5690   27.8880   45.8520 C   0  0  0  0  0  0  0  0  0  0  0  0
   47.1870   27.9890   44.6020 C   0  0  0  0  0  0  0  0  0  0  0  0
   46.7250   28.6760   43.8930 H   0  0  0  0  0  0  0  0  0  0  0  0
   48.3070   27.3120   44.1890 C   0  0  0  0  0  0  0  0  0  0  0  0
   48.9760   27.3370   43.0210 N   0  0  0  0  0  0  0  0  0  0  0  0
   48.7560   27.9010   42.1720 H   0  0  0  0  0  0  0  0  0  0  0  0
   49.9840   26.4940   43.1530 N   0  0  0  0  0  0  0  0  0  0  0  0
   49.9770   25.9250   44.3910 C   0  0  0  0  0  0  0  0  0  0  0  0
   50.6690   25.1970   44.8050 H   0  0  0  0  0  0  0  0  0  0  0  0
   48.8860   26.4510   45.0800 C   0  0  0  0  0  0  0  0  0  0  0  0
   48.3320   26.2970   46.3340 C   0  0  0  0  0  3  0  0  0  0  0  0
   46.5130   31.3410   45.3850 O   0  0  0  0  0  0  0  0  0  0  0  0
   45.3190   34.2530   43.7870 C   0  0  0  0  0  0  0  0  0  0  0  0
   46.4760   34.7510   43.1550 C   0  0  0  0  0  0  0  0  0  0  0  0
   47.6560   34.0710   43.2910 C   0  0  0  0  0  0  0  0  0  0  0  0
   47.6230   32.9510   44.0370 N   0  0  0  0  0  0  0  0  0  0  0  0
   46.5350   32.4880   44.6270 C   0  0  0  0  0  0  0  0  0  0  0  0
   45.3820   33.1370   44.5030 N   0  0  0  0  0  0  0  0  0  0  0  0
   44.3890   34.7930   43.6760 H   0  0  0  0  0  0  0  0  0  0  0  0
   46.3610   35.6410   42.5990 H   0  0  0  0  0  0  0  0  0  0  0  0
   48.9070   34.5040   42.6640 C   0  0  0  0  0  0  0  0  0  0  0  0
   49.6010   34.7870   43.4690 H   0  0  0  0  0  0  0  0  0  0  0  0
   49.3710   33.6700   42.1060 H   0  0  0  0  0  0  0  0  0  0  0  0
   48.7420   35.6570   41.7240 C   0  0  0  0  0  0  0  0  0  0  0  0
   49.7490   36.1840   41.7550 H   0  0  0  0  0  0  0  0  0  0  0  0
   48.0420   36.4300   41.9980 H   0  0  0  0  0  0  0  0  0  0  0  0
   48.6020   35.2640   40.3230 C   0  0  0  0  0  3  0  0  0  0  0  0
   48.0400   34.3450   39.5510 C   0  0  0  0  0  3  0  0  0  0  0  0
   48.2310   34.1870   38.0540 C   0  0  0  0  0  0  0  0  0  0  0  0
   48.9380   34.9550   37.7230 H   0  0  0  0  0  0  0  0  0  0  0  0
   47.2360   34.3250   37.6310 H   0  0  0  0  0  0  0  0  0  0  0  0
   48.5650   33.1490   37.8380 H   0  0  0  0  0  0  0  0  0  0  0  0
  1  6  1  0  0  0  0
  2  1  2  0  0  0  0
  2  3  1  0  0  0  0
  3  4  2  0  0  0  0
  4  5  1  0  0  0  0
  4  8  1  0  0  0  0
  5  9  1  0  0  0  0
  6 10  1  0  0  0  0
  6  5  2  0  0  0  0
  7  3  1  0  0  0  0
 11 13  2  0  0  0  0
 11  1  1  0  0  0  0
 12 11  2  0  0  0  0
 15 11  1  0  0  0  0
 15 14  2  0  0  0  0
 16 15  1  0  0  0  0
 17 16  1  0  0  0  0
 18 16  2  0  0  0  0
 18 24  1  0  0  0  0
 19 21  1  0  0  0  0
 19 18  1  0  0  0  0
 20 19  1  0  0  0  0
 21 22  2  0  0  0  0
 22 23  1  0  0  0  0
 22 24  1  0  0  0  0
 24 25  2  0  0  0  0
 25 14  1  0  0  0  0
 26  2  1  0  0  0  0
 27 32  1  0  0  0  0
 28 29  1  0  0  0  0
 28 27  2  0  0  0  0
 29 30  2  0  0  0  0
 30 31  1  0  0  0  0
 31 26  1  0  0  0  0
 32 31  2  0  0  0  0
 33 27  1  0  0  0  0
 34 28  1  0  0  0  0
 35 29  1  0  0  0  0
 35 36  1  0  0  0  0
 37 35  1  0  0  0  0
 38 39  1  0  0  0  0
 38 40  1  0  0  0  0
 38 35  1  0  0  0  0
 41 38  1  0  0  0  0
 42 41  2  0  0  0  0
 43 42  1  0  0  0  0
 44 43  1  0  0  0  0
 45 43  1  0  0  0  0
 46 43  1  0  0  0  0
M  END
>  <minimizedAffinity>
-5.55981493

>  <minimizedRMSD>
1.90119231

$$$$
