
 OpenBabel03252508033D

 45 49  0  0  1  0  0  0  0  0999 V2000
   42.1530   33.2750   41.1810 C   0  0  0  0  0  0  0  0  0  0  0  0
   42.8430   34.4380   41.3640 C   0  0  0  0  0  0  0  0  0  0  0  0
   42.1220   35.6470   41.3010 C   0  0  0  0  0  0  0  0  0  0  0  0
   40.7710   35.7100   41.0680 C   0  0  0  0  0  0  0  0  0  0  0  0
   40.0870   34.5390   40.8850 C   0  0  0  0  0  0  0  0  0  0  0  0
   40.7750   33.3620   40.9430 C   0  0  0  0  0  0  0  0  0  0  0  0
   42.5860   36.6190   41.4260 H   0  0  0  0  0  0  0  0  0  0  0  0
   40.2350   36.6370   41.0220 H   0  0  0  0  0  0  0  0  0  0  0  0
   39.0390   34.4920   40.6980 H   0  0  0  0  0  0  0  0  0  0  0  0
   40.2280   32.4170   40.7970 H   0  0  0  0  0  0  0  0  0  0  0  0
   42.8970   31.7650   41.2700 S   0  0  0  0  0  0  0  0  0  0  0  0
   42.0960   30.9600   40.2260 O   0  0  0  0  0  0  0  0  0  0  0  0
   42.6500   31.1200   42.6240 O   0  0  0  0  0  0  0  0  0  0  0  0
   45.2480   30.5870   41.5590 C   0  0  0  0  0  3  0  0  0  0  0  0
   44.3130   31.1600   40.6590 C   0  0  0  0  0  0  0  0  0  0  0  0
   44.7740   31.0640   39.3220 C   0  0  0  0  0  0  0  0  0  0  0  0
   44.0340   31.5010   38.6240 H   0  0  0  0  0  0  0  0  0  0  0  0
   45.9240   30.5310   38.7860 C   0  0  0  0  0  0  0  0  0  0  0  0
   46.4840   30.3710   37.6070 N   0  0  0  0  0  0  0  0  0  0  0  0
   46.0270   30.6970   36.7290 H   0  0  0  0  0  0  0  0  0  0  0  0
   47.6290   29.7610   37.8410 N   0  0  0  0  0  0  0  0  0  0  0  0
   47.8200   29.5230   39.1480 C   0  0  0  0  0  0  0  0  0  0  0  0
   48.6780   29.0380   39.6000 H   0  0  0  0  0  0  0  0  0  0  0  0
   46.6950   30.0300   39.7940 C   0  0  0  0  0  0  0  0  0  0  0  0
   46.4250   30.0280   41.1320 C   0  0  0  0  0  3  0  0  0  0  0  0
   44.2760   34.4770   41.6110 C   0  0  0  0  0  0  0  0  0  0  0  0
   45.1670   34.4720   40.6970 O   0  0  0  0  0  0  0  0  0  0  0  0
   44.6020   34.5250   43.0060 C   0  0  0  0  0  0  0  0  0  0  0  0
   44.2970   35.7550   43.6790 C   0  0  0  0  0  0  0  0  0  0  0  0
   44.5970   35.8130   45.0320 C   0  0  0  0  0  0  0  0  0  0  0  0
   45.1510   34.7230   45.6250 N   0  0  0  0  0  0  0  0  0  0  0  0
   45.4240   33.5680   44.9360 C   0  0  0  0  0  0  0  0  0  0  0  0
   45.1440   33.5190   43.6830 N   0  0  0  0  0  0  0  0  0  0  0  0
   43.8690   36.6480   43.2910 H   0  0  0  0  0  0  0  0  0  0  0  0
   44.4210   36.6670   45.6520 H   0  0  0  0  0  0  0  0  0  0  0  0
   46.0190   32.4370   45.6670 C   0  0  1  0  0  0  0  0  0  0  0  0
   46.9730   32.7220   46.8110 C   0  0  0  0  0  0  0  0  0  0  0  0
   45.5590   32.2880   47.0750 C   0  0  1  0  0  0  0  0  0  0  0  0
   46.2450   31.5230   45.1260 H   0  0  0  0  0  0  0  0  0  0  0  0
   47.2840   33.7730   46.9020 H   0  0  0  0  0  0  0  0  0  0  0  0
   47.7780   32.0070   47.0370 H   0  0  0  0  0  0  0  0  0  0  0  0
   45.4440   31.3020   47.5540 H   0  0  0  0  0  0  0  0  0  0  0  0
   44.7870   33.3530   47.6980 N   0  0  0  0  0  0  0  0  0  0  0  0
   44.8760   33.3380   48.7390 H   0  0  0  0  0  0  0  0  0  0  0  0
   43.7730   33.0980   47.5230 H   0  0  0  0  0  0  0  0  0  0  0  0
  1 11  1  0  0  0  0
  1  2  1  0  0  0  0
  2 26  1  0  0  0  0
  3  2  2  0  0  0  0
  3  7  1  0  0  0  0
  4  3  1  0  0  0  0
  5  6  1  0  0  0  0
  5  4  2  0  0  0  0
  6  1  2  0  0  0  0
  8  4  1  0  0  0  0
  9  5  1  0  0  0  0
 10  6  1  0  0  0  0
 11 13  2  0  0  0  0
 12 11  2  0  0  0  0
 15 11  1  0  0  0  0
 15 14  2  0  0  0  0
 16 15  1  0  0  0  0
 17 16  1  0  0  0  0
 18 16  2  0  0  0  0
 18 24  1  0  0  0  0
 19 21  1  0  0  0  0
 19 18  1  0  0  0  0
 20 19  1  0  0  0  0
 21 22  2  0  0  0  0
 22 23  1  0  0  0  0
 22 24  1  0  0  0  0
 24 25  2  0  0  0  0
 25 14  1  0  0  0  0
 26 28  1  0  0  0  0
 27 26  2  0  0  0  0
 28 29  2  0  0  0  0
 28 33  1  0  0  0  0
 29 30  1  0  0  0  0
 30 31  2  0  0  0  0
 30 35  1  0  0  0  0
 32 31  1  0  0  0  0
 32 36  1  0  0  0  0
 33 32  2  0  0  0  0
 34 29  1  0  0  0  0
 36 39  1  6  0  0  0
 36 37  1  0  0  0  0
 36 38  1  0  0  0  0
 37 40  1  0  0  0  0
 37 41  1  0  0  0  0
 37 38  1  0  0  0  0
 38 42  1  1  0  0  0
 38 43  1  0  0  0  0
 43 44  1  0  0  0  0
 45 43  1  0  0  0  0
M  END
>  <minimizedAffinity>
-5.81735516

>  <minimizedRMSD>
1.4133203

$$$$
