
 OpenBabel03252508033D

 45 49  0  0  1  0  0  0  0  0999 V2000
   42.1700   33.2800   41.2100 C   0  0  0  0  0  0  0  0  0  0  0  0
   42.8590   34.4470   41.3690 C   0  0  0  0  0  0  0  0  0  0  0  0
   42.1390   35.6540   41.2710 C   0  0  0  0  0  0  0  0  0  0  0  0
   40.7890   35.7110   41.0270 C   0  0  0  0  0  0  0  0  0  0  0  0
   40.1060   34.5360   40.8700 C   0  0  0  0  0  0  0  0  0  0  0  0
   40.7930   33.3610   40.9620 C   0  0  0  0  0  0  0  0  0  0  0  0
   42.6020   36.6280   41.3740 H   0  0  0  0  0  0  0  0  0  0  0  0
   40.2540   36.6370   40.9550 H   0  0  0  0  0  0  0  0  0  0  0  0
   39.0590   34.4840   40.6780 H   0  0  0  0  0  0  0  0  0  0  0  0
   40.2470   32.4120   40.8360 H   0  0  0  0  0  0  0  0  0  0  0  0
   42.9130   31.7720   41.3430 S   0  0  0  0  0  0  0  0  0  0  0  0
   42.2390   30.9910   40.1960 O   0  0  0  0  0  0  0  0  0  0  0  0
   42.5240   31.0900   42.6440 O   0  0  0  0  0  0  0  0  0  0  0  0
   45.1830   30.5070   41.8370 C   0  0  0  0  0  3  0  0  0  0  0  0
   44.3930   31.1920   40.8770 C   0  0  0  0  0  0  0  0  0  0  0  0
   45.0400   31.2180   39.6160 C   0  0  0  0  0  0  0  0  0  0  0  0
   44.4130   31.7430   38.8690 H   0  0  0  0  0  0  0  0  0  0  0  0
   46.2470   30.7100   39.1940 C   0  0  0  0  0  0  0  0  0  0  0  0
   46.9670   30.6520   38.0960 N   0  0  0  0  0  0  0  0  0  0  0  0
   46.6450   31.0780   37.2010 H   0  0  0  0  0  0  0  0  0  0  0  0
   48.0590   29.9900   38.4240 N   0  0  0  0  0  0  0  0  0  0  0  0
   48.0590   29.6180   39.7150 C   0  0  0  0  0  0  0  0  0  0  0  0
   48.8360   29.0660   40.2290 H   0  0  0  0  0  0  0  0  0  0  0  0
   46.8600   30.0890   40.2440 C   0  0  0  0  0  0  0  0  0  0  0  0
   46.4010   29.9600   41.5230 C   0  0  0  0  0  3  0  0  0  0  0  0
   44.2910   34.4920   41.6230 C   0  0  0  0  0  0  0  0  0  0  0  0
   45.1860   34.4970   40.7140 O   0  0  0  0  0  0  0  0  0  0  0  0
   44.6090   34.5330   43.0200 C   0  0  0  0  0  0  0  0  0  0  0  0
   44.2930   35.7570   43.6990 C   0  0  0  0  0  0  0  0  0  0  0  0
   44.5850   35.8080   45.0540 C   0  0  0  0  0  0  0  0  0  0  0  0
   45.1430   34.7180   45.6430 N   0  0  0  0  0  0  0  0  0  0  0  0
   45.4260   33.5690   44.9490 C   0  0  0  0  0  0  0  0  0  0  0  0
   45.1540   33.5270   43.6940 N   0  0  0  0  0  0  0  0  0  0  0  0
   43.8610   36.6500   43.3150 H   0  0  0  0  0  0  0  0  0  0  0  0
   44.4010   36.6570   45.6780 H   0  0  0  0  0  0  0  0  0  0  0  0
   46.0240   32.4370   45.6750 C   0  0  1  0  0  0  0  0  0  0  0  0
   46.9770   32.7200   46.8210 C   0  0  0  0  0  0  0  0  0  0  0  0
   45.5650   32.2820   47.0820 C   0  0  1  0  0  0  0  0  0  0  0  0
   46.2530   31.5260   45.1310 H   0  0  0  0  0  0  0  0  0  0  0  0
   47.2860   33.7720   46.9150 H   0  0  0  0  0  0  0  0  0  0  0  0
   47.7840   32.0070   47.0440 H   0  0  0  0  0  0  0  0  0  0  0  0
   45.4520   31.2940   47.5580 H   0  0  0  0  0  0  0  0  0  0  0  0
   44.7900   33.3420   47.7100 N   0  0  0  0  0  0  0  0  0  0  0  0
   44.8780   33.3240   48.7500 H   0  0  0  0  0  0  0  0  0  0  0  0
   43.7760   33.0850   47.5340 H   0  0  0  0  0  0  0  0  0  0  0  0
  1 11  1  0  0  0  0
  1  2  1  0  0  0  0
  2 26  1  0  0  0  0
  3  2  2  0  0  0  0
  3  7  1  0  0  0  0
  4  3  1  0  0  0  0
  5  6  1  0  0  0  0
  5  4  2  0  0  0  0
  6  1  2  0  0  0  0
  8  4  1  0  0  0  0
  9  5  1  0  0  0  0
 10  6  1  0  0  0  0
 11 13  2  0  0  0  0
 12 11  2  0  0  0  0
 15 11  1  0  0  0  0
 15 14  2  0  0  0  0
 16 15  1  0  0  0  0
 17 16  1  0  0  0  0
 18 16  2  0  0  0  0
 18 24  1  0  0  0  0
 19 21  1  0  0  0  0
 19 18  1  0  0  0  0
 20 19  1  0  0  0  0
 21 22  2  0  0  0  0
 22 23  1  0  0  0  0
 22 24  1  0  0  0  0
 24 25  2  0  0  0  0
 25 14  1  0  0  0  0
 26 28  1  0  0  0  0
 27 26  2  0  0  0  0
 28 33  2  0  0  0  0
 28 29  1  0  0  0  0
 29 30  2  0  0  0  0
 30 31  1  0  0  0  0
 30 35  1  0  0  0  0
 32 31  2  0  0  0  0
 32 36  1  0  0  0  0
 33 32  1  0  0  0  0
 34 29  1  0  0  0  0
 36 39  1  6  0  0  0
 36 37  1  0  0  0  0
 36 38  1  0  0  0  0
 37 40  1  0  0  0  0
 37 41  1  0  0  0  0
 37 38  1  0  0  0  0
 38 42  1  1  0  0  0
 38 43  1  0  0  0  0
 43 44  1  0  0  0  0
 45 43  1  0  0  0  0
M  END
>  <minimizedAffinity>
-5.81674242

>  <minimizedRMSD>
1.19008124

$$$$
