
 OpenBabel03242515103D

 39 42  0  0  0  0  0  0  0  0999 V2000
   47.1800   33.0160   43.8550 N   0  0  0  0  0  0  0  0  0  0  0  0
   46.9970   32.0930   44.3450 H   0  0  0  0  0  0  0  0  0  0  0  0
   45.6380   34.0400   45.4980 C   0  0  0  0  0  0  0  0  0  0  0  0
   44.7410   35.0530   45.6810 C   0  0  0  0  0  0  0  0  0  0  0  0
   44.4030   35.9910   44.7240 C   0  0  0  0  0  0  0  0  0  0  0  0
   45.0010   35.9110   43.5020 C   0  0  0  0  0  0  0  0  0  0  0  0
   45.9080   34.9130   43.2680 C   0  0  0  0  0  0  0  0  0  0  0  0
   46.2270   33.9840   44.2520 C   0  0  0  0  0  0  0  0  0  0  0  0
   44.2290   35.1700   46.6370 H   0  0  0  0  0  0  0  0  0  0  0  0
   43.6910   36.7900   44.8790 H   0  0  0  0  0  0  0  0  0  0  0  0
   44.7610   36.6300   42.7250 H   0  0  0  0  0  0  0  0  0  0  0  0
   46.3580   34.8930   42.2740 H   0  0  0  0  0  0  0  0  0  0  0  0
   47.4520   31.4710   47.3620 C   0  0  0  0  0  0  0  0  0  0  0  0
   46.6340   31.2430   48.4650 C   0  0  0  0  0  0  0  0  0  0  0  0
   45.4430   31.9760   48.5770 C   0  0  0  0  0  0  0  0  0  0  0  0
   45.1190   32.8880   47.6100 N   0  0  0  0  0  0  0  0  0  0  0  0
   45.9540   33.0840   46.5350 C   0  0  0  0  0  0  0  0  0  0  0  0
   47.0870   32.3700   46.4510 N   0  0  0  0  0  0  0  0  0  0  0  0
   48.3570   30.8760   47.3300 H   0  0  0  0  0  0  0  0  0  0  0  0
   46.8300   30.5430   49.2570 H   0  0  0  0  0  0  0  0  0  0  0  0
   44.7610   31.8490   49.4090 H   0  0  0  0  0  0  0  0  0  0  0  0
   48.5040   33.0660   42.7850 S   0  0  0  0  0  0  0  0  0  0  0  0
   47.9550   33.2880   41.3700 O   0  0  0  0  0  0  0  0  0  0  0  0
   48.4930   33.5650   40.6040 H   0  0  0  0  0  0  0  0  0  0  0  0
   49.5030   34.1250   43.0770 O   0  0  0  0  0  0  0  0  0  0  0  0
   49.4300   35.0350   42.7100 H   0  0  0  0  0  0  0  0  0  0  0  0
   49.1570   31.5170   42.7480 O   0  0  0  0  0  0  0  0  0  0  0  0
   51.2400   30.3360   42.7120 C   0  0  0  0  0  3  0  0  0  0  0  0
   50.3320   31.2030   42.1310 C   0  0  0  0  0  0  0  0  0  0  0  0
   50.6130   31.7720   40.8930 C   0  0  0  0  0  0  0  0  0  0  0  0
   49.8870   32.4540   40.4450 H   0  0  0  0  0  0  0  0  0  0  0  0
   51.7980   31.4740   40.2400 C   0  0  0  0  0  0  0  0  0  0  0  0
   52.3340   31.8560   39.0670 N   0  0  0  0  0  0  0  0  0  0  0  0
   51.8400   32.5190   38.4280 H   0  0  0  0  0  0  0  0  0  0  0  0
   53.5130   31.2820   38.8880 N   0  0  0  0  0  0  0  0  0  0  0  0
   53.8070   30.4930   39.9380 C   0  0  0  0  0  0  0  0  0  0  0  0
   54.6990   29.8860   40.0940 H   0  0  0  0  0  0  0  0  0  0  0  0
   52.7220   30.6140   40.7920 C   0  0  0  0  0  0  0  0  0  0  0  0
   52.4150   30.0630   42.0260 C   0  0  0  0  0  3  0  0  0  0  0  0
  1  8  1  0  0  0  0
  1  2  1  0  0  0  0
  3  4  1  0  0  0  0
  3 17  1  0  0  0  0
  4  9  1  0  0  0  0
  5 10  1  0  0  0  0
  5  4  2  0  0  0  0
  6  5  1  0  0  0  0
  7  6  2  0  0  0  0
  7  8  1  0  0  0  0
  8  3  2  0  0  0  0
 11  6  1  0  0  0  0
 12  7  1  0  0  0  0
 13 14  1  0  0  0  0
 14 15  2  0  0  0  0
 14 20  1  0  0  0  0
 15 21  1  0  0  0  0
 16 15  1  0  0  0  0
 17 16  2  0  0  0  0
 18 17  1  0  0  0  0
 18 13  2  0  0  0  0
 19 13  1  0  0  0  0
 22 25  1  0  0  0  0
 22  1  1  0  0  0  0
 23 22  1  0  0  0  0
 24 23  1  0  0  0  0
 26 25  1  0  0  0  0
 27 22  1  0  0  0  0
 29 28  1  0  0  0  0
 29 27  1  0  0  0  0
 30 29  2  0  0  0  0
 31 30  1  0  0  0  0
 32 38  2  0  0  0  0
 32 30  1  0  0  0  0
 33 32  1  0  0  0  0
 34 33  1  0  0  0  0
 35 33  1  0  0  0  0
 35 36  2  0  0  0  0
 36 37  1  0  0  0  0
 36 38  1  0  0  0  0
 38 39  1  0  0  0  0
 39 28  2  0  0  0  0
M  END
>  <minimizedAffinity>
-6.2708292

>  <minimizedRMSD>
0.965390444

$$$$
