
 OpenBabel03242515103D

 39 42  0  0  0  0  0  0  0  0999 V2000
   47.1730   33.1890   43.6880 N   0  0  0  0  0  0  0  0  0  0  0  0
   46.8890   32.2140   43.9950 H   0  0  0  0  0  0  0  0  0  0  0  0
   45.6140   34.1570   45.3470 C   0  0  0  0  0  0  0  0  0  0  0  0
   44.7080   35.1580   45.5530 C   0  0  0  0  0  0  0  0  0  0  0  0
   44.3700   36.1190   44.6180 C   0  0  0  0  0  0  0  0  0  0  0  0
   44.9750   36.0760   43.3990 C   0  0  0  0  0  0  0  0  0  0  0  0
   45.8920   35.0920   43.1430 C   0  0  0  0  0  0  0  0  0  0  0  0
   46.2110   34.1390   44.1040 C   0  0  0  0  0  0  0  0  0  0  0  0
   44.1900   35.2450   46.5080 H   0  0  0  0  0  0  0  0  0  0  0  0
   43.6500   36.9080   44.7910 H   0  0  0  0  0  0  0  0  0  0  0  0
   44.7350   36.8150   42.6400 H   0  0  0  0  0  0  0  0  0  0  0  0
   46.3480   35.1020   42.1530 H   0  0  0  0  0  0  0  0  0  0  0  0
   47.3800   31.4780   47.0980 C   0  0  0  0  0  0  0  0  0  0  0  0
   46.6090   31.2830   48.2400 C   0  0  0  0  0  0  0  0  0  0  0  0
   45.4660   32.0780   48.4190 C   0  0  0  0  0  0  0  0  0  0  0  0
   45.1430   33.0150   47.4760 N   0  0  0  0  0  0  0  0  0  0  0  0
   45.9310   33.1760   46.3600 C   0  0  0  0  0  0  0  0  0  0  0  0
   47.0180   32.4040   46.2130 N   0  0  0  0  0  0  0  0  0  0  0  0
   48.2490   30.8350   47.0160 H   0  0  0  0  0  0  0  0  0  0  0  0
   46.8080   30.5670   49.0170 H   0  0  0  0  0  0  0  0  0  0  0  0
   44.8220   31.9790   49.2840 H   0  0  0  0  0  0  0  0  0  0  0  0
   48.6360   33.3250   42.8250 S   0  0  0  0  0  0  0  0  0  0  0  0
   48.2900   33.5630   41.3500 O   0  0  0  0  0  0  0  0  0  0  0  0
   48.9210   33.8830   40.6770 H   0  0  0  0  0  0  0  0  0  0  0  0
   49.5310   34.4170   43.2830 O   0  0  0  0  0  0  0  0  0  0  0  0
   49.4710   35.3330   42.9280 H   0  0  0  0  0  0  0  0  0  0  0  0
   49.3580   31.8070   42.8510 O   0  0  0  0  0  0  0  0  0  0  0  0
   49.6400   30.2420   41.0610 C   0  0  0  0  0  3  0  0  0  0  0  0
   50.0980   31.3000   41.8250 C   0  0  0  0  0  0  0  0  0  0  0  0
   51.3390   31.8680   41.5480 C   0  0  0  0  0  0  0  0  0  0  0  0
   51.6890   32.7030   42.1590 H   0  0  0  0  0  0  0  0  0  0  0  0
   52.1160   31.3760   40.5110 C   0  0  0  0  0  0  0  0  0  0  0  0
   53.3220   31.7080   40.0160 N   0  0  0  0  0  0  0  0  0  0  0  0
   53.8860   32.4890   40.4240 H   0  0  0  0  0  0  0  0  0  0  0  0
   53.6380   30.9230   39.0010 N   0  0  0  0  0  0  0  0  0  0  0  0
   52.6500   30.0370   38.7770 C   0  0  0  0  0  0  0  0  0  0  0  0
   52.6020   29.2570   38.0150 H   0  0  0  0  0  0  0  0  0  0  0  0
   51.6880   30.3240   39.7340 C   0  0  0  0  0  0  0  0  0  0  0  0
   50.4490   29.7780   40.0320 C   0  0  0  0  0  3  0  0  0  0  0  0
  1  2  1  0  0  0  0
  1  8  1  0  0  0  0
  3  4  1  0  0  0  0
  3 17  1  0  0  0  0
  4  9  1  0  0  0  0
  5 10  1  0  0  0  0
  5  4  2  0  0  0  0
  6  5  1  0  0  0  0
  7  6  2  0  0  0  0
  7  8  1  0  0  0  0
  8  3  2  0  0  0  0
 11  6  1  0  0  0  0
 12  7  1  0  0  0  0
 13 14  1  0  0  0  0
 14 15  2  0  0  0  0
 14 20  1  0  0  0  0
 15 21  1  0  0  0  0
 16 15  1  0  0  0  0
 17 16  2  0  0  0  0
 18 17  1  0  0  0  0
 18 13  2  0  0  0  0
 19 13  1  0  0  0  0
 22 27  1  0  0  0  0
 22 25  1  0  0  0  0
 22  1  1  0  0  0  0
 23 22  1  0  0  0  0
 24 23  1  0  0  0  0
 26 25  1  0  0  0  0
 28 29  1  0  0  0  0
 29 27  1  0  0  0  0
 30 29  2  0  0  0  0
 30 31  1  0  0  0  0
 32 30  1  0  0  0  0
 33 34  1  0  0  0  0
 33 32  1  0  0  0  0
 35 33  1  0  0  0  0
 36 35  2  0  0  0  0
 36 38  1  0  0  0  0
 37 36  1  0  0  0  0
 38 39  1  0  0  0  0
 38 32  2  0  0  0  0
 39 28  2  0  0  0  0
M  END
>  <minimizedAffinity>
-6.03854656

>  <minimizedRMSD>
1.52274108

$$$$
