
 OpenBabel03242517563D

 46 49  0  0  0  0  0  0  0  0999 V2000
   45.5030   30.1620   47.2980 C   0  0  0  0  0  0  0  0  0  0  0  0
   46.0610   31.2380   46.6950 C   0  0  0  0  0  0  0  0  0  0  0  0
   46.2280   32.3890   47.4430 C   0  0  0  0  0  0  0  0  0  0  0  0
   45.8530   32.4840   48.7630 C   0  0  0  0  0  0  0  0  0  0  0  0
   45.2870   31.3810   49.3630 C   0  0  0  0  0  0  0  0  0  0  0  0
   45.1160   30.2220   48.6200 C   0  0  0  0  0  0  0  0  0  0  0  0
   46.6640   33.2930   47.0420 H   0  0  0  0  0  0  0  0  0  0  0  0
   45.9860   33.3890   49.3430 H   0  0  0  0  0  0  0  0  0  0  0  0
   44.9610   31.3490   50.3860 H   0  0  0  0  0  0  0  0  0  0  0  0
   44.6790   29.2860   48.9920 H   0  0  0  0  0  0  0  0  0  0  0  0
   45.2250   28.7760   46.2730 S   0  0  0  0  0  0  0  0  0  0  0  0
   44.4220   29.0570   45.0710 O   0  0  0  0  0  0  0  0  0  0  0  0
   44.3500   27.8180   47.1190 O   0  0  0  0  0  0  0  0  0  0  0  0
   46.9700   26.6430   46.7150 C   0  0  0  0  0  3  0  0  0  0  0  0
   46.6630   27.8100   46.0330 C   0  0  0  0  0  0  0  0  0  0  0  0
   47.6310   28.1650   45.0910 C   0  0  0  0  0  0  0  0  0  0  0  0
   47.4370   29.0780   44.5240 H   0  0  0  0  0  0  0  0  0  0  0  0
   48.7890   27.4840   44.8130 C   0  0  0  0  0  0  0  0  0  0  0  0
   49.7770   27.7380   43.9350 N   0  0  0  0  0  0  0  0  0  0  0  0
   49.8500   28.5390   43.2710 H   0  0  0  0  0  0  0  0  0  0  0  0
   50.6570   26.7630   44.0750 N   0  0  0  0  0  0  0  0  0  0  0  0
   50.2510   25.8810   45.0320 C   0  0  0  0  0  0  0  0  0  0  0  0
   50.7510   24.9800   45.3770 H   0  0  0  0  0  0  0  0  0  0  0  0
   49.0310   26.3400   45.5230 C   0  0  0  0  0  0  0  0  0  0  0  0
   48.1210   25.9240   46.4710 C   0  0  0  0  0  3  0  0  0  0  0  0
   46.5080   31.3440   45.3830 O   0  0  0  0  0  0  0  0  0  0  0  0
   45.3140   34.2520   43.7780 C   0  0  0  0  0  0  0  0  0  0  0  0
   46.4730   34.7520   43.1510 C   0  0  0  0  0  0  0  0  0  0  0  0
   47.6530   34.0760   43.2930 C   0  0  0  0  0  0  0  0  0  0  0  0
   47.6200   32.9560   44.0380 N   0  0  0  0  0  0  0  0  0  0  0  0
   46.5300   32.4910   44.6240 C   0  0  0  0  0  0  0  0  0  0  0  0
   45.3760   33.1370   44.4950 N   0  0  0  0  0  0  0  0  0  0  0  0
   44.3830   34.7900   43.6620 H   0  0  0  0  0  0  0  0  0  0  0  0
   46.3580   35.6420   42.5940 H   0  0  0  0  0  0  0  0  0  0  0  0
   48.9060   34.5110   42.6710 C   0  0  0  0  0  0  0  0  0  0  0  0
   49.5950   34.7980   43.4790 H   0  0  0  0  0  0  0  0  0  0  0  0
   49.3760   33.6780   42.1160 H   0  0  0  0  0  0  0  0  0  0  0  0
   48.7420   35.6620   41.7270 C   0  0  0  0  0  0  0  0  0  0  0  0
   49.7490   36.1890   41.7590 H   0  0  0  0  0  0  0  0  0  0  0  0
   48.0410   36.4350   41.9990 H   0  0  0  0  0  0  0  0  0  0  0  0
   48.6040   35.2660   40.3280 C   0  0  0  0  0  3  0  0  0  0  0  0
   48.0380   34.3480   39.5560 C   0  0  0  0  0  3  0  0  0  0  0  0
   48.2330   34.1840   38.0610 C   0  0  0  0  0  0  0  0  0  0  0  0
   48.9470   34.9460   37.7300 H   0  0  0  0  0  0  0  0  0  0  0  0
   47.2410   34.3290   37.6340 H   0  0  0  0  0  0  0  0  0  0  0  0
   48.5600   33.1430   37.8490 H   0  0  0  0  0  0  0  0  0  0  0  0
  1  6  1  0  0  0  0
  2  1  2  0  0  0  0
  2  3  1  0  0  0  0
  3  4  2  0  0  0  0
  4  8  1  0  0  0  0
  4  5  1  0  0  0  0
  5  9  1  0  0  0  0
  6 10  1  0  0  0  0
  6  5  2  0  0  0  0
  7  3  1  0  0  0  0
 11 13  2  0  0  0  0
 11  1  1  0  0  0  0
 12 11  2  0  0  0  0
 15 11  1  0  0  0  0
 15 14  2  0  0  0  0
 16 15  1  0  0  0  0
 17 16  1  0  0  0  0
 18 16  2  0  0  0  0
 18 24  1  0  0  0  0
 19 21  1  0  0  0  0
 19 18  1  0  0  0  0
 20 19  1  0  0  0  0
 21 22  2  0  0  0  0
 22 23  1  0  0  0  0
 22 24  1  0  0  0  0
 24 25  2  0  0  0  0
 25 14  1  0  0  0  0
 26  2  1  0  0  0  0
 27 32  1  0  0  0  0
 28 29  1  0  0  0  0
 28 27  2  0  0  0  0
 29 30  2  0  0  0  0
 30 31  1  0  0  0  0
 31 26  1  0  0  0  0
 32 31  2  0  0  0  0
 33 27  1  0  0  0  0
 34 28  1  0  0  0  0
 35 29  1  0  0  0  0
 35 36  1  0  0  0  0
 37 35  1  0  0  0  0
 38 39  1  0  0  0  0
 38 40  1  0  0  0  0
 38 35  1  0  0  0  0
 41 38  1  0  0  0  0
 42 41  2  0  0  0  0
 43 42  1  0  0  0  0
 44 43  1  0  0  0  0
 45 43  1  0  0  0  0
 46 43  1  0  0  0  0
M  END
>  <minimizedAffinity>
-5.58873177

>  <minimizedRMSD>
2.07779264

$$$$
