
 OpenBabel03252508033D

 45 49  0  0  1  0  0  0  0  0999 V2000
   42.1310   33.3080   41.0470 C   0  0  0  0  0  0  0  0  0  0  0  0
   42.8310   34.4390   41.3490 C   0  0  0  0  0  0  0  0  0  0  0  0
   42.1180   35.6520   41.4250 C   0  0  0  0  0  0  0  0  0  0  0  0
   40.7660   35.7490   41.2110 C   0  0  0  0  0  0  0  0  0  0  0  0
   40.0720   34.6100   40.9090 C   0  0  0  0  0  0  0  0  0  0  0  0
   40.7510   33.4290   40.8320 C   0  0  0  0  0  0  0  0  0  0  0  0
   42.5910   36.6020   41.6510 H   0  0  0  0  0  0  0  0  0  0  0  0
   40.2370   36.6790   41.2710 H   0  0  0  0  0  0  0  0  0  0  0  0
   39.0220   34.5900   40.7270 H   0  0  0  0  0  0  0  0  0  0  0  0
   40.1970   32.5090   40.5880 H   0  0  0  0  0  0  0  0  0  0  0  0
   42.8640   31.7910   40.9650 S   0  0  0  0  0  0  0  0  0  0  0  0
   41.7500   30.9410   40.3210 O   0  0  0  0  0  0  0  0  0  0  0  0
   43.1110   31.2350   42.3570 O   0  0  0  0  0  0  0  0  0  0  0  0
   44.5460   29.8680   40.2730 C   0  0  0  0  0  3  0  0  0  0  0  0
   43.9770   31.1250   39.9350 C   0  0  0  0  0  0  0  0  0  0  0  0
   44.4660   31.5790   38.6830 C   0  0  0  0  0  0  0  0  0  0  0  0
   44.0080   32.5530   38.4200 H   0  0  0  0  0  0  0  0  0  0  0  0
   45.3560   31.0270   37.7930 C   0  0  0  0  0  0  0  0  0  0  0  0
   45.8980   31.3130   36.6290 N   0  0  0  0  0  0  0  0  0  0  0  0
   45.6720   32.1920   36.1150 H   0  0  0  0  0  0  0  0  0  0  0  0
   46.6940   30.3010   36.3520 N   0  0  0  0  0  0  0  0  0  0  0  0
   46.6790   29.3640   37.3150 C   0  0  0  0  0  0  0  0  0  0  0  0
   47.2430   28.4390   37.3280 H   0  0  0  0  0  0  0  0  0  0  0  0
   45.7920   29.8300   38.2820 C   0  0  0  0  0  0  0  0  0  0  0  0
   45.4420   29.2290   39.4560 C   0  0  0  0  0  3  0  0  0  0  0  0
   44.2660   34.4410   41.5860 C   0  0  0  0  0  0  0  0  0  0  0  0
   45.1500   34.3940   40.6670 O   0  0  0  0  0  0  0  0  0  0  0  0
   44.6030   34.5070   42.9780 C   0  0  0  0  0  0  0  0  0  0  0  0
   44.3100   35.7470   43.6360 C   0  0  0  0  0  0  0  0  0  0  0  0
   44.6210   35.8220   44.9860 C   0  0  0  0  0  0  0  0  0  0  0  0
   45.1730   34.7370   45.5900 N   0  0  0  0  0  0  0  0  0  0  0  0
   45.4340   33.5710   44.9150 C   0  0  0  0  0  0  0  0  0  0  0  0
   45.1440   33.5070   43.6650 N   0  0  0  0  0  0  0  0  0  0  0  0
   43.8840   36.6370   43.2400 H   0  0  0  0  0  0  0  0  0  0  0  0
   44.4550   36.6850   45.5960 H   0  0  0  0  0  0  0  0  0  0  0  0
   46.0280   32.4470   45.6560 C   0  0  1  0  0  0  0  0  0  0  0  0
   46.9690   32.7410   46.8090 C   0  0  0  0  0  0  0  0  0  0  0  0
   45.5550   32.3010   47.0600 C   0  0  1  0  0  0  0  0  0  0  0  0
   46.2640   31.5320   45.1220 H   0  0  0  0  0  0  0  0  0  0  0  0
   47.2740   33.7950   46.8980 H   0  0  0  0  0  0  0  0  0  0  0  0
   47.7750   32.0330   47.0460 H   0  0  0  0  0  0  0  0  0  0  0  0
   45.4400   31.3170   47.5420 H   0  0  0  0  0  0  0  0  0  0  0  0
   44.7710   33.3650   47.6710 N   0  0  0  0  0  0  0  0  0  0  0  0
   44.8490   33.3540   48.7130 H   0  0  0  0  0  0  0  0  0  0  0  0
   43.7600   33.1030   47.4880 H   0  0  0  0  0  0  0  0  0  0  0  0
  1  2  1  0  0  0  0
  2  3  2  0  0  0  0
  2 26  1  0  0  0  0
  3  7  1  0  0  0  0
  4  8  1  0  0  0  0
  4  3  1  0  0  0  0
  5  4  2  0  0  0  0
  6  5  1  0  0  0  0
  6  1  2  0  0  0  0
  9  5  1  0  0  0  0
 10  6  1  0  0  0  0
 11  1  1  0  0  0  0
 11 13  2  0  0  0  0
 12 11  2  0  0  0  0
 15 14  1  0  0  0  0
 15 11  1  0  0  0  0
 16 15  2  0  0  0  0
 17 16  1  0  0  0  0
 18 24  2  0  0  0  0
 18 16  1  0  0  0  0
 19 18  1  0  0  0  0
 20 19  1  0  0  0  0
 21 19  1  0  0  0  0
 21 22  2  0  0  0  0
 22 23  1  0  0  0  0
 22 24  1  0  0  0  0
 24 25  1  0  0  0  0
 25 14  2  0  0  0  0
 26 28  1  0  0  0  0
 27 26  2  0  0  0  0
 28 29  2  0  0  0  0
 28 33  1  0  0  0  0
 29 30  1  0  0  0  0
 30 31  2  0  0  0  0
 30 35  1  0  0  0  0
 32 31  1  0  0  0  0
 32 36  1  0  0  0  0
 33 32  2  0  0  0  0
 34 29  1  0  0  0  0
 36 39  1  6  0  0  0
 36 37  1  0  0  0  0
 36 38  1  0  0  0  0
 37 40  1  0  0  0  0
 37 41  1  0  0  0  0
 37 38  1  0  0  0  0
 38 42  1  1  0  0  0
 38 43  1  0  0  0  0
 43 44  1  0  0  0  0
 45 43  1  0  0  0  0
M  END
>  <minimizedAffinity>
-5.91759396

>  <minimizedRMSD>
2.36798978

$$$$
