
 OpenBabel03252508043D

 45 49  0  0  1  0  0  0  0  0999 V2000
   42.1020   33.2630   41.1340 C   0  0  0  0  0  0  0  0  0  0  0  0
   42.8130   34.4110   41.3290 C   0  0  0  0  0  0  0  0  0  0  0  0
   42.1120   35.6320   41.2940 C   0  0  0  0  0  0  0  0  0  0  0  0
   40.7600   35.7210   41.0780 C   0  0  0  0  0  0  0  0  0  0  0  0
   40.0540   34.5650   40.8830 C   0  0  0  0  0  0  0  0  0  0  0  0
   40.7230   33.3760   40.9130 C   0  0  0  0  0  0  0  0  0  0  0  0
   42.5940   36.5940   41.4310 H   0  0  0  0  0  0  0  0  0  0  0  0
   40.2390   36.6580   41.0530 H   0  0  0  0  0  0  0  0  0  0  0  0
   39.0030   34.5380   40.7070 H   0  0  0  0  0  0  0  0  0  0  0  0
   40.1590   32.4430   40.7570 H   0  0  0  0  0  0  0  0  0  0  0  0
   42.8210   31.7380   41.1900 S   0  0  0  0  0  0  0  0  0  0  0  0
   41.8540   30.9050   40.3250 O   0  0  0  0  0  0  0  0  0  0  0  0
   42.7740   31.1690   42.5980 O   0  0  0  0  0  0  0  0  0  0  0  0
   44.9820   30.2100   41.1330 C   0  0  0  0  0  3  0  0  0  0  0  0
   44.1150   31.0660   40.4030 C   0  0  0  0  0  0  0  0  0  0  0  0
   44.5190   31.1550   39.0470 C   0  0  0  0  0  0  0  0  0  0  0  0
   43.8300   31.8130   38.4800 H   0  0  0  0  0  0  0  0  0  0  0  0
   45.5620   30.5760   38.3610 C   0  0  0  0  0  0  0  0  0  0  0  0
   46.0570   30.5590   37.1440 N   0  0  0  0  0  0  0  0  0  0  0  0
   45.6280   31.1040   36.3650 H   0  0  0  0  0  0  0  0  0  0  0  0
   47.1050   29.7630   37.2010 N   0  0  0  0  0  0  0  0  0  0  0  0
   47.2980   29.2630   38.4330 C   0  0  0  0  0  0  0  0  0  0  0  0
   48.0860   28.5880   38.7410 H   0  0  0  0  0  0  0  0  0  0  0  0
   46.2790   29.7940   39.2190 C   0  0  0  0  0  0  0  0  0  0  0  0
   46.0490   29.5820   40.5470 C   0  0  0  0  0  3  0  0  0  0  0  0
   44.2500   34.4210   41.5600 C   0  0  0  0  0  0  0  0  0  0  0  0
   45.1300   34.3780   40.6380 O   0  0  0  0  0  0  0  0  0  0  0  0
   44.5920   34.4900   42.9510 C   0  0  0  0  0  0  0  0  0  0  0  0
   44.3080   35.7340   43.6050 C   0  0  0  0  0  0  0  0  0  0  0  0
   44.6240   35.8120   44.9540 C   0  0  0  0  0  0  0  0  0  0  0  0
   45.1720   34.7270   45.5590 N   0  0  0  0  0  0  0  0  0  0  0  0
   45.4240   33.5570   44.8880 C   0  0  0  0  0  0  0  0  0  0  0  0
   45.1300   33.4900   43.6390 N   0  0  0  0  0  0  0  0  0  0  0  0
   43.8860   36.6260   43.2070 H   0  0  0  0  0  0  0  0  0  0  0  0
   44.4650   36.6790   45.5610 H   0  0  0  0  0  0  0  0  0  0  0  0
   46.0130   32.4320   45.6320 C   0  0  1  0  0  0  0  0  0  0  0  0
   46.9690   32.7250   46.7720 C   0  0  0  0  0  0  0  0  0  0  0  0
   45.5540   32.3010   47.0410 C   0  0  1  0  0  0  0  0  0  0  0  0
   46.2350   31.5100   45.1020 H   0  0  0  0  0  0  0  0  0  0  0  0
   47.2860   33.7760   46.8510 H   0  0  0  0  0  0  0  0  0  0  0  0
   47.7710   32.0100   47.0060 H   0  0  0  0  0  0  0  0  0  0  0  0
   45.4340   31.3210   47.5320 H   0  0  0  0  0  0  0  0  0  0  0  0
   44.7870   33.3770   47.6520 N   0  0  0  0  0  0  0  0  0  0  0  0
   44.8760   33.3740   48.6930 H   0  0  0  0  0  0  0  0  0  0  0  0
   43.7720   33.1250   47.4810 H   0  0  0  0  0  0  0  0  0  0  0  0
  1 11  1  0  0  0  0
  1  2  1  0  0  0  0
  2 26  1  0  0  0  0
  3  2  2  0  0  0  0
  3  7  1  0  0  0  0
  4  3  1  0  0  0  0
  5  6  1  0  0  0  0
  5  4  2  0  0  0  0
  6  1  2  0  0  0  0
  8  4  1  0  0  0  0
  9  5  1  0  0  0  0
 10  6  1  0  0  0  0
 11 13  2  0  0  0  0
 12 11  2  0  0  0  0
 15 14  2  0  0  0  0
 15 11  1  0  0  0  0
 16 15  1  0  0  0  0
 17 16  1  0  0  0  0
 18 16  2  0  0  0  0
 18 24  1  0  0  0  0
 19 21  1  0  0  0  0
 19 18  1  0  0  0  0
 20 19  1  0  0  0  0
 21 22  2  0  0  0  0
 22 23  1  0  0  0  0
 22 24  1  0  0  0  0
 24 25  2  0  0  0  0
 25 14  1  0  0  0  0
 26 28  1  0  0  0  0
 27 26  2  0  0  0  0
 28 29  2  0  0  0  0
 28 33  1  0  0  0  0
 29 30  1  0  0  0  0
 30 31  2  0  0  0  0
 30 35  1  0  0  0  0
 32 31  1  0  0  0  0
 32 36  1  0  0  0  0
 33 32  2  0  0  0  0
 34 29  1  0  0  0  0
 36 39  1  6  0  0  0
 36 37  1  0  0  0  0
 36 38  1  0  0  0  0
 37 40  1  0  0  0  0
 37 41  1  0  0  0  0
 37 38  1  0  0  0  0
 38 42  1  1  0  0  0
 38 43  1  0  0  0  0
 43 44  1  0  0  0  0
 45 43  1  0  0  0  0
M  END
>  <minimizedAffinity>
-5.82654715

>  <minimizedRMSD>
1.75367033

$$$$
