
 OpenBabel03242514193D

 52 55  0  0  0  0  0  0  0  0999 V2000
   46.8410   32.6880   45.0790 O   0  0  0  0  0  0  0  0  0  0  0  0
   46.1620   34.5620   43.6170 C   0  0  0  0  0  0  0  0  0  0  0  0
   46.1620   33.7870   44.7520 C   0  0  0  0  0  0  0  0  0  0  0  0
   45.3280   34.1750   45.7670 C   0  0  0  0  0  0  0  0  0  0  0  0
   44.5550   35.2730   45.6210 N   0  0  0  0  0  0  0  0  0  0  0  0
   44.5550   36.0210   44.5230 C   0  0  0  0  0  0  0  0  0  0  0  0
   45.3610   35.6460   43.5460 N   0  0  0  0  0  0  0  0  0  0  0  0
   45.1850   33.7050   46.7290 H   0  0  0  0  0  0  0  0  0  0  0  0
   43.9270   36.8970   44.4250 H   0  0  0  0  0  0  0  0  0  0  0  0
   47.0040   34.1080   42.5030 C   0  0  0  0  0  0  0  0  0  0  0  0
   48.3900   34.6770   42.5940 C   0  0  0  0  0  0  0  0  0  0  0  0
   48.7090   35.5660   41.4790 C   0  0  0  0  0  0  0  0  0  0  0  0
   48.5020   34.9000   40.1380 C   0  0  0  0  0  0  0  0  0  0  0  0
   47.2620   34.0980   40.0520 C   0  0  0  0  0  0  0  0  0  0  0  0
   46.3320   34.3980   41.2080 C   0  0  0  0  0  0  0  0  0  0  0  0
   47.1810   33.0220   42.6210 H   0  0  0  0  0  0  0  0  0  0  0  0
   48.4590   35.2530   43.5400 H   0  0  0  0  0  0  0  0  0  0  0  0
   49.1690   33.8990   42.6720 H   0  0  0  0  0  0  0  0  0  0  0  0
   48.0790   36.4860   41.5430 H   0  0  0  0  0  0  0  0  0  0  0  0
   49.7900   35.8620   41.5090 H   0  0  0  0  0  0  0  0  0  0  0  0
   48.4220   35.7570   39.4060 H   0  0  0  0  0  0  0  0  0  0  0  0
   49.4120   34.3440   39.7890 H   0  0  0  0  0  0  0  0  0  0  0  0
   47.4400   32.9880   39.9820 H   0  0  0  0  0  0  0  0  0  0  0  0
   46.6820   34.3430   39.1220 H   0  0  0  0  0  0  0  0  0  0  0  0
   45.3830   33.8430   41.0860 H   0  0  0  0  0  0  0  0  0  0  0  0
   46.1710   35.5070   41.1650 H   0  0  0  0  0  0  0  0  0  0  0  0
   47.2900   32.1630   46.2610 C   0  0  0  0  0  0  0  0  0  0  0  0
   48.3840   32.3550   46.3200 H   0  0  0  0  0  0  0  0  0  0  0  0
   46.8720   32.5310   47.1970 H   0  0  0  0  0  0  0  0  0  0  0  0
   47.1710   30.6510   46.3340 C   0  0  0  0  0  0  0  0  0  0  0  0
   47.1380   30.3510   47.4040 H   0  0  0  0  0  0  0  0  0  0  0  0
   48.0960   30.1650   45.9290 H   0  0  0  0  0  0  0  0  0  0  0  0
   46.0420   30.1440   45.5820 N   0  0  0  0  0  0  0  0  0  0  0  0
   45.5990   30.9680   45.1150 H   0  0  0  0  0  0  0  0  0  0  0  0
   44.8160   29.7050   46.7440 S   0  0  0  0  0  0  0  0  0  0  0  0
   43.5970   29.1720   46.0520 O   0  0  0  0  0  0  0  0  0  0  0  0
   43.2610   29.4410   45.1620 H   0  0  0  0  0  0  0  0  0  0  0  0
   44.4720   30.9520   47.5060 O   0  0  0  0  0  0  0  0  0  0  0  0
   43.7360   31.5730   47.2370 H   0  0  0  0  0  0  0  0  0  0  0  0
   45.3870   28.6040   47.8490 O   0  0  0  0  0  0  0  0  0  0  0  0
   44.1690   26.4410   48.0050 C   0  0  0  0  0  0  0  0  0  0  0  0
   45.2730   27.2370   47.7790 C   0  0  0  0  0  0  0  0  0  0  0  0
   46.4740   26.6140   47.4270 C   0  0  0  0  0  0  0  0  0  0  0  0
   47.4050   27.1000   47.2240 H   0  0  0  0  0  0  0  0  0  0  0  0
   46.5030   25.2220   47.3180 C   0  0  0  0  0  0  0  0  0  0  0  0
   47.4870   24.3500   47.0030 N   0  0  0  0  0  0  0  0  0  0  0  0
   48.4710   24.5940   46.7690 H   0  0  0  0  0  0  0  0  0  0  0  0
   47.0370   23.1110   47.0290 N   0  0  0  0  0  0  0  0  0  0  0  0
   45.7350   23.0960   47.3620 C   0  0  0  0  0  0  0  0  0  0  0  0
   45.0570   22.2370   47.4740 H   0  0  0  0  0  0  0  0  0  0  0  0
   45.3870   24.4170   47.5460 C   0  0  0  0  0  0  0  0  0  0  0  0
   44.2240   25.0760   47.8920 C   0  0  0  0  0  0  0  0  0  0  0  0
  1 27  1  0  0  0  0
  2  3  1  0  0  0  0
  3  1  1  0  0  0  0
  3  4  2  0  0  0  0
  4  8  1  0  0  0  0
  5  4  1  0  0  0  0
  6  5  2  0  0  0  0
  7  2  2  0  0  0  0
  7  6  1  0  0  0  0
  9  6  1  0  0  0  0
 10 11  1  0  0  0  0
 10 16  1  0  0  0  0
 10  2  1  0  0  0  0
 11 18  1  0  0  0  0
 11 17  1  0  0  0  0
 12 20  1  0  0  0  0
 12 19  1  0  0  0  0
 12 11  1  0  0  0  0
 13 12  1  0  0  0  0
 14 13  1  0  0  0  0
 14 15  1  0  0  0  0
 15 10  1  0  0  0  0
 21 13  1  0  0  0  0
 22 13  1  0  0  0  0
 23 14  1  0  0  0  0
 24 14  1  0  0  0  0
 25 15  1  0  0  0  0
 26 15  1  0  0  0  0
 27 28  1  0  0  0  0
 27 30  1  0  0  0  0
 27 29  1  0  0  0  0
 30 31  1  0  0  0  0
 32 30  1  0  0  0  0
 33 30  1  0  0  0  0
 33 35  1  0  0  0  0
 34 33  1  0  0  0  0
 35 38  1  0  0  0  0
 35 40  1  0  0  0  0
 36 35  1  0  0  0  0
 37 36  1  0  0  0  0
 39 38  1  0  0  0  0
 42 40  1  0  0  0  0
 42 41  2  0  0  0  0
 43 42  1  0  0  0  0
 44 43  1  0  0  0  0
 45 43  2  0  0  0  0
 45 51  1  0  0  0  0
 46 48  1  0  0  0  0
 46 45  1  0  0  0  0
 47 46  1  0  0  0  0
 48 49  2  0  0  0  0
 49 50  1  0  0  0  0
 49 51  1  0  0  0  0
 51 52  2  0  0  0  0
 52 41  1  0  0  0  0
M  END
>  <minimizedAffinity>
-6.02631092

>  <minimizedRMSD>
1.12456012

$$$$
