
 OpenBabel03252508053D

 45 49  0  0  1  0  0  0  0  0999 V2000
   36.7360   29.3130   38.6070 C   0  0  0  0  0  0  0  0  0  0  0  0
   36.0120   29.4920   39.7490 C   0  0  0  0  0  0  0  0  0  0  0  0
   34.6240   29.2590   39.6900 C   0  0  0  0  0  0  0  0  0  0  0  0
   33.9720   28.8620   38.5500 C   0  0  0  0  0  0  0  0  0  0  0  0
   34.7050   28.6840   37.4090 C   0  0  0  0  0  0  0  0  0  0  0  0
   36.0500   28.9080   37.4530 C   0  0  0  0  0  0  0  0  0  0  0  0
   33.9670   29.3840   40.5440 H   0  0  0  0  0  0  0  0  0  0  0  0
   32.9140   28.6890   38.5190 H   0  0  0  0  0  0  0  0  0  0  0  0
   34.2850   28.3790   36.4780 H   0  0  0  0  0  0  0  0  0  0  0  0
   36.6460   28.7670   36.5370 H   0  0  0  0  0  0  0  0  0  0  0  0
   38.4090   29.5240   38.5590 S   0  0  0  0  0  0  0  0  0  0  0  0
   38.7000   29.3720   37.0520 O   0  0  0  0  0  0  0  0  0  0  0  0
   39.1170   28.3860   39.2740 O   0  0  0  0  0  0  0  0  0  0  0  0
   39.5080   31.5550   39.8520 C   0  0  0  0  0  3  0  0  0  0  0  0
   39.3850   30.8610   38.6200 C   0  0  0  0  0  0  0  0  0  0  0  0
   40.2030   31.4530   37.6240 C   0  0  0  0  0  0  0  0  0  0  0  0
   40.1120   30.8990   36.6690 H   0  0  0  0  0  0  0  0  0  0  0  0
   41.0510   32.5350   37.6600 C   0  0  0  0  0  0  0  0  0  0  0  0
   41.8530   33.1910   36.8500 N   0  0  0  0  0  0  0  0  0  0  0  0
   41.9780   32.9150   35.8520 H   0  0  0  0  0  0  0  0  0  0  0  0
   42.3720   34.1610   37.5750 N   0  0  0  0  0  0  0  0  0  0  0  0
   41.9200   34.1450   38.8410 C   0  0  0  0  0  0  0  0  0  0  0  0
   42.1910   34.8320   39.6330 H   0  0  0  0  0  0  0  0  0  0  0  0
   41.0400   33.0690   38.9150 C   0  0  0  0  0  0  0  0  0  0  0  0
   40.3260   32.6450   39.9980 C   0  0  0  0  0  3  0  0  0  0  0  0
   36.6090   29.9170   41.0050 C   0  0  0  0  0  0  0  0  0  0  0  0
   36.6270   31.1210   41.4260 O   0  0  0  0  0  0  0  0  0  0  0  0
   37.1860   28.8330   41.7450 C   0  0  0  0  0  0  0  0  0  0  0  0
   38.2940   29.1710   42.5910 C   0  0  0  0  0  0  0  0  0  0  0  0
   38.8560   28.1340   43.3220 C   0  0  0  0  0  0  0  0  0  0  0  0
   38.3330   26.8870   43.1930 N   0  0  0  0  0  0  0  0  0  0  0  0
   37.2700   26.6150   42.3690 C   0  0  0  0  0  0  0  0  0  0  0  0
   36.7530   27.5790   41.6950 N   0  0  0  0  0  0  0  0  0  0  0  0
   38.7620   30.1140   42.7460 H   0  0  0  0  0  0  0  0  0  0  0  0
   39.6840   28.2480   43.9890 H   0  0  0  0  0  0  0  0  0  0  0  0
   36.7680   25.2330   42.3010 C   0  0  1  0  0  0  0  0  0  0  0  0
   36.7130   24.5360   40.9550 C   0  0  0  0  0  0  0  0  0  0  0  0
   37.7910   24.2110   41.9490 C   0  0  1  0  0  0  0  0  0  0  0  0
   35.9840   24.9250   42.9860 H   0  0  0  0  0  0  0  0  0  0  0  0
   36.8990   25.1900   40.0890 H   0  0  0  0  0  0  0  0  0  0  0  0
   35.9410   23.7760   40.7690 H   0  0  0  0  0  0  0  0  0  0  0  0
   37.7670   23.1890   42.3610 H   0  0  0  0  0  0  0  0  0  0  0  0
   39.0980   24.6340   41.4680 N   0  0  0  0  0  0  0  0  0  0  0  0
   39.5550   23.8960   40.8860 H   0  0  0  0  0  0  0  0  0  0  0  0
   39.7060   24.6910   42.3340 H   0  0  0  0  0  0  0  0  0  0  0  0
  1  2  1  0  0  0  0
  2 26  1  0  0  0  0
  3  2  2  0  0  0  0
  3  7  1  0  0  0  0
  4  3  1  0  0  0  0
  5  6  1  0  0  0  0
  5  4  2  0  0  0  0
  6  1  2  0  0  0  0
  8  4  1  0  0  0  0
  9  5  1  0  0  0  0
 10  6  1  0  0  0  0
 11  1  1  0  0  0  0
 11 15  1  0  0  0  0
 11 13  2  0  0  0  0
 12 11  2  0  0  0  0
 14 25  1  0  0  0  0
 15 14  2  0  0  0  0
 16 18  2  0  0  0  0
 16 15  1  0  0  0  0
 17 16  1  0  0  0  0
 18 24  1  0  0  0  0
 19 21  1  0  0  0  0
 19 18  1  0  0  0  0
 20 19  1  0  0  0  0
 21 22  2  0  0  0  0
 22 24  1  0  0  0  0
 22 23  1  0  0  0  0
 24 25  2  0  0  0  0
 26 27  2  0  0  0  0
 26 28  1  0  0  0  0
 28 29  1  0  0  0  0
 29 34  1  0  0  0  0
 29 30  2  0  0  0  0
 30 35  1  0  0  0  0
 31 30  1  0  0  0  0
 32 31  2  0  0  0  0
 33 28  2  0  0  0  0
 33 32  1  0  0  0  0
 36 32  1  0  0  0  0
 36 39  1  1  0  0  0
 37 38  1  0  0  0  0
 37 36  1  0  0  0  0
 38 36  1  0  0  0  0
 38 42  1  1  0  0  0
 40 37  1  0  0  0  0
 41 37  1  0  0  0  0
 43 38  1  0  0  0  0
 43 45  1  0  0  0  0
 44 43  1  0  0  0  0
M  END
>  <minimizedAffinity>
-6.90025568

$$$$

 OpenBabel03252508053D

 45 49  0  0  1  0  0  0  0  0999 V2000
   36.9200   26.9300   40.1250 C   0  0  0  0  0  0  0  0  0  0  0  0
   36.4950   28.0790   40.7260 C   0  0  0  0  0  0  0  0  0  0  0  0
   35.5390   28.8600   40.0480 C   0  0  0  0  0  0  0  0  0  0  0  0
   35.0190   28.5240   38.8230 C   0  0  0  0  0  0  0  0  0  0  0  0
   35.4500   27.3700   38.2270 C   0  0  0  0  0  0  0  0  0  0  0  0
   36.3770   26.6050   38.8750 C   0  0  0  0  0  0  0  0  0  0  0  0
   35.1500   29.7920   40.4430 H   0  0  0  0  0  0  0  0  0  0  0  0
   34.2920   29.1290   38.3180 H   0  0  0  0  0  0  0  0  0  0  0  0
   35.1030   27.0300   37.2790 H   0  0  0  0  0  0  0  0  0  0  0  0
   36.7270   25.6750   38.3990 H   0  0  0  0  0  0  0  0  0  0  0  0
   38.0320   25.8920   40.8530 S   0  0  0  0  0  0  0  0  0  0  0  0
   38.4310   24.9840   39.6720 O   0  0  0  0  0  0  0  0  0  0  0  0
   37.3520   25.0130   41.8900 O   0  0  0  0  0  0  0  0  0  0  0  0
   40.3580   27.1510   40.7520 C   0  0  0  0  0  3  0  0  0  0  0  0
   39.6250   26.0540   41.2760 C   0  0  0  0  0  0  0  0  0  0  0  0
   40.4320   25.2800   42.1490 C   0  0  0  0  0  0  0  0  0  0  0  0
   39.8510   24.4330   42.5630 H   0  0  0  0  0  0  0  0  0  0  0  0
   41.7410   25.4160   42.5470 C   0  0  0  0  0  0  0  0  0  0  0  0
   42.6080   24.8030   43.3230 N   0  0  0  0  0  0  0  0  0  0  0  0
   42.3610   23.9410   43.8570 H   0  0  0  0  0  0  0  0  0  0  0  0
   43.7200   25.5040   43.2340 N   0  0  0  0  0  0  0  0  0  0  0  0
   43.5890   26.5600   42.4130 C   0  0  0  0  0  0  0  0  0  0  0  0
   44.3520   27.2900   42.1710 H   0  0  0  0  0  0  0  0  0  0  0  0
   42.2780   26.5180   41.9480 C   0  0  0  0  0  0  0  0  0  0  0  0
   41.6670   27.3810   41.0850 C   0  0  0  0  0  3  0  0  0  0  0  0
   36.9910   28.5250   42.0190 C   0  0  0  0  0  0  0  0  0  0  0  0
   36.6250   28.0370   43.1400 O   0  0  0  0  0  0  0  0  0  0  0  0
   37.9510   29.5840   41.9150 C   0  0  0  0  0  0  0  0  0  0  0  0
   38.9260   29.6520   42.9660 C   0  0  0  0  0  0  0  0  0  0  0  0
   39.8690   30.6650   42.8730 C   0  0  0  0  0  0  0  0  0  0  0  0
   39.8120   31.5140   41.8140 N   0  0  0  0  0  0  0  0  0  0  0  0
   38.8590   31.4070   40.8330 C   0  0  0  0  0  0  0  0  0  0  0  0
   37.9870   30.4670   40.9240 N   0  0  0  0  0  0  0  0  0  0  0  0
   39.0380   29.0330   43.8230 H   0  0  0  0  0  0  0  0  0  0  0  0
   40.6490   30.8280   43.5860 H   0  0  0  0  0  0  0  0  0  0  0  0
   38.8820   32.3700   39.7210 C   0  0  1  0  0  0  0  0  0  0  0  0
   37.6800   33.2690   39.5010 C   0  0  0  0  0  0  0  0  0  0  0  0
   38.9370   33.8000   40.1300 C   0  0  1  0  0  0  0  0  0  0  0  0
   39.4000   32.1030   38.8050 H   0  0  0  0  0  0  0  0  0  0  0  0
   36.7950   33.0110   40.1020 H   0  0  0  0  0  0  0  0  0  0  0  0
   37.4340   33.6070   38.4850 H   0  0  0  0  0  0  0  0  0  0  0  0
   39.4800   34.5590   39.5420 H   0  0  0  0  0  0  0  0  0  0  0  0
   38.7190   34.1600   41.5230 N   0  0  0  0  0  0  0  0  0  0  0  0
   38.3790   35.1430   41.6210 H   0  0  0  0  0  0  0  0  0  0  0  0
   39.6860   34.1800   41.9580 H   0  0  0  0  0  0  0  0  0  0  0  0
  1  2  1  0  0  0  0
  1 11  1  0  0  0  0
  2 26  1  0  0  0  0
  3  7  1  0  0  0  0
  3  2  2  0  0  0  0
  4  3  1  0  0  0  0
  5  4  2  0  0  0  0
  5  6  1  0  0  0  0
  6  1  2  0  0  0  0
  8  4  1  0  0  0  0
  9  5  1  0  0  0  0
 10  6  1  0  0  0  0
 11 15  1  0  0  0  0
 11 13  2  0  0  0  0
 12 11  2  0  0  0  0
 14 25  2  0  0  0  0
 14 15  1  0  0  0  0
 15 16  2  0  0  0  0
 16 18  1  0  0  0  0
 16 17  1  0  0  0  0
 18 19  1  0  0  0  0
 19 20  1  0  0  0  0
 21 19  1  0  0  0  0
 22 21  2  0  0  0  0
 23 22  1  0  0  0  0
 24 22  1  0  0  0  0
 24 18  2  0  0  0  0
 25 24  1  0  0  0  0
 26 27  2  0  0  0  0
 28 26  1  0  0  0  0
 28 29  1  0  0  0  0
 29 34  1  0  0  0  0
 30 29  2  0  0  0  0
 30 35  1  0  0  0  0
 31 30  1  0  0  0  0
 32 33  1  0  0  0  0
 32 31  2  0  0  0  0
 33 28  2  0  0  0  0
 36 39  1  6  0  0  0
 36 38  1  0  0  0  0
 36 32  1  0  0  0  0
 37 36  1  0  0  0  0
 37 40  1  0  0  0  0
 37 38  1  0  0  0  0
 38 42  1  6  0  0  0
 38 43  1  0  0  0  0
 41 37  1  0  0  0  0
 43 44  1  0  0  0  0
 43 45  1  0  0  0  0
M  END
>  <minimizedAffinity>
-6.7531929

$$$$

 OpenBabel03252508053D

 45 49  0  0  1  0  0  0  0  0999 V2000
   36.6420   26.5010   39.9740 C   0  0  0  0  0  0  0  0  0  0  0  0
   36.2730   27.7170   40.4700 C   0  0  0  0  0  0  0  0  0  0  0  0
   35.4760   28.5450   39.6560 C   0  0  0  0  0  0  0  0  0  0  0  0
   35.0550   28.1890   38.3990 C   0  0  0  0  0  0  0  0  0  0  0  0
   35.4290   26.9680   37.9080 C   0  0  0  0  0  0  0  0  0  0  0  0
   36.2020   26.1580   38.6880 C   0  0  0  0  0  0  0  0  0  0  0  0
   35.1410   29.5300   39.9620 H   0  0  0  0  0  0  0  0  0  0  0  0
   34.4490   28.8290   37.7890 H   0  0  0  0  0  0  0  0  0  0  0  0
   35.1510   26.6080   36.9450 H   0  0  0  0  0  0  0  0  0  0  0  0
   36.5060   25.1730   38.2980 H   0  0  0  0  0  0  0  0  0  0  0  0
   37.5630   25.4060   40.8670 S   0  0  0  0  0  0  0  0  0  0  0  0
   38.1580   24.5190   39.7550 O   0  0  0  0  0  0  0  0  0  0  0  0
   36.6710   24.5220   41.7230 O   0  0  0  0  0  0  0  0  0  0  0  0
   39.1030   25.7260   42.9950 C   0  0  0  0  0  3  0  0  0  0  0  0
   39.0480   25.5030   41.5940 C   0  0  0  0  0  0  0  0  0  0  0  0
   40.3510   25.3520   41.0550 C   0  0  0  0  0  0  0  0  0  0  0  0
   40.3000   25.1660   39.9650 H   0  0  0  0  0  0  0  0  0  0  0  0
   41.5940   25.3860   41.6420 C   0  0  0  0  0  0  0  0  0  0  0  0
   42.8570   25.2710   41.2940 N   0  0  0  0  0  0  0  0  0  0  0  0
   43.1440   25.0990   40.3060 H   0  0  0  0  0  0  0  0  0  0  0  0
   43.5460   25.4170   42.4070 N   0  0  0  0  0  0  0  0  0  0  0  0
   42.7520   25.6260   43.4720 C   0  0  0  0  0  0  0  0  0  0  0  0
   43.0700   25.7760   44.4960 H   0  0  0  0  0  0  0  0  0  0  0  0
   41.4490   25.6080   42.9810 C   0  0  0  0  0  0  0  0  0  0  0  0
   40.2900   25.7770   43.6800 C   0  0  0  0  0  3  0  0  0  0  0  0
   36.6730   28.1880   41.7870 C   0  0  0  0  0  0  0  0  0  0  0  0
   36.2040   27.7410   42.8870 O   0  0  0  0  0  0  0  0  0  0  0  0
   37.6660   29.2200   41.7350 C   0  0  0  0  0  0  0  0  0  0  0  0
   38.4510   29.3950   42.9220 C   0  0  0  0  0  0  0  0  0  0  0  0
   39.4240   30.3830   42.8830 C   0  0  0  0  0  0  0  0  0  0  0  0
   39.5700   31.1100   41.7450 N   0  0  0  0  0  0  0  0  0  0  0  0
   38.7920   30.9030   40.6330 C   0  0  0  0  0  0  0  0  0  0  0  0
   37.8920   29.9870   40.6750 N   0  0  0  0  0  0  0  0  0  0  0  0
   38.4000   28.8740   43.8480 H   0  0  0  0  0  0  0  0  0  0  0  0
   40.0770   30.6180   43.6970 H   0  0  0  0  0  0  0  0  0  0  0  0
   39.0290   31.7370   39.4430 C   0  0  1  0  0  0  0  0  0  0  0  0
   37.8930   31.9610   38.4640 C   0  0  0  0  0  0  0  0  0  0  0  0
   38.3020   33.0350   39.4320 C   0  0  1  0  0  0  0  0  0  0  0  0
   40.0100   31.7210   38.9780 H   0  0  0  0  0  0  0  0  0  0  0  0
   37.0050   31.3320   38.6360 H   0  0  0  0  0  0  0  0  0  0  0  0
   38.1170   32.1190   37.4000 H   0  0  0  0  0  0  0  0  0  0  0  0
   38.7300   33.9450   38.9800 H   0  0  0  0  0  0  0  0  0  0  0  0
   37.2580   33.2860   40.4150 N   0  0  0  0  0  0  0  0  0  0  0  0
   36.5700   33.9960   40.0780 H   0  0  0  0  0  0  0  0  0  0  0  0
   37.7490   33.7670   41.2220 H   0  0  0  0  0  0  0  0  0  0  0  0
  1  2  1  0  0  0  0
  1 11  1  0  0  0  0
  2 26  1  0  0  0  0
  3  7  1  0  0  0  0
  3  2  2  0  0  0  0
  4  3  1  0  0  0  0
  5  4  2  0  0  0  0
  5  6  1  0  0  0  0
  6  1  2  0  0  0  0
  8  4  1  0  0  0  0
  9  5  1  0  0  0  0
 10  6  1  0  0  0  0
 11 15  1  0  0  0  0
 11 13  2  0  0  0  0
 12 11  2  0  0  0  0
 14 25  1  0  0  0  0
 15 14  2  0  0  0  0
 16 15  1  0  0  0  0
 16 18  2  0  0  0  0
 17 16  1  0  0  0  0
 18 24  1  0  0  0  0
 19 18  1  0  0  0  0
 19 21  1  0  0  0  0
 20 19  1  0  0  0  0
 21 22  2  0  0  0  0
 22 23  1  0  0  0  0
 24 22  1  0  0  0  0
 24 25  2  0  0  0  0
 26 27  2  0  0  0  0
 28 26  1  0  0  0  0
 28 29  1  0  0  0  0
 29 34  1  0  0  0  0
 30 29  2  0  0  0  0
 30 35  1  0  0  0  0
 31 30  1  0  0  0  0
 32 33  1  0  0  0  0
 32 31  2  0  0  0  0
 33 28  2  0  0  0  0
 36 39  1  6  0  0  0
 36 32  1  0  0  0  0
 37 40  1  0  0  0  0
 37 38  1  0  0  0  0
 37 36  1  0  0  0  0
 38 42  1  6  0  0  0
 38 36  1  0  0  0  0
 38 43  1  0  0  0  0
 41 37  1  0  0  0  0
 43 45  1  0  0  0  0
 44 43  1  0  0  0  0
M  END
>  <minimizedAffinity>
-6.64876842

$$$$

 OpenBabel03252508053D

 45 49  0  0  1  0  0  0  0  0999 V2000
   37.5390   26.8280   41.6300 C   0  0  0  0  0  0  0  0  0  0  0  0
   37.6250   26.6600   40.2790 C   0  0  0  0  0  0  0  0  0  0  0  0
   37.3180   25.3900   39.7540 C   0  0  0  0  0  0  0  0  0  0  0  0
   36.9390   24.3230   40.5290 C   0  0  0  0  0  0  0  0  0  0  0  0
   36.8550   24.4990   41.8830 C   0  0  0  0  0  0  0  0  0  0  0  0
   37.1510   25.7250   42.4040 C   0  0  0  0  0  0  0  0  0  0  0  0
   37.3660   25.1610   38.6950 H   0  0  0  0  0  0  0  0  0  0  0  0
   36.7090   23.3610   40.1160 H   0  0  0  0  0  0  0  0  0  0  0  0
   36.5710   23.7290   42.5620 H   0  0  0  0  0  0  0  0  0  0  0  0
   37.0860   25.8730   43.4940 H   0  0  0  0  0  0  0  0  0  0  0  0
   37.8450   28.3100   42.3750 S   0  0  0  0  0  0  0  0  0  0  0  0
   39.3340   28.1700   42.7500 O   0  0  0  0  0  0  0  0  0  0  0  0
   37.0610   28.4360   43.6710 O   0  0  0  0  0  0  0  0  0  0  0  0
   39.4500   30.3490   41.8530 C   0  0  0  0  0  3  0  0  0  0  0  0
   38.1290   29.8340   41.7910 C   0  0  0  0  0  0  0  0  0  0  0  0
   37.2560   30.7600   41.1640 C   0  0  0  0  0  0  0  0  0  0  0  0
   36.2300   30.3470   41.1080 H   0  0  0  0  0  0  0  0  0  0  0  0
   37.4740   32.0100   40.6360 C   0  0  0  0  0  0  0  0  0  0  0  0
   36.7940   32.9660   40.0410 N   0  0  0  0  0  0  0  0  0  0  0  0
   35.7720   32.8810   39.8500 H   0  0  0  0  0  0  0  0  0  0  0  0
   37.6670   33.9220   39.7980 N   0  0  0  0  0  0  0  0  0  0  0  0
   38.9010   33.6040   40.2240 C   0  0  0  0  0  0  0  0  0  0  0  0
   39.7920   34.2150   40.1430 H   0  0  0  0  0  0  0  0  0  0  0  0
   38.7920   32.3340   40.7840 C   0  0  0  0  0  0  0  0  0  0  0  0
   39.7770   31.5830   41.3550 C   0  0  0  0  0  3  0  0  0  0  0  0
   38.0230   27.7270   39.3740 C   0  0  0  0  0  0  0  0  0  0  0  0
   39.2210   28.1430   39.2300 O   0  0  0  0  0  0  0  0  0  0  0  0
   36.9210   28.2790   38.6410 C   0  0  0  0  0  0  0  0  0  0  0  0
   35.6500   28.2500   39.3040 C   0  0  0  0  0  0  0  0  0  0  0  0
   34.5760   28.7910   38.6110 C   0  0  0  0  0  0  0  0  0  0  0  0
   34.7910   29.3030   37.3720 N   0  0  0  0  0  0  0  0  0  0  0  0
   36.0290   29.3070   36.7800 C   0  0  0  0  0  0  0  0  0  0  0  0
   37.0200   28.8050   37.4250 N   0  0  0  0  0  0  0  0  0  0  0  0
   35.3980   27.8700   40.2650 H   0  0  0  0  0  0  0  0  0  0  0  0
   33.5760   28.8340   38.9890 H   0  0  0  0  0  0  0  0  0  0  0  0
   36.1640   29.8910   35.4350 C   0  0  1  0  0  0  0  0  0  0  0  0
   36.6750   29.0190   34.3040 C   0  0  0  0  0  0  0  0  0  0  0  0
   35.2150   29.3560   34.4210 C   0  0  1  0  0  0  0  0  0  0  0  0
   36.4430   30.9360   35.3420 H   0  0  0  0  0  0  0  0  0  0  0  0
   37.0720   28.0420   34.6170 H   0  0  0  0  0  0  0  0  0  0  0  0
   37.2410   29.4770   33.4800 H   0  0  0  0  0  0  0  0  0  0  0  0
   34.8050   29.9830   33.6130 H   0  0  0  0  0  0  0  0  0  0  0  0
   34.4230   28.1740   34.7260 N   0  0  0  0  0  0  0  0  0  0  0  0
   34.1310   27.6690   33.8600 H   0  0  0  0  0  0  0  0  0  0  0  0
   33.5140   28.5460   35.1250 H   0  0  0  0  0  0  0  0  0  0  0  0
  1 11  1  0  0  0  0
  1  6  1  0  0  0  0
  2  1  2  0  0  0  0
  3  2  1  0  0  0  0
  3  4  2  0  0  0  0
  4  5  1  0  0  0  0
  5  6  2  0  0  0  0
  5  9  1  0  0  0  0
  6 10  1  0  0  0  0
  7  3  1  0  0  0  0
  8  4  1  0  0  0  0
 11 12  2  0  0  0  0
 11 13  2  0  0  0  0
 15 14  1  0  0  0  0
 15 11  1  0  0  0  0
 16 15  2  0  0  0  0
 17 16  1  0  0  0  0
 18 24  2  0  0  0  0
 18 16  1  0  0  0  0
 19 18  1  0  0  0  0
 20 19  1  0  0  0  0
 21 19  1  0  0  0  0
 21 22  2  0  0  0  0
 22 24  1  0  0  0  0
 23 22  1  0  0  0  0
 24 25  1  0  0  0  0
 25 14  2  0  0  0  0
 26  2  1  0  0  0  0
 27 26  2  0  0  0  0
 28 29  1  0  0  0  0
 28 26  1  0  0  0  0
 29 34  1  0  0  0  0
 30 35  1  0  0  0  0
 30 29  2  0  0  0  0
 31 30  1  0  0  0  0
 32 31  2  0  0  0  0
 32 33  1  0  0  0  0
 33 28  2  0  0  0  0
 36 39  1  6  0  0  0
 36 32  1  0  0  0  0
 37 38  1  0  0  0  0
 37 40  1  0  0  0  0
 37 36  1  0  0  0  0
 38 42  1  6  0  0  0
 38 43  1  0  0  0  0
 38 36  1  0  0  0  0
 41 37  1  0  0  0  0
 43 45  1  0  0  0  0
 44 43  1  0  0  0  0
M  END
>  <minimizedAffinity>
-6.64515305

$$$$

 OpenBabel03252508053D

 45 49  0  0  1  0  0  0  0  0999 V2000
   38.5200   31.3790   40.8240 C   0  0  0  0  0  0  0  0  0  0  0  0
   37.3650   31.4240   40.0990 C   0  0  0  0  0  0  0  0  0  0  0  0
   36.9630   32.6710   39.5800 C   0  0  0  0  0  0  0  0  0  0  0  0
   37.6720   33.8310   39.7670 C   0  0  0  0  0  0  0  0  0  0  0  0
   38.8290   33.7770   40.4940 C   0  0  0  0  0  0  0  0  0  0  0  0
   39.2290   32.5750   41.0020 C   0  0  0  0  0  0  0  0  0  0  0  0
   36.0570   32.8050   39.0000 H   0  0  0  0  0  0  0  0  0  0  0  0
   37.3540   34.7730   39.3670 H   0  0  0  0  0  0  0  0  0  0  0  0
   39.4430   34.6260   40.6900 H   0  0  0  0  0  0  0  0  0  0  0  0
   40.1600   32.5260   41.5890 H   0  0  0  0  0  0  0  0  0  0  0  0
   39.1260   29.9410   41.4640 S   0  0  0  0  0  0  0  0  0  0  0  0
   39.0360   30.2110   42.9790 O   0  0  0  0  0  0  0  0  0  0  0  0
   40.5960   29.7730   41.1200 O   0  0  0  0  0  0  0  0  0  0  0  0
   37.6680   28.2080   42.8350 C   0  0  0  0  0  3  0  0  0  0  0  0
   38.4710   28.4350   41.6860 C   0  0  0  0  0  0  0  0  0  0  0  0
   38.5300   27.2740   40.8750 C   0  0  0  0  0  0  0  0  0  0  0  0
   39.1470   27.4620   39.9750 H   0  0  0  0  0  0  0  0  0  0  0  0
   37.9640   26.0290   41.0160 C   0  0  0  0  0  0  0  0  0  0  0  0
   37.9250   24.8810   40.3750 N   0  0  0  0  0  0  0  0  0  0  0  0
   38.4300   24.7320   39.4750 H   0  0  0  0  0  0  0  0  0  0  0  0
   37.1650   24.0920   41.1080 N   0  0  0  0  0  0  0  0  0  0  0  0
   36.7120   24.7080   42.2130 C   0  0  0  0  0  0  0  0  0  0  0  0
   36.0720   24.2810   42.9760 H   0  0  0  0  0  0  0  0  0  0  0  0
   37.2330   25.9990   42.1680 C   0  0  0  0  0  0  0  0  0  0  0  0
   37.0570   27.0050   43.0720 C   0  0  0  0  0  3  0  0  0  0  0  0
   36.5410   30.2510   39.8510 C   0  0  0  0  0  0  0  0  0  0  0  0
   35.7910   29.6990   40.7230 O   0  0  0  0  0  0  0  0  0  0  0  0
   36.6490   29.7650   38.5070 C   0  0  0  0  0  0  0  0  0  0  0  0
   37.9640   29.3780   38.0850 C   0  0  0  0  0  0  0  0  0  0  0  0
   38.0830   28.8950   36.7900 C   0  0  0  0  0  0  0  0  0  0  0  0
   36.9680   28.8200   36.0160 N   0  0  0  0  0  0  0  0  0  0  0  0
   35.7310   29.2040   36.4680 C   0  0  0  0  0  0  0  0  0  0  0  0
   35.6260   29.6510   37.6680 N   0  0  0  0  0  0  0  0  0  0  0  0
   38.8810   29.4060   38.6220 H   0  0  0  0  0  0  0  0  0  0  0  0
   39.0020   28.5720   36.3490 H   0  0  0  0  0  0  0  0  0  0  0  0
   34.5800   29.0800   35.5580 C   0  0  1  0  0  0  0  0  0  0  0  0
   34.1930   27.7060   35.0450 C   0  0  0  0  0  0  0  0  0  0  0  0
   33.4000   28.3760   36.1310 C   0  0  1  0  0  0  0  0  0  0  0  0
   34.3770   29.8820   34.8550 H   0  0  0  0  0  0  0  0  0  0  0  0
   34.9210   26.9100   35.2640 H   0  0  0  0  0  0  0  0  0  0  0  0
   33.7250   27.6090   34.0550 H   0  0  0  0  0  0  0  0  0  0  0  0
   32.3660   28.6510   35.8660 H   0  0  0  0  0  0  0  0  0  0  0  0
   33.5280   27.6640   37.3940 N   0  0  0  0  0  0  0  0  0  0  0  0
   32.8160   26.9050   37.4850 H   0  0  0  0  0  0  0  0  0  0  0  0
   33.2500   28.3670   38.1370 H   0  0  0  0  0  0  0  0  0  0  0  0
  1  6  1  0  0  0  0
  1 11  1  0  0  0  0
  2  1  2  0  0  0  0
  3  4  2  0  0  0  0
  3  2  1  0  0  0  0
  4  5  1  0  0  0  0
  5  9  1  0  0  0  0
  5  6  2  0  0  0  0
  6 10  1  0  0  0  0
  7  3  1  0  0  0  0
  8  4  1  0  0  0  0
 11 15  1  0  0  0  0
 11 12  2  0  0  0  0
 13 11  2  0  0  0  0
 14 25  1  0  0  0  0
 15 14  2  0  0  0  0
 16 18  2  0  0  0  0
 16 15  1  0  0  0  0
 17 16  1  0  0  0  0
 18 24  1  0  0  0  0
 19 18  1  0  0  0  0
 19 21  1  0  0  0  0
 20 19  1  0  0  0  0
 21 22  2  0  0  0  0
 22 23  1  0  0  0  0
 24 22  1  0  0  0  0
 24 25  2  0  0  0  0
 26  2  1  0  0  0  0
 26 27  2  0  0  0  0
 28 26  1  0  0  0  0
 29 28  1  0  0  0  0
 29 34  1  0  0  0  0
 30 29  2  0  0  0  0
 31 32  2  0  0  0  0
 31 30  1  0  0  0  0
 32 33  1  0  0  0  0
 33 28  2  0  0  0  0
 35 30  1  0  0  0  0
 36 39  1  6  0  0  0
 36 38  1  0  0  0  0
 36 32  1  0  0  0  0
 37 40  1  0  0  0  0
 37 36  1  0  0  0  0
 37 38  1  0  0  0  0
 38 42  1  6  0  0  0
 38 43  1  0  0  0  0
 41 37  1  0  0  0  0
 43 44  1  0  0  0  0
 43 45  1  0  0  0  0
M  END
>  <minimizedAffinity>
-6.37949324

$$$$

 OpenBabel03252508053D

 45 49  0  0  1  0  0  0  0  0999 V2000
   37.5590   27.6210   40.8640 C   0  0  0  0  0  0  0  0  0  0  0  0
   37.2340   28.8030   41.4620 C   0  0  0  0  0  0  0  0  0  0  0  0
   37.5020   28.9400   42.8380 C   0  0  0  0  0  0  0  0  0  0  0  0
   38.0700   27.9500   43.5990 C   0  0  0  0  0  0  0  0  0  0  0  0
   38.3930   26.7670   42.9930 C   0  0  0  0  0  0  0  0  0  0  0  0
   38.1380   26.6230   41.6600 C   0  0  0  0  0  0  0  0  0  0  0  0
   37.2700   29.8390   43.3980 H   0  0  0  0  0  0  0  0  0  0  0  0
   38.2670   28.0670   44.6460 H   0  0  0  0  0  0  0  0  0  0  0  0
   38.8370   25.9430   43.5030 H   0  0  0  0  0  0  0  0  0  0  0  0
   38.3970   25.6720   41.1660 H   0  0  0  0  0  0  0  0  0  0  0  0
   37.3230   27.3500   39.2170 S   0  0  0  0  0  0  0  0  0  0  0  0
   36.6740   25.9510   39.2200 O   0  0  0  0  0  0  0  0  0  0  0  0
   38.6540   27.2300   38.4920 O   0  0  0  0  0  0  0  0  0  0  0  0
   36.5840   28.8240   37.1460 C   0  0  0  0  0  3  0  0  0  0  0  0
   36.1900   27.8810   38.1310 C   0  0  0  0  0  0  0  0  0  0  0  0
   34.8290   27.5170   37.9650 C   0  0  0  0  0  0  0  0  0  0  0  0
   34.5320   26.7730   38.7290 H   0  0  0  0  0  0  0  0  0  0  0  0
   33.8810   27.9110   37.0500 C   0  0  0  0  0  0  0  0  0  0  0  0
   32.6180   27.6770   36.7710 N   0  0  0  0  0  0  0  0  0  0  0  0
   32.0410   27.0140   37.3330 H   0  0  0  0  0  0  0  0  0  0  0  0
   32.3420   28.4250   35.7230 N   0  0  0  0  0  0  0  0  0  0  0  0
   33.4050   29.1410   35.3170 C   0  0  0  0  0  0  0  0  0  0  0  0
   33.4410   29.8300   34.4820 H   0  0  0  0  0  0  0  0  0  0  0  0
   34.4390   28.8110   36.1890 C   0  0  0  0  0  0  0  0  0  0  0  0
   35.7190   29.2820   36.1860 C   0  0  0  0  0  3  0  0  0  0  0  0
   36.6230   29.9110   40.7430 C   0  0  0  0  0  0  0  0  0  0  0  0
   35.3720   30.0250   40.5210 O   0  0  0  0  0  0  0  0  0  0  0  0
   37.5770   30.8840   40.2990 C   0  0  0  0  0  0  0  0  0  0  0  0
   37.1880   32.2570   40.4490 C   0  0  0  0  0  0  0  0  0  0  0  0
   38.1060   33.2110   40.0340 C   0  0  0  0  0  0  0  0  0  0  0  0
   39.2920   32.7950   39.5210 N   0  0  0  0  0  0  0  0  0  0  0  0
   39.6180   31.4680   39.3980 C   0  0  0  0  0  0  0  0  0  0  0  0
   38.7640   30.5880   39.7830 N   0  0  0  0  0  0  0  0  0  0  0  0
   36.2850   32.6640   40.8370 H   0  0  0  0  0  0  0  0  0  0  0  0
   37.9440   34.2670   40.0900 H   0  0  0  0  0  0  0  0  0  0  0  0
   40.9310   31.1140   38.8350 C   0  0  1  0  0  0  0  0  0  0  0  0
   40.9890   30.2340   37.6020 C   0  0  0  0  0  0  0  0  0  0  0  0
   41.2260   31.7140   37.5050 C   0  0  1  0  0  0  0  0  0  0  0  0
   41.7720   30.9790   39.5080 H   0  0  0  0  0  0  0  0  0  0  0  0
   40.0290   29.7790   37.3130 H   0  0  0  0  0  0  0  0  0  0  0  0
   41.8500   29.5670   37.4510 H   0  0  0  0  0  0  0  0  0  0  0  0
   42.2440   32.0160   37.2100 H   0  0  0  0  0  0  0  0  0  0  0  0
   40.1630   32.3710   36.7590 N   0  0  0  0  0  0  0  0  0  0  0  0
   40.3580   32.3780   35.7330 H   0  0  0  0  0  0  0  0  0  0  0  0
   40.2210   33.3930   37.0380 H   0  0  0  0  0  0  0  0  0  0  0  0
  1  2  2  0  0  0  0
  1  6  1  0  0  0  0
  2  3  1  0  0  0  0
  3  7  1  0  0  0  0
  3  4  2  0  0  0  0
  4  8  1  0  0  0  0
  5  9  1  0  0  0  0
  5  4  1  0  0  0  0
  6  5  2  0  0  0  0
 10  6  1  0  0  0  0
 11 12  2  0  0  0  0
 11  1  1  0  0  0  0
 13 11  2  0  0  0  0
 14 15  1  0  0  0  0
 15 11  1  0  0  0  0
 16 15  2  0  0  0  0
 16 17  1  0  0  0  0
 18 16  1  0  0  0  0
 19 18  1  0  0  0  0
 19 20  1  0  0  0  0
 21 19  1  0  0  0  0
 22 21  2  0  0  0  0
 22 24  1  0  0  0  0
 23 22  1  0  0  0  0
 24 18  2  0  0  0  0
 25 24  1  0  0  0  0
 25 14  2  0  0  0  0
 26  2  1  0  0  0  0
 27 26  2  0  0  0  0
 28 29  1  0  0  0  0
 28 26  1  0  0  0  0
 29 34  1  0  0  0  0
 30 35  1  0  0  0  0
 30 29  2  0  0  0  0
 31 30  1  0  0  0  0
 32 31  2  0  0  0  0
 32 33  1  0  0  0  0
 33 28  2  0  0  0  0
 36 32  1  0  0  0  0
 36 39  1  1  0  0  0
 37 36  1  0  0  0  0
 38 42  1  6  0  0  0
 38 37  1  0  0  0  0
 38 36  1  0  0  0  0
 40 37  1  0  0  0  0
 41 37  1  0  0  0  0
 43 45  1  0  0  0  0
 43 38  1  0  0  0  0
 44 43  1  0  0  0  0
M  END
>  <minimizedAffinity>
-6.369349

$$$$

 OpenBabel03252508053D

 45 49  0  0  1  0  0  0  0  0999 V2000
   38.9060   26.1860   41.7440 C   0  0  0  0  0  0  0  0  0  0  0  0
   37.5630   26.1470   41.9800 C   0  0  0  0  0  0  0  0  0  0  0  0
   36.9010   24.9160   41.8100 C   0  0  0  0  0  0  0  0  0  0  0  0
   37.5370   23.7630   41.4230 C   0  0  0  0  0  0  0  0  0  0  0  0
   38.8840   23.8100   41.1880 C   0  0  0  0  0  0  0  0  0  0  0  0
   39.5360   24.9980   41.3480 C   0  0  0  0  0  0  0  0  0  0  0  0
   35.8350   24.7920   41.9670 H   0  0  0  0  0  0  0  0  0  0  0  0
   37.0200   22.8320   41.2970 H   0  0  0  0  0  0  0  0  0  0  0  0
   39.4590   22.9660   40.8840 H   0  0  0  0  0  0  0  0  0  0  0  0
   40.6210   25.0410   41.1600 H   0  0  0  0  0  0  0  0  0  0  0  0
   39.8160   27.5910   41.9490 S   0  0  0  0  0  0  0  0  0  0  0  0
   41.1320   27.2170   41.2360 O   0  0  0  0  0  0  0  0  0  0  0  0
   40.1440   27.8130   43.4160 O   0  0  0  0  0  0  0  0  0  0  0  0
   39.6210   29.1010   39.7840 C   0  0  0  0  0  3  0  0  0  0  0  0
   39.8150   29.0630   41.1900 C   0  0  0  0  0  0  0  0  0  0  0  0
   39.9360   30.3740   41.7180 C   0  0  0  0  0  0  0  0  0  0  0  0
   40.0740   30.3370   42.8160 H   0  0  0  0  0  0  0  0  0  0  0  0
   39.8970   31.6100   41.1170 C   0  0  0  0  0  0  0  0  0  0  0  0
   39.9910   32.8780   41.4540 N   0  0  0  0  0  0  0  0  0  0  0  0
   40.1410   33.1780   42.4420 H   0  0  0  0  0  0  0  0  0  0  0  0
   39.8600   33.5530   40.3310 N   0  0  0  0  0  0  0  0  0  0  0  0
   39.6820   32.7460   39.2710 C   0  0  0  0  0  0  0  0  0  0  0  0
   39.5490   33.0510   38.2400 H   0  0  0  0  0  0  0  0  0  0  0  0
   39.7030   31.4490   39.7760 C   0  0  0  0  0  0  0  0  0  0  0  0
   39.5650   30.2790   39.0870 C   0  0  0  0  0  3  0  0  0  0  0  0
   36.7990   27.3160   42.3880 C   0  0  0  0  0  0  0  0  0  0  0  0
   36.4740   27.5830   43.5930 O   0  0  0  0  0  0  0  0  0  0  0  0
   36.4380   28.1610   41.2870 C   0  0  0  0  0  0  0  0  0  0  0  0
   36.3510   29.5630   41.5750 C   0  0  0  0  0  0  0  0  0  0  0  0
   36.0140   30.3950   40.5170 C   0  0  0  0  0  0  0  0  0  0  0  0
   35.7900   29.8400   39.2980 N   0  0  0  0  0  0  0  0  0  0  0  0
   35.8860   28.4900   39.0730 C   0  0  0  0  0  0  0  0  0  0  0  0
   36.1990   27.7240   40.0560 N   0  0  0  0  0  0  0  0  0  0  0  0
   36.5080   30.0740   42.4950 H   0  0  0  0  0  0  0  0  0  0  0  0
   35.9150   31.4570   40.5940 H   0  0  0  0  0  0  0  0  0  0  0  0
   35.6320   27.9830   37.7150 C   0  0  1  0  0  0  0  0  0  0  0  0
   34.6340   26.8570   37.5250 C   0  0  0  0  0  0  0  0  0  0  0  0
   34.2740   28.2740   37.1800 C   0  0  1  0  0  0  0  0  0  0  0  0
   36.4470   27.9690   36.9980 H   0  0  0  0  0  0  0  0  0  0  0  0
   34.2920   26.3810   38.4570 H   0  0  0  0  0  0  0  0  0  0  0  0
   34.7670   26.1470   36.6970 H   0  0  0  0  0  0  0  0  0  0  0  0
   34.0930   28.4730   36.1110 H   0  0  0  0  0  0  0  0  0  0  0  0
   33.2440   28.7890   38.0700 N   0  0  0  0  0  0  0  0  0  0  0  0
   32.2840   28.5700   37.7200 H   0  0  0  0  0  0  0  0  0  0  0  0
   33.3110   29.8440   37.9890 H   0  0  0  0  0  0  0  0  0  0  0  0
  1 11  1  0  0  0  0
  1  2  1  0  0  0  0
  2 26  1  0  0  0  0
  3  7  1  0  0  0  0
  3  2  2  0  0  0  0
  4  3  1  0  0  0  0
  5  6  1  0  0  0  0
  5  4  2  0  0  0  0
  6  1  2  0  0  0  0
  8  4  1  0  0  0  0
  9  5  1  0  0  0  0
 10  6  1  0  0  0  0
 11 13  2  0  0  0  0
 12 11  2  0  0  0  0
 14 15  1  0  0  0  0
 15 16  2  0  0  0  0
 15 11  1  0  0  0  0
 16 17  1  0  0  0  0
 18 19  1  0  0  0  0
 18 16  1  0  0  0  0
 19 20  1  0  0  0  0
 21 19  1  0  0  0  0
 22 24  1  0  0  0  0
 22 21  2  0  0  0  0
 23 22  1  0  0  0  0
 24 18  2  0  0  0  0
 25 24  1  0  0  0  0
 25 14  2  0  0  0  0
 26 27  2  0  0  0  0
 28 29  1  0  0  0  0
 28 26  1  0  0  0  0
 29 34  1  0  0  0  0
 30 35  1  0  0  0  0
 30 29  2  0  0  0  0
 31 30  1  0  0  0  0
 32 31  2  0  0  0  0
 32 33  1  0  0  0  0
 33 28  2  0  0  0  0
 36 39  1  6  0  0  0
 36 32  1  0  0  0  0
 37 36  1  0  0  0  0
 37 40  1  0  0  0  0
 38 42  1  6  0  0  0
 38 37  1  0  0  0  0
 38 36  1  0  0  0  0
 38 43  1  0  0  0  0
 41 37  1  0  0  0  0
 44 43  1  0  0  0  0
 45 43  1  0  0  0  0
M  END
>  <minimizedAffinity>
-6.3390379

$$$$

 OpenBabel03252508053D

 45 49  0  0  1  0  0  0  0  0999 V2000
   36.8750   26.7500   40.3310 C   0  0  0  0  0  0  0  0  0  0  0  0
   37.3610   26.7570   41.6050 C   0  0  0  0  0  0  0  0  0  0  0  0
   37.4430   25.5260   42.2840 C   0  0  0  0  0  0  0  0  0  0  0  0
   37.0610   24.3300   41.7300 C   0  0  0  0  0  0  0  0  0  0  0  0
   36.5740   24.3310   40.4510 C   0  0  0  0  0  0  0  0  0  0  0  0
   36.4900   25.5180   39.7830 C   0  0  0  0  0  0  0  0  0  0  0  0
   37.8080   25.4350   43.3010 H   0  0  0  0  0  0  0  0  0  0  0  0
   37.1270   23.4000   42.2580 H   0  0  0  0  0  0  0  0  0  0  0  0
   36.2530   23.4530   39.9410 H   0  0  0  0  0  0  0  0  0  0  0  0
   36.0980   25.5250   38.7530 H   0  0  0  0  0  0  0  0  0  0  0  0
   36.7640   28.1530   39.4020 S   0  0  0  0  0  0  0  0  0  0  0  0
   35.4400   28.7590   39.9080 O   0  0  0  0  0  0  0  0  0  0  0  0
   36.5750   27.8150   37.9320 O   0  0  0  0  0  0  0  0  0  0  0  0
   38.8310   29.7690   39.0550 C   0  0  0  0  0  3  0  0  0  0  0  0
   37.4900   29.6390   39.5020 C   0  0  0  0  0  0  0  0  0  0  0  0
   36.9790   30.8890   39.9350 C   0  0  0  0  0  0  0  0  0  0  0  0
   35.9290   30.7820   40.2690 H   0  0  0  0  0  0  0  0  0  0  0  0
   37.5460   32.1410   39.9890 C   0  0  0  0  0  0  0  0  0  0  0  0
   37.2180   33.3610   40.3540 N   0  0  0  0  0  0  0  0  0  0  0  0
   36.2740   33.5890   40.7350 H   0  0  0  0  0  0  0  0  0  0  0  0
   38.2860   34.0970   40.1270 N   0  0  0  0  0  0  0  0  0  0  0  0
   39.3010   33.3760   39.6210 C   0  0  0  0  0  0  0  0  0  0  0  0
   40.2830   33.7440   39.3490 H   0  0  0  0  0  0  0  0  0  0  0  0
   38.8260   32.0710   39.5220 C   0  0  0  0  0  0  0  0  0  0  0  0
   39.4910   30.9710   39.0650 C   0  0  0  0  0  3  0  0  0  0  0  0
   37.7860   27.9730   42.2830 C   0  0  0  0  0  0  0  0  0  0  0  0
   37.0030   28.7630   42.9070 O   0  0  0  0  0  0  0  0  0  0  0  0
   39.1980   28.2040   42.1840 C   0  0  0  0  0  0  0  0  0  0  0  0
   39.6540   29.4900   42.6260 C   0  0  0  0  0  0  0  0  0  0  0  0
   41.0190   29.7240   42.5480 C   0  0  0  0  0  0  0  0  0  0  0  0
   41.8230   28.7410   42.0660 N   0  0  0  0  0  0  0  0  0  0  0  0
   41.3370   27.5260   41.6550 C   0  0  0  0  0  0  0  0  0  0  0  0
   40.0720   27.3130   41.7300 N   0  0  0  0  0  0  0  0  0  0  0  0
   39.0960   30.3080   43.0120 H   0  0  0  0  0  0  0  0  0  0  0  0
   41.4920   30.6370   42.8430 H   0  0  0  0  0  0  0  0  0  0  0  0
   42.2880   26.5200   41.1540 C   0  0  1  0  0  0  0  0  0  0  0  0
   43.3730   26.0070   42.0810 C   0  0  0  0  0  0  0  0  0  0  0  0
   42.1620   25.1730   41.7750 C   0  0  1  0  0  0  0  0  0  0  0  0
   42.5840   26.5520   40.1100 H   0  0  0  0  0  0  0  0  0  0  0  0
   43.4720   26.5620   43.0270 H   0  0  0  0  0  0  0  0  0  0  0  0
   44.3360   25.6840   41.6620 H   0  0  0  0  0  0  0  0  0  0  0  0
   42.3520   24.2460   41.2100 H   0  0  0  0  0  0  0  0  0  0  0  0
   41.3290   24.9980   42.9550 N   0  0  0  0  0  0  0  0  0  0  0  0
   41.6260   24.1720   43.5210 H   0  0  0  0  0  0  0  0  0  0  0  0
   40.3750   24.7230   42.5820 H   0  0  0  0  0  0  0  0  0  0  0  0
  1  2  1  0  0  0  0
  2 26  1  0  0  0  0
  2  3  2  0  0  0  0
  3  7  1  0  0  0  0
  4  8  1  0  0  0  0
  4  3  1  0  0  0  0
  5  4  2  0  0  0  0
  6  1  2  0  0  0  0
  6  5  1  0  0  0  0
  9  5  1  0  0  0  0
 10  6  1  0  0  0  0
 11 15  1  0  0  0  0
 11 12  2  0  0  0  0
 11  1  1  0  0  0  0
 13 11  2  0  0  0  0
 14 25  2  0  0  0  0
 14 15  1  0  0  0  0
 15 16  2  0  0  0  0
 16 18  1  0  0  0  0
 16 17  1  0  0  0  0
 18 19  1  0  0  0  0
 19 20  1  0  0  0  0
 21 19  1  0  0  0  0
 22 21  2  0  0  0  0
 23 22  1  0  0  0  0
 24 22  1  0  0  0  0
 24 18  2  0  0  0  0
 25 24  1  0  0  0  0
 26 27  2  0  0  0  0
 28 26  1  0  0  0  0
 28 29  1  0  0  0  0
 29 34  1  0  0  0  0
 30 29  2  0  0  0  0
 30 35  1  0  0  0  0
 31 30  1  0  0  0  0
 32 33  1  0  0  0  0
 32 31  2  0  0  0  0
 33 28  2  0  0  0  0
 36 39  1  6  0  0  0
 36 32  1  0  0  0  0
 36 38  1  0  0  0  0
 36 37  1  0  0  0  0
 37 40  1  0  0  0  0
 38 42  1  6  0  0  0
 38 37  1  0  0  0  0
 38 43  1  0  0  0  0
 41 37  1  0  0  0  0
 43 44  1  0  0  0  0
 45 43  1  0  0  0  0
M  END
>  <minimizedAffinity>
-6.32976246

$$$$

 OpenBabel03252508053D

 45 49  0  0  1  0  0  0  0  0999 V2000
   37.0730   29.6480   38.4960 C   0  0  0  0  0  0  0  0  0  0  0  0
   36.1020   29.5280   39.4470 C   0  0  0  0  0  0  0  0  0  0  0  0
   34.8430   29.0410   39.0440 C   0  0  0  0  0  0  0  0  0  0  0  0
   34.5490   28.6850   37.7520 C   0  0  0  0  0  0  0  0  0  0  0  0
   35.5280   28.8090   36.8040 C   0  0  0  0  0  0  0  0  0  0  0  0
   36.7520   29.2800   37.1820 C   0  0  0  0  0  0  0  0  0  0  0  0
   34.0100   28.9200   39.7270 H   0  0  0  0  0  0  0  0  0  0  0  0
   33.5860   28.3170   37.4580 H   0  0  0  0  0  0  0  0  0  0  0  0
   35.3910   28.5570   35.7770 H   0  0  0  0  0  0  0  0  0  0  0  0
   37.5430   29.3810   36.4230 H   0  0  0  0  0  0  0  0  0  0  0  0
   38.6300   30.1820   38.8620 S   0  0  0  0  0  0  0  0  0  0  0  0
   39.2030   28.9730   39.6290 O   0  0  0  0  0  0  0  0  0  0  0  0
   38.5870   31.3530   39.8290 O   0  0  0  0  0  0  0  0  0  0  0  0
   40.5980   31.5750   37.7700 C   0  0  0  0  0  3  0  0  0  0  0  0
   40.0270   30.2920   37.9780 C   0  0  0  0  0  0  0  0  0  0  0  0
   40.8310   29.2810   37.3930 C   0  0  0  0  0  0  0  0  0  0  0  0
   40.3870   28.2820   37.5700 H   0  0  0  0  0  0  0  0  0  0  0  0
   42.0130   29.3420   36.6920 C   0  0  0  0  0  0  0  0  0  0  0  0
   42.8560   28.5240   36.1010 N   0  0  0  0  0  0  0  0  0  0  0  0
   42.7050   27.4930   36.0820 H   0  0  0  0  0  0  0  0  0  0  0  0
   43.8080   29.2920   35.6110 N   0  0  0  0  0  0  0  0  0  0  0  0
   43.5970   30.5930   35.8740 C   0  0  0  0  0  0  0  0  0  0  0  0
   44.2290   31.4230   35.5820 H   0  0  0  0  0  0  0  0  0  0  0  0
   42.4060   30.6450   36.5940 C   0  0  0  0  0  0  0  0  0  0  0  0
   41.7740   31.7490   37.0870 C   0  0  0  0  0  3  0  0  0  0  0  0
   36.3140   29.8850   40.8420 C   0  0  0  0  0  0  0  0  0  0  0  0
   36.0430   31.0260   41.3440 O   0  0  0  0  0  0  0  0  0  0  0  0
   36.8630   28.8110   41.6170 C   0  0  0  0  0  0  0  0  0  0  0  0
   37.6520   29.1970   42.7510 C   0  0  0  0  0  0  0  0  0  0  0  0
   38.1810   28.1690   43.5180 C   0  0  0  0  0  0  0  0  0  0  0  0
   37.9250   26.8860   43.1540 N   0  0  0  0  0  0  0  0  0  0  0  0
   37.1620   26.5680   42.0590 C   0  0  0  0  0  0  0  0  0  0  0  0
   36.6740   27.5240   41.3520 N   0  0  0  0  0  0  0  0  0  0  0  0
   37.9000   30.1700   43.1010 H   0  0  0  0  0  0  0  0  0  0  0  0
   38.7860   28.3160   44.3880 H   0  0  0  0  0  0  0  0  0  0  0  0
   36.9340   25.1470   41.7480 C   0  0  1  0  0  0  0  0  0  0  0  0
   36.7920   24.7260   40.2980 C   0  0  0  0  0  0  0  0  0  0  0  0
   38.0620   24.4670   41.0560 C   0  0  1  0  0  0  0  0  0  0  0  0
   36.3490   24.5460   42.4370 H   0  0  0  0  0  0  0  0  0  0  0  0
   36.7010   25.5570   39.5820 H   0  0  0  0  0  0  0  0  0  0  0  0
   36.1620   23.8610   40.0430 H   0  0  0  0  0  0  0  0  0  0  0  0
   38.3050   23.4070   41.2310 H   0  0  0  0  0  0  0  0  0  0  0  0
   39.1640   25.2570   40.5250 N   0  0  0  0  0  0  0  0  0  0  0  0
   39.6520   24.7650   39.7440 H   0  0  0  0  0  0  0  0  0  0  0  0
   39.8850   25.2830   41.3020 H   0  0  0  0  0  0  0  0  0  0  0  0
  1 11  1  0  0  0  0
  1  2  1  0  0  0  0
  2 26  1  0  0  0  0
  3  2  2  0  0  0  0
  3  7  1  0  0  0  0
  4  3  1  0  0  0  0
  5  6  1  0  0  0  0
  5  4  2  0  0  0  0
  6  1  2  0  0  0  0
  8  4  1  0  0  0  0
  9  5  1  0  0  0  0
 10  6  1  0  0  0  0
 11 12  2  0  0  0  0
 11 13  2  0  0  0  0
 14 15  1  0  0  0  0
 15 11  1  0  0  0  0
 16 17  1  0  0  0  0
 16 15  2  0  0  0  0
 18 16  1  0  0  0  0
 19 18  1  0  0  0  0
 20 19  1  0  0  0  0
 21 22  2  0  0  0  0
 21 19  1  0  0  0  0
 22 24  1  0  0  0  0
 23 22  1  0  0  0  0
 24 18  2  0  0  0  0
 24 25  1  0  0  0  0
 25 14  2  0  0  0  0
 26 27  2  0  0  0  0
 26 28  1  0  0  0  0
 28 29  1  0  0  0  0
 29 34  1  0  0  0  0
 29 30  2  0  0  0  0
 30 35  1  0  0  0  0
 31 30  1  0  0  0  0
 32 31  2  0  0  0  0
 33 28  2  0  0  0  0
 33 32  1  0  0  0  0
 36 32  1  0  0  0  0
 36 39  1  1  0  0  0
 37 38  1  0  0  0  0
 37 36  1  0  0  0  0
 38 42  1  1  0  0  0
 38 36  1  0  0  0  0
 40 37  1  0  0  0  0
 41 37  1  0  0  0  0
 43 38  1  0  0  0  0
 43 45  1  0  0  0  0
 44 43  1  0  0  0  0
M  END
>  <minimizedAffinity>
-6.31678057

$$$$
