
 OpenBabel03242515103D

 39 42  0  0  0  0  0  0  0  0999 V2000
   47.2950   32.5660   44.4250 N   0  0  0  0  0  0  0  0  0  0  0  0
   47.8020   32.3010   45.3190 H   0  0  0  0  0  0  0  0  0  0  0  0
   45.6790   33.7470   45.8810 C   0  0  0  0  0  0  0  0  0  0  0  0
   44.7900   34.7820   45.9240 C   0  0  0  0  0  0  0  0  0  0  0  0
   44.5230   35.6370   44.8700 C   0  0  0  0  0  0  0  0  0  0  0  0
   45.1880   35.4430   43.6970 C   0  0  0  0  0  0  0  0  0  0  0  0
   46.0900   34.4180   43.6030 C   0  0  0  0  0  0  0  0  0  0  0  0
   46.3370   33.5750   44.6800 C   0  0  0  0  0  0  0  0  0  0  0  0
   44.2260   34.9880   46.8340 H   0  0  0  0  0  0  0  0  0  0  0  0
   43.8160   36.4540   44.9140 H   0  0  0  0  0  0  0  0  0  0  0  0
   45.0050   36.0950   42.8480 H   0  0  0  0  0  0  0  0  0  0  0  0
   46.5960   34.3070   42.6430 H   0  0  0  0  0  0  0  0  0  0  0  0
   47.4890   31.7770   48.3720 C   0  0  0  0  0  0  0  0  0  0  0  0
   46.4690   31.2410   49.1540 C   0  0  0  0  0  0  0  0  0  0  0  0
   45.1410   31.5550   48.8280 C   0  0  0  0  0  0  0  0  0  0  0  0
   44.8840   32.3720   47.7610 N   0  0  0  0  0  0  0  0  0  0  0  0
   45.9200   32.8810   47.0130 C   0  0  0  0  0  0  0  0  0  0  0  0
   47.1810   32.5660   47.3460 N   0  0  0  0  0  0  0  0  0  0  0  0
   48.4920   31.4990   48.6730 H   0  0  0  0  0  0  0  0  0  0  0  0
   46.6040   30.5950   50.0030 H   0  0  0  0  0  0  0  0  0  0  0  0
   44.3000   31.1730   49.3940 H   0  0  0  0  0  0  0  0  0  0  0  0
   47.7570   31.7410   43.0090 S   0  0  0  0  0  0  0  0  0  0  0  0
   48.6240   30.5450   43.4240 O   0  0  0  0  0  0  0  0  0  0  0  0
   48.8450   29.7920   42.8430 H   0  0  0  0  0  0  0  0  0  0  0  0
   46.6300   31.2430   42.1810 O   0  0  0  0  0  0  0  0  0  0  0  0
   46.2220   30.3590   42.3210 H   0  0  0  0  0  0  0  0  0  0  0  0
   48.8070   32.7560   42.1760 O   0  0  0  0  0  0  0  0  0  0  0  0
   49.1930   32.0520   39.9200 C   0  0  0  0  0  3  0  0  0  0  0  0
   49.6530   32.3330   41.1940 C   0  0  0  0  0  0  0  0  0  0  0  0
   51.0040   32.1830   41.4920 C   0  0  0  0  0  0  0  0  0  0  0  0
   51.3550   32.4070   42.5010 H   0  0  0  0  0  0  0  0  0  0  0  0
   51.8900   31.7540   40.5160 C   0  0  0  0  0  0  0  0  0  0  0  0
   53.2150   31.5210   40.5010 N   0  0  0  0  0  0  0  0  0  0  0  0
   53.8050   31.6590   41.3530 H   0  0  0  0  0  0  0  0  0  0  0  0
   53.6020   31.1160   39.3040 N   0  0  0  0  0  0  0  0  0  0  0  0
   52.5460   31.0630   38.4700 C   0  0  0  0  0  0  0  0  0  0  0  0
   52.5300   30.7700   37.4200 H   0  0  0  0  0  0  0  0  0  0  0  0
   51.4630   31.4680   39.2370 C   0  0  0  0  0  0  0  0  0  0  0  0
   50.1130   31.6260   38.9710 C   0  0  0  0  0  3  0  0  0  0  0  0
  1  8  1  0  0  0  0
  1  2  1  0  0  0  0
  3  4  1  0  0  0  0
  3 17  1  0  0  0  0
  4  9  1  0  0  0  0
  5 10  1  0  0  0  0
  5  4  2  0  0  0  0
  6  5  1  0  0  0  0
  7  6  2  0  0  0  0
  7  8  1  0  0  0  0
  8  3  2  0  0  0  0
 11  6  1  0  0  0  0
 12  7  1  0  0  0  0
 13 19  1  0  0  0  0
 13 14  1  0  0  0  0
 14 20  1  0  0  0  0
 15 14  2  0  0  0  0
 15 21  1  0  0  0  0
 16 15  1  0  0  0  0
 17 18  1  0  0  0  0
 17 16  2  0  0  0  0
 18 13  2  0  0  0  0
 22 23  1  0  0  0  0
 22  1  1  0  0  0  0
 24 23  1  0  0  0  0
 25 26  1  0  0  0  0
 25 22  1  0  0  0  0
 27 22  1  0  0  0  0
 28 29  1  0  0  0  0
 29 30  2  0  0  0  0
 29 27  1  0  0  0  0
 30 31  1  0  0  0  0
 32 30  1  0  0  0  0
 33 32  1  0  0  0  0
 33 34  1  0  0  0  0
 35 33  1  0  0  0  0
 36 38  1  0  0  0  0
 36 35  2  0  0  0  0
 37 36  1  0  0  0  0
 38 32  2  0  0  0  0
 39 38  1  0  0  0  0
 39 28  2  0  0  0  0
M  END
>  <minimizedAffinity>
-6.1238184

>  <minimizedRMSD>
2.15435982

$$$$
