
 OpenBabel03242517583D

 46 49  0  0  0  0  0  0  0  0999 V2000
   39.0750   31.5710   39.8450 C   0  0  0  0  0  0  0  0  0  0  0  0
   39.3840   30.2740   40.0800 C   0  0  0  0  0  0  0  0  0  0  0  0
   40.7090   29.9510   40.3070 C   0  0  0  0  0  0  0  0  0  0  0  0
   41.7170   30.8860   40.3050 C   0  0  0  0  0  0  0  0  0  0  0  0
   41.3890   32.2020   40.0660 C   0  0  0  0  0  0  0  0  0  0  0  0
   40.0610   32.5350   39.8370 C   0  0  0  0  0  0  0  0  0  0  0  0
   41.0440   28.9410   40.5010 H   0  0  0  0  0  0  0  0  0  0  0  0
   42.7540   30.6260   40.4830 H   0  0  0  0  0  0  0  0  0  0  0  0
   42.0970   33.0090   40.0430 H   0  0  0  0  0  0  0  0  0  0  0  0
   39.6850   33.5470   39.6370 H   0  0  0  0  0  0  0  0  0  0  0  0
   37.4030   31.8980   39.4640 S   0  0  0  0  0  0  0  0  0  0  0  0
   37.1110   33.3110   39.1680 O   0  0  0  0  0  0  0  0  0  0  0  0
   36.6250   31.5960   40.7680 O   0  0  0  0  0  0  0  0  0  0  0  0
   35.6740   29.8570   38.6720 C   0  0  0  0  0  3  0  0  0  0  0  0
   36.7140   30.7210   38.3690 C   0  0  0  0  0  0  0  0  0  0  0  0
   37.1840   30.5770   37.0610 C   0  0  0  0  0  0  0  0  0  0  0  0
   38.0050   31.2350   36.7720 H   0  0  0  0  0  0  0  0  0  0  0  0
   36.7170   29.6960   36.1190 C   0  0  0  0  0  0  0  0  0  0  0  0
   37.0970   29.4800   34.8460 N   0  0  0  0  0  0  0  0  0  0  0  0
   37.8520   29.9640   34.3140 H   0  0  0  0  0  0  0  0  0  0  0  0
   36.3170   28.5180   34.3860 N   0  0  0  0  0  0  0  0  0  0  0  0
   35.4390   28.1100   35.3440 C   0  0  0  0  0  0  0  0  0  0  0  0
   34.6730   27.3420   35.2770 H   0  0  0  0  0  0  0  0  0  0  0  0
   35.6890   28.8720   36.4820 C   0  0  0  0  0  0  0  0  0  0  0  0
   35.1700   28.9560   37.7580 C   0  0  0  0  0  3  0  0  0  0  0  0
   38.5180   29.1870   40.1280 O   0  0  0  0  0  0  0  0  0  0  0  0
   37.6710   28.6860   43.5180 C   0  0  0  0  0  0  0  0  0  0  0  0
   37.3120   27.3250   43.5450 C   0  0  0  0  0  0  0  0  0  0  0  0
   37.3670   26.5960   42.3880 C   0  0  0  0  0  0  0  0  0  0  0  0
   37.7700   27.2510   41.2840 N   0  0  0  0  0  0  0  0  0  0  0  0
   38.1070   28.5290   41.2640 C   0  0  0  0  0  0  0  0  0  0  0  0
   38.0580   29.2490   42.3800 N   0  0  0  0  0  0  0  0  0  0  0  0
   37.6260   29.2570   44.4350 H   0  0  0  0  0  0  0  0  0  0  0  0
   37.0140   26.9350   44.4810 H   0  0  0  0  0  0  0  0  0  0  0  0
   37.0240   25.1740   42.3190 C   0  0  0  0  0  0  0  0  0  0  0  0
   37.6070   24.6540   43.0930 H   0  0  0  0  0  0  0  0  0  0  0  0
   35.9540   25.0200   42.5520 H   0  0  0  0  0  0  0  0  0  0  0  0
   37.3020   24.5510   40.9860 C   0  0  0  0  0  0  0  0  0  0  0  0
   38.1120   23.7840   41.2040 H   0  0  0  0  0  0  0  0  0  0  0  0
   37.7420   25.1760   40.2250 H   0  0  0  0  0  0  0  0  0  0  0  0
   36.1980   23.7490   40.4640 C   0  0  0  0  0  3  0  0  0  0  0  0
   35.4110   23.6260   39.4050 C   0  0  0  0  0  3  0  0  0  0  0  0
   34.2220   22.6930   39.2700 C   0  0  0  0  0  0  0  0  0  0  0  0
   34.1110   22.1520   40.2160 H   0  0  0  0  0  0  0  0  0  0  0  0
   34.4790   22.0340   38.4400 H   0  0  0  0  0  0  0  0  0  0  0  0
   33.3260   23.2850   38.9860 H   0  0  0  0  0  0  0  0  0  0  0  0
  1  2  1  0  0  0  0
  2 26  1  0  0  0  0
  2  3  2  0  0  0  0
  3  7  1  0  0  0  0
  4  3  1  0  0  0  0
  4  8  1  0  0  0  0
  5  4  2  0  0  0  0
  6  1  2  0  0  0  0
  6  5  1  0  0  0  0
  9  5  1  0  0  0  0
 10  6  1  0  0  0  0
 11  1  1  0  0  0  0
 11 13  2  0  0  0  0
 12 11  2  0  0  0  0
 15 14  1  0  0  0  0
 15 11  1  0  0  0  0
 16 15  2  0  0  0  0
 17 16  1  0  0  0  0
 18 24  2  0  0  0  0
 18 16  1  0  0  0  0
 19 18  1  0  0  0  0
 20 19  1  0  0  0  0
 21 19  1  0  0  0  0
 21 22  2  0  0  0  0
 22 24  1  0  0  0  0
 23 22  1  0  0  0  0
 24 25  1  0  0  0  0
 25 14  2  0  0  0  0
 26 31  1  0  0  0  0
 27 28  1  0  0  0  0
 27 33  1  0  0  0  0
 28 34  1  0  0  0  0
 29 28  2  0  0  0  0
 30 29  1  0  0  0  0
 31 30  2  0  0  0  0
 31 32  1  0  0  0  0
 32 27  2  0  0  0  0
 35 29  1  0  0  0  0
 35 37  1  0  0  0  0
 35 36  1  0  0  0  0
 38 39  1  0  0  0  0
 38 35  1  0  0  0  0
 40 38  1  0  0  0  0
 41 38  1  0  0  0  0
 42 41  2  0  0  0  0
 43 42  1  0  0  0  0
 43 44  1  0  0  0  0
 45 43  1  0  0  0  0
 46 43  1  0  0  0  0
M  END
>  <minimizedAffinity>
-6.1231761

$$$$

 OpenBabel03242517583D

 46 49  0  0  0  0  0  0  0  0999 V2000
   36.7560   30.1360   39.1480 C   0  0  0  0  0  0  0  0  0  0  0  0
   36.7790   29.2320   38.1400 C   0  0  0  0  0  0  0  0  0  0  0  0
   37.1980   29.6580   36.8930 C   0  0  0  0  0  0  0  0  0  0  0  0
   37.5900   30.9510   36.6380 C   0  0  0  0  0  0  0  0  0  0  0  0
   37.5620   31.8600   37.6730 C   0  0  0  0  0  0  0  0  0  0  0  0
   37.1420   31.4410   38.9270 C   0  0  0  0  0  0  0  0  0  0  0  0
   37.2480   29.0040   36.0340 H   0  0  0  0  0  0  0  0  0  0  0  0
   37.9180   31.2780   35.6580 H   0  0  0  0  0  0  0  0  0  0  0  0
   37.8470   32.8910   37.5810 H   0  0  0  0  0  0  0  0  0  0  0  0
   37.0800   32.0750   39.8210 H   0  0  0  0  0  0  0  0  0  0  0  0
   36.1190   29.5630   40.6690 S   0  0  0  0  0  0  0  0  0  0  0  0
   34.7550   29.0140   40.5910 O   0  0  0  0  0  0  0  0  0  0  0  0
   35.9890   30.8270   41.5540 O   0  0  0  0  0  0  0  0  0  0  0  0
   38.2340   29.1400   42.4400 C   0  0  0  0  0  3  0  0  0  0  0  0
   37.2790   28.6220   41.5790 C   0  0  0  0  0  0  0  0  0  0  0  0
   37.3140   27.2270   41.4980 C   0  0  0  0  0  0  0  0  0  0  0  0
   36.5810   26.7690   40.8320 H   0  0  0  0  0  0  0  0  0  0  0  0
   38.1710   26.3920   42.1670 C   0  0  0  0  0  0  0  0  0  0  0  0
   38.2850   25.0510   42.1580 N   0  0  0  0  0  0  0  0  0  0  0  0
   37.7180   24.3650   41.6150 H   0  0  0  0  0  0  0  0  0  0  0  0
   39.2750   24.7580   42.9840 N   0  0  0  0  0  0  0  0  0  0  0  0
   39.8000   25.8920   43.5270 C   0  0  0  0  0  0  0  0  0  0  0  0
   40.6180   25.9860   44.2370 H   0  0  0  0  0  0  0  0  0  0  0  0
   39.0880   26.9680   43.0010 C   0  0  0  0  0  0  0  0  0  0  0  0
   39.1160   28.3410   43.1350 C   0  0  0  0  0  3  0  0  0  0  0  0
   36.4300   27.8870   38.1930 O   0  0  0  0  0  0  0  0  0  0  0  0
   34.3340   25.3580   36.9020 C   0  0  0  0  0  0  0  0  0  0  0  0
   33.2170   26.0880   36.4510 C   0  0  0  0  0  0  0  0  0  0  0  0
   33.2040   27.4480   36.5990 C   0  0  0  0  0  0  0  0  0  0  0  0
   34.2850   28.0000   37.1800 N   0  0  0  0  0  0  0  0  0  0  0  0
   35.3300   27.3110   37.6020 C   0  0  0  0  0  0  0  0  0  0  0  0
   35.3570   25.9890   37.4640 N   0  0  0  0  0  0  0  0  0  0  0  0
   34.3400   24.2830   36.7820 H   0  0  0  0  0  0  0  0  0  0  0  0
   32.4360   25.5280   36.0110 H   0  0  0  0  0  0  0  0  0  0  0  0
   32.0940   28.2930   36.1510 C   0  0  0  0  0  0  0  0  0  0  0  0
   32.3190   28.6200   35.1260 H   0  0  0  0  0  0  0  0  0  0  0  0
   31.1540   27.7120   36.1140 H   0  0  0  0  0  0  0  0  0  0  0  0
   31.8640   29.4930   37.0150 C   0  0  0  0  0  0  0  0  0  0  0  0
   32.9030   29.9290   37.1650 H   0  0  0  0  0  0  0  0  0  0  0  0
   31.5120   29.3260   38.0210 H   0  0  0  0  0  0  0  0  0  0  0  0
   31.1310   30.5690   36.3520 C   0  0  0  0  0  3  0  0  0  0  0  0
   30.4920   31.7030   36.6040 C   0  0  0  0  0  3  0  0  0  0  0  0
   29.7030   32.5330   35.6090 C   0  0  0  0  0  0  0  0  0  0  0  0
   29.7330   32.0170   34.6430 H   0  0  0  0  0  0  0  0  0  0  0  0
   30.2140   33.4950   35.5830 H   0  0  0  0  0  0  0  0  0  0  0  0
   28.6750   32.6900   36.0000 H   0  0  0  0  0  0  0  0  0  0  0  0
  1 11  1  0  0  0  0
  2 26  1  0  0  0  0
  2  1  2  0  0  0  0
  3  2  1  0  0  0  0
  4  3  2  0  0  0  0
  4  5  1  0  0  0  0
  5  6  2  0  0  0  0
  6  1  1  0  0  0  0
  6 10  1  0  0  0  0
  7  3  1  0  0  0  0
  8  4  1  0  0  0  0
  9  5  1  0  0  0  0
 11 13  2  0  0  0  0
 11 15  1  0  0  0  0
 12 11  2  0  0  0  0
 14 25  1  0  0  0  0
 15 14  2  0  0  0  0
 16 15  1  0  0  0  0
 16 18  2  0  0  0  0
 17 16  1  0  0  0  0
 18 24  1  0  0  0  0
 19 18  1  0  0  0  0
 19 21  1  0  0  0  0
 20 19  1  0  0  0  0
 21 22  2  0  0  0  0
 22 23  1  0  0  0  0
 24 25  2  0  0  0  0
 24 22  1  0  0  0  0
 27 32  1  0  0  0  0
 28 29  1  0  0  0  0
 28 27  2  0  0  0  0
 29 30  2  0  0  0  0
 30 31  1  0  0  0  0
 31 26  1  0  0  0  0
 32 31  2  0  0  0  0
 33 27  1  0  0  0  0
 34 28  1  0  0  0  0
 35 29  1  0  0  0  0
 35 38  1  0  0  0  0
 36 35  1  0  0  0  0
 37 35  1  0  0  0  0
 38 39  1  0  0  0  0
 38 40  1  0  0  0  0
 41 42  2  0  0  0  0
 41 38  1  0  0  0  0
 43 46  1  0  0  0  0
 43 42  1  0  0  0  0
 44 43  1  0  0  0  0
 45 43  1  0  0  0  0
M  END
>  <minimizedAffinity>
-5.93362761

$$$$

 OpenBabel03242517583D

 46 49  0  0  0  0  0  0  0  0999 V2000
   39.9720   32.0430   39.0300 C   0  0  0  0  0  0  0  0  0  0  0  0
   40.3500   30.7460   38.9380 C   0  0  0  0  0  0  0  0  0  0  0  0
   41.4600   30.4440   38.1720 C   0  0  0  0  0  0  0  0  0  0  0  0
   42.1910   31.4010   37.5060 C   0  0  0  0  0  0  0  0  0  0  0  0
   41.7960   32.7160   37.6100 C   0  0  0  0  0  0  0  0  0  0  0  0
   40.6820   33.0270   38.3760 C   0  0  0  0  0  0  0  0  0  0  0  0
   41.8310   29.4370   38.0440 H   0  0  0  0  0  0  0  0  0  0  0  0
   43.0610   31.1580   36.9070 H   0  0  0  0  0  0  0  0  0  0  0  0
   42.2950   33.5380   37.1310 H   0  0  0  0  0  0  0  0  0  0  0  0
   40.2780   34.0360   38.5300 H   0  0  0  0  0  0  0  0  0  0  0  0
   38.5040   32.3450   39.9250 S   0  0  0  0  0  0  0  0  0  0  0  0
   38.0800   33.7550   39.9420 O   0  0  0  0  0  0  0  0  0  0  0  0
   38.8540   32.0190   41.3980 O   0  0  0  0  0  0  0  0  0  0  0  0
   36.4590   30.5540   40.5540 C   0  0  0  0  0  3  0  0  0  0  0  0
   37.2530   31.1670   39.5980 C   0  0  0  0  0  0  0  0  0  0  0  0
   36.9590   30.7570   38.2950 C   0  0  0  0  0  0  0  0  0  0  0  0
   37.5580   31.2100   37.5040 H   0  0  0  0  0  0  0  0  0  0  0  0
   36.0020   29.8490   37.9220 C   0  0  0  0  0  0  0  0  0  0  0  0
   35.6430   29.3900   36.7080 N   0  0  0  0  0  0  0  0  0  0  0  0
   36.0450   29.6510   35.7830 H   0  0  0  0  0  0  0  0  0  0  0  0
   34.6630   28.5270   36.9140 N   0  0  0  0  0  0  0  0  0  0  0  0
   34.3850   28.4220   38.2430 C   0  0  0  0  0  0  0  0  0  0  0  0
   33.6380   27.8010   38.7310 H   0  0  0  0  0  0  0  0  0  0  0  0
   35.2520   29.2810   38.9140 C   0  0  0  0  0  0  0  0  0  0  0  0
   35.4830   29.6360   40.2270 C   0  0  0  0  0  3  0  0  0  0  0  0
   39.7530   29.6400   39.5330 O   0  0  0  0  0  0  0  0  0  0  0  0
   41.8040   28.5360   42.1860 C   0  0  0  0  0  0  0  0  0  0  0  0
   40.8660   28.0260   43.1050 C   0  0  0  0  0  0  0  0  0  0  0  0
   39.5340   28.0710   42.7940 C   0  0  0  0  0  0  0  0  0  0  0  0
   39.2120   28.6120   41.6060 N   0  0  0  0  0  0  0  0  0  0  0  0
   40.0960   29.0890   40.7460 C   0  0  0  0  0  0  0  0  0  0  0  0
   41.3930   29.0520   41.0340 N   0  0  0  0  0  0  0  0  0  0  0  0
   42.8550   28.4970   42.4350 H   0  0  0  0  0  0  0  0  0  0  0  0
   41.2560   27.6270   44.0020 H   0  0  0  0  0  0  0  0  0  0  0  0
   38.4870   27.5560   43.6790 C   0  0  0  0  0  0  0  0  0  0  0  0
   38.8060   26.5620   44.0270 H   0  0  0  0  0  0  0  0  0  0  0  0
   38.3800   28.1990   44.5710 H   0  0  0  0  0  0  0  0  0  0  0  0
   37.1460   27.4440   43.0240 C   0  0  0  0  0  0  0  0  0  0  0  0
   37.2150   28.1440   42.1310 H   0  0  0  0  0  0  0  0  0  0  0  0
   36.2910   27.8120   43.5690 H   0  0  0  0  0  0  0  0  0  0  0  0
   36.8870   26.1390   42.4190 C   0  0  0  0  0  3  0  0  0  0  0  0
   37.1650   25.4170   41.3430 C   0  0  0  0  0  3  0  0  0  0  0  0
   36.5780   24.0630   40.9900 C   0  0  0  0  0  0  0  0  0  0  0  0
   35.8600   23.7940   41.7740 H   0  0  0  0  0  0  0  0  0  0  0  0
   37.4330   23.3890   40.9590 H   0  0  0  0  0  0  0  0  0  0  0  0
   36.1310   24.1140   39.9740 H   0  0  0  0  0  0  0  0  0  0  0  0
  1 11  1  0  0  0  0
  2  1  1  0  0  0  0
  2 26  1  0  0  0  0
  3  2  2  0  0  0  0
  4  5  2  0  0  0  0
  4  3  1  0  0  0  0
  5  6  1  0  0  0  0
  6 10  1  0  0  0  0
  6  1  2  0  0  0  0
  7  3  1  0  0  0  0
  8  4  1  0  0  0  0
  9  5  1  0  0  0  0
 11 12  2  0  0  0  0
 11 13  2  0  0  0  0
 15 11  1  0  0  0  0
 15 14  2  0  0  0  0
 16 15  1  0  0  0  0
 17 16  1  0  0  0  0
 18 16  2  0  0  0  0
 18 24  1  0  0  0  0
 19 21  1  0  0  0  0
 19 18  1  0  0  0  0
 20 19  1  0  0  0  0
 21 22  2  0  0  0  0
 22 23  1  0  0  0  0
 22 24  1  0  0  0  0
 24 25  2  0  0  0  0
 25 14  1  0  0  0  0
 26 31  1  0  0  0  0
 27 33  1  0  0  0  0
 27 28  1  0  0  0  0
 28 34  1  0  0  0  0
 29 28  2  0  0  0  0
 29 35  1  0  0  0  0
 30 29  1  0  0  0  0
 31 32  1  0  0  0  0
 31 30  2  0  0  0  0
 32 27  2  0  0  0  0
 35 36  1  0  0  0  0
 35 37  1  0  0  0  0
 38 40  1  0  0  0  0
 38 35  1  0  0  0  0
 39 38  1  0  0  0  0
 41 38  1  0  0  0  0
 42 41  2  0  0  0  0
 43 42  1  0  0  0  0
 43 44  1  0  0  0  0
 45 43  1  0  0  0  0
 46 43  1  0  0  0  0
M  END
>  <minimizedAffinity>
-5.86581087

$$$$

 OpenBabel03242517583D

 46 49  0  0  0  0  0  0  0  0999 V2000
   37.7900   30.4520   38.3790 C   0  0  0  0  0  0  0  0  0  0  0  0
   38.4090   29.3310   38.8180 C   0  0  0  0  0  0  0  0  0  0  0  0
   38.2330   28.1650   38.0970 C   0  0  0  0  0  0  0  0  0  0  0  0
   37.4610   28.0980   36.9610 C   0  0  0  0  0  0  0  0  0  0  0  0
   36.8370   29.2460   36.5240 C   0  0  0  0  0  0  0  0  0  0  0  0
   37.0090   30.4210   37.2430 C   0  0  0  0  0  0  0  0  0  0  0  0
   38.6900   27.2260   38.3760 H   0  0  0  0  0  0  0  0  0  0  0  0
   37.3270   27.1800   36.4000 H   0  0  0  0  0  0  0  0  0  0  0  0
   36.2140   29.3030   35.6520 H   0  0  0  0  0  0  0  0  0  0  0  0
   36.5620   31.3920   36.9890 H   0  0  0  0  0  0  0  0  0  0  0  0
   37.9670   31.8650   39.3880 S   0  0  0  0  0  0  0  0  0  0  0  0
   37.3180   31.7590   40.7060 O   0  0  0  0  0  0  0  0  0  0  0  0
   37.1920   32.9860   38.6540 O   0  0  0  0  0  0  0  0  0  0  0  0
   40.3880   32.6960   40.5000 C   0  0  0  0  0  3  0  0  0  0  0  0
   39.5950   32.5070   39.3790 C   0  0  0  0  0  0  0  0  0  0  0  0
   40.2270   32.8780   38.1900 C   0  0  0  0  0  0  0  0  0  0  0  0
   39.6430   32.7490   37.2780 H   0  0  0  0  0  0  0  0  0  0  0  0
   41.4950   33.3840   38.0640 C   0  0  0  0  0  0  0  0  0  0  0  0
   42.1890   33.7690   36.9770 N   0  0  0  0  0  0  0  0  0  0  0  0
   41.8780   33.7540   35.9820 H   0  0  0  0  0  0  0  0  0  0  0  0
   43.3670   34.1790   37.4160 N   0  0  0  0  0  0  0  0  0  0  0  0
   43.4420   34.0630   38.7710 C   0  0  0  0  0  0  0  0  0  0  0  0
   44.2720   34.3160   39.4260 H   0  0  0  0  0  0  0  0  0  0  0  0
   42.2250   33.5450   39.2080 C   0  0  0  0  0  0  0  0  0  0  0  0
   41.6690   33.2000   40.4230 C   0  0  0  0  0  3  0  0  0  0  0  0
   39.2300   29.1920   39.9320 O   0  0  0  0  0  0  0  0  0  0  0  0
   38.3400   28.6120   43.2980 C   0  0  0  0  0  0  0  0  0  0  0  0
   38.3300   27.2060   43.3730 C   0  0  0  0  0  0  0  0  0  0  0  0
   38.6310   26.4750   42.2560 C   0  0  0  0  0  0  0  0  0  0  0  0
   38.9210   27.1710   41.1420 N   0  0  0  0  0  0  0  0  0  0  0  0
   38.9300   28.4910   41.0770 C   0  0  0  0  0  0  0  0  0  0  0  0
   38.6400   29.2140   42.1540 N   0  0  0  0  0  0  0  0  0  0  0  0
   38.1020   29.1860   44.1840 H   0  0  0  0  0  0  0  0  0  0  0  0
   38.0850   26.7870   44.3120 H   0  0  0  0  0  0  0  0  0  0  0  0
   38.6570   25.0110   42.2390 C   0  0  0  0  0  0  0  0  0  0  0  0
   39.2000   24.6990   41.3350 H   0  0  0  0  0  0  0  0  0  0  0  0
   39.2150   24.6210   43.1100 H   0  0  0  0  0  0  0  0  0  0  0  0
   37.2980   24.3840   42.2420 C   0  0  0  0  0  0  0  0  0  0  0  0
   36.6680   25.0920   42.8700 H   0  0  0  0  0  0  0  0  0  0  0  0
   37.1860   23.4350   42.7420 H   0  0  0  0  0  0  0  0  0  0  0  0
   36.6360   24.3970   40.9390 C   0  0  0  0  0  3  0  0  0  0  0  0
   36.8580   24.6700   39.6620 C   0  0  0  0  0  3  0  0  0  0  0  0
   35.8260   24.6810   38.5500 C   0  0  0  0  0  0  0  0  0  0  0  0
   34.8520   24.4460   38.9940 H   0  0  0  0  0  0  0  0  0  0  0  0
   36.1610   23.9150   37.8510 H   0  0  0  0  0  0  0  0  0  0  0  0
   35.8560   25.6660   38.0350 H   0  0  0  0  0  0  0  0  0  0  0  0
  1  2  1  0  0  0  0
  1 11  1  0  0  0  0
  2 26  1  0  0  0  0
  3  7  1  0  0  0  0
  3  2  2  0  0  0  0
  4  3  1  0  0  0  0
  5  4  2  0  0  0  0
  5  6  1  0  0  0  0
  6  1  2  0  0  0  0
  8  4  1  0  0  0  0
  9  5  1  0  0  0  0
 10  6  1  0  0  0  0
 11 12  2  0  0  0  0
 13 11  2  0  0  0  0
 15 11  1  0  0  0  0
 15 14  2  0  0  0  0
 16 15  1  0  0  0  0
 17 16  1  0  0  0  0
 18 16  2  0  0  0  0
 18 24  1  0  0  0  0
 19 21  1  0  0  0  0
 19 18  1  0  0  0  0
 20 19  1  0  0  0  0
 21 22  2  0  0  0  0
 22 24  1  0  0  0  0
 22 23  1  0  0  0  0
 24 25  2  0  0  0  0
 25 14  1  0  0  0  0
 26 31  1  0  0  0  0
 27 28  1  0  0  0  0
 27 33  1  0  0  0  0
 28 34  1  0  0  0  0
 29 28  2  0  0  0  0
 30 29  1  0  0  0  0
 31 30  2  0  0  0  0
 31 32  1  0  0  0  0
 32 27  2  0  0  0  0
 35 38  1  0  0  0  0
 35 29  1  0  0  0  0
 35 37  1  0  0  0  0
 36 35  1  0  0  0  0
 38 40  1  0  0  0  0
 38 39  1  0  0  0  0
 41 38  1  0  0  0  0
 42 41  2  0  0  0  0
 43 44  1  0  0  0  0
 43 42  1  0  0  0  0
 45 43  1  0  0  0  0
 46 43  1  0  0  0  0
M  END
>  <minimizedAffinity>
-5.8408041

$$$$

 OpenBabel03242517583D

 46 49  0  0  0  0  0  0  0  0999 V2000
   37.0110   30.5940   39.2770 C   0  0  0  0  0  0  0  0  0  0  0  0
   37.2340   30.4420   40.6040 C   0  0  0  0  0  0  0  0  0  0  0  0
   36.4350   29.5550   41.3000 C   0  0  0  0  0  0  0  0  0  0  0  0
   35.4310   28.8270   40.7040 C   0  0  0  0  0  0  0  0  0  0  0  0
   35.2160   28.9910   39.3540 C   0  0  0  0  0  0  0  0  0  0  0  0
   36.0140   29.8800   38.6470 C   0  0  0  0  0  0  0  0  0  0  0  0
   36.5430   29.3720   42.3600 H   0  0  0  0  0  0  0  0  0  0  0  0
   34.8080   28.1330   41.2560 H   0  0  0  0  0  0  0  0  0  0  0  0
   34.4610   28.4730   38.7930 H   0  0  0  0  0  0  0  0  0  0  0  0
   35.9340   30.0900   37.5730 H   0  0  0  0  0  0  0  0  0  0  0  0
   37.9840   31.8040   38.4760 S   0  0  0  0  0  0  0  0  0  0  0  0
   37.8920   33.1490   39.0680 O   0  0  0  0  0  0  0  0  0  0  0  0
   37.3660   31.9480   37.0640 O   0  0  0  0  0  0  0  0  0  0  0  0
   40.0300   29.9260   38.2090 C   0  0  0  0  0  3  0  0  0  0  0  0
   39.5930   31.2360   38.0940 C   0  0  0  0  0  0  0  0  0  0  0  0
   40.5810   32.1040   37.6210 C   0  0  0  0  0  0  0  0  0  0  0  0
   40.2870   33.1490   37.5130 H   0  0  0  0  0  0  0  0  0  0  0  0
   41.8680   31.7710   37.2860 C   0  0  0  0  0  0  0  0  0  0  0  0
   42.8850   32.5230   36.8260 N   0  0  0  0  0  0  0  0  0  0  0  0
   42.8850   33.5470   36.6310 H   0  0  0  0  0  0  0  0  0  0  0  0
   43.9090   31.7020   36.6650 N   0  0  0  0  0  0  0  0  0  0  0  0
   43.5660   30.4310   37.0140 C   0  0  0  0  0  0  0  0  0  0  0  0
   44.1810   29.5350   36.9940 H   0  0  0  0  0  0  0  0  0  0  0  0
   42.2340   30.4610   37.4220 C   0  0  0  0  0  0  0  0  0  0  0  0
   41.3140   29.5420   37.8830 C   0  0  0  0  0  3  0  0  0  0  0  0
   38.1930   31.0750   41.3850 O   0  0  0  0  0  0  0  0  0  0  0  0
   41.5790   30.8320   42.3540 C   0  0  0  0  0  0  0  0  0  0  0  0
   41.6800   29.4920   42.7760 C   0  0  0  0  0  0  0  0  0  0  0  0
   40.5740   28.6880   42.7190 C   0  0  0  0  0  0  0  0  0  0  0  0
   39.4440   29.2520   42.2540 N   0  0  0  0  0  0  0  0  0  0  0  0
   39.3540   30.5100   41.8600 C   0  0  0  0  0  0  0  0  0  0  0  0
   40.4210   31.3030   41.9090 N   0  0  0  0  0  0  0  0  0  0  0  0
   42.4560   31.4630   42.4000 H   0  0  0  0  0  0  0  0  0  0  0  0
   42.6290   29.1770   43.1180 H   0  0  0  0  0  0  0  0  0  0  0  0
   40.5840   27.2810   43.1240 C   0  0  0  0  0  0  0  0  0  0  0  0
   40.8460   26.6830   42.2390 H   0  0  0  0  0  0  0  0  0  0  0  0
   41.3640   27.1010   43.8870 H   0  0  0  0  0  0  0  0  0  0  0  0
   39.2770   26.8030   43.6750 C   0  0  0  0  0  0  0  0  0  0  0  0
   38.6580   27.7510   43.7770 H   0  0  0  0  0  0  0  0  0  0  0  0
   39.2760   26.3910   44.6720 H   0  0  0  0  0  0  0  0  0  0  0  0
   38.5040   25.9840   42.7440 C   0  0  0  0  0  3  0  0  0  0  0  0
   37.2690   25.7900   42.3070 C   0  0  0  0  0  3  0  0  0  0  0  0
   36.8080   24.6950   41.3630 C   0  0  0  0  0  0  0  0  0  0  0  0
   37.6770   24.0730   41.1220 H   0  0  0  0  0  0  0  0  0  0  0  0
   36.4190   25.2230   40.4930 H   0  0  0  0  0  0  0  0  0  0  0  0
   35.9740   24.1330   41.8370 H   0  0  0  0  0  0  0  0  0  0  0  0
  1  2  1  0  0  0  0
  2  3  2  0  0  0  0
  2 26  1  0  0  0  0
  3  7  1  0  0  0  0
  4  8  1  0  0  0  0
  4  3  1  0  0  0  0
  5  4  2  0  0  0  0
  6  1  2  0  0  0  0
  6  5  1  0  0  0  0
  9  5  1  0  0  0  0
 10  6  1  0  0  0  0
 11 12  2  0  0  0  0
 11  1  1  0  0  0  0
 13 11  2  0  0  0  0
 15 14  1  0  0  0  0
 15 11  1  0  0  0  0
 16 15  2  0  0  0  0
 17 16  1  0  0  0  0
 18 24  2  0  0  0  0
 18 16  1  0  0  0  0
 19 18  1  0  0  0  0
 20 19  1  0  0  0  0
 21 19  1  0  0  0  0
 21 22  2  0  0  0  0
 22 24  1  0  0  0  0
 23 22  1  0  0  0  0
 24 25  1  0  0  0  0
 25 14  2  0  0  0  0
 26 31  1  0  0  0  0
 27 33  1  0  0  0  0
 27 28  1  0  0  0  0
 28 34  1  0  0  0  0
 29 28  2  0  0  0  0
 29 35  1  0  0  0  0
 30 29  1  0  0  0  0
 31 32  1  0  0  0  0
 31 30  2  0  0  0  0
 32 27  2  0  0  0  0
 35 38  1  0  0  0  0
 35 37  1  0  0  0  0
 36 35  1  0  0  0  0
 38 39  1  0  0  0  0
 38 40  1  0  0  0  0
 41 38  1  0  0  0  0
 42 41  2  0  0  0  0
 43 46  1  0  0  0  0
 43 42  1  0  0  0  0
 44 43  1  0  0  0  0
 45 43  1  0  0  0  0
M  END
>  <minimizedAffinity>
-5.8201108

$$$$

 OpenBabel03242517583D

 46 49  0  0  0  0  0  0  0  0999 V2000
   37.8710   30.5500   38.4990 C   0  0  0  0  0  0  0  0  0  0  0  0
   38.4730   29.4130   38.9190 C   0  0  0  0  0  0  0  0  0  0  0  0
   38.3610   28.2860   38.1280 C   0  0  0  0  0  0  0  0  0  0  0  0
   37.6680   28.2720   36.9400 C   0  0  0  0  0  0  0  0  0  0  0  0
   37.0610   29.4370   36.5230 C   0  0  0  0  0  0  0  0  0  0  0  0
   37.1680   30.5730   37.3120 C   0  0  0  0  0  0  0  0  0  0  0  0
   38.8090   27.3370   38.3880 H   0  0  0  0  0  0  0  0  0  0  0  0
   37.5840   27.3850   36.3240 H   0  0  0  0  0  0  0  0  0  0  0  0
   36.4980   29.5340   35.6140 H   0  0  0  0  0  0  0  0  0  0  0  0
   36.7280   31.5520   37.0800 H   0  0  0  0  0  0  0  0  0  0  0  0
   37.9610   31.9090   39.5910 S   0  0  0  0  0  0  0  0  0  0  0  0
   37.1820   31.7480   40.8300 O   0  0  0  0  0  0  0  0  0  0  0  0
   37.2770   33.0770   38.8400 O   0  0  0  0  0  0  0  0  0  0  0  0
   40.3130   33.1830   38.7970 C   0  0  0  0  0  3  0  0  0  0  0  0
   39.5880   32.5240   39.7770 C   0  0  0  0  0  0  0  0  0  0  0  0
   40.2880   32.3890   40.9790 C   0  0  0  0  0  0  0  0  0  0  0  0
   39.7600   31.8760   41.7840 H   0  0  0  0  0  0  0  0  0  0  0  0
   41.5580   32.8350   41.2380 C   0  0  0  0  0  0  0  0  0  0  0  0
   42.3130   32.7560   42.3500 N   0  0  0  0  0  0  0  0  0  0  0  0
   42.0620   32.3210   43.2630 H   0  0  0  0  0  0  0  0  0  0  0  0
   43.4600   33.3470   42.0600 N   0  0  0  0  0  0  0  0  0  0  0  0
   43.4550   33.8060   40.7780 C   0  0  0  0  0  0  0  0  0  0  0  0
   44.2430   34.3320   40.2450 H   0  0  0  0  0  0  0  0  0  0  0  0
   42.2180   33.4780   40.2290 C   0  0  0  0  0  0  0  0  0  0  0  0
   41.5930   33.6500   39.0110 C   0  0  0  0  0  3  0  0  0  0  0  0
   39.2180   29.2220   40.0780 O   0  0  0  0  0  0  0  0  0  0  0  0
   38.0920   28.7040   43.3830 C   0  0  0  0  0  0  0  0  0  0  0  0
   37.9960   27.3010   43.4560 C   0  0  0  0  0  0  0  0  0  0  0  0
   38.3230   26.5510   42.3590 C   0  0  0  0  0  0  0  0  0  0  0  0
   38.7200   27.2260   41.2660 N   0  0  0  0  0  0  0  0  0  0  0  0
   38.8090   28.5430   41.2020 C   0  0  0  0  0  0  0  0  0  0  0  0
   38.4950   29.2850   42.2590 N   0  0  0  0  0  0  0  0  0  0  0  0
   37.8330   29.2920   44.2520 H   0  0  0  0  0  0  0  0  0  0  0  0
   37.6700   26.8990   44.3780 H   0  0  0  0  0  0  0  0  0  0  0  0
   38.2660   25.0870   42.3430 C   0  0  0  0  0  0  0  0  0  0  0  0
   38.9540   24.7370   41.5600 H   0  0  0  0  0  0  0  0  0  0  0  0
   38.6210   24.6730   43.3050 H   0  0  0  0  0  0  0  0  0  0  0  0
   36.8970   24.5400   42.0800 C   0  0  0  0  0  0  0  0  0  0  0  0
   36.1990   25.3730   42.4140 H   0  0  0  0  0  0  0  0  0  0  0  0
   36.5780   23.6910   42.6640 H   0  0  0  0  0  0  0  0  0  0  0  0
   36.5860   24.3770   40.6620 C   0  0  0  0  0  3  0  0  0  0  0  0
   36.3900   25.0750   39.5520 C   0  0  0  0  0  3  0  0  0  0  0  0
   35.9380   24.5270   38.2120 C   0  0  0  0  0  0  0  0  0  0  0  0
   35.7780   23.4490   38.3270 H   0  0  0  0  0  0  0  0  0  0  0  0
   36.7550   24.7560   37.5280 H   0  0  0  0  0  0  0  0  0  0  0  0
   35.0330   25.0800   37.8790 H   0  0  0  0  0  0  0  0  0  0  0  0
  1  2  1  0  0  0  0
  1 11  1  0  0  0  0
  2 26  1  0  0  0  0
  3  7  1  0  0  0  0
  3  2  2  0  0  0  0
  4  3  1  0  0  0  0
  5  4  2  0  0  0  0
  5  6  1  0  0  0  0
  6  1  2  0  0  0  0
  8  4  1  0  0  0  0
  9  5  1  0  0  0  0
 10  6  1  0  0  0  0
 11 15  1  0  0  0  0
 11 12  2  0  0  0  0
 13 11  2  0  0  0  0
 14 25  2  0  0  0  0
 14 15  1  0  0  0  0
 15 16  2  0  0  0  0
 16 18  1  0  0  0  0
 16 17  1  0  0  0  0
 18 19  1  0  0  0  0
 19 20  1  0  0  0  0
 21 19  1  0  0  0  0
 22 21  2  0  0  0  0
 23 22  1  0  0  0  0
 24 22  1  0  0  0  0
 24 18  2  0  0  0  0
 25 24  1  0  0  0  0
 26 31  1  0  0  0  0
 27 28  1  0  0  0  0
 27 33  1  0  0  0  0
 28 34  1  0  0  0  0
 29 28  2  0  0  0  0
 30 29  1  0  0  0  0
 31 30  2  0  0  0  0
 31 32  1  0  0  0  0
 32 27  2  0  0  0  0
 35 29  1  0  0  0  0
 35 37  1  0  0  0  0
 36 35  1  0  0  0  0
 38 35  1  0  0  0  0
 38 39  1  0  0  0  0
 38 40  1  0  0  0  0
 41 38  1  0  0  0  0
 42 41  2  0  0  0  0
 43 44  1  0  0  0  0
 43 42  1  0  0  0  0
 45 43  1  0  0  0  0
 46 43  1  0  0  0  0
M  END
>  <minimizedAffinity>
-5.76375008

$$$$

 OpenBabel03242517583D

 46 49  0  0  0  0  0  0  0  0999 V2000
   40.0570   33.0420   39.0290 C   0  0  0  0  0  0  0  0  0  0  0  0
   40.1200   32.2030   37.9680 C   0  0  0  0  0  0  0  0  0  0  0  0
   41.2230   32.2820   37.1390 C   0  0  0  0  0  0  0  0  0  0  0  0
   42.2520   33.1700   37.3470 C   0  0  0  0  0  0  0  0  0  0  0  0
   42.1770   34.0170   38.4310 C   0  0  0  0  0  0  0  0  0  0  0  0
   41.0720   33.9450   39.2680 C   0  0  0  0  0  0  0  0  0  0  0  0
   41.3540   31.6510   36.2710 H   0  0  0  0  0  0  0  0  0  0  0  0
   43.1150   33.2270   36.6940 H   0  0  0  0  0  0  0  0  0  0  0  0
   42.9240   34.7460   38.6840 H   0  0  0  0  0  0  0  0  0  0  0  0
   40.9060   34.5670   40.1570 H   0  0  0  0  0  0  0  0  0  0  0  0
   38.5920   32.9640   39.9750 S   0  0  0  0  0  0  0  0  0  0  0  0
   37.3590   33.2210   39.2120 O   0  0  0  0  0  0  0  0  0  0  0  0
   38.6940   34.1430   40.9730 O   0  0  0  0  0  0  0  0  0  0  0  0
   39.5670   31.2440   41.9430 C   0  0  0  0  0  3  0  0  0  0  0  0
   38.5570   31.5940   41.0610 C   0  0  0  0  0  0  0  0  0  0  0  0
   37.4590   30.7320   41.1150 C   0  0  0  0  0  0  0  0  0  0  0  0
   36.6350   30.9640   40.4380 H   0  0  0  0  0  0  0  0  0  0  0  0
   37.3210   29.6360   41.9270 C   0  0  0  0  0  0  0  0  0  0  0  0
   36.3150   28.7500   42.0540 N   0  0  0  0  0  0  0  0  0  0  0  0
   35.4110   28.7320   41.5340 H   0  0  0  0  0  0  0  0  0  0  0  0
   36.6950   27.8890   42.9820 N   0  0  0  0  0  0  0  0  0  0  0  0
   37.9310   28.2060   43.4550 C   0  0  0  0  0  0  0  0  0  0  0  0
   38.5160   27.6960   44.2170 H   0  0  0  0  0  0  0  0  0  0  0  0
   38.3530   29.3460   42.7740 C   0  0  0  0  0  0  0  0  0  0  0  0
   39.4730   30.1520   42.7800 C   0  0  0  0  0  3  0  0  0  0  0  0
   39.1930   31.2380   37.5890 O   0  0  0  0  0  0  0  0  0  0  0  0
   37.7580   28.1320   38.4580 C   0  0  0  0  0  0  0  0  0  0  0  0
   38.8460   27.4420   39.0290 C   0  0  0  0  0  0  0  0  0  0  0  0
   40.0630   28.0610   39.1060 C   0  0  0  0  0  0  0  0  0  0  0  0
   40.1330   29.3130   38.6180 N   0  0  0  0  0  0  0  0  0  0  0  0
   39.1100   29.9570   38.0840 C   0  0  0  0  0  0  0  0  0  0  0  0
   37.9210   29.3680   38.0030 N   0  0  0  0  0  0  0  0  0  0  0  0
   36.7970   27.6390   38.4000 H   0  0  0  0  0  0  0  0  0  0  0  0
   38.6520   26.4630   39.3740 H   0  0  0  0  0  0  0  0  0  0  0  0
   41.2480   27.4300   39.6910 C   0  0  0  0  0  0  0  0  0  0  0  0
   41.2010   26.3560   39.4580 H   0  0  0  0  0  0  0  0  0  0  0  0
   42.1700   27.8280   39.2290 H   0  0  0  0  0  0  0  0  0  0  0  0
   41.3570   27.6110   41.1730 C   0  0  0  0  0  0  0  0  0  0  0  0
   40.5810   28.4070   41.4120 H   0  0  0  0  0  0  0  0  0  0  0  0
   42.2740   28.0260   41.5600 H   0  0  0  0  0  0  0  0  0  0  0  0
   40.9120   26.4540   41.9470 C   0  0  0  0  0  3  0  0  0  0  0  0
   39.9500   25.5440   41.9980 C   0  0  0  0  0  3  0  0  0  0  0  0
   39.7460   24.5090   43.0890 C   0  0  0  0  0  0  0  0  0  0  0  0
   40.5240   24.6610   43.8450 H   0  0  0  0  0  0  0  0  0  0  0  0
   39.8390   23.5490   42.5820 H   0  0  0  0  0  0  0  0  0  0  0  0
   38.7120   24.5990   43.4870 H   0  0  0  0  0  0  0  0  0  0  0  0
  1  6  1  0  0  0  0
  1 11  1  0  0  0  0
  2  1  2  0  0  0  0
  3  4  2  0  0  0  0
  3  2  1  0  0  0  0
  4  5  1  0  0  0  0
  5  9  1  0  0  0  0
  5  6  2  0  0  0  0
  6 10  1  0  0  0  0
  7  3  1  0  0  0  0
  8  4  1  0  0  0  0
 11 13  2  0  0  0  0
 11 15  1  0  0  0  0
 12 11  2  0  0  0  0
 14 25  1  0  0  0  0
 15 16  1  0  0  0  0
 15 14  2  0  0  0  0
 16 18  2  0  0  0  0
 17 16  1  0  0  0  0
 18 19  1  0  0  0  0
 18 24  1  0  0  0  0
 19 21  1  0  0  0  0
 20 19  1  0  0  0  0
 21 22  2  0  0  0  0
 22 23  1  0  0  0  0
 24 25  2  0  0  0  0
 24 22  1  0  0  0  0
 26  2  1  0  0  0  0
 26 31  1  0  0  0  0
 27 28  1  0  0  0  0
 28 29  2  0  0  0  0
 28 34  1  0  0  0  0
 29 35  1  0  0  0  0
 30 29  1  0  0  0  0
 31 30  2  0  0  0  0
 32 31  1  0  0  0  0
 32 27  2  0  0  0  0
 33 27  1  0  0  0  0
 35 38  1  0  0  0  0
 36 35  1  0  0  0  0
 37 35  1  0  0  0  0
 38 39  1  0  0  0  0
 38 40  1  0  0  0  0
 38 41  1  0  0  0  0
 41 42  2  0  0  0  0
 42 43  1  0  0  0  0
 43 46  1  0  0  0  0
 43 44  1  0  0  0  0
 45 43  1  0  0  0  0
M  END
>  <minimizedAffinity>
-5.7433157

$$$$

 OpenBabel03242517583D

 46 49  0  0  0  0  0  0  0  0999 V2000
   37.2340   27.6190   40.4810 C   0  0  0  0  0  0  0  0  0  0  0  0
   36.7420   28.5070   41.3760 C   0  0  0  0  0  0  0  0  0  0  0  0
   36.5160   28.0710   42.6680 C   0  0  0  0  0  0  0  0  0  0  0  0
   36.7700   26.7830   43.0780 C   0  0  0  0  0  0  0  0  0  0  0  0
   37.2720   25.8900   42.1570 C   0  0  0  0  0  0  0  0  0  0  0  0
   37.5010   26.3190   40.8570 C   0  0  0  0  0  0  0  0  0  0  0  0
   36.1250   28.7120   43.4460 H   0  0  0  0  0  0  0  0  0  0  0  0
   36.5920   26.4480   44.0930 H   0  0  0  0  0  0  0  0  0  0  0  0
   37.5050   24.8640   42.3730 H   0  0  0  0  0  0  0  0  0  0  0  0
   37.8970   25.6980   40.0440 H   0  0  0  0  0  0  0  0  0  0  0  0
   37.3980   28.2010   38.8430 S   0  0  0  0  0  0  0  0  0  0  0  0
   36.1770   28.8050   38.2850 O   0  0  0  0  0  0  0  0  0  0  0  0
   37.6400   26.9340   37.9870 O   0  0  0  0  0  0  0  0  0  0  0  0
   40.1410   28.6840   39.0110 C   0  0  0  0  0  3  0  0  0  0  0  0
   38.8850   29.0840   38.5820 C   0  0  0  0  0  0  0  0  0  0  0  0
   38.9030   30.2970   37.8890 C   0  0  0  0  0  0  0  0  0  0  0  0
   37.9380   30.6570   37.5300 H   0  0  0  0  0  0  0  0  0  0  0  0
   40.0050   31.0680   37.6220 C   0  0  0  0  0  0  0  0  0  0  0  0
   40.1280   32.2390   36.9700 N   0  0  0  0  0  0  0  0  0  0  0  0
   39.3720   32.8050   36.5270 H   0  0  0  0  0  0  0  0  0  0  0  0
   41.4130   32.5460   36.9980 N   0  0  0  0  0  0  0  0  0  0  0  0
   42.1220   31.5880   37.6590 C   0  0  0  0  0  0  0  0  0  0  0  0
   43.1910   31.5500   37.8510 H   0  0  0  0  0  0  0  0  0  0  0  0
   41.2140   30.6160   38.0720 C   0  0  0  0  0  0  0  0  0  0  0  0
   41.2780   29.4250   38.7650 C   0  0  0  0  0  3  0  0  0  0  0  0
   36.4260   29.8440   41.1640 O   0  0  0  0  0  0  0  0  0  0  0  0
   37.6760   32.9990   40.1940 C   0  0  0  0  0  0  0  0  0  0  0  0
   39.0120   32.9480   40.6390 C   0  0  0  0  0  0  0  0  0  0  0  0
   39.4630   31.8200   41.2700 C   0  0  0  0  0  0  0  0  0  0  0  0
   38.5760   30.8210   41.4230 N   0  0  0  0  0  0  0  0  0  0  0  0
   37.3240   30.8730   41.0030 C   0  0  0  0  0  0  0  0  0  0  0  0
   36.8710   31.9620   40.3890 N   0  0  0  0  0  0  0  0  0  0  0  0
   37.3250   33.8920   39.6960 H   0  0  0  0  0  0  0  0  0  0  0  0
   39.6020   33.8040   40.4540 H   0  0  0  0  0  0  0  0  0  0  0  0
   40.8360   31.6690   41.7570 C   0  0  0  0  0  0  0  0  0  0  0  0
   41.4430   31.2820   40.9250 H   0  0  0  0  0  0  0  0  0  0  0  0
   41.2580   32.6500   42.0440 H   0  0  0  0  0  0  0  0  0  0  0  0
   40.9610   30.7500   42.9310 C   0  0  0  0  0  0  0  0  0  0  0  0
   39.9510   30.8220   43.4470 H   0  0  0  0  0  0  0  0  0  0  0  0
   41.6620   31.0200   43.7050 H   0  0  0  0  0  0  0  0  0  0  0  0
   41.0640   29.3370   42.5700 C   0  0  0  0  0  3  0  0  0  0  0  0
   40.4790   28.1660   42.7740 C   0  0  0  0  0  3  0  0  0  0  0  0
   40.9760   26.8150   42.2960 C   0  0  0  0  0  0  0  0  0  0  0  0
   41.9240   26.9730   41.7700 H   0  0  0  0  0  0  0  0  0  0  0  0
   40.1900   26.4460   41.6370 H   0  0  0  0  0  0  0  0  0  0  0  0
   41.0580   26.1290   43.1660 H   0  0  0  0  0  0  0  0  0  0  0  0
  1  6  2  0  0  0  0
  1  2  1  0  0  0  0
  2  3  2  0  0  0  0
  3  4  1  0  0  0  0
  3  7  1  0  0  0  0
  4  8  1  0  0  0  0
  5  9  1  0  0  0  0
  5  4  2  0  0  0  0
  6  5  1  0  0  0  0
 10  6  1  0  0  0  0
 11  1  1  0  0  0  0
 12 11  2  0  0  0  0
 13 11  2  0  0  0  0
 15 11  1  0  0  0  0
 15 14  2  0  0  0  0
 16 15  1  0  0  0  0
 17 16  1  0  0  0  0
 18 16  2  0  0  0  0
 18 24  1  0  0  0  0
 19 21  1  0  0  0  0
 19 18  1  0  0  0  0
 20 19  1  0  0  0  0
 21 22  2  0  0  0  0
 22 23  1  0  0  0  0
 22 24  1  0  0  0  0
 24 25  2  0  0  0  0
 25 14  1  0  0  0  0
 26  2  1  0  0  0  0
 27 32  2  0  0  0  0
 27 28  1  0  0  0  0
 28 29  2  0  0  0  0
 29 30  1  0  0  0  0
 29 35  1  0  0  0  0
 31 26  1  0  0  0  0
 31 30  2  0  0  0  0
 32 31  1  0  0  0  0
 33 27  1  0  0  0  0
 34 28  1  0  0  0  0
 35 37  1  0  0  0  0
 35 38  1  0  0  0  0
 36 35  1  0  0  0  0
 38 39  1  0  0  0  0
 38 40  1  0  0  0  0
 41 42  2  0  0  0  0
 41 38  1  0  0  0  0
 43 42  1  0  0  0  0
 43 46  1  0  0  0  0
 44 43  1  0  0  0  0
 45 43  1  0  0  0  0
M  END
>  <minimizedAffinity>
-5.69869757

$$$$

 OpenBabel03242517583D

 46 49  0  0  0  0  0  0  0  0999 V2000
   36.9570   30.1900   38.4990 C   0  0  0  0  0  0  0  0  0  0  0  0
   36.5220   30.2270   39.7810 C   0  0  0  0  0  0  0  0  0  0  0  0
   36.6070   31.4260   40.4630 C   0  0  0  0  0  0  0  0  0  0  0  0
   37.1090   32.5740   39.8970 C   0  0  0  0  0  0  0  0  0  0  0  0
   37.5470   32.5230   38.5920 C   0  0  0  0  0  0  0  0  0  0  0  0
   37.4660   31.3230   37.9000 C   0  0  0  0  0  0  0  0  0  0  0  0
   36.2830   31.5440   41.4880 H   0  0  0  0  0  0  0  0  0  0  0  0
   37.1730   33.5110   40.4370 H   0  0  0  0  0  0  0  0  0  0  0  0
   37.9550   33.3600   38.0570 H   0  0  0  0  0  0  0  0  0  0  0  0
   37.7830   31.1660   36.8610 H   0  0  0  0  0  0  0  0  0  0  0  0
   36.9200   28.6240   37.7270 S   0  0  0  0  0  0  0  0  0  0  0  0
   37.6880   27.5810   38.4280 O   0  0  0  0  0  0  0  0  0  0  0  0
   37.6560   28.8210   36.3800 O   0  0  0  0  0  0  0  0  0  0  0  0
   34.8780   26.8740   36.9830 C   0  0  0  0  0  3  0  0  0  0  0  0
   35.3200   28.1720   37.1850 C   0  0  0  0  0  0  0  0  0  0  0  0
   34.3410   29.1330   36.9150 C   0  0  0  0  0  0  0  0  0  0  0  0
   34.6390   30.1720   37.0580 H   0  0  0  0  0  0  0  0  0  0  0  0
   33.0590   28.8940   36.4930 C   0  0  0  0  0  0  0  0  0  0  0  0
   32.0500   29.7390   36.2070 N   0  0  0  0  0  0  0  0  0  0  0  0
   32.0560   30.7810   36.2570 H   0  0  0  0  0  0  0  0  0  0  0  0
   31.0270   28.9850   35.8450 N   0  0  0  0  0  0  0  0  0  0  0  0
   31.3610   27.6650   35.8920 C   0  0  0  0  0  0  0  0  0  0  0  0
   30.7450   26.8020   35.6540 H   0  0  0  0  0  0  0  0  0  0  0  0
   32.6870   27.5910   36.3140 C   0  0  0  0  0  0  0  0  0  0  0  0
   33.5980   26.5850   36.5600 C   0  0  0  0  0  3  0  0  0  0  0  0
   35.9810   29.1860   40.5270 O   0  0  0  0  0  0  0  0  0  0  0  0
   38.0760   28.4490   43.2700 C   0  0  0  0  0  0  0  0  0  0  0  0
   37.9820   27.0460   43.3580 C   0  0  0  0  0  0  0  0  0  0  0  0
   37.1940   26.3730   42.4650 C   0  0  0  0  0  0  0  0  0  0  0  0
   36.5510   27.1180   41.5490 N   0  0  0  0  0  0  0  0  0  0  0  0
   36.6420   28.4350   41.4700 C   0  0  0  0  0  0  0  0  0  0  0  0
   37.4040   29.1020   42.3300 N   0  0  0  0  0  0  0  0  0  0  0  0
   38.7010   28.9770   43.9780 H   0  0  0  0  0  0  0  0  0  0  0  0
   38.5420   26.5850   44.1260 H   0  0  0  0  0  0  0  0  0  0  0  0
   37.0430   24.9160   42.4700 C   0  0  0  0  0  0  0  0  0  0  0  0
   37.5560   24.5320   43.3640 H   0  0  0  0  0  0  0  0  0  0  0  0
   35.9770   24.6360   42.5550 H   0  0  0  0  0  0  0  0  0  0  0  0
   37.6020   24.2480   41.2520 C   0  0  0  0  0  0  0  0  0  0  0  0
   38.0610   23.2880   41.6510 H   0  0  0  0  0  0  0  0  0  0  0  0
   38.4230   24.7330   40.7490 H   0  0  0  0  0  0  0  0  0  0  0  0
   36.5850   23.7810   40.3130 C   0  0  0  0  0  3  0  0  0  0  0  0
   35.8420   24.1890   39.2950 C   0  0  0  0  0  3  0  0  0  0  0  0
   34.7410   23.4020   38.6090 C   0  0  0  0  0  0  0  0  0  0  0  0
   34.6490   22.4380   39.1220 H   0  0  0  0  0  0  0  0  0  0  0  0
   35.0760   23.2950   37.5770 H   0  0  0  0  0  0  0  0  0  0  0  0
   33.8060   24.0030   38.6160 H   0  0  0  0  0  0  0  0  0  0  0  0
  1  2  1  0  0  0  0
  2  3  2  0  0  0  0
  2 26  1  0  0  0  0
  3  7  1  0  0  0  0
  4  8  1  0  0  0  0
  4  3  1  0  0  0  0
  5  4  2  0  0  0  0
  6  1  2  0  0  0  0
  6  5  1  0  0  0  0
  9  5  1  0  0  0  0
 10  6  1  0  0  0  0
 11 12  2  0  0  0  0
 11  1  1  0  0  0  0
 13 11  2  0  0  0  0
 14 15  1  0  0  0  0
 15 11  1  0  0  0  0
 16 17  1  0  0  0  0
 16 15  2  0  0  0  0
 18 16  1  0  0  0  0
 19 20  1  0  0  0  0
 19 18  1  0  0  0  0
 21 22  2  0  0  0  0
 21 19  1  0  0  0  0
 22 24  1  0  0  0  0
 23 22  1  0  0  0  0
 24 18  2  0  0  0  0
 24 25  1  0  0  0  0
 25 14  2  0  0  0  0
 26 31  1  0  0  0  0
 27 28  1  0  0  0  0
 27 33  1  0  0  0  0
 28 34  1  0  0  0  0
 29 35  1  0  0  0  0
 29 28  2  0  0  0  0
 30 29  1  0  0  0  0
 31 30  2  0  0  0  0
 31 32  1  0  0  0  0
 32 27  2  0  0  0  0
 35 37  1  0  0  0  0
 35 36  1  0  0  0  0
 38 39  1  0  0  0  0
 38 35  1  0  0  0  0
 40 38  1  0  0  0  0
 41 38  1  0  0  0  0
 42 41  2  0  0  0  0
 43 46  1  0  0  0  0
 43 44  1  0  0  0  0
 43 42  1  0  0  0  0
 45 43  1  0  0  0  0
M  END
>  <minimizedAffinity>
-5.66883755

$$$$
