
 OpenBabel03252508043D

 45 49  0  0  1  0  0  0  0  0999 V2000
   42.1690   33.2750   41.2010 C   0  0  0  0  0  0  0  0  0  0  0  0
   42.8460   34.4460   41.3760 C   0  0  0  0  0  0  0  0  0  0  0  0
   42.1130   35.6470   41.3010 C   0  0  0  0  0  0  0  0  0  0  0  0
   40.7620   35.6940   41.0640 C   0  0  0  0  0  0  0  0  0  0  0  0
   40.0900   34.5160   40.8900 C   0  0  0  0  0  0  0  0  0  0  0  0
   40.7890   33.3460   40.9600 C   0  0  0  0  0  0  0  0  0  0  0  0
   42.5680   36.6240   41.4180 H   0  0  0  0  0  0  0  0  0  0  0  0
   40.2170   36.6160   41.0090 H   0  0  0  0  0  0  0  0  0  0  0  0
   39.0430   34.4560   40.7010 H   0  0  0  0  0  0  0  0  0  0  0  0
   40.2530   32.3940   40.8210 H   0  0  0  0  0  0  0  0  0  0  0  0
   42.9270   31.7720   41.3060 S   0  0  0  0  0  0  0  0  0  0  0  0
   42.2320   30.9930   40.1710 O   0  0  0  0  0  0  0  0  0  0  0  0
   42.5750   31.0790   42.6120 O   0  0  0  0  0  0  0  0  0  0  0  0
   44.6560   31.1360   39.4060 C   0  0  0  0  0  3  0  0  0  0  0  0
   44.4000   31.2090   40.8010 C   0  0  0  0  0  0  0  0  0  0  0  0
   45.5380   30.8020   41.5440 C   0  0  0  0  0  0  0  0  0  0  0  0
   45.3350   30.8730   42.6300 H   0  0  0  0  0  0  0  0  0  0  0  0
   46.7830   30.3710   41.1500 C   0  0  0  0  0  0  0  0  0  0  0  0
   47.9080   29.9680   41.6960 N   0  0  0  0  0  0  0  0  0  0  0  0
   48.0330   29.9110   42.7300 H   0  0  0  0  0  0  0  0  0  0  0  0
   48.7130   29.6980   40.6880 N   0  0  0  0  0  0  0  0  0  0  0  0
   48.1300   29.9200   39.4990 C   0  0  0  0  0  0  0  0  0  0  0  0
   48.5750   29.7750   38.5230 H   0  0  0  0  0  0  0  0  0  0  0  0
   46.8430   30.3670   39.7870 C   0  0  0  0  0  0  0  0  0  0  0  0
   45.8630   30.7220   38.9060 C   0  0  0  0  0  3  0  0  0  0  0  0
   44.2780   34.5010   41.6260 C   0  0  0  0  0  0  0  0  0  0  0  0
   45.1700   34.5140   40.7140 O   0  0  0  0  0  0  0  0  0  0  0  0
   44.6020   34.5440   43.0220 C   0  0  0  0  0  0  0  0  0  0  0  0
   44.2910   35.7690   43.7000 C   0  0  0  0  0  0  0  0  0  0  0  0
   44.5880   35.8210   45.0540 C   0  0  0  0  0  0  0  0  0  0  0  0
   45.1440   34.7300   45.6430 N   0  0  0  0  0  0  0  0  0  0  0  0
   45.4220   33.5790   44.9490 C   0  0  0  0  0  0  0  0  0  0  0  0
   45.1450   33.5360   43.6950 N   0  0  0  0  0  0  0  0  0  0  0  0
   43.8610   36.6630   43.3160 H   0  0  0  0  0  0  0  0  0  0  0  0
   44.4090   36.6710   45.6780 H   0  0  0  0  0  0  0  0  0  0  0  0
   46.0180   32.4460   45.6750 C   0  0  1  0  0  0  0  0  0  0  0  0
   46.9740   32.7280   46.8190 C   0  0  0  0  0  0  0  0  0  0  0  0
   45.5610   32.2930   47.0830 C   0  0  1  0  0  0  0  0  0  0  0  0
   46.2440   31.5340   45.1310 H   0  0  0  0  0  0  0  0  0  0  0  0
   47.2850   33.7790   46.9120 H   0  0  0  0  0  0  0  0  0  0  0  0
   47.7800   32.0130   47.0410 H   0  0  0  0  0  0  0  0  0  0  0  0
   45.4470   31.3050   47.5590 H   0  0  0  0  0  0  0  0  0  0  0  0
   44.7900   33.3560   47.7110 N   0  0  0  0  0  0  0  0  0  0  0  0
   44.8800   33.3370   48.7510 H   0  0  0  0  0  0  0  0  0  0  0  0
   43.7750   33.1010   47.5370 H   0  0  0  0  0  0  0  0  0  0  0  0
  1 11  1  0  0  0  0
  1  2  1  0  0  0  0
  2 26  1  0  0  0  0
  3  2  2  0  0  0  0
  3  7  1  0  0  0  0
  4  3  1  0  0  0  0
  5  6  1  0  0  0  0
  5  4  2  0  0  0  0
  6  1  2  0  0  0  0
  8  4  1  0  0  0  0
  9  5  1  0  0  0  0
 10  6  1  0  0  0  0
 11 13  2  0  0  0  0
 12 11  2  0  0  0  0
 14 15  1  0  0  0  0
 15 11  1  0  0  0  0
 15 16  2  0  0  0  0
 16 17  1  0  0  0  0
 18 16  1  0  0  0  0
 18 19  1  0  0  0  0
 19 20  1  0  0  0  0
 21 19  1  0  0  0  0
 22 24  1  0  0  0  0
 22 21  2  0  0  0  0
 23 22  1  0  0  0  0
 24 18  2  0  0  0  0
 25 14  2  0  0  0  0
 25 24  1  0  0  0  0
 26 28  1  0  0  0  0
 27 26  2  0  0  0  0
 28 33  2  0  0  0  0
 28 29  1  0  0  0  0
 29 30  2  0  0  0  0
 30 31  1  0  0  0  0
 30 35  1  0  0  0  0
 32 31  2  0  0  0  0
 32 36  1  0  0  0  0
 33 32  1  0  0  0  0
 34 29  1  0  0  0  0
 36 39  1  6  0  0  0
 36 37  1  0  0  0  0
 36 38  1  0  0  0  0
 37 40  1  0  0  0  0
 37 41  1  0  0  0  0
 37 38  1  0  0  0  0
 38 42  1  1  0  0  0
 38 43  1  0  0  0  0
 43 44  1  0  0  0  0
 45 43  1  0  0  0  0
M  END
>  <minimizedAffinity>
-5.83762503

>  <minimizedRMSD>
1.17628109

$$$$
