
 OpenBabel03252508033D

 45 49  0  0  1  0  0  0  0  0999 V2000
   42.0970   33.2580   41.1070 C   0  0  0  0  0  0  0  0  0  0  0  0
   42.8130   34.3970   41.3360 C   0  0  0  0  0  0  0  0  0  0  0  0
   42.1170   35.6210   41.3390 C   0  0  0  0  0  0  0  0  0  0  0  0
   40.7650   35.7230   41.1270 C   0  0  0  0  0  0  0  0  0  0  0  0
   40.0540   34.5760   40.8990 C   0  0  0  0  0  0  0  0  0  0  0  0
   40.7180   33.3840   40.8920 C   0  0  0  0  0  0  0  0  0  0  0  0
   42.6030   36.5760   41.5030 H   0  0  0  0  0  0  0  0  0  0  0  0
   40.2480   36.6620   41.1310 H   0  0  0  0  0  0  0  0  0  0  0  0
   39.0030   34.5580   40.7240 H   0  0  0  0  0  0  0  0  0  0  0  0
   40.1500   32.4570   40.7090 H   0  0  0  0  0  0  0  0  0  0  0  0
   42.8100   31.7300   41.1160 S   0  0  0  0  0  0  0  0  0  0  0  0
   41.7370   30.8810   40.4040 O   0  0  0  0  0  0  0  0  0  0  0  0
   42.9370   31.2010   42.5350 O   0  0  0  0  0  0  0  0  0  0  0  0
   44.6310   29.8570   40.6870 C   0  0  0  0  0  3  0  0  0  0  0  0
   43.9910   31.0240   40.1930 C   0  0  0  0  0  0  0  0  0  0  0  0
   44.4820   31.3630   38.9060 C   0  0  0  0  0  0  0  0  0  0  0  0
   43.9690   32.2660   38.5210 H   0  0  0  0  0  0  0  0  0  0  0  0
   45.4300   30.7710   38.1040 C   0  0  0  0  0  0  0  0  0  0  0  0
   45.9820   30.9570   36.9250 N   0  0  0  0  0  0  0  0  0  0  0  0
   45.7140   31.7520   36.3070 H   0  0  0  0  0  0  0  0  0  0  0  0
   46.8500   29.9750   36.7840 N   0  0  0  0  0  0  0  0  0  0  0  0
   46.8700   29.1580   37.8500 C   0  0  0  0  0  0  0  0  0  0  0  0
   47.4930   28.2810   37.9820 H   0  0  0  0  0  0  0  0  0  0  0  0
   45.9300   29.6730   38.7390 C   0  0  0  0  0  0  0  0  0  0  0  0
   45.5880   29.1900   39.9680 C   0  0  0  0  0  3  0  0  0  0  0  0
   44.2500   34.3940   41.5650 C   0  0  0  0  0  0  0  0  0  0  0  0
   45.1280   34.3320   40.6420 O   0  0  0  0  0  0  0  0  0  0  0  0
   44.5950   34.4740   42.9540 C   0  0  0  0  0  0  0  0  0  0  0  0
   44.3120   35.7230   43.5990 C   0  0  0  0  0  0  0  0  0  0  0  0
   44.6300   35.8120   44.9470 C   0  0  0  0  0  0  0  0  0  0  0  0
   45.1800   34.7320   45.5600 N   0  0  0  0  0  0  0  0  0  0  0  0
   45.4310   33.5570   44.8970 C   0  0  0  0  0  0  0  0  0  0  0  0
   45.1350   33.4800   43.6490 N   0  0  0  0  0  0  0  0  0  0  0  0
   43.8870   36.6110   43.1950 H   0  0  0  0  0  0  0  0  0  0  0  0
   44.4710   36.6830   45.5470 H   0  0  0  0  0  0  0  0  0  0  0  0
   46.0240   32.4380   45.6480 C   0  0  1  0  0  0  0  0  0  0  0  0
   46.9690   32.7410   46.7950 C   0  0  0  0  0  0  0  0  0  0  0  0
   45.5550   32.3080   47.0540 C   0  0  1  0  0  0  0  0  0  0  0  0
   46.2560   31.5170   45.1220 H   0  0  0  0  0  0  0  0  0  0  0  0
   47.2780   33.7950   46.8720 H   0  0  0  0  0  0  0  0  0  0  0  0
   47.7740   32.0320   47.0360 H   0  0  0  0  0  0  0  0  0  0  0  0
   45.4390   31.3290   47.5470 H   0  0  0  0  0  0  0  0  0  0  0  0
   44.7760   33.3800   47.6570 N   0  0  0  0  0  0  0  0  0  0  0  0
   44.8580   33.3800   48.6980 H   0  0  0  0  0  0  0  0  0  0  0  0
   43.7640   33.1200   47.4790 H   0  0  0  0  0  0  0  0  0  0  0  0
  1 11  1  0  0  0  0
  1  2  1  0  0  0  0
  2  3  2  0  0  0  0
  2 26  1  0  0  0  0
  3  7  1  0  0  0  0
  4  8  1  0  0  0  0
  4  3  1  0  0  0  0
  5  4  2  0  0  0  0
  6  5  1  0  0  0  0
  6  1  2  0  0  0  0
  9  5  1  0  0  0  0
 10  6  1  0  0  0  0
 11 13  2  0  0  0  0
 12 11  2  0  0  0  0
 15 14  1  0  0  0  0
 15 11  1  0  0  0  0
 16 15  2  0  0  0  0
 17 16  1  0  0  0  0
 18 24  2  0  0  0  0
 18 16  1  0  0  0  0
 19 18  1  0  0  0  0
 20 19  1  0  0  0  0
 21 19  1  0  0  0  0
 21 22  2  0  0  0  0
 22 23  1  0  0  0  0
 22 24  1  0  0  0  0
 24 25  1  0  0  0  0
 25 14  2  0  0  0  0
 26 28  1  0  0  0  0
 27 26  2  0  0  0  0
 28 29  2  0  0  0  0
 28 33  1  0  0  0  0
 29 30  1  0  0  0  0
 30 35  1  0  0  0  0
 30 31  2  0  0  0  0
 32 31  1  0  0  0  0
 32 36  1  0  0  0  0
 33 32  2  0  0  0  0
 34 29  1  0  0  0  0
 36 39  1  6  0  0  0
 36 37  1  0  0  0  0
 36 38  1  0  0  0  0
 37 40  1  0  0  0  0
 37 41  1  0  0  0  0
 37 38  1  0  0  0  0
 38 42  1  1  0  0  0
 38 43  1  0  0  0  0
 43 44  1  0  0  0  0
 45 43  1  0  0  0  0
M  END
>  <minimizedAffinity>
-5.86818123

>  <minimizedRMSD>
2.01476383

$$$$
