
 OpenBabel03242517563D

 46 49  0  0  0  0  0  0  0  0999 V2000
   45.4590   30.1670   47.3380 C   0  0  0  0  0  0  0  0  0  0  0  0
   45.9970   31.2390   46.7100 C   0  0  0  0  0  0  0  0  0  0  0  0
   46.1840   32.3960   47.4430 C   0  0  0  0  0  0  0  0  0  0  0  0
   45.8470   32.5020   48.7720 C   0  0  0  0  0  0  0  0  0  0  0  0
   45.3010   31.4030   49.3980 C   0  0  0  0  0  0  0  0  0  0  0  0
   45.1100   30.2380   48.6700 C   0  0  0  0  0  0  0  0  0  0  0  0
   46.6070   33.2970   47.0210 H   0  0  0  0  0  0  0  0  0  0  0  0
   45.9960   33.4130   49.3400 H   0  0  0  0  0  0  0  0  0  0  0  0
   45.0040   31.3800   50.4300 H   0  0  0  0  0  0  0  0  0  0  0  0
   44.6850   29.3050   49.0630 H   0  0  0  0  0  0  0  0  0  0  0  0
   45.1530   28.7710   46.3340 S   0  0  0  0  0  0  0  0  0  0  0  0
   44.1640   28.9930   45.2660 O   0  0  0  0  0  0  0  0  0  0  0  0
   44.4950   27.7330   47.2750 O   0  0  0  0  0  0  0  0  0  0  0  0
   46.7510   27.1020   44.7700 C   0  0  0  0  0  3  0  0  0  0  0  0
   46.6180   27.9360   45.8690 C   0  0  0  0  0  0  0  0  0  0  0  0
   47.7990   28.0690   46.6030 C   0  0  0  0  0  0  0  0  0  0  0  0
   47.7470   28.7150   47.4800 H   0  0  0  0  0  0  0  0  0  0  0  0
   49.0020   27.4690   46.3300 C   0  0  0  0  0  0  0  0  0  0  0  0
   50.1860   27.5290   46.9660 N   0  0  0  0  0  0  0  0  0  0  0  0
   50.4210   28.0700   47.8270 H   0  0  0  0  0  0  0  0  0  0  0  0
   51.0150   26.7620   46.2830 N   0  0  0  0  0  0  0  0  0  0  0  0
   50.3820   26.2040   45.2120 C   0  0  0  0  0  0  0  0  0  0  0  0
   50.7880   25.5310   44.4620 H   0  0  0  0  0  0  0  0  0  0  0  0
   49.0650   26.6580   45.2290 C   0  0  0  0  0  0  0  0  0  0  0  0
   47.9390   26.4790   44.4540 C   0  0  0  0  0  3  0  0  0  0  0  0
   46.4060   31.3330   45.3850 O   0  0  0  0  0  0  0  0  0  0  0  0
   45.2900   34.2830   43.8000 C   0  0  0  0  0  0  0  0  0  0  0  0
   46.4600   34.7550   43.1740 C   0  0  0  0  0  0  0  0  0  0  0  0
   47.6220   34.0460   43.3090 C   0  0  0  0  0  0  0  0  0  0  0  0
   47.5600   32.9230   44.0480 N   0  0  0  0  0  0  0  0  0  0  0  0
   46.4590   32.4840   44.6330 C   0  0  0  0  0  0  0  0  0  0  0  0
   45.3220   33.1620   44.5100 N   0  0  0  0  0  0  0  0  0  0  0  0
   44.3740   34.8470   43.6890 H   0  0  0  0  0  0  0  0  0  0  0  0
   46.3700   35.6510   42.6220 H   0  0  0  0  0  0  0  0  0  0  0  0
   48.8850   34.4500   42.6880 C   0  0  0  0  0  0  0  0  0  0  0  0
   49.5860   34.7070   43.4960 H   0  0  0  0  0  0  0  0  0  0  0  0
   49.3280   33.6100   42.1220 H   0  0  0  0  0  0  0  0  0  0  0  0
   48.7530   35.6160   41.7580 C   0  0  0  0  0  0  0  0  0  0  0  0
   49.7730   36.1170   41.7970 H   0  0  0  0  0  0  0  0  0  0  0  0
   48.0720   36.4040   42.0390 H   0  0  0  0  0  0  0  0  0  0  0  0
   48.6070   35.2410   40.3540 C   0  0  0  0  0  3  0  0  0  0  0  0
   48.0330   34.3380   39.5720 C   0  0  0  0  0  3  0  0  0  0  0  0
   48.2200   34.1940   38.0730 C   0  0  0  0  0  0  0  0  0  0  0  0
   48.9370   34.9570   37.7500 H   0  0  0  0  0  0  0  0  0  0  0  0
   47.2270   34.3500   37.6520 H   0  0  0  0  0  0  0  0  0  0  0  0
   48.5410   33.1550   37.8450 H   0  0  0  0  0  0  0  0  0  0  0  0
  1  6  1  0  0  0  0
  2  1  2  0  0  0  0
  2  3  1  0  0  0  0
  3  4  2  0  0  0  0
  4  8  1  0  0  0  0
  4  5  1  0  0  0  0
  5  9  1  0  0  0  0
  6 10  1  0  0  0  0
  6  5  2  0  0  0  0
  7  3  1  0  0  0  0
 11 13  2  0  0  0  0
 11  1  1  0  0  0  0
 12 11  2  0  0  0  0
 14 15  1  0  0  0  0
 15 11  1  0  0  0  0
 15 16  2  0  0  0  0
 16 17  1  0  0  0  0
 18 16  1  0  0  0  0
 18 19  1  0  0  0  0
 19 20  1  0  0  0  0
 21 19  1  0  0  0  0
 22 24  1  0  0  0  0
 22 21  2  0  0  0  0
 23 22  1  0  0  0  0
 24 18  2  0  0  0  0
 25 14  2  0  0  0  0
 25 24  1  0  0  0  0
 26  2  1  0  0  0  0
 27 32  1  0  0  0  0
 28 29  1  0  0  0  0
 28 27  2  0  0  0  0
 29 30  2  0  0  0  0
 30 31  1  0  0  0  0
 31 26  1  0  0  0  0
 32 31  2  0  0  0  0
 33 27  1  0  0  0  0
 34 28  1  0  0  0  0
 35 29  1  0  0  0  0
 35 36  1  0  0  0  0
 37 35  1  0  0  0  0
 38 39  1  0  0  0  0
 38 40  1  0  0  0  0
 38 35  1  0  0  0  0
 41 38  1  0  0  0  0
 42 41  2  0  0  0  0
 43 42  1  0  0  0  0
 44 43  1  0  0  0  0
 45 43  1  0  0  0  0
 46 43  1  0  0  0  0
M  END
>  <minimizedAffinity>
-5.64107752

>  <minimizedRMSD>
1.80182362

$$$$
