
 OpenBabel03242517563D

 46 49  0  0  0  0  0  0  0  0999 V2000
   45.4780   30.1750   47.3010 C   0  0  0  0  0  0  0  0  0  0  0  0
   46.1210   31.2290   46.7450 C   0  0  0  0  0  0  0  0  0  0  0  0
   46.3330   32.3490   47.5280 C   0  0  0  0  0  0  0  0  0  0  0  0
   45.9210   32.4350   48.8370 C   0  0  0  0  0  0  0  0  0  0  0  0
   45.2690   31.3550   49.3900 C   0  0  0  0  0  0  0  0  0  0  0  0
   45.0510   30.2270   48.6120 C   0  0  0  0  0  0  0  0  0  0  0  0
   46.8370   33.2340   47.1650 H   0  0  0  0  0  0  0  0  0  0  0  0
   46.0910   33.3160   49.4450 H   0  0  0  0  0  0  0  0  0  0  0  0
   44.9070   31.3180   50.4010 H   0  0  0  0  0  0  0  0  0  0  0  0
   44.5450   29.3120   48.9450 H   0  0  0  0  0  0  0  0  0  0  0  0
   45.1490   28.8340   46.2320 S   0  0  0  0  0  0  0  0  0  0  0  0
   44.4340   29.2000   44.9980 O   0  0  0  0  0  0  0  0  0  0  0  0
   44.1610   27.9310   47.0100 O   0  0  0  0  0  0  0  0  0  0  0  0
   46.9390   27.2020   44.8480 C   0  0  0  0  0  3  0  0  0  0  0  0
   46.5200   27.7650   46.0430 C   0  0  0  0  0  0  0  0  0  0  0  0
   47.3180   27.4000   47.1310 C   0  0  0  0  0  0  0  0  0  0  0  0
   47.0290   27.8170   48.0970 H   0  0  0  0  0  0  0  0  0  0  0  0
   48.4150   26.5780   47.0980 C   0  0  0  0  0  0  0  0  0  0  0  0
   49.2420   26.1690   48.0780 N   0  0  0  0  0  0  0  0  0  0  0  0
   49.2010   26.4110   49.0920 H   0  0  0  0  0  0  0  0  0  0  0  0
   50.1360   25.3830   47.5030 N   0  0  0  0  0  0  0  0  0  0  0  0
   49.8980   25.2810   46.1660 C   0  0  0  0  0  0  0  0  0  0  0  0
   50.4510   24.7130   45.4220 H   0  0  0  0  0  0  0  0  0  0  0  0
   48.7750   26.0570   45.8880 C   0  0  0  0  0  0  0  0  0  0  0  0
   48.0360   26.3710   44.7660 C   0  0  0  0  0  3  0  0  0  0  0  0
   46.6170   31.3380   45.4510 O   0  0  0  0  0  0  0  0  0  0  0  0
   45.3500   34.2000   43.8180 C   0  0  0  0  0  0  0  0  0  0  0  0
   46.4890   34.7070   43.1630 C   0  0  0  0  0  0  0  0  0  0  0  0
   47.6820   34.0510   43.2950 C   0  0  0  0  0  0  0  0  0  0  0  0
   47.6790   32.9440   44.0600 N   0  0  0  0  0  0  0  0  0  0  0  0
   46.6070   32.4720   44.6720 C   0  0  0  0  0  0  0  0  0  0  0  0
   45.4410   33.0990   44.5530 N   0  0  0  0  0  0  0  0  0  0  0  0
   44.4080   34.7210   43.7100 H   0  0  0  0  0  0  0  0  0  0  0  0
   46.3510   35.5850   42.5920 H   0  0  0  0  0  0  0  0  0  0  0  0
   48.9170   34.4950   42.6430 C   0  0  0  0  0  0  0  0  0  0  0  0
   49.6260   34.7780   43.4350 H   0  0  0  0  0  0  0  0  0  0  0  0
   49.3740   33.6670   42.0710 H   0  0  0  0  0  0  0  0  0  0  0  0
   48.7250   35.6510   41.7130 C   0  0  0  0  0  0  0  0  0  0  0  0
   49.7190   36.2020   41.7480 H   0  0  0  0  0  0  0  0  0  0  0  0
   48.0070   36.4050   41.9940 H   0  0  0  0  0  0  0  0  0  0  0  0
   48.5930   35.2680   40.3090 C   0  0  0  0  0  3  0  0  0  0  0  0
   48.0430   34.3490   39.5280 C   0  0  0  0  0  3  0  0  0  0  0  0
   48.2400   34.2030   38.0310 C   0  0  0  0  0  0  0  0  0  0  0  0
   48.9410   34.9800   37.7080 H   0  0  0  0  0  0  0  0  0  0  0  0
   47.2460   34.3350   37.6050 H   0  0  0  0  0  0  0  0  0  0  0  0
   48.5850   33.1700   37.8090 H   0  0  0  0  0  0  0  0  0  0  0  0
  1  6  1  0  0  0  0
  2  1  2  0  0  0  0
  2  3  1  0  0  0  0
  3  4  2  0  0  0  0
  4  5  1  0  0  0  0
  4  8  1  0  0  0  0
  5  9  1  0  0  0  0
  6 10  1  0  0  0  0
  6  5  2  0  0  0  0
  7  3  1  0  0  0  0
 11 13  2  0  0  0  0
 11  1  1  0  0  0  0
 12 11  2  0  0  0  0
 14 15  1  0  0  0  0
 15 11  1  0  0  0  0
 15 16  2  0  0  0  0
 16 17  1  0  0  0  0
 18 16  1  0  0  0  0
 18 19  1  0  0  0  0
 19 20  1  0  0  0  0
 21 19  1  0  0  0  0
 22 21  2  0  0  0  0
 23 22  1  0  0  0  0
 24 22  1  0  0  0  0
 24 18  2  0  0  0  0
 25 14  2  0  0  0  0
 25 24  1  0  0  0  0
 26  2  1  0  0  0  0
 27 32  1  0  0  0  0
 28 29  1  0  0  0  0
 28 27  2  0  0  0  0
 29 30  2  0  0  0  0
 30 31  1  0  0  0  0
 31 26  1  0  0  0  0
 32 31  2  0  0  0  0
 33 27  1  0  0  0  0
 34 28  1  0  0  0  0
 35 29  1  0  0  0  0
 35 36  1  0  0  0  0
 37 35  1  0  0  0  0
 38 39  1  0  0  0  0
 38 40  1  0  0  0  0
 38 35  1  0  0  0  0
 41 38  1  0  0  0  0
 42 41  2  0  0  0  0
 43 42  1  0  0  0  0
 44 43  1  0  0  0  0
 45 43  1  0  0  0  0
 46 43  1  0  0  0  0
M  END
>  <minimizedAffinity>
-5.68317699

>  <minimizedRMSD>
2.23661852

$$$$
