
 OpenBabel03242518003D

 40 43  0  0  0  0  0  0  0  0999 V2000
   46.0430   31.9490   45.6580 C   0  0  0  0  0  0  0  0  0  0  0  0
   45.1840   32.4620   46.0920 H   0  0  0  0  0  0  0  0  0  0  0  0
   45.6090   31.0200   45.1830 H   0  0  0  0  0  0  0  0  0  0  0  0
   47.3480   32.3350   47.7360 C   0  0  0  0  0  0  0  0  0  0  0  0
   46.9920   31.4990   46.6650 C   0  0  0  0  0  0  0  0  0  0  0  0
   47.5990   30.2330   46.6260 C   0  0  0  0  0  0  0  0  0  0  0  0
   48.4680   29.9030   47.6000 N   0  0  0  0  0  0  0  0  0  0  0  0
   48.7910   30.7200   48.6130 C   0  0  0  0  0  0  0  0  0  0  0  0
   48.2300   31.9240   48.6720 N   0  0  0  0  0  0  0  0  0  0  0  0
   46.9380   33.3290   47.8580 H   0  0  0  0  0  0  0  0  0  0  0  0
   47.3560   29.5560   45.8190 H   0  0  0  0  0  0  0  0  0  0  0  0
   50.2480   31.3380   50.4860 C   0  0  0  0  0  3  0  0  0  0  0  0
   49.7340   30.3530   49.6660 C   0  0  0  0  0  0  0  0  0  0  0  0
   50.1430   29.0530   49.8830 C   0  0  0  0  0  0  0  0  0  0  0  0
   49.7600   28.2540   49.2600 H   0  0  0  0  0  0  0  0  0  0  0  0
   51.0390   28.7560   50.8940 C   0  0  0  0  0  0  0  0  0  0  0  0
   51.5860   27.5970   51.3060 N   0  0  0  0  0  0  0  0  0  0  0  0
   51.4040   26.6380   50.8890 H   0  0  0  0  0  0  0  0  0  0  0  0
   52.4000   27.8140   52.3260 N   0  0  0  0  0  0  0  0  0  0  0  0
   52.4070   29.1300   52.6080 C   0  0  0  0  0  0  0  0  0  0  0  0
   52.9140   29.7550   53.3440 H   0  0  0  0  0  0  0  0  0  0  0  0
   51.5450   29.7720   51.7110 C   0  0  0  0  0  0  0  0  0  0  0  0
   51.1450   31.0970   51.5070 C   0  0  0  0  0  3  0  0  0  0  0  0
   46.8130   32.7490   44.6280 C   0  0  0  0  0  0  0  0  0  0  0  0
   47.0390   32.0720   43.7840 H   0  0  0  0  0  0  0  0  0  0  0  0
   47.8330   33.0460   45.0140 H   0  0  0  0  0  0  0  0  0  0  0  0
   46.5820   34.6310   43.0650 C   0  0  0  0  0  0  0  0  0  0  0  0
   46.1710   34.0030   44.2220 C   0  0  0  0  0  0  0  0  0  0  0  0
   45.1780   34.4940   45.0270 C   0  0  0  0  0  0  0  0  0  0  0  0
   44.5590   35.6710   44.6640 C   0  0  0  0  0  0  0  0  0  0  0  0
   44.9020   36.3600   43.5330 C   0  0  0  0  0  0  0  0  0  0  0  0
   45.9200   35.8030   42.7620 C   0  0  0  0  0  0  0  0  0  0  0  0
   44.8020   34.0820   45.9290 H   0  0  0  0  0  0  0  0  0  0  0  0
   43.7590   36.1330   45.2450 H   0  0  0  0  0  0  0  0  0  0  0  0
   44.4320   37.2750   43.2370 H   0  0  0  0  0  0  0  0  0  0  0  0
   46.2190   36.3290   41.8510 H   0  0  0  0  0  0  0  0  0  0  0  0
   47.8490   34.0410   42.0090 S   0  0  0  0  0  0  0  0  0  0  0  0
   49.2300   34.3080   42.5690 O   0  0  0  0  0  0  0  0  0  0  0  0
   47.8010   34.8230   40.7170 O   0  0  0  0  0  0  0  0  0  0  0  0
   47.6860   32.7360   41.6530 H   0  0  0  0  0  0  0  0  0  0  0  0
  1  2  1  0  0  0  0
  1  5  1  0  0  0  0
  3  1  1  0  0  0  0
  4 10  1  0  0  0  0
  4  9  1  0  0  0  0
  5  4  2  0  0  0  0
  6  5  1  0  0  0  0
  6  7  2  0  0  0  0
  7  8  1  0  0  0  0
  8  9  2  0  0  0  0
  8 13  1  0  0  0  0
 11  6  1  0  0  0  0
 12 23  1  0  0  0  0
 13 14  1  0  0  0  0
 13 12  2  0  0  0  0
 14 16  2  0  0  0  0
 15 14  1  0  0  0  0
 16 17  1  0  0  0  0
 16 22  1  0  0  0  0
 17 19  1  0  0  0  0
 18 17  1  0  0  0  0
 19 20  2  0  0  0  0
 20 21  1  0  0  0  0
 22 20  1  0  0  0  0
 23 22  2  0  0  0  0
 24 26  1  0  0  0  0
 24  1  1  0  0  0  0
 25 24  1  0  0  0  0
 27 28  1  0  0  0  0
 28 24  1  0  0  0  0
 28 29  2  0  0  0  0
 29 33  1  0  0  0  0
 30 29  1  0  0  0  0
 30 34  1  0  0  0  0
 31 30  2  0  0  0  0
 32 27  2  0  0  0  0
 32 31  1  0  0  0  0
 35 31  1  0  0  0  0
 36 32  1  0  0  0  0
 37 38  2  0  0  0  0
 37 27  1  0  0  0  0
 39 37  2  0  0  0  0
 40 37  1  0  0  0  0
M  END
>  <minimizedAffinity>
-6.21919918

>  <minimizedRMSD>
0.690961599

$$$$
