
 OpenBabel03242518033D

 40 43  0  0  0  0  0  0  0  0999 V2000
   33.5250   28.7750   36.6440 C   0  0  0  0  0  0  0  0  0  0  0  0
   33.4970   27.9440   35.9390 H   0  0  0  0  0  0  0  0  0  0  0  0
   34.0100   29.6190   36.0690 H   0  0  0  0  0  0  0  0  0  0  0  0
   35.4000   27.5460   37.7120 C   0  0  0  0  0  0  0  0  0  0  0  0
   34.3780   28.5060   37.7910 C   0  0  0  0  0  0  0  0  0  0  0  0
   34.2330   29.1720   39.0200 C   0  0  0  0  0  0  0  0  0  0  0  0
   35.0680   28.8560   40.0280 N   0  0  0  0  0  0  0  0  0  0  0  0
   36.0380   27.9350   39.9260 C   0  0  0  0  0  0  0  0  0  0  0  0
   36.1950   27.2910   38.7750 N   0  0  0  0  0  0  0  0  0  0  0  0
   35.5950   26.9780   36.8130 H   0  0  0  0  0  0  0  0  0  0  0  0
   33.4600   29.9190   39.1260 H   0  0  0  0  0  0  0  0  0  0  0  0
   36.6050   27.9760   42.3120 C   0  0  0  0  0  3  0  0  0  0  0  0
   36.9390   27.5990   41.0260 C   0  0  0  0  0  0  0  0  0  0  0  0
   38.1230   26.9150   40.8390 C   0  0  0  0  0  0  0  0  0  0  0  0
   38.4160   26.6050   39.8430 H   0  0  0  0  0  0  0  0  0  0  0  0
   38.9450   26.6210   41.9110 C   0  0  0  0  0  0  0  0  0  0  0  0
   40.1250   25.9810   41.9990 N   0  0  0  0  0  0  0  0  0  0  0  0
   40.6670   25.5600   41.1890 H   0  0  0  0  0  0  0  0  0  0  0  0
   40.5310   25.9440   43.2570 N   0  0  0  0  0  0  0  0  0  0  0  0
   39.6200   26.5630   44.0310 C   0  0  0  0  0  0  0  0  0  0  0  0
   39.5330   26.7710   45.0980 H   0  0  0  0  0  0  0  0  0  0  0  0
   38.5830   27.0140   43.2050 C   0  0  0  0  0  0  0  0  0  0  0  0
   37.3880   27.7080   43.4170 C   0  0  0  0  0  3  0  0  0  0  0  0
   32.1750   29.2140   37.1710 C   0  0  0  0  0  0  0  0  0  0  0  0
   32.3080   29.4970   38.2310 H   0  0  0  0  0  0  0  0  0  0  0  0
   31.4470   28.3510   37.2140 H   0  0  0  0  0  0  0  0  0  0  0  0
   30.4130   30.9030   36.8820 C   0  0  0  0  0  0  0  0  0  0  0  0
   31.5100   30.2440   36.3660 C   0  0  0  0  0  0  0  0  0  0  0  0
   32.0220   30.5030   35.1230 C   0  0  0  0  0  0  0  0  0  0  0  0
   31.4150   31.4690   34.3500 C   0  0  0  0  0  0  0  0  0  0  0  0
   30.3230   32.1710   34.7810 C   0  0  0  0  0  0  0  0  0  0  0  0
   29.8550   31.8560   36.0540 C   0  0  0  0  0  0  0  0  0  0  0  0
   32.8540   30.0470   34.6490 H   0  0  0  0  0  0  0  0  0  0  0  0
   31.7550   31.7400   33.3490 H   0  0  0  0  0  0  0  0  0  0  0  0
   29.8380   32.9240   34.1930 H   0  0  0  0  0  0  0  0  0  0  0  0
   28.9840   32.3990   36.4300 H   0  0  0  0  0  0  0  0  0  0  0  0
   29.7240   30.6010   38.4630 S   0  0  0  0  0  0  0  0  0  0  0  0
   28.9080   29.3270   38.4970 O   0  0  0  0  0  0  0  0  0  0  0  0
   28.7340   31.6990   38.7730 O   0  0  0  0  0  0  0  0  0  0  0  0
   30.6440   30.6450   39.4670 H   0  0  0  0  0  0  0  0  0  0  0  0
  1 24  1  0  0  0  0
  1  5  1  0  0  0  0
  2  1  1  0  0  0  0
  3  1  1  0  0  0  0
  4  5  2  0  0  0  0
  4  9  1  0  0  0  0
  5  6  1  0  0  0  0
  6 11  1  0  0  0  0
  6  7  2  0  0  0  0
  8  7  1  0  0  0  0
  8 13  1  0  0  0  0
  9  8  2  0  0  0  0
 10  4  1  0  0  0  0
 12 23  1  0  0  0  0
 13 12  2  0  0  0  0
 14 13  1  0  0  0  0
 14 16  2  0  0  0  0
 15 14  1  0  0  0  0
 16 17  1  0  0  0  0
 16 22  1  0  0  0  0
 17 19  1  0  0  0  0
 18 17  1  0  0  0  0
 19 20  2  0  0  0  0
 20 21  1  0  0  0  0
 22 23  2  0  0  0  0
 22 20  1  0  0  0  0
 24 26  1  0  0  0  0
 24 25  1  0  0  0  0
 27 37  1  0  0  0  0
 28 27  1  0  0  0  0
 28 24  1  0  0  0  0
 29 28  2  0  0  0  0
 30 31  2  0  0  0  0
 30 29  1  0  0  0  0
 31 32  1  0  0  0  0
 32 36  1  0  0  0  0
 32 27  2  0  0  0  0
 33 29  1  0  0  0  0
 34 30  1  0  0  0  0
 35 31  1  0  0  0  0
 37 38  2  0  0  0  0
 37 39  2  0  0  0  0
 37 40  1  0  0  0  0
M  END
>  <minimizedAffinity>
-6.2377243

$$$$

 OpenBabel03242518033D

 40 43  0  0  0  0  0  0  0  0999 V2000
   36.1280   28.0250   41.6880 C   0  0  0  0  0  0  0  0  0  0  0  0
   35.7120   27.3610   40.9320 H   0  0  0  0  0  0  0  0  0  0  0  0
   35.2360   28.5980   42.0840 H   0  0  0  0  0  0  0  0  0  0  0  0
   37.5760   30.0280   41.9330 C   0  0  0  0  0  0  0  0  0  0  0  0
   37.0410   29.0100   41.1270 C   0  0  0  0  0  0  0  0  0  0  0  0
   37.4310   29.0040   39.7780 C   0  0  0  0  0  0  0  0  0  0  0  0
   38.2790   29.9560   39.3460 N   0  0  0  0  0  0  0  0  0  0  0  0
   38.7770   30.9180   40.1370 C   0  0  0  0  0  0  0  0  0  0  0  0
   38.4230   30.9460   41.4170 N   0  0  0  0  0  0  0  0  0  0  0  0
   37.3390   30.1210   42.9840 H   0  0  0  0  0  0  0  0  0  0  0  0
   37.0430   28.2380   39.1200 H   0  0  0  0  0  0  0  0  0  0  0  0
   39.9140   33.0710   40.4330 C   0  0  0  0  0  3  0  0  0  0  0  0
   39.6980   31.9470   39.6600 C   0  0  0  0  0  0  0  0  0  0  0  0
   40.3700   31.8490   38.4580 C   0  0  0  0  0  0  0  0  0  0  0  0
   40.2240   30.9820   37.8270 H   0  0  0  0  0  0  0  0  0  0  0  0
   41.2310   32.8500   38.0490 C   0  0  0  0  0  0  0  0  0  0  0  0
   41.9920   32.9970   36.9480 N   0  0  0  0  0  0  0  0  0  0  0  0
   42.0610   32.3090   36.1430 H   0  0  0  0  0  0  0  0  0  0  0  0
   42.6570   34.1390   37.0020 N   0  0  0  0  0  0  0  0  0  0  0  0
   42.3470   34.7730   38.1480 C   0  0  0  0  0  0  0  0  0  0  0  0
   42.6440   35.7170   38.6080 H   0  0  0  0  0  0  0  0  0  0  0  0
   41.4330   33.9800   38.8510 C   0  0  0  0  0  0  0  0  0  0  0  0
   40.7630   34.0990   40.0720 C   0  0  0  0  0  3  0  0  0  0  0  0
   36.8470   27.3320   42.8260 C   0  0  0  0  0  0  0  0  0  0  0  0
   36.1090   27.1640   43.6320 H   0  0  0  0  0  0  0  0  0  0  0  0
   37.6150   28.0090   43.3030 H   0  0  0  0  0  0  0  0  0  0  0  0
   38.9370   26.0470   42.6790 C   0  0  0  0  0  0  0  0  0  0  0  0
   37.5810   26.1220   42.4390 C   0  0  0  0  0  0  0  0  0  0  0  0
   36.8680   25.1120   41.8500 C   0  0  0  0  0  0  0  0  0  0  0  0
   37.5360   23.9650   41.4790 C   0  0  0  0  0  0  0  0  0  0  0  0
   38.8800   23.8050   41.6800 C   0  0  0  0  0  0  0  0  0  0  0  0
   39.5420   24.8720   42.2830 C   0  0  0  0  0  0  0  0  0  0  0  0
   35.8320   25.0860   41.6270 H   0  0  0  0  0  0  0  0  0  0  0  0
   37.0490   23.1120   41.0050 H   0  0  0  0  0  0  0  0  0  0  0  0
   39.4150   22.9210   41.3970 H   0  0  0  0  0  0  0  0  0  0  0  0
   40.6170   24.7760   42.4580 H   0  0  0  0  0  0  0  0  0  0  0  0
   39.8870   27.3140   43.4250 S   0  0  0  0  0  0  0  0  0  0  0  0
   40.5700   28.1950   42.4020 O   0  0  0  0  0  0  0  0  0  0  0  0
   41.0180   26.6770   44.1980 O   0  0  0  0  0  0  0  0  0  0  0  0
   39.1860   28.0430   44.3390 H   0  0  0  0  0  0  0  0  0  0  0  0
  1  3  1  0  0  0  0
  1 24  1  0  0  0  0
  2  1  1  0  0  0  0
  4 10  1  0  0  0  0
  5  1  1  0  0  0  0
  5  4  2  0  0  0  0
  6  5  1  0  0  0  0
  7  6  2  0  0  0  0
  7  8  1  0  0  0  0
  8  9  2  0  0  0  0
  9  4  1  0  0  0  0
 11  6  1  0  0  0  0
 13  8  1  0  0  0  0
 13 12  2  0  0  0  0
 14 13  1  0  0  0  0
 15 14  1  0  0  0  0
 16 14  2  0  0  0  0
 16 22  1  0  0  0  0
 17 19  1  0  0  0  0
 17 16  1  0  0  0  0
 18 17  1  0  0  0  0
 19 20  2  0  0  0  0
 20 21  1  0  0  0  0
 20 22  1  0  0  0  0
 22 23  2  0  0  0  0
 23 12  1  0  0  0  0
 24 26  1  0  0  0  0
 24 25  1  0  0  0  0
 27 37  1  0  0  0  0
 28 27  1  0  0  0  0
 28 24  1  0  0  0  0
 29 28  2  0  0  0  0
 30 31  2  0  0  0  0
 30 29  1  0  0  0  0
 31 32  1  0  0  0  0
 32 36  1  0  0  0  0
 32 27  2  0  0  0  0
 33 29  1  0  0  0  0
 34 30  1  0  0  0  0
 35 31  1  0  0  0  0
 37 39  2  0  0  0  0
 37 40  1  0  0  0  0
 38 37  2  0  0  0  0
M  END
>  <minimizedAffinity>
-6.13341379

$$$$

 OpenBabel03242518033D

 40 43  0  0  0  0  0  0  0  0999 V2000
   35.7440   28.7200   41.1290 C   0  0  0  0  0  0  0  0  0  0  0  0
   34.9860   28.5100   41.8830 H   0  0  0  0  0  0  0  0  0  0  0  0
   35.5420   27.9710   40.3060 H   0  0  0  0  0  0  0  0  0  0  0  0
   37.8480   27.4000   41.0770 C   0  0  0  0  0  0  0  0  0  0  0  0
   37.0940   28.4600   41.6060 C   0  0  0  0  0  0  0  0  0  0  0  0
   37.7100   29.2330   42.6050 C   0  0  0  0  0  0  0  0  0  0  0  0
   38.9620   28.9180   42.9850 N   0  0  0  0  0  0  0  0  0  0  0  0
   39.6610   27.8990   42.4630 C   0  0  0  0  0  0  0  0  0  0  0  0
   39.1010   27.1520   41.5170 N   0  0  0  0  0  0  0  0  0  0  0  0
   37.4660   26.7450   40.3050 H   0  0  0  0  0  0  0  0  0  0  0  0
   37.1670   30.0600   43.0410 H   0  0  0  0  0  0  0  0  0  0  0  0
   41.8880   28.5800   43.2320 C   0  0  0  0  0  3  0  0  0  0  0  0
   41.0200   27.5640   42.8820 C   0  0  0  0  0  0  0  0  0  0  0  0
   41.4840   26.2660   42.9450 C   0  0  0  0  0  0  0  0  0  0  0  0
   40.8300   25.4450   42.6770 H   0  0  0  0  0  0  0  0  0  0  0  0
   42.7790   25.9990   43.3470 C   0  0  0  0  0  0  0  0  0  0  0  0
   43.4640   24.8490   43.4920 N   0  0  0  0  0  0  0  0  0  0  0  0
   43.0900   23.8740   43.3040 H   0  0  0  0  0  0  0  0  0  0  0  0
   44.6940   25.1010   43.9080 N   0  0  0  0  0  0  0  0  0  0  0  0
   44.8470   26.4300   44.0480 C   0  0  0  0  0  0  0  0  0  0  0  0
   45.6660   27.0810   44.3570 H   0  0  0  0  0  0  0  0  0  0  0  0
   43.6400   27.0460   43.6970 C   0  0  0  0  0  0  0  0  0  0  0  0
   43.1900   28.3690   43.6410 C   0  0  0  0  0  3  0  0  0  0  0  0
   35.7210   30.1270   40.5690 C   0  0  0  0  0  0  0  0  0  0  0  0
   36.2460   30.7800   41.2890 H   0  0  0  0  0  0  0  0  0  0  0  0
   34.6710   30.5440   40.5440 H   0  0  0  0  0  0  0  0  0  0  0  0
   37.1070   31.2540   38.8810 C   0  0  0  0  0  0  0  0  0  0  0  0
   36.2190   30.2460   39.1940 C   0  0  0  0  0  0  0  0  0  0  0  0
   35.7700   29.3340   38.2780 C   0  0  0  0  0  0  0  0  0  0  0  0
   36.2260   29.4250   36.9810 C   0  0  0  0  0  0  0  0  0  0  0  0
   37.1070   30.3920   36.5810 C   0  0  0  0  0  0  0  0  0  0  0  0
   37.5210   31.2870   37.5650 C   0  0  0  0  0  0  0  0  0  0  0  0
   35.0900   28.5330   38.4290 H   0  0  0  0  0  0  0  0  0  0  0  0
   35.9210   28.7410   36.1860 H   0  0  0  0  0  0  0  0  0  0  0  0
   37.4710   30.4780   35.5780 H   0  0  0  0  0  0  0  0  0  0  0  0
   38.2260   32.0730   37.2800 H   0  0  0  0  0  0  0  0  0  0  0  0
   37.7040   32.4430   40.0190 S   0  0  0  0  0  0  0  0  0  0  0  0
   37.2650   33.8470   39.6630 O   0  0  0  0  0  0  0  0  0  0  0  0
   39.2120   32.4790   39.9300 O   0  0  0  0  0  0  0  0  0  0  0  0
   37.4220   32.1340   41.3160 H   0  0  0  0  0  0  0  0  0  0  0  0
  1  5  1  0  0  0  0
  1  2  1  0  0  0  0
  3  1  1  0  0  0  0
  4  9  2  0  0  0  0
  4  5  1  0  0  0  0
  5  6  2  0  0  0  0
  6  7  1  0  0  0  0
  6 11  1  0  0  0  0
  8 13  1  0  0  0  0
  8  7  2  0  0  0  0
  9  8  1  0  0  0  0
 10  4  1  0  0  0  0
 12 23  1  0  0  0  0
 13 14  1  0  0  0  0
 13 12  2  0  0  0  0
 14 16  2  0  0  0  0
 15 14  1  0  0  0  0
 16 17  1  0  0  0  0
 16 22  1  0  0  0  0
 17 19  1  0  0  0  0
 18 17  1  0  0  0  0
 19 20  2  0  0  0  0
 20 21  1  0  0  0  0
 22 20  1  0  0  0  0
 23 22  2  0  0  0  0
 24  1  1  0  0  0  0
 24 25  1  0  0  0  0
 26 24  1  0  0  0  0
 27 28  1  0  0  0  0
 27 37  1  0  0  0  0
 28 24  1  0  0  0  0
 29 33  1  0  0  0  0
 29 28  2  0  0  0  0
 30 29  1  0  0  0  0
 31 30  2  0  0  0  0
 31 32  1  0  0  0  0
 32 27  2  0  0  0  0
 34 30  1  0  0  0  0
 35 31  1  0  0  0  0
 36 32  1  0  0  0  0
 37 40  1  0  0  0  0
 38 37  2  0  0  0  0
 39 37  2  0  0  0  0
M  END
>  <minimizedAffinity>
-5.99008417

$$$$

 OpenBabel03242518033D

 40 43  0  0  0  0  0  0  0  0999 V2000
   36.7710   25.0220   42.2400 C   0  0  0  0  0  0  0  0  0  0  0  0
   35.9920   24.6910   41.5540 H   0  0  0  0  0  0  0  0  0  0  0  0
   36.2900   24.9680   43.2630 H   0  0  0  0  0  0  0  0  0  0  0  0
   36.8530   27.0550   40.8180 C   0  0  0  0  0  0  0  0  0  0  0  0
   37.1490   26.4110   42.0290 C   0  0  0  0  0  0  0  0  0  0  0  0
   37.8200   27.1730   43.0000 C   0  0  0  0  0  0  0  0  0  0  0  0
   38.1320   28.4510   42.7170 N   0  0  0  0  0  0  0  0  0  0  0  0
   37.8380   29.0440   41.5500 C   0  0  0  0  0  0  0  0  0  0  0  0
   37.2040   28.3450   40.6150 N   0  0  0  0  0  0  0  0  0  0  0  0
   36.3400   26.5580   40.0060 H   0  0  0  0  0  0  0  0  0  0  0  0
   38.0680   26.7170   43.9490 H   0  0  0  0  0  0  0  0  0  0  0  0
   39.4290   30.9090   41.5940 C   0  0  0  0  0  3  0  0  0  0  0  0
   38.1800   30.4320   41.2510 C   0  0  0  0  0  0  0  0  0  0  0  0
   37.3030   31.3020   40.6330 C   0  0  0  0  0  0  0  0  0  0  0  0
   36.3140   30.9610   40.3500 H   0  0  0  0  0  0  0  0  0  0  0  0
   37.6720   32.6070   40.3710 C   0  0  0  0  0  0  0  0  0  0  0  0
   37.0220   33.6340   39.7940 N   0  0  0  0  0  0  0  0  0  0  0  0
   36.0320   33.6080   39.4120 H   0  0  0  0  0  0  0  0  0  0  0  0
   37.7960   34.7060   39.7650 N   0  0  0  0  0  0  0  0  0  0  0  0
   38.9820   34.4060   40.3250 C   0  0  0  0  0  0  0  0  0  0  0  0
   39.9030   34.9580   40.5160 H   0  0  0  0  0  0  0  0  0  0  0  0
   38.9450   33.0660   40.7290 C   0  0  0  0  0  0  0  0  0  0  0  0
   39.8490   32.2030   41.3550 C   0  0  0  0  0  3  0  0  0  0  0  0
   38.0390   24.1940   42.2180 C   0  0  0  0  0  0  0  0  0  0  0  0
   37.9310   23.4010   42.9790 H   0  0  0  0  0  0  0  0  0  0  0  0
   38.9290   24.7920   42.5780 H   0  0  0  0  0  0  0  0  0  0  0  0
   39.5530   24.1840   40.2820 C   0  0  0  0  0  0  0  0  0  0  0  0
   38.4190   23.6920   40.8930 C   0  0  0  0  0  0  0  0  0  0  0  0
   37.6130   22.7440   40.3230 C   0  0  0  0  0  0  0  0  0  0  0  0
   37.9510   22.2550   39.0790 C   0  0  0  0  0  0  0  0  0  0  0  0
   39.0580   22.6850   38.4010 C   0  0  0  0  0  0  0  0  0  0  0  0
   39.8320   23.6510   39.0400 C   0  0  0  0  0  0  0  0  0  0  0  0
   36.7270   22.3140   40.7170 H   0  0  0  0  0  0  0  0  0  0  0  0
   37.3670   21.4990   38.5510 H   0  0  0  0  0  0  0  0  0  0  0  0
   39.3350   22.3170   37.4340 H   0  0  0  0  0  0  0  0  0  0  0  0
   40.7240   24.0170   38.5250 H   0  0  0  0  0  0  0  0  0  0  0  0
   40.6090   25.3970   40.9730 S   0  0  0  0  0  0  0  0  0  0  0  0
   40.3630   26.7710   40.3870 O   0  0  0  0  0  0  0  0  0  0  0  0
   42.0340   25.0690   40.5930 O   0  0  0  0  0  0  0  0  0  0  0  0
   40.5900   25.4130   42.3360 H   0  0  0  0  0  0  0  0  0  0  0  0
  1  3  1  0  0  0  0
  2  1  1  0  0  0  0
  4  5  1  0  0  0  0
  5  1  1  0  0  0  0
  5  6  2  0  0  0  0
  6 11  1  0  0  0  0
  7  6  1  0  0  0  0
  8  7  2  0  0  0  0
  9  4  2  0  0  0  0
  9  8  1  0  0  0  0
 10  4  1  0  0  0  0
 13  8  1  0  0  0  0
 13 12  2  0  0  0  0
 14 13  1  0  0  0  0
 15 14  1  0  0  0  0
 16 14  2  0  0  0  0
 16 22  1  0  0  0  0
 17 16  1  0  0  0  0
 18 17  1  0  0  0  0
 19 17  1  0  0  0  0
 19 20  2  0  0  0  0
 20 21  1  0  0  0  0
 20 22  1  0  0  0  0
 22 23  2  0  0  0  0
 23 12  1  0  0  0  0
 24  1  1  0  0  0  0
 24 26  1  0  0  0  0
 24 25  1  0  0  0  0
 27 28  1  0  0  0  0
 27 37  1  0  0  0  0
 28 24  1  0  0  0  0
 29 33  1  0  0  0  0
 29 28  2  0  0  0  0
 30 29  1  0  0  0  0
 31 32  1  0  0  0  0
 31 30  2  0  0  0  0
 32 27  2  0  0  0  0
 34 30  1  0  0  0  0
 35 31  1  0  0  0  0
 36 32  1  0  0  0  0
 37 40  1  0  0  0  0
 38 37  2  0  0  0  0
 39 37  2  0  0  0  0
M  END
>  <minimizedAffinity>
-5.94518328

$$$$

 OpenBabel03242518033D

 40 43  0  0  0  0  0  0  0  0999 V2000
   36.8190   26.3350   42.7210 C   0  0  0  0  0  0  0  0  0  0  0  0
   35.7660   26.0790   42.6090 H   0  0  0  0  0  0  0  0  0  0  0  0
   36.9940   26.3350   43.8380 H   0  0  0  0  0  0  0  0  0  0  0  0
   38.2990   28.3280   42.6510 C   0  0  0  0  0  0  0  0  0  0  0  0
   37.1210   27.6780   42.2500 C   0  0  0  0  0  0  0  0  0  0  0  0
   36.2710   28.3920   41.3890 C   0  0  0  0  0  0  0  0  0  0  0  0
   36.6310   29.6320   41.0070 N   0  0  0  0  0  0  0  0  0  0  0  0
   37.7630   30.2300   41.4040 C   0  0  0  0  0  0  0  0  0  0  0  0
   38.5840   29.5760   42.2190 N   0  0  0  0  0  0  0  0  0  0  0  0
   39.0200   27.8660   43.3130 H   0  0  0  0  0  0  0  0  0  0  0  0
   35.3520   27.9310   41.0540 H   0  0  0  0  0  0  0  0  0  0  0  0
   37.2620   32.3260   40.2350 C   0  0  0  0  0  3  0  0  0  0  0  0
   38.1460   31.5750   40.9840 C   0  0  0  0  0  0  0  0  0  0  0  0
   39.3650   32.1400   41.3030 C   0  0  0  0  0  0  0  0  0  0  0  0
   40.0830   31.5790   41.8890 H   0  0  0  0  0  0  0  0  0  0  0  0
   39.6830   33.4170   40.8810 C   0  0  0  0  0  0  0  0  0  0  0  0
   40.7770   34.1820   41.0530 N   0  0  0  0  0  0  0  0  0  0  0  0
   41.6520   33.9050   41.5860 H   0  0  0  0  0  0  0  0  0  0  0  0
   40.6140   35.3500   40.4550 N   0  0  0  0  0  0  0  0  0  0  0  0
   39.4010   35.3810   39.8740 C   0  0  0  0  0  0  0  0  0  0  0  0
   38.8490   36.1170   39.2870 H   0  0  0  0  0  0  0  0  0  0  0  0
   38.7680   34.1580   40.1230 C   0  0  0  0  0  0  0  0  0  0  0  0
   37.5280   33.6060   39.7890 C   0  0  0  0  0  3  0  0  0  0  0  0
   37.7860   25.3860   42.0440 C   0  0  0  0  0  0  0  0  0  0  0  0
   38.0650   24.6130   42.7820 H   0  0  0  0  0  0  0  0  0  0  0  0
   38.7660   25.8950   41.8040 H   0  0  0  0  0  0  0  0  0  0  0  0
   37.9570   25.1830   39.6000 C   0  0  0  0  0  0  0  0  0  0  0  0
   37.3110   24.8370   40.7680 C   0  0  0  0  0  0  0  0  0  0  0  0
   36.2330   23.9940   40.8060 C   0  0  0  0  0  0  0  0  0  0  0  0
   35.7710   23.4640   39.6200 C   0  0  0  0  0  0  0  0  0  0  0  0
   36.3510   23.7520   38.4150 C   0  0  0  0  0  0  0  0  0  0  0  0
   37.4420   24.6170   38.4520 C   0  0  0  0  0  0  0  0  0  0  0  0
   35.6770   23.6780   41.6520 H   0  0  0  0  0  0  0  0  0  0  0  0
   34.9190   22.7850   39.5570 H   0  0  0  0  0  0  0  0  0  0  0  0
   36.0050   23.3510   37.4850 H   0  0  0  0  0  0  0  0  0  0  0  0
   37.9300   24.8680   37.5060 H   0  0  0  0  0  0  0  0  0  0  0  0
   39.3360   26.2580   39.5060 S   0  0  0  0  0  0  0  0  0  0  0  0
   38.9350   27.6710   39.1420 O   0  0  0  0  0  0  0  0  0  0  0  0
   40.2220   25.8070   38.3690 O   0  0  0  0  0  0  0  0  0  0  0  0
   40.1220   26.2220   40.6190 H   0  0  0  0  0  0  0  0  0  0  0  0
  1  3  1  0  0  0  0
  2  1  1  0  0  0  0
  4 10  1  0  0  0  0
  5  4  1  0  0  0  0
  5  1  1  0  0  0  0
  6  5  2  0  0  0  0
  7  6  1  0  0  0  0
  7  8  2  0  0  0  0
  8  9  1  0  0  0  0
  9  4  2  0  0  0  0
 11  6  1  0  0  0  0
 12 13  1  0  0  0  0
 13 14  2  0  0  0  0
 13  8  1  0  0  0  0
 14 15  1  0  0  0  0
 16 17  1  0  0  0  0
 16 14  1  0  0  0  0
 17 18  1  0  0  0  0
 19 17  1  0  0  0  0
 20 22  1  0  0  0  0
 20 19  2  0  0  0  0
 21 20  1  0  0  0  0
 22 16  2  0  0  0  0
 23 22  1  0  0  0  0
 23 12  2  0  0  0  0
 24  1  1  0  0  0  0
 24 25  1  0  0  0  0
 26 24  1  0  0  0  0
 27 28  1  0  0  0  0
 28 29  2  0  0  0  0
 28 24  1  0  0  0  0
 29 33  1  0  0  0  0
 30 29  1  0  0  0  0
 31 32  1  0  0  0  0
 31 30  2  0  0  0  0
 32 27  2  0  0  0  0
 34 30  1  0  0  0  0
 35 31  1  0  0  0  0
 36 32  1  0  0  0  0
 37 27  1  0  0  0  0
 37 40  1  0  0  0  0
 38 37  2  0  0  0  0
 39 37  2  0  0  0  0
M  END
>  <minimizedAffinity>
-5.94139338

$$$$

 OpenBabel03242518033D

 40 43  0  0  0  0  0  0  0  0999 V2000
   33.5480   29.3900   35.0400 C   0  0  0  0  0  0  0  0  0  0  0  0
   33.8760   28.8220   34.1700 H   0  0  0  0  0  0  0  0  0  0  0  0
   33.7740   30.4670   34.7770 H   0  0  0  0  0  0  0  0  0  0  0  0
   33.6700   28.7010   37.4220 C   0  0  0  0  0  0  0  0  0  0  0  0
   34.3170   29.0810   36.2350 C   0  0  0  0  0  0  0  0  0  0  0  0
   35.7200   29.1440   36.2750 C   0  0  0  0  0  0  0  0  0  0  0  0
   36.3480   28.8410   37.4260 N   0  0  0  0  0  0  0  0  0  0  0  0
   35.7060   28.4810   38.5470 C   0  0  0  0  0  0  0  0  0  0  0  0
   34.3790   28.4140   38.5360 N   0  0  0  0  0  0  0  0  0  0  0  0
   32.5940   28.6220   37.4970 H   0  0  0  0  0  0  0  0  0  0  0  0
   36.2600   29.4320   35.3830 H   0  0  0  0  0  0  0  0  0  0  0  0
   37.2930   27.1030   39.8130 C   0  0  0  0  0  3  0  0  0  0  0  0
   36.3960   28.1540   39.7930 C   0  0  0  0  0  0  0  0  0  0  0  0
   36.1930   28.8530   40.9660 C   0  0  0  0  0  0  0  0  0  0  0  0
   35.4970   29.6830   40.9860 H   0  0  0  0  0  0  0  0  0  0  0  0
   36.8690   28.5050   42.1200 C   0  0  0  0  0  0  0  0  0  0  0  0
   36.8530   29.0120   43.3670 N   0  0  0  0  0  0  0  0  0  0  0  0
   36.2670   29.8330   43.6970 H   0  0  0  0  0  0  0  0  0  0  0  0
   37.6830   28.3360   44.1440 N   0  0  0  0  0  0  0  0  0  0  0  0
   38.2680   27.3640   43.4210 C   0  0  0  0  0  0  0  0  0  0  0  0
   38.9990   26.5830   43.6340 H   0  0  0  0  0  0  0  0  0  0  0  0
   37.7730   27.4360   42.1140 C   0  0  0  0  0  0  0  0  0  0  0  0
   37.9940   26.7150   40.9370 C   0  0  0  0  0  3  0  0  0  0  0  0
   32.0820   29.2390   35.3880 C   0  0  0  0  0  0  0  0  0  0  0  0
   32.0240   28.7450   36.3750 H   0  0  0  0  0  0  0  0  0  0  0  0
   31.5650   28.5110   34.6940 H   0  0  0  0  0  0  0  0  0  0  0  0
   30.3830   30.7700   36.2900 C   0  0  0  0  0  0  0  0  0  0  0  0
   31.3010   30.4780   35.3030 C   0  0  0  0  0  0  0  0  0  0  0  0
   31.5290   31.2950   34.2280 C   0  0  0  0  0  0  0  0  0  0  0  0
   30.8090   32.4660   34.1280 C   0  0  0  0  0  0  0  0  0  0  0  0
   29.8790   32.8350   35.0620 C   0  0  0  0  0  0  0  0  0  0  0  0
   29.6980   31.9560   36.1270 C   0  0  0  0  0  0  0  0  0  0  0  0
   32.2080   31.1500   33.4270 H   0  0  0  0  0  0  0  0  0  0  0  0
   30.9250   33.1760   33.3070 H   0  0  0  0  0  0  0  0  0  0  0  0
   29.3110   33.7400   34.9990 H   0  0  0  0  0  0  0  0  0  0  0  0
   28.9630   32.2210   36.8910 H   0  0  0  0  0  0  0  0  0  0  0  0
   30.0580   29.7520   37.6780 S   0  0  0  0  0  0  0  0  0  0  0  0
   28.6990   30.0300   38.2840 O   0  0  0  0  0  0  0  0  0  0  0  0
   31.0430   30.0990   38.7700 O   0  0  0  0  0  0  0  0  0  0  0  0
   30.2440   28.4260   37.4270 H   0  0  0  0  0  0  0  0  0  0  0  0
  1 24  1  0  0  0  0
  1  5  1  0  0  0  0
  2  1  1  0  0  0  0
  3  1  1  0  0  0  0
  4 10  1  0  0  0  0
  4  9  1  0  0  0  0
  5  6  1  0  0  0  0
  5  4  2  0  0  0  0
  6  7  2  0  0  0  0
  7  8  1  0  0  0  0
  8 13  1  0  0  0  0
  9  8  2  0  0  0  0
 11  6  1  0  0  0  0
 12 23  1  0  0  0  0
 13 12  2  0  0  0  0
 13 14  1  0  0  0  0
 14 15  1  0  0  0  0
 14 16  2  0  0  0  0
 16 17  1  0  0  0  0
 17 18  1  0  0  0  0
 17 19  1  0  0  0  0
 20 21  1  0  0  0  0
 20 19  2  0  0  0  0
 22 16  1  0  0  0  0
 22 20  1  0  0  0  0
 23 22  2  0  0  0  0
 24 25  1  0  0  0  0
 26 24  1  0  0  0  0
 27 37  1  0  0  0  0
 28 24  1  0  0  0  0
 28 27  2  0  0  0  0
 29 28  1  0  0  0  0
 30 29  2  0  0  0  0
 30 31  1  0  0  0  0
 31 32  2  0  0  0  0
 32 27  1  0  0  0  0
 32 36  1  0  0  0  0
 33 29  1  0  0  0  0
 34 30  1  0  0  0  0
 35 31  1  0  0  0  0
 37 38  2  0  0  0  0
 37 39  2  0  0  0  0
 40 37  1  0  0  0  0
M  END
>  <minimizedAffinity>
-5.92850971

$$$$

 OpenBabel03242518033D

 40 43  0  0  0  0  0  0  0  0999 V2000
   38.3730   29.0280   43.0110 C   0  0  0  0  0  0  0  0  0  0  0  0
   38.1220   29.8620   43.6660 H   0  0  0  0  0  0  0  0  0  0  0  0
   39.4540   29.2020   42.7300 H   0  0  0  0  0  0  0  0  0  0  0  0
   36.2540   28.6800   41.7630 C   0  0  0  0  0  0  0  0  0  0  0  0
   37.6110   29.0410   41.7720 C   0  0  0  0  0  0  0  0  0  0  0  0
   38.1740   29.4040   40.5370 C   0  0  0  0  0  0  0  0  0  0  0  0
   37.3930   29.3850   39.4400 N   0  0  0  0  0  0  0  0  0  0  0  0
   36.0980   29.0360   39.4590 C   0  0  0  0  0  0  0  0  0  0  0  0
   35.5420   28.6880   40.6150 N   0  0  0  0  0  0  0  0  0  0  0  0
   35.7270   28.3840   42.6600 H   0  0  0  0  0  0  0  0  0  0  0  0
   39.2160   29.6890   40.4950 H   0  0  0  0  0  0  0  0  0  0  0  0
   35.8440   29.1720   37.0240 C   0  0  0  0  0  3  0  0  0  0  0  0
   35.2580   29.0180   38.2640 C   0  0  0  0  0  0  0  0  0  0  0  0
   33.8880   28.8530   38.3160 C   0  0  0  0  0  0  0  0  0  0  0  0
   33.3950   28.7300   39.2730 H   0  0  0  0  0  0  0  0  0  0  0  0
   33.1340   28.8450   37.1580 C   0  0  0  0  0  0  0  0  0  0  0  0
   31.8140   28.7040   36.9370 N   0  0  0  0  0  0  0  0  0  0  0  0
   31.0700   28.5660   37.6800 H   0  0  0  0  0  0  0  0  0  0  0  0
   31.5610   28.7630   35.6400 N   0  0  0  0  0  0  0  0  0  0  0  0
   32.7160   28.9440   34.9740 C   0  0  0  0  0  0  0  0  0  0  0  0
   32.9890   29.0480   33.9230 H   0  0  0  0  0  0  0  0  0  0  0  0
   33.7540   29.0020   35.9120 C   0  0  0  0  0  0  0  0  0  0  0  0
   35.1400   29.1700   35.8360 C   0  0  0  0  0  3  0  0  0  0  0  0
   38.2120   27.6560   43.6320 C   0  0  0  0  0  0  0  0  0  0  0  0
   37.2320   27.2590   43.3110 H   0  0  0  0  0  0  0  0  0  0  0  0
   38.1210   27.7190   44.7570 H   0  0  0  0  0  0  0  0  0  0  0  0
   39.1340   25.6350   42.5790 C   0  0  0  0  0  0  0  0  0  0  0  0
   39.3290   26.7380   43.3840 C   0  0  0  0  0  0  0  0  0  0  0  0
   40.5290   27.0290   43.9750 C   0  0  0  0  0  0  0  0  0  0  0  0
   41.5940   26.1820   43.7550 C   0  0  0  0  0  0  0  0  0  0  0  0
   41.4900   25.0660   42.9700 C   0  0  0  0  0  0  0  0  0  0  0  0
   40.2410   24.8310   42.4020 C   0  0  0  0  0  0  0  0  0  0  0  0
   40.7670   27.8480   44.6060 H   0  0  0  0  0  0  0  0  0  0  0  0
   42.5850   26.3370   44.1850 H   0  0  0  0  0  0  0  0  0  0  0  0
   42.3060   24.3970   42.7890 H   0  0  0  0  0  0  0  0  0  0  0  0
   40.1230   23.9470   41.7680 H   0  0  0  0  0  0  0  0  0  0  0  0
   37.6170   25.2240   41.8070 S   0  0  0  0  0  0  0  0  0  0  0  0
   37.4280   23.7270   41.6800 O   0  0  0  0  0  0  0  0  0  0  0  0
   37.6490   25.7280   40.3830 O   0  0  0  0  0  0  0  0  0  0  0  0
   36.5400   25.8270   42.3840 H   0  0  0  0  0  0  0  0  0  0  0  0
  1 24  1  0  0  0  0
  1  2  1  0  0  0  0
  3  1  1  0  0  0  0
  4  5  1  0  0  0  0
  4 10  1  0  0  0  0
  5  1  1  0  0  0  0
  6  5  2  0  0  0  0
  7  8  2  0  0  0  0
  7  6  1  0  0  0  0
  8  9  1  0  0  0  0
  9  4  2  0  0  0  0
 11  6  1  0  0  0  0
 12 13  1  0  0  0  0
 13 14  2  0  0  0  0
 13  8  1  0  0  0  0
 14 15  1  0  0  0  0
 16 14  1  0  0  0  0
 17 16  1  0  0  0  0
 17 18  1  0  0  0  0
 19 17  1  0  0  0  0
 20 19  2  0  0  0  0
 20 22  1  0  0  0  0
 21 20  1  0  0  0  0
 22 16  2  0  0  0  0
 23 22  1  0  0  0  0
 23 12  2  0  0  0  0
 24 26  1  0  0  0  0
 25 24  1  0  0  0  0
 27 28  1  0  0  0  0
 28 24  1  0  0  0  0
 28 29  2  0  0  0  0
 29 33  1  0  0  0  0
 30 29  1  0  0  0  0
 30 34  1  0  0  0  0
 31 30  2  0  0  0  0
 32 27  2  0  0  0  0
 32 31  1  0  0  0  0
 35 31  1  0  0  0  0
 36 32  1  0  0  0  0
 37 40  1  0  0  0  0
 37 27  1  0  0  0  0
 38 37  2  0  0  0  0
 39 37  2  0  0  0  0
M  END
>  <minimizedAffinity>
-5.88008881

$$$$

 OpenBabel03242518033D

 40 43  0  0  0  0  0  0  0  0999 V2000
   37.3310   26.0010   39.8120 C   0  0  0  0  0  0  0  0  0  0  0  0
   38.3410   26.3160   39.5490 H   0  0  0  0  0  0  0  0  0  0  0  0
   37.2490   24.9460   39.4140 H   0  0  0  0  0  0  0  0  0  0  0  0
   35.6500   26.2740   38.0050 C   0  0  0  0  0  0  0  0  0  0  0  0
   36.3080   26.7840   39.1360 C   0  0  0  0  0  0  0  0  0  0  0  0
   35.9270   28.0680   39.5600 C   0  0  0  0  0  0  0  0  0  0  0  0
   34.9710   28.7190   38.8710 N   0  0  0  0  0  0  0  0  0  0  0  0
   34.3570   28.2090   37.7930 C   0  0  0  0  0  0  0  0  0  0  0  0
   34.7000   26.9970   37.3710 N   0  0  0  0  0  0  0  0  0  0  0  0
   35.8690   25.2970   37.5970 H   0  0  0  0  0  0  0  0  0  0  0  0
   36.4070   28.5010   40.4270 H   0  0  0  0  0  0  0  0  0  0  0  0
   33.4720   29.1130   35.6920 C   0  0  0  0  0  3  0  0  0  0  0  0
   33.3210   28.9240   37.0520 C   0  0  0  0  0  0  0  0  0  0  0  0
   32.1830   29.4250   37.6530 C   0  0  0  0  0  0  0  0  0  0  0  0
   32.0330   29.2940   38.7170 H   0  0  0  0  0  0  0  0  0  0  0  0
   31.2310   30.0950   36.9090 C   0  0  0  0  0  0  0  0  0  0  0  0
   30.0590   30.6680   37.2420 N   0  0  0  0  0  0  0  0  0  0  0  0
   29.6380   30.7030   38.2160 H   0  0  0  0  0  0  0  0  0  0  0  0
   29.4880   31.1940   36.1710 N   0  0  0  0  0  0  0  0  0  0  0  0
   30.2760   30.9770   35.1020 C   0  0  0  0  0  0  0  0  0  0  0  0
   30.2150   31.2230   34.0410 H   0  0  0  0  0  0  0  0  0  0  0  0
   31.4070   30.2740   35.5310 C   0  0  0  0  0  0  0  0  0  0  0  0
   32.5520   29.7740   34.9030 C   0  0  0  0  0  3  0  0  0  0  0  0
   37.0180   26.0230   41.2930 C   0  0  0  0  0  0  0  0  0  0  0  0
   36.2340   25.2670   41.4780 H   0  0  0  0  0  0  0  0  0  0  0  0
   36.5300   26.9960   41.5990 H   0  0  0  0  0  0  0  0  0  0  0  0
   38.4660   26.8720   43.0890 C   0  0  0  0  0  0  0  0  0  0  0  0
   38.1880   25.8840   42.1680 C   0  0  0  0  0  0  0  0  0  0  0  0
   38.9560   24.7600   42.0220 C   0  0  0  0  0  0  0  0  0  0  0  0
   40.0580   24.6060   42.8340 C   0  0  0  0  0  0  0  0  0  0  0  0
   40.4090   25.5350   43.7750 C   0  0  0  0  0  0  0  0  0  0  0  0
   39.5840   26.6540   43.8680 C   0  0  0  0  0  0  0  0  0  0  0  0
   38.8180   23.9570   41.3430 H   0  0  0  0  0  0  0  0  0  0  0  0
   40.7250   23.7430   42.7860 H   0  0  0  0  0  0  0  0  0  0  0  0
   41.2620   25.4320   44.4130 H   0  0  0  0  0  0  0  0  0  0  0  0
   39.8350   27.4160   44.6110 H   0  0  0  0  0  0  0  0  0  0  0  0
   37.5140   28.3250   43.3080 S   0  0  0  0  0  0  0  0  0  0  0  0
   38.3660   29.5760   43.2790 O   0  0  0  0  0  0  0  0  0  0  0  0
   36.9130   28.3020   44.6930 O   0  0  0  0  0  0  0  0  0  0  0  0
   36.4570   28.4080   42.4520 H   0  0  0  0  0  0  0  0  0  0  0  0
  1 24  1  0  0  0  0
  2  1  1  0  0  0  0
  3  1  1  0  0  0  0
  4  5  1  0  0  0  0
  5  6  2  0  0  0  0
  5  1  1  0  0  0  0
  6 11  1  0  0  0  0
  7  6  1  0  0  0  0
  8  7  2  0  0  0  0
  9  8  1  0  0  0  0
  9  4  2  0  0  0  0
 10  4  1  0  0  0  0
 12 13  1  0  0  0  0
 13 14  2  0  0  0  0
 13  8  1  0  0  0  0
 14 15  1  0  0  0  0
 16 17  1  0  0  0  0
 16 14  1  0  0  0  0
 17 18  1  0  0  0  0
 19 17  1  0  0  0  0
 20 22  1  0  0  0  0
 20 19  2  0  0  0  0
 21 20  1  0  0  0  0
 22 16  2  0  0  0  0
 23 22  1  0  0  0  0
 23 12  2  0  0  0  0
 24 25  1  0  0  0  0
 24 26  1  0  0  0  0
 24 28  1  0  0  0  0
 27 37  1  0  0  0  0
 27 32  1  0  0  0  0
 28 27  2  0  0  0  0
 29 28  1  0  0  0  0
 29 30  2  0  0  0  0
 30 31  1  0  0  0  0
 31 32  2  0  0  0  0
 31 35  1  0  0  0  0
 32 36  1  0  0  0  0
 33 29  1  0  0  0  0
 34 30  1  0  0  0  0
 37 39  2  0  0  0  0
 38 37  2  0  0  0  0
 40 37  1  0  0  0  0
M  END
>  <minimizedAffinity>
-5.82652521

$$$$

 OpenBabel03242518033D

 40 43  0  0  0  0  0  0  0  0999 V2000
   36.6620   31.3590   40.2760 C   0  0  0  0  0  0  0  0  0  0  0  0
   36.2310   31.0160   39.3360 H   0  0  0  0  0  0  0  0  0  0  0  0
   36.0590   32.2760   40.5470 H   0  0  0  0  0  0  0  0  0  0  0  0
   38.6030   31.9840   38.8590 C   0  0  0  0  0  0  0  0  0  0  0  0
   38.0430   31.7950   40.1320 C   0  0  0  0  0  0  0  0  0  0  0  0
   38.8800   32.0440   41.2320 C   0  0  0  0  0  0  0  0  0  0  0  0
   40.1460   32.4420   41.0030 N   0  0  0  0  0  0  0  0  0  0  0  0
   40.6570   32.6150   39.7750 C   0  0  0  0  0  0  0  0  0  0  0  0
   39.8860   32.3860   38.7180 N   0  0  0  0  0  0  0  0  0  0  0  0
   38.0440   31.8190   37.9480 H   0  0  0  0  0  0  0  0  0  0  0  0
   38.4910   31.9110   42.2320 H   0  0  0  0  0  0  0  0  0  0  0  0
   42.7830   33.5240   40.5930 C   0  0  0  0  0  3  0  0  0  0  0  0
   42.0320   33.0480   39.5370 C   0  0  0  0  0  0  0  0  0  0  0  0
   42.6230   33.0040   38.2900 C   0  0  0  0  0  0  0  0  0  0  0  0
   42.0630   32.6370   37.4390 H   0  0  0  0  0  0  0  0  0  0  0  0
   43.9280   33.4260   38.1130 C   0  0  0  0  0  0  0  0  0  0  0  0
   44.7220   33.4850   37.0280 N   0  0  0  0  0  0  0  0  0  0  0  0
   44.4530   33.1930   36.0440 H   0  0  0  0  0  0  0  0  0  0  0  0
   45.9080   33.9670   37.3570 N   0  0  0  0  0  0  0  0  0  0  0  0
   45.9220   34.2370   38.6760 C   0  0  0  0  0  0  0  0  0  0  0  0
   46.6630   34.6370   39.3700 H   0  0  0  0  0  0  0  0  0  0  0  0
   44.6680   33.9040   39.2010 C   0  0  0  0  0  0  0  0  0  0  0  0
   44.0890   33.9570   40.4720 C   0  0  0  0  0  3  0  0  0  0  0  0
   36.6150   30.3540   41.4070 C   0  0  0  0  0  0  0  0  0  0  0  0
   35.7400   30.6010   42.0360 H   0  0  0  0  0  0  0  0  0  0  0  0
   37.4930   30.4790   42.1080 H   0  0  0  0  0  0  0  0  0  0  0  0
   37.2370   28.0090   41.8040 C   0  0  0  0  0  0  0  0  0  0  0  0
   36.6550   28.9510   40.9810 C   0  0  0  0  0  0  0  0  0  0  0  0
   36.1030   28.6430   39.7660 C   0  0  0  0  0  0  0  0  0  0  0  0
   36.1270   27.3310   39.3450 C   0  0  0  0  0  0  0  0  0  0  0  0
   36.6830   26.3320   40.0970 C   0  0  0  0  0  0  0  0  0  0  0  0
   37.2270   26.7170   41.3210 C   0  0  0  0  0  0  0  0  0  0  0  0
   35.6400   29.2990   39.0720 H   0  0  0  0  0  0  0  0  0  0  0  0
   35.7110   26.9970   38.3940 H   0  0  0  0  0  0  0  0  0  0  0  0
   36.7110   25.3080   39.7860 H   0  0  0  0  0  0  0  0  0  0  0  0
   37.6790   25.9430   41.9470 H   0  0  0  0  0  0  0  0  0  0  0  0
   37.9570   28.3580   43.3610 S   0  0  0  0  0  0  0  0  0  0  0  0
   39.0970   27.4170   43.6880 O   0  0  0  0  0  0  0  0  0  0  0  0
   36.9280   28.1010   44.4360 O   0  0  0  0  0  0  0  0  0  0  0  0
   38.3170   29.6640   43.5050 H   0  0  0  0  0  0  0  0  0  0  0  0
  1  3  1  0  0  0  0
  1 24  1  0  0  0  0
  2  1  1  0  0  0  0
  4  5  1  0  0  0  0
  5  1  1  0  0  0  0
  5  6  2  0  0  0  0
  6 11  1  0  0  0  0
  7  6  1  0  0  0  0
  8  7  2  0  0  0  0
  9  4  2  0  0  0  0
  9  8  1  0  0  0  0
 10  4  1  0  0  0  0
 13  8  1  0  0  0  0
 13 12  2  0  0  0  0
 14 13  1  0  0  0  0
 15 14  1  0  0  0  0
 16 14  2  0  0  0  0
 16 22  1  0  0  0  0
 17 19  1  0  0  0  0
 17 16  1  0  0  0  0
 18 17  1  0  0  0  0
 19 20  2  0  0  0  0
 20 22  1  0  0  0  0
 20 21  1  0  0  0  0
 22 23  2  0  0  0  0
 23 12  1  0  0  0  0
 24 25  1  0  0  0  0
 24 26  1  0  0  0  0
 27 37  1  0  0  0  0
 28 24  1  0  0  0  0
 28 27  2  0  0  0  0
 29 28  1  0  0  0  0
 30 29  2  0  0  0  0
 30 31  1  0  0  0  0
 31 32  2  0  0  0  0
 32 27  1  0  0  0  0
 32 36  1  0  0  0  0
 33 29  1  0  0  0  0
 34 30  1  0  0  0  0
 35 31  1  0  0  0  0
 37 40  1  0  0  0  0
 37 38  2  0  0  0  0
 37 39  2  0  0  0  0
M  END
>  <minimizedAffinity>
-5.80741644

$$$$
