
 OpenBabel03252506043D

 46 51  0  0  0  0  0  0  0  0999 V2000
   44.8190   36.0120   43.3400 Cl  0  0  0  0  0  0  0  0  0  0  0  0
   45.5650   34.7580   44.2830 C   0  0  0  0  0  0  0  0  0  0  0  0
   46.6870   34.0990   43.8060 C   0  0  0  0  0  0  0  0  0  0  0  0
   47.1960   33.1270   44.6270 C   0  0  0  0  0  0  0  0  0  0  0  0
   46.6780   32.7740   45.8590 C   0  0  0  0  0  0  0  0  0  0  0  0
   45.5650   33.4480   46.2990 C   0  0  0  0  0  0  0  0  0  0  0  0
   44.9350   32.9740   47.8660 Cl  0  0  0  0  0  0  0  0  0  0  0  0
   45.0150   34.4290   45.5180 C   0  0  0  0  0  0  0  0  0  0  0  0
   48.0830   32.6100   44.2440 H   0  0  0  0  0  0  0  0  0  0  0  0
   44.1480   34.9300   45.9000 H   0  0  0  0  0  0  0  0  0  0  0  0
   47.3670   31.7070   46.5850 C   0  0  0  0  0  0  0  0  0  0  0  0
   47.4720   30.4180   46.1040 C   0  0  0  0  0  0  0  0  0  0  0  0
   48.1200   29.3920   46.7750 C   0  0  0  0  0  0  0  0  0  0  0  0
   48.7000   29.6670   48.0000 C   0  0  0  0  0  0  0  0  0  0  0  0
   49.3190   28.6460   48.6210 N   0  0  0  0  0  0  0  0  0  0  0  0
   49.9180   28.8200   49.8300 C   0  0  0  0  0  0  0  0  0  0  0  0
   49.8540   30.0890   50.3750 C   0  0  0  0  0  0  0  0  0  0  0  0
   49.2190   31.1100   49.7270 C   0  0  0  0  0  0  0  0  0  0  0  0
   48.6180   30.9280   48.5100 C   0  0  0  0  0  0  0  0  0  0  0  0
   47.9670   31.9330   47.8200 C   0  0  0  0  0  0  0  0  0  0  0  0
   47.0020   30.2480   45.1390 H   0  0  0  0  0  0  0  0  0  0  0  0
   48.1420   28.4150   46.3040 H   0  0  0  0  0  0  0  0  0  0  0  0
   50.4050   27.9520   50.2830 H   0  0  0  0  0  0  0  0  0  0  0  0
   50.3330   30.2180   51.3350 H   0  0  0  0  0  0  0  0  0  0  0  0
   49.1970   32.0920   50.1980 H   0  0  0  0  0  0  0  0  0  0  0  0
   47.9350   32.9150   48.2770 H   0  0  0  0  0  0  0  0  0  0  0  0
   48.8820   35.5650   41.3020 C   0  0  0  0  0  0  0  0  0  0  0  0
   48.4120   35.0170   40.1010 C   0  0  0  0  0  0  0  0  0  0  0  0
   47.3210   34.1260   40.1540 C   0  0  0  0  0  0  0  0  0  0  0  0
   46.8090   33.8700   41.3720 N   0  0  0  0  0  0  0  0  0  0  0  0
   47.2850   34.4180   42.5220 C   0  0  0  0  0  0  0  0  0  0  0  0
   48.3200   35.2650   42.4920 N   0  0  0  0  0  0  0  0  0  0  0  0
   49.7150   36.2460   41.2750 H   0  0  0  0  0  0  0  0  0  0  0  0
   48.8320   35.2310   39.1460 H   0  0  0  0  0  0  0  0  0  0  0  0
   47.4670   33.5110   37.8350 C   0  0  0  0  0  3  0  0  0  0  0  0
   46.7310   33.4810   38.9890 C   0  0  0  0  0  0  0  0  0  0  0  0
   45.4970   32.8700   39.0180 C   0  0  0  0  0  0  0  0  0  0  0  0
   44.9140   32.8410   39.9120 H   0  0  0  0  0  0  0  0  0  0  0  0
   44.9630   32.2670   37.8980 C   0  0  0  0  0  0  0  0  0  0  0  0
   43.8130   31.6150   37.6500 N   0  0  0  0  0  0  0  0  0  0  0  0
   43.0750   31.4650   38.3970 H   0  0  0  0  0  0  0  0  0  0  0  0
   43.8100   31.2370   36.3840 N   0  0  0  0  0  0  0  0  0  0  0  0
   44.9430   31.6280   35.7770 C   0  0  0  0  0  0  0  0  0  0  0  0
   45.2140   31.4610   34.7560 H   0  0  0  0  0  0  0  0  0  0  0  0
   45.7180   32.3010   36.7260 C   0  0  0  0  0  0  0  0  0  0  0  0
   46.9710   32.9150   36.6720 C   0  0  0  0  0  3  0  0  0  0  0  0
  1  2  1  0  0  0  0
  2  8  1  0  0  0  0
  3  2  2  0  0  0  0
  3  4  1  0  0  0  0
  4  5  2  0  0  0  0
  5  6  1  0  0  0  0
  5 11  1  0  0  0  0
  6  7  1  0  0  0  0
  8 10  1  0  0  0  0
  8  6  2  0  0  0  0
  9  4  1  0  0  0  0
 11 20  1  0  0  0  0
 12 11  2  0  0  0  0
 12 13  1  0  0  0  0
 13 14  2  0  0  0  0
 14 19  1  0  0  0  0
 14 15  1  0  0  0  0
 15 16  2  0  0  0  0
 16 23  1  0  0  0  0
 16 17  1  0  0  0  0
 17 24  1  0  0  0  0
 18 25  1  0  0  0  0
 18 17  2  0  0  0  0
 19 18  1  0  0  0  0
 20 26  1  0  0  0  0
 20 19  2  0  0  0  0
 21 12  1  0  0  0  0
 22 13  1  0  0  0  0
 27 32  1  0  0  0  0
 28 29  1  0  0  0  0
 28 27  2  0  0  0  0
 29 30  2  0  0  0  0
 30 31  1  0  0  0  0
 31  3  1  0  0  0  0
 32 31  2  0  0  0  0
 33 27  1  0  0  0  0
 34 28  1  0  0  0  0
 35 36  1  0  0  0  0
 36 37  2  0  0  0  0
 36 29  1  0  0  0  0
 37 38  1  0  0  0  0
 39 37  1  0  0  0  0
 40 39  1  0  0  0  0
 40 41  1  0  0  0  0
 42 40  1  0  0  0  0
 43 42  2  0  0  0  0
 43 45  1  0  0  0  0
 44 43  1  0  0  0  0
 45 39  2  0  0  0  0
 46 45  1  0  0  0  0
 46 35  2  0  0  0  0
M  END
>  <minimizedAffinity>
-7.58591604

>  <minimizedRMSD>
0.254983008

$$$$
