
 OpenBabel03252506043D

 46 51  0  0  0  0  0  0  0  0999 V2000
   44.7500   36.0510   43.0010 Cl  0  0  0  0  0  0  0  0  0  0  0  0
   45.4780   34.8240   43.9940 C   0  0  0  0  0  0  0  0  0  0  0  0
   46.5400   34.0770   43.5130 C   0  0  0  0  0  0  0  0  0  0  0  0
   47.0400   33.1360   44.3760 C   0  0  0  0  0  0  0  0  0  0  0  0
   46.5650   32.8940   45.6510 C   0  0  0  0  0  0  0  0  0  0  0  0
   45.5100   33.6540   46.0940 C   0  0  0  0  0  0  0  0  0  0  0  0
   44.9350   33.3200   47.7170 Cl  0  0  0  0  0  0  0  0  0  0  0  0
   44.9730   34.6090   45.2720 C   0  0  0  0  0  0  0  0  0  0  0  0
   47.8800   32.5480   43.9900 H   0  0  0  0  0  0  0  0  0  0  0  0
   44.1510   35.1800   45.6580 H   0  0  0  0  0  0  0  0  0  0  0  0
   47.2350   31.8430   46.4180 C   0  0  0  0  0  0  0  0  0  0  0  0
   47.3000   30.5310   45.9950 C   0  0  0  0  0  0  0  0  0  0  0  0
   47.9300   29.5190   46.7040 C   0  0  0  0  0  0  0  0  0  0  0  0
   48.5300   29.8340   47.9100 C   0  0  0  0  0  0  0  0  0  0  0  0
   49.1300   28.8250   48.5690 N   0  0  0  0  0  0  0  0  0  0  0  0
   49.7470   29.0370   49.7630 C   0  0  0  0  0  0  0  0  0  0  0  0
   49.7220   30.3300   50.2500 C   0  0  0  0  0  0  0  0  0  0  0  0
   49.1070   31.3380   49.5640 C   0  0  0  0  0  0  0  0  0  0  0  0
   48.4870   31.1180   48.3630 C   0  0  0  0  0  0  0  0  0  0  0  0
   47.8540   32.1070   47.6350 C   0  0  0  0  0  0  0  0  0  0  0  0
   46.8160   30.3300   45.0420 H   0  0  0  0  0  0  0  0  0  0  0  0
   47.9200   28.5220   46.2770 H   0  0  0  0  0  0  0  0  0  0  0  0
   50.2170   28.1780   50.2500 H   0  0  0  0  0  0  0  0  0  0  0  0
   50.2150   30.4890   51.1990 H   0  0  0  0  0  0  0  0  0  0  0  0
   49.1150   32.3400   49.9910 H   0  0  0  0  0  0  0  0  0  0  0  0
   47.8530   33.1090   48.0470 H   0  0  0  0  0  0  0  0  0  0  0  0
   48.6420   35.3030   40.8080 C   0  0  0  0  0  0  0  0  0  0  0  0
   48.1270   34.6510   39.6800 C   0  0  0  0  0  0  0  0  0  0  0  0
   47.0370   33.7740   39.8530 C   0  0  0  0  0  0  0  0  0  0  0  0
   46.5710   33.6310   41.1070 N   0  0  0  0  0  0  0  0  0  0  0  0
   47.0900   34.2770   42.1840 C   0  0  0  0  0  0  0  0  0  0  0  0
   48.1240   35.1130   42.0410 N   0  0  0  0  0  0  0  0  0  0  0  0
   49.4740   35.9750   40.6900 H   0  0  0  0  0  0  0  0  0  0  0  0
   48.5110   34.7770   38.6950 H   0  0  0  0  0  0  0  0  0  0  0  0
   45.8190   31.8410   39.1090 C   0  0  0  0  0  3  0  0  0  0  0  0
   46.4030   33.0310   38.7720 C   0  0  0  0  0  0  0  0  0  0  0  0
   46.3790   33.4820   37.4700 C   0  0  0  0  0  0  0  0  0  0  0  0
   46.8320   34.4080   37.1970 H   0  0  0  0  0  0  0  0  0  0  0  0
   45.7710   32.7560   36.4680 C   0  0  0  0  0  0  0  0  0  0  0  0
   45.6020   32.9530   35.1470 N   0  0  0  0  0  0  0  0  0  0  0  0
   45.9730   33.8130   34.6510 H   0  0  0  0  0  0  0  0  0  0  0  0
   44.9350   31.9250   34.6520 N   0  0  0  0  0  0  0  0  0  0  0  0
   44.6510   31.0410   35.6230 C   0  0  0  0  0  0  0  0  0  0  0  0
   44.1210   30.1180   35.5160 H   0  0  0  0  0  0  0  0  0  0  0  0
   45.1760   31.5440   36.8160 C   0  0  0  0  0  0  0  0  0  0  0  0
   45.1890   31.0670   38.1290 C   0  0  0  0  0  3  0  0  0  0  0  0
  1  2  1  0  0  0  0
  2  8  1  0  0  0  0
  3  2  2  0  0  0  0
  3  4  1  0  0  0  0
  4  5  2  0  0  0  0
  5  6  1  0  0  0  0
  5 11  1  0  0  0  0
  6  7  1  0  0  0  0
  8 10  1  0  0  0  0
  8  6  2  0  0  0  0
  9  4  1  0  0  0  0
 11 20  1  0  0  0  0
 12 11  2  0  0  0  0
 12 13  1  0  0  0  0
 13 14  2  0  0  0  0
 14 19  1  0  0  0  0
 14 15  1  0  0  0  0
 15 16  2  0  0  0  0
 16 17  1  0  0  0  0
 16 23  1  0  0  0  0
 17 24  1  0  0  0  0
 18 25  1  0  0  0  0
 18 17  2  0  0  0  0
 19 18  1  0  0  0  0
 20 26  1  0  0  0  0
 20 19  2  0  0  0  0
 21 12  1  0  0  0  0
 22 13  1  0  0  0  0
 27 32  1  0  0  0  0
 28 29  1  0  0  0  0
 28 27  2  0  0  0  0
 29 30  2  0  0  0  0
 30 31  1  0  0  0  0
 31  3  1  0  0  0  0
 32 31  2  0  0  0  0
 33 27  1  0  0  0  0
 34 28  1  0  0  0  0
 36 35  1  0  0  0  0
 36 29  1  0  0  0  0
 37 36  2  0  0  0  0
 38 37  1  0  0  0  0
 39 45  2  0  0  0  0
 39 37  1  0  0  0  0
 40 39  1  0  0  0  0
 41 40  1  0  0  0  0
 42 40  1  0  0  0  0
 42 43  2  0  0  0  0
 43 45  1  0  0  0  0
 44 43  1  0  0  0  0
 45 46  1  0  0  0  0
 46 35  2  0  0  0  0
M  END
>  <minimizedAffinity>
-7.78773355

>  <minimizedRMSD>
0.588815629

$$$$
