
 OpenBabel03252506543D

 41 46  0  0  0  0  0  0  0  0999 V2000
   47.4070   31.4610   45.2820 C   0  0  0  0  0  0  0  0  0  0  0  0
   46.8580   32.7290   45.2100 C   0  0  0  0  0  0  0  0  0  0  0  0
   46.1200   33.2790   46.2300 C   0  0  0  0  0  0  0  0  0  0  0  0
   45.8960   32.5510   47.3990 C   0  0  0  0  0  0  0  0  0  0  0  0
   45.2390   32.7640   48.5710 N   0  0  0  0  0  0  0  0  0  0  0  0
   45.3780   31.6590   49.3450 C   0  0  0  0  0  0  0  0  0  0  0  0
   46.1220   30.7730   48.6380 N   0  0  0  0  0  0  0  0  0  0  0  0
   46.4510   31.3030   47.4390 C   0  0  0  0  0  0  0  0  0  0  0  0
   47.1960   30.7210   46.4400 C   0  0  0  0  0  0  0  0  0  0  0  0
   47.9880   31.0390   44.4700 H   0  0  0  0  0  0  0  0  0  0  0  0
   45.6790   34.2760   46.1900 H   0  0  0  0  0  0  0  0  0  0  0  0
   44.7380   33.6520   48.7630 H   0  0  0  0  0  0  0  0  0  0  0  0
   44.9550   31.5630   50.3220 H   0  0  0  0  0  0  0  0  0  0  0  0
   46.3500   35.1930   42.5180 C   0  0  0  0  0  0  0  0  0  0  0  0
   47.4860   35.0170   41.7370 C   0  0  0  0  0  0  0  0  0  0  0  0
   48.4220   34.0630   42.1240 C   0  0  0  0  0  0  0  0  0  0  0  0
   48.1840   33.3360   43.2620 N   0  0  0  0  0  0  0  0  0  0  0  0
   47.0640   33.5300   44.0060 C   0  0  0  0  0  0  0  0  0  0  0  0
   46.1640   34.4460   43.6360 N   0  0  0  0  0  0  0  0  0  0  0  0
   45.6330   35.9450   42.1930 H   0  0  0  0  0  0  0  0  0  0  0  0
   47.6840   35.5870   40.8340 H   0  0  0  0  0  0  0  0  0  0  0  0
   49.3380   33.8610   41.5700 H   0  0  0  0  0  0  0  0  0  0  0  0
   47.7420   29.3740   46.5920 C   0  0  0  0  0  0  0  0  0  0  0  0
   49.0680   29.1000   46.8690 C   0  0  0  0  0  0  0  0  0  0  0  0
   49.1160   27.7030   46.9230 C   0  0  0  0  0  0  0  0  0  0  0  0
   47.8490   27.2240   46.6790 C   0  0  0  0  0  0  0  0  0  0  0  0
   47.0630   28.2610   46.4870 O   0  0  0  0  0  0  0  0  0  0  0  0
   49.8970   29.7780   47.0180 H   0  0  0  0  0  0  0  0  0  0  0  0
   49.9810   27.0800   47.1170 H   0  0  0  0  0  0  0  0  0  0  0  0
   48.3770   24.8400   46.7070 C   0  0  0  0  0  3  0  0  0  0  0  0
   47.4100   25.8340   46.6320 C   0  0  0  0  0  0  0  0  0  0  0  0
   46.0720   25.5210   46.5170 C   0  0  0  0  0  0  0  0  0  0  0  0
   45.3020   26.2760   46.4580 H   0  0  0  0  0  0  0  0  0  0  0  0
   45.7090   24.1810   46.4770 C   0  0  0  0  0  0  0  0  0  0  0  0
   44.4670   23.6250   46.3690 N   0  0  0  0  0  0  0  0  0  0  0  0
   43.5470   24.1120   46.2950 H   0  0  0  0  0  0  0  0  0  0  0  0
   44.6040   22.3010   46.3710 N   0  0  0  0  0  0  0  0  0  0  0  0
   45.9070   21.9820   46.4780 C   0  0  0  0  0  0  0  0  0  0  0  0
   46.3970   21.0030   46.5120 H   0  0  0  0  0  0  0  0  0  0  0  0
   46.6430   23.1460   46.5490 C   0  0  0  0  0  0  0  0  0  0  0  0
   47.9620   23.5250   46.6610 C   0  0  0  0  0  3  0  0  0  0  0  0
  1  9  1  0  0  0  0
  2  1  2  0  0  0  0
  2  3  1  0  0  0  0
  3  4  2  0  0  0  0
  4  8  1  0  0  0  0
  4  5  1  0  0  0  0
  5 12  1  0  0  0  0
  5  6  1  0  0  0  0
  6 13  1  0  0  0  0
  7  6  2  0  0  0  0
  8  7  1  0  0  0  0
  9 23  1  0  0  0  0
  9  8  2  0  0  0  0
 10  1  1  0  0  0  0
 11  3  1  0  0  0  0
 14 19  1  0  0  0  0
 15 16  1  0  0  0  0
 15 14  2  0  0  0  0
 16 17  2  0  0  0  0
 17 18  1  0  0  0  0
 18  2  1  0  0  0  0
 19 18  2  0  0  0  0
 20 14  1  0  0  0  0
 21 15  1  0  0  0  0
 22 16  1  0  0  0  0
 23 24  2  0  0  0  0
 24 25  1  0  0  0  0
 24 28  1  0  0  0  0
 25 29  1  0  0  0  0
 26 25  2  0  0  0  0
 27 23  1  0  0  0  0
 27 26  1  0  0  0  0
 31 26  1  0  0  0  0
 31 30  2  0  0  0  0
 32 31  1  0  0  0  0
 33 32  1  0  0  0  0
 34 32  2  0  0  0  0
 34 40  1  0  0  0  0
 35 37  1  0  0  0  0
 35 34  1  0  0  0  0
 36 35  1  0  0  0  0
 37 38  2  0  0  0  0
 38 39  1  0  0  0  0
 38 40  1  0  0  0  0
 40 41  2  0  0  0  0
 41 30  1  0  0  0  0
M  END
>  <minimizedAffinity>
-5.61530638

>  <minimizedRMSD>
0.696747541

$$$$
