
 OpenBabel03252506553D

 41 46  0  0  0  0  0  0  0  0999 V2000
   47.2250   31.3770   45.1450 C   0  0  0  0  0  0  0  0  0  0  0  0
   46.8660   32.7140   45.1350 C   0  0  0  0  0  0  0  0  0  0  0  0
   46.2580   33.3300   46.2010 C   0  0  0  0  0  0  0  0  0  0  0  0
   45.9780   32.6030   47.3580 C   0  0  0  0  0  0  0  0  0  0  0  0
   45.4080   32.8680   48.5650 N   0  0  0  0  0  0  0  0  0  0  0  0
   45.4140   31.7280   49.3000 C   0  0  0  0  0  0  0  0  0  0  0  0
   45.9900   30.7690   48.5350 N   0  0  0  0  0  0  0  0  0  0  0  0
   46.3440   31.2860   47.3380 C   0  0  0  0  0  0  0  0  0  0  0  0
   46.9540   30.6360   46.2900 C   0  0  0  0  0  0  0  0  0  0  0  0
   47.7040   30.9030   44.2960 H   0  0  0  0  0  0  0  0  0  0  0  0
   45.9680   34.3820   46.2100 H   0  0  0  0  0  0  0  0  0  0  0  0
   45.0510   33.8130   48.8040 H   0  0  0  0  0  0  0  0  0  0  0  0
   45.0220   31.6620   50.2920 H   0  0  0  0  0  0  0  0  0  0  0  0
   46.5090   35.1860   42.4260 C   0  0  0  0  0  0  0  0  0  0  0  0
   47.6850   35.0090   41.7060 C   0  0  0  0  0  0  0  0  0  0  0  0
   48.5970   34.0520   42.1400 C   0  0  0  0  0  0  0  0  0  0  0  0
   48.2960   33.3230   43.2620 N   0  0  0  0  0  0  0  0  0  0  0  0
   47.1390   33.5170   43.9450 C   0  0  0  0  0  0  0  0  0  0  0  0
   46.2610   34.4360   43.5290 N   0  0  0  0  0  0  0  0  0  0  0  0
   45.8130   35.9400   42.0650 H   0  0  0  0  0  0  0  0  0  0  0  0
   47.9330   35.5810   40.8170 H   0  0  0  0  0  0  0  0  0  0  0  0
   49.5410   33.8490   41.6360 H   0  0  0  0  0  0  0  0  0  0  0  0
   47.3020   29.2210   46.3790 C   0  0  0  0  0  0  0  0  0  0  0  0
   48.5940   28.7430   46.4980 C   0  0  0  0  0  0  0  0  0  0  0  0
   48.4340   27.3540   46.5480 C   0  0  0  0  0  0  0  0  0  0  0  0
   47.0890   27.0770   46.4580 C   0  0  0  0  0  0  0  0  0  0  0  0
   46.4540   28.2250   46.3580 O   0  0  0  0  0  0  0  0  0  0  0  0
   49.5280   29.2850   46.5460 H   0  0  0  0  0  0  0  0  0  0  0  0
   49.2100   26.6040   46.6400 H   0  0  0  0  0  0  0  0  0  0  0  0
   45.5110   25.5100   47.4640 C   0  0  0  0  0  3  0  0  0  0  0  0
   46.4390   25.7720   46.4660 C   0  0  0  0  0  0  0  0  0  0  0  0
   46.7430   24.8270   45.5070 C   0  0  0  0  0  0  0  0  0  0  0  0
   47.4610   25.0070   44.7220 H   0  0  0  0  0  0  0  0  0  0  0  0
   46.0950   23.6010   45.5620 C   0  0  0  0  0  0  0  0  0  0  0  0
   46.2220   22.5180   44.7390 N   0  0  0  0  0  0  0  0  0  0  0  0
   46.8400   22.4120   43.9040 H   0  0  0  0  0  0  0  0  0  0  0  0
   45.4020   21.5670   45.1780 N   0  0  0  0  0  0  0  0  0  0  0  0
   44.7440   22.0030   46.2680 C   0  0  0  0  0  0  0  0  0  0  0  0
   43.9970   21.5010   46.8930 H   0  0  0  0  0  0  0  0  0  0  0  0
   45.1540   23.2900   46.5460 C   0  0  0  0  0  0  0  0  0  0  0  0
   44.8960   24.2750   47.4730 C   0  0  0  0  0  3  0  0  0  0  0  0
  1  9  1  0  0  0  0
  2  1  2  0  0  0  0
  2  3  1  0  0  0  0
  3 11  1  0  0  0  0
  3  4  2  0  0  0  0
  4  5  1  0  0  0  0
  5 12  1  0  0  0  0
  5  6  1  0  0  0  0
  6 13  1  0  0  0  0
  7  6  2  0  0  0  0
  8  4  1  0  0  0  0
  8  7  1  0  0  0  0
  9 23  1  0  0  0  0
  9  8  2  0  0  0  0
 10  1  1  0  0  0  0
 14 19  1  0  0  0  0
 15 16  1  0  0  0  0
 15 14  2  0  0  0  0
 16 17  2  0  0  0  0
 17 18  1  0  0  0  0
 18  2  1  0  0  0  0
 19 18  2  0  0  0  0
 20 14  1  0  0  0  0
 21 15  1  0  0  0  0
 22 16  1  0  0  0  0
 23 24  2  0  0  0  0
 24 28  1  0  0  0  0
 24 25  1  0  0  0  0
 25 29  1  0  0  0  0
 26 31  1  0  0  0  0
 26 25  2  0  0  0  0
 27 23  1  0  0  0  0
 27 26  1  0  0  0  0
 30 41  1  0  0  0  0
 31 30  2  0  0  0  0
 32 34  2  0  0  0  0
 32 31  1  0  0  0  0
 33 32  1  0  0  0  0
 34 40  1  0  0  0  0
 35 37  1  0  0  0  0
 35 34  1  0  0  0  0
 36 35  1  0  0  0  0
 37 38  2  0  0  0  0
 38 40  1  0  0  0  0
 38 39  1  0  0  0  0
 40 41  2  0  0  0  0
M  END
>  <minimizedAffinity>
-5.71024847

>  <minimizedRMSD>
0.189407319

$$$$
