
 OpenBabel03242511193D

 42 46  0  0  1  0  0  0  0  0999 V2000
   47.9410   34.8380   42.0380 C   0  0  0  0  0  0  0  0  0  0  0  0
   48.4200   35.8030   41.8930 H   0  0  0  0  0  0  0  0  0  0  0  0
   48.3190   34.4650   43.0350 H   0  0  0  0  0  0  0  0  0  0  0  0
   48.1230   33.8360   40.9970 C   0  0  0  0  0  0  0  0  0  0  0  0
   49.2090   33.1360   40.9330 C   0  0  0  0  0  0  0  0  0  0  0  0
   49.4060   32.1650   39.9370 N   0  0  0  0  0  0  0  0  0  0  0  0
   49.8120   30.8260   39.6030 C   0  0  0  0  0  0  0  0  0  0  0  0
   50.6090   29.9720   40.1060 O   0  0  0  0  0  0  0  0  0  0  0  0
   48.8740   30.9490   38.4380 C   0  0  0  0  0  0  0  0  0  0  0  0
   49.1300   32.4370   38.5030 C   0  0  1  0  0  0  0  0  0  0  0  0
   47.6930   33.4990   38.3770 S   0  0  0  0  0  0  0  0  0  0  0  0
   46.9960   33.6930   40.0480 C   0  0  0  0  0  0  0  0  0  0  0  0
   47.8340   30.6400   38.6540 H   0  0  0  0  0  0  0  0  0  0  0  0
   49.3090   30.5520   37.4930 H   0  0  0  0  0  0  0  0  0  0  0  0
   50.0170   32.7480   37.9520 H   0  0  0  0  0  0  0  0  0  0  0  0
   46.3370   34.5580   39.9970 H   0  0  0  0  0  0  0  0  0  0  0  0
   46.3820   32.8010   40.3260 H   0  0  0  0  0  0  0  0  0  0  0  0
   50.2720   33.3550   41.9290 C   0  0  0  0  0  0  0  0  0  0  0  0
   50.9020   32.4310   42.5280 O   0  0  0  0  0  0  0  0  0  0  0  0
   51.1880   33.8670   42.7820 O   0  0  0  0  0  0  0  0  0  0  0  0
   51.5950   34.7890   42.7870 H   0  0  0  0  0  0  0  0  0  0  0  0
   46.1480   35.1610   42.2980 S   0  0  0  0  0  0  0  0  0  0  0  0
   44.5140   35.0050   46.0040 C   0  0  0  0  0  0  0  0  0  0  0  0
   44.7690   35.4180   44.6590 C   0  0  0  0  0  0  0  0  0  0  0  0
   45.7720   34.7080   43.9730 C   0  0  0  0  0  0  0  0  0  0  0  0
   46.4180   33.7010   44.6170 N   0  0  0  0  0  0  0  0  0  0  0  0
   46.1400   33.3540   45.8800 C   0  0  0  0  0  0  0  0  0  0  0  0
   45.1940   33.9970   46.5770 N   0  0  0  0  0  0  0  0  0  0  0  0
   43.7350   35.5500   46.5540 H   0  0  0  0  0  0  0  0  0  0  0  0
   44.2140   36.2290   44.2150 H   0  0  0  0  0  0  0  0  0  0  0  0
   47.1880   31.0930   45.7720 C   0  0  0  0  0  0  0  0  0  0  0  0
   46.9010   32.2530   46.4660 C   0  0  0  0  0  0  0  0  0  0  0  0
   47.3450   32.4000   47.7780 C   0  0  0  0  0  0  0  0  0  0  0  0
   47.1410   33.2980   48.3610 H   0  0  0  0  0  0  0  0  0  0  0  0
   48.0790   31.3810   48.3900 C   0  0  0  0  0  0  0  0  0  0  0  0
   48.6000   31.3240   49.6480 N   0  0  0  0  0  0  0  0  0  0  0  0
   48.5670   32.0260   50.4250 H   0  0  0  0  0  0  0  0  0  0  0  0
   49.2220   30.1460   49.7830 N   0  0  0  0  0  0  0  0  0  0  0  0
   49.0830   29.4790   48.6130 C   0  0  0  0  0  0  0  0  0  0  0  0
   49.4700   28.4800   48.3700 H   0  0  0  0  0  0  0  0  0  0  0  0
   48.3670   30.2200   47.7030 C   0  0  0  0  0  0  0  0  0  0  0  0
   47.9140   30.1040   46.4050 C   0  0  0  0  0  0  0  0  0  0  0  0
  1 22  1  0  0  0  0
  1  3  1  0  0  0  0
  2  1  1  0  0  0  0
  4  1  1  0  0  0  0
  5  4  2  0  0  0  0
  5 18  1  0  0  0  0
  6  5  1  0  0  0  0
  7  6  1  0  0  0  0
  7  8  2  0  0  0  0
  9 10  1  0  0  0  0
  9 13  1  0  0  0  0
  9  7  1  0  0  0  0
 10 15  1  6  0  0  0
 10  6  1  0  0  0  0
 11 10  1  0  0  0  0
 11 12  1  0  0  0  0
 12 17  1  0  0  0  0
 12  4  1  0  0  0  0
 14  9  1  0  0  0  0
 16 12  1  0  0  0  0
 18 19  2  0  0  0  0
 18 20  1  0  0  0  0
 20 21  1  0  0  0  0
 22 25  1  0  0  0  0
 23 29  1  0  0  0  0
 23 28  1  0  0  0  0
 24 23  2  0  0  0  0
 25 26  2  0  0  0  0
 25 24  1  0  0  0  0
 26 27  1  0  0  0  0
 27 32  1  0  0  0  0
 27 28  2  0  0  0  0
 30 24  1  0  0  0  0
 31 42  2  0  0  0  0
 31 32  1  0  0  0  0
 32 33  2  0  0  0  0
 33 34  1  0  0  0  0
 33 35  1  0  0  0  0
 35 36  1  0  0  0  0
 36 38  1  0  0  0  0
 36 37  1  0  0  0  0
 39 38  2  0  0  0  0
 40 39  1  0  0  0  0
 41 35  2  0  0  0  0
 41 39  1  0  0  0  0
 42 41  1  0  0  0  0
M  END
>  <minimizedAffinity>
-6.57462692

>  <minimizedRMSD>
1.57591999

$$$$
