
 OpenBabel03252506543D

 41 46  0  0  0  0  0  0  0  0999 V2000
   47.1420   31.3400   45.0910 C   0  0  0  0  0  0  0  0  0  0  0  0
   46.8510   32.6930   45.1200 C   0  0  0  0  0  0  0  0  0  0  0  0
   46.2970   33.3110   46.2140 C   0  0  0  0  0  0  0  0  0  0  0  0
   46.0040   32.5700   47.3590 C   0  0  0  0  0  0  0  0  0  0  0  0
   45.4710   32.8330   48.5840 N   0  0  0  0  0  0  0  0  0  0  0  0
   45.4350   31.6770   49.2900 C   0  0  0  0  0  0  0  0  0  0  0  0
   45.9470   30.7090   48.4910 N   0  0  0  0  0  0  0  0  0  0  0  0
   46.3030   31.2380   47.2990 C   0  0  0  0  0  0  0  0  0  0  0  0
   46.8580   30.5850   46.2230 C   0  0  0  0  0  0  0  0  0  0  0  0
   47.5800   30.8650   44.2210 H   0  0  0  0  0  0  0  0  0  0  0  0
   46.0600   34.3760   46.2540 H   0  0  0  0  0  0  0  0  0  0  0  0
   45.1680   33.7890   48.8530 H   0  0  0  0  0  0  0  0  0  0  0  0
   45.0600   31.6050   50.2890 H   0  0  0  0  0  0  0  0  0  0  0  0
   46.5290   35.1970   42.4360 C   0  0  0  0  0  0  0  0  0  0  0  0
   47.7160   35.0310   41.7330 C   0  0  0  0  0  0  0  0  0  0  0  0
   48.6240   34.0710   42.1690 C   0  0  0  0  0  0  0  0  0  0  0  0
   48.3080   33.3280   43.2780 N   0  0  0  0  0  0  0  0  0  0  0  0
   47.1400   33.5110   43.9450 C   0  0  0  0  0  0  0  0  0  0  0  0
   46.2670   34.4330   43.5270 N   0  0  0  0  0  0  0  0  0  0  0  0
   45.8370   35.9540   42.0740 H   0  0  0  0  0  0  0  0  0  0  0  0
   47.9760   35.6140   40.8540 H   0  0  0  0  0  0  0  0  0  0  0  0
   49.5760   33.8770   41.6770 H   0  0  0  0  0  0  0  0  0  0  0  0
   47.1360   29.1520   46.2710 C   0  0  0  0  0  0  0  0  0  0  0  0
   48.3930   28.6100   46.4610 C   0  0  0  0  0  0  0  0  0  0  0  0
   48.1690   27.2290   46.4340 C   0  0  0  0  0  0  0  0  0  0  0  0
   46.8230   27.0200   46.2330 C   0  0  0  0  0  0  0  0  0  0  0  0
   46.2490   28.1990   46.1410 O   0  0  0  0  0  0  0  0  0  0  0  0
   49.3440   29.1040   46.6010 H   0  0  0  0  0  0  0  0  0  0  0  0
   48.9020   26.4400   46.5460 H   0  0  0  0  0  0  0  0  0  0  0  0
   46.8450   24.5810   46.3400 C   0  0  0  0  0  3  0  0  0  0  0  0
   46.1190   25.7470   46.1330 C   0  0  0  0  0  0  0  0  0  0  0  0
   44.7710   25.7080   45.8410 C   0  0  0  0  0  0  0  0  0  0  0  0
   44.1880   26.6010   45.6770 H   0  0  0  0  0  0  0  0  0  0  0  0
   44.1510   24.4690   45.7590 C   0  0  0  0  0  0  0  0  0  0  0  0
   42.8460   24.1720   45.4880 N   0  0  0  0  0  0  0  0  0  0  0  0
   42.0630   24.8340   45.2890 H   0  0  0  0  0  0  0  0  0  0  0  0
   42.7090   22.8490   45.5120 N   0  0  0  0  0  0  0  0  0  0  0  0
   43.8940   22.2760   45.7940 C   0  0  0  0  0  0  0  0  0  0  0  0
   44.1640   21.2190   45.8960 H   0  0  0  0  0  0  0  0  0  0  0  0
   44.8360   23.2680   45.9580 C   0  0  0  0  0  0  0  0  0  0  0  0
   46.1780   23.3770   46.2450 C   0  0  0  0  0  3  0  0  0  0  0  0
  1  2  2  0  0  0  0
  1  9  1  0  0  0  0
  2  3  1  0  0  0  0
  3 11  1  0  0  0  0
  3  4  2  0  0  0  0
  4  5  1  0  0  0  0
  5 12  1  0  0  0  0
  5  6  1  0  0  0  0
  6 13  1  0  0  0  0
  7  6  2  0  0  0  0
  8  4  1  0  0  0  0
  8  7  1  0  0  0  0
  9 23  1  0  0  0  0
  9  8  2  0  0  0  0
 10  1  1  0  0  0  0
 14 19  1  0  0  0  0
 15 16  1  0  0  0  0
 15 14  2  0  0  0  0
 16 17  2  0  0  0  0
 17 18  1  0  0  0  0
 18  2  1  0  0  0  0
 19 18  2  0  0  0  0
 20 14  1  0  0  0  0
 21 15  1  0  0  0  0
 22 16  1  0  0  0  0
 23 24  2  0  0  0  0
 24 28  1  0  0  0  0
 25 24  1  0  0  0  0
 25 29  1  0  0  0  0
 26 25  2  0  0  0  0
 27 26  1  0  0  0  0
 27 23  1  0  0  0  0
 31 26  1  0  0  0  0
 31 30  2  0  0  0  0
 32 31  1  0  0  0  0
 33 32  1  0  0  0  0
 34 32  2  0  0  0  0
 34 40  1  0  0  0  0
 35 37  1  0  0  0  0
 35 34  1  0  0  0  0
 36 35  1  0  0  0  0
 37 38  2  0  0  0  0
 38 39  1  0  0  0  0
 38 40  1  0  0  0  0
 40 41  2  0  0  0  0
 41 30  1  0  0  0  0
M  END
>  <minimizedAffinity>
-5.67494869

>  <minimizedRMSD>
0.506514132

$$$$
