
 OpenBabel03252506543D

 41 46  0  0  0  0  0  0  0  0999 V2000
   47.2140   31.3720   45.1570 C   0  0  0  0  0  0  0  0  0  0  0  0
   46.8570   32.7090   45.1470 C   0  0  0  0  0  0  0  0  0  0  0  0
   46.2510   33.3250   46.2150 C   0  0  0  0  0  0  0  0  0  0  0  0
   45.9710   32.5980   47.3720 C   0  0  0  0  0  0  0  0  0  0  0  0
   45.4010   32.8640   48.5790 N   0  0  0  0  0  0  0  0  0  0  0  0
   45.4060   31.7240   49.3130 C   0  0  0  0  0  0  0  0  0  0  0  0
   45.9810   30.7640   48.5470 N   0  0  0  0  0  0  0  0  0  0  0  0
   46.3350   31.2810   47.3500 C   0  0  0  0  0  0  0  0  0  0  0  0
   46.9430   30.6310   46.3020 C   0  0  0  0  0  0  0  0  0  0  0  0
   47.6910   30.8980   44.3080 H   0  0  0  0  0  0  0  0  0  0  0  0
   45.9620   34.3780   46.2240 H   0  0  0  0  0  0  0  0  0  0  0  0
   45.0460   33.8090   48.8190 H   0  0  0  0  0  0  0  0  0  0  0  0
   45.0150   31.6570   50.3060 H   0  0  0  0  0  0  0  0  0  0  0  0
   46.5030   35.1850   42.4420 C   0  0  0  0  0  0  0  0  0  0  0  0
   47.6760   35.0040   41.7190 C   0  0  0  0  0  0  0  0  0  0  0  0
   48.5860   34.0430   42.1500 C   0  0  0  0  0  0  0  0  0  0  0  0
   48.2850   33.3140   43.2720 N   0  0  0  0  0  0  0  0  0  0  0  0
   47.1300   33.5130   43.9580 C   0  0  0  0  0  0  0  0  0  0  0  0
   46.2550   34.4350   43.5450 N   0  0  0  0  0  0  0  0  0  0  0  0
   45.8090   35.9430   42.0830 H   0  0  0  0  0  0  0  0  0  0  0  0
   47.9250   35.5760   40.8300 H   0  0  0  0  0  0  0  0  0  0  0  0
   49.5280   33.8370   41.6440 H   0  0  0  0  0  0  0  0  0  0  0  0
   47.2880   29.2140   46.3900 C   0  0  0  0  0  0  0  0  0  0  0  0
   48.5790   28.7350   46.5180 C   0  0  0  0  0  0  0  0  0  0  0  0
   48.4170   27.3470   46.5630 C   0  0  0  0  0  0  0  0  0  0  0  0
   47.0720   27.0710   46.4610 C   0  0  0  0  0  0  0  0  0  0  0  0
   46.4390   28.2200   46.3590 O   0  0  0  0  0  0  0  0  0  0  0  0
   49.5130   29.2760   46.5750 H   0  0  0  0  0  0  0  0  0  0  0  0
   49.1910   26.5960   46.6590 H   0  0  0  0  0  0  0  0  0  0  0  0
   45.0910   25.7000   46.8490 C   0  0  0  0  0  3  0  0  0  0  0  0
   46.4220   25.7660   46.4600 C   0  0  0  0  0  0  0  0  0  0  0  0
   47.1140   24.6340   46.0830 C   0  0  0  0  0  0  0  0  0  0  0  0
   48.1480   24.6610   45.7760 H   0  0  0  0  0  0  0  0  0  0  0  0
   46.4450   23.4160   46.1010 C   0  0  0  0  0  0  0  0  0  0  0  0
   46.9060   22.1740   45.7760 N   0  0  0  0  0  0  0  0  0  0  0  0
   47.8610   21.9050   45.4490 H   0  0  0  0  0  0  0  0  0  0  0  0
   45.9100   21.3060   45.9450 N   0  0  0  0  0  0  0  0  0  0  0  0
   44.8110   21.9560   46.3720 C   0  0  0  0  0  0  0  0  0  0  0  0
   43.8140   21.5750   46.6140 H   0  0  0  0  0  0  0  0  0  0  0  0
   45.1080   23.2980   46.4830 C   0  0  0  0  0  0  0  0  0  0  0  0
   44.4750   24.4640   46.8490 C   0  0  0  0  0  3  0  0  0  0  0  0
  1  9  1  0  0  0  0
  2  1  2  0  0  0  0
  2  3  1  0  0  0  0
  3 11  1  0  0  0  0
  3  4  2  0  0  0  0
  4  5  1  0  0  0  0
  5 12  1  0  0  0  0
  5  6  1  0  0  0  0
  6 13  1  0  0  0  0
  7  6  2  0  0  0  0
  8  4  1  0  0  0  0
  8  7  1  0  0  0  0
  9 23  1  0  0  0  0
  9  8  2  0  0  0  0
 10  1  1  0  0  0  0
 14 19  1  0  0  0  0
 15 16  1  0  0  0  0
 15 14  2  0  0  0  0
 16 17  2  0  0  0  0
 17 18  1  0  0  0  0
 18  2  1  0  0  0  0
 19 18  2  0  0  0  0
 20 14  1  0  0  0  0
 21 15  1  0  0  0  0
 22 16  1  0  0  0  0
 23 24  2  0  0  0  0
 24 25  1  0  0  0  0
 24 28  1  0  0  0  0
 25 29  1  0  0  0  0
 26 25  2  0  0  0  0
 27 23  1  0  0  0  0
 27 26  1  0  0  0  0
 31 26  1  0  0  0  0
 31 30  2  0  0  0  0
 32 34  2  0  0  0  0
 32 31  1  0  0  0  0
 33 32  1  0  0  0  0
 34 40  1  0  0  0  0
 35 37  1  0  0  0  0
 35 34  1  0  0  0  0
 36 35  1  0  0  0  0
 37 38  2  0  0  0  0
 38 40  1  0  0  0  0
 38 39  1  0  0  0  0
 40 41  2  0  0  0  0
 41 30  1  0  0  0  0
M  END
>  <minimizedAffinity>
-5.75926304

>  <minimizedRMSD>
0.466801792

$$$$
