
 OpenBabel03242513193D

 40 44  0  0  0  0  0  0  0  0999 V2000
   37.0290   27.7830   42.9720 C   0  0  0  0  0  0  0  0  0  0  0  0
   36.6900   27.9630   44.1620 O   0  0  0  0  0  0  0  0  0  0  0  0
   39.9640   28.1840   43.1870 Cl  0  0  0  0  0  0  0  0  0  0  0  0
   39.1820   26.6630   42.7440 C   0  0  0  0  0  0  0  0  0  0  0  0
   37.8100   26.5900   42.6620 C   0  0  0  0  0  0  0  0  0  0  0  0
   37.2560   25.3990   42.3040 C   0  0  0  0  0  0  0  0  0  0  0  0
   38.0440   24.3020   42.0330 C   0  0  0  0  0  0  0  0  0  0  0  0
   39.4220   24.3750   42.1150 C   0  0  0  0  0  0  0  0  0  0  0  0
   39.9900   25.5930   42.4820 C   0  0  0  0  0  0  0  0  0  0  0  0
   36.1780   25.3100   42.2310 H   0  0  0  0  0  0  0  0  0  0  0  0
   37.5870   23.3640   41.7490 H   0  0  0  0  0  0  0  0  0  0  0  0
   39.9850   23.4990   41.8960 H   0  0  0  0  0  0  0  0  0  0  0  0
   41.4470   25.5600   42.5460 C   0  0  0  0  0  0  0  0  0  0  0  0
   42.3800   25.5830   41.5220 C   0  0  0  0  0  0  0  0  0  0  0  0
   43.6720   25.5350   42.0020 C   0  0  0  0  0  0  0  0  0  0  0  0
   43.4650   25.4820   43.3650 C   0  0  0  0  0  0  0  0  0  0  0  0
   42.1860   25.4990   43.6150 O   0  0  0  0  0  0  0  0  0  0  0  0
   42.0880   25.6330   40.4600 H   0  0  0  0  0  0  0  0  0  0  0  0
   44.5970   25.5380   41.4420 H   0  0  0  0  0  0  0  0  0  0  0  0
   44.2580   25.4340   44.1300 H   0  0  0  0  0  0  0  0  0  0  0  0
   35.2530   29.2300   40.1610 C   0  0  0  0  0  0  0  0  0  0  0  0
   35.9100   30.4310   39.8620 C   0  0  0  0  0  0  0  0  0  0  0  0
   36.9840   30.7090   40.6760 C   0  0  0  0  0  0  0  0  0  0  0  0
   37.3230   29.8370   41.6710 N   0  0  0  0  0  0  0  0  0  0  0  0
   36.6720   28.7120   41.9160 C   0  0  0  0  0  0  0  0  0  0  0  0
   35.6230   28.4160   41.1410 N   0  0  0  0  0  0  0  0  0  0  0  0
   34.3880   28.9510   39.5480 H   0  0  0  0  0  0  0  0  0  0  0  0
   35.6060   31.0830   39.0700 H   0  0  0  0  0  0  0  0  0  0  0  0
   37.3060   33.0640   39.9620 C   0  0  0  0  0  3  0  0  0  0  0  0
   37.7840   31.9190   40.5090 C   0  0  0  0  0  0  0  0  0  0  0  0
   39.1030   31.9480   40.9120 C   0  0  0  0  0  0  0  0  0  0  0  0
   39.5400   31.0510   41.3600 H   0  0  0  0  0  0  0  0  0  0  0  0
   39.8900   33.0680   40.7720 C   0  0  0  0  0  0  0  0  0  0  0  0
   41.1790   33.3630   41.0740 N   0  0  0  0  0  0  0  0  0  0  0  0
   41.8430   32.6670   41.5240 H   0  0  0  0  0  0  0  0  0  0  0  0
   41.4730   34.6100   40.7360 N   0  0  0  0  0  0  0  0  0  0  0  0
   40.3860   35.1890   40.1940 C   0  0  0  0  0  0  0  0  0  0  0  0
   40.2760   36.2010   39.8090 H   0  0  0  0  0  0  0  0  0  0  0  0
   39.3750   34.2360   40.2060 C   0  0  0  0  0  0  0  0  0  0  0  0
   38.0530   34.2220   39.7960 C   0  0  0  0  0  3  0  0  0  0  0  0
  1  2  2  0  0  0  0
  4  3  1  0  0  0  0
  5  4  1  0  0  0  0
  5  1  1  0  0  0  0
  6  5  2  0  0  0  0
  7  8  2  0  0  0  0
  7  6  1  0  0  0  0
  8  9  1  0  0  0  0
  9 13  1  0  0  0  0
  9  4  2  0  0  0  0
 10  6  1  0  0  0  0
 11  7  1  0  0  0  0
 12  8  1  0  0  0  0
 13 17  1  0  0  0  0
 14 15  1  0  0  0  0
 14 13  2  0  0  0  0
 15 16  2  0  0  0  0
 16 17  1  0  0  0  0
 16 20  1  0  0  0  0
 18 14  1  0  0  0  0
 19 15  1  0  0  0  0
 21 26  1  0  0  0  0
 22 21  2  0  0  0  0
 22 23  1  0  0  0  0
 23 24  2  0  0  0  0
 24 25  1  0  0  0  0
 25  1  1  0  0  0  0
 26 25  2  0  0  0  0
 27 21  1  0  0  0  0
 28 22  1  0  0  0  0
 29 30  1  0  0  0  0
 30 23  1  0  0  0  0
 30 31  2  0  0  0  0
 31 32  1  0  0  0  0
 33 31  1  0  0  0  0
 33 34  1  0  0  0  0
 34 35  1  0  0  0  0
 36 34  1  0  0  0  0
 37 39  1  0  0  0  0
 37 36  2  0  0  0  0
 38 37  1  0  0  0  0
 39 33  2  0  0  0  0
 40 29  2  0  0  0  0
 40 39  1  0  0  0  0
M  END
>  <minimizedAffinity>
-7.44954824

$$$$

 OpenBabel03242513193D

 40 44  0  0  0  0  0  0  0  0999 V2000
   37.4030   28.1280   43.2140 C   0  0  0  0  0  0  0  0  0  0  0  0
   37.0880   28.5130   44.3610 O   0  0  0  0  0  0  0  0  0  0  0  0
   39.3960   30.2790   42.7400 Cl  0  0  0  0  0  0  0  0  0  0  0  0
   37.9370   30.0230   41.7770 C   0  0  0  0  0  0  0  0  0  0  0  0
   37.0720   28.9990   42.0920 C   0  0  0  0  0  0  0  0  0  0  0  0
   35.9550   28.8520   41.3270 C   0  0  0  0  0  0  0  0  0  0  0  0
   35.6990   29.7000   40.2720 C   0  0  0  0  0  0  0  0  0  0  0  0
   36.5680   30.7280   39.9560 C   0  0  0  0  0  0  0  0  0  0  0  0
   37.7110   30.8800   40.7370 C   0  0  0  0  0  0  0  0  0  0  0  0
   35.2550   28.0550   41.5500 H   0  0  0  0  0  0  0  0  0  0  0  0
   34.8070   29.5680   39.6750 H   0  0  0  0  0  0  0  0  0  0  0  0
   36.3240   31.3550   39.1310 H   0  0  0  0  0  0  0  0  0  0  0  0
   38.5620   31.9870   40.3150 C   0  0  0  0  0  0  0  0  0  0  0  0
   38.5180   33.3250   40.6730 C   0  0  0  0  0  0  0  0  0  0  0  0
   39.5050   34.0570   40.0480 C   0  0  0  0  0  0  0  0  0  0  0  0
   40.1420   33.0900   39.2980 C   0  0  0  0  0  0  0  0  0  0  0  0
   39.5650   31.9370   39.4880 O   0  0  0  0  0  0  0  0  0  0  0  0
   37.7680   33.7220   41.3760 H   0  0  0  0  0  0  0  0  0  0  0  0
   39.7130   35.1150   40.1340 H   0  0  0  0  0  0  0  0  0  0  0  0
   41.0090   33.2620   38.6380 H   0  0  0  0  0  0  0  0  0  0  0  0
   39.8760   25.4860   43.4500 C   0  0  0  0  0  0  0  0  0  0  0  0
   39.4410   24.4680   42.5910 C   0  0  0  0  0  0  0  0  0  0  0  0
   38.2610   24.7410   41.9370 C   0  0  0  0  0  0  0  0  0  0  0  0
   37.6260   25.9300   42.1560 N   0  0  0  0  0  0  0  0  0  0  0  0
   38.0760   26.8630   42.9780 C   0  0  0  0  0  0  0  0  0  0  0  0
   39.2190   26.6260   43.6280 N   0  0  0  0  0  0  0  0  0  0  0  0
   40.8100   25.3290   44.0020 H   0  0  0  0  0  0  0  0  0  0  0  0
   39.9750   23.5520   42.4530 H   0  0  0  0  0  0  0  0  0  0  0  0
   38.2980   22.6870   40.5450 C   0  0  0  0  0  3  0  0  0  0  0  0
   37.6610   23.7930   41.0040 C   0  0  0  0  0  0  0  0  0  0  0  0
   36.3790   23.9890   40.5330 C   0  0  0  0  0  0  0  0  0  0  0  0
   35.8200   24.8660   40.8710 H   0  0  0  0  0  0  0  0  0  0  0  0
   35.7780   23.1190   39.6530 C   0  0  0  0  0  0  0  0  0  0  0  0
   34.5640   23.0720   39.0490 N   0  0  0  0  0  0  0  0  0  0  0  0
   33.8120   23.8070   39.2000 H   0  0  0  0  0  0  0  0  0  0  0  0
   34.4620   22.0040   38.2700 N   0  0  0  0  0  0  0  0  0  0  0  0
   35.6090   21.3020   38.3290 C   0  0  0  0  0  0  0  0  0  0  0  0
   35.8670   20.3780   37.8170 H   0  0  0  0  0  0  0  0  0  0  0  0
   36.4540   21.9860   39.1960 C   0  0  0  0  0  0  0  0  0  0  0  0
   37.7410   21.7760   39.6580 C   0  0  0  0  0  3  0  0  0  0  0  0
  1  2  2  0  0  0  0
  4  5  1  0  0  0  0
  4  3  1  0  0  0  0
  5  1  1  0  0  0  0
  6 10  1  0  0  0  0
  6  5  2  0  0  0  0
  7  6  1  0  0  0  0
  8  7  2  0  0  0  0
  8  9  1  0  0  0  0
  9  4  2  0  0  0  0
 11  7  1  0  0  0  0
 12  8  1  0  0  0  0
 13 14  2  0  0  0  0
 13  9  1  0  0  0  0
 14 18  1  0  0  0  0
 15 19  1  0  0  0  0
 15 14  1  0  0  0  0
 16 17  1  0  0  0  0
 16 15  2  0  0  0  0
 17 13  1  0  0  0  0
 20 16  1  0  0  0  0
 21 26  1  0  0  0  0
 21 27  1  0  0  0  0
 22 21  2  0  0  0  0
 23 24  2  0  0  0  0
 23 22  1  0  0  0  0
 24 25  1  0  0  0  0
 25  1  1  0  0  0  0
 25 26  2  0  0  0  0
 28 22  1  0  0  0  0
 29 30  1  0  0  0  0
 30 23  1  0  0  0  0
 31 32  1  0  0  0  0
 31 30  2  0  0  0  0
 33 31  1  0  0  0  0
 34 35  1  0  0  0  0
 34 33  1  0  0  0  0
 36 37  2  0  0  0  0
 36 34  1  0  0  0  0
 37 39  1  0  0  0  0
 38 37  1  0  0  0  0
 39 33  2  0  0  0  0
 39 40  1  0  0  0  0
 40 29  2  0  0  0  0
M  END
>  <minimizedAffinity>
-7.07076168

$$$$

 OpenBabel03242513193D

 40 44  0  0  0  0  0  0  0  0999 V2000
   36.9220   27.1550   40.0490 C   0  0  0  0  0  0  0  0  0  0  0  0
   36.5570   26.0180   39.6770 O   0  0  0  0  0  0  0  0  0  0  0  0
   39.8280   26.7310   40.4980 Cl  0  0  0  0  0  0  0  0  0  0  0  0
   38.6610   27.1520   41.7570 C   0  0  0  0  0  0  0  0  0  0  0  0
   37.3310   27.3140   41.4400 C   0  0  0  0  0  0  0  0  0  0  0  0
   36.4700   27.6250   42.4490 C   0  0  0  0  0  0  0  0  0  0  0  0
   36.9170   27.7730   43.7430 C   0  0  0  0  0  0  0  0  0  0  0  0
   38.2520   27.6100   44.0610 C   0  0  0  0  0  0  0  0  0  0  0  0
   39.1340   27.2920   43.0310 C   0  0  0  0  0  0  0  0  0  0  0  0
   35.4180   27.7590   42.2310 H   0  0  0  0  0  0  0  0  0  0  0  0
   36.2190   28.0200   44.5320 H   0  0  0  0  0  0  0  0  0  0  0  0
   38.5460   27.7360   45.0770 H   0  0  0  0  0  0  0  0  0  0  0  0
   40.5170   27.1510   43.4720 C   0  0  0  0  0  0  0  0  0  0  0  0
   41.2010   26.0230   43.8990 C   0  0  0  0  0  0  0  0  0  0  0  0
   42.5070   26.3090   44.2330 C   0  0  0  0  0  0  0  0  0  0  0  0
   42.5720   27.6650   43.9850 C   0  0  0  0  0  0  0  0  0  0  0  0
   41.4160   28.0880   43.5560 O   0  0  0  0  0  0  0  0  0  0  0  0
   40.7240   25.0310   43.9530 H   0  0  0  0  0  0  0  0  0  0  0  0
   43.2710   25.6350   44.5950 H   0  0  0  0  0  0  0  0  0  0  0  0
   43.4640   28.2980   44.1260 H   0  0  0  0  0  0  0  0  0  0  0  0
   36.4850   29.1330   37.0420 C   0  0  0  0  0  0  0  0  0  0  0  0
   36.9600   30.4150   37.3480 C   0  0  0  0  0  0  0  0  0  0  0  0
   37.4300   30.5560   38.6330 C   0  0  0  0  0  0  0  0  0  0  0  0
   37.4070   29.4880   39.4830 N   0  0  0  0  0  0  0  0  0  0  0  0
   36.9480   28.2930   39.1490 C   0  0  0  0  0  0  0  0  0  0  0  0
   36.4840   28.1260   37.9060 N   0  0  0  0  0  0  0  0  0  0  0  0
   36.0960   28.9560   36.0330 H   0  0  0  0  0  0  0  0  0  0  0  0
   36.9570   31.2230   36.6460 H   0  0  0  0  0  0  0  0  0  0  0  0
   37.2020   32.9300   39.3200 C   0  0  0  0  0  3  0  0  0  0  0  0
   37.9620   31.8240   39.1240 C   0  0  0  0  0  0  0  0  0  0  0  0
   39.3030   31.9550   39.4180 C   0  0  0  0  0  0  0  0  0  0  0  0
   39.9620   31.0930   39.2780 H   0  0  0  0  0  0  0  0  0  0  0  0
   39.8430   33.1320   39.8820 C   0  0  0  0  0  0  0  0  0  0  0  0
   41.0910   33.5250   40.2400 N   0  0  0  0  0  0  0  0  0  0  0  0
   41.9350   32.8810   40.2030 H   0  0  0  0  0  0  0  0  0  0  0  0
   41.0970   34.7910   40.6310 N   0  0  0  0  0  0  0  0  0  0  0  0
   39.8480   35.2860   40.5460 C   0  0  0  0  0  0  0  0  0  0  0  0
   39.4960   36.2870   40.7870 H   0  0  0  0  0  0  0  0  0  0  0  0
   39.0400   34.2570   40.0770 C   0  0  0  0  0  0  0  0  0  0  0  0
   37.6920   34.1430   39.7850 C   0  0  0  0  0  3  0  0  0  0  0  0
  1  5  1  0  0  0  0
  2  1  2  0  0  0  0
  3  4  1  0  0  0  0
  4  9  1  0  0  0  0
  5  4  2  0  0  0  0
  5  6  1  0  0  0  0
  6  7  2  0  0  0  0
  7  8  1  0  0  0  0
  7 11  1  0  0  0  0
  8 12  1  0  0  0  0
  9 13  1  0  0  0  0
  9  8  2  0  0  0  0
 10  6  1  0  0  0  0
 13 17  1  0  0  0  0
 13 14  2  0  0  0  0
 14 18  1  0  0  0  0
 14 15  1  0  0  0  0
 15 19  1  0  0  0  0
 16 20  1  0  0  0  0
 16 15  2  0  0  0  0
 17 16  1  0  0  0  0
 21 22  2  0  0  0  0
 21 26  1  0  0  0  0
 22 23  1  0  0  0  0
 23 30  1  0  0  0  0
 23 24  2  0  0  0  0
 25 24  1  0  0  0  0
 25  1  1  0  0  0  0
 26 25  2  0  0  0  0
 27 21  1  0  0  0  0
 28 22  1  0  0  0  0
 29 40  1  0  0  0  0
 30 29  2  0  0  0  0
 30 31  1  0  0  0  0
 31 33  2  0  0  0  0
 32 31  1  0  0  0  0
 33 39  1  0  0  0  0
 33 34  1  0  0  0  0
 34 36  1  0  0  0  0
 35 34  1  0  0  0  0
 37 36  2  0  0  0  0
 37 38  1  0  0  0  0
 39 37  1  0  0  0  0
 40 39  2  0  0  0  0
M  END
>  <minimizedAffinity>
-7.02116346

$$$$

 OpenBabel03242513193D

 40 44  0  0  0  0  0  0  0  0999 V2000
   37.5460   31.2750   38.8290 C   0  0  0  0  0  0  0  0  0  0  0  0
   37.2120   31.1840   37.6270 O   0  0  0  0  0  0  0  0  0  0  0  0
   40.4360   31.1120   38.1630 Cl  0  0  0  0  0  0  0  0  0  0  0  0
   39.6580   32.4840   38.9590 C   0  0  0  0  0  0  0  0  0  0  0  0
   38.3090   32.4510   39.2330 C   0  0  0  0  0  0  0  0  0  0  0  0
   37.7600   33.5280   39.8590 C   0  0  0  0  0  0  0  0  0  0  0  0
   38.5300   34.6160   40.2070 C   0  0  0  0  0  0  0  0  0  0  0  0
   39.8840   34.6490   39.9330 C   0  0  0  0  0  0  0  0  0  0  0  0
   40.4480   33.5480   39.2920 C   0  0  0  0  0  0  0  0  0  0  0  0
   36.7010   33.5310   40.0870 H   0  0  0  0  0  0  0  0  0  0  0  0
   38.0770   35.4630   40.7040 H   0  0  0  0  0  0  0  0  0  0  0  0
   40.4340   35.5140   40.2220 H   0  0  0  0  0  0  0  0  0  0  0  0
   41.8780   33.6890   39.0430 C   0  0  0  0  0  0  0  0  0  0  0  0
   42.5420   34.1020   37.8990 C   0  0  0  0  0  0  0  0  0  0  0  0
   43.9100   34.0980   38.0680 C   0  0  0  0  0  0  0  0  0  0  0  0
   44.0320   33.6630   39.3720 C   0  0  0  0  0  0  0  0  0  0  0  0
   42.8490   33.4470   39.8740 O   0  0  0  0  0  0  0  0  0  0  0  0
   42.0070   34.3900   36.9790 H   0  0  0  0  0  0  0  0  0  0  0  0
   44.6760   34.3700   37.3540 H   0  0  0  0  0  0  0  0  0  0  0  0
   44.9840   33.5200   39.9110 H   0  0  0  0  0  0  0  0  0  0  0  0
   35.5460   28.9740   40.7920 C   0  0  0  0  0  0  0  0  0  0  0  0
   36.4360   28.3280   41.6600 C   0  0  0  0  0  0  0  0  0  0  0  0
   37.7470   28.7260   41.5300 C   0  0  0  0  0  0  0  0  0  0  0  0
   38.0770   29.6780   40.6090 N   0  0  0  0  0  0  0  0  0  0  0  0
   37.1990   30.2620   39.8090 C   0  0  0  0  0  0  0  0  0  0  0  0
   35.9180   29.8960   39.9130 N   0  0  0  0  0  0  0  0  0  0  0  0
   34.4860   28.7010   40.8460 H   0  0  0  0  0  0  0  0  0  0  0  0
   36.1290   27.5860   42.3670 H   0  0  0  0  0  0  0  0  0  0  0  0
   38.6470   27.0620   43.1360 C   0  0  0  0  0  3  0  0  0  0  0  0
   38.8100   28.1570   42.3530 C   0  0  0  0  0  0  0  0  0  0  0  0
   40.0650   28.7300   42.3720 C   0  0  0  0  0  0  0  0  0  0  0  0
   40.2510   29.6160   41.7580 H   0  0  0  0  0  0  0  0  0  0  0  0
   41.0920   28.2250   43.1350 C   0  0  0  0  0  0  0  0  0  0  0  0
   42.3860   28.5800   43.3330 N   0  0  0  0  0  0  0  0  0  0  0  0
   42.8390   29.4140   42.8570 H   0  0  0  0  0  0  0  0  0  0  0  0
   42.9800   27.7540   44.1830 N   0  0  0  0  0  0  0  0  0  0  0  0
   42.0980   26.8190   44.5810 C   0  0  0  0  0  0  0  0  0  0  0  0
   42.2500   25.9920   45.2710 H   0  0  0  0  0  0  0  0  0  0  0  0
   40.9000   27.0950   43.9320 C   0  0  0  0  0  0  0  0  0  0  0  0
   39.6460   26.5090   43.9250 C   0  0  0  0  0  3  0  0  0  0  0  0
  1  5  1  0  0  0  0
  1 25  1  0  0  0  0
  2  1  2  0  0  0  0
  3  4  1  0  0  0  0
  4  5  2  0  0  0  0
  4  9  1  0  0  0  0
  5  6  1  0  0  0  0
  6 10  1  0  0  0  0
  6  7  2  0  0  0  0
  7 11  1  0  0  0  0
  8  7  1  0  0  0  0
  8 12  1  0  0  0  0
  9  8  2  0  0  0  0
 13  9  1  0  0  0  0
 13 17  1  0  0  0  0
 14 15  1  0  0  0  0
 14 13  2  0  0  0  0
 15 16  2  0  0  0  0
 16 17  1  0  0  0  0
 16 20  1  0  0  0  0
 18 14  1  0  0  0  0
 19 15  1  0  0  0  0
 21 27  1  0  0  0  0
 21 22  1  0  0  0  0
 22 28  1  0  0  0  0
 23 22  2  0  0  0  0
 23 30  1  0  0  0  0
 24 23  1  0  0  0  0
 25 26  1  0  0  0  0
 25 24  2  0  0  0  0
 26 21  2  0  0  0  0
 29 40  1  0  0  0  0
 30 31  1  0  0  0  0
 30 29  2  0  0  0  0
 31 33  2  0  0  0  0
 32 31  1  0  0  0  0
 33 34  1  0  0  0  0
 33 39  1  0  0  0  0
 34 36  1  0  0  0  0
 35 34  1  0  0  0  0
 36 37  2  0  0  0  0
 37 38  1  0  0  0  0
 39 37  1  0  0  0  0
 40 39  2  0  0  0  0
M  END
>  <minimizedAffinity>
-6.99382734

$$$$

 OpenBabel03242513193D

 40 44  0  0  0  0  0  0  0  0999 V2000
   37.8560   28.5480   43.1770 C   0  0  0  0  0  0  0  0  0  0  0  0
   37.1950   28.5400   44.2390 O   0  0  0  0  0  0  0  0  0  0  0  0
   36.8380   26.4450   41.3430 Cl  0  0  0  0  0  0  0  0  0  0  0  0
   38.4300   26.4320   42.1110 C   0  0  0  0  0  0  0  0  0  0  0  0
   38.7970   27.4550   42.9560 C   0  0  0  0  0  0  0  0  0  0  0  0
   40.0290   27.3930   43.5340 C   0  0  0  0  0  0  0  0  0  0  0  0
   40.8790   26.3400   43.2790 C   0  0  0  0  0  0  0  0  0  0  0  0
   40.5110   25.3130   42.4310 C   0  0  0  0  0  0  0  0  0  0  0  0
   39.2510   25.3750   41.8390 C   0  0  0  0  0  0  0  0  0  0  0  0
   40.3460   28.1830   44.2030 H   0  0  0  0  0  0  0  0  0  0  0  0
   41.8540   26.3070   43.7470 H   0  0  0  0  0  0  0  0  0  0  0  0
   41.2060   24.5230   42.2680 H   0  0  0  0  0  0  0  0  0  0  0  0
   38.9660   24.2490   40.9580 C   0  0  0  0  0  0  0  0  0  0  0  0
   39.4250   23.9870   39.6770 C   0  0  0  0  0  0  0  0  0  0  0  0
   38.9180   22.8060   39.1790 C   0  0  0  0  0  0  0  0  0  0  0  0
   38.1310   22.3740   40.2270 C   0  0  0  0  0  0  0  0  0  0  0  0
   38.1960   23.2300   41.2070 O   0  0  0  0  0  0  0  0  0  0  0  0
   40.1140   24.6660   39.1480 H   0  0  0  0  0  0  0  0  0  0  0  0
   39.0990   22.3510   38.2150 H   0  0  0  0  0  0  0  0  0  0  0  0
   37.5360   21.4440   40.2370 H   0  0  0  0  0  0  0  0  0  0  0  0
   36.2900   30.8280   40.8310 C   0  0  0  0  0  0  0  0  0  0  0  0
   37.3290   31.5830   40.2720 C   0  0  0  0  0  0  0  0  0  0  0  0
   38.5820   31.2670   40.7450 C   0  0  0  0  0  0  0  0  0  0  0  0
   38.7230   30.2830   41.6820 N   0  0  0  0  0  0  0  0  0  0  0  0
   37.7100   29.5940   42.1820 C   0  0  0  0  0  0  0  0  0  0  0  0
   36.4810   29.8800   41.7420 N   0  0  0  0  0  0  0  0  0  0  0  0
   35.2670   31.0330   40.4960 H   0  0  0  0  0  0  0  0  0  0  0  0
   37.1680   32.3460   39.5390 H   0  0  0  0  0  0  0  0  0  0  0  0
   40.8330   32.2610   41.0710 C   0  0  0  0  0  3  0  0  0  0  0  0
   39.7800   31.9540   40.2730 C   0  0  0  0  0  0  0  0  0  0  0  0
   39.8950   32.3330   38.9510 C   0  0  0  0  0  0  0  0  0  0  0  0
   39.0750   32.1090   38.2640 H   0  0  0  0  0  0  0  0  0  0  0  0
   41.0080   32.9820   38.4680 C   0  0  0  0  0  0  0  0  0  0  0  0
   41.3720   33.4540   37.2490 N   0  0  0  0  0  0  0  0  0  0  0  0
   40.7580   33.3710   36.3870 H   0  0  0  0  0  0  0  0  0  0  0  0
   42.5720   34.0140   37.2970 N   0  0  0  0  0  0  0  0  0  0  0  0
   43.0490   33.9340   38.5530 C   0  0  0  0  0  0  0  0  0  0  0  0
   43.9990   34.2930   38.9430 H   0  0  0  0  0  0  0  0  0  0  0  0
   42.0790   33.2870   39.3090 C   0  0  0  0  0  0  0  0  0  0  0  0
   41.9780   32.9140   40.6380 C   0  0  0  0  0  3  0  0  0  0  0  0
  1  2  2  0  0  0  0
  3  4  1  0  0  0  0
  4  5  1  0  0  0  0
  5  1  1  0  0  0  0
  5  6  2  0  0  0  0
  6 10  1  0  0  0  0
  7  6  1  0  0  0  0
  7 11  1  0  0  0  0
  8  7  2  0  0  0  0
  9  4  2  0  0  0  0
  9  8  1  0  0  0  0
 12  8  1  0  0  0  0
 13 17  1  0  0  0  0
 13  9  1  0  0  0  0
 14 13  2  0  0  0  0
 15 14  1  0  0  0  0
 15 16  2  0  0  0  0
 16 20  1  0  0  0  0
 16 17  1  0  0  0  0
 18 14  1  0  0  0  0
 19 15  1  0  0  0  0
 21 26  1  0  0  0  0
 22 23  1  0  0  0  0
 22 21  2  0  0  0  0
 23 24  2  0  0  0  0
 24 25  1  0  0  0  0
 25  1  1  0  0  0  0
 26 25  2  0  0  0  0
 27 21  1  0  0  0  0
 28 22  1  0  0  0  0
 30 23  1  0  0  0  0
 30 29  2  0  0  0  0
 31 30  1  0  0  0  0
 32 31  1  0  0  0  0
 33 31  2  0  0  0  0
 33 39  1  0  0  0  0
 34 36  1  0  0  0  0
 34 33  1  0  0  0  0
 35 34  1  0  0  0  0
 36 37  2  0  0  0  0
 37 38  1  0  0  0  0
 37 39  1  0  0  0  0
 39 40  2  0  0  0  0
 40 29  1  0  0  0  0
M  END
>  <minimizedAffinity>
-6.95634556

$$$$

 OpenBabel03242513193D

 40 44  0  0  0  0  0  0  0  0999 V2000
   37.9070   28.2610   43.0250 C   0  0  0  0  0  0  0  0  0  0  0  0
   37.1650   28.4030   44.0220 O   0  0  0  0  0  0  0  0  0  0  0  0
   36.9010   26.2600   41.0740 Cl  0  0  0  0  0  0  0  0  0  0  0  0
   38.3480   26.0620   42.0690 C   0  0  0  0  0  0  0  0  0  0  0  0
   38.7190   27.0510   42.9520 C   0  0  0  0  0  0  0  0  0  0  0  0
   39.8350   26.8450   43.7060 C   0  0  0  0  0  0  0  0  0  0  0  0
   40.5680   25.6850   43.5860 C   0  0  0  0  0  0  0  0  0  0  0  0
   40.1950   24.6930   42.6990 C   0  0  0  0  0  0  0  0  0  0  0  0
   39.0540   24.9020   41.9280 C   0  0  0  0  0  0  0  0  0  0  0  0
   40.1520   27.6050   44.4100 H   0  0  0  0  0  0  0  0  0  0  0  0
   41.4510   25.5380   44.1930 H   0  0  0  0  0  0  0  0  0  0  0  0
   40.7960   23.8160   42.6450 H   0  0  0  0  0  0  0  0  0  0  0  0
   38.7550   23.7990   41.0210 C   0  0  0  0  0  0  0  0  0  0  0  0
   39.2810   23.5110   39.7710 C   0  0  0  0  0  0  0  0  0  0  0  0
   38.7310   22.3680   39.2320 C   0  0  0  0  0  0  0  0  0  0  0  0
   37.8490   21.9860   40.2220 C   0  0  0  0  0  0  0  0  0  0  0  0
   37.9050   22.8330   41.2110 O   0  0  0  0  0  0  0  0  0  0  0  0
   40.0470   24.1450   39.2950 H   0  0  0  0  0  0  0  0  0  0  0  0
   38.9460   21.9050   38.2790 H   0  0  0  0  0  0  0  0  0  0  0  0
   37.1940   21.0980   40.1860 H   0  0  0  0  0  0  0  0  0  0  0  0
   38.8060   31.2850   41.2380 C   0  0  0  0  0  0  0  0  0  0  0  0
   38.1730   31.2020   39.9910 C   0  0  0  0  0  0  0  0  0  0  0  0
   37.4300   30.0580   39.8040 C   0  0  0  0  0  0  0  0  0  0  0  0
   37.3620   29.1270   40.8000 N   0  0  0  0  0  0  0  0  0  0  0  0
   37.9780   29.2490   41.9640 C   0  0  0  0  0  0  0  0  0  0  0  0
   38.7070   30.3490   42.1740 N   0  0  0  0  0  0  0  0  0  0  0  0
   39.4140   32.1730   41.4480 H   0  0  0  0  0  0  0  0  0  0  0  0
   38.2570   31.9600   39.2410 H   0  0  0  0  0  0  0  0  0  0  0  0
   35.4210   29.3640   38.5230 C   0  0  0  0  0  3  0  0  0  0  0  0
   36.7030   29.8060   38.5640 C   0  0  0  0  0  0  0  0  0  0  0  0
   37.3100   30.0110   37.3420 C   0  0  0  0  0  0  0  0  0  0  0  0
   38.3440   30.3660   37.3180 H   0  0  0  0  0  0  0  0  0  0  0  0
   36.6590   29.7840   36.1520 C   0  0  0  0  0  0  0  0  0  0  0  0
   37.0070   29.9010   34.8450 N   0  0  0  0  0  0  0  0  0  0  0  0
   37.9650   30.2300   34.5280 H   0  0  0  0  0  0  0  0  0  0  0  0
   36.0030   29.5540   34.0530 N   0  0  0  0  0  0  0  0  0  0  0  0
   34.9480   29.1930   34.8080 C   0  0  0  0  0  0  0  0  0  0  0  0
   33.9660   28.8550   34.4850 H   0  0  0  0  0  0  0  0  0  0  0  0
   35.3380   29.3310   36.1350 C   0  0  0  0  0  0  0  0  0  0  0  0
   34.7160   29.1190   37.3530 C   0  0  0  0  0  3  0  0  0  0  0  0
  1  2  2  0  0  0  0
  3  4  1  0  0  0  0
  4  5  1  0  0  0  0
  5  1  1  0  0  0  0
  5  6  2  0  0  0  0
  6 10  1  0  0  0  0
  7  6  1  0  0  0  0
  7 11  1  0  0  0  0
  8  7  2  0  0  0  0
  9  4  2  0  0  0  0
  9  8  1  0  0  0  0
 12  8  1  0  0  0  0
 13 17  1  0  0  0  0
 13  9  1  0  0  0  0
 14 13  2  0  0  0  0
 15 14  1  0  0  0  0
 15 16  2  0  0  0  0
 16 17  1  0  0  0  0
 18 14  1  0  0  0  0
 19 15  1  0  0  0  0
 20 16  1  0  0  0  0
 21 27  1  0  0  0  0
 21 26  1  0  0  0  0
 22 21  2  0  0  0  0
 23 22  1  0  0  0  0
 23 24  2  0  0  0  0
 24 25  1  0  0  0  0
 25 26  2  0  0  0  0
 25  1  1  0  0  0  0
 28 22  1  0  0  0  0
 29 30  1  0  0  0  0
 30 23  1  0  0  0  0
 31 30  2  0  0  0  0
 32 31  1  0  0  0  0
 33 31  1  0  0  0  0
 34 33  1  0  0  0  0
 35 34  1  0  0  0  0
 36 37  2  0  0  0  0
 36 34  1  0  0  0  0
 37 39  1  0  0  0  0
 38 37  1  0  0  0  0
 39 33  2  0  0  0  0
 39 40  1  0  0  0  0
 40 29  2  0  0  0  0
M  END
>  <minimizedAffinity>
-6.7967968

$$$$

 OpenBabel03242513193D

 40 44  0  0  0  0  0  0  0  0999 V2000
   37.0300   30.4500   41.0030 C   0  0  0  0  0  0  0  0  0  0  0  0
   35.8200   30.7440   40.8850 O   0  0  0  0  0  0  0  0  0  0  0  0
   36.7840   27.9830   39.3670 Cl  0  0  0  0  0  0  0  0  0  0  0  0
   37.2940   28.0270   41.0580 C   0  0  0  0  0  0  0  0  0  0  0  0
   37.3630   29.2290   41.7280 C   0  0  0  0  0  0  0  0  0  0  0  0
   37.7490   29.2080   43.0340 C   0  0  0  0  0  0  0  0  0  0  0  0
   38.0610   28.0230   43.6630 C   0  0  0  0  0  0  0  0  0  0  0  0
   37.9930   26.8170   42.9910 C   0  0  0  0  0  0  0  0  0  0  0  0
   37.5980   26.8370   41.6550 C   0  0  0  0  0  0  0  0  0  0  0  0
   37.8130   30.1370   43.5880 H   0  0  0  0  0  0  0  0  0  0  0  0
   38.3660   28.0250   44.7010 H   0  0  0  0  0  0  0  0  0  0  0  0
   38.2440   25.9300   43.5230 H   0  0  0  0  0  0  0  0  0  0  0  0
   37.5660   25.5150   41.0380 C   0  0  0  0  0  0  0  0  0  0  0  0
   36.7930   24.4090   41.3520 C   0  0  0  0  0  0  0  0  0  0  0  0
   37.0640   23.3400   40.5240 C   0  0  0  0  0  0  0  0  0  0  0  0
   38.0390   23.8620   39.6990 C   0  0  0  0  0  0  0  0  0  0  0  0
   38.2830   25.0970   40.0360 O   0  0  0  0  0  0  0  0  0  0  0  0
   36.0580   24.4180   42.1730 H   0  0  0  0  0  0  0  0  0  0  0  0
   36.6190   22.3550   40.5330 H   0  0  0  0  0  0  0  0  0  0  0  0
   38.5370   23.3210   38.8770 H   0  0  0  0  0  0  0  0  0  0  0  0
   39.0930   33.3600   40.3490 C   0  0  0  0  0  0  0  0  0  0  0  0
   40.0740   32.9440   39.4390 C   0  0  0  0  0  0  0  0  0  0  0  0
   39.9840   31.6210   39.0700 C   0  0  0  0  0  0  0  0  0  0  0  0
   38.9920   30.8400   39.5900 N   0  0  0  0  0  0  0  0  0  0  0  0
   38.0860   31.2770   40.4490 C   0  0  0  0  0  0  0  0  0  0  0  0
   38.1490   32.5580   40.8260 N   0  0  0  0  0  0  0  0  0  0  0  0
   39.1110   34.4030   40.6830 H   0  0  0  0  0  0  0  0  0  0  0  0
   40.8320   33.5960   39.0590 H   0  0  0  0  0  0  0  0  0  0  0  0
   40.7670   29.7770   37.6050 C   0  0  0  0  0  3  0  0  0  0  0  0
   40.9240   31.0180   38.1300 C   0  0  0  0  0  0  0  0  0  0  0  0
   42.0470   31.7070   37.7230 C   0  0  0  0  0  0  0  0  0  0  0  0
   42.2220   32.7130   38.1160 H   0  0  0  0  0  0  0  0  0  0  0  0
   42.9560   31.1740   36.8390 C   0  0  0  0  0  0  0  0  0  0  0  0
   44.1120   31.6200   36.2860 N   0  0  0  0  0  0  0  0  0  0  0  0
   44.5230   32.5770   36.4940 H   0  0  0  0  0  0  0  0  0  0  0  0
   44.6310   30.7110   35.4730 N   0  0  0  0  0  0  0  0  0  0  0  0
   43.8360   29.6250   35.4580 C   0  0  0  0  0  0  0  0  0  0  0  0
   43.9630   28.6990   34.9020 H   0  0  0  0  0  0  0  0  0  0  0  0
   42.7730   29.8950   36.3110 C   0  0  0  0  0  0  0  0  0  0  0  0
   41.6510   29.1890   36.7110 C   0  0  0  0  0  3  0  0  0  0  0  0
  1  5  1  0  0  0  0
  2  1  2  0  0  0  0
  3  4  1  0  0  0  0
  4  9  2  0  0  0  0
  4  5  1  0  0  0  0
  5  6  2  0  0  0  0
  6 10  1  0  0  0  0
  6  7  1  0  0  0  0
  7 11  1  0  0  0  0
  8 12  1  0  0  0  0
  8  7  2  0  0  0  0
  9  8  1  0  0  0  0
 13 14  2  0  0  0  0
 13  9  1  0  0  0  0
 14 18  1  0  0  0  0
 15 19  1  0  0  0  0
 15 14  1  0  0  0  0
 16 17  1  0  0  0  0
 16 15  2  0  0  0  0
 17 13  1  0  0  0  0
 20 16  1  0  0  0  0
 21 27  1  0  0  0  0
 21 26  1  0  0  0  0
 22 21  2  0  0  0  0
 23 22  1  0  0  0  0
 23 24  2  0  0  0  0
 24 25  1  0  0  0  0
 25 26  2  0  0  0  0
 25  1  1  0  0  0  0
 28 22  1  0  0  0  0
 29 30  1  0  0  0  0
 30 23  1  0  0  0  0
 31 32  1  0  0  0  0
 31 30  2  0  0  0  0
 33 31  1  0  0  0  0
 34 35  1  0  0  0  0
 34 33  1  0  0  0  0
 36 34  1  0  0  0  0
 37 36  2  0  0  0  0
 37 39  1  0  0  0  0
 38 37  1  0  0  0  0
 39 40  1  0  0  0  0
 39 33  2  0  0  0  0
 40 29  2  0  0  0  0
M  END
>  <minimizedAffinity>
-6.69056988

$$$$

 OpenBabel03242513193D

 40 44  0  0  0  0  0  0  0  0999 V2000
   35.4630   28.9370   39.8220 C   0  0  0  0  0  0  0  0  0  0  0  0
   34.2210   29.0790   39.7900 O   0  0  0  0  0  0  0  0  0  0  0  0
   36.6160   31.2620   41.2650 Cl  0  0  0  0  0  0  0  0  0  0  0  0
   36.8590   30.9160   39.5490 C   0  0  0  0  0  0  0  0  0  0  0  0
   36.2670   29.8130   38.9770 C   0  0  0  0  0  0  0  0  0  0  0  0
   36.4740   29.5970   37.6480 C   0  0  0  0  0  0  0  0  0  0  0  0
   37.2520   30.4550   36.9030 C   0  0  0  0  0  0  0  0  0  0  0  0
   37.8470   31.5620   37.4780 C   0  0  0  0  0  0  0  0  0  0  0  0
   37.6360   31.7850   38.8370 C   0  0  0  0  0  0  0  0  0  0  0  0
   36.0210   28.7380   37.1690 H   0  0  0  0  0  0  0  0  0  0  0  0
   37.4060   30.2680   35.8480 H   0  0  0  0  0  0  0  0  0  0  0  0
   38.4390   32.1940   36.8570 H   0  0  0  0  0  0  0  0  0  0  0  0
   38.3130   32.9730   39.3440 C   0  0  0  0  0  0  0  0  0  0  0  0
   37.7850   34.1810   39.7690 C   0  0  0  0  0  0  0  0  0  0  0  0
   38.7670   35.0570   40.1790 C   0  0  0  0  0  0  0  0  0  0  0  0
   39.9110   34.3120   39.9780 C   0  0  0  0  0  0  0  0  0  0  0  0
   39.5930   33.1400   39.5040 O   0  0  0  0  0  0  0  0  0  0  0  0
   36.7010   34.3840   39.7650 H   0  0  0  0  0  0  0  0  0  0  0  0
   38.6540   36.0640   40.5570 H   0  0  0  0  0  0  0  0  0  0  0  0
   40.9390   34.6520   40.1870 H   0  0  0  0  0  0  0  0  0  0  0  0
   36.7960   27.3190   42.7810 C   0  0  0  0  0  0  0  0  0  0  0  0
   37.3320   26.0990   42.3490 C   0  0  0  0  0  0  0  0  0  0  0  0
   37.2070   25.8690   40.9970 C   0  0  0  0  0  0  0  0  0  0  0  0
   36.6010   26.8020   40.2060 N   0  0  0  0  0  0  0  0  0  0  0  0
   36.1080   27.9430   40.6600 C   0  0  0  0  0  0  0  0  0  0  0  0
   36.2150   28.1930   41.9690 N   0  0  0  0  0  0  0  0  0  0  0  0
   36.8630   27.5620   43.8480 H   0  0  0  0  0  0  0  0  0  0  0  0
   37.7990   25.3990   43.0090 H   0  0  0  0  0  0  0  0  0  0  0  0
   37.0910   23.4460   40.4750 C   0  0  0  0  0  3  0  0  0  0  0  0
   37.7090   24.6490   40.3740 C   0  0  0  0  0  0  0  0  0  0  0  0
   38.8730   24.6670   39.6340 C   0  0  0  0  0  0  0  0  0  0  0  0
   39.4130   25.6120   39.5200 H   0  0  0  0  0  0  0  0  0  0  0  0
   39.3790   23.5390   39.0310 C   0  0  0  0  0  0  0  0  0  0  0  0
   40.4710   23.2820   38.2680 N   0  0  0  0  0  0  0  0  0  0  0  0
   41.1770   24.0270   37.9970 H   0  0  0  0  0  0  0  0  0  0  0  0
   40.5180   22.0040   37.9210 N   0  0  0  0  0  0  0  0  0  0  0  0
   39.4560   21.3640   38.4450 C   0  0  0  0  0  0  0  0  0  0  0  0
   39.1860   20.3140   38.3590 H   0  0  0  0  0  0  0  0  0  0  0  0
   38.7230   22.3120   39.1480 C   0  0  0  0  0  0  0  0  0  0  0  0
   37.5540   22.2760   39.8890 C   0  0  0  0  0  3  0  0  0  0  0  0
  1 25  1  0  0  0  0
  2  1  2  0  0  0  0
  4  3  1  0  0  0  0
  5  4  1  0  0  0  0
  5  1  1  0  0  0  0
  6  5  2  0  0  0  0
  7  8  2  0  0  0  0
  7  6  1  0  0  0  0
  8  9  1  0  0  0  0
  9 13  1  0  0  0  0
  9  4  2  0  0  0  0
 10  6  1  0  0  0  0
 11  7  1  0  0  0  0
 12  8  1  0  0  0  0
 13 17  1  0  0  0  0
 13 14  2  0  0  0  0
 14 15  1  0  0  0  0
 15 19  1  0  0  0  0
 16 15  2  0  0  0  0
 16 20  1  0  0  0  0
 17 16  1  0  0  0  0
 18 14  1  0  0  0  0
 21 27  1  0  0  0  0
 22 21  1  0  0  0  0
 22 28  1  0  0  0  0
 23 22  2  0  0  0  0
 24 25  2  0  0  0  0
 24 23  1  0  0  0  0
 25 26  1  0  0  0  0
 26 21  2  0  0  0  0
 30 29  1  0  0  0  0
 30 23  1  0  0  0  0
 31 30  2  0  0  0  0
 32 31  1  0  0  0  0
 33 39  2  0  0  0  0
 33 31  1  0  0  0  0
 34 33  1  0  0  0  0
 35 34  1  0  0  0  0
 36 34  1  0  0  0  0
 36 37  2  0  0  0  0
 37 39  1  0  0  0  0
 38 37  1  0  0  0  0
 39 40  1  0  0  0  0
 40 29  2  0  0  0  0
M  END
>  <minimizedAffinity>
-6.67595434

$$$$

 OpenBabel03242513193D

 40 44  0  0  0  0  0  0  0  0999 V2000
   37.7200   31.0180   38.4200 C   0  0  0  0  0  0  0  0  0  0  0  0
   37.4870   30.8040   37.2100 O   0  0  0  0  0  0  0  0  0  0  0  0
   39.6550   29.3450   39.9300 Cl  0  0  0  0  0  0  0  0  0  0  0  0
   37.9030   29.3220   40.1620 C   0  0  0  0  0  0  0  0  0  0  0  0
   37.0950   30.1330   39.3970 C   0  0  0  0  0  0  0  0  0  0  0  0
   35.7500   30.0690   39.6050 C   0  0  0  0  0  0  0  0  0  0  0  0
   35.2180   29.2210   40.5500 C   0  0  0  0  0  0  0  0  0  0  0  0
   36.0290   28.4070   41.3170 C   0  0  0  0  0  0  0  0  0  0  0  0
   37.4050   28.4710   41.1060 C   0  0  0  0  0  0  0  0  0  0  0  0
   35.0880   30.6950   39.0180 H   0  0  0  0  0  0  0  0  0  0  0  0
   34.1470   29.1830   40.7010 H   0  0  0  0  0  0  0  0  0  0  0  0
   35.5670   27.7690   42.0340 H   0  0  0  0  0  0  0  0  0  0  0  0
   38.1680   27.5790   41.9720 C   0  0  0  0  0  0  0  0  0  0  0  0
   38.7390   27.8210   43.2110 C   0  0  0  0  0  0  0  0  0  0  0  0
   39.3840   26.7090   43.7070 C   0  0  0  0  0  0  0  0  0  0  0  0
   39.1710   25.7880   42.7020 C   0  0  0  0  0  0  0  0  0  0  0  0
   38.4770   26.3360   41.7450 O   0  0  0  0  0  0  0  0  0  0  0  0
   38.6670   28.8010   43.7120 H   0  0  0  0  0  0  0  0  0  0  0  0
   39.9150   26.6020   44.6430 H   0  0  0  0  0  0  0  0  0  0  0  0
   39.5310   24.7450   42.7050 H   0  0  0  0  0  0  0  0  0  0  0  0
   38.7920   34.0510   40.0940 C   0  0  0  0  0  0  0  0  0  0  0  0
   40.1440   34.2190   39.7660 C   0  0  0  0  0  0  0  0  0  0  0  0
   40.6570   33.2380   38.9470 C   0  0  0  0  0  0  0  0  0  0  0  0
   39.8520   32.2180   38.5280 N   0  0  0  0  0  0  0  0  0  0  0  0
   38.5780   32.1010   38.8640 C   0  0  0  0  0  0  0  0  0  0  0  0
   38.0520   33.0380   39.6590 N   0  0  0  0  0  0  0  0  0  0  0  0
   38.3240   34.7990   40.7440 H   0  0  0  0  0  0  0  0  0  0  0  0
   40.7340   35.0370   40.1200 H   0  0  0  0  0  0  0  0  0  0  0  0
   42.9750   34.1250   38.9770 C   0  0  0  0  0  3  0  0  0  0  0  0
   42.0480   33.2530   38.5060 C   0  0  0  0  0  0  0  0  0  0  0  0
   42.4930   32.3530   37.5600 C   0  0  0  0  0  0  0  0  0  0  0  0
   41.7870   31.6280   37.1470 H   0  0  0  0  0  0  0  0  0  0  0  0
   43.7960   32.3360   37.1180 C   0  0  0  0  0  0  0  0  0  0  0  0
   44.4810   31.5810   36.2230 N   0  0  0  0  0  0  0  0  0  0  0  0
   44.0370   30.7920   35.6690 H   0  0  0  0  0  0  0  0  0  0  0  0
   45.7480   31.9640   36.1500 N   0  0  0  0  0  0  0  0  0  0  0  0
   45.9490   32.9920   36.9970 C   0  0  0  0  0  0  0  0  0  0  0  0
   46.8660   33.5440   37.1880 H   0  0  0  0  0  0  0  0  0  0  0  0
   44.7320   33.2430   37.6180 C   0  0  0  0  0  0  0  0  0  0  0  0
   44.3010   34.1530   38.5680 C   0  0  0  0  0  3  0  0  0  0  0  0
  1 25  1  0  0  0  0
  1  5  1  0  0  0  0
  2  1  2  0  0  0  0
  3  4  1  0  0  0  0
  4  9  1  0  0  0  0
  5  6  1  0  0  0  0
  5  4  2  0  0  0  0
  6  7  2  0  0  0  0
  7 11  1  0  0  0  0
  7  8  1  0  0  0  0
  8 12  1  0  0  0  0
  9  8  2  0  0  0  0
  9 13  1  0  0  0  0
 10  6  1  0  0  0  0
 13 14  2  0  0  0  0
 14 15  1  0  0  0  0
 14 18  1  0  0  0  0
 15 19  1  0  0  0  0
 16 20  1  0  0  0  0
 16 15  2  0  0  0  0
 17 13  1  0  0  0  0
 17 16  1  0  0  0  0
 21 27  1  0  0  0  0
 22 21  1  0  0  0  0
 22 28  1  0  0  0  0
 23 22  2  0  0  0  0
 24 25  2  0  0  0  0
 24 23  1  0  0  0  0
 25 26  1  0  0  0  0
 26 21  2  0  0  0  0
 30 23  1  0  0  0  0
 30 29  2  0  0  0  0
 31 30  1  0  0  0  0
 32 31  1  0  0  0  0
 33 31  2  0  0  0  0
 33 39  1  0  0  0  0
 34 33  1  0  0  0  0
 35 34  1  0  0  0  0
 36 34  1  0  0  0  0
 36 37  2  0  0  0  0
 37 38  1  0  0  0  0
 37 39  1  0  0  0  0
 39 40  2  0  0  0  0
 40 29  1  0  0  0  0
M  END
>  <minimizedAffinity>
-6.64117956

$$$$
