
 OpenBabel03252506553D

 41 46  0  0  0  0  0  0  0  0999 V2000
   47.1510   31.3470   45.1800 C   0  0  0  0  0  0  0  0  0  0  0  0
   46.8240   32.6920   45.1860 C   0  0  0  0  0  0  0  0  0  0  0  0
   46.2490   33.3130   46.2680 C   0  0  0  0  0  0  0  0  0  0  0  0
   45.9700   32.5830   47.4230 C   0  0  0  0  0  0  0  0  0  0  0  0
   45.4250   32.8510   48.6410 N   0  0  0  0  0  0  0  0  0  0  0  0
   45.4160   31.7060   49.3660 C   0  0  0  0  0  0  0  0  0  0  0  0
   45.9570   30.7390   48.5840 N   0  0  0  0  0  0  0  0  0  0  0  0
   46.3040   31.2580   47.3860 C   0  0  0  0  0  0  0  0  0  0  0  0
   46.8810   30.6030   46.3230 C   0  0  0  0  0  0  0  0  0  0  0  0
   47.6050   30.8690   44.3200 H   0  0  0  0  0  0  0  0  0  0  0  0
   45.9840   34.3710   46.2890 H   0  0  0  0  0  0  0  0  0  0  0  0
   45.0950   33.8020   48.8930 H   0  0  0  0  0  0  0  0  0  0  0  0
   45.0380   31.6400   50.3640 H   0  0  0  0  0  0  0  0  0  0  0  0
   46.4760   35.1830   42.4940 C   0  0  0  0  0  0  0  0  0  0  0  0
   47.6440   34.9960   41.7640 C   0  0  0  0  0  0  0  0  0  0  0  0
   48.5480   34.0260   42.1860 C   0  0  0  0  0  0  0  0  0  0  0  0
   48.2470   33.2940   43.3060 N   0  0  0  0  0  0  0  0  0  0  0  0
   47.0970   33.4990   43.9990 C   0  0  0  0  0  0  0  0  0  0  0  0
   46.2280   34.4300   43.5950 N   0  0  0  0  0  0  0  0  0  0  0  0
   45.7860   35.9470   42.1420 H   0  0  0  0  0  0  0  0  0  0  0  0
   47.8910   35.5700   40.8760 H   0  0  0  0  0  0  0  0  0  0  0  0
   49.4850   33.8150   41.6730 H   0  0  0  0  0  0  0  0  0  0  0  0
   47.1960   29.1790   46.3950 C   0  0  0  0  0  0  0  0  0  0  0  0
   48.4760   28.6710   46.5190 C   0  0  0  0  0  0  0  0  0  0  0  0
   48.2840   27.2850   46.5480 C   0  0  0  0  0  0  0  0  0  0  0  0
   46.9340   27.0400   46.4410 C   0  0  0  0  0  0  0  0  0  0  0  0
   46.3260   28.2030   46.3510 O   0  0  0  0  0  0  0  0  0  0  0  0
   49.4220   29.1900   46.5830 H   0  0  0  0  0  0  0  0  0  0  0  0
   49.0420   26.5170   46.6360 H   0  0  0  0  0  0  0  0  0  0  0  0
   44.8800   25.7320   46.6120 C   0  0  0  0  0  3  0  0  0  0  0  0
   46.2560   25.7490   46.4240 C   0  0  0  0  0  0  0  0  0  0  0  0
   46.9650   24.5820   46.2260 C   0  0  0  0  0  0  0  0  0  0  0  0
   48.0350   24.5710   46.0780 H   0  0  0  0  0  0  0  0  0  0  0  0
   46.2690   23.3810   46.2200 C   0  0  0  0  0  0  0  0  0  0  0  0
   46.7390   22.1120   46.0470 N   0  0  0  0  0  0  0  0  0  0  0  0
   47.7240   21.8050   45.8850 H   0  0  0  0  0  0  0  0  0  0  0  0
   45.7070   21.2740   46.1180 N   0  0  0  0  0  0  0  0  0  0  0  0
   44.5740   21.9700   46.3330 C   0  0  0  0  0  0  0  0  0  0  0  0
   43.5410   21.6240   46.4460 H   0  0  0  0  0  0  0  0  0  0  0  0
   44.8870   23.3110   46.4040 C   0  0  0  0  0  0  0  0  0  0  0  0
   44.2390   24.5100   46.5960 C   0  0  0  0  0  3  0  0  0  0  0  0
  1  2  2  0  0  0  0
  1  9  1  0  0  0  0
  2  3  1  0  0  0  0
  3 11  1  0  0  0  0
  3  4  2  0  0  0  0
  4  5  1  0  0  0  0
  5 12  1  0  0  0  0
  5  6  1  0  0  0  0
  6 13  1  0  0  0  0
  7  6  2  0  0  0  0
  8  4  1  0  0  0  0
  8  7  1  0  0  0  0
  9 23  1  0  0  0  0
  9  8  2  0  0  0  0
 10  1  1  0  0  0  0
 14 19  1  0  0  0  0
 15 16  1  0  0  0  0
 15 14  2  0  0  0  0
 16 17  2  0  0  0  0
 17 18  1  0  0  0  0
 18  2  1  0  0  0  0
 19 18  2  0  0  0  0
 20 14  1  0  0  0  0
 21 15  1  0  0  0  0
 22 16  1  0  0  0  0
 23 24  2  0  0  0  0
 24 25  1  0  0  0  0
 24 28  1  0  0  0  0
 25 29  1  0  0  0  0
 26 25  2  0  0  0  0
 27 23  1  0  0  0  0
 27 26  1  0  0  0  0
 31 26  1  0  0  0  0
 31 30  2  0  0  0  0
 32 31  1  0  0  0  0
 33 32  1  0  0  0  0
 34 32  2  0  0  0  0
 34 40  1  0  0  0  0
 35 37  1  0  0  0  0
 35 34  1  0  0  0  0
 36 35  1  0  0  0  0
 37 38  2  0  0  0  0
 38 40  1  0  0  0  0
 38 39  1  0  0  0  0
 40 41  2  0  0  0  0
 41 30  1  0  0  0  0
M  END
>  <minimizedAffinity>
-5.7568965

>  <minimizedRMSD>
0.29722321

$$$$
