
 OpenBabel03242512133D

 44 48  0  0  1  0  0  0  0  0999 V2000
   43.8170   32.3880   39.4120 O   0  0  0  0  0  0  0  0  0  0  0  0
   43.5730   33.6920   40.1550 P   0  0  2  0  0  0  0  0  0  0  0  0
   44.9540   34.5820   40.3250 O   0  0  0  0  0  0  0  0  0  0  0  0
   45.2910   34.6620   41.2320 H   0  0  0  0  0  0  0  0  0  0  0  0
   42.7860   33.2950   41.5980 O   0  0  0  0  0  0  0  0  0  0  0  0
   41.1080   31.5020   41.8130 C   0  0  1  0  0  0  0  0  0  0  0  0
   42.2860   31.3450   42.8580 C   0  0  0  0  0  0  0  0  0  0  0  0
   42.5020   31.9410   41.5600 C   0  0  2  0  0  0  0  0  0  0  0  0
   40.3760   32.2530   42.0930 H   0  0  0  0  0  0  0  0  0  0  0  0
   42.1720   31.9710   43.7680 H   0  0  0  0  0  0  0  0  0  0  0  0
   42.5650   30.3060   43.1210 H   0  0  0  0  0  0  0  0  0  0  0  0
   42.9010   31.4490   40.6590 H   0  0  0  0  0  0  0  0  0  0  0  0
   40.6480   30.1760   41.3060 C   0  0  0  0  0  0  0  0  0  0  0  0
   41.2870   29.6710   40.3910 O   0  0  0  0  0  0  0  0  0  0  0  0
   38.7850   29.8180   42.8590 C   0  0  0  0  0  0  0  0  0  0  0  0
   39.5320   29.4560   41.8030 C   0  0  0  0  0  0  0  0  0  0  0  0
   39.1460   28.2410   41.1460 C   0  0  0  0  0  0  0  0  0  0  0  0
   38.0890   27.5190   41.5830 N   0  0  0  0  0  0  0  0  0  0  0  0
   37.3720   27.9370   42.6560 C   0  0  0  0  0  0  0  0  0  0  0  0
   37.7200   29.0570   43.2690 N   0  0  0  0  0  0  0  0  0  0  0  0
   39.0790   30.7410   43.3570 H   0  0  0  0  0  0  0  0  0  0  0  0
   39.6370   27.8230   40.2850 H   0  0  0  0  0  0  0  0  0  0  0  0
   36.5130   27.4460   43.0920 H   0  0  0  0  0  0  0  0  0  0  0  0
   42.4140   34.5200   39.1580 O   0  0  0  0  0  0  0  0  0  0  0  0
   41.0980   34.7060   39.5060 C   0  0  0  0  0  0  0  0  0  0  0  0
   40.4750   35.8490   39.9960 C   0  0  0  0  0  0  0  0  0  0  0  0
   39.1240   35.8320   40.2880 C   0  0  0  0  0  0  0  0  0  0  0  0
   38.4280   34.6880   40.0880 N   0  0  0  0  0  0  0  0  0  0  0  0
   39.0190   33.5810   39.6160 C   0  0  0  0  0  0  0  0  0  0  0  0
   40.3580   33.5660   39.3170 N   0  0  0  0  0  0  0  0  0  0  0  0
   41.1350   36.6820   40.1080 H   0  0  0  0  0  0  0  0  0  0  0  0
   38.6830   36.7440   40.6660 H   0  0  0  0  0  0  0  0  0  0  0  0
   38.3270   31.5600   38.3320 C   0  0  0  0  0  3  0  0  0  0  0  0
   38.1950   32.3880   39.4290 C   0  0  0  0  0  0  0  0  0  0  0  0
   37.2650   32.0960   40.3810 C   0  0  0  0  0  0  0  0  0  0  0  0
   37.1210   32.7160   41.2640 H   0  0  0  0  0  0  0  0  0  0  0  0
   36.4700   30.9570   40.2110 C   0  0  0  0  0  0  0  0  0  0  0  0
   35.4980   30.4880   41.0260 N   0  0  0  0  0  0  0  0  0  0  0  0
   35.1440   30.8690   41.9330 H   0  0  0  0  0  0  0  0  0  0  0  0
   35.0030   29.3840   40.4840 N   0  0  0  0  0  0  0  0  0  0  0  0
   35.6470   29.1370   39.3260 C   0  0  0  0  0  0  0  0  0  0  0  0
   35.4880   28.3210   38.6430 H   0  0  0  0  0  0  0  0  0  0  0  0
   36.5920   30.1210   39.1190 C   0  0  0  0  0  0  0  0  0  0  0  0
   37.5360   30.4310   38.1670 C   0  0  0  0  0  3  0  0  0  0  0  0
  2  1  2  6  0  0  0
  2  3  1  0  0  0  0
  2  5  1  0  0  0  0
  3  4  1  0  0  0  0
  6  9  1  1  0  0  0
  6  7  1  0  0  0  0
  7 11  1  0  0  0  0
  7 10  1  0  0  0  0
  8 12  1  6  0  0  0
  8  5  1  0  0  0  0
  8  6  1  0  0  0  0
  8  7  1  0  0  0  0
 13 16  1  0  0  0  0
 13  6  1  0  0  0  0
 14 13  2  0  0  0  0
 15 20  1  0  0  0  0
 15 21  1  0  0  0  0
 16 15  2  0  0  0  0
 17 18  2  0  0  0  0
 17 16  1  0  0  0  0
 18 19  1  0  0  0  0
 19 23  1  0  0  0  0
 19 20  2  0  0  0  0
 22 17  1  0  0  0  0
 24 25  1  0  0  0  0
 24  2  1  0  0  0  0
 25 26  1  0  0  0  0
 26 31  1  0  0  0  0
 26 27  2  0  0  0  0
 27 32  1  0  0  0  0
 28 27  1  0  0  0  0
 29 28  2  0  0  0  0
 30 25  2  0  0  0  0
 30 29  1  0  0  0  0
 33 34  1  0  0  0  0
 34 29  1  0  0  0  0
 34 35  2  0  0  0  0
 35 36  1  0  0  0  0
 37 35  1  0  0  0  0
 37 38  1  0  0  0  0
 38 39  1  0  0  0  0
 40 38  1  0  0  0  0
 41 40  2  0  0  0  0
 42 41  1  0  0  0  0
 43 41  1  0  0  0  0
 43 37  2  0  0  0  0
 44 33  2  0  0  0  0
 44 43  1  0  0  0  0
M  END
>  <minimizedAffinity>
-6.67314053

$$$$

 OpenBabel03242512133D

 44 48  0  0  1  0  0  0  0  0999 V2000
   38.3410   34.2730   39.9560 O   0  0  0  0  0  0  0  0  0  0  0  0
   38.6260   32.8210   40.3080 P   0  0  2  0  0  0  0  0  0  0  0  0
   39.6140   32.6790   41.6240 O   0  0  0  0  0  0  0  0  0  0  0  0
   40.5020   32.3290   41.4440 H   0  0  0  0  0  0  0  0  0  0  0  0
   39.1860   32.0740   38.8980 O   0  0  0  0  0  0  0  0  0  0  0  0
   41.1370   33.3360   38.0770 C   0  0  1  0  0  0  0  0  0  0  0  0
   41.1700   31.8230   37.6170 C   0  0  0  0  0  0  0  0  0  0  0  0
   40.5620   32.2200   38.8660 C   0  0  2  0  0  0  0  0  0  0  0  0
   40.4620   33.9540   37.4920 H   0  0  0  0  0  0  0  0  0  0  0  0
   40.5540   31.6080   36.7180 H   0  0  0  0  0  0  0  0  0  0  0  0
   42.1740   31.3630   37.5310 H   0  0  0  0  0  0  0  0  0  0  0  0
   41.0150   32.1850   39.8680 H   0  0  0  0  0  0  0  0  0  0  0  0
   42.5060   33.8380   38.3980 C   0  0  0  0  0  0  0  0  0  0  0  0
   43.2240   34.1530   37.4580 O   0  0  0  0  0  0  0  0  0  0  0  0
   44.1740   33.4140   40.1450 C   0  0  0  0  0  0  0  0  0  0  0  0
   43.0360   33.9780   39.7060 C   0  0  0  0  0  0  0  0  0  0  0  0
   42.3220   34.7790   40.6590 C   0  0  0  0  0  0  0  0  0  0  0  0
   42.7870   34.9420   41.9180 N   0  0  0  0  0  0  0  0  0  0  0  0
   43.9450   34.3470   42.3020 C   0  0  0  0  0  0  0  0  0  0  0  0
   44.6110   33.6060   41.4310 N   0  0  0  0  0  0  0  0  0  0  0  0
   44.7150   32.8070   39.4200 H   0  0  0  0  0  0  0  0  0  0  0  0
   41.4030   35.3000   40.4590 H   0  0  0  0  0  0  0  0  0  0  0  0
   44.4110   34.4060   43.2760 H   0  0  0  0  0  0  0  0  0  0  0  0
   37.0500   32.1640   40.6360 O   0  0  0  0  0  0  0  0  0  0  0  0
   36.8100   30.8330   40.8820 C   0  0  0  0  0  0  0  0  0  0  0  0
   35.7030   30.0650   40.5390 C   0  0  0  0  0  0  0  0  0  0  0  0
   35.6540   28.7260   40.8810 C   0  0  0  0  0  0  0  0  0  0  0  0
   36.6990   28.1860   41.5530 N   0  0  0  0  0  0  0  0  0  0  0  0
   37.7710   28.9200   41.8890 C   0  0  0  0  0  0  0  0  0  0  0  0
   37.8490   30.2500   41.5630 N   0  0  0  0  0  0  0  0  0  0  0  0
   34.9500   30.6100   40.0130 H   0  0  0  0  0  0  0  0  0  0  0  0
   34.7740   28.1680   40.5930 H   0  0  0  0  0  0  0  0  0  0  0  0
   38.6660   27.0980   43.3350 C   0  0  0  0  0  3  0  0  0  0  0  0
   38.8550   28.2590   42.6120 C   0  0  0  0  0  0  0  0  0  0  0  0
   40.0950   28.8230   42.5640 C   0  0  0  0  0  0  0  0  0  0  0  0
   40.2970   29.7380   42.0090 H   0  0  0  0  0  0  0  0  0  0  0  0
   41.1400   28.1990   43.2530 C   0  0  0  0  0  0  0  0  0  0  0  0
   42.4340   28.5860   43.3370 N   0  0  0  0  0  0  0  0  0  0  0  0
   42.9130   29.4130   42.9130 H   0  0  0  0  0  0  0  0  0  0  0  0
   43.0790   27.7070   44.0910 N   0  0  0  0  0  0  0  0  0  0  0  0
   42.2120   26.7560   44.4950 C   0  0  0  0  0  0  0  0  0  0  0  0
   42.4130   25.9000   45.1160 H   0  0  0  0  0  0  0  0  0  0  0  0
   40.9640   27.0380   43.9790 C   0  0  0  0  0  0  0  0  0  0  0  0
   39.7060   26.4820   44.0180 C   0  0  0  0  0  3  0  0  0  0  0  0
  2  1  2  6  0  0  0
  2 24  1  0  0  0  0
  2  3  1  0  0  0  0
  4  3  1  0  0  0  0
  5  2  1  0  0  0  0
  6  9  1  6  0  0  0
  6 13  1  0  0  0  0
  6  8  1  0  0  0  0
  7  6  1  0  0  0  0
  7  8  1  0  0  0  0
  8  5  1  0  0  0  0
  8 12  1  1  0  0  0
 10  7  1  0  0  0  0
 11  7  1  0  0  0  0
 13 16  1  0  0  0  0
 14 13  2  0  0  0  0
 15 20  1  0  0  0  0
 16 15  2  0  0  0  0
 16 17  1  0  0  0  0
 17 18  2  0  0  0  0
 18 19  1  0  0  0  0
 19 23  1  0  0  0  0
 20 19  2  0  0  0  0
 21 15  1  0  0  0  0
 22 17  1  0  0  0  0
 24 25  1  0  0  0  0
 25 30  1  0  0  0  0
 26 27  1  0  0  0  0
 26 25  2  0  0  0  0
 27 28  2  0  0  0  0
 28 29  1  0  0  0  0
 29 34  1  0  0  0  0
 30 29  2  0  0  0  0
 31 26  1  0  0  0  0
 32 27  1  0  0  0  0
 33 44  1  0  0  0  0
 34 33  2  0  0  0  0
 35 34  1  0  0  0  0
 35 37  2  0  0  0  0
 36 35  1  0  0  0  0
 37 38  1  0  0  0  0
 37 43  1  0  0  0  0
 38 40  1  0  0  0  0
 39 38  1  0  0  0  0
 40 41  2  0  0  0  0
 41 42  1  0  0  0  0
 43 44  2  0  0  0  0
 43 41  1  0  0  0  0
M  END
>  <minimizedAffinity>
-6.55238867

$$$$

 OpenBabel03242512133D

 44 48  0  0  1  0  0  0  0  0999 V2000
   41.3790   32.4390   37.2850 O   0  0  0  0  0  0  0  0  0  0  0  0
   42.6080   33.2680   37.6250 P   0  0  2  0  0  0  0  0  0  0  0  0
   42.8550   34.4910   36.5430 O   0  0  0  0  0  0  0  0  0  0  0  0
   43.6410   34.3990   35.9810 H   0  0  0  0  0  0  0  0  0  0  0  0
   43.8950   32.1870   37.8030 O   0  0  0  0  0  0  0  0  0  0  0  0
   45.3820   31.7470   39.7200 C   0  0  1  0  0  0  0  0  0  0  0  0
   44.3990   30.5390   39.4380 C   0  0  0  0  0  0  0  0  0  0  0  0
   44.0210   31.9040   39.1530 C   0  0  2  0  0  0  0  0  0  0  0  0
   46.2290   31.7860   39.0420 H   0  0  0  0  0  0  0  0  0  0  0  0
   44.7400   29.8540   38.6330 H   0  0  0  0  0  0  0  0  0  0  0  0
   44.0610   29.9720   40.3280 H   0  0  0  0  0  0  0  0  0  0  0  0
   43.4160   32.5740   39.7830 H   0  0  0  0  0  0  0  0  0  0  0  0
   45.5980   31.9440   41.1830 C   0  0  0  0  0  0  0  0  0  0  0  0
   45.9390   30.9660   41.8380 O   0  0  0  0  0  0  0  0  0  0  0  0
   45.1060   33.2990   43.1670 C   0  0  0  0  0  0  0  0  0  0  0  0
   45.4410   33.1740   41.8720 C   0  0  0  0  0  0  0  0  0  0  0  0
   45.6500   34.3990   41.1550 C   0  0  0  0  0  0  0  0  0  0  0  0
   45.5120   35.5970   41.7670 N   0  0  0  0  0  0  0  0  0  0  0  0
   45.1720   35.6580   43.0790 C   0  0  0  0  0  0  0  0  0  0  0  0
   44.9770   34.5340   43.7500 N   0  0  0  0  0  0  0  0  0  0  0  0
   44.9480   32.3680   43.7100 H   0  0  0  0  0  0  0  0  0  0  0  0
   45.9300   34.4650   40.1180 H   0  0  0  0  0  0  0  0  0  0  0  0
   45.0340   36.5530   43.6710 H   0  0  0  0  0  0  0  0  0  0  0  0
   42.2510   33.8950   39.2080 O   0  0  0  0  0  0  0  0  0  0  0  0
   40.9780   34.1390   39.6660 C   0  0  0  0  0  0  0  0  0  0  0  0
   40.2960   35.3470   39.7530 C   0  0  0  0  0  0  0  0  0  0  0  0
   39.0050   35.3820   40.2480 C   0  0  0  0  0  0  0  0  0  0  0  0
   38.4270   34.2220   40.6430 N   0  0  0  0  0  0  0  0  0  0  0  0
   39.0780   33.0520   40.5630 C   0  0  0  0  0  0  0  0  0  0  0  0
   40.3590   32.9850   40.0770 N   0  0  0  0  0  0  0  0  0  0  0  0
   40.8630   36.1850   39.4100 H   0  0  0  0  0  0  0  0  0  0  0  0
   38.5140   36.3440   40.2960 H   0  0  0  0  0  0  0  0  0  0  0  0
   37.0530   31.6070   40.7190 C   0  0  0  0  0  3  0  0  0  0  0  0
   38.3810   31.8470   41.0100 C   0  0  0  0  0  0  0  0  0  0  0  0
   39.0820   30.9360   41.7420 C   0  0  0  0  0  0  0  0  0  0  0  0
   40.1300   31.0780   42.0000 H   0  0  0  0  0  0  0  0  0  0  0  0
   38.4240   29.7790   42.1750 C   0  0  0  0  0  0  0  0  0  0  0  0
   38.9260   28.7570   42.9050 N   0  0  0  0  0  0  0  0  0  0  0  0
   39.8880   28.6200   43.2900 H   0  0  0  0  0  0  0  0  0  0  0  0
   37.9590   27.8690   43.0900 N   0  0  0  0  0  0  0  0  0  0  0  0
   36.8370   28.3100   42.4850 C   0  0  0  0  0  0  0  0  0  0  0  0
   35.8760   27.8280   42.4450 H   0  0  0  0  0  0  0  0  0  0  0  0
   37.0970   29.5270   41.8910 C   0  0  0  0  0  0  0  0  0  0  0  0
   36.4040   30.4580   41.1500 C   0  0  0  0  0  3  0  0  0  0  0  0
  2  1  2  6  0  0  0
  2  5  1  0  0  0  0
  2 24  1  0  0  0  0
  3  2  1  0  0  0  0
  4  3  1  0  0  0  0
  5  8  1  0  0  0  0
  6  9  1  6  0  0  0
  6 13  1  0  0  0  0
  7  6  1  0  0  0  0
  7 11  1  0  0  0  0
  8  7  1  0  0  0  0
  8  6  1  0  0  0  0
  8 12  1  1  0  0  0
 10  7  1  0  0  0  0
 13 14  2  0  0  0  0
 13 16  1  0  0  0  0
 15 21  1  0  0  0  0
 15 20  1  0  0  0  0
 16 15  2  0  0  0  0
 17 18  2  0  0  0  0
 17 16  1  0  0  0  0
 18 19  1  0  0  0  0
 19 23  1  0  0  0  0
 19 20  2  0  0  0  0
 22 17  1  0  0  0  0
 24 25  1  0  0  0  0
 25 26  2  0  0  0  0
 25 30  1  0  0  0  0
 26 27  1  0  0  0  0
 27 32  1  0  0  0  0
 27 28  2  0  0  0  0
 29 28  1  0  0  0  0
 29 34  1  0  0  0  0
 30 29  2  0  0  0  0
 31 26  1  0  0  0  0
 33 34  2  0  0  0  0
 33 44  1  0  0  0  0
 34 35  1  0  0  0  0
 35 36  1  0  0  0  0
 35 37  2  0  0  0  0
 37 38  1  0  0  0  0
 38 40  1  0  0  0  0
 38 39  1  0  0  0  0
 41 40  2  0  0  0  0
 42 41  1  0  0  0  0
 43 37  1  0  0  0  0
 43 41  1  0  0  0  0
 44 43  2  0  0  0  0
M  END
>  <minimizedAffinity>
-6.48803139

$$$$

 OpenBabel03242512133D

 44 48  0  0  1  0  0  0  0  0999 V2000
   41.3750   25.8830   41.3690 O   0  0  0  0  0  0  0  0  0  0  0  0
   41.2280   25.3290   42.7780 P   0  0  2  0  0  0  0  0  0  0  0  0
   42.6220   24.6310   43.3230 O   0  0  0  0  0  0  0  0  0  0  0  0
   42.5900   23.6670   43.4360 H   0  0  0  0  0  0  0  0  0  0  0  0
   39.8690   24.3230   42.7700 O   0  0  0  0  0  0  0  0  0  0  0  0
   37.7360   24.6320   41.5720 C   0  0  1  0  0  0  0  0  0  0  0  0
   38.5160   23.3460   41.0800 C   0  0  0  0  0  0  0  0  0  0  0  0
   39.2150   24.5130   41.5650 C   0  0  2  0  0  0  0  0  0  0  0  0
   37.2140   24.4900   42.5140 H   0  0  0  0  0  0  0  0  0  0  0  0
   38.3700   22.4520   41.7230 H   0  0  0  0  0  0  0  0  0  0  0  0
   38.3990   23.0890   40.0090 H   0  0  0  0  0  0  0  0  0  0  0  0
   39.6620   25.3200   40.9630 H   0  0  0  0  0  0  0  0  0  0  0  0
   37.0460   25.3170   40.4410 C   0  0  0  0  0  0  0  0  0  0  0  0
   36.1540   24.7000   39.8700 O   0  0  0  0  0  0  0  0  0  0  0  0
   38.5580   27.0620   39.6160 C   0  0  0  0  0  0  0  0  0  0  0  0
   37.3410   26.6250   39.9780 C   0  0  0  0  0  0  0  0  0  0  0  0
   36.2740   27.5790   39.8790 C   0  0  0  0  0  0  0  0  0  0  0  0
   36.5060   28.8390   39.4430 N   0  0  0  0  0  0  0  0  0  0  0  0
   37.7590   29.2200   39.0910 C   0  0  0  0  0  0  0  0  0  0  0  0
   38.7490   28.3480   39.1790 N   0  0  0  0  0  0  0  0  0  0  0  0
   39.3670   26.3360   39.6920 H   0  0  0  0  0  0  0  0  0  0  0  0
   35.2460   27.3810   40.1220 H   0  0  0  0  0  0  0  0  0  0  0  0
   38.0610   30.1940   38.7310 H   0  0  0  0  0  0  0  0  0  0  0  0
   40.8160   26.7270   43.7250 O   0  0  0  0  0  0  0  0  0  0  0  0
   39.7580   27.5590   43.4430 C   0  0  0  0  0  0  0  0  0  0  0  0
   38.4040   27.3710   43.6950 C   0  0  0  0  0  0  0  0  0  0  0  0
   37.4880   28.3400   43.3310 C   0  0  0  0  0  0  0  0  0  0  0  0
   37.9360   29.4670   42.7290 N   0  0  0  0  0  0  0  0  0  0  0  0
   39.2410   29.6580   42.4810 C   0  0  0  0  0  0  0  0  0  0  0  0
   40.1740   28.7150   42.8310 N   0  0  0  0  0  0  0  0  0  0  0  0
   38.1830   26.4410   44.1740 H   0  0  0  0  0  0  0  0  0  0  0  0
   36.4460   28.1500   43.5480 H   0  0  0  0  0  0  0  0  0  0  0  0
   40.9470   31.1660   41.4670 C   0  0  0  0  0  3  0  0  0  0  0  0
   39.6400   30.9030   41.8280 C   0  0  0  0  0  0  0  0  0  0  0  0
   38.6760   31.8310   41.5720 C   0  0  0  0  0  0  0  0  0  0  0  0
   37.6310   31.6740   41.8370 H   0  0  0  0  0  0  0  0  0  0  0  0
   39.0470   33.0270   40.9480 C   0  0  0  0  0  0  0  0  0  0  0  0
   38.2580   34.0710   40.6060 N   0  0  0  0  0  0  0  0  0  0  0  0
   37.2280   34.2010   40.7340 H   0  0  0  0  0  0  0  0  0  0  0  0
   39.0200   34.9940   40.0370 N   0  0  0  0  0  0  0  0  0  0  0  0
   40.2950   34.5550   40.0090 C   0  0  0  0  0  0  0  0  0  0  0  0
   41.1590   35.0610   39.6150 H   0  0  0  0  0  0  0  0  0  0  0  0
   40.3500   33.3010   40.5820 C   0  0  0  0  0  0  0  0  0  0  0  0
   41.3120   32.3530   40.8480 C   0  0  0  0  0  3  0  0  0  0  0  0
  2  1  2  6  0  0  0
  2  3  1  0  0  0  0
  2 24  1  0  0  0  0
  3  4  1  0  0  0  0
  5  2  1  0  0  0  0
  6  9  1  1  0  0  0
  7  8  1  0  0  0  0
  7  6  1  0  0  0  0
  7 10  1  0  0  0  0
  8 12  1  6  0  0  0
  8  6  1  0  0  0  0
  8  5  1  0  0  0  0
 11  7  1  0  0  0  0
 13  6  1  0  0  0  0
 14 13  2  0  0  0  0
 15 21  1  0  0  0  0
 15 16  1  0  0  0  0
 16 13  1  0  0  0  0
 17 16  2  0  0  0  0
 17 22  1  0  0  0  0
 18 17  1  0  0  0  0
 19 20  1  0  0  0  0
 19 18  2  0  0  0  0
 20 15  2  0  0  0  0
 23 19  1  0  0  0  0
 25 26  1  0  0  0  0
 25 24  1  0  0  0  0
 26 31  1  0  0  0  0
 27 32  1  0  0  0  0
 27 26  2  0  0  0  0
 28 27  1  0  0  0  0
 29 28  2  0  0  0  0
 29 30  1  0  0  0  0
 30 25  2  0  0  0  0
 33 34  1  0  0  0  0
 34 29  1  0  0  0  0
 35 34  2  0  0  0  0
 35 36  1  0  0  0  0
 37 35  1  0  0  0  0
 38 39  1  0  0  0  0
 38 37  1  0  0  0  0
 40 38  1  0  0  0  0
 41 40  2  0  0  0  0
 41 43  1  0  0  0  0
 42 41  1  0  0  0  0
 43 44  1  0  0  0  0
 43 37  2  0  0  0  0
 44 33  2  0  0  0  0
M  END
>  <minimizedAffinity>
-6.41354465

$$$$

 OpenBabel03242512133D

 44 48  0  0  1  0  0  0  0  0999 V2000
   35.2150   28.7410   40.0630 O   0  0  0  0  0  0  0  0  0  0  0  0
   36.2400   29.5210   40.8700 P   0  0  2  0  0  0  0  0  0  0  0  0
   35.6530   30.9750   41.3880 O   0  0  0  0  0  0  0  0  0  0  0  0
   36.0570   31.7590   40.9810 H   0  0  0  0  0  0  0  0  0  0  0  0
   37.6450   29.6000   39.9330 O   0  0  0  0  0  0  0  0  0  0  0  0
   39.4390   31.2110   39.4170 C   0  0  1  0  0  0  0  0  0  0  0  0
   39.6110   30.5670   40.8520 C   0  0  0  0  0  0  0  0  0  0  0  0
   38.3060   30.7700   40.2670 C   0  0  2  0  0  0  0  0  0  0  0  0
   39.7570   30.5610   38.6080 H   0  0  0  0  0  0  0  0  0  0  0  0
   40.0960   29.5680   40.8470 H   0  0  0  0  0  0  0  0  0  0  0  0
   40.0550   31.2220   41.6280 H   0  0  0  0  0  0  0  0  0  0  0  0
   37.6160   31.6080   40.4510 H   0  0  0  0  0  0  0  0  0  0  0  0
   39.8420   32.6480   39.4130 C   0  0  0  0  0  0  0  0  0  0  0  0
   38.9840   33.4730   39.7020 O   0  0  0  0  0  0  0  0  0  0  0  0
   42.0820   33.4520   40.0020 C   0  0  0  0  0  0  0  0  0  0  0  0
   41.1390   33.1290   39.1010 C   0  0  0  0  0  0  0  0  0  0  0  0
   41.5020   33.2950   37.7230 C   0  0  0  0  0  0  0  0  0  0  0  0
   42.7270   33.7510   37.3760 N   0  0  0  0  0  0  0  0  0  0  0  0
   43.6370   34.0600   38.3330 C   0  0  0  0  0  0  0  0  0  0  0  0
   43.3130   33.9100   39.6070 N   0  0  0  0  0  0  0  0  0  0  0  0
   41.8050   33.3250   41.0480 H   0  0  0  0  0  0  0  0  0  0  0  0
   40.8630   33.0720   36.8870 H   0  0  0  0  0  0  0  0  0  0  0  0
   44.6420   34.4300   38.1750 H   0  0  0  0  0  0  0  0  0  0  0  0
   36.5860   28.4720   42.2130 O   0  0  0  0  0  0  0  0  0  0  0  0
   37.3330   27.3220   42.1130 C   0  0  0  0  0  0  0  0  0  0  0  0
   36.9540   26.0690   41.6430 C   0  0  0  0  0  0  0  0  0  0  0  0
   37.8650   25.0300   41.6240 C   0  0  0  0  0  0  0  0  0  0  0  0
   39.1240   25.2580   42.0690 N   0  0  0  0  0  0  0  0  0  0  0  0
   39.4990   26.4620   42.5250 C   0  0  0  0  0  0  0  0  0  0  0  0
   38.6170   27.5130   42.5570 N   0  0  0  0  0  0  0  0  0  0  0  0
   35.9360   26.0230   41.3220 H   0  0  0  0  0  0  0  0  0  0  0  0
   37.5260   24.0740   41.2490 H   0  0  0  0  0  0  0  0  0  0  0  0
   41.3910   27.8440   43.3760 C   0  0  0  0  0  3  0  0  0  0  0  0
   40.8760   26.6230   42.9870 C   0  0  0  0  0  0  0  0  0  0  0  0
   41.6710   25.5180   43.0290 C   0  0  0  0  0  0  0  0  0  0  0  0
   41.3150   24.5320   42.7330 H   0  0  0  0  0  0  0  0  0  0  0  0
   42.9920   25.6610   43.4690 C   0  0  0  0  0  0  0  0  0  0  0  0
   43.9410   24.7040   43.5880 N   0  0  0  0  0  0  0  0  0  0  0  0
   43.8890   23.6800   43.3800 H   0  0  0  0  0  0  0  0  0  0  0  0
   45.0480   25.2760   44.0410 N   0  0  0  0  0  0  0  0  0  0  0  0
   44.8210   26.5930   44.2160 C   0  0  0  0  0  0  0  0  0  0  0  0
   45.5090   27.3400   44.5710 H   0  0  0  0  0  0  0  0  0  0  0  0
   43.5180   26.8750   43.8610 C   0  0  0  0  0  0  0  0  0  0  0  0
   42.7010   27.9820   43.8120 C   0  0  0  0  0  3  0  0  0  0  0  0
  2  1  2  6  0  0  0
  2  3  1  0  0  0  0
  2 24  1  0  0  0  0
  4  3  1  0  0  0  0
  5  8  1  0  0  0  0
  5  2  1  0  0  0  0
  6  9  1  6  0  0  0
  6  8  1  0  0  0  0
  6  7  1  0  0  0  0
  7 11  1  0  0  0  0
  8 12  1  1  0  0  0
  8  7  1  0  0  0  0
 10  7  1  0  0  0  0
 13  6  1  0  0  0  0
 13 14  2  0  0  0  0
 15 21  1  0  0  0  0
 16 13  1  0  0  0  0
 16 15  2  0  0  0  0
 17 16  1  0  0  0  0
 18 17  2  0  0  0  0
 18 19  1  0  0  0  0
 19 20  2  0  0  0  0
 20 15  1  0  0  0  0
 22 17  1  0  0  0  0
 23 19  1  0  0  0  0
 25 24  1  0  0  0  0
 25 30  1  0  0  0  0
 26 25  2  0  0  0  0
 27 26  1  0  0  0  0
 27 28  2  0  0  0  0
 28 29  1  0  0  0  0
 29 30  2  0  0  0  0
 29 34  1  0  0  0  0
 31 26  1  0  0  0  0
 32 27  1  0  0  0  0
 33 44  1  0  0  0  0
 34 35  1  0  0  0  0
 34 33  2  0  0  0  0
 35 37  2  0  0  0  0
 36 35  1  0  0  0  0
 37 38  1  0  0  0  0
 37 43  1  0  0  0  0
 38 40  1  0  0  0  0
 39 38  1  0  0  0  0
 40 41  2  0  0  0  0
 41 42  1  0  0  0  0
 43 41  1  0  0  0  0
 44 43  2  0  0  0  0
M  END
>  <minimizedAffinity>
-6.40972805

$$$$

 OpenBabel03242512133D

 44 48  0  0  1  0  0  0  0  0999 V2000
   37.5730   30.4300   39.7790 O   0  0  0  0  0  0  0  0  0  0  0  0
   36.8130   30.0280   41.0330 P   0  0  2  0  0  0  0  0  0  0  0  0
   35.5430   31.0370   41.3430 O   0  0  0  0  0  0  0  0  0  0  0  0
   35.6340   31.5940   42.1330 H   0  0  0  0  0  0  0  0  0  0  0  0
   37.9520   29.8940   42.2760 O   0  0  0  0  0  0  0  0  0  0  0  0
   38.8420   27.8440   43.3130 C   0  0  1  0  0  0  0  0  0  0  0  0
   39.9700   28.6830   42.5890 C   0  0  0  0  0  0  0  0  0  0  0  0
   38.6060   28.6850   42.1150 C   0  0  2  0  0  0  0  0  0  0  0  0
   38.5600   28.2400   44.2840 H   0  0  0  0  0  0  0  0  0  0  0  0
   40.3720   29.5230   43.1950 H   0  0  0  0  0  0  0  0  0  0  0  0
   40.7900   28.0980   42.1270 H   0  0  0  0  0  0  0  0  0  0  0  0
   38.1830   28.0800   41.2980 H   0  0  0  0  0  0  0  0  0  0  0  0
   39.0650   26.3770   43.1520 C   0  0  0  0  0  0  0  0  0  0  0  0
   39.8350   25.8360   43.9370 O   0  0  0  0  0  0  0  0  0  0  0  0
   37.1580   25.2180   42.1370 C   0  0  0  0  0  0  0  0  0  0  0  0
   38.4560   25.5640   42.1630 C   0  0  0  0  0  0  0  0  0  0  0  0
   39.2640   25.0560   41.0920 C   0  0  0  0  0  0  0  0  0  0  0  0
   38.7290   24.2760   40.1250 N   0  0  0  0  0  0  0  0  0  0  0  0
   37.4090   23.9610   40.1540 C   0  0  0  0  0  0  0  0  0  0  0  0
   36.6550   24.4250   41.1370 N   0  0  0  0  0  0  0  0  0  0  0  0
   36.5450   25.6050   42.9500 H   0  0  0  0  0  0  0  0  0  0  0  0
   40.3150   25.2500   40.9680 H   0  0  0  0  0  0  0  0  0  0  0  0
   36.8740   23.3510   39.4390 H   0  0  0  0  0  0  0  0  0  0  0  0
   36.2620   28.4180   40.6770 O   0  0  0  0  0  0  0  0  0  0  0  0
   35.7520   28.0340   39.4590 C   0  0  0  0  0  0  0  0  0  0  0  0
   36.2170   27.0590   38.5830 C   0  0  0  0  0  0  0  0  0  0  0  0
   35.5540   26.8210   37.3940 C   0  0  0  0  0  0  0  0  0  0  0  0
   34.4510   27.5520   37.1050 N   0  0  0  0  0  0  0  0  0  0  0  0
   33.9950   28.4940   37.9430 C   0  0  0  0  0  0  0  0  0  0  0  0
   34.6310   28.7540   39.1310 N   0  0  0  0  0  0  0  0  0  0  0  0
   37.0940   26.5560   38.9300 H   0  0  0  0  0  0  0  0  0  0  0  0
   35.9520   26.0530   36.7450 H   0  0  0  0  0  0  0  0  0  0  0  0
   32.5500   29.6170   36.2510 C   0  0  0  0  0  3  0  0  0  0  0  0
   32.7980   29.2370   37.5550 C   0  0  0  0  0  0  0  0  0  0  0  0
   31.9010   29.5620   38.5280 C   0  0  0  0  0  0  0  0  0  0  0  0
   32.0490   29.2880   39.5720 H   0  0  0  0  0  0  0  0  0  0  0  0
   30.7520   30.2740   38.1680 C   0  0  0  0  0  0  0  0  0  0  0  0
   29.7440   30.6930   38.9670 N   0  0  0  0  0  0  0  0  0  0  0  0
   29.6150   30.5760   39.9980 H   0  0  0  0  0  0  0  0  0  0  0  0
   28.8580   31.3290   38.2130 N   0  0  0  0  0  0  0  0  0  0  0  0
   29.2860   31.3250   36.9340 C   0  0  0  0  0  0  0  0  0  0  0  0
   28.8020   31.7540   36.0750 H   0  0  0  0  0  0  0  0  0  0  0  0
   30.4920   30.6590   36.8680 C   0  0  0  0  0  0  0  0  0  0  0  0
   31.4090   30.3230   35.8970 C   0  0  0  0  0  3  0  0  0  0  0  0
  2  1  2  6  0  0  0
  2  3  1  0  0  0  0
  2  5  1  0  0  0  0
  3  4  1  0  0  0  0
  6  9  1  1  0  0  0
  7 10  1  0  0  0  0
  7  6  1  0  0  0  0
  8 12  1  6  0  0  0
  8  5  1  0  0  0  0
  8  7  1  0  0  0  0
  8  6  1  0  0  0  0
 11  7  1  0  0  0  0
 13  6  1  0  0  0  0
 13 14  2  0  0  0  0
 15 16  1  0  0  0  0
 15 21  1  0  0  0  0
 16 13  1  0  0  0  0
 17 16  2  0  0  0  0
 18 19  2  0  0  0  0
 18 17  1  0  0  0  0
 19 20  1  0  0  0  0
 20 15  2  0  0  0  0
 22 17  1  0  0  0  0
 23 19  1  0  0  0  0
 24  2  1  0  0  0  0
 25 24  1  0  0  0  0
 26 31  1  0  0  0  0
 26 25  2  0  0  0  0
 27 26  1  0  0  0  0
 28 27  2  0  0  0  0
 28 29  1  0  0  0  0
 29 30  2  0  0  0  0
 30 25  1  0  0  0  0
 32 27  1  0  0  0  0
 33 34  1  0  0  0  0
 34 29  1  0  0  0  0
 34 35  2  0  0  0  0
 35 36  1  0  0  0  0
 37 35  1  0  0  0  0
 37 38  1  0  0  0  0
 38 39  1  0  0  0  0
 40 38  1  0  0  0  0
 41 40  2  0  0  0  0
 42 41  1  0  0  0  0
 43 41  1  0  0  0  0
 43 37  2  0  0  0  0
 44 33  2  0  0  0  0
 44 43  1  0  0  0  0
M  END
>  <minimizedAffinity>
-6.38384724

$$$$

 OpenBabel03242512133D

 44 48  0  0  1  0  0  0  0  0999 V2000
   36.7550   30.1270   38.9110 O   0  0  0  0  0  0  0  0  0  0  0  0
   36.6680   30.3570   40.4120 P   0  0  2  0  0  0  0  0  0  0  0  0
   35.4020   29.5460   41.0950 O   0  0  0  0  0  0  0  0  0  0  0  0
   34.6820   30.1030   41.4330 H   0  0  0  0  0  0  0  0  0  0  0  0
   36.6720   32.0300   40.6530 O   0  0  0  0  0  0  0  0  0  0  0  0
   38.6290   33.5100   40.4130 C   0  0  1  0  0  0  0  0  0  0  0  0
   37.4260   33.9570   39.4870 C   0  0  0  0  0  0  0  0  0  0  0  0
   37.6430   32.5700   39.8270 C   0  0  2  0  0  0  0  0  0  0  0  0
   38.5070   33.8000   41.4520 H   0  0  0  0  0  0  0  0  0  0  0  0
   36.6540   34.5640   40.0050 H   0  0  0  0  0  0  0  0  0  0  0  0
   37.7050   34.4110   38.5150 H   0  0  0  0  0  0  0  0  0  0  0  0
   38.1540   31.8060   39.2200 H   0  0  0  0  0  0  0  0  0  0  0  0
   39.9430   33.7160   39.7380 C   0  0  0  0  0  0  0  0  0  0  0  0
   40.4420   34.8320   39.8070 O   0  0  0  0  0  0  0  0  0  0  0  0
   40.8430   32.7050   37.6930 C   0  0  0  0  0  0  0  0  0  0  0  0
   40.6570   32.7200   39.0240 C   0  0  0  0  0  0  0  0  0  0  0  0
   41.2390   31.6300   39.7530 C   0  0  0  0  0  0  0  0  0  0  0  0
   41.9290   30.6560   39.1170 N   0  0  0  0  0  0  0  0  0  0  0  0
   42.0830   30.6960   37.7700 C   0  0  0  0  0  0  0  0  0  0  0  0
   41.5510   31.6970   37.0880 N   0  0  0  0  0  0  0  0  0  0  0  0
   40.4020   33.5330   37.1410 H   0  0  0  0  0  0  0  0  0  0  0  0
   41.1850   31.5060   40.8200 H   0  0  0  0  0  0  0  0  0  0  0  0
   42.6110   29.9780   37.1580 H   0  0  0  0  0  0  0  0  0  0  0  0
   38.1890   29.7570   41.0050 O   0  0  0  0  0  0  0  0  0  0  0  0
   38.3240   28.6030   41.7390 C   0  0  0  0  0  0  0  0  0  0  0  0
   38.8020   28.4400   43.0350 C   0  0  0  0  0  0  0  0  0  0  0  0
   38.8570   27.1810   43.6020 C   0  0  0  0  0  0  0  0  0  0  0  0
   38.4380   26.1190   42.8730 N   0  0  0  0  0  0  0  0  0  0  0  0
   37.9750   26.2660   41.6220 C   0  0  0  0  0  0  0  0  0  0  0  0
   37.9080   27.5030   41.0330 N   0  0  0  0  0  0  0  0  0  0  0  0
   39.1000   29.3550   43.4990 H   0  0  0  0  0  0  0  0  0  0  0  0
   39.2360   27.1030   44.6120 H   0  0  0  0  0  0  0  0  0  0  0  0
   36.5310   25.0900   39.9650 C   0  0  0  0  0  3  0  0  0  0  0  0
   37.5420   25.0680   40.9060 C   0  0  0  0  0  0  0  0  0  0  0  0
   38.1690   23.8910   41.1870 C   0  0  0  0  0  0  0  0  0  0  0  0
   38.9710   23.8190   41.9190 H   0  0  0  0  0  0  0  0  0  0  0  0
   37.7620   22.7380   40.5060 C   0  0  0  0  0  0  0  0  0  0  0  0
   38.2440   21.4810   40.6310 N   0  0  0  0  0  0  0  0  0  0  0  0
   39.0050   21.1140   41.2480 H   0  0  0  0  0  0  0  0  0  0  0  0
   37.5720   20.6970   39.8000 N   0  0  0  0  0  0  0  0  0  0  0  0
   36.6600   21.4380   39.1380 C   0  0  0  0  0  0  0  0  0  0  0  0
   35.9560   21.1090   38.3940 H   0  0  0  0  0  0  0  0  0  0  0  0
   36.7530   22.7470   39.5650 C   0  0  0  0  0  0  0  0  0  0  0  0
   36.1300   23.9440   39.2930 C   0  0  0  0  0  3  0  0  0  0  0  0
  2  1  2  6  0  0  0
  2  5  1  0  0  0  0
  2 24  1  0  0  0  0
  2  3  1  0  0  0  0
  3  4  1  0  0  0  0
  6  9  1  1  0  0  0
  7  8  1  0  0  0  0
  7 10  1  0  0  0  0
  7  6  1  0  0  0  0
  8 12  1  6  0  0  0
  8  6  1  0  0  0  0
  8  5  1  0  0  0  0
 11  7  1  0  0  0  0
 13 14  2  0  0  0  0
 13  6  1  0  0  0  0
 15 16  1  0  0  0  0
 16 13  1  0  0  0  0
 16 17  2  0  0  0  0
 17 22  1  0  0  0  0
 18 17  1  0  0  0  0
 19 18  2  0  0  0  0
 20 15  2  0  0  0  0
 20 19  1  0  0  0  0
 21 15  1  0  0  0  0
 23 19  1  0  0  0  0
 24 25  1  0  0  0  0
 25 26  1  0  0  0  0
 26 31  1  0  0  0  0
 26 27  2  0  0  0  0
 27 32  1  0  0  0  0
 28 27  1  0  0  0  0
 29 28  2  0  0  0  0
 30 29  1  0  0  0  0
 30 25  2  0  0  0  0
 33 34  1  0  0  0  0
 34 35  2  0  0  0  0
 34 29  1  0  0  0  0
 35 36  1  0  0  0  0
 37 38  1  0  0  0  0
 37 35  1  0  0  0  0
 38 39  1  0  0  0  0
 40 38  1  0  0  0  0
 41 43  1  0  0  0  0
 41 40  2  0  0  0  0
 42 41  1  0  0  0  0
 43 37  2  0  0  0  0
 44 43  1  0  0  0  0
 44 33  2  0  0  0  0
M  END
>  <minimizedAffinity>
-6.34936142

$$$$

 OpenBabel03242512133D

 44 48  0  0  1  0  0  0  0  0999 V2000
   40.9430   32.5480   36.9380 O   0  0  0  0  0  0  0  0  0  0  0  0
   42.3160   33.0420   37.3670 P   0  0  2  0  0  0  0  0  0  0  0  0
   42.7320   34.4560   36.6230 O   0  0  0  0  0  0  0  0  0  0  0  0
   43.4620   34.3940   35.9850 H   0  0  0  0  0  0  0  0  0  0  0  0
   43.3930   31.7580   37.1370 O   0  0  0  0  0  0  0  0  0  0  0  0
   43.0720   29.3330   36.8300 C   0  0  1  0  0  0  0  0  0  0  0  0
   43.4350   30.0630   35.4740 C   0  0  0  0  0  0  0  0  0  0  0  0
   42.6960   30.7340   36.5190 C   0  0  2  0  0  0  0  0  0  0  0  0
   43.9290   29.1620   37.4740 H   0  0  0  0  0  0  0  0  0  0  0  0
   44.5210   30.2410   35.3300 H   0  0  0  0  0  0  0  0  0  0  0  0
   42.9750   29.6410   34.5580 H   0  0  0  0  0  0  0  0  0  0  0  0
   41.6050   30.8630   36.5860 H   0  0  0  0  0  0  0  0  0  0  0  0
   42.0820   28.2380   36.6120 C   0  0  0  0  0  0  0  0  0  0  0  0
   40.8950   28.5300   36.6890 O   0  0  0  0  0  0  0  0  0  0  0  0
   41.5380   25.8680   36.3040 C   0  0  0  0  0  0  0  0  0  0  0  0
   42.4100   26.8890   36.3230 C   0  0  0  0  0  0  0  0  0  0  0  0
   43.7730   26.5590   36.0210 C   0  0  0  0  0  0  0  0  0  0  0  0
   44.1350   25.2870   35.7390 N   0  0  0  0  0  0  0  0  0  0  0  0
   43.2070   24.2970   35.7360 C   0  0  0  0  0  0  0  0  0  0  0  0
   41.9470   24.5910   36.0120 N   0  0  0  0  0  0  0  0  0  0  0  0
   40.5030   26.1200   36.5330 H   0  0  0  0  0  0  0  0  0  0  0  0
   44.5840   27.2640   35.9880 H   0  0  0  0  0  0  0  0  0  0  0  0
   43.3780   23.2500   35.5260 H   0  0  0  0  0  0  0  0  0  0  0  0
   42.1520   33.2620   39.0840 O   0  0  0  0  0  0  0  0  0  0  0  0
   40.9620   33.5490   39.7090 C   0  0  0  0  0  0  0  0  0  0  0  0
   40.3860   34.7880   39.9690 C   0  0  0  0  0  0  0  0  0  0  0  0
   39.1670   34.8650   40.6160 C   0  0  0  0  0  0  0  0  0  0  0  0
   38.5530   33.7170   40.9880 N   0  0  0  0  0  0  0  0  0  0  0  0
   39.1010   32.5170   40.7430 C   0  0  0  0  0  0  0  0  0  0  0  0
   40.3090   32.4080   40.1020 N   0  0  0  0  0  0  0  0  0  0  0  0
   40.9720   35.6130   39.6240 H   0  0  0  0  0  0  0  0  0  0  0  0
   38.7570   35.8500   40.7960 H   0  0  0  0  0  0  0  0  0  0  0  0
   37.0810   31.0570   40.7690 C   0  0  0  0  0  3  0  0  0  0  0  0
   38.3720   31.3280   41.1770 C   0  0  0  0  0  0  0  0  0  0  0  0
   39.0020   30.4610   42.0180 C   0  0  0  0  0  0  0  0  0  0  0  0
   40.0190   30.6270   42.3710 H   0  0  0  0  0  0  0  0  0  0  0  0
   38.3130   29.3190   42.4410 C   0  0  0  0  0  0  0  0  0  0  0  0
   38.7470   28.3390   43.2660 N   0  0  0  0  0  0  0  0  0  0  0  0
   39.6680   28.2310   43.7510 H   0  0  0  0  0  0  0  0  0  0  0  0
   37.7730   27.4500   43.3990 N   0  0  0  0  0  0  0  0  0  0  0  0
   36.7130   27.8470   42.6650 C   0  0  0  0  0  0  0  0  0  0  0  0
   35.7640   27.3530   42.5540 H   0  0  0  0  0  0  0  0  0  0  0  0
   37.0230   29.0380   42.0400 C   0  0  0  0  0  0  0  0  0  0  0  0
   36.4000   29.9240   41.1900 C   0  0  0  0  0  3  0  0  0  0  0  0
  2  1  2  6  0  0  0
  2 24  1  0  0  0  0
  3  2  1  0  0  0  0
  4  3  1  0  0  0  0
  5  2  1  0  0  0  0
  6  9  1  1  0  0  0
  7  8  1  0  0  0  0
  7  6  1  0  0  0  0
  8 12  1  6  0  0  0
  8  6  1  0  0  0  0
  8  5  1  0  0  0  0
 10  7  1  0  0  0  0
 11  7  1  0  0  0  0
 13 14  2  0  0  0  0
 13  6  1  0  0  0  0
 15 16  1  0  0  0  0
 15 21  1  0  0  0  0
 16 13  1  0  0  0  0
 17 16  2  0  0  0  0
 18 17  1  0  0  0  0
 19 18  2  0  0  0  0
 19 20  1  0  0  0  0
 20 15  2  0  0  0  0
 22 17  1  0  0  0  0
 23 19  1  0  0  0  0
 24 25  1  0  0  0  0
 25 26  2  0  0  0  0
 25 30  1  0  0  0  0
 26 27  1  0  0  0  0
 27 32  1  0  0  0  0
 27 28  2  0  0  0  0
 29 28  1  0  0  0  0
 29 34  1  0  0  0  0
 30 29  2  0  0  0  0
 31 26  1  0  0  0  0
 33 34  2  0  0  0  0
 33 44  1  0  0  0  0
 34 35  1  0  0  0  0
 35 36  1  0  0  0  0
 35 37  2  0  0  0  0
 37 38  1  0  0  0  0
 38 40  1  0  0  0  0
 38 39  1  0  0  0  0
 41 40  2  0  0  0  0
 42 41  1  0  0  0  0
 43 37  1  0  0  0  0
 43 41  1  0  0  0  0
 44 43  2  0  0  0  0
M  END
>  <minimizedAffinity>
-6.33904314

$$$$

 OpenBabel03242512133D

 44 48  0  0  1  0  0  0  0  0999 V2000
   42.3660   34.5650   37.3870 O   0  0  0  0  0  0  0  0  0  0  0  0
   43.3800   34.0510   38.3980 P   0  0  2  0  0  0  0  0  0  0  0  0
   44.8480   34.7910   38.2400 O   0  0  0  0  0  0  0  0  0  0  0  0
   45.5690   34.2250   37.9190 H   0  0  0  0  0  0  0  0  0  0  0  0
   43.3990   32.3660   38.2600 O   0  0  0  0  0  0  0  0  0  0  0  0
   41.3710   30.9670   38.1990 C   0  0  1  0  0  0  0  0  0  0  0  0
   42.3290   30.6820   36.9720 C   0  0  0  0  0  0  0  0  0  0  0  0
   42.2520   31.9890   37.5830 C   0  0  2  0  0  0  0  0  0  0  0  0
   41.6960   30.4970   39.1220 H   0  0  0  0  0  0  0  0  0  0  0  0
   43.1640   29.9860   37.2000 H   0  0  0  0  0  0  0  0  0  0  0  0
   41.8310   30.4080   36.0210 H   0  0  0  0  0  0  0  0  0  0  0  0
   41.6600   32.8510   37.2410 H   0  0  0  0  0  0  0  0  0  0  0  0
   39.9350   30.8930   37.7980 C   0  0  0  0  0  0  0  0  0  0  0  0
   39.4450   31.8880   37.2780 O   0  0  0  0  0  0  0  0  0  0  0  0
   39.4520   28.6250   38.5940 C   0  0  0  0  0  0  0  0  0  0  0  0
   39.0980   29.7620   37.9720 C   0  0  0  0  0  0  0  0  0  0  0  0
   37.7610   29.8060   37.4530 C   0  0  0  0  0  0  0  0  0  0  0  0
   36.9250   28.7520   37.5930 N   0  0  0  0  0  0  0  0  0  0  0  0
   37.3410   27.6300   38.2330 C   0  0  0  0  0  0  0  0  0  0  0  0
   38.5720   27.5800   38.7160 N   0  0  0  0  0  0  0  0  0  0  0  0
   40.4660   28.5930   38.9890 H   0  0  0  0  0  0  0  0  0  0  0  0
   37.3280   30.6450   36.9390 H   0  0  0  0  0  0  0  0  0  0  0  0
   36.7640   26.7320   38.4040 H   0  0  0  0  0  0  0  0  0  0  0  0
   42.6520   34.4250   39.9320 O   0  0  0  0  0  0  0  0  0  0  0  0
   41.2980   34.5610   40.1250 C   0  0  0  0  0  0  0  0  0  0  0  0
   40.5140   35.7080   40.0520 C   0  0  0  0  0  0  0  0  0  0  0  0
   39.1530   35.6340   40.2800 C   0  0  0  0  0  0  0  0  0  0  0  0
   38.6060   34.4310   40.5740 N   0  0  0  0  0  0  0  0  0  0  0  0
   39.3530   33.3190   40.6470 C   0  0  0  0  0  0  0  0  0  0  0  0
   40.7070   33.3600   40.4260 N   0  0  0  0  0  0  0  0  0  0  0  0
   41.0680   36.5900   39.8120 H   0  0  0  0  0  0  0  0  0  0  0  0
   38.5840   36.5510   40.2120 H   0  0  0  0  0  0  0  0  0  0  0  0
   39.2710   31.0850   41.7490 C   0  0  0  0  0  3  0  0  0  0  0  0
   38.6830   32.0610   40.9690 C   0  0  0  0  0  0  0  0  0  0  0  0
   37.4300   31.8570   40.4740 C   0  0  0  0  0  0  0  0  0  0  0  0
   36.9220   32.5930   39.8540 H   0  0  0  0  0  0  0  0  0  0  0  0
   36.7800   30.6550   40.7750 C   0  0  0  0  0  0  0  0  0  0  0  0
   35.5470   30.2530   40.3900 N   0  0  0  0  0  0  0  0  0  0  0  0
   34.8380   30.7440   39.8000 H   0  0  0  0  0  0  0  0  0  0  0  0
   35.3290   29.0490   40.9000 N   0  0  0  0  0  0  0  0  0  0  0  0
   36.4100   28.6700   41.6110 C   0  0  0  0  0  0  0  0  0  0  0  0
   36.5570   27.7510   42.1510 H   0  0  0  0  0  0  0  0  0  0  0  0
   37.3570   29.6720   41.5530 C   0  0  0  0  0  0  0  0  0  0  0  0
   38.6230   29.8940   42.0460 C   0  0  0  0  0  3  0  0  0  0  0  0
  2  1  2  6  0  0  0
  2 24  1  0  0  0  0
  3  2  1  0  0  0  0
  4  3  1  0  0  0  0
  5  2  1  0  0  0  0
  6  9  1  1  0  0  0
  7 10  1  0  0  0  0
  7  8  1  0  0  0  0
  7  6  1  0  0  0  0
  8 12  1  6  0  0  0
  8  6  1  0  0  0  0
  8  5  1  0  0  0  0
 11  7  1  0  0  0  0
 13 16  1  0  0  0  0
 13  6  1  0  0  0  0
 14 13  2  0  0  0  0
 15 20  1  0  0  0  0
 15 21  1  0  0  0  0
 16 15  2  0  0  0  0
 17 18  2  0  0  0  0
 17 16  1  0  0  0  0
 18 19  1  0  0  0  0
 19 23  1  0  0  0  0
 19 20  2  0  0  0  0
 22 17  1  0  0  0  0
 24 25  1  0  0  0  0
 25 30  1  0  0  0  0
 26 25  2  0  0  0  0
 26 27  1  0  0  0  0
 27 28  2  0  0  0  0
 28 29  1  0  0  0  0
 29 34  1  0  0  0  0
 30 29  2  0  0  0  0
 31 26  1  0  0  0  0
 32 27  1  0  0  0  0
 33 44  1  0  0  0  0
 34 33  2  0  0  0  0
 35 37  2  0  0  0  0
 35 34  1  0  0  0  0
 36 35  1  0  0  0  0
 37 43  1  0  0  0  0
 38 37  1  0  0  0  0
 38 40  1  0  0  0  0
 39 38  1  0  0  0  0
 40 41  2  0  0  0  0
 41 42  1  0  0  0  0
 43 41  1  0  0  0  0
 43 44  2  0  0  0  0
M  END
>  <minimizedAffinity>
-6.31073856

$$$$
