
 OpenBabel03242517203D

 42 45  0  0  0  0  0  0  0  0999 V2000
   38.8890   31.5560   41.3010 C   0  0  0  0  0  0  0  0  0  0  0  0
   37.7560   31.0710   40.6010 C   0  0  0  0  0  0  0  0  0  0  0  0
   37.0690   31.9530   39.8070 C   0  0  0  0  0  0  0  0  0  0  0  0
   37.5220   33.2390   39.7440 N   0  0  0  0  0  0  0  0  0  0  0  0
   38.5940   33.6790   40.4120 C   0  0  0  0  0  0  0  0  0  0  0  0
   39.2630   32.8230   41.1840 N   0  0  0  0  0  0  0  0  0  0  0  0
   39.4480   30.8650   41.9390 H   0  0  0  0  0  0  0  0  0  0  0  0
   36.2170   31.5860   39.2810 H   0  0  0  0  0  0  0  0  0  0  0  0
   39.0980   35.0470   40.3610 C   0  0  0  0  0  0  0  0  0  0  0  0
   39.3670   35.4060   41.3970 H   0  0  0  0  0  0  0  0  0  0  0  0
   38.3680   35.7540   39.9740 H   0  0  0  0  0  0  0  0  0  0  0  0
   40.4190   35.0980   39.5960 C   0  0  0  0  0  0  0  0  0  0  0  0
   40.6160   34.1700   39.0610 H   0  0  0  0  0  0  0  0  0  0  0  0
   40.4180   36.0120   38.9810 H   0  0  0  0  0  0  0  0  0  0  0  0
   41.3920   36.3780   41.5520 C   0  0  0  0  0  3  0  0  0  0  0  0
   41.4580   35.3260   40.6650 C   0  0  0  0  0  0  0  0  0  0  0  0
   42.5430   34.4610   40.7920 C   0  0  0  0  0  0  0  0  0  0  0  0
   42.6160   33.6310   40.1100 H   0  0  0  0  0  0  0  0  0  0  0  0
   43.4920   34.6640   41.7620 C   0  0  0  0  0  0  0  0  0  0  0  0
   44.6030   33.9510   42.0460 N   0  0  0  0  0  0  0  0  0  0  0  0
   45.0090   33.0960   41.6180 H   0  0  0  0  0  0  0  0  0  0  0  0
   45.2190   34.5180   43.0660 N   0  0  0  0  0  0  0  0  0  0  0  0
   44.5190   35.6090   43.4590 C   0  0  0  0  0  0  0  0  0  0  0  0
   44.6590   36.3550   44.2450 H   0  0  0  0  0  0  0  0  0  0  0  0
   43.4040   35.7250   42.6390 C   0  0  0  0  0  0  0  0  0  0  0  0
   42.3320   36.5980   42.5300 C   0  0  0  0  0  3  0  0  0  0  0  0
   37.3480   29.6660   40.7360 C   0  0  0  0  0  3  0  0  0  0  0  0
   36.9600   29.1010   41.8540 C   0  0  0  0  0  3  0  0  0  0  0  0
   36.5520   27.6730   41.9560 C   0  0  0  0  0  0  0  0  0  0  0  0
   36.2810   27.3410   40.9370 H   0  0  0  0  0  0  0  0  0  0  0  0
   35.6360   27.6420   42.5670 H   0  0  0  0  0  0  0  0  0  0  0  0
   36.8000   24.9640   41.2860 F   0  0  0  0  0  0  0  0  0  0  0  0
   37.7130   25.5030   42.1150 C   0  0  0  0  0  0  0  0  0  0  0  0
   37.6300   26.8440   42.4770 C   0  0  0  0  0  0  0  0  0  0  0  0
   38.6250   27.2590   43.3260 C   0  0  0  0  0  0  0  0  0  0  0  0
   39.6630   26.4940   43.8370 C   0  0  0  0  0  0  0  0  0  0  0  0
   39.6710   25.1640   43.4250 C   0  0  0  0  0  0  0  0  0  0  0  0
   38.7200   24.6460   42.5750 C   0  0  0  0  0  0  0  0  0  0  0  0
   38.6080   28.3030   43.6420 H   0  0  0  0  0  0  0  0  0  0  0  0
   40.3990   26.9040   44.4970 H   0  0  0  0  0  0  0  0  0  0  0  0
   40.4490   24.4900   43.7760 H   0  0  0  0  0  0  0  0  0  0  0  0
   38.7300   23.6110   42.2580 H   0  0  0  0  0  0  0  0  0  0  0  0
  1  7  1  0  0  0  0
  2 27  1  0  0  0  0
  2  1  2  0  0  0  0
  3  2  1  0  0  0  0
  4  3  2  0  0  0  0
  4  5  1  0  0  0  0
  5  6  2  0  0  0  0
  6  1  1  0  0  0  0
  8  3  1  0  0  0  0
  9  5  1  0  0  0  0
  9 10  1  0  0  0  0
 11  9  1  0  0  0  0
 12  9  1  0  0  0  0
 12 16  1  0  0  0  0
 13 12  1  0  0  0  0
 14 12  1  0  0  0  0
 15 26  1  0  0  0  0
 16 17  1  0  0  0  0
 16 15  2  0  0  0  0
 17 19  2  0  0  0  0
 18 17  1  0  0  0  0
 19 20  1  0  0  0  0
 19 25  1  0  0  0  0
 20 22  1  0  0  0  0
 21 20  1  0  0  0  0
 22 23  2  0  0  0  0
 23 24  1  0  0  0  0
 25 23  1  0  0  0  0
 26 25  2  0  0  0  0
 27 28  2  0  0  0  0
 28 29  1  0  0  0  0
 29 34  1  0  0  0  0
 29 31  1  0  0  0  0
 30 29  1  0  0  0  0
 32 33  1  0  0  0  0
 33 34  2  0  0  0  0
 33 38  1  0  0  0  0
 34 35  1  0  0  0  0
 35 39  1  0  0  0  0
 35 36  2  0  0  0  0
 36 40  1  0  0  0  0
 37 41  1  0  0  0  0
 37 36  1  0  0  0  0
 38 37  2  0  0  0  0
 42 38  1  0  0  0  0
M  END
>  <minimizedAffinity>
-7.18994141

$$$$

 OpenBabel03242517203D

 42 45  0  0  0  0  0  0  0  0999 V2000
   37.8240   29.2180   39.3140 C   0  0  0  0  0  0  0  0  0  0  0  0
   36.8710   29.9900   40.0240 C   0  0  0  0  0  0  0  0  0  0  0  0
   36.0220   29.3310   40.8770 C   0  0  0  0  0  0  0  0  0  0  0  0
   36.1530   27.9770   40.9840 N   0  0  0  0  0  0  0  0  0  0  0  0
   37.0590   27.2650   40.3060 C   0  0  0  0  0  0  0  0  0  0  0  0
   37.8850   27.9040   39.4780 N   0  0  0  0  0  0  0  0  0  0  0  0
   38.5090   29.7290   38.6310 H   0  0  0  0  0  0  0  0  0  0  0  0
   35.3060   29.9140   41.4100 H   0  0  0  0  0  0  0  0  0  0  0  0
   37.2180   25.8180   40.4040 C   0  0  0  0  0  0  0  0  0  0  0  0
   38.2720   25.5190   40.1300 H   0  0  0  0  0  0  0  0  0  0  0  0
   36.5620   25.2720   39.7310 H   0  0  0  0  0  0  0  0  0  0  0  0
   37.0700   25.3650   41.8550 C   0  0  0  0  0  0  0  0  0  0  0  0
   36.2440   25.8680   42.3570 H   0  0  0  0  0  0  0  0  0  0  0  0
   37.0320   24.2640   41.8630 H   0  0  0  0  0  0  0  0  0  0  0  0
   38.5360   26.8460   43.2920 C   0  0  0  0  0  3  0  0  0  0  0  0
   38.3850   25.7330   42.4950 C   0  0  0  0  0  0  0  0  0  0  0  0
   39.5140   24.9410   42.2970 C   0  0  0  0  0  0  0  0  0  0  0  0
   39.4210   24.0660   41.6780 H   0  0  0  0  0  0  0  0  0  0  0  0
   40.7140   25.2720   42.8770 C   0  0  0  0  0  0  0  0  0  0  0  0
   41.9070   24.6450   42.8090 N   0  0  0  0  0  0  0  0  0  0  0  0
   42.2130   23.7820   42.3180 H   0  0  0  0  0  0  0  0  0  0  0  0
   42.7810   25.3240   43.5290 N   0  0  0  0  0  0  0  0  0  0  0  0
   42.1690   26.4020   44.0730 C   0  0  0  0  0  0  0  0  0  0  0  0
   42.5040   27.2140   44.7220 H   0  0  0  0  0  0  0  0  0  0  0  0
   40.8400   26.3920   43.6710 C   0  0  0  0  0  0  0  0  0  0  0  0
   39.7280   27.1940   43.8820 C   0  0  0  0  0  3  0  0  0  0  0  0
   36.8100   31.4460   39.8390 C   0  0  0  0  0  3  0  0  0  0  0  0
   37.8170   32.2680   40.0160 C   0  0  0  0  0  3  0  0  0  0  0  0
   37.7220   33.7400   39.8200 C   0  0  0  0  0  0  0  0  0  0  0  0
   36.9510   34.1100   40.5210 H   0  0  0  0  0  0  0  0  0  0  0  0
   37.3450   33.9060   38.7980 H   0  0  0  0  0  0  0  0  0  0  0  0
   38.0220   36.5210   39.6440 F   0  0  0  0  0  0  0  0  0  0  0  0
   39.0930   35.7840   39.9890 C   0  0  0  0  0  0  0  0  0  0  0  0
   38.9930   34.3990   40.0880 C   0  0  0  0  0  0  0  0  0  0  0  0
   40.1620   33.7760   40.4470 C   0  0  0  0  0  0  0  0  0  0  0  0
   41.3840   34.3760   40.7090 C   0  0  0  0  0  0  0  0  0  0  0  0
   41.3960   35.7620   40.5870 C   0  0  0  0  0  0  0  0  0  0  0  0
   40.2800   36.4860   40.2320 C   0  0  0  0  0  0  0  0  0  0  0  0
   40.1400   32.6890   40.5410 H   0  0  0  0  0  0  0  0  0  0  0  0
   42.2480   33.8070   40.9850 H   0  0  0  0  0  0  0  0  0  0  0  0
   42.3140   36.3180   40.7730 H   0  0  0  0  0  0  0  0  0  0  0  0
   40.2950   37.5630   40.1380 H   0  0  0  0  0  0  0  0  0  0  0  0
  1  6  2  0  0  0  0
  1  2  1  0  0  0  0
  2  3  2  0  0  0  0
  3  4  1  0  0  0  0
  3  8  1  0  0  0  0
  5  9  1  0  0  0  0
  5  4  2  0  0  0  0
  6  5  1  0  0  0  0
  7  1  1  0  0  0  0
  9 12  1  0  0  0  0
 10  9  1  0  0  0  0
 11  9  1  0  0  0  0
 12 14  1  0  0  0  0
 12 13  1  0  0  0  0
 12 16  1  0  0  0  0
 15 26  1  0  0  0  0
 16 15  2  0  0  0  0
 17 16  1  0  0  0  0
 17 19  2  0  0  0  0
 18 17  1  0  0  0  0
 19 25  1  0  0  0  0
 20 19  1  0  0  0  0
 20 22  1  0  0  0  0
 21 20  1  0  0  0  0
 22 23  2  0  0  0  0
 23 24  1  0  0  0  0
 25 26  2  0  0  0  0
 25 23  1  0  0  0  0
 27 28  2  0  0  0  0
 27  2  1  0  0  0  0
 29 28  1  0  0  0  0
 29 34  1  0  0  0  0
 29 30  1  0  0  0  0
 31 29  1  0  0  0  0
 32 33  1  0  0  0  0
 33 34  2  0  0  0  0
 33 38  1  0  0  0  0
 34 35  1  0  0  0  0
 35 39  1  0  0  0  0
 35 36  2  0  0  0  0
 36 40  1  0  0  0  0
 37 36  1  0  0  0  0
 37 41  1  0  0  0  0
 38 37  2  0  0  0  0
 42 38  1  0  0  0  0
M  END
>  <minimizedAffinity>
-6.89910269

$$$$

 OpenBabel03242517203D

 42 45  0  0  0  0  0  0  0  0999 V2000
   39.0670   31.0690   39.1940 C   0  0  0  0  0  0  0  0  0  0  0  0
   38.6040   32.3400   39.6160 C   0  0  0  0  0  0  0  0  0  0  0  0
   37.3540   32.4110   40.1760 C   0  0  0  0  0  0  0  0  0  0  0  0
   36.6400   31.2540   40.2900 N   0  0  0  0  0  0  0  0  0  0  0  0
   37.0950   30.0620   39.8870 C   0  0  0  0  0  0  0  0  0  0  0  0
   38.3090   29.9910   39.3430 N   0  0  0  0  0  0  0  0  0  0  0  0
   40.0620   30.9950   38.7460 H   0  0  0  0  0  0  0  0  0  0  0  0
   37.0080   33.3690   40.4920 H   0  0  0  0  0  0  0  0  0  0  0  0
   36.3510   28.8120   39.9990 C   0  0  0  0  0  0  0  0  0  0  0  0
   37.0320   27.9320   39.8050 H   0  0  0  0  0  0  0  0  0  0  0  0
   35.5410   28.7340   39.2790 H   0  0  0  0  0  0  0  0  0  0  0  0
   35.8760   28.6030   41.4350 C   0  0  0  0  0  0  0  0  0  0  0  0
   35.7130   29.5490   41.9520 H   0  0  0  0  0  0  0  0  0  0  0  0
   35.0120   27.9200   41.4090 H   0  0  0  0  0  0  0  0  0  0  0  0
   37.8430   28.3860   43.0130 C   0  0  0  0  0  3  0  0  0  0  0  0
   36.9920   27.8260   42.0870 C   0  0  0  0  0  0  0  0  0  0  0  0
   37.2020   26.4870   41.7660 C   0  0  0  0  0  0  0  0  0  0  0  0
   36.5490   26.0270   41.0440 H   0  0  0  0  0  0  0  0  0  0  0  0
   38.2160   25.7750   42.3560 C   0  0  0  0  0  0  0  0  0  0  0  0
   38.5800   24.4860   42.1830 N   0  0  0  0  0  0  0  0  0  0  0  0
   38.2000   23.7300   41.5810 H   0  0  0  0  0  0  0  0  0  0  0  0
   39.6160   24.2330   42.9620 N   0  0  0  0  0  0  0  0  0  0  0  0
   39.9400   25.3520   43.6510 C   0  0  0  0  0  0  0  0  0  0  0  0
   40.7090   25.5900   44.3890 H   0  0  0  0  0  0  0  0  0  0  0  0
   39.0560   26.3580   43.2810 C   0  0  0  0  0  0  0  0  0  0  0  0
   38.8640   27.6910   43.6150 C   0  0  0  0  0  3  0  0  0  0  0  0
   39.4500   33.5290   39.4490 C   0  0  0  0  0  3  0  0  0  0  0  0
   39.5390   34.5140   40.3120 C   0  0  0  0  0  3  0  0  0  0  0  0
   40.4070   35.7070   40.1130 C   0  0  0  0  0  0  0  0  0  0  0  0
   39.7710   36.5980   40.2690 H   0  0  0  0  0  0  0  0  0  0  0  0
   40.7190   35.7060   39.0560 H   0  0  0  0  0  0  0  0  0  0  0  0
   42.5730   33.9460   39.8750 F   0  0  0  0  0  0  0  0  0  0  0  0
   42.5750   34.8270   40.8920 C   0  0  0  0  0  0  0  0  0  0  0  0
   41.5200   35.7210   41.0510 C   0  0  0  0  0  0  0  0  0  0  0  0
   41.6530   36.5600   42.1290 C   0  0  0  0  0  0  0  0  0  0  0  0
   42.7010   36.5960   43.0380 C   0  0  0  0  0  0  0  0  0  0  0  0
   43.7120   35.6690   42.8050 C   0  0  0  0  0  0  0  0  0  0  0  0
   43.6780   34.7820   41.7530 C   0  0  0  0  0  0  0  0  0  0  0  0
   40.8540   37.2820   42.3010 H   0  0  0  0  0  0  0  0  0  0  0  0
   42.7210   37.2890   43.8530 H   0  0  0  0  0  0  0  0  0  0  0  0
   44.5740   35.6250   43.4690 H   0  0  0  0  0  0  0  0  0  0  0  0
   44.4670   34.0630   41.5770 H   0  0  0  0  0  0  0  0  0  0  0  0
  1  6  2  0  0  0  0
  1  2  1  0  0  0  0
  2  3  2  0  0  0  0
  3  4  1  0  0  0  0
  3  8  1  0  0  0  0
  5  9  1  0  0  0  0
  5  4  2  0  0  0  0
  6  5  1  0  0  0  0
  7  1  1  0  0  0  0
  9 12  1  0  0  0  0
 10  9  1  0  0  0  0
 11  9  1  0  0  0  0
 12 13  1  0  0  0  0
 12 16  1  0  0  0  0
 14 12  1  0  0  0  0
 15 26  1  0  0  0  0
 16 15  2  0  0  0  0
 17 16  1  0  0  0  0
 17 19  2  0  0  0  0
 18 17  1  0  0  0  0
 19 25  1  0  0  0  0
 20 19  1  0  0  0  0
 20 22  1  0  0  0  0
 21 20  1  0  0  0  0
 22 23  2  0  0  0  0
 23 24  1  0  0  0  0
 25 26  2  0  0  0  0
 25 23  1  0  0  0  0
 27  2  1  0  0  0  0
 27 28  2  0  0  0  0
 29 30  1  0  0  0  0
 29 28  1  0  0  0  0
 29 34  1  0  0  0  0
 31 29  1  0  0  0  0
 32 33  1  0  0  0  0
 33 34  2  0  0  0  0
 33 38  1  0  0  0  0
 34 35  1  0  0  0  0
 35 39  1  0  0  0  0
 35 36  2  0  0  0  0
 36 40  1  0  0  0  0
 37 36  1  0  0  0  0
 37 41  1  0  0  0  0
 38 37  2  0  0  0  0
 42 38  1  0  0  0  0
M  END
>  <minimizedAffinity>
-6.78373146

$$$$

 OpenBabel03242517203D

 42 45  0  0  0  0  0  0  0  0999 V2000
   35.9480   29.4850   40.6290 C   0  0  0  0  0  0  0  0  0  0  0  0
   36.8280   28.9030   41.5740 C   0  0  0  0  0  0  0  0  0  0  0  0
   37.9120   29.6410   41.9780 C   0  0  0  0  0  0  0  0  0  0  0  0
   38.0690   30.8860   41.4430 N   0  0  0  0  0  0  0  0  0  0  0  0
   37.2270   31.4200   40.5520 C   0  0  0  0  0  0  0  0  0  0  0  0
   36.1740   30.7050   40.1580 N   0  0  0  0  0  0  0  0  0  0  0  0
   35.0800   28.9100   40.2960 H   0  0  0  0  0  0  0  0  0  0  0  0
   38.5720   29.2000   42.6900 H   0  0  0  0  0  0  0  0  0  0  0  0
   37.3740   32.7480   39.9660 C   0  0  0  0  0  0  0  0  0  0  0  0
   37.5000   33.5230   40.7770 H   0  0  0  0  0  0  0  0  0  0  0  0
   36.5080   33.0540   39.3850 H   0  0  0  0  0  0  0  0  0  0  0  0
   38.6720   32.8340   39.1660 C   0  0  0  0  0  0  0  0  0  0  0  0
   39.2200   31.8920   39.1750 H   0  0  0  0  0  0  0  0  0  0  0  0
   38.4290   33.2340   38.1690 H   0  0  0  0  0  0  0  0  0  0  0  0
   39.0220   35.2170   39.9460 C   0  0  0  0  0  3  0  0  0  0  0  0
   39.4640   33.9160   39.8570 C   0  0  0  0  0  0  0  0  0  0  0  0
   40.6960   33.6260   40.4410 C   0  0  0  0  0  0  0  0  0  0  0  0
   41.0620   32.6160   40.3840 H   0  0  0  0  0  0  0  0  0  0  0  0
   41.4210   34.6070   41.0710 C   0  0  0  0  0  0  0  0  0  0  0  0
   42.6180   34.5320   41.6900 N   0  0  0  0  0  0  0  0  0  0  0  0
   43.2750   33.7410   41.8420 H   0  0  0  0  0  0  0  0  0  0  0  0
   42.9290   35.7280   42.1530 N   0  0  0  0  0  0  0  0  0  0  0  0
   41.9390   36.5980   41.8420 C   0  0  0  0  0  0  0  0  0  0  0  0
   41.7830   37.6630   42.0240 H   0  0  0  0  0  0  0  0  0  0  0  0
   40.9570   35.9030   41.1470 C   0  0  0  0  0  0  0  0  0  0  0  0
   39.7330   36.2120   40.5720 C   0  0  0  0  0  3  0  0  0  0  0  0
   36.5720   27.5520   42.0920 C   0  0  0  0  0  3  0  0  0  0  0  0
   37.1970   26.4670   41.7010 C   0  0  0  0  0  3  0  0  0  0  0  0
   36.9120   25.1120   42.2460 C   0  0  0  0  0  0  0  0  0  0  0  0
   35.9090   25.1540   42.7090 H   0  0  0  0  0  0  0  0  0  0  0  0
   37.6400   24.9290   43.0530 H   0  0  0  0  0  0  0  0  0  0  0  0
   39.1460   23.4790   41.8030 F   0  0  0  0  0  0  0  0  0  0  0  0
   38.0660   23.3100   41.0180 C   0  0  0  0  0  0  0  0  0  0  0  0
   36.9330   24.0990   41.2000 C   0  0  0  0  0  0  0  0  0  0  0  0
   35.9090   23.8200   40.3300 C   0  0  0  0  0  0  0  0  0  0  0  0
   35.9010   22.8620   39.3260 C   0  0  0  0  0  0  0  0  0  0  0  0
   37.0720   22.1190   39.2130 C   0  0  0  0  0  0  0  0  0  0  0  0
   38.1590   22.3180   40.0340 C   0  0  0  0  0  0  0  0  0  0  0  0
   34.9960   24.4080   40.4290 H   0  0  0  0  0  0  0  0  0  0  0  0
   35.0520   22.7130   38.6920 H   0  0  0  0  0  0  0  0  0  0  0  0
   37.1560   21.3460   38.4520 H   0  0  0  0  0  0  0  0  0  0  0  0
   39.0680   21.7380   39.9420 H   0  0  0  0  0  0  0  0  0  0  0  0
  1  2  1  0  0  0  0
  2  3  2  0  0  0  0
  2 27  1  0  0  0  0
  3  8  1  0  0  0  0
  4  3  1  0  0  0  0
  5  4  2  0  0  0  0
  6  5  1  0  0  0  0
  6  1  2  0  0  0  0
  7  1  1  0  0  0  0
  9  5  1  0  0  0  0
  9 10  1  0  0  0  0
 11  9  1  0  0  0  0
 12 13  1  0  0  0  0
 12 16  1  0  0  0  0
 12  9  1  0  0  0  0
 14 12  1  0  0  0  0
 15 26  1  0  0  0  0
 16 15  2  0  0  0  0
 16 17  1  0  0  0  0
 17 19  2  0  0  0  0
 18 17  1  0  0  0  0
 19 25  1  0  0  0  0
 19 20  1  0  0  0  0
 20 21  1  0  0  0  0
 20 22  1  0  0  0  0
 23 24  1  0  0  0  0
 23 22  2  0  0  0  0
 25 23  1  0  0  0  0
 26 25  2  0  0  0  0
 28 27  2  0  0  0  0
 28 29  1  0  0  0  0
 29 30  1  0  0  0  0
 29 31  1  0  0  0  0
 33 34  1  0  0  0  0
 33 32  1  0  0  0  0
 34 29  1  0  0  0  0
 35 39  1  0  0  0  0
 35 34  2  0  0  0  0
 36 35  1  0  0  0  0
 37 36  2  0  0  0  0
 37 38  1  0  0  0  0
 38 33  2  0  0  0  0
 40 36  1  0  0  0  0
 41 37  1  0  0  0  0
 42 38  1  0  0  0  0
M  END
>  <minimizedAffinity>
-6.74573278

$$$$

 OpenBabel03242517203D

 42 45  0  0  0  0  0  0  0  0999 V2000
   35.1660   29.4550   39.9390 C   0  0  0  0  0  0  0  0  0  0  0  0
   35.2130   28.6170   38.7970 C   0  0  0  0  0  0  0  0  0  0  0  0
   35.9310   27.4520   38.8880 C   0  0  0  0  0  0  0  0  0  0  0  0
   36.5520   27.1770   40.0720 N   0  0  0  0  0  0  0  0  0  0  0  0
   36.4960   27.9800   41.1400 C   0  0  0  0  0  0  0  0  0  0  0  0
   35.7990   29.1130   41.0540 N   0  0  0  0  0  0  0  0  0  0  0  0
   34.5980   30.3870   39.8830 H   0  0  0  0  0  0  0  0  0  0  0  0
   35.9640   26.8230   38.0270 H   0  0  0  0  0  0  0  0  0  0  0  0
   37.1510   27.7090   42.4150 C   0  0  0  0  0  0  0  0  0  0  0  0
   36.4960   28.0430   43.2720 H   0  0  0  0  0  0  0  0  0  0  0  0
   38.0940   28.2370   42.5300 H   0  0  0  0  0  0  0  0  0  0  0  0
   37.2980   26.2040   42.6260 C   0  0  0  0  0  0  0  0  0  0  0  0
   36.7780   25.8650   43.5220 H   0  0  0  0  0  0  0  0  0  0  0  0
   37.0080   25.7010   41.6900 H   0  0  0  0  0  0  0  0  0  0  0  0
   39.5150   25.2580   41.8510 C   0  0  0  0  0  3  0  0  0  0  0  0
   38.7850   25.9900   42.7610 C   0  0  0  0  0  0  0  0  0  0  0  0
   39.4830   26.5390   43.8340 C   0  0  0  0  0  0  0  0  0  0  0  0
   38.9340   27.1160   44.5580 H   0  0  0  0  0  0  0  0  0  0  0  0
   40.8360   26.3480   43.9620 C   0  0  0  0  0  0  0  0  0  0  0  0
   41.6840   26.7890   44.9150 N   0  0  0  0  0  0  0  0  0  0  0  0
   41.5350   27.3660   45.7660 H   0  0  0  0  0  0  0  0  0  0  0  0
   42.9000   26.3600   44.6290 N   0  0  0  0  0  0  0  0  0  0  0  0
   42.8590   25.6340   43.4870 C   0  0  0  0  0  0  0  0  0  0  0  0
   43.6130   25.1040   42.9010 H   0  0  0  0  0  0  0  0  0  0  0  0
   41.5450   25.6110   43.0370 C   0  0  0  0  0  0  0  0  0  0  0  0
   40.8690   25.0550   41.9610 C   0  0  0  0  0  3  0  0  0  0  0  0
   34.5090   29.0020   37.5670 C   0  0  0  0  0  3  0  0  0  0  0  0
   33.3020   28.6080   37.2380 C   0  0  0  0  0  3  0  0  0  0  0  0
   32.6160   29.0170   35.9820 C   0  0  0  0  0  0  0  0  0  0  0  0
   32.0760   28.1290   35.6060 H   0  0  0  0  0  0  0  0  0  0  0  0
   33.4010   29.2590   35.2490 H   0  0  0  0  0  0  0  0  0  0  0  0
   32.1170   30.9880   34.0540 F   0  0  0  0  0  0  0  0  0  0  0  0
   31.4610   31.0610   35.2270 C   0  0  0  0  0  0  0  0  0  0  0  0
   31.6770   30.1050   36.2150 C   0  0  0  0  0  0  0  0  0  0  0  0
   30.9430   30.3040   37.3580 C   0  0  0  0  0  0  0  0  0  0  0  0
   30.0430   31.3300   37.6070 C   0  0  0  0  0  0  0  0  0  0  0  0
   29.8880   32.2410   36.5660 C   0  0  0  0  0  0  0  0  0  0  0  0
   30.5750   32.1350   35.3790 C   0  0  0  0  0  0  0  0  0  0  0  0
   31.0730   29.5830   38.1660 H   0  0  0  0  0  0  0  0  0  0  0  0
   29.5120   31.4060   38.5330 H   0  0  0  0  0  0  0  0  0  0  0  0
   29.2020   33.0790   36.6750 H   0  0  0  0  0  0  0  0  0  0  0  0
   30.4510   32.8460   34.5730 H   0  0  0  0  0  0  0  0  0  0  0  0
  1  6  1  0  0  0  0
  2  3  1  0  0  0  0
  2  1  2  0  0  0  0
  3  4  2  0  0  0  0
  4  5  1  0  0  0  0
  5  9  1  0  0  0  0
  6  5  2  0  0  0  0
  7  1  1  0  0  0  0
  8  3  1  0  0  0  0
  9 11  1  0  0  0  0
  9 12  1  0  0  0  0
  9 10  1  0  0  0  0
 12 16  1  0  0  0  0
 12 13  1  0  0  0  0
 14 12  1  0  0  0  0
 15 26  2  0  0  0  0
 15 16  1  0  0  0  0
 16 17  2  0  0  0  0
 17 19  1  0  0  0  0
 17 18  1  0  0  0  0
 19 20  1  0  0  0  0
 20 21  1  0  0  0  0
 22 20  1  0  0  0  0
 23 22  2  0  0  0  0
 24 23  1  0  0  0  0
 25 23  1  0  0  0  0
 25 19  2  0  0  0  0
 26 25  1  0  0  0  0
 27  2  1  0  0  0  0
 28 27  2  0  0  0  0
 29 34  1  0  0  0  0
 29 28  1  0  0  0  0
 30 29  1  0  0  0  0
 31 29  1  0  0  0  0
 32 33  1  0  0  0  0
 33 38  2  0  0  0  0
 33 34  1  0  0  0  0
 34 35  2  0  0  0  0
 35 36  1  0  0  0  0
 35 39  1  0  0  0  0
 36 40  1  0  0  0  0
 37 41  1  0  0  0  0
 37 36  2  0  0  0  0
 38 37  1  0  0  0  0
 42 38  1  0  0  0  0
M  END
>  <minimizedAffinity>
-6.7335887

$$$$

 OpenBabel03242517203D

 42 45  0  0  0  0  0  0  0  0999 V2000
   40.1690   30.3090   40.2860 C   0  0  0  0  0  0  0  0  0  0  0  0
   38.9890   30.6290   41.0020 C   0  0  0  0  0  0  0  0  0  0  0  0
   38.5620   31.9320   40.9820 C   0  0  0  0  0  0  0  0  0  0  0  0
   39.3020   32.8340   40.2740 N   0  0  0  0  0  0  0  0  0  0  0  0
   40.4130   32.5130   39.6030 C   0  0  0  0  0  0  0  0  0  0  0  0
   40.8300   31.2480   39.6210 N   0  0  0  0  0  0  0  0  0  0  0  0
   40.5230   29.2740   40.2920 H   0  0  0  0  0  0  0  0  0  0  0  0
   37.6730   32.1690   41.5220 H   0  0  0  0  0  0  0  0  0  0  0  0
   41.2210   33.4580   38.8390 C   0  0  0  0  0  0  0  0  0  0  0  0
   40.8280   33.5480   37.7850 H   0  0  0  0  0  0  0  0  0  0  0  0
   42.2610   33.1550   38.7510 H   0  0  0  0  0  0  0  0  0  0  0  0
   41.0730   34.8660   39.4110 C   0  0  0  0  0  0  0  0  0  0  0  0
   41.1880   35.6320   38.6450 H   0  0  0  0  0  0  0  0  0  0  0  0
   40.1300   34.9020   39.9810 H   0  0  0  0  0  0  0  0  0  0  0  0
   43.3630   34.2840   40.3200 C   0  0  0  0  0  3  0  0  0  0  0  0
   42.1740   34.9690   40.4370 C   0  0  0  0  0  0  0  0  0  0  0  0
   42.0210   35.7800   41.5590 C   0  0  0  0  0  0  0  0  0  0  0  0
   41.1000   36.3260   41.6720 H   0  0  0  0  0  0  0  0  0  0  0  0
   43.0200   35.8780   42.4960 C   0  0  0  0  0  0  0  0  0  0  0  0
   43.0660   36.5970   43.6370 N   0  0  0  0  0  0  0  0  0  0  0  0
   42.3820   37.2390   44.0830 H   0  0  0  0  0  0  0  0  0  0  0  0
   44.2290   36.3830   44.2230 N   0  0  0  0  0  0  0  0  0  0  0  0
   44.9550   35.5210   43.4730 C   0  0  0  0  0  0  0  0  0  0  0  0
   45.9480   35.0790   43.5770 H   0  0  0  0  0  0  0  0  0  0  0  0
   44.2010   35.1810   42.3560 C   0  0  0  0  0  0  0  0  0  0  0  0
   44.3750   34.3680   41.2460 C   0  0  0  0  0  3  0  0  0  0  0  0
   38.2610   29.5840   41.7360 C   0  0  0  0  0  3  0  0  0  0  0  0
   38.4720   29.2620   42.9900 C   0  0  0  0  0  3  0  0  0  0  0  0
   37.7170   28.1970   43.7050 C   0  0  0  0  0  0  0  0  0  0  0  0
   36.6420   28.4080   43.5540 H   0  0  0  0  0  0  0  0  0  0  0  0
   37.9280   28.3170   44.7790 H   0  0  0  0  0  0  0  0  0  0  0  0
   40.0650   26.8520   44.4300 F   0  0  0  0  0  0  0  0  0  0  0  0
   39.2180   26.2440   43.5790 C   0  0  0  0  0  0  0  0  0  0  0  0
   38.0400   26.8740   43.1890 C   0  0  0  0  0  0  0  0  0  0  0  0
   37.2730   26.1410   42.3180 C   0  0  0  0  0  0  0  0  0  0  0  0
   37.5550   24.8810   41.8120 C   0  0  0  0  0  0  0  0  0  0  0  0
   38.7520   24.3250   42.2530 C   0  0  0  0  0  0  0  0  0  0  0  0
   39.5950   24.9750   43.1250 C   0  0  0  0  0  0  0  0  0  0  0  0
   36.3370   26.5870   41.9800 H   0  0  0  0  0  0  0  0  0  0  0  0
   36.8940   24.3810   41.1340 H   0  0  0  0  0  0  0  0  0  0  0  0
   39.0550   23.3380   41.9060 H   0  0  0  0  0  0  0  0  0  0  0  0
   40.5250   24.5380   43.4650 H   0  0  0  0  0  0  0  0  0  0  0  0
  1  7  1  0  0  0  0
  1  2  1  0  0  0  0
  2 27  1  0  0  0  0
  3  2  2  0  0  0  0
  3  8  1  0  0  0  0
  4  3  1  0  0  0  0
  5  6  1  0  0  0  0
  5  4  2  0  0  0  0
  6  1  2  0  0  0  0
  9 12  1  0  0  0  0
  9  5  1  0  0  0  0
 10  9  1  0  0  0  0
 11  9  1  0  0  0  0
 12 14  1  0  0  0  0
 12 16  1  0  0  0  0
 13 12  1  0  0  0  0
 15 16  2  0  0  0  0
 15 26  1  0  0  0  0
 16 17  1  0  0  0  0
 17 18  1  0  0  0  0
 17 19  2  0  0  0  0
 19 20  1  0  0  0  0
 20 21  1  0  0  0  0
 20 22  1  0  0  0  0
 23 24  1  0  0  0  0
 23 22  2  0  0  0  0
 25 19  1  0  0  0  0
 25 23  1  0  0  0  0
 26 25  2  0  0  0  0
 27 28  2  0  0  0  0
 28 29  1  0  0  0  0
 29 31  1  0  0  0  0
 30 29  1  0  0  0  0
 33 32  1  0  0  0  0
 34 33  1  0  0  0  0
 34 29  1  0  0  0  0
 35 34  2  0  0  0  0
 36 37  2  0  0  0  0
 36 35  1  0  0  0  0
 37 38  1  0  0  0  0
 38 42  1  0  0  0  0
 38 33  2  0  0  0  0
 39 35  1  0  0  0  0
 40 36  1  0  0  0  0
 41 37  1  0  0  0  0
M  END
>  <minimizedAffinity>
-6.65029573

$$$$

 OpenBabel03242517203D

 42 45  0  0  0  0  0  0  0  0999 V2000
   36.0100   27.3780   38.9410 C   0  0  0  0  0  0  0  0  0  0  0  0
   35.2200   28.5520   39.0230 C   0  0  0  0  0  0  0  0  0  0  0  0
   35.1530   29.1940   40.2330 C   0  0  0  0  0  0  0  0  0  0  0  0
   35.8520   28.6610   41.2770 N   0  0  0  0  0  0  0  0  0  0  0  0
   36.5930   27.5530   41.1800 C   0  0  0  0  0  0  0  0  0  0  0  0
   36.6600   26.9270   40.0060 N   0  0  0  0  0  0  0  0  0  0  0  0
   36.0740   26.8540   37.9840 H   0  0  0  0  0  0  0  0  0  0  0  0
   34.5580   30.0770   40.2910 H   0  0  0  0  0  0  0  0  0  0  0  0
   37.3490   26.9630   42.2810 C   0  0  0  0  0  0  0  0  0  0  0  0
   38.4000   26.7200   41.9490 H   0  0  0  0  0  0  0  0  0  0  0  0
   36.9200   26.0310   42.6400 H   0  0  0  0  0  0  0  0  0  0  0  0
   37.5400   27.9850   43.4000 C   0  0  0  0  0  0  0  0  0  0  0  0
   36.7640   28.7510   43.3900 H   0  0  0  0  0  0  0  0  0  0  0  0
   37.6500   27.4330   44.3470 H   0  0  0  0  0  0  0  0  0  0  0  0
   40.0600   27.8690   43.1930 C   0  0  0  0  0  3  0  0  0  0  0  0
   38.8910   28.5930   43.1210 C   0  0  0  0  0  0  0  0  0  0  0  0
   39.0030   29.9380   42.7750 C   0  0  0  0  0  0  0  0  0  0  0  0
   38.1030   30.5250   42.7120 H   0  0  0  0  0  0  0  0  0  0  0  0
   40.2310   30.4980   42.5210 C   0  0  0  0  0  0  0  0  0  0  0  0
   40.5480   31.7630   42.1750 N   0  0  0  0  0  0  0  0  0  0  0  0
   39.9650   32.6090   42.0180 H   0  0  0  0  0  0  0  0  0  0  0  0
   41.8580   31.8460   42.0320 N   0  0  0  0  0  0  0  0  0  0  0  0
   42.4100   30.6360   42.2840 C   0  0  0  0  0  0  0  0  0  0  0  0
   43.4350   30.2580   42.2830 H   0  0  0  0  0  0  0  0  0  0  0  0
   41.3870   29.7510   42.5990 C   0  0  0  0  0  0  0  0  0  0  0  0
   41.2980   28.4100   42.9430 C   0  0  0  0  0  3  0  0  0  0  0  0
   34.5040   29.0470   37.8390 C   0  0  0  0  0  3  0  0  0  0  0  0
   33.4380   28.4860   37.3180 C   0  0  0  0  0  3  0  0  0  0  0  0
   32.7350   29.0140   36.1170 C   0  0  0  0  0  0  0  0  0  0  0  0
   32.2690   28.1490   35.6100 H   0  0  0  0  0  0  0  0  0  0  0  0
   33.5070   29.4140   35.4410 H   0  0  0  0  0  0  0  0  0  0  0  0
   31.9750   31.0850   34.3890 F   0  0  0  0  0  0  0  0  0  0  0  0
   31.3680   30.9980   35.5870 C   0  0  0  0  0  0  0  0  0  0  0  0
   31.7140   29.9860   36.4790 C   0  0  0  0  0  0  0  0  0  0  0  0
   31.0170   30.0180   37.6610 C   0  0  0  0  0  0  0  0  0  0  0  0
   30.0390   30.9300   38.0320 C   0  0  0  0  0  0  0  0  0  0  0  0
   29.7560   31.9070   37.0820 C   0  0  0  0  0  0  0  0  0  0  0  0
   30.3970   31.9660   35.8650 C   0  0  0  0  0  0  0  0  0  0  0  0
   31.2470   29.2470   38.3970 H   0  0  0  0  0  0  0  0  0  0  0  0
   29.5450   30.8780   38.9800 H   0  0  0  0  0  0  0  0  0  0  0  0
   29.0030   32.6650   37.2890 H   0  0  0  0  0  0  0  0  0  0  0  0
   30.1730   32.7280   35.1310 H   0  0  0  0  0  0  0  0  0  0  0  0
  1  2  2  0  0  0  0
  1  6  1  0  0  0  0
  2  3  1  0  0  0  0
  3  8  1  0  0  0  0
  3  4  2  0  0  0  0
  5  4  1  0  0  0  0
  5  9  1  0  0  0  0
  6  5  2  0  0  0  0
  7  1  1  0  0  0  0
  9 11  1  0  0  0  0
  9 12  1  0  0  0  0
 10  9  1  0  0  0  0
 12 14  1  0  0  0  0
 13 12  1  0  0  0  0
 16 15  1  0  0  0  0
 16 12  1  0  0  0  0
 17 16  2  0  0  0  0
 18 17  1  0  0  0  0
 19 25  2  0  0  0  0
 19 17  1  0  0  0  0
 20 19  1  0  0  0  0
 21 20  1  0  0  0  0
 22 20  1  0  0  0  0
 22 23  2  0  0  0  0
 23 25  1  0  0  0  0
 24 23  1  0  0  0  0
 25 26  1  0  0  0  0
 26 15  2  0  0  0  0
 27  2  1  0  0  0  0
 28 27  2  0  0  0  0
 29 34  1  0  0  0  0
 29 28  1  0  0  0  0
 30 29  1  0  0  0  0
 31 29  1  0  0  0  0
 32 33  1  0  0  0  0
 33 38  2  0  0  0  0
 33 34  1  0  0  0  0
 34 35  2  0  0  0  0
 35 36  1  0  0  0  0
 35 39  1  0  0  0  0
 36 40  1  0  0  0  0
 37 41  1  0  0  0  0
 37 36  2  0  0  0  0
 38 37  1  0  0  0  0
 42 38  1  0  0  0  0
M  END
>  <minimizedAffinity>
-6.5902133

$$$$

 OpenBabel03242517203D

 42 45  0  0  0  0  0  0  0  0999 V2000
   40.3700   32.0920   39.3790 C   0  0  0  0  0  0  0  0  0  0  0  0
   40.4570   33.3860   39.9500 C   0  0  0  0  0  0  0  0  0  0  0  0
   39.2960   33.9710   40.3870 C   0  0  0  0  0  0  0  0  0  0  0  0
   38.1350   33.2680   40.2440 N   0  0  0  0  0  0  0  0  0  0  0  0
   38.0730   32.0470   39.7030 C   0  0  0  0  0  0  0  0  0  0  0  0
   39.2000   31.4760   39.2780 N   0  0  0  0  0  0  0  0  0  0  0  0
   41.2870   31.6110   39.0260 H   0  0  0  0  0  0  0  0  0  0  0  0
   39.3650   34.9450   40.8160 H   0  0  0  0  0  0  0  0  0  0  0  0
   36.8450   31.2760   39.5380 C   0  0  0  0  0  0  0  0  0  0  0  0
   37.0760   30.2550   39.1160 H   0  0  0  0  0  0  0  0  0  0  0  0
   36.1420   31.7380   38.8500 H   0  0  0  0  0  0  0  0  0  0  0  0
   36.2180   30.9810   40.8990 C   0  0  0  0  0  0  0  0  0  0  0  0
   36.5370   31.6940   41.6590 H   0  0  0  0  0  0  0  0  0  0  0  0
   35.1290   30.8920   40.7580 H   0  0  0  0  0  0  0  0  0  0  0  0
   36.2290   28.4670   40.6010 C   0  0  0  0  0  3  0  0  0  0  0  0
   36.7010   29.5920   41.2380 C   0  0  0  0  0  0  0  0  0  0  0  0
   37.6610   29.4000   42.2290 C   0  0  0  0  0  0  0  0  0  0  0  0
   38.0460   30.2660   42.7410 H   0  0  0  0  0  0  0  0  0  0  0  0
   38.1040   28.1390   42.5410 C   0  0  0  0  0  0  0  0  0  0  0  0
   39.0160   27.7470   43.4560 N   0  0  0  0  0  0  0  0  0  0  0  0
   39.5960   28.2800   44.1340 H   0  0  0  0  0  0  0  0  0  0  0  0
   39.1230   26.4320   43.4070 N   0  0  0  0  0  0  0  0  0  0  0  0
   38.2820   25.9510   42.4610 C   0  0  0  0  0  0  0  0  0  0  0  0
   38.0510   24.9490   42.0940 H   0  0  0  0  0  0  0  0  0  0  0  0
   37.6160   27.0280   41.8890 C   0  0  0  0  0  0  0  0  0  0  0  0
   36.6590   27.1960   40.8990 C   0  0  0  0  0  3  0  0  0  0  0  0
   41.7570   34.0610   40.0600 C   0  0  0  0  0  3  0  0  0  0  0  0
   42.6990   33.7400   40.9150 C   0  0  0  0  0  3  0  0  0  0  0  0
   44.0070   34.4460   41.0010 C   0  0  0  0  0  0  0  0  0  0  0  0
   43.9770   35.2730   40.2690 H   0  0  0  0  0  0  0  0  0  0  0  0
   44.7800   33.7360   40.6640 H   0  0  0  0  0  0  0  0  0  0  0  0
   42.5180   36.5810   42.0370 F   0  0  0  0  0  0  0  0  0  0  0  0
   43.4770   36.0370   42.8090 C   0  0  0  0  0  0  0  0  0  0  0  0
   44.2430   34.9750   42.3370 C   0  0  0  0  0  0  0  0  0  0  0  0
   45.1820   34.5210   43.2290 C   0  0  0  0  0  0  0  0  0  0  0  0
   45.4270   35.0040   44.5060 C   0  0  0  0  0  0  0  0  0  0  0  0
   44.6170   36.0660   44.8970 C   0  0  0  0  0  0  0  0  0  0  0  0
   43.6450   36.5980   44.0810 C   0  0  0  0  0  0  0  0  0  0  0  0
   45.8100   33.6880   42.9110 H   0  0  0  0  0  0  0  0  0  0  0  0
   46.1850   34.5860   45.1350 H   0  0  0  0  0  0  0  0  0  0  0  0
   44.7400   36.5100   45.8840 H   0  0  0  0  0  0  0  0  0  0  0  0
   43.0180   37.4240   44.3900 H   0  0  0  0  0  0  0  0  0  0  0  0
  1  2  1  0  0  0  0
  2 27  1  0  0  0  0
  2  3  2  0  0  0  0
  3  8  1  0  0  0  0
  4  3  1  0  0  0  0
  5  4  2  0  0  0  0
  6  1  2  0  0  0  0
  6  5  1  0  0  0  0
  7  1  1  0  0  0  0
  9  5  1  0  0  0  0
  9 12  1  0  0  0  0
 10  9  1  0  0  0  0
 11  9  1  0  0  0  0
 12 16  1  0  0  0  0
 12 13  1  0  0  0  0
 14 12  1  0  0  0  0
 15 26  2  0  0  0  0
 15 16  1  0  0  0  0
 16 17  2  0  0  0  0
 17 19  1  0  0  0  0
 17 18  1  0  0  0  0
 19 20  1  0  0  0  0
 20 21  1  0  0  0  0
 22 20  1  0  0  0  0
 23 22  2  0  0  0  0
 24 23  1  0  0  0  0
 25 23  1  0  0  0  0
 25 19  2  0  0  0  0
 26 25  1  0  0  0  0
 27 28  2  0  0  0  0
 28 29  1  0  0  0  0
 29 34  1  0  0  0  0
 30 29  1  0  0  0  0
 31 29  1  0  0  0  0
 32 33  1  0  0  0  0
 33 38  1  0  0  0  0
 34 33  2  0  0  0  0
 34 35  1  0  0  0  0
 35 36  2  0  0  0  0
 36 37  1  0  0  0  0
 36 40  1  0  0  0  0
 37 41  1  0  0  0  0
 38 42  1  0  0  0  0
 38 37  2  0  0  0  0
 39 35  1  0  0  0  0
M  END
>  <minimizedAffinity>
-6.56426764

$$$$

 OpenBabel03242517203D

 42 45  0  0  0  0  0  0  0  0999 V2000
   36.1900   29.9840   38.2110 C   0  0  0  0  0  0  0  0  0  0  0  0
   35.3250   29.0550   38.8420 C   0  0  0  0  0  0  0  0  0  0  0  0
   35.7900   28.4020   39.9540 C   0  0  0  0  0  0  0  0  0  0  0  0
   37.0540   28.6900   40.3800 N   0  0  0  0  0  0  0  0  0  0  0  0
   37.8560   29.5700   39.7720 C   0  0  0  0  0  0  0  0  0  0  0  0
   37.4060   30.2060   38.6910 N   0  0  0  0  0  0  0  0  0  0  0  0
   35.8340   30.5130   37.3230 H   0  0  0  0  0  0  0  0  0  0  0  0
   35.1360   27.7040   40.4270 H   0  0  0  0  0  0  0  0  0  0  0  0
   39.2110   29.8940   40.2070 C   0  0  0  0  0  0  0  0  0  0  0  0
   39.7100   30.5760   39.4590 H   0  0  0  0  0  0  0  0  0  0  0  0
   39.8500   29.0200   40.2950 H   0  0  0  0  0  0  0  0  0  0  0  0
   39.1720   30.7180   41.4920 C   0  0  0  0  0  0  0  0  0  0  0  0
   38.1590   30.8170   41.8830 H   0  0  0  0  0  0  0  0  0  0  0  0
   39.9110   30.2930   42.1890 H   0  0  0  0  0  0  0  0  0  0  0  0
   41.0690   32.3240   41.0110 C   0  0  0  0  0  3  0  0  0  0  0  0
   39.7180   32.0650   41.0880 C   0  0  0  0  0  0  0  0  0  0  0  0
   38.8550   33.1120   40.7720 C   0  0  0  0  0  0  0  0  0  0  0  0
   37.7950   32.9330   40.8250 H   0  0  0  0  0  0  0  0  0  0  0  0
   39.3470   34.3390   40.4040 C   0  0  0  0  0  0  0  0  0  0  0  0
   38.6880   35.4670   40.0650 N   0  0  0  0  0  0  0  0  0  0  0  0
   37.6750   35.6880   39.9980 H   0  0  0  0  0  0  0  0  0  0  0  0
   39.5740   36.4050   39.7840 N   0  0  0  0  0  0  0  0  0  0  0  0
   40.8210   35.9000   39.9370 C   0  0  0  0  0  0  0  0  0  0  0  0
   41.8240   36.3140   39.8130 H   0  0  0  0  0  0  0  0  0  0  0  0
   40.7040   34.5740   40.3340 C   0  0  0  0  0  0  0  0  0  0  0  0
   41.5810   33.5450   40.6440 C   0  0  0  0  0  3  0  0  0  0  0  0
   33.9780   28.8150   38.3050 C   0  0  0  0  0  3  0  0  0  0  0  0
   33.5920   29.1080   37.0860 C   0  0  0  0  0  3  0  0  0  0  0  0
   32.2190   28.8510   36.5730 C   0  0  0  0  0  0  0  0  0  0  0  0
   31.7190   28.1930   37.3070 H   0  0  0  0  0  0  0  0  0  0  0  0
   32.3250   28.2800   35.6370 H   0  0  0  0  0  0  0  0  0  0  0  0
   30.7230   29.9460   38.6740 F   0  0  0  0  0  0  0  0  0  0  0  0
   30.7360   30.5940   37.4950 C   0  0  0  0  0  0  0  0  0  0  0  0
   31.4640   30.0870   36.4220 C   0  0  0  0  0  0  0  0  0  0  0  0
   31.3870   30.8480   35.2830 C   0  0  0  0  0  0  0  0  0  0  0  0
   30.6780   32.0280   35.1100 C   0  0  0  0  0  0  0  0  0  0  0  0
   29.9790   32.4630   36.2320 C   0  0  0  0  0  0  0  0  0  0  0  0
   29.9880   31.7750   37.4250 C   0  0  0  0  0  0  0  0  0  0  0  0
   31.9400   30.4980   34.4100 H   0  0  0  0  0  0  0  0  0  0  0  0
   30.6760   32.5580   34.1800 H   0  0  0  0  0  0  0  0  0  0  0  0
   29.3940   33.3790   36.1880 H   0  0  0  0  0  0  0  0  0  0  0  0
   29.4420   32.1170   38.2940 H   0  0  0  0  0  0  0  0  0  0  0  0
  1  6  2  0  0  0  0
  1  2  1  0  0  0  0
  2  3  2  0  0  0  0
  3  4  1  0  0  0  0
  3  8  1  0  0  0  0
  5  9  1  0  0  0  0
  5  4  2  0  0  0  0
  6  5  1  0  0  0  0
  7  1  1  0  0  0  0
  9 11  1  0  0  0  0
  9 12  1  0  0  0  0
 10  9  1  0  0  0  0
 12 13  1  0  0  0  0
 12 14  1  0  0  0  0
 15 16  1  0  0  0  0
 16 12  1  0  0  0  0
 17 18  1  0  0  0  0
 17 16  2  0  0  0  0
 19 17  1  0  0  0  0
 20 19  1  0  0  0  0
 21 20  1  0  0  0  0
 22 23  2  0  0  0  0
 22 20  1  0  0  0  0
 23 25  1  0  0  0  0
 24 23  1  0  0  0  0
 25 19  2  0  0  0  0
 25 26  1  0  0  0  0
 26 15  2  0  0  0  0
 27  2  1  0  0  0  0
 28 27  2  0  0  0  0
 29 28  1  0  0  0  0
 29 30  1  0  0  0  0
 31 29  1  0  0  0  0
 33 32  1  0  0  0  0
 34 29  1  0  0  0  0
 34 33  2  0  0  0  0
 35 34  1  0  0  0  0
 36 35  2  0  0  0  0
 36 37  1  0  0  0  0
 37 38  2  0  0  0  0
 38 33  1  0  0  0  0
 38 42  1  0  0  0  0
 39 35  1  0  0  0  0
 40 36  1  0  0  0  0
 41 37  1  0  0  0  0
M  END
>  <minimizedAffinity>
-6.54796505

$$$$
