
 OpenBabel03242512103D

 44 48  0  0  1  0  0  0  0  0999 V2000
   49.1250   32.7280   42.5010 O   0  0  0  0  0  0  0  0  0  0  0  0
   48.8100   34.2150   42.5460 P   0  0  2  0  0  0  0  0  0  0  0  0
   50.0930   35.1100   43.0730 O   0  0  0  0  0  0  0  0  0  0  0  0
   49.9820   35.5290   43.9420 H   0  0  0  0  0  0  0  0  0  0  0  0
   47.3880   34.3870   43.4450 O   0  0  0  0  0  0  0  0  0  0  0  0
   46.1200   32.3900   44.1350 C   0  0  1  0  0  0  0  0  0  0  0  0
   46.2890   33.4270   45.3180 C   0  0  0  0  0  0  0  0  0  0  0  0
   47.2880   33.2910   44.2840 C   0  0  2  0  0  0  0  0  0  0  0  0
   45.3470   32.6640   43.4240 H   0  0  0  0  0  0  0  0  0  0  0  0
   45.5520   34.2570   45.3030 H   0  0  0  0  0  0  0  0  0  0  0  0
   46.3800   32.9940   46.3340 H   0  0  0  0  0  0  0  0  0  0  0  0
   48.2200   32.7070   44.3310 H   0  0  0  0  0  0  0  0  0  0  0  0
   46.2060   30.9830   44.6270 C   0  0  0  0  0  0  0  0  0  0  0  0
   45.2040   30.2880   44.5210 O   0  0  0  0  0  0  0  0  0  0  0  0
   47.5930   30.2790   46.5230 C   0  0  0  0  0  0  0  0  0  0  0  0
   47.3590   30.3920   45.2050 C   0  0  0  0  0  0  0  0  0  0  0  0
   48.3720   29.8620   44.3380 C   0  0  0  0  0  0  0  0  0  0  0  0
   49.4890   29.2880   44.8410 N   0  0  0  0  0  0  0  0  0  0  0  0
   49.6680   29.2040   46.1830 C   0  0  0  0  0  0  0  0  0  0  0  0
   48.7390   29.6890   46.9920 N   0  0  0  0  0  0  0  0  0  0  0  0
   46.8230   30.6810   47.1800 H   0  0  0  0  0  0  0  0  0  0  0  0
   48.3270   29.8680   43.2640 H   0  0  0  0  0  0  0  0  0  0  0  0
   50.5150   28.7700   46.6970 H   0  0  0  0  0  0  0  0  0  0  0  0
   48.4150   34.5980   40.8970 O   0  0  0  0  0  0  0  0  0  0  0  0
   47.3100   34.1100   40.2400 C   0  0  0  0  0  0  0  0  0  0  0  0
   46.0110   33.9520   40.7100 C   0  0  0  0  0  0  0  0  0  0  0  0
   45.0300   33.4390   39.8820 C   0  0  0  0  0  0  0  0  0  0  0  0
   45.3610   33.0970   38.6140 N   0  0  0  0  0  0  0  0  0  0  0  0
   46.6110   33.2450   38.1520 C   0  0  0  0  0  0  0  0  0  0  0  0
   47.6060   33.7510   38.9500 N   0  0  0  0  0  0  0  0  0  0  0  0
   45.8820   34.2600   41.7260 H   0  0  0  0  0  0  0  0  0  0  0  0
   44.0340   33.3350   40.2910 H   0  0  0  0  0  0  0  0  0  0  0  0
   45.8970   32.3940   35.9210 C   0  0  0  0  0  0  0  0  0  0  0  0
   46.8840   32.8510   36.7710 C   0  0  0  0  0  0  0  0  0  0  0  0
   48.1660   32.9420   36.3200 C   0  0  0  0  0  0  0  0  0  0  0  0
   48.9810   33.2950   36.9490 H   0  0  0  0  0  0  0  0  0  0  0  0
   48.4390   32.5670   34.9990 C   0  0  0  0  0  0  0  0  0  0  0  0
   49.6280   32.5800   34.3560 N   0  0  0  0  0  0  0  0  0  0  0  0
   50.5730   32.8650   34.7020 H   0  0  0  0  0  0  0  0  0  0  0  0
   49.4330   32.1440   33.1190 N   0  0  0  0  0  0  0  0  0  0  0  0
   48.1260   31.8510   32.9590 C   0  0  0  0  0  0  0  0  0  0  0  0
   47.6370   31.4770   32.0770 H   0  0  0  0  0  0  0  0  0  0  0  0
   47.4610   32.1090   34.1400 C   0  0  0  0  0  0  0  0  0  0  0  0
   46.1710   32.0220   34.6120 C   0  0  0  0  0  0  0  0  0  0  0  0
  2  1  2  1  0  0  0
  2  3  1  0  0  0  0
  2  5  1  0  0  0  0
  3  4  1  0  0  0  0
  5  8  1  0  0  0  0
  6  9  1  6  0  0  0
  6  8  1  0  0  0  0
  6 13  1  0  0  0  0
  6  7  1  0  0  0  0
  7 11  1  0  0  0  0
  8 12  1  1  0  0  0
  8  7  1  0  0  0  0
 10  7  1  0  0  0  0
 13 16  1  0  0  0  0
 14 13  2  0  0  0  0
 15 20  1  0  0  0  0
 15 21  1  0  0  0  0
 16 15  2  0  0  0  0
 17 18  2  0  0  0  0
 17 16  1  0  0  0  0
 18 19  1  0  0  0  0
 19 23  1  0  0  0  0
 19 20  2  0  0  0  0
 22 17  1  0  0  0  0
 24  2  1  0  0  0  0
 25 26  1  0  0  0  0
 25 24  1  0  0  0  0
 26 31  1  0  0  0  0
 27 32  1  0  0  0  0
 27 26  2  0  0  0  0
 28 27  1  0  0  0  0
 29 28  2  0  0  0  0
 29 30  1  0  0  0  0
 30 25  2  0  0  0  0
 33 34  1  0  0  0  0
 34 29  1  0  0  0  0
 35 34  2  0  0  0  0
 35 36  1  0  0  0  0
 37 35  1  0  0  0  0
 38 39  1  0  0  0  0
 38 37  1  0  0  0  0
 40 38  1  0  0  0  0
 41 40  2  0  0  0  0
 41 43  1  0  0  0  0
 42 41  1  0  0  0  0
 43 44  1  0  0  0  0
 43 37  2  0  0  0  0
 44 33  2  0  0  0  0
M  END
>  <minimizedAffinity>
-5.83399534

>  <minimizedRMSD>
7.40216398

$$$$
