
 OpenBabel03252506583D

 41 46  0  0  0  0  0  0  0  0999 V2000
   36.9490   25.8510   40.6700 C   0  0  0  0  0  0  0  0  0  0  0  0
   37.3630   24.5630   40.9620 C   0  0  0  0  0  0  0  0  0  0  0  0
   38.2920   24.2830   41.9340 C   0  0  0  0  0  0  0  0  0  0  0  0
   38.8600   25.3190   42.6750 C   0  0  0  0  0  0  0  0  0  0  0  0
   39.7750   25.4160   43.6780 N   0  0  0  0  0  0  0  0  0  0  0  0
   39.9220   26.7260   43.9960 C   0  0  0  0  0  0  0  0  0  0  0  0
   39.0930   27.4250   43.1830 N   0  0  0  0  0  0  0  0  0  0  0  0
   38.4310   26.5790   42.3640 C   0  0  0  0  0  0  0  0  0  0  0  0
   37.5040   26.8970   41.3990 C   0  0  0  0  0  0  0  0  0  0  0  0
   36.2150   26.0590   39.9000 H   0  0  0  0  0  0  0  0  0  0  0  0
   38.6300   23.2740   42.1760 H   0  0  0  0  0  0  0  0  0  0  0  0
   40.2380   24.5770   44.0760 H   0  0  0  0  0  0  0  0  0  0  0  0
   40.5850   27.0790   44.7570 H   0  0  0  0  0  0  0  0  0  0  0  0
   37.0380   21.3550   39.1790 C   0  0  0  0  0  0  0  0  0  0  0  0
   35.7000   21.3590   38.8050 C   0  0  0  0  0  0  0  0  0  0  0  0
   34.9100   22.4480   39.1570 C   0  0  0  0  0  0  0  0  0  0  0  0
   35.4870   23.4750   39.8600 N   0  0  0  0  0  0  0  0  0  0  0  0
   36.7970   23.4440   40.2120 C   0  0  0  0  0  0  0  0  0  0  0  0
   37.5580   22.3980   39.8750 N   0  0  0  0  0  0  0  0  0  0  0  0
   37.6330   20.4910   38.8910 H   0  0  0  0  0  0  0  0  0  0  0  0
   35.2330   20.5510   38.2480 H   0  0  0  0  0  0  0  0  0  0  0  0
   33.8540   22.5320   38.9030 H   0  0  0  0  0  0  0  0  0  0  0  0
   37.1190   28.2840   41.1510 C   0  0  0  0  0  0  0  0  0  0  0  0
   35.8120   28.7240   41.0550 C   0  0  0  0  0  0  0  0  0  0  0  0
   35.9370   30.0960   40.8170 C   0  0  0  0  0  0  0  0  0  0  0  0
   37.2790   30.4020   40.7820 C   0  0  0  0  0  0  0  0  0  0  0  0
   37.9440   29.2860   40.9860 O   0  0  0  0  0  0  0  0  0  0  0  0
   34.8890   28.1670   41.1390 H   0  0  0  0  0  0  0  0  0  0  0  0
   35.1400   30.8170   40.6790 H   0  0  0  0  0  0  0  0  0  0  0  0
   37.1460   32.6840   39.9270 C   0  0  0  0  0  3  0  0  0  0  0  0
   37.8960   31.7050   40.5630 C   0  0  0  0  0  0  0  0  0  0  0  0
   39.1880   31.9510   40.9780 C   0  0  0  0  0  0  0  0  0  0  0  0
   39.7900   31.2050   41.4750 H   0  0  0  0  0  0  0  0  0  0  0  0
   39.7270   33.2090   40.7430 C   0  0  0  0  0  0  0  0  0  0  0  0
   40.9660   33.6900   41.0550 N   0  0  0  0  0  0  0  0  0  0  0  0
   41.7490   33.1930   41.5340 H   0  0  0  0  0  0  0  0  0  0  0  0
   41.0370   34.9520   40.6370 N   0  0  0  0  0  0  0  0  0  0  0  0
   39.8730   35.3040   40.0610 C   0  0  0  0  0  0  0  0  0  0  0  0
   39.5660   36.2530   39.6070 H   0  0  0  0  0  0  0  0  0  0  0  0
   39.0140   34.2270   40.1070 C   0  0  0  0  0  0  0  0  0  0  0  0
   37.7300   33.9170   39.7180 C   0  0  0  0  0  3  0  0  0  0  0  0
  1  2  2  0  0  0  0
  1  9  1  0  0  0  0
  2  3  1  0  0  0  0
  3 11  1  0  0  0  0
  3  4  2  0  0  0  0
  4  5  1  0  0  0  0
  5  6  1  0  0  0  0
  5 12  1  0  0  0  0
  6 13  1  0  0  0  0
  7  6  2  0  0  0  0
  8  4  1  0  0  0  0
  8  7  1  0  0  0  0
  9  8  2  0  0  0  0
 10  1  1  0  0  0  0
 14 19  1  0  0  0  0
 15 16  1  0  0  0  0
 15 14  2  0  0  0  0
 16 17  2  0  0  0  0
 17 18  1  0  0  0  0
 18  2  1  0  0  0  0
 19 18  2  0  0  0  0
 20 14  1  0  0  0  0
 21 15  1  0  0  0  0
 22 16  1  0  0  0  0
 23  9  1  0  0  0  0
 24 28  1  0  0  0  0
 24 23  2  0  0  0  0
 25 24  1  0  0  0  0
 26 25  2  0  0  0  0
 26 27  1  0  0  0  0
 27 23  1  0  0  0  0
 29 25  1  0  0  0  0
 30 31  1  0  0  0  0
 31 26  1  0  0  0  0
 31 32  2  0  0  0  0
 32 33  1  0  0  0  0
 34 32  1  0  0  0  0
 34 35  1  0  0  0  0
 35 36  1  0  0  0  0
 37 35  1  0  0  0  0
 38 40  1  0  0  0  0
 38 37  2  0  0  0  0
 39 38  1  0  0  0  0
 40 34  2  0  0  0  0
 41 30  2  0  0  0  0
 41 40  1  0  0  0  0
M  END
>  <minimizedAffinity>
-7.60177517

$$$$

 OpenBabel03252506583D

 41 46  0  0  0  0  0  0  0  0999 V2000
   36.5220   30.5380   38.7830 C   0  0  0  0  0  0  0  0  0  0  0  0
   35.6560   29.4590   38.7990 C   0  0  0  0  0  0  0  0  0  0  0  0
   35.5260   28.6250   39.8820 C   0  0  0  0  0  0  0  0  0  0  0  0
   36.2870   28.8490   41.0290 C   0  0  0  0  0  0  0  0  0  0  0  0
   36.4200   28.2540   42.2460 N   0  0  0  0  0  0  0  0  0  0  0  0
   37.3420   28.9450   42.9610 C   0  0  0  0  0  0  0  0  0  0  0  0
   37.7690   29.9630   42.1740 N   0  0  0  0  0  0  0  0  0  0  0  0
   37.1340   29.9220   40.9820 C   0  0  0  0  0  0  0  0  0  0  0  0
   37.2890   30.7780   39.9170 C   0  0  0  0  0  0  0  0  0  0  0  0
   36.6150   31.1890   37.9220 H   0  0  0  0  0  0  0  0  0  0  0  0
   34.8490   27.7700   39.9110 H   0  0  0  0  0  0  0  0  0  0  0  0
   35.8700   27.4130   42.5040 H   0  0  0  0  0  0  0  0  0  0  0  0
   37.6350   28.6860   43.9560 H   0  0  0  0  0  0  0  0  0  0  0  0
   32.7730   28.6360   36.6570 C   0  0  0  0  0  0  0  0  0  0  0  0
   33.3300   28.6720   35.3840 C   0  0  0  0  0  0  0  0  0  0  0  0
   34.6820   28.9740   35.2530 C   0  0  0  0  0  0  0  0  0  0  0  0
   35.4080   29.2260   36.3890 N   0  0  0  0  0  0  0  0  0  0  0  0
   34.8370   29.1830   37.6200 C   0  0  0  0  0  0  0  0  0  0  0  0
   33.5390   28.8930   37.7470 N   0  0  0  0  0  0  0  0  0  0  0  0
   31.7140   28.3960   36.7310 H   0  0  0  0  0  0  0  0  0  0  0  0
   32.7640   28.4740   34.4790 H   0  0  0  0  0  0  0  0  0  0  0  0
   35.1970   29.0230   34.2950 H   0  0  0  0  0  0  0  0  0  0  0  0
   38.2270   31.8960   39.9790 C   0  0  0  0  0  0  0  0  0  0  0  0
   37.8500   33.2260   40.0220 C   0  0  0  0  0  0  0  0  0  0  0  0
   39.0650   33.9160   40.0730 C   0  0  0  0  0  0  0  0  0  0  0  0
   40.0830   32.9890   40.0580 C   0  0  0  0  0  0  0  0  0  0  0  0
   39.5310   31.7970   40.0010 O   0  0  0  0  0  0  0  0  0  0  0  0
   36.8620   33.6640   40.0190 H   0  0  0  0  0  0  0  0  0  0  0  0
   39.2130   34.9880   40.1170 H   0  0  0  0  0  0  0  0  0  0  0  0
   42.2160   32.8610   41.2380 C   0  0  0  0  0  3  0  0  0  0  0  0
   41.5200   33.2340   40.0960 C   0  0  0  0  0  0  0  0  0  0  0  0
   42.1640   33.8190   39.0260 C   0  0  0  0  0  0  0  0  0  0  0  0
   41.6440   34.1160   38.1280 H   0  0  0  0  0  0  0  0  0  0  0  0
   43.5330   34.0290   39.1160 C   0  0  0  0  0  0  0  0  0  0  0  0
   44.3840   34.5840   38.2030 N   0  0  0  0  0  0  0  0  0  0  0  0
   44.1580   34.9570   37.2550 H   0  0  0  0  0  0  0  0  0  0  0  0
   45.6090   34.5790   38.7230 N   0  0  0  0  0  0  0  0  0  0  0  0
   45.5770   34.0350   39.9540 C   0  0  0  0  0  0  0  0  0  0  0  0
   46.3830   33.8660   40.6750 H   0  0  0  0  0  0  0  0  0  0  0  0
   44.2780   33.6720   40.2420 C   0  0  0  0  0  0  0  0  0  0  0  0
   43.5760   33.0930   41.2750 C   0  0  0  0  0  3  0  0  0  0  0  0
  1  2  2  0  0  0  0
  1  9  1  0  0  0  0
  2  3  1  0  0  0  0
  3 11  1  0  0  0  0
  3  4  2  0  0  0  0
  4  5  1  0  0  0  0
  5 12  1  0  0  0  0
  5  6  1  0  0  0  0
  6 13  1  0  0  0  0
  7  6  2  0  0  0  0
  8  4  1  0  0  0  0
  8  7  1  0  0  0  0
  9 23  1  0  0  0  0
  9  8  2  0  0  0  0
 10  1  1  0  0  0  0
 14 20  1  0  0  0  0
 14 19  1  0  0  0  0
 15 14  2  0  0  0  0
 16 15  1  0  0  0  0
 16 17  2  0  0  0  0
 17 18  1  0  0  0  0
 18 19  2  0  0  0  0
 18  2  1  0  0  0  0
 21 15  1  0  0  0  0
 22 16  1  0  0  0  0
 23 27  1  0  0  0  0
 23 24  2  0  0  0  0
 24 25  1  0  0  0  0
 25 29  1  0  0  0  0
 26 25  2  0  0  0  0
 26 31  1  0  0  0  0
 27 26  1  0  0  0  0
 28 24  1  0  0  0  0
 30 41  1  0  0  0  0
 31 30  2  0  0  0  0
 32 34  2  0  0  0  0
 32 31  1  0  0  0  0
 33 32  1  0  0  0  0
 34 40  1  0  0  0  0
 35 37  1  0  0  0  0
 35 34  1  0  0  0  0
 36 35  1  0  0  0  0
 37 38  2  0  0  0  0
 38 40  1  0  0  0  0
 38 39  1  0  0  0  0
 40 41  2  0  0  0  0
M  END
>  <minimizedAffinity>
-6.9782815

$$$$

 OpenBabel03252506583D

 41 46  0  0  0  0  0  0  0  0999 V2000
   41.0970   32.1870   41.2210 C   0  0  0  0  0  0  0  0  0  0  0  0
   41.4580   33.4200   40.7060 C   0  0  0  0  0  0  0  0  0  0  0  0
   40.5650   34.2570   40.0830 C   0  0  0  0  0  0  0  0  0  0  0  0
   39.2300   33.8740   39.9480 C   0  0  0  0  0  0  0  0  0  0  0  0
   38.1060   34.4210   39.4090 N   0  0  0  0  0  0  0  0  0  0  0  0
   37.0810   33.5520   39.5860 C   0  0  0  0  0  0  0  0  0  0  0  0
   37.5860   32.4730   40.2340 N   0  0  0  0  0  0  0  0  0  0  0  0
   38.9050   32.6520   40.4660 C   0  0  0  0  0  0  0  0  0  0  0  0
   39.7710   31.7890   41.0960 C   0  0  0  0  0  0  0  0  0  0  0  0
   41.8120   31.5360   41.7110 H   0  0  0  0  0  0  0  0  0  0  0  0
   40.8320   35.2310   39.6710 H   0  0  0  0  0  0  0  0  0  0  0  0
   38.1180   35.3550   38.9560 H   0  0  0  0  0  0  0  0  0  0  0  0
   36.0830   33.7390   39.2540 H   0  0  0  0  0  0  0  0  0  0  0  0
   44.5370   34.9660   42.0120 C   0  0  0  0  0  0  0  0  0  0  0  0
   45.4580   34.6840   41.0110 C   0  0  0  0  0  0  0  0  0  0  0  0
   45.0350   33.9700   39.8940 C   0  0  0  0  0  0  0  0  0  0  0  0
   43.7230   33.5740   39.8300 N   0  0  0  0  0  0  0  0  0  0  0  0
   42.8450   33.8650   40.8240 C   0  0  0  0  0  0  0  0  0  0  0  0
   43.2500   34.5510   41.8970 N   0  0  0  0  0  0  0  0  0  0  0  0
   44.8940   35.5260   42.8740 H   0  0  0  0  0  0  0  0  0  0  0  0
   46.4990   34.9920   41.0520 H   0  0  0  0  0  0  0  0  0  0  0  0
   45.6900   33.7060   39.0650 H   0  0  0  0  0  0  0  0  0  0  0  0
   39.3120   30.5020   41.6130 C   0  0  0  0  0  0  0  0  0  0  0  0
   39.2400   30.1840   42.9560 C   0  0  0  0  0  0  0  0  0  0  0  0
   38.7540   28.8730   42.9640 C   0  0  0  0  0  0  0  0  0  0  0  0
   38.5650   28.4810   41.6580 C   0  0  0  0  0  0  0  0  0  0  0  0
   38.9130   29.4890   40.8880 O   0  0  0  0  0  0  0  0  0  0  0  0
   39.4910   30.7820   43.8210 H   0  0  0  0  0  0  0  0  0  0  0  0
   38.5530   28.2500   43.8270 H   0  0  0  0  0  0  0  0  0  0  0  0
   37.0800   27.2060   40.1990 C   0  0  0  0  0  3  0  0  0  0  0  0
   38.0730   27.1980   41.1690 C   0  0  0  0  0  0  0  0  0  0  0  0
   38.5840   26.0140   41.6590 C   0  0  0  0  0  0  0  0  0  0  0  0
   39.3570   25.9840   42.4120 H   0  0  0  0  0  0  0  0  0  0  0  0
   38.0800   24.8220   41.1580 C   0  0  0  0  0  0  0  0  0  0  0  0
   38.4180   23.5380   41.4790 N   0  0  0  0  0  0  0  0  0  0  0  0
   39.1290   23.2120   42.1700 H   0  0  0  0  0  0  0  0  0  0  0  0
   37.6710   22.7180   40.7430 N   0  0  0  0  0  0  0  0  0  0  0  0
   36.8540   23.4370   39.9510 C   0  0  0  0  0  0  0  0  0  0  0  0
   36.1070   23.1090   39.2200 H   0  0  0  0  0  0  0  0  0  0  0  0
   37.0810   24.7770   40.1830 C   0  0  0  0  0  0  0  0  0  0  0  0
   36.6140   25.9920   39.7360 C   0  0  0  0  0  3  0  0  0  0  0  0
  1 10  1  0  0  0  0
  2 18  1  0  0  0  0
  2  1  2  0  0  0  0
  3  2  1  0  0  0  0
  4  3  2  0  0  0  0
  4  8  1  0  0  0  0
  5  6  1  0  0  0  0
  5  4  1  0  0  0  0
  6  7  2  0  0  0  0
  7  8  1  0  0  0  0
  8  9  2  0  0  0  0
  9  1  1  0  0  0  0
  9 23  1  0  0  0  0
 11  3  1  0  0  0  0
 12  5  1  0  0  0  0
 13  6  1  0  0  0  0
 14 20  1  0  0  0  0
 15 21  1  0  0  0  0
 15 14  2  0  0  0  0
 16 15  1  0  0  0  0
 17 16  2  0  0  0  0
 17 18  1  0  0  0  0
 18 19  2  0  0  0  0
 19 14  1  0  0  0  0
 22 16  1  0  0  0  0
 23 24  2  0  0  0  0
 24 25  1  0  0  0  0
 24 28  1  0  0  0  0
 25 29  1  0  0  0  0
 26 25  2  0  0  0  0
 27 23  1  0  0  0  0
 27 26  1  0  0  0  0
 30 31  1  0  0  0  0
 31 26  1  0  0  0  0
 31 32  2  0  0  0  0
 32 33  1  0  0  0  0
 34 35  1  0  0  0  0
 34 32  1  0  0  0  0
 35 36  1  0  0  0  0
 37 35  1  0  0  0  0
 38 40  1  0  0  0  0
 38 37  2  0  0  0  0
 39 38  1  0  0  0  0
 40 34  2  0  0  0  0
 41 40  1  0  0  0  0
 41 30  2  0  0  0  0
M  END
>  <minimizedAffinity>
-6.94499779

$$$$

 OpenBabel03252506583D

 41 46  0  0  0  0  0  0  0  0999 V2000
   37.1910   26.5260   39.9790 C   0  0  0  0  0  0  0  0  0  0  0  0
   36.9880   25.4330   40.8030 C   0  0  0  0  0  0  0  0  0  0  0  0
   36.9180   25.5350   42.1710 C   0  0  0  0  0  0  0  0  0  0  0  0
   37.0540   26.7800   42.7840 C   0  0  0  0  0  0  0  0  0  0  0  0
   37.0400   27.2470   44.0630 N   0  0  0  0  0  0  0  0  0  0  0  0
   37.2290   28.5890   44.0290 C   0  0  0  0  0  0  0  0  0  0  0  0
   37.3570   28.9370   42.7250 N   0  0  0  0  0  0  0  0  0  0  0  0
   37.2530   27.8400   41.9440 C   0  0  0  0  0  0  0  0  0  0  0  0
   37.3270   27.7760   40.5720 C   0  0  0  0  0  0  0  0  0  0  0  0
   37.2440   26.4320   38.9010 H   0  0  0  0  0  0  0  0  0  0  0  0
   36.7600   24.6840   42.8350 H   0  0  0  0  0  0  0  0  0  0  0  0
   36.9030   26.6130   44.8730 H   0  0  0  0  0  0  0  0  0  0  0  0
   37.2610   29.2040   44.9030 H   0  0  0  0  0  0  0  0  0  0  0  0
   35.6520   22.5960   38.8690 C   0  0  0  0  0  0  0  0  0  0  0  0
   36.5970   21.6050   39.1040 C   0  0  0  0  0  0  0  0  0  0  0  0
   37.6870   21.9000   39.9180 C   0  0  0  0  0  0  0  0  0  0  0  0
   37.7810   23.1590   40.4550 N   0  0  0  0  0  0  0  0  0  0  0  0
   36.8410   24.1070   40.2080 C   0  0  0  0  0  0  0  0  0  0  0  0
   35.7940   23.8250   39.4260 N   0  0  0  0  0  0  0  0  0  0  0  0
   34.8100   22.3390   38.2290 H   0  0  0  0  0  0  0  0  0  0  0  0
   36.5320   20.6060   38.6840 H   0  0  0  0  0  0  0  0  0  0  0  0
   38.4720   21.1830   40.1540 H   0  0  0  0  0  0  0  0  0  0  0  0
   37.5440   28.9780   39.7710 C   0  0  0  0  0  0  0  0  0  0  0  0
   36.6940   29.4080   38.7690 C   0  0  0  0  0  0  0  0  0  0  0  0
   37.3000   30.5770   38.2960 C   0  0  0  0  0  0  0  0  0  0  0  0
   38.4520   30.7820   39.0200 C   0  0  0  0  0  0  0  0  0  0  0  0
   38.5550   29.8000   39.8880 O   0  0  0  0  0  0  0  0  0  0  0  0
   35.7730   28.9710   38.4100 H   0  0  0  0  0  0  0  0  0  0  0  0
   36.9500   31.2260   37.5020 H   0  0  0  0  0  0  0  0  0  0  0  0
   39.3780   32.8930   39.8230 C   0  0  0  0  0  3  0  0  0  0  0  0
   39.4140   31.8700   38.8850 C   0  0  0  0  0  0  0  0  0  0  0  0
   40.3310   31.8770   37.8550 C   0  0  0  0  0  0  0  0  0  0  0  0
   40.3780   31.0930   37.1150 H   0  0  0  0  0  0  0  0  0  0  0  0
   41.2230   32.9380   37.7740 C   0  0  0  0  0  0  0  0  0  0  0  0
   42.2100   33.1690   36.8590 N   0  0  0  0  0  0  0  0  0  0  0  0
   42.4800   32.5820   36.0400 H   0  0  0  0  0  0  0  0  0  0  0  0
   42.8120   34.3120   37.1800 N   0  0  0  0  0  0  0  0  0  0  0  0
   42.2400   34.8310   38.2820 C   0  0  0  0  0  0  0  0  0  0  0  0
   42.4670   35.7510   38.8320 H   0  0  0  0  0  0  0  0  0  0  0  0
   41.2270   33.9910   38.6920 C   0  0  0  0  0  0  0  0  0  0  0  0
   40.2880   33.9230   39.6960 C   0  0  0  0  0  3  0  0  0  0  0  0
  1  9  2  0  0  0  0
  1  2  1  0  0  0  0
  2  3  2  0  0  0  0
  3  4  1  0  0  0  0
  3 11  1  0  0  0  0
  4  5  1  0  0  0  0
  5 12  1  0  0  0  0
  6  5  1  0  0  0  0
  6 13  1  0  0  0  0
  7  6  2  0  0  0  0
  8  7  1  0  0  0  0
  8  4  2  0  0  0  0
  9  8  1  0  0  0  0
 10  1  1  0  0  0  0
 14 15  2  0  0  0  0
 14 19  1  0  0  0  0
 15 16  1  0  0  0  0
 16 22  1  0  0  0  0
 16 17  2  0  0  0  0
 18 17  1  0  0  0  0
 18  2  1  0  0  0  0
 19 18  2  0  0  0  0
 20 14  1  0  0  0  0
 21 15  1  0  0  0  0
 23 27  1  0  0  0  0
 23  9  1  0  0  0  0
 24 23  2  0  0  0  0
 25 24  1  0  0  0  0
 25 26  2  0  0  0  0
 26 27  1  0  0  0  0
 28 24  1  0  0  0  0
 29 25  1  0  0  0  0
 31 26  1  0  0  0  0
 31 30  2  0  0  0  0
 32 31  1  0  0  0  0
 33 32  1  0  0  0  0
 34 32  2  0  0  0  0
 34 40  1  0  0  0  0
 35 37  1  0  0  0  0
 35 34  1  0  0  0  0
 36 35  1  0  0  0  0
 37 38  2  0  0  0  0
 38 40  1  0  0  0  0
 38 39  1  0  0  0  0
 40 41  2  0  0  0  0
 41 30  1  0  0  0  0
M  END
>  <minimizedAffinity>
-6.7644825

$$$$

 OpenBabel03252506583D

 41 46  0  0  0  0  0  0  0  0999 V2000
   40.9860   31.0500   42.2570 C   0  0  0  0  0  0  0  0  0  0  0  0
   41.7160   32.1420   41.8200 C   0  0  0  0  0  0  0  0  0  0  0  0
   41.3110   32.9380   40.7760 C   0  0  0  0  0  0  0  0  0  0  0  0
   40.1180   32.6590   40.1090 C   0  0  0  0  0  0  0  0  0  0  0  0
   39.4280   33.2060   39.0720 N   0  0  0  0  0  0  0  0  0  0  0  0
   38.3040   32.4740   38.8740 C   0  0  0  0  0  0  0  0  0  0  0  0
   38.3140   31.4790   39.7950 N   0  0  0  0  0  0  0  0  0  0  0  0
   39.4200   31.5750   40.5640 C   0  0  0  0  0  0  0  0  0  0  0  0
   39.7940   30.7570   41.6050 C   0  0  0  0  0  0  0  0  0  0  0  0
   41.3160   30.4300   43.0820 H   0  0  0  0  0  0  0  0  0  0  0  0
   41.8740   33.8010   40.4180 H   0  0  0  0  0  0  0  0  0  0  0  0
   39.7730   34.0450   38.5680 H   0  0  0  0  0  0  0  0  0  0  0  0
   37.5820   32.6900   38.1160 H   0  0  0  0  0  0  0  0  0  0  0  0
   44.7510   33.9520   42.8600 C   0  0  0  0  0  0  0  0  0  0  0  0
   45.3310   33.0660   43.7600 C   0  0  0  0  0  0  0  0  0  0  0  0
   44.6920   31.8560   44.0130 C   0  0  0  0  0  0  0  0  0  0  0  0
   43.5150   31.5890   43.3620 N   0  0  0  0  0  0  0  0  0  0  0  0
   42.9720   32.4750   42.4870 C   0  0  0  0  0  0  0  0  0  0  0  0
   43.5850   33.6370   42.2430 N   0  0  0  0  0  0  0  0  0  0  0  0
   45.2720   34.8910   42.6800 H   0  0  0  0  0  0  0  0  0  0  0  0
   46.2620   33.2670   44.2810 H   0  0  0  0  0  0  0  0  0  0  0  0
   45.0770   31.1060   44.7030 H   0  0  0  0  0  0  0  0  0  0  0  0
   38.9660   29.6220   42.0060 C   0  0  0  0  0  0  0  0  0  0  0  0
   38.4050   29.4740   43.2600 C   0  0  0  0  0  0  0  0  0  0  0  0
   37.7140   28.2600   43.1770 C   0  0  0  0  0  0  0  0  0  0  0  0
   37.8930   27.7550   41.9090 C   0  0  0  0  0  0  0  0  0  0  0  0
   38.6490   28.6040   41.2470 O   0  0  0  0  0  0  0  0  0  0  0  0
   38.4640   30.1210   44.1240 H   0  0  0  0  0  0  0  0  0  0  0  0
   37.1340   27.7770   43.9530 H   0  0  0  0  0  0  0  0  0  0  0  0
   37.3200   25.3980   42.1790 C   0  0  0  0  0  3  0  0  0  0  0  0
   37.3640   26.5140   41.3550 C   0  0  0  0  0  0  0  0  0  0  0  0
   36.9220   26.4570   40.0500 C   0  0  0  0  0  0  0  0  0  0  0  0
   36.9460   27.3110   39.3910 H   0  0  0  0  0  0  0  0  0  0  0  0
   36.4280   25.2490   39.5740 C   0  0  0  0  0  0  0  0  0  0  0  0
   35.9390   24.9430   38.3360 N   0  0  0  0  0  0  0  0  0  0  0  0
   35.8450   25.5700   37.5080 H   0  0  0  0  0  0  0  0  0  0  0  0
   35.5800   23.6610   38.3390 N   0  0  0  0  0  0  0  0  0  0  0  0
   35.8250   23.1250   39.5490 C   0  0  0  0  0  0  0  0  0  0  0  0
   35.6600   22.1080   39.9190 H   0  0  0  0  0  0  0  0  0  0  0  0
   36.3630   24.0990   40.3630 C   0  0  0  0  0  0  0  0  0  0  0  0
   36.8190   24.2230   41.6560 C   0  0  0  0  0  3  0  0  0  0  0  0
  1 10  1  0  0  0  0
  2  1  1  0  0  0  0
  2 18  1  0  0  0  0
  3  2  2  0  0  0  0
  4  8  2  0  0  0  0
  4  3  1  0  0  0  0
  5  4  1  0  0  0  0
  6  5  1  0  0  0  0
  6  7  2  0  0  0  0
  7  8  1  0  0  0  0
  8  9  1  0  0  0  0
  9 23  1  0  0  0  0
  9  1  2  0  0  0  0
 11  3  1  0  0  0  0
 12  5  1  0  0  0  0
 13  6  1  0  0  0  0
 14 15  1  0  0  0  0
 15 16  2  0  0  0  0
 15 21  1  0  0  0  0
 16 22  1  0  0  0  0
 17 16  1  0  0  0  0
 18 17  2  0  0  0  0
 19 18  1  0  0  0  0
 19 14  2  0  0  0  0
 20 14  1  0  0  0  0
 23 24  2  0  0  0  0
 24 28  1  0  0  0  0
 25 24  1  0  0  0  0
 25 29  1  0  0  0  0
 26 25  2  0  0  0  0
 27 26  1  0  0  0  0
 27 23  1  0  0  0  0
 31 26  1  0  0  0  0
 31 30  2  0  0  0  0
 32 31  1  0  0  0  0
 33 32  1  0  0  0  0
 34 32  2  0  0  0  0
 34 40  1  0  0  0  0
 35 37  1  0  0  0  0
 35 34  1  0  0  0  0
 36 35  1  0  0  0  0
 37 38  2  0  0  0  0
 38 39  1  0  0  0  0
 38 40  1  0  0  0  0
 40 41  2  0  0  0  0
 41 30  1  0  0  0  0
M  END
>  <minimizedAffinity>
-6.51768255

$$$$

 OpenBabel03252506583D

 41 46  0  0  0  0  0  0  0  0999 V2000
   41.5010   32.7470   40.3720 C   0  0  0  0  0  0  0  0  0  0  0  0
   41.7720   34.0710   40.6720 C   0  0  0  0  0  0  0  0  0  0  0  0
   40.8320   35.0660   40.5630 C   0  0  0  0  0  0  0  0  0  0  0  0
   39.5400   34.7600   40.1350 C   0  0  0  0  0  0  0  0  0  0  0  0
   38.3930   35.4580   39.9150 N   0  0  0  0  0  0  0  0  0  0  0  0
   37.4400   34.5910   39.4920 C   0  0  0  0  0  0  0  0  0  0  0  0
   38.0130   33.3630   39.4550 N   0  0  0  0  0  0  0  0  0  0  0  0
   39.3040   33.4450   39.8460 C   0  0  0  0  0  0  0  0  0  0  0  0
   40.2190   32.4230   39.9440 C   0  0  0  0  0  0  0  0  0  0  0  0
   42.2520   31.9710   40.4630 H   0  0  0  0  0  0  0  0  0  0  0  0
   41.0290   36.1140   40.7940 H   0  0  0  0  0  0  0  0  0  0  0  0
   38.3390   36.4830   40.0690 H   0  0  0  0  0  0  0  0  0  0  0  0
   36.4410   34.8820   39.2480 H   0  0  0  0  0  0  0  0  0  0  0  0
   44.5210   35.4740   42.6850 C   0  0  0  0  0  0  0  0  0  0  0  0
   45.6420   35.1170   41.9450 C   0  0  0  0  0  0  0  0  0  0  0  0
   45.4650   34.4010   40.7650 C   0  0  0  0  0  0  0  0  0  0  0  0
   44.1880   34.0780   40.3820 N   0  0  0  0  0  0  0  0  0  0  0  0
   43.1110   34.4400   41.1250 C   0  0  0  0  0  0  0  0  0  0  0  0
   43.2800   35.1280   42.2590 N   0  0  0  0  0  0  0  0  0  0  0  0
   44.6870   36.0330   43.6030 H   0  0  0  0  0  0  0  0  0  0  0  0
   46.6570   35.3680   42.2400 H   0  0  0  0  0  0  0  0  0  0  0  0
   46.2870   34.0820   40.1260 H   0  0  0  0  0  0  0  0  0  0  0  0
   39.8530   31.0490   39.6080 C   0  0  0  0  0  0  0  0  0  0  0  0
   40.0430   30.4760   38.3650 C   0  0  0  0  0  0  0  0  0  0  0  0
   39.5510   29.1750   38.5170 C   0  0  0  0  0  0  0  0  0  0  0  0
   39.1030   29.0390   39.8120 C   0  0  0  0  0  0  0  0  0  0  0  0
   39.3040   30.1860   40.4230 O   0  0  0  0  0  0  0  0  0  0  0  0
   40.4670   30.9010   37.4660 H   0  0  0  0  0  0  0  0  0  0  0  0
   39.5150   28.3920   37.7700 H   0  0  0  0  0  0  0  0  0  0  0  0
   37.5140   28.0600   41.3840 C   0  0  0  0  0  3  0  0  0  0  0  0
   38.5070   27.8630   40.4350 C   0  0  0  0  0  0  0  0  0  0  0  0
   38.9220   26.5940   40.0880 C   0  0  0  0  0  0  0  0  0  0  0  0
   39.6920   26.4170   39.3520 H   0  0  0  0  0  0  0  0  0  0  0  0
   38.3210   25.5100   40.7130 C   0  0  0  0  0  0  0  0  0  0  0  0
   38.5550   24.1760   40.5430 N   0  0  0  0  0  0  0  0  0  0  0  0
   39.2390   23.7180   39.9020 H   0  0  0  0  0  0  0  0  0  0  0  0
   37.7410   23.5060   41.3560 N   0  0  0  0  0  0  0  0  0  0  0  0
   36.9820   24.3730   42.0510 C   0  0  0  0  0  0  0  0  0  0  0  0
   36.2080   24.1910   42.8050 H   0  0  0  0  0  0  0  0  0  0  0  0
   37.3180   25.6560   41.6740 C   0  0  0  0  0  0  0  0  0  0  0  0
   36.9490   26.9470   41.9750 C   0  0  0  0  0  3  0  0  0  0  0  0
  1 10  1  0  0  0  0
  1  2  1  0  0  0  0
  2 18  1  0  0  0  0
  3  2  2  0  0  0  0
  3 11  1  0  0  0  0
  4  3  1  0  0  0  0
  5 12  1  0  0  0  0
  5  4  1  0  0  0  0
  6  5  1  0  0  0  0
  7  6  2  0  0  0  0
  7  8  1  0  0  0  0
  8  9  1  0  0  0  0
  8  4  2  0  0  0  0
  9  1  2  0  0  0  0
 13  6  1  0  0  0  0
 14 20  1  0  0  0  0
 15 21  1  0  0  0  0
 15 14  2  0  0  0  0
 16 15  1  0  0  0  0
 17 16  2  0  0  0  0
 17 18  1  0  0  0  0
 18 19  2  0  0  0  0
 19 14  1  0  0  0  0
 22 16  1  0  0  0  0
 23  9  1  0  0  0  0
 23 27  1  0  0  0  0
 24 25  1  0  0  0  0
 24 23  2  0  0  0  0
 25 26  2  0  0  0  0
 26 27  1  0  0  0  0
 26 31  1  0  0  0  0
 28 24  1  0  0  0  0
 29 25  1  0  0  0  0
 30 41  1  0  0  0  0
 31 30  2  0  0  0  0
 32 31  1  0  0  0  0
 32 34  2  0  0  0  0
 33 32  1  0  0  0  0
 34 40  1  0  0  0  0
 35 34  1  0  0  0  0
 35 37  1  0  0  0  0
 36 35  1  0  0  0  0
 37 38  2  0  0  0  0
 38 39  1  0  0  0  0
 40 41  2  0  0  0  0
 40 38  1  0  0  0  0
M  END
>  <minimizedAffinity>
-6.50663567

$$$$

 OpenBabel03252506583D

 41 46  0  0  0  0  0  0  0  0999 V2000
   34.1550   29.1980   37.6240 C   0  0  0  0  0  0  0  0  0  0  0  0
   33.6840   28.4270   36.5750 C   0  0  0  0  0  0  0  0  0  0  0  0
   34.5150   27.7300   35.7330 C   0  0  0  0  0  0  0  0  0  0  0  0
   35.8970   27.7800   35.9180 C   0  0  0  0  0  0  0  0  0  0  0  0
   36.9850   27.2410   35.3040 N   0  0  0  0  0  0  0  0  0  0  0  0
   38.0960   27.6650   35.9550 C   0  0  0  0  0  0  0  0  0  0  0  0
   37.6790   28.4660   36.9670 N   0  0  0  0  0  0  0  0  0  0  0  0
   36.3310   28.5490   36.9620 C   0  0  0  0  0  0  0  0  0  0  0  0
   35.5300   29.2600   37.8250 C   0  0  0  0  0  0  0  0  0  0  0  0
   33.4890   29.7440   38.2820 H   0  0  0  0  0  0  0  0  0  0  0  0
   34.1610   27.1190   34.9010 H   0  0  0  0  0  0  0  0  0  0  0  0
   36.8940   26.6180   34.4790 H   0  0  0  0  0  0  0  0  0  0  0  0
   39.0890   27.3860   35.6750 H   0  0  0  0  0  0  0  0  0  0  0  0
   30.0840   29.2080   36.6080 C   0  0  0  0  0  0  0  0  0  0  0  0
   29.5450   28.1530   35.8810 C   0  0  0  0  0  0  0  0  0  0  0  0
   30.4030   27.1780   35.3810 C   0  0  0  0  0  0  0  0  0  0  0  0
   31.7470   27.3010   35.6280 N   0  0  0  0  0  0  0  0  0  0  0  0
   32.2450   28.3430   36.3410 C   0  0  0  0  0  0  0  0  0  0  0  0
   31.4220   29.2810   36.8220 N   0  0  0  0  0  0  0  0  0  0  0  0
   29.3910   29.9570   36.9880 H   0  0  0  0  0  0  0  0  0  0  0  0
   28.4830   28.0470   35.6810 H   0  0  0  0  0  0  0  0  0  0  0  0
   30.0650   26.3200   34.8030 H   0  0  0  0  0  0  0  0  0  0  0  0
   36.1050   30.0510   38.9090 C   0  0  0  0  0  0  0  0  0  0  0  0
   35.7760   29.8970   40.2430 C   0  0  0  0  0  0  0  0  0  0  0  0
   36.5640   30.8520   40.8940 C   0  0  0  0  0  0  0  0  0  0  0  0
   37.3050   31.5140   39.9420 C   0  0  0  0  0  0  0  0  0  0  0  0
   36.9950   31.0000   38.7720 O   0  0  0  0  0  0  0  0  0  0  0  0
   35.0810   29.2110   40.7080 H   0  0  0  0  0  0  0  0  0  0  0  0
   36.6050   31.0590   41.9570 H   0  0  0  0  0  0  0  0  0  0  0  0
   37.8370   33.8960   39.9420 C   0  0  0  0  0  3  0  0  0  0  0  0
   38.2670   32.5910   40.1430 C   0  0  0  0  0  0  0  0  0  0  0  0
   39.5640   32.3170   40.5230 C   0  0  0  0  0  0  0  0  0  0  0  0
   39.9200   31.3110   40.6850 H   0  0  0  0  0  0  0  0  0  0  0  0
   40.4370   33.3810   40.7000 C   0  0  0  0  0  0  0  0  0  0  0  0
   41.7530   33.3670   41.0670 N   0  0  0  0  0  0  0  0  0  0  0  0
   42.3520   32.5420   41.2870 H   0  0  0  0  0  0  0  0  0  0  0  0
   42.1830   34.6260   41.1090 N   0  0  0  0  0  0  0  0  0  0  0  0
   41.1800   35.4600   40.7770 C   0  0  0  0  0  0  0  0  0  0  0  0
   41.1620   36.5520   40.7040 H   0  0  0  0  0  0  0  0  0  0  0  0
   40.0540   34.7100   40.5100 C   0  0  0  0  0  0  0  0  0  0  0  0
   38.7460   34.9170   40.1320 C   0  0  0  0  0  3  0  0  0  0  0  0
  1  9  1  0  0  0  0
  1 10  1  0  0  0  0
  2  1  2  0  0  0  0
  3  4  2  0  0  0  0
  3  2  1  0  0  0  0
  4  8  1  0  0  0  0
  5  4  1  0  0  0  0
  5  6  1  0  0  0  0
  6  7  2  0  0  0  0
  8  7  1  0  0  0  0
  8  9  2  0  0  0  0
  9 23  1  0  0  0  0
 11  3  1  0  0  0  0
 12  5  1  0  0  0  0
 13  6  1  0  0  0  0
 14 19  1  0  0  0  0
 14 20  1  0  0  0  0
 15 14  2  0  0  0  0
 16 17  2  0  0  0  0
 16 15  1  0  0  0  0
 17 18  1  0  0  0  0
 18  2  1  0  0  0  0
 18 19  2  0  0  0  0
 21 15  1  0  0  0  0
 22 16  1  0  0  0  0
 23 24  2  0  0  0  0
 24 28  1  0  0  0  0
 24 25  1  0  0  0  0
 25 29  1  0  0  0  0
 26 31  1  0  0  0  0
 26 25  2  0  0  0  0
 27 23  1  0  0  0  0
 27 26  1  0  0  0  0
 30 41  2  0  0  0  0
 30 31  1  0  0  0  0
 31 32  2  0  0  0  0
 32 33  1  0  0  0  0
 32 34  1  0  0  0  0
 34 35  1  0  0  0  0
 35 37  1  0  0  0  0
 35 36  1  0  0  0  0
 38 37  2  0  0  0  0
 39 38  1  0  0  0  0
 40 34  2  0  0  0  0
 40 38  1  0  0  0  0
 41 40  1  0  0  0  0
M  END
>  <minimizedAffinity>
-6.4756155

$$$$

 OpenBabel03252506583D

 41 46  0  0  0  0  0  0  0  0999 V2000
   39.1670   27.5190   42.1270 C   0  0  0  0  0  0  0  0  0  0  0  0
   40.0540   26.6070   42.6720 C   0  0  0  0  0  0  0  0  0  0  0  0
   39.8590   25.2490   42.6080 C   0  0  0  0  0  0  0  0  0  0  0  0
   38.7270   24.7370   41.9740 C   0  0  0  0  0  0  0  0  0  0  0  0
   38.2210   23.4980   41.7270 N   0  0  0  0  0  0  0  0  0  0  0  0
   37.0560   23.6400   41.0490 C   0  0  0  0  0  0  0  0  0  0  0  0
   36.8540   24.9710   40.8840 N   0  0  0  0  0  0  0  0  0  0  0  0
   37.8700   25.6620   41.4450 C   0  0  0  0  0  0  0  0  0  0  0  0
   38.0330   27.0270   41.4890 C   0  0  0  0  0  0  0  0  0  0  0  0
   39.3330   28.5880   42.1840 H   0  0  0  0  0  0  0  0  0  0  0  0
   40.5470   24.5170   43.0340 H   0  0  0  0  0  0  0  0  0  0  0  0
   38.7090   22.6370   42.0410 H   0  0  0  0  0  0  0  0  0  0  0  0
   36.4520   22.8170   40.7300 H   0  0  0  0  0  0  0  0  0  0  0  0
   43.0560   26.7460   44.8050 C   0  0  0  0  0  0  0  0  0  0  0  0
   43.5050   28.0450   44.5990 C   0  0  0  0  0  0  0  0  0  0  0  0
   42.7910   28.8720   43.7380 C   0  0  0  0  0  0  0  0  0  0  0  0
   41.6700   28.3680   43.1270 N   0  0  0  0  0  0  0  0  0  0  0  0
   41.2540   27.0950   43.3480 C   0  0  0  0  0  0  0  0  0  0  0  0
   41.9400   26.2990   44.1750 N   0  0  0  0  0  0  0  0  0  0  0  0
   43.6330   26.1210   45.4830 H   0  0  0  0  0  0  0  0  0  0  0  0
   44.3910   28.4530   45.0770 H   0  0  0  0  0  0  0  0  0  0  0  0
   43.0730   29.9010   43.5200 H   0  0  0  0  0  0  0  0  0  0  0  0
   37.0500   27.9240   40.8890 C   0  0  0  0  0  0  0  0  0  0  0  0
   36.5550   29.0600   41.5040 C   0  0  0  0  0  0  0  0  0  0  0  0
   35.6590   29.5840   40.5660 C   0  0  0  0  0  0  0  0  0  0  0  0
   35.6620   28.7570   39.4660 C   0  0  0  0  0  0  0  0  0  0  0  0
   36.5080   27.7800   39.7070 O   0  0  0  0  0  0  0  0  0  0  0  0
   36.7840   29.4740   42.4760 H   0  0  0  0  0  0  0  0  0  0  0  0
   35.0560   30.4790   40.6600 H   0  0  0  0  0  0  0  0  0  0  0  0
   35.5790   29.0670   37.0460 C   0  0  0  0  0  3  0  0  0  0  0  0
   34.8880   28.8970   38.2380 C   0  0  0  0  0  0  0  0  0  0  0  0
   33.5100   28.8590   38.2650 C   0  0  0  0  0  0  0  0  0  0  0  0
   32.9510   28.7280   39.1790 H   0  0  0  0  0  0  0  0  0  0  0  0
   32.8230   28.9970   37.0660 C   0  0  0  0  0  0  0  0  0  0  0  0
   31.4770   28.9940   36.8360 N   0  0  0  0  0  0  0  0  0  0  0  0
   30.7050   28.8860   37.5300 H   0  0  0  0  0  0  0  0  0  0  0  0
   31.2800   29.1570   35.5300 N   0  0  0  0  0  0  0  0  0  0  0  0
   32.4660   29.2670   34.9030 C   0  0  0  0  0  0  0  0  0  0  0  0
   32.6970   29.4090   33.8420 H   0  0  0  0  0  0  0  0  0  0  0  0
   33.4720   29.1700   35.8420 C   0  0  0  0  0  0  0  0  0  0  0  0
   34.8480   29.1980   35.8830 C   0  0  0  0  0  3  0  0  0  0  0  0
  1 10  1  0  0  0  0
  1  2  1  0  0  0  0
  2 18  1  0  0  0  0
  3  2  2  0  0  0  0
  3 11  1  0  0  0  0
  4  3  1  0  0  0  0
  5  4  1  0  0  0  0
  5 12  1  0  0  0  0
  6  5  1  0  0  0  0
  7  6  2  0  0  0  0
  7  8  1  0  0  0  0
  8  9  1  0  0  0  0
  8  4  2  0  0  0  0
  9  1  2  0  0  0  0
 13  6  1  0  0  0  0
 14 20  1  0  0  0  0
 15 14  1  0  0  0  0
 15 21  1  0  0  0  0
 16 15  2  0  0  0  0
 17 18  2  0  0  0  0
 17 16  1  0  0  0  0
 18 19  1  0  0  0  0
 19 14  2  0  0  0  0
 22 16  1  0  0  0  0
 23  9  1  0  0  0  0
 23 24  2  0  0  0  0
 24 28  1  0  0  0  0
 25 29  1  0  0  0  0
 25 24  1  0  0  0  0
 26 27  1  0  0  0  0
 26 25  2  0  0  0  0
 27 23  1  0  0  0  0
 30 31  1  0  0  0  0
 31 32  2  0  0  0  0
 31 26  1  0  0  0  0
 32 33  1  0  0  0  0
 34 32  1  0  0  0  0
 35 34  1  0  0  0  0
 35 36  1  0  0  0  0
 37 35  1  0  0  0  0
 38 37  2  0  0  0  0
 38 40  1  0  0  0  0
 39 38  1  0  0  0  0
 40 41  1  0  0  0  0
 40 34  2  0  0  0  0
 41 30  2  0  0  0  0
M  END
>  <minimizedAffinity>
-6.47323036

$$$$

 OpenBabel03252506583D

 41 46  0  0  0  0  0  0  0  0999 V2000
   39.5070   30.7580   41.6370 C   0  0  0  0  0  0  0  0  0  0  0  0
   40.5390   31.6810   41.6320 C   0  0  0  0  0  0  0  0  0  0  0  0
   41.7790   31.4120   42.1580 C   0  0  0  0  0  0  0  0  0  0  0  0
   42.0390   30.1660   42.7290 C   0  0  0  0  0  0  0  0  0  0  0  0
   43.1060   29.5670   43.3250 N   0  0  0  0  0  0  0  0  0  0  0  0
   42.7430   28.3120   43.6860 C   0  0  0  0  0  0  0  0  0  0  0  0
   41.4510   28.1490   43.3090 N   0  0  0  0  0  0  0  0  0  0  0  0
   41.0000   29.2780   42.7180 C   0  0  0  0  0  0  0  0  0  0  0  0
   39.7470   29.5110   42.2010 C   0  0  0  0  0  0  0  0  0  0  0  0
   38.5330   30.9830   41.2180 H   0  0  0  0  0  0  0  0  0  0  0  0
   42.6030   32.1270   42.1640 H   0  0  0  0  0  0  0  0  0  0  0  0
   44.0110   30.0600   43.4440 H   0  0  0  0  0  0  0  0  0  0  0  0
   43.4000   27.6240   44.1760 H   0  0  0  0  0  0  0  0  0  0  0  0
   41.1470   34.9920   40.1350 C   0  0  0  0  0  0  0  0  0  0  0  0
   39.8570   35.4730   39.9470 C   0  0  0  0  0  0  0  0  0  0  0  0
   38.7830   34.6750   40.3270 C   0  0  0  0  0  0  0  0  0  0  0  0
   39.0440   33.4440   40.8730 N   0  0  0  0  0  0  0  0  0  0  0  0
   40.3150   33.0000   41.0460 C   0  0  0  0  0  0  0  0  0  0  0  0
   41.3480   33.7660   40.6810 N   0  0  0  0  0  0  0  0  0  0  0  0
   41.9690   35.6360   39.8300 H   0  0  0  0  0  0  0  0  0  0  0  0
   39.6390   36.4460   39.5150 H   0  0  0  0  0  0  0  0  0  0  0  0
   37.7420   34.9740   40.2150 H   0  0  0  0  0  0  0  0  0  0  0  0
   38.7100   28.4830   42.2440 C   0  0  0  0  0  0  0  0  0  0  0  0
   37.8680   28.2730   43.3210 C   0  0  0  0  0  0  0  0  0  0  0  0
   37.0600   27.2070   42.9110 C   0  0  0  0  0  0  0  0  0  0  0  0
   37.4490   26.8420   41.6420 C   0  0  0  0  0  0  0  0  0  0  0  0
   38.4390   27.6330   41.2880 O   0  0  0  0  0  0  0  0  0  0  0  0
   37.8180   28.7910   44.2690 H   0  0  0  0  0  0  0  0  0  0  0  0
   36.2630   26.7320   43.4690 H   0  0  0  0  0  0  0  0  0  0  0  0
   36.7720   24.5140   41.3590 C   0  0  0  0  0  3  0  0  0  0  0  0
   36.8990   25.7810   40.8070 C   0  0  0  0  0  0  0  0  0  0  0  0
   36.5180   26.0350   39.5060 C   0  0  0  0  0  0  0  0  0  0  0  0
   36.6070   27.0120   39.0550 H   0  0  0  0  0  0  0  0  0  0  0  0
   36.0000   24.9880   38.7550 C   0  0  0  0  0  0  0  0  0  0  0  0
   35.5590   24.9870   37.4620 N   0  0  0  0  0  0  0  0  0  0  0  0
   35.5290   25.7860   36.7910 H   0  0  0  0  0  0  0  0  0  0  0  0
   35.1500   23.7560   37.1660 N   0  0  0  0  0  0  0  0  0  0  0  0
   35.3150   22.9540   38.2340 C   0  0  0  0  0  0  0  0  0  0  0  0
   35.0930   21.8890   38.3620 H   0  0  0  0  0  0  0  0  0  0  0  0
   35.8520   23.6960   39.2640 C   0  0  0  0  0  0  0  0  0  0  0  0
   36.2510   23.5090   40.5690 C   0  0  0  0  0  3  0  0  0  0  0  0
  1  9  1  0  0  0  0
  2  1  2  0  0  0  0
  2  3  1  0  0  0  0
  3 11  1  0  0  0  0
  3  4  2  0  0  0  0
  4  5  1  0  0  0  0
  5 12  1  0  0  0  0
  5  6  1  0  0  0  0
  6 13  1  0  0  0  0
  7  6  2  0  0  0  0
  8  4  1  0  0  0  0
  8  7  1  0  0  0  0
  9 23  1  0  0  0  0
  9  8  2  0  0  0  0
 10  1  1  0  0  0  0
 14 19  1  0  0  0  0
 15 14  2  0  0  0  0
 15 16  1  0  0  0  0
 16 17  2  0  0  0  0
 17 18  1  0  0  0  0
 18  2  1  0  0  0  0
 19 18  2  0  0  0  0
 20 14  1  0  0  0  0
 21 15  1  0  0  0  0
 22 16  1  0  0  0  0
 23 24  2  0  0  0  0
 24 28  1  0  0  0  0
 25 24  1  0  0  0  0
 25 29  1  0  0  0  0
 26 25  2  0  0  0  0
 27 26  1  0  0  0  0
 27 23  1  0  0  0  0
 31 30  1  0  0  0  0
 31 26  1  0  0  0  0
 32 31  2  0  0  0  0
 33 32  1  0  0  0  0
 34 40  2  0  0  0  0
 34 32  1  0  0  0  0
 35 34  1  0  0  0  0
 36 35  1  0  0  0  0
 37 35  1  0  0  0  0
 37 38  2  0  0  0  0
 38 39  1  0  0  0  0
 38 40  1  0  0  0  0
 40 41  1  0  0  0  0
 41 30  2  0  0  0  0
M  END
>  <minimizedAffinity>
-6.46381807

$$$$
