
 OpenBabel03252509033D

 51 54  0  0  1  0  0  0  0  0999 V2000
   47.0370   34.3750   43.2310 N   0  0  0  0  0  0  0  0  0  0  0  0
   46.6940   34.9020   41.9660 C   0  0  0  0  0  0  0  0  0  0  0  0
   45.2590   34.6380   41.5340 C   0  0  0  0  0  0  0  0  0  0  0  0
   44.2760   34.6540   42.6760 C   0  0  0  0  0  0  0  0  0  0  0  0
   44.9460   35.0080   43.9940 C   0  0  0  0  0  0  0  0  0  0  0  0
   46.0860   33.9160   44.1100 C   0  0  2  0  0  0  0  0  0  0  0  0
   47.3210   34.6010   41.1220 H   0  0  0  0  0  0  0  0  0  0  0  0
   46.7810   36.0180   42.0070 H   0  0  0  0  0  0  0  0  0  0  0  0
   45.2530   33.6470   41.0090 H   0  0  0  0  0  0  0  0  0  0  0  0
   44.9850   35.3920   40.7660 H   0  0  0  0  0  0  0  0  0  0  0  0
   43.4110   35.3250   42.5000 H   0  0  0  0  0  0  0  0  0  0  0  0
   43.8600   33.6310   42.8220 H   0  0  0  0  0  0  0  0  0  0  0  0
   44.2340   34.8600   44.8070 H   0  0  0  0  0  0  0  0  0  0  0  0
   45.4260   35.9940   43.9630 H   0  0  0  0  0  0  0  0  0  0  0  0
   45.6080   32.9390   43.9250 H   0  0  0  0  0  0  0  0  0  0  0  0
   48.3650   33.8180   43.3020 C   0  0  0  0  0  0  0  0  0  0  0  0
   49.0680   34.4330   42.7240 H   0  0  0  0  0  0  0  0  0  0  0  0
   48.7000   33.8670   44.3750 H   0  0  0  0  0  0  0  0  0  0  0  0
   48.2930   32.3900   42.9050 C   0  0  0  0  0  0  0  0  0  0  0  0
   47.2970   32.1290   42.4720 H   0  0  0  0  0  0  0  0  0  0  0  0
   48.4640   31.6700   43.7330 H   0  0  0  0  0  0  0  0  0  0  0  0
   51.5370   31.9020   41.0610 C   0  0  0  0  0  0  0  0  0  0  0  0
   50.6010   32.1460   42.0820 C   0  0  0  0  0  0  0  0  0  0  0  0
   49.2660   32.1280   41.8100 C   0  0  0  0  0  0  0  0  0  0  0  0
   48.8920   31.8690   40.5460 N   0  0  0  0  0  0  0  0  0  0  0  0
   49.7760   31.6330   39.5670 C   0  0  0  0  0  0  0  0  0  0  0  0
   51.0990   31.6460   39.8060 N   0  0  0  0  0  0  0  0  0  0  0  0
   52.5940   31.9210   41.2970 H   0  0  0  0  0  0  0  0  0  0  0  0
   51.0030   32.3470   43.0730 H   0  0  0  0  0  0  0  0  0  0  0  0
   49.3070   31.4430   38.6110 H   0  0  0  0  0  0  0  0  0  0  0  0
   46.4510   34.0650   45.4340 O   0  0  0  0  0  0  0  0  0  0  0  0
   45.8050   31.4830   45.4600 O   0  0  0  0  0  0  0  0  0  0  0  0
   46.2250   32.6740   46.3350 P   0  0  2  0  0  0  0  0  0  0  0  0
   44.8460   32.9760   47.3170 O   0  0  0  0  0  0  0  0  0  0  0  0
   44.0170   32.7650   46.8530 H   0  0  0  0  0  0  0  0  0  0  0  0
   47.4940   32.3070   47.3520 O   0  0  0  0  0  0  0  0  0  0  0  0
   47.8220   30.9720   47.1960 C   0  0  0  0  0  0  0  0  0  0  0  0
   46.8680   30.4130   47.1910 H   0  0  0  0  0  0  0  0  0  0  0  0
   48.3530   30.7740   46.2360 H   0  0  0  0  0  0  0  0  0  0  0  0
   49.1070   31.3960   49.3270 C   0  0  0  0  0  3  0  0  0  0  0  0
   48.6680   30.5250   48.3330 C   0  0  0  0  0  0  0  0  0  0  0  0
   49.0100   29.1680   48.3600 C   0  0  0  0  0  0  0  0  0  0  0  0
   48.6820   28.4750   47.6030 H   0  0  0  0  0  0  0  0  0  0  0  0
   49.7960   28.7110   49.4000 C   0  0  0  0  0  0  0  0  0  0  0  0
   50.2820   27.4730   49.6930 N   0  0  0  0  0  0  0  0  0  0  0  0
   50.0880   26.6370   49.0880 H   0  0  0  0  0  0  0  0  0  0  0  0
   50.9900   27.5490   50.8090 N   0  0  0  0  0  0  0  0  0  0  0  0
   50.9910   28.8180   51.2750 C   0  0  0  0  0  0  0  0  0  0  0  0
   51.4980   29.1500   52.1760 H   0  0  0  0  0  0  0  0  0  0  0  0
   50.2340   29.5810   50.3920 C   0  0  0  0  0  0  0  0  0  0  0  0
   49.9020   30.9180   50.3720 C   0  0  0  0  0  3  0  0  0  0  0  0
  1 16  1  0  0  0  0
  1  6  1  0  0  0  0
  2  8  1  0  0  0  0
  2  1  1  0  0  0  0
  3  2  1  0  0  0  0
  3  4  1  0  0  0  0
  4 12  1  0  0  0  0
  4  5  1  0  0  0  0
  5  6  1  0  0  0  0
  5 13  1  0  0  0  0
  6 15  1  6  0  0  0
  6 31  1  0  0  0  0
  7  2  1  0  0  0  0
  9  3  1  0  0  0  0
 10  3  1  0  0  0  0
 11  4  1  0  0  0  0
 14  5  1  0  0  0  0
 16 18  1  0  0  0  0
 17 16  1  0  0  0  0
 19 16  1  0  0  0  0
 19 21  1  0  0  0  0
 20 19  1  0  0  0  0
 22 28  1  0  0  0  0
 22 23  1  0  0  0  0
 23 29  1  0  0  0  0
 24 23  2  0  0  0  0
 24 19  1  0  0  0  0
 25 24  1  0  0  0  0
 26 27  1  0  0  0  0
 26 25  2  0  0  0  0
 27 22  2  0  0  0  0
 30 26  1  0  0  0  0
 31 33  1  0  0  0  0
 33 32  2  6  0  0  0
 33 34  1  0  0  0  0
 33 36  1  0  0  0  0
 35 34  1  0  0  0  0
 37 36  1  0  0  0  0
 37 41  1  0  0  0  0
 38 37  1  0  0  0  0
 39 37  1  0  0  0  0
 40 51  1  0  0  0  0
 41 42  1  0  0  0  0
 41 40  2  0  0  0  0
 42 44  2  0  0  0  0
 43 42  1  0  0  0  0
 44 45  1  0  0  0  0
 44 50  1  0  0  0  0
 45 47  1  0  0  0  0
 46 45  1  0  0  0  0
 47 48  2  0  0  0  0
 48 49  1  0  0  0  0
 50 48  1  0  0  0  0
 51 50  2  0  0  0  0
M  END
>  <minimizedAffinity>
-5.44549465

>  <minimizedRMSD>
3.28899837

$$$$
