
 OpenBabel03252509033D

 51 54  0  0  1  0  0  0  0  0999 V2000
   46.7790   34.3670   43.4850 N   0  0  0  0  0  0  0  0  0  0  0  0
   46.4890   34.9600   42.2360 C   0  0  0  0  0  0  0  0  0  0  0  0
   45.0160   34.9600   41.8580 C   0  0  0  0  0  0  0  0  0  0  0  0
   44.0930   35.1360   43.0370 C   0  0  0  0  0  0  0  0  0  0  0  0
   44.8640   35.3500   44.3300 C   0  0  0  0  0  0  0  0  0  0  0  0
   45.7950   34.0720   44.3970 C   0  0  2  0  0  0  0  0  0  0  0  0
   47.0220   34.5630   41.3670 H   0  0  0  0  0  0  0  0  0  0  0  0
   46.7740   36.0430   42.2800 H   0  0  0  0  0  0  0  0  0  0  0  0
   44.8150   33.9910   41.3280 H   0  0  0  0  0  0  0  0  0  0  0  0
   44.8510   35.7590   41.1040 H   0  0  0  0  0  0  0  0  0  0  0  0
   43.3560   35.9510   42.8970 H   0  0  0  0  0  0  0  0  0  0  0  0
   43.5080   34.2010   43.1930 H   0  0  0  0  0  0  0  0  0  0  0  0
   44.1670   35.3210   45.1690 H   0  0  0  0  0  0  0  0  0  0  0  0
   45.5100   36.2360   44.2850 H   0  0  0  0  0  0  0  0  0  0  0  0
   45.1450   33.1980   44.2250 H   0  0  0  0  0  0  0  0  0  0  0  0
   47.9900   33.5820   43.5020 C   0  0  0  0  0  0  0  0  0  0  0  0
   48.8410   34.1860   43.1610 H   0  0  0  0  0  0  0  0  0  0  0  0
   48.2000   33.3010   44.5710 H   0  0  0  0  0  0  0  0  0  0  0  0
   47.7470   32.3350   42.7350 C   0  0  0  0  0  0  0  0  0  0  0  0
   46.8490   32.4190   42.0770 H   0  0  0  0  0  0  0  0  0  0  0  0
   47.5830   31.4310   43.3600 H   0  0  0  0  0  0  0  0  0  0  0  0
   51.2420   32.1050   41.3600 C   0  0  0  0  0  0  0  0  0  0  0  0
   50.1570   32.3260   42.2260 C   0  0  0  0  0  0  0  0  0  0  0  0
   48.8820   32.0940   41.8030 C   0  0  0  0  0  0  0  0  0  0  0  0
   48.7140   31.6530   40.5460 N   0  0  0  0  0  0  0  0  0  0  0  0
   49.7430   31.4390   39.7140 C   0  0  0  0  0  0  0  0  0  0  0  0
   51.0100   31.6600   40.1040 N   0  0  0  0  0  0  0  0  0  0  0  0
   52.2490   32.2960   41.7160 H   0  0  0  0  0  0  0  0  0  0  0  0
   50.3960   32.6840   43.2250 H   0  0  0  0  0  0  0  0  0  0  0  0
   49.4320   31.0840   38.7400 H   0  0  0  0  0  0  0  0  0  0  0  0
   46.2290   34.1390   45.7060 O   0  0  0  0  0  0  0  0  0  0  0  0
   45.5910   31.5570   45.6000 O   0  0  0  0  0  0  0  0  0  0  0  0
   46.0620   32.6900   46.5250 P   0  0  2  0  0  0  0  0  0  0  0  0
   44.7470   32.9180   47.6090 O   0  0  0  0  0  0  0  0  0  0  0  0
   43.8900   32.7340   47.1840 H   0  0  0  0  0  0  0  0  0  0  0  0
   47.3920   32.2630   47.4350 O   0  0  0  0  0  0  0  0  0  0  0  0
   47.6560   30.9200   47.2400 C   0  0  0  0  0  0  0  0  0  0  0  0
   46.6890   30.3920   47.3350 H   0  0  0  0  0  0  0  0  0  0  0  0
   48.0740   30.7110   46.2280 H   0  0  0  0  0  0  0  0  0  0  0  0
   49.0830   29.1310   48.3040 C   0  0  0  0  0  0  0  0  0  0  0  0
   48.6040   30.4370   48.2790 C   0  0  0  0  0  0  0  0  0  0  0  0
   48.9990   31.3700   49.2430 C   0  0  0  0  0  0  0  0  0  0  0  0
   48.6420   32.3860   49.2450 H   0  0  0  0  0  0  0  0  0  0  0  0
   49.8800   30.9620   50.2280 C   0  0  0  0  0  0  0  0  0  0  0  0
   50.4340   31.6250   51.2790 N   0  0  0  0  0  0  0  0  0  0  0  0
   50.2270   32.6360   51.4770 H   0  0  0  0  0  0  0  0  0  0  0  0
   51.2220   30.7910   51.9390 N   0  0  0  0  0  0  0  0  0  0  0  0
   51.2090   29.5740   51.3500 C   0  0  0  0  0  0  0  0  0  0  0  0
   51.7710   28.7090   51.6930 H   0  0  0  0  0  0  0  0  0  0  0  0
   50.3580   29.6570   50.2530 C   0  0  0  0  0  0  0  0  0  0  0  0
   49.9730   28.7340   49.3060 C   0  0  0  0  0  0  0  0  0  0  0  0
  1 16  1  0  0  0  0
  1  6  1  0  0  0  0
  2  8  1  0  0  0  0
  2  1  1  0  0  0  0
  3  2  1  0  0  0  0
  3  4  1  0  0  0  0
  4 12  1  0  0  0  0
  4  5  1  0  0  0  0
  5  6  1  0  0  0  0
  5 13  1  0  0  0  0
  6 15  1  6  0  0  0
  6 31  1  0  0  0  0
  7  2  1  0  0  0  0
  9  3  1  0  0  0  0
 10  3  1  0  0  0  0
 11  4  1  0  0  0  0
 14  5  1  0  0  0  0
 16 18  1  0  0  0  0
 17 16  1  0  0  0  0
 19 21  1  0  0  0  0
 19 16  1  0  0  0  0
 20 19  1  0  0  0  0
 22 28  1  0  0  0  0
 22 23  1  0  0  0  0
 23 29  1  0  0  0  0
 24 23  2  0  0  0  0
 24 19  1  0  0  0  0
 25 24  1  0  0  0  0
 26 27  1  0  0  0  0
 26 25  2  0  0  0  0
 27 22  2  0  0  0  0
 30 26  1  0  0  0  0
 31 33  1  0  0  0  0
 33 32  2  6  0  0  0
 33 36  1  0  0  0  0
 33 34  1  0  0  0  0
 35 34  1  0  0  0  0
 37 38  1  0  0  0  0
 37 36  1  0  0  0  0
 37 41  1  0  0  0  0
 39 37  1  0  0  0  0
 40 51  1  0  0  0  0
 41 40  2  0  0  0  0
 41 42  1  0  0  0  0
 42 43  1  0  0  0  0
 42 44  2  0  0  0  0
 44 50  1  0  0  0  0
 44 45  1  0  0  0  0
 45 46  1  0  0  0  0
 45 47  1  0  0  0  0
 48 49  1  0  0  0  0
 48 47  2  0  0  0  0
 50 48  1  0  0  0  0
 51 50  2  0  0  0  0
M  END
>  <minimizedAffinity>
-5.75376177

>  <minimizedRMSD>
3.27709222

$$$$
