
 OpenBabel03252509033D

 51 54  0  0  1  0  0  0  0  0999 V2000
   46.8760   34.3930   43.3200 N   0  0  0  0  0  0  0  0  0  0  0  0
   46.5580   34.9070   42.0430 C   0  0  0  0  0  0  0  0  0  0  0  0
   45.0930   34.7790   41.6520 C   0  0  0  0  0  0  0  0  0  0  0  0
   44.1460   34.9370   42.8140 C   0  0  0  0  0  0  0  0  0  0  0  0
   44.8820   35.2670   44.1030 C   0  0  0  0  0  0  0  0  0  0  0  0
   45.9050   34.0670   44.2350 C   0  0  2  0  0  0  0  0  0  0  0  0
   47.1290   34.5130   41.1980 H   0  0  0  0  0  0  0  0  0  0  0  0
   46.7600   36.0090   42.0400 H   0  0  0  0  0  0  0  0  0  0  0  0
   44.9710   33.7750   41.1660 H   0  0  0  0  0  0  0  0  0  0  0  0
   44.8780   35.5290   40.8620 H   0  0  0  0  0  0  0  0  0  0  0  0
   43.3510   35.6880   42.6310 H   0  0  0  0  0  0  0  0  0  0  0  0
   43.6300   33.9690   43.0070 H   0  0  0  0  0  0  0  0  0  0  0  0
   44.1790   35.2230   44.9360 H   0  0  0  0  0  0  0  0  0  0  0  0
   45.4610   36.1950   44.0230 H   0  0  0  0  0  0  0  0  0  0  0  0
   45.3250   33.1390   44.0980 H   0  0  0  0  0  0  0  0  0  0  0  0
   48.1420   33.7040   43.3830 C   0  0  0  0  0  0  0  0  0  0  0  0
   48.9320   34.3140   42.9260 H   0  0  0  0  0  0  0  0  0  0  0  0
   48.4120   33.5840   44.4680 H   0  0  0  0  0  0  0  0  0  0  0  0
   47.9640   32.3510   42.7990 C   0  0  0  0  0  0  0  0  0  0  0  0
   47.0070   32.2660   42.2310 H   0  0  0  0  0  0  0  0  0  0  0  0
   47.9540   31.5240   43.5410 H   0  0  0  0  0  0  0  0  0  0  0  0
   51.3600   31.9490   41.2280 C   0  0  0  0  0  0  0  0  0  0  0  0
   50.3380   32.1820   42.1660 C   0  0  0  0  0  0  0  0  0  0  0  0
   49.0310   32.1000   41.7910 C   0  0  0  0  0  0  0  0  0  0  0  0
   48.7670   31.7910   40.5110 N   0  0  0  0  0  0  0  0  0  0  0  0
   49.7340   31.5670   39.6110 C   0  0  0  0  0  0  0  0  0  0  0  0
   51.0330   31.6420   39.9510 N   0  0  0  0  0  0  0  0  0  0  0  0
   52.3950   32.0190   41.5450 H   0  0  0  0  0  0  0  0  0  0  0  0
   50.6530   32.4260   43.1780 H   0  0  0  0  0  0  0  0  0  0  0  0
   49.3500   31.3310   38.6280 H   0  0  0  0  0  0  0  0  0  0  0  0
   46.3180   34.2240   45.5440 O   0  0  0  0  0  0  0  0  0  0  0  0
   45.5510   31.6770   45.6380 O   0  0  0  0  0  0  0  0  0  0  0  0
   46.0980   32.8480   46.4700 P   0  0  2  0  0  0  0  0  0  0  0  0
   44.8190   33.2200   47.5570 O   0  0  0  0  0  0  0  0  0  0  0  0
   43.9450   33.0480   47.1630 H   0  0  0  0  0  0  0  0  0  0  0  0
   47.4250   32.4210   47.3840 O   0  0  0  0  0  0  0  0  0  0  0  0
   47.6760   31.0730   47.2070 C   0  0  0  0  0  0  0  0  0  0  0  0
   46.6960   30.5620   47.2500 H   0  0  0  0  0  0  0  0  0  0  0  0
   48.1450   30.8530   46.2200 H   0  0  0  0  0  0  0  0  0  0  0  0
   49.0400   31.4080   49.3050 C   0  0  0  0  0  3  0  0  0  0  0  0
   48.5560   30.5770   48.2980 C   0  0  0  0  0  0  0  0  0  0  0  0
   48.8830   29.2170   48.2640 C   0  0  0  0  0  0  0  0  0  0  0  0
   48.5220   28.5540   47.4960 H   0  0  0  0  0  0  0  0  0  0  0  0
   49.7000   28.7140   49.2600 C   0  0  0  0  0  0  0  0  0  0  0  0
   50.1820   27.4630   49.4910 N   0  0  0  0  0  0  0  0  0  0  0  0
   49.9570   26.6510   48.8640 H   0  0  0  0  0  0  0  0  0  0  0  0
   50.9290   27.4910   50.5830 N   0  0  0  0  0  0  0  0  0  0  0  0
   50.9610   28.7420   51.0940 C   0  0  0  0  0  0  0  0  0  0  0  0
   51.5030   29.0380   51.9880 H   0  0  0  0  0  0  0  0  0  0  0  0
   50.1820   29.5450   50.2660 C   0  0  0  0  0  0  0  0  0  0  0  0
   49.8650   30.8850   50.3040 C   0  0  0  0  0  3  0  0  0  0  0  0
  1 16  1  0  0  0  0
  1  6  1  0  0  0  0
  2  1  1  0  0  0  0
  3  2  1  0  0  0  0
  3  4  1  0  0  0  0
  4 12  1  0  0  0  0
  4  5  1  0  0  0  0
  5  6  1  0  0  0  0
  5 13  1  0  0  0  0
  6 15  1  6  0  0  0
  6 31  1  0  0  0  0
  7  2  1  0  0  0  0
  8  2  1  0  0  0  0
  9  3  1  0  0  0  0
 10  3  1  0  0  0  0
 11  4  1  0  0  0  0
 14  5  1  0  0  0  0
 16 18  1  0  0  0  0
 17 16  1  0  0  0  0
 19 16  1  0  0  0  0
 19 21  1  0  0  0  0
 20 19  1  0  0  0  0
 22 28  1  0  0  0  0
 22 23  1  0  0  0  0
 23 29  1  0  0  0  0
 24 23  2  0  0  0  0
 24 19  1  0  0  0  0
 25 24  1  0  0  0  0
 26 27  1  0  0  0  0
 26 25  2  0  0  0  0
 27 22  2  0  0  0  0
 30 26  1  0  0  0  0
 31 33  1  0  0  0  0
 33 32  2  6  0  0  0
 33 36  1  0  0  0  0
 33 34  1  0  0  0  0
 35 34  1  0  0  0  0
 37 38  1  0  0  0  0
 37 36  1  0  0  0  0
 37 41  1  0  0  0  0
 39 37  1  0  0  0  0
 40 51  1  0  0  0  0
 41 40  2  0  0  0  0
 42 41  1  0  0  0  0
 42 44  2  0  0  0  0
 43 42  1  0  0  0  0
 44 45  1  0  0  0  0
 44 50  1  0  0  0  0
 45 47  1  0  0  0  0
 46 45  1  0  0  0  0
 47 48  2  0  0  0  0
 48 49  1  0  0  0  0
 50 51  2  0  0  0  0
 50 48  1  0  0  0  0
M  END
>  <minimizedAffinity>
-5.49067116

>  <minimizedRMSD>
3.2879982

$$$$
