
 OpenBabel03252501253D

 38 42  0  0  0  0  0  0  0  0999 V2000
   43.8310   32.3820   42.0460 F   0  0  0  0  0  0  0  0  0  0  0  0
   44.2500   33.6150   42.3470 C   0  0  0  0  0  0  0  0  0  0  0  0
   45.3760   33.7830   43.1150 C   0  0  0  0  0  0  0  0  0  0  0  0
   45.8290   35.0590   43.4400 C   0  0  0  0  0  0  0  0  0  0  0  0
   45.1790   36.1940   43.0160 C   0  0  0  0  0  0  0  0  0  0  0  0
   44.0650   36.0080   42.2570 C   0  0  0  0  0  0  0  0  0  0  0  0
   43.5890   34.7560   41.9150 C   0  0  0  0  0  0  0  0  0  0  0  0
   46.7290   35.2110   44.0530 H   0  0  0  0  0  0  0  0  0  0  0  0
   45.5150   37.1960   43.2570 H   0  0  0  0  0  0  0  0  0  0  0  0
   43.5070   36.8810   41.8900 H   0  0  0  0  0  0  0  0  0  0  0  0
   42.4500   35.1170   39.7930 C   0  0  0  0  0  0  0  0  0  0  0  0
   42.3860   34.6450   41.0980 C   0  0  0  0  0  0  0  0  0  0  0  0
   41.1690   34.1120   41.4940 C   0  0  0  0  0  0  0  0  0  0  0  0
   41.1470   33.7510   42.5170 H   0  0  0  0  0  0  0  0  0  0  0  0
   40.1050   34.0650   40.6230 C   0  0  0  0  0  0  0  0  0  0  0  0
   38.8480   33.5930   40.8010 N   0  0  0  0  0  0  0  0  0  0  0  0
   38.4810   33.1700   41.6800 H   0  0  0  0  0  0  0  0  0  0  0  0
   38.1610   33.7530   39.6920 N   0  0  0  0  0  0  0  0  0  0  0  0
   38.9350   34.3290   38.7560 C   0  0  0  0  0  0  0  0  0  0  0  0
   38.7010   34.6100   37.7220 H   0  0  0  0  0  0  0  0  0  0  0  0
   40.1780   34.5350   39.3340 C   0  0  0  0  0  0  0  0  0  0  0  0
   41.3800   35.0700   38.9180 C   0  0  0  0  0  0  0  0  0  0  0  0
   46.6140   30.9720   44.8500 C   0  0  0  0  0  0  0  0  0  0  0  0
   47.7040   31.2880   44.0680 C   0  0  0  0  0  0  0  0  0  0  0  0
   47.4110   32.3760   43.3080 C   0  0  0  0  0  0  0  0  0  0  0  0
   46.1460   32.7270   43.6220 N   0  0  0  0  0  0  0  0  0  0  0  0
   45.6760   31.8810   44.5460 N   0  0  0  0  0  0  0  0  0  0  0  0
   48.6290   30.7440   44.0760 H   0  0  0  0  0  0  0  0  0  0  0  0
   48.0660   32.8760   42.5820 H   0  0  0  0  0  0  0  0  0  0  0  0
   45.2890   28.3500   47.0320 C   0  0  0  0  0  0  0  0  0  0  0  0
   46.4490   27.7940   47.5810 C   0  0  0  0  0  0  0  0  0  0  0  0
   47.6830   28.3190   47.2030 C   0  0  0  0  0  0  0  0  0  0  0  0
   47.6570   29.3440   46.3170 N   0  0  0  0  0  0  0  0  0  0  0  0
   46.5410   29.8770   45.7900 C   0  0  0  0  0  0  0  0  0  0  0  0
   45.3420   29.3740   46.1530 N   0  0  0  0  0  0  0  0  0  0  0  0
   44.3560   27.9050   47.3610 H   0  0  0  0  0  0  0  0  0  0  0  0
   46.4890   26.9880   48.2780 H   0  0  0  0  0  0  0  0  0  0  0  0
   48.6640   28.0050   47.5330 H   0  0  0  0  0  0  0  0  0  0  0  0
  1  2  1  0  0  0  0
  2  3  1  0  0  0  0
  3  4  2  0  0  0  0
  3 26  1  0  0  0  0
  4  8  1  0  0  0  0
  5  9  1  0  0  0  0
  5  4  1  0  0  0  0
  6  5  2  0  0  0  0
  7  6  1  0  0  0  0
  7  2  2  0  0  0  0
 10  6  1  0  0  0  0
 11 12  1  0  0  0  0
 12 13  2  0  0  0  0
 12  7  1  0  0  0  0
 13 14  1  0  0  0  0
 15 16  1  0  0  0  0
 15 13  1  0  0  0  0
 16 17  1  0  0  0  0
 18 16  1  0  0  0  0
 19 21  1  0  0  0  0
 19 18  2  0  0  0  0
 20 19  1  0  0  0  0
 21 15  2  0  0  0  0
 22 21  1  0  0  0  0
 22 11  2  0  0  0  0
 23 34  1  0  0  0  0
 24 28  1  0  0  0  0
 24 23  1  0  0  0  0
 25 26  1  0  0  0  0
 25 24  2  0  0  0  0
 26 27  1  0  0  0  0
 27 23  2  0  0  0  0
 29 25  1  0  0  0  0
 30 36  1  0  0  0  0
 30 31  1  0  0  0  0
 31 37  1  0  0  0  0
 32 38  1  0  0  0  0
 32 31  2  0  0  0  0
 33 32  1  0  0  0  0
 34 35  1  0  0  0  0
 34 33  2  0  0  0  0
 35 30  2  0  0  0  0
M  END
>  <minimizedAffinity>
-6.0014534

>  <minimizedRMSD>
4.15252638

$$$$
