
 OpenBabel03252509033D

 51 54  0  0  1  0  0  0  0  0999 V2000
   47.1540   34.1800   43.0810 N   0  0  0  0  0  0  0  0  0  0  0  0
   46.6480   35.2400   42.2960 C   0  0  0  0  0  0  0  0  0  0  0  0
   45.1430   35.4410   42.3920 C   0  0  0  0  0  0  0  0  0  0  0  0
   44.5850   35.1500   43.7620 C   0  0  0  0  0  0  0  0  0  0  0  0
   45.6800   34.7950   44.7540 C   0  0  0  0  0  0  0  0  0  0  0  0
   46.4000   33.5720   44.0550 C   0  0  2  0  0  0  0  0  0  0  0  0
   46.8800   35.2150   41.2270 H   0  0  0  0  0  0  0  0  0  0  0  0
   47.0900   36.2010   42.6650 H   0  0  0  0  0  0  0  0  0  0  0  0
   44.6750   34.7790   41.6160 H   0  0  0  0  0  0  0  0  0  0  0  0
   44.9120   36.4820   42.0840 H   0  0  0  0  0  0  0  0  0  0  0  0
   43.9630   35.9750   44.1640 H   0  0  0  0  0  0  0  0  0  0  0  0
   43.9280   34.2530   43.7120 H   0  0  0  0  0  0  0  0  0  0  0  0
   45.2210   34.4480   45.6820 H   0  0  0  0  0  0  0  0  0  0  0  0
   46.4160   35.6000   44.8650 H   0  0  0  0  0  0  0  0  0  0  0  0
   45.6070   32.8640   43.7590 H   0  0  0  0  0  0  0  0  0  0  0  0
   48.2020   33.4190   42.4450 C   0  0  0  0  0  0  0  0  0  0  0  0
   48.9050   34.0890   41.9340 H   0  0  0  0  0  0  0  0  0  0  0  0
   48.7830   32.8960   43.2540 H   0  0  0  0  0  0  0  0  0  0  0  0
   47.5700   32.3850   41.5880 C   0  0  0  0  0  0  0  0  0  0  0  0
   46.4830   32.5820   41.4310 H   0  0  0  0  0  0  0  0  0  0  0  0
   47.6390   31.3490   41.9840 H   0  0  0  0  0  0  0  0  0  0  0  0
   49.6070   31.4880   38.5530 C   0  0  0  0  0  0  0  0  0  0  0  0
   49.0330   31.4570   39.8360 C   0  0  0  0  0  0  0  0  0  0  0  0
   48.1670   32.4360   40.2250 C   0  0  0  0  0  0  0  0  0  0  0  0
   47.8930   33.4110   39.3440 N   0  0  0  0  0  0  0  0  0  0  0  0
   48.4360   33.4490   38.1180 C   0  0  0  0  0  0  0  0  0  0  0  0
   49.2930   32.4970   37.7080 N   0  0  0  0  0  0  0  0  0  0  0  0
   50.2930   30.7000   38.2630 H   0  0  0  0  0  0  0  0  0  0  0  0
   49.3170   30.6260   40.4780 H   0  0  0  0  0  0  0  0  0  0  0  0
   48.1090   34.3000   37.5380 H   0  0  0  0  0  0  0  0  0  0  0  0
   47.1560   33.0840   45.1030 O   0  0  0  0  0  0  0  0  0  0  0  0
   46.1330   30.7050   44.4890 O   0  0  0  0  0  0  0  0  0  0  0  0
   46.6420   31.5870   45.6410 P   0  0  2  0  0  0  0  0  0  0  0  0
   45.2370   31.8900   46.5850 O   0  0  0  0  0  0  0  0  0  0  0  0
   44.4330   31.9280   46.0380 H   0  0  0  0  0  0  0  0  0  0  0  0
   47.7400   30.7970   46.6150 O   0  0  0  0  0  0  0  0  0  0  0  0
   47.7180   29.4480   46.3140 C   0  0  0  0  0  0  0  0  0  0  0  0
   46.6880   29.0980   46.5140 H   0  0  0  0  0  0  0  0  0  0  0  0
   47.9580   29.2470   45.2450 H   0  0  0  0  0  0  0  0  0  0  0  0
   48.6620   27.3380   47.3280 C   0  0  0  0  0  3  0  0  0  0  0  0
   48.6800   28.7220   47.1850 C   0  0  0  0  0  0  0  0  0  0  0  0
   49.6190   29.5060   47.8630 C   0  0  0  0  0  0  0  0  0  0  0  0
   49.6540   30.5780   47.7690 H   0  0  0  0  0  0  0  0  0  0  0  0
   50.5340   28.8700   48.6840 C   0  0  0  0  0  0  0  0  0  0  0  0
   51.5450   29.3520   49.4560 N   0  0  0  0  0  0  0  0  0  0  0  0
   51.7650   30.3780   49.5190 H   0  0  0  0  0  0  0  0  0  0  0  0
   52.1390   28.3340   50.0590 N   0  0  0  0  0  0  0  0  0  0  0  0
   51.5450   27.1720   49.7060 C   0  0  0  0  0  0  0  0  0  0  0  0
   51.8400   26.1890   50.0600 H   0  0  0  0  0  0  0  0  0  0  0  0
   50.5140   27.4880   48.8260 C   0  0  0  0  0  0  0  0  0  0  0  0
   49.5920   26.7110   48.1610 C   0  0  0  0  0  3  0  0  0  0  0  0
  1  6  1  0  0  0  0
  2  3  1  0  0  0  0
  2  8  1  0  0  0  0
  2  1  1  0  0  0  0
  3  4  1  0  0  0  0
  4 11  1  0  0  0  0
  4  5  1  0  0  0  0
  5 14  1  0  0  0  0
  5 13  1  0  0  0  0
  6 15  1  6  0  0  0
  6  5  1  0  0  0  0
  6 31  1  0  0  0  0
  7  2  1  0  0  0  0
  9  3  1  0  0  0  0
 10  3  1  0  0  0  0
 12  4  1  0  0  0  0
 16  1  1  0  0  0  0
 16 18  1  0  0  0  0
 17 16  1  0  0  0  0
 19 21  1  0  0  0  0
 19 16  1  0  0  0  0
 20 19  1  0  0  0  0
 22 23  1  0  0  0  0
 23 24  2  0  0  0  0
 23 29  1  0  0  0  0
 24 19  1  0  0  0  0
 25 24  1  0  0  0  0
 26 25  2  0  0  0  0
 27 26  1  0  0  0  0
 27 22  2  0  0  0  0
 28 22  1  0  0  0  0
 30 26  1  0  0  0  0
 31 33  1  0  0  0  0
 33 32  2  6  0  0  0
 33 34  1  0  0  0  0
 33 36  1  0  0  0  0
 35 34  1  0  0  0  0
 37 38  1  0  0  0  0
 37 36  1  0  0  0  0
 37 41  1  0  0  0  0
 39 37  1  0  0  0  0
 40 51  1  0  0  0  0
 41 40  2  0  0  0  0
 41 42  1  0  0  0  0
 42 44  2  0  0  0  0
 43 42  1  0  0  0  0
 44 50  1  0  0  0  0
 44 45  1  0  0  0  0
 45 46  1  0  0  0  0
 45 47  1  0  0  0  0
 48 47  2  0  0  0  0
 48 49  1  0  0  0  0
 50 48  1  0  0  0  0
 51 50  2  0  0  0  0
M  END
>  <minimizedAffinity>
-4.02194643

>  <minimizedRMSD>
1.29045248

$$$$
