
 OpenBabel03252509033D

 51 54  0  0  1  0  0  0  0  0999 V2000
   47.1520   34.1800   43.0770 N   0  0  0  0  0  0  0  0  0  0  0  0
   46.6820   35.2720   42.3140 C   0  0  0  0  0  0  0  0  0  0  0  0
   45.1840   35.5210   42.4150 C   0  0  0  0  0  0  0  0  0  0  0  0
   44.6170   35.2210   43.7790 C   0  0  0  0  0  0  0  0  0  0  0  0
   45.6990   34.8090   44.7640 C   0  0  0  0  0  0  0  0  0  0  0  0
   46.3790   33.5770   44.0390 C   0  0  2  0  0  0  0  0  0  0  0  0
   46.9120   35.2600   41.2450 H   0  0  0  0  0  0  0  0  0  0  0  0
   47.1560   36.2100   42.7020 H   0  0  0  0  0  0  0  0  0  0  0  0
   44.6950   34.8910   41.6260 H   0  0  0  0  0  0  0  0  0  0  0  0
   44.9880   36.5750   42.1280 H   0  0  0  0  0  0  0  0  0  0  0  0
   44.0230   36.0580   44.1990 H   0  0  0  0  0  0  0  0  0  0  0  0
   43.9300   34.3470   43.7110 H   0  0  0  0  0  0  0  0  0  0  0  0
   45.2290   34.4600   45.6840 H   0  0  0  0  0  0  0  0  0  0  0  0
   46.4620   35.5880   44.8900 H   0  0  0  0  0  0  0  0  0  0  0  0
   45.5620   32.9030   43.7300 H   0  0  0  0  0  0  0  0  0  0  0  0
   48.1740   33.3970   42.4250 C   0  0  0  0  0  0  0  0  0  0  0  0
   48.8990   34.0540   41.9270 H   0  0  0  0  0  0  0  0  0  0  0  0
   48.7380   32.8390   43.2220 H   0  0  0  0  0  0  0  0  0  0  0  0
   47.5090   32.4030   41.5480 C   0  0  0  0  0  0  0  0  0  0  0  0
   46.4280   32.6390   41.3960 H   0  0  0  0  0  0  0  0  0  0  0  0
   47.5430   31.3570   41.9220 H   0  0  0  0  0  0  0  0  0  0  0  0
   49.5140   31.5000   38.4940 C   0  0  0  0  0  0  0  0  0  0  0  0
   48.9390   31.4630   39.7760 C   0  0  0  0  0  0  0  0  0  0  0  0
   48.1070   32.4610   40.1850 C   0  0  0  0  0  0  0  0  0  0  0  0
   47.8650   33.4630   39.3250 N   0  0  0  0  0  0  0  0  0  0  0  0
   48.4090   33.5070   38.1000 C   0  0  0  0  0  0  0  0  0  0  0  0
   49.2330   32.5360   37.6700 N   0  0  0  0  0  0  0  0  0  0  0  0
   50.1740   30.6960   38.1870 H   0  0  0  0  0  0  0  0  0  0  0  0
   49.1960   30.6100   40.4010 H   0  0  0  0  0  0  0  0  0  0  0  0
   48.1110   34.3800   37.5370 H   0  0  0  0  0  0  0  0  0  0  0  0
   47.1180   33.0440   45.0770 O   0  0  0  0  0  0  0  0  0  0  0  0
   45.9690   30.7280   44.4450 O   0  0  0  0  0  0  0  0  0  0  0  0
   46.5390   31.5650   45.6010 P   0  0  2  0  0  0  0  0  0  0  0  0
   45.1670   31.9220   46.5740 O   0  0  0  0  0  0  0  0  0  0  0  0
   44.3560   32.0080   46.0410 H   0  0  0  0  0  0  0  0  0  0  0  0
   47.6130   30.7070   46.5440 O   0  0  0  0  0  0  0  0  0  0  0  0
   47.5120   29.3640   46.2310 C   0  0  0  0  0  0  0  0  0  0  0  0
   46.4660   29.0710   46.4400 H   0  0  0  0  0  0  0  0  0  0  0  0
   47.7270   29.1610   45.1560 H   0  0  0  0  0  0  0  0  0  0  0  0
   49.2770   29.1700   48.0250 C   0  0  0  0  0  3  0  0  0  0  0  0
   48.4420   28.5770   47.0820 C   0  0  0  0  0  0  0  0  0  0  0  0
   48.4400   27.1910   46.8880 C   0  0  0  0  0  0  0  0  0  0  0  0
   47.8050   26.7090   46.1660 H   0  0  0  0  0  0  0  0  0  0  0  0
   49.2900   26.4210   47.6600 C   0  0  0  0  0  0  0  0  0  0  0  0
   49.5110   25.0780   47.7020 N   0  0  0  0  0  0  0  0  0  0  0  0
   48.9970   24.4060   47.0780 H   0  0  0  0  0  0  0  0  0  0  0  0
   50.4320   24.8280   48.6190 N   0  0  0  0  0  0  0  0  0  0  0  0
   50.8390   25.9800   49.1970 C   0  0  0  0  0  0  0  0  0  0  0  0
   51.5880   26.0530   49.9800 H   0  0  0  0  0  0  0  0  0  0  0  0
   50.1250   27.0150   48.6020 C   0  0  0  0  0  0  0  0  0  0  0  0
   50.1300   28.3780   48.7960 C   0  0  0  0  0  3  0  0  0  0  0  0
  1  6  1  0  0  0  0
  2  3  1  0  0  0  0
  2  8  1  0  0  0  0
  2  1  1  0  0  0  0
  3  4  1  0  0  0  0
  4 11  1  0  0  0  0
  4  5  1  0  0  0  0
  5 14  1  0  0  0  0
  5 13  1  0  0  0  0
  6 15  1  6  0  0  0
  6  5  1  0  0  0  0
  6 31  1  0  0  0  0
  7  2  1  0  0  0  0
  9  3  1  0  0  0  0
 10  3  1  0  0  0  0
 12  4  1  0  0  0  0
 16  1  1  0  0  0  0
 16 18  1  0  0  0  0
 17 16  1  0  0  0  0
 19 21  1  0  0  0  0
 19 16  1  0  0  0  0
 20 19  1  0  0  0  0
 22 23  1  0  0  0  0
 23 24  2  0  0  0  0
 23 29  1  0  0  0  0
 24 19  1  0  0  0  0
 25 24  1  0  0  0  0
 26 25  2  0  0  0  0
 27 26  1  0  0  0  0
 27 22  2  0  0  0  0
 28 22  1  0  0  0  0
 30 26  1  0  0  0  0
 31 33  1  0  0  0  0
 33 32  2  6  0  0  0
 33 36  1  0  0  0  0
 33 34  1  0  0  0  0
 35 34  1  0  0  0  0
 37 38  1  0  0  0  0
 37 36  1  0  0  0  0
 37 41  1  0  0  0  0
 39 37  1  0  0  0  0
 40 51  1  0  0  0  0
 41 40  2  0  0  0  0
 42 41  1  0  0  0  0
 42 44  2  0  0  0  0
 43 42  1  0  0  0  0
 44 45  1  0  0  0  0
 44 50  1  0  0  0  0
 45 47  1  0  0  0  0
 46 45  1  0  0  0  0
 47 48  2  0  0  0  0
 48 49  1  0  0  0  0
 50 51  2  0  0  0  0
 50 48  1  0  0  0  0
M  END
>  <minimizedAffinity>
-3.90800714

>  <minimizedRMSD>
1.23854244

$$$$
