
 OpenBabel03252509043D

 51 54  0  0  1  0  0  0  0  0999 V2000
   47.1560   34.1890   43.0810 N   0  0  0  0  0  0  0  0  0  0  0  0
   46.6040   35.2000   42.2630 C   0  0  0  0  0  0  0  0  0  0  0  0
   45.0960   35.3610   42.3810 C   0  0  0  0  0  0  0  0  0  0  0  0
   44.5720   35.1120   43.7720 C   0  0  0  0  0  0  0  0  0  0  0  0
   45.6960   34.8300   44.7570 C   0  0  0  0  0  0  0  0  0  0  0  0
   46.4390   33.6000   44.0940 C   0  0  2  0  0  0  0  0  0  0  0  0
   46.8160   35.1360   41.1920 H   0  0  0  0  0  0  0  0  0  0  0  0
   47.0250   36.1880   42.5830 H   0  0  0  0  0  0  0  0  0  0  0  0
   44.6330   34.6550   41.6420 H   0  0  0  0  0  0  0  0  0  0  0  0
   44.8290   36.3820   42.0340 H   0  0  0  0  0  0  0  0  0  0  0  0
   43.9340   35.9350   44.1530 H   0  0  0  0  0  0  0  0  0  0  0  0
   43.9410   34.1950   43.7730 H   0  0  0  0  0  0  0  0  0  0  0  0
   45.2650   34.5100   45.7070 H   0  0  0  0  0  0  0  0  0  0  0  0
   46.4100   35.6600   44.8190 H   0  0  0  0  0  0  0  0  0  0  0  0
   45.6610   32.8580   43.8440 H   0  0  0  0  0  0  0  0  0  0  0  0
   48.2130   33.4310   42.4560 C   0  0  0  0  0  0  0  0  0  0  0  0
   48.8870   34.1000   41.9030 H   0  0  0  0  0  0  0  0  0  0  0  0
   48.8250   32.9600   43.2740 H   0  0  0  0  0  0  0  0  0  0  0  0
   47.5960   32.3450   41.6550 C   0  0  0  0  0  0  0  0  0  0  0  0
   46.5000   32.5040   41.5120 H   0  0  0  0  0  0  0  0  0  0  0  0
   47.7030   31.3290   42.0920 H   0  0  0  0  0  0  0  0  0  0  0  0
   49.6010   31.3800   38.6200 C   0  0  0  0  0  0  0  0  0  0  0  0
   49.0510   31.3870   39.9140 C   0  0  0  0  0  0  0  0  0  0  0  0
   48.1650   32.3560   40.2790 C   0  0  0  0  0  0  0  0  0  0  0  0
   47.8460   33.2850   39.3640 N   0  0  0  0  0  0  0  0  0  0  0  0
   48.3640   33.2860   38.1280 C   0  0  0  0  0  0  0  0  0  0  0  0
   49.2410   32.3430   37.7400 N   0  0  0  0  0  0  0  0  0  0  0  0
   50.3040   30.6000   38.3480 H   0  0  0  0  0  0  0  0  0  0  0  0
   49.3720   30.5910   40.5840 H   0  0  0  0  0  0  0  0  0  0  0  0
   48.0020   34.1030   37.5190 H   0  0  0  0  0  0  0  0  0  0  0  0
   47.2280   33.1790   45.1460 O   0  0  0  0  0  0  0  0  0  0  0  0
   46.2570   30.7490   44.6610 O   0  0  0  0  0  0  0  0  0  0  0  0
   46.7620   31.6960   45.7620 P   0  0  2  0  0  0  0  0  0  0  0  0
   45.3670   32.0070   46.7170 O   0  0  0  0  0  0  0  0  0  0  0  0
   44.5520   31.9990   46.1830 H   0  0  0  0  0  0  0  0  0  0  0  0
   47.8970   30.9800   46.7510 O   0  0  0  0  0  0  0  0  0  0  0  0
   47.8930   29.6160   46.5260 C   0  0  0  0  0  0  0  0  0  0  0  0
   46.8780   29.2580   46.7840 H   0  0  0  0  0  0  0  0  0  0  0  0
   48.0970   29.3600   45.4610 H   0  0  0  0  0  0  0  0  0  0  0  0
   49.9130   29.6690   48.0390 C   0  0  0  0  0  3  0  0  0  0  0  0
   48.9010   28.9580   47.3980 C   0  0  0  0  0  0  0  0  0  0  0  0
   48.7870   27.5720   47.5460 C   0  0  0  0  0  0  0  0  0  0  0  0
   48.0130   27.0000   47.0610 H   0  0  0  0  0  0  0  0  0  0  0  0
   49.7050   26.9210   48.3480 C   0  0  0  0  0  0  0  0  0  0  0  0
   49.8490   25.6080   48.6790 N   0  0  0  0  0  0  0  0  0  0  0  0
   49.2010   24.8630   48.3180 H   0  0  0  0  0  0  0  0  0  0  0  0
   50.8930   25.4860   49.4860 N   0  0  0  0  0  0  0  0  0  0  0  0
   51.4550   26.6950   49.7050 C   0  0  0  0  0  0  0  0  0  0  0  0
   52.3260   26.8740   50.3300 H   0  0  0  0  0  0  0  0  0  0  0  0
   50.7150   27.6310   48.9880 C   0  0  0  0  0  0  0  0  0  0  0  0
   50.8330   28.9960   48.8460 C   0  0  0  0  0  3  0  0  0  0  0  0
  1  6  1  0  0  0  0
  2  3  1  0  0  0  0
  2  8  1  0  0  0  0
  2  1  1  0  0  0  0
  3  4  1  0  0  0  0
  4 12  1  0  0  0  0
  4 11  1  0  0  0  0
  4  5  1  0  0  0  0
  5 14  1  0  0  0  0
  5 13  1  0  0  0  0
  6 15  1  6  0  0  0
  6  5  1  0  0  0  0
  6 31  1  0  0  0  0
  7  2  1  0  0  0  0
  9  3  1  0  0  0  0
 10  3  1  0  0  0  0
 16  1  1  0  0  0  0
 16 18  1  0  0  0  0
 17 16  1  0  0  0  0
 19 21  1  0  0  0  0
 19 16  1  0  0  0  0
 20 19  1  0  0  0  0
 22 23  1  0  0  0  0
 23 24  2  0  0  0  0
 23 29  1  0  0  0  0
 24 19  1  0  0  0  0
 25 24  1  0  0  0  0
 26 25  2  0  0  0  0
 27 26  1  0  0  0  0
 27 22  2  0  0  0  0
 28 22  1  0  0  0  0
 30 26  1  0  0  0  0
 31 33  1  0  0  0  0
 33 32  2  6  0  0  0
 33 34  1  0  0  0  0
 33 36  1  0  0  0  0
 35 34  1  0  0  0  0
 37 36  1  0  0  0  0
 37 38  1  0  0  0  0
 37 41  1  0  0  0  0
 39 37  1  0  0  0  0
 40 51  1  0  0  0  0
 41 42  1  0  0  0  0
 41 40  2  0  0  0  0
 42 44  2  0  0  0  0
 43 42  1  0  0  0  0
 44 45  1  0  0  0  0
 44 50  1  0  0  0  0
 45 47  1  0  0  0  0
 46 45  1  0  0  0  0
 47 48  2  0  0  0  0
 48 49  1  0  0  0  0
 50 48  1  0  0  0  0
 51 50  2  0  0  0  0
M  END
>  <minimizedAffinity>
-3.95351839

>  <minimizedRMSD>
1.57566905

$$$$
