
 OpenBabel03252501303D

 41 44  0  0  0  0  0  0  0  0999 V2000
   39.9860   27.4090   43.2740 C   0  0  0  0  0  0  0  0  0  0  0  0
   41.1050   27.9810   42.7240 C   0  0  0  0  0  0  0  0  0  0  0  0
   41.1500   29.2280   42.1910 C   0  0  0  0  0  0  0  0  0  0  0  0
   40.0170   29.9650   42.2020 C   0  0  0  0  0  0  0  0  0  0  0  0
   38.8440   29.4240   42.7550 C   0  0  0  0  0  0  0  0  0  0  0  0
   38.8440   28.1540   43.2850 C   0  0  0  0  0  0  0  0  0  0  0  0
   41.9900   27.3230   42.7500 H   0  0  0  0  0  0  0  0  0  0  0  0
   42.0950   29.5640   41.7870 H   0  0  0  0  0  0  0  0  0  0  0  0
   38.0470   30.1640   42.6720 H   0  0  0  0  0  0  0  0  0  0  0  0
   41.3240   31.8400   41.2740 C   0  0  0  0  0  3  0  0  0  0  0  0
   40.1220   31.3190   41.6070 C   0  0  0  0  0  0  0  0  0  0  0  0
   38.9680   32.0680   41.3920 C   0  0  0  0  0  0  0  0  0  0  0  0
   37.9880   31.6950   41.6410 H   0  0  0  0  0  0  0  0  0  0  0  0
   39.1580   33.3150   40.8390 C   0  0  0  0  0  0  0  0  0  0  0  0
   38.1800   34.2200   40.5430 N   0  0  0  0  0  0  0  0  0  0  0  0
   37.1390   34.1230   40.6800 H   0  0  0  0  0  0  0  0  0  0  0  0
   38.7810   35.2860   40.0320 N   0  0  0  0  0  0  0  0  0  0  0  0
   40.1170   35.1120   39.9820 C   0  0  0  0  0  0  0  0  0  0  0  0
   40.9460   35.7140   39.6490 H   0  0  0  0  0  0  0  0  0  0  0  0
   40.3790   33.8570   40.4960 C   0  0  0  0  0  0  0  0  0  0  0  0
   41.5250   33.0860   40.7210 C   0  0  0  0  0  3  0  0  0  0  0  0
   36.5220   27.7100   42.7440 C   0  0  0  0  0  0  0  0  0  0  0  0
   36.4260   27.6470   41.4690 O   0  0  0  0  0  0  0  0  0  0  0  0
   37.5100   27.9420   43.7550 N   0  0  0  0  0  0  0  0  0  0  0  0
   35.4720   27.5080   42.9490 H   0  0  0  0  0  0  0  0  0  0  0  0
   37.0940   27.9190   44.7040 H   0  0  0  0  0  0  0  0  0  0  0  0
   39.7990   26.0770   43.8620 C   0  0  0  0  0  0  0  0  0  0  0  0
   40.3860   26.0560   44.8030 H   0  0  0  0  0  0  0  0  0  0  0  0
   38.7440   25.9150   44.1700 H   0  0  0  0  0  0  0  0  0  0  0  0
   40.2220   24.9940   42.9020 C   0  0  0  0  0  0  0  0  0  0  0  0
   41.1900   25.2840   42.4000 H   0  0  0  0  0  0  0  0  0  0  0  0
   40.3710   24.0310   43.4520 H   0  0  0  0  0  0  0  0  0  0  0  0
   38.3600   24.8570   39.7540 C   0  0  0  0  0  0  0  0  0  0  0  0
   37.0850   24.4130   40.1580 C   0  0  0  0  0  0  0  0  0  0  0  0
   36.9180   24.1740   41.5140 C   0  0  0  0  0  0  0  0  0  0  0  0
   37.9450   24.3690   42.3660 N   0  0  0  0  0  0  0  0  0  0  0  0
   39.1390   24.7950   41.9170 C   0  0  0  0  0  0  0  0  0  0  0  0
   39.3640   25.0410   40.6380 N   0  0  0  0  0  0  0  0  0  0  0  0
   38.4470   25.0300   38.6950 H   0  0  0  0  0  0  0  0  0  0  0  0
   36.2910   24.2720   39.4340 H   0  0  0  0  0  0  0  0  0  0  0  0
   35.9570   23.8320   41.8700 H   0  0  0  0  0  0  0  0  0  0  0  0
  1  6  1  0  0  0  0
  1 27  1  0  0  0  0
  2  7  1  0  0  0  0
  2  1  2  0  0  0  0
  3  4  2  0  0  0  0
  3  2  1  0  0  0  0
  4  5  1  0  0  0  0
  5  6  2  0  0  0  0
  6 24  1  0  0  0  0
  8  3  1  0  0  0  0
  9  5  1  0  0  0  0
 10 11  1  0  0  0  0
 11  4  1  0  0  0  0
 12 11  2  0  0  0  0
 12 13  1  0  0  0  0
 14 12  1  0  0  0  0
 15 16  1  0  0  0  0
 15 14  1  0  0  0  0
 17 15  1  0  0  0  0
 18 17  2  0  0  0  0
 18 20  1  0  0  0  0
 19 18  1  0  0  0  0
 20 21  1  0  0  0  0
 20 14  2  0  0  0  0
 21 10  2  0  0  0  0
 22 25  1  0  0  0  0
 22 24  1  0  0  0  0
 23 22  2  0  0  0  0
 24 26  1  0  0  0  0
 27 29  1  0  0  0  0
 27 28  1  0  0  0  0
 30 32  1  0  0  0  0
 30 27  1  0  0  0  0
 31 30  1  0  0  0  0
 33 34  2  0  0  0  0
 33 38  1  0  0  0  0
 34 35  1  0  0  0  0
 35 41  1  0  0  0  0
 35 36  2  0  0  0  0
 37 36  1  0  0  0  0
 37 30  1  0  0  0  0
 38 37  2  0  0  0  0
 39 33  1  0  0  0  0
 40 34  1  0  0  0  0
M  END
>  <minimizedAffinity>
-6.37627268

$$$$

 OpenBabel03252501303D

 41 44  0  0  0  0  0  0  0  0999 V2000
   36.5400   29.8040   40.3310 C   0  0  0  0  0  0  0  0  0  0  0  0
   36.3630   29.1760   39.1250 C   0  0  0  0  0  0  0  0  0  0  0  0
   36.4040   27.8320   38.9420 C   0  0  0  0  0  0  0  0  0  0  0  0
   36.6340   27.0510   40.0220 C   0  0  0  0  0  0  0  0  0  0  0  0
   36.8200   27.6480   41.2810 C   0  0  0  0  0  0  0  0  0  0  0  0
   36.7700   29.0160   41.4190 C   0  0  0  0  0  0  0  0  0  0  0  0
   36.1810   29.8740   38.2890 H   0  0  0  0  0  0  0  0  0  0  0  0
   36.2500   27.4590   37.9400 H   0  0  0  0  0  0  0  0  0  0  0  0
   36.9890   26.8610   42.0160 H   0  0  0  0  0  0  0  0  0  0  0  0
   35.9210   25.0400   38.7850 C   0  0  0  0  0  3  0  0  0  0  0  0
   36.6690   25.5920   39.7670 C   0  0  0  0  0  0  0  0  0  0  0  0
   37.4800   24.7750   40.5510 C   0  0  0  0  0  0  0  0  0  0  0  0
   38.0930   25.1690   41.3450 H   0  0  0  0  0  0  0  0  0  0  0  0
   37.4490   23.4320   40.2470 C   0  0  0  0  0  0  0  0  0  0  0  0
   38.1550   22.4490   40.8790 N   0  0  0  0  0  0  0  0  0  0  0  0
   38.8280   22.5450   41.6860 H   0  0  0  0  0  0  0  0  0  0  0  0
   37.8410   21.3050   40.2870 N   0  0  0  0  0  0  0  0  0  0  0  0
   36.9550   21.5030   39.2900 C   0  0  0  0  0  0  0  0  0  0  0  0
   36.4580   20.8600   38.5820 H   0  0  0  0  0  0  0  0  0  0  0  0
   36.6910   22.8570   39.2490 C   0  0  0  0  0  0  0  0  0  0  0  0
   35.8830   23.6980   38.4740 C   0  0  0  0  0  3  0  0  0  0  0  0
   38.3600   29.3710   43.2150 C   0  0  0  0  0  0  0  0  0  0  0  0
   39.5350   29.2940   42.7120 O   0  0  0  0  0  0  0  0  0  0  0  0
   36.9910   29.2630   42.8100 N   0  0  0  0  0  0  0  0  0  0  0  0
   38.6830   29.5830   44.2330 H   0  0  0  0  0  0  0  0  0  0  0  0
   36.3470   29.3830   43.6140 H   0  0  0  0  0  0  0  0  0  0  0  0
   36.5370   31.2350   40.6580 C   0  0  0  0  0  0  0  0  0  0  0  0
   35.5210   31.4780   41.0300 H   0  0  0  0  0  0  0  0  0  0  0  0
   37.2210   31.4580   41.5060 H   0  0  0  0  0  0  0  0  0  0  0  0
   36.9210   32.0680   39.4610 C   0  0  0  0  0  0  0  0  0  0  0  0
   37.2050   31.3950   38.6010 H   0  0  0  0  0  0  0  0  0  0  0  0
   36.0600   32.7120   39.1510 H   0  0  0  0  0  0  0  0  0  0  0  0
   38.8860   35.0560   40.2380 C   0  0  0  0  0  0  0  0  0  0  0  0
   40.1530   34.5280   40.5620 C   0  0  0  0  0  0  0  0  0  0  0  0
   40.2770   33.1480   40.5000 C   0  0  0  0  0  0  0  0  0  0  0  0
   39.2220   32.3890   40.1460 N   0  0  0  0  0  0  0  0  0  0  0  0
   38.0380   32.9540   39.8480 C   0  0  0  0  0  0  0  0  0  0  0  0
   37.8530   34.2620   39.8870 N   0  0  0  0  0  0  0  0  0  0  0  0
   38.8320   36.1290   40.2990 H   0  0  0  0  0  0  0  0  0  0  0  0
   40.9710   35.1810   40.8410 H   0  0  0  0  0  0  0  0  0  0  0  0
   41.2310   32.6980   40.7400 H   0  0  0  0  0  0  0  0  0  0  0  0
  1 27  1  0  0  0  0
  1  6  1  0  0  0  0
  2  1  2  0  0  0  0
  3  2  1  0  0  0  0
  3  4  2  0  0  0  0
  4  5  1  0  0  0  0
  5  6  2  0  0  0  0
  5  9  1  0  0  0  0
  6 24  1  0  0  0  0
  7  2  1  0  0  0  0
  8  3  1  0  0  0  0
 10 11  1  0  0  0  0
 11  4  1  0  0  0  0
 11 12  2  0  0  0  0
 12 13  1  0  0  0  0
 14 12  1  0  0  0  0
 14 15  1  0  0  0  0
 15 16  1  0  0  0  0
 17 15  1  0  0  0  0
 18 17  2  0  0  0  0
 19 18  1  0  0  0  0
 20 18  1  0  0  0  0
 20 14  2  0  0  0  0
 21 10  2  0  0  0  0
 21 20  1  0  0  0  0
 22 25  1  0  0  0  0
 23 22  2  0  0  0  0
 24 22  1  0  0  0  0
 24 26  1  0  0  0  0
 27 28  1  0  0  0  0
 27 29  1  0  0  0  0
 30 37  1  0  0  0  0
 30 27  1  0  0  0  0
 31 30  1  0  0  0  0
 32 30  1  0  0  0  0
 33 39  1  0  0  0  0
 33 34  1  0  0  0  0
 34 40  1  0  0  0  0
 35 34  2  0  0  0  0
 35 41  1  0  0  0  0
 36 35  1  0  0  0  0
 37 38  1  0  0  0  0
 37 36  2  0  0  0  0
 38 33  2  0  0  0  0
M  END
>  <minimizedAffinity>
-6.33247566

$$$$

 OpenBabel03252501303D

 41 44  0  0  0  0  0  0  0  0999 V2000
   37.1490   26.9200   41.7240 C   0  0  0  0  0  0  0  0  0  0  0  0
   36.7140   27.5720   40.5990 C   0  0  0  0  0  0  0  0  0  0  0  0
   36.9580   28.8780   40.3220 C   0  0  0  0  0  0  0  0  0  0  0  0
   37.6820   29.5920   41.2130 C   0  0  0  0  0  0  0  0  0  0  0  0
   38.1510   28.9690   42.3810 C   0  0  0  0  0  0  0  0  0  0  0  0
   37.8790   27.6410   42.6210 C   0  0  0  0  0  0  0  0  0  0  0  0
   36.1310   26.9290   39.9180 H   0  0  0  0  0  0  0  0  0  0  0  0
   36.5590   29.2760   39.3990 H   0  0  0  0  0  0  0  0  0  0  0  0
   38.7080   29.7010   42.9660 H   0  0  0  0  0  0  0  0  0  0  0  0
   36.9990   31.7190   40.1660 C   0  0  0  0  0  3  0  0  0  0  0  0
   37.9180   31.0120   40.8610 C   0  0  0  0  0  0  0  0  0  0  0  0
   39.1060   31.6280   41.2480 C   0  0  0  0  0  0  0  0  0  0  0  0
   39.8680   31.1060   41.8040 H   0  0  0  0  0  0  0  0  0  0  0  0
   39.2450   32.9480   40.8770 C   0  0  0  0  0  0  0  0  0  0  0  0
   40.3180   33.7480   41.1430 N   0  0  0  0  0  0  0  0  0  0  0  0
   41.2010   33.5030   41.6650 H   0  0  0  0  0  0  0  0  0  0  0  0
   40.0560   34.9350   40.6140 N   0  0  0  0  0  0  0  0  0  0  0  0
   38.8490   34.9420   40.0110 C   0  0  0  0  0  0  0  0  0  0  0  0
   38.2750   35.6810   39.4780 H   0  0  0  0  0  0  0  0  0  0  0  0
   38.3150   33.6780   40.1680 C   0  0  0  0  0  0  0  0  0  0  0  0
   37.1290   33.0380   39.7900 C   0  0  0  0  0  3  0  0  0  0  0  0
   39.8560   26.8780   43.8010 C   0  0  0  0  0  0  0  0  0  0  0  0
   40.7440   26.5930   42.9240 O   0  0  0  0  0  0  0  0  0  0  0  0
   38.5060   27.3490   43.8730 N   0  0  0  0  0  0  0  0  0  0  0  0
   40.4690   26.6400   44.6680 H   0  0  0  0  0  0  0  0  0  0  0  0
   38.1770   27.4070   44.8550 H   0  0  0  0  0  0  0  0  0  0  0  0
   36.9410   25.5310   42.1490 C   0  0  0  0  0  0  0  0  0  0  0  0
   36.9580   25.5280   43.2580 H   0  0  0  0  0  0  0  0  0  0  0  0
   35.9280   25.1690   41.8700 H   0  0  0  0  0  0  0  0  0  0  0  0
   37.9870   24.6190   41.5600 C   0  0  0  0  0  0  0  0  0  0  0  0
   38.7500   25.2270   40.9930 H   0  0  0  0  0  0  0  0  0  0  0  0
   38.5060   24.0540   42.3750 H   0  0  0  0  0  0  0  0  0  0  0  0
   37.3040   21.6410   39.5470 C   0  0  0  0  0  0  0  0  0  0  0  0
   36.0080   21.8850   39.0470 C   0  0  0  0  0  0  0  0  0  0  0  0
   35.4170   23.0780   39.4320 C   0  0  0  0  0  0  0  0  0  0  0  0
   36.0780   23.9320   40.2390 N   0  0  0  0  0  0  0  0  0  0  0  0
   37.3140   23.6410   40.6830 C   0  0  0  0  0  0  0  0  0  0  0  0
   37.9340   22.5200   40.3540 N   0  0  0  0  0  0  0  0  0  0  0  0
   37.7260   20.7040   39.2260 H   0  0  0  0  0  0  0  0  0  0  0  0
   35.5190   21.1670   38.4000 H   0  0  0  0  0  0  0  0  0  0  0  0
   34.4230   23.3090   39.0720 H   0  0  0  0  0  0  0  0  0  0  0  0
  1 27  1  0  0  0  0
  1  6  1  0  0  0  0
  2  1  2  0  0  0  0
  3  2  1  0  0  0  0
  3  4  2  0  0  0  0
  4  5  1  0  0  0  0
  5  6  2  0  0  0  0
  5  9  1  0  0  0  0
  6 24  1  0  0  0  0
  7  2  1  0  0  0  0
  8  3  1  0  0  0  0
 10 11  1  0  0  0  0
 11  4  1  0  0  0  0
 11 12  2  0  0  0  0
 12 13  1  0  0  0  0
 14 15  1  0  0  0  0
 14 12  1  0  0  0  0
 15 16  1  0  0  0  0
 17 15  1  0  0  0  0
 18 20  1  0  0  0  0
 18 17  2  0  0  0  0
 19 18  1  0  0  0  0
 20 14  2  0  0  0  0
 21 10  2  0  0  0  0
 21 20  1  0  0  0  0
 22 24  1  0  0  0  0
 22 25  1  0  0  0  0
 23 22  2  0  0  0  0
 24 26  1  0  0  0  0
 27 28  1  0  0  0  0
 29 27  1  0  0  0  0
 30 27  1  0  0  0  0
 30 32  1  0  0  0  0
 31 30  1  0  0  0  0
 33 38  1  0  0  0  0
 34 35  1  0  0  0  0
 34 33  2  0  0  0  0
 35 36  2  0  0  0  0
 36 37  1  0  0  0  0
 37 30  1  0  0  0  0
 38 37  2  0  0  0  0
 39 33  1  0  0  0  0
 40 34  1  0  0  0  0
 41 35  1  0  0  0  0
M  END
>  <minimizedAffinity>
-6.26216459

$$$$

 OpenBabel03252501303D

 41 44  0  0  0  0  0  0  0  0999 V2000
   37.9300   29.4190   42.6040 C   0  0  0  0  0  0  0  0  0  0  0  0
   39.2690   29.6980   42.6960 C   0  0  0  0  0  0  0  0  0  0  0  0
   39.9110   30.6480   41.9700 C   0  0  0  0  0  0  0  0  0  0  0  0
   39.1830   31.3760   41.0930 C   0  0  0  0  0  0  0  0  0  0  0  0
   37.8060   31.1290   40.9630 C   0  0  0  0  0  0  0  0  0  0  0  0
   37.1970   30.1550   41.7200 C   0  0  0  0  0  0  0  0  0  0  0  0
   39.7990   29.0660   43.4290 H   0  0  0  0  0  0  0  0  0  0  0  0
   40.9720   30.7710   42.1340 H   0  0  0  0  0  0  0  0  0  0  0  0
   37.4000   31.8120   40.2160 H   0  0  0  0  0  0  0  0  0  0  0  0
   39.7020   33.7180   40.5160 C   0  0  0  0  0  3  0  0  0  0  0  0
   39.9330   32.3990   40.3260 C   0  0  0  0  0  0  0  0  0  0  0  0
   40.8870   31.9990   39.3940 C   0  0  0  0  0  0  0  0  0  0  0  0
   41.1050   30.9590   39.2080 H   0  0  0  0  0  0  0  0  0  0  0  0
   41.5330   33.0140   38.7250 C   0  0  0  0  0  0  0  0  0  0  0  0
   42.4980   32.8610   37.7710 N   0  0  0  0  0  0  0  0  0  0  0  0
   42.9050   31.9640   37.3930 H   0  0  0  0  0  0  0  0  0  0  0  0
   42.8540   34.0770   37.3820 N   0  0  0  0  0  0  0  0  0  0  0  0
   42.1580   35.0220   38.0460 C   0  0  0  0  0  0  0  0  0  0  0  0
   42.1420   36.0990   38.0310 H   0  0  0  0  0  0  0  0  0  0  0  0
   41.3070   34.3620   38.9100 C   0  0  0  0  0  0  0  0  0  0  0  0
   40.3440   34.7410   39.8520 C   0  0  0  0  0  3  0  0  0  0  0  0
   35.3950   29.1490   40.4470 C   0  0  0  0  0  0  0  0  0  0  0  0
   35.8790   28.1450   39.8180 O   0  0  0  0  0  0  0  0  0  0  0  0
   35.8200   30.1870   41.3380 N   0  0  0  0  0  0  0  0  0  0  0  0
   34.3740   29.0280   40.0900 H   0  0  0  0  0  0  0  0  0  0  0  0
   35.0370   30.8240   41.5780 H   0  0  0  0  0  0  0  0  0  0  0  0
   37.1240   28.4170   43.3110 C   0  0  0  0  0  0  0  0  0  0  0  0
   36.5620   28.9550   44.1020 H   0  0  0  0  0  0  0  0  0  0  0  0
   36.3490   27.9790   42.6470 H   0  0  0  0  0  0  0  0  0  0  0  0
   37.9920   27.3200   43.8740 C   0  0  0  0  0  0  0  0  0  0  0  0
   39.0020   27.7360   44.1550 H   0  0  0  0  0  0  0  0  0  0  0  0
   37.5120   26.8830   44.7870 H   0  0  0  0  0  0  0  0  0  0  0  0
   39.3860   24.8000   41.6170 C   0  0  0  0  0  0  0  0  0  0  0  0
   38.2430   24.2800   40.9760 C   0  0  0  0  0  0  0  0  0  0  0  0
   37.0250   24.8240   41.3550 C   0  0  0  0  0  0  0  0  0  0  0  0
   36.9790   25.7960   42.2880 N   0  0  0  0  0  0  0  0  0  0  0  0
   38.1080   26.2500   42.8630 C   0  0  0  0  0  0  0  0  0  0  0  0
   39.3000   25.7740   42.5470 N   0  0  0  0  0  0  0  0  0  0  0  0
   40.3090   24.3500   41.2950 H   0  0  0  0  0  0  0  0  0  0  0  0
   38.3320   23.4990   40.2310 H   0  0  0  0  0  0  0  0  0  0  0  0
   36.1210   24.4570   40.8900 H   0  0  0  0  0  0  0  0  0  0  0  0
  1  2  1  0  0  0  0
  1 27  1  0  0  0  0
  2  7  1  0  0  0  0
  3  8  1  0  0  0  0
  3  2  2  0  0  0  0
  4  3  1  0  0  0  0
  5  4  2  0  0  0  0
  5  6  1  0  0  0  0
  6  1  2  0  0  0  0
  9  5  1  0  0  0  0
 11 10  1  0  0  0  0
 11  4  1  0  0  0  0
 12 11  2  0  0  0  0
 13 12  1  0  0  0  0
 14 20  2  0  0  0  0
 14 12  1  0  0  0  0
 15 14  1  0  0  0  0
 16 15  1  0  0  0  0
 17 15  1  0  0  0  0
 17 18  2  0  0  0  0
 18 20  1  0  0  0  0
 19 18  1  0  0  0  0
 20 21  1  0  0  0  0
 21 10  2  0  0  0  0
 22 24  1  0  0  0  0
 23 22  2  0  0  0  0
 24 26  1  0  0  0  0
 24  6  1  0  0  0  0
 25 22  1  0  0  0  0
 27 30  1  0  0  0  0
 27 28  1  0  0  0  0
 29 27  1  0  0  0  0
 30 31  1  0  0  0  0
 30 32  1  0  0  0  0
 33 38  1  0  0  0  0
 34 35  1  0  0  0  0
 34 33  2  0  0  0  0
 35 36  2  0  0  0  0
 36 37  1  0  0  0  0
 37 30  1  0  0  0  0
 38 37  2  0  0  0  0
 39 33  1  0  0  0  0
 40 34  1  0  0  0  0
 41 35  1  0  0  0  0
M  END
>  <minimizedAffinity>
-6.2310524

$$$$

 OpenBabel03252501303D

 41 44  0  0  0  0  0  0  0  0999 V2000
   37.0420   27.2260   40.4520 C   0  0  0  0  0  0  0  0  0  0  0  0
   37.6110   27.8520   39.3720 C   0  0  0  0  0  0  0  0  0  0  0  0
   37.9300   29.1700   39.3250 C   0  0  0  0  0  0  0  0  0  0  0  0
   37.6740   29.9250   40.4170 C   0  0  0  0  0  0  0  0  0  0  0  0
   37.0930   29.3300   41.5490 C   0  0  0  0  0  0  0  0  0  0  0  0
   36.7850   27.9880   41.5520 C   0  0  0  0  0  0  0  0  0  0  0  0
   37.7910   27.1750   38.5190 H   0  0  0  0  0  0  0  0  0  0  0  0
   38.3740   29.5440   38.4130 H   0  0  0  0  0  0  0  0  0  0  0  0
   36.9670   30.0940   42.3170 H   0  0  0  0  0  0  0  0  0  0  0  0
   37.1800   32.2600   39.7940 C   0  0  0  0  0  3  0  0  0  0  0  0
   38.0420   31.3570   40.3120 C   0  0  0  0  0  0  0  0  0  0  0  0
   39.2950   31.7790   40.7490 C   0  0  0  0  0  0  0  0  0  0  0  0
   40.0160   31.0960   41.1680 H   0  0  0  0  0  0  0  0  0  0  0  0
   39.5550   33.1250   40.6110 C   0  0  0  0  0  0  0  0  0  0  0  0
   40.7100   33.7600   40.9660 N   0  0  0  0  0  0  0  0  0  0  0  0
   41.5780   33.3430   41.3960 H   0  0  0  0  0  0  0  0  0  0  0  0
   40.5540   35.0420   40.6670 N   0  0  0  0  0  0  0  0  0  0  0  0
   39.3380   35.2710   40.1300 C   0  0  0  0  0  0  0  0  0  0  0  0
   38.8270   36.1440   39.7610 H   0  0  0  0  0  0  0  0  0  0  0  0
   38.6840   34.0550   40.0840 C   0  0  0  0  0  0  0  0  0  0  0  0
   37.4300   33.6080   39.6520 C   0  0  0  0  0  3  0  0  0  0  0  0
   37.1700   27.5410   43.9050 C   0  0  0  0  0  0  0  0  0  0  0  0
   38.4350   27.4990   44.0900 O   0  0  0  0  0  0  0  0  0  0  0  0
   36.2270   27.7330   42.8440 N   0  0  0  0  0  0  0  0  0  0  0  0
   36.8950   27.3640   44.9440 H   0  0  0  0  0  0  0  0  0  0  0  0
   35.2510   27.6540   43.1850 H   0  0  0  0  0  0  0  0  0  0  0  0
   36.6350   25.8270   40.6240 C   0  0  0  0  0  0  0  0  0  0  0  0
   36.4260   25.6840   41.7040 H   0  0  0  0  0  0  0  0  0  0  0  0
   35.6730   25.6180   40.1090 H   0  0  0  0  0  0  0  0  0  0  0  0
   37.6980   24.8840   40.1200 C   0  0  0  0  0  0  0  0  0  0  0  0
   37.2620   23.8530   39.9830 H   0  0  0  0  0  0  0  0  0  0  0  0
   38.0940   25.2440   39.1360 H   0  0  0  0  0  0  0  0  0  0  0  0
   39.6600   24.3850   43.1680 C   0  0  0  0  0  0  0  0  0  0  0  0
   40.9220   24.9100   42.8230 C   0  0  0  0  0  0  0  0  0  0  0  0
   41.0460   25.4180   41.5390 C   0  0  0  0  0  0  0  0  0  0  0  0
   39.9940   25.3930   40.6970 N   0  0  0  0  0  0  0  0  0  0  0  0
   38.8140   24.8770   41.0870 C   0  0  0  0  0  0  0  0  0  0  0  0
   38.6290   24.3780   42.2970 N   0  0  0  0  0  0  0  0  0  0  0  0
   39.6060   24.0010   44.1720 H   0  0  0  0  0  0  0  0  0  0  0  0
   41.7370   24.9080   43.5370 H   0  0  0  0  0  0  0  0  0  0  0  0
   41.9970   25.8310   41.2300 H   0  0  0  0  0  0  0  0  0  0  0  0
  1 27  1  0  0  0  0
  1  6  1  0  0  0  0
  2  1  2  0  0  0  0
  3  2  1  0  0  0  0
  3  4  2  0  0  0  0
  4  5  1  0  0  0  0
  5  6  2  0  0  0  0
  5  9  1  0  0  0  0
  6 24  1  0  0  0  0
  7  2  1  0  0  0  0
  8  3  1  0  0  0  0
 10 11  1  0  0  0  0
 11  4  1  0  0  0  0
 11 12  2  0  0  0  0
 12 13  1  0  0  0  0
 14 12  1  0  0  0  0
 14 15  1  0  0  0  0
 15 16  1  0  0  0  0
 17 15  1  0  0  0  0
 18 17  2  0  0  0  0
 19 18  1  0  0  0  0
 20 18  1  0  0  0  0
 20 14  2  0  0  0  0
 21 10  2  0  0  0  0
 21 20  1  0  0  0  0
 22 23  2  0  0  0  0
 22 25  1  0  0  0  0
 24 26  1  0  0  0  0
 24 22  1  0  0  0  0
 27 28  1  0  0  0  0
 29 27  1  0  0  0  0
 30 27  1  0  0  0  0
 30 37  1  0  0  0  0
 31 30  1  0  0  0  0
 32 30  1  0  0  0  0
 33 39  1  0  0  0  0
 34 33  1  0  0  0  0
 34 40  1  0  0  0  0
 35 34  2  0  0  0  0
 36 37  2  0  0  0  0
 36 35  1  0  0  0  0
 37 38  1  0  0  0  0
 38 33  2  0  0  0  0
 41 35  1  0  0  0  0
M  END
>  <minimizedAffinity>
-6.22861576

$$$$

 OpenBabel03252501303D

 41 44  0  0  0  0  0  0  0  0999 V2000
   37.2490   27.4220   42.0910 C   0  0  0  0  0  0  0  0  0  0  0  0
   37.8640   28.3610   42.8790 C   0  0  0  0  0  0  0  0  0  0  0  0
   38.1390   29.6320   42.4910 C   0  0  0  0  0  0  0  0  0  0  0  0
   37.7820   30.0060   41.2410 C   0  0  0  0  0  0  0  0  0  0  0  0
   37.1480   29.0800   40.3960 C   0  0  0  0  0  0  0  0  0  0  0  0
   36.8880   27.8010   40.8320 C   0  0  0  0  0  0  0  0  0  0  0  0
   38.1260   27.9870   43.8830 H   0  0  0  0  0  0  0  0  0  0  0  0
   38.6290   30.2780   43.2060 H   0  0  0  0  0  0  0  0  0  0  0  0
   36.9410   29.5660   39.4420 H   0  0  0  0  0  0  0  0  0  0  0  0
   37.2390   32.1510   40.1490 C   0  0  0  0  0  3  0  0  0  0  0  0
   38.1050   31.4040   40.8700 C   0  0  0  0  0  0  0  0  0  0  0  0
   39.3210   31.9570   41.2650 C   0  0  0  0  0  0  0  0  0  0  0  0
   40.0440   31.4020   41.8400 H   0  0  0  0  0  0  0  0  0  0  0  0
   39.5410   33.2600   40.8740 C   0  0  0  0  0  0  0  0  0  0  0  0
   40.6550   34.0020   41.1430 N   0  0  0  0  0  0  0  0  0  0  0  0
   41.5150   33.7150   41.6820 H   0  0  0  0  0  0  0  0  0  0  0  0
   40.4700   35.1920   40.5900 N   0  0  0  0  0  0  0  0  0  0  0  0
   39.2740   35.2580   39.9700 C   0  0  0  0  0  0  0  0  0  0  0  0
   38.7510   36.0200   39.4150 H   0  0  0  0  0  0  0  0  0  0  0  0
   38.6650   34.0310   40.1390 C   0  0  0  0  0  0  0  0  0  0  0  0
   37.4490   33.4530   39.7540 C   0  0  0  0  0  3  0  0  0  0  0  0
   37.1020   26.6950   38.6840 C   0  0  0  0  0  0  0  0  0  0  0  0
   38.3430   26.6940   38.3710 O   0  0  0  0  0  0  0  0  0  0  0  0
   36.2420   27.1530   39.7340 N   0  0  0  0  0  0  0  0  0  0  0  0
   36.7580   26.1630   37.7990 H   0  0  0  0  0  0  0  0  0  0  0  0
   35.2480   26.9370   39.5300 H   0  0  0  0  0  0  0  0  0  0  0  0
   36.9130   26.0230   42.3790 C   0  0  0  0  0  0  0  0  0  0  0  0
   36.5630   25.9870   43.4320 H   0  0  0  0  0  0  0  0  0  0  0  0
   36.0480   25.6800   41.7710 H   0  0  0  0  0  0  0  0  0  0  0  0
   38.0950   25.1190   42.1400 C   0  0  0  0  0  0  0  0  0  0  0  0
   38.9710   25.7240   41.7680 H   0  0  0  0  0  0  0  0  0  0  0  0
   38.3850   24.6070   43.0920 H   0  0  0  0  0  0  0  0  0  0  0  0
   38.2190   22.2770   39.8380 C   0  0  0  0  0  0  0  0  0  0  0  0
   36.8960   22.2000   39.3560 C   0  0  0  0  0  0  0  0  0  0  0  0
   36.0060   23.1410   39.8520 C   0  0  0  0  0  0  0  0  0  0  0  0
   36.4230   24.0610   40.7440 N   0  0  0  0  0  0  0  0  0  0  0  0
   37.7000   24.0820   41.1650 C   0  0  0  0  0  0  0  0  0  0  0  0
   38.5980   23.2140   40.7320 N   0  0  0  0  0  0  0  0  0  0  0  0
   38.8770   21.5290   39.4290 H   0  0  0  0  0  0  0  0  0  0  0  0
   36.6110   21.4410   38.6370 H   0  0  0  0  0  0  0  0  0  0  0  0
   34.9810   23.1210   39.5100 H   0  0  0  0  0  0  0  0  0  0  0  0
  1 27  1  0  0  0  0
  1  2  1  0  0  0  0
  2  7  1  0  0  0  0
  3  2  2  0  0  0  0
  3  8  1  0  0  0  0
  4  3  1  0  0  0  0
  5  6  1  0  0  0  0
  5  4  2  0  0  0  0
  6  1  2  0  0  0  0
  9  5  1  0  0  0  0
 10 11  1  0  0  0  0
 11  4  1  0  0  0  0
 11 12  2  0  0  0  0
 12 13  1  0  0  0  0
 14 15  1  0  0  0  0
 14 12  1  0  0  0  0
 15 16  1  0  0  0  0
 17 15  1  0  0  0  0
 18 20  1  0  0  0  0
 18 17  2  0  0  0  0
 19 18  1  0  0  0  0
 20 14  2  0  0  0  0
 21 20  1  0  0  0  0
 21 10  2  0  0  0  0
 22 24  1  0  0  0  0
 23 22  2  0  0  0  0
 24  6  1  0  0  0  0
 25 22  1  0  0  0  0
 26 24  1  0  0  0  0
 27 28  1  0  0  0  0
 29 27  1  0  0  0  0
 30 27  1  0  0  0  0
 30 32  1  0  0  0  0
 31 30  1  0  0  0  0
 33 38  1  0  0  0  0
 34 33  2  0  0  0  0
 34 35  1  0  0  0  0
 35 36  2  0  0  0  0
 36 37  1  0  0  0  0
 37 30  1  0  0  0  0
 38 37  2  0  0  0  0
 39 33  1  0  0  0  0
 40 34  1  0  0  0  0
 41 35  1  0  0  0  0
M  END
>  <minimizedAffinity>
-6.14262629

$$$$

 OpenBabel03252501303D

 41 44  0  0  0  0  0  0  0  0999 V2000
   36.5480   29.9280   40.2890 C   0  0  0  0  0  0  0  0  0  0  0  0
   36.3210   29.2640   39.1110 C   0  0  0  0  0  0  0  0  0  0  0  0
   36.3200   27.9130   38.9750 C   0  0  0  0  0  0  0  0  0  0  0  0
   36.5570   27.1640   40.0760 C   0  0  0  0  0  0  0  0  0  0  0  0
   36.7940   27.7980   41.3070 C   0  0  0  0  0  0  0  0  0  0  0  0
   36.7850   29.1710   41.3980 C   0  0  0  0  0  0  0  0  0  0  0  0
   36.1360   29.9370   38.2570 H   0  0  0  0  0  0  0  0  0  0  0  0
   36.1290   27.5100   37.9910 H   0  0  0  0  0  0  0  0  0  0  0  0
   36.9610   27.0330   42.0650 H   0  0  0  0  0  0  0  0  0  0  0  0
   37.0020   24.8570   40.8280 C   0  0  0  0  0  3  0  0  0  0  0  0
   36.5450   25.6960   39.8710 C   0  0  0  0  0  0  0  0  0  0  0  0
   36.0590   25.1720   38.6760 C   0  0  0  0  0  0  0  0  0  0  0  0
   35.6840   25.8010   37.8850 H   0  0  0  0  0  0  0  0  0  0  0  0
   36.0870   23.7990   38.5690 C   0  0  0  0  0  0  0  0  0  0  0  0
   35.6670   23.0680   37.4960 N   0  0  0  0  0  0  0  0  0  0  0  0
   35.2590   23.4180   36.5880 H   0  0  0  0  0  0  0  0  0  0  0  0
   35.8670   21.7920   37.7940 N   0  0  0  0  0  0  0  0  0  0  0  0
   36.4010   21.6600   39.0250 C   0  0  0  0  0  0  0  0  0  0  0  0
   36.7070   20.8230   39.6300 H   0  0  0  0  0  0  0  0  0  0  0  0
   36.5510   22.9330   39.5370 C   0  0  0  0  0  0  0  0  0  0  0  0
   37.0350   23.4830   40.7300 C   0  0  0  0  0  3  0  0  0  0  0  0
   38.4290   29.4360   43.1620 C   0  0  0  0  0  0  0  0  0  0  0  0
   39.5810   29.2050   42.6550 O   0  0  0  0  0  0  0  0  0  0  0  0
   37.0500   29.4590   42.7730 N   0  0  0  0  0  0  0  0  0  0  0  0
   38.7860   29.6590   44.1650 H   0  0  0  0  0  0  0  0  0  0  0  0
   36.4340   29.6890   43.5760 H   0  0  0  0  0  0  0  0  0  0  0  0
   36.5930   31.3680   40.5660 C   0  0  0  0  0  0  0  0  0  0  0  0
   35.5850   31.6590   40.9250 H   0  0  0  0  0  0  0  0  0  0  0  0
   37.2820   31.5970   41.4070 H   0  0  0  0  0  0  0  0  0  0  0  0
   37.0090   32.1450   39.3420 C   0  0  0  0  0  0  0  0  0  0  0  0
   37.2660   31.4330   38.5050 H   0  0  0  0  0  0  0  0  0  0  0  0
   36.1720   32.8110   39.0090 H   0  0  0  0  0  0  0  0  0  0  0  0
   40.4090   33.2720   40.0890 C   0  0  0  0  0  0  0  0  0  0  0  0
   40.2340   34.6410   40.3770 C   0  0  0  0  0  0  0  0  0  0  0  0
   38.9370   35.1240   40.2980 C   0  0  0  0  0  0  0  0  0  0  0  0
   37.9260   34.2980   39.9620 N   0  0  0  0  0  0  0  0  0  0  0  0
   38.1590   32.9990   39.6990 C   0  0  0  0  0  0  0  0  0  0  0  0
   39.3710   32.4760   39.7560 N   0  0  0  0  0  0  0  0  0  0  0  0
   41.4300   32.9380   40.1600 H   0  0  0  0  0  0  0  0  0  0  0  0
   41.0790   35.2640   40.6430 H   0  0  0  0  0  0  0  0  0  0  0  0
   38.7550   36.1690   40.5110 H   0  0  0  0  0  0  0  0  0  0  0  0
  1 27  1  0  0  0  0
  1  6  1  0  0  0  0
  2  1  2  0  0  0  0
  3  2  1  0  0  0  0
  3  4  2  0  0  0  0
  4  5  1  0  0  0  0
  5  6  2  0  0  0  0
  5  9  1  0  0  0  0
  6 24  1  0  0  0  0
  7  2  1  0  0  0  0
  8  3  1  0  0  0  0
 11  4  1  0  0  0  0
 11 10  2  0  0  0  0
 12 11  1  0  0  0  0
 13 12  1  0  0  0  0
 14 12  2  0  0  0  0
 14 20  1  0  0  0  0
 15 17  1  0  0  0  0
 15 14  1  0  0  0  0
 16 15  1  0  0  0  0
 17 18  2  0  0  0  0
 18 20  1  0  0  0  0
 18 19  1  0  0  0  0
 20 21  2  0  0  0  0
 21 10  1  0  0  0  0
 22 25  1  0  0  0  0
 23 22  2  0  0  0  0
 24 22  1  0  0  0  0
 24 26  1  0  0  0  0
 27 28  1  0  0  0  0
 27 29  1  0  0  0  0
 30 37  1  0  0  0  0
 30 27  1  0  0  0  0
 31 30  1  0  0  0  0
 32 30  1  0  0  0  0
 33 39  1  0  0  0  0
 33 34  1  0  0  0  0
 34 40  1  0  0  0  0
 35 34  2  0  0  0  0
 35 41  1  0  0  0  0
 36 35  1  0  0  0  0
 37 38  1  0  0  0  0
 37 36  2  0  0  0  0
 38 33  2  0  0  0  0
M  END
>  <minimizedAffinity>
-6.14039421

$$$$

 OpenBabel03252501303D

 41 44  0  0  0  0  0  0  0  0999 V2000
   38.0120   30.7120   38.9490 C   0  0  0  0  0  0  0  0  0  0  0  0
   38.9040   29.6950   38.7280 C   0  0  0  0  0  0  0  0  0  0  0  0
   40.1680   29.8650   38.2650 C   0  0  0  0  0  0  0  0  0  0  0  0
   40.5850   31.1250   38.0040 C   0  0  0  0  0  0  0  0  0  0  0  0
   39.7070   32.2020   38.2160 C   0  0  0  0  0  0  0  0  0  0  0  0
   38.4330   31.9820   38.6860 C   0  0  0  0  0  0  0  0  0  0  0  0
   38.4960   28.6960   38.9620 H   0  0  0  0  0  0  0  0  0  0  0  0
   40.7750   28.9810   38.1320 H   0  0  0  0  0  0  0  0  0  0  0  0
   40.2220   33.1260   37.9510 H   0  0  0  0  0  0  0  0  0  0  0  0
   42.8370   32.1300   38.0610 C   0  0  0  0  0  3  0  0  0  0  0  0
   41.9730   31.2540   37.5010 C   0  0  0  0  0  0  0  0  0  0  0  0
   42.3940   30.4640   36.4340 C   0  0  0  0  0  0  0  0  0  0  0  0
   41.7420   29.7510   35.9550 H   0  0  0  0  0  0  0  0  0  0  0  0
   43.6980   30.6510   36.0290 C   0  0  0  0  0  0  0  0  0  0  0  0
   44.3240   29.9940   35.0090 N   0  0  0  0  0  0  0  0  0  0  0  0
   43.9300   29.2500   34.3730 H   0  0  0  0  0  0  0  0  0  0  0  0
   45.5610   30.4660   34.9470 N   0  0  0  0  0  0  0  0  0  0  0  0
   45.7690   31.4080   35.8900 C   0  0  0  0  0  0  0  0  0  0  0  0
   46.6080   32.0210   36.1730 H   0  0  0  0  0  0  0  0  0  0  0  0
   44.5880   31.5410   36.5920 C   0  0  0  0  0  0  0  0  0  0  0  0
   44.1420   32.3240   37.6630 C   0  0  0  0  0  3  0  0  0  0  0  0
   38.1820   34.0350   39.9530 C   0  0  0  0  0  0  0  0  0  0  0  0
   38.8750   33.9180   41.0220 O   0  0  0  0  0  0  0  0  0  0  0  0
   37.8390   33.2790   38.7860 N   0  0  0  0  0  0  0  0  0  0  0  0
   37.8290   35.0450   40.1540 H   0  0  0  0  0  0  0  0  0  0  0  0
   37.1910   33.8050   38.1700 H   0  0  0  0  0  0  0  0  0  0  0  0
   36.6240   30.6630   39.4250 C   0  0  0  0  0  0  0  0  0  0  0  0
   36.0500   31.3940   38.8190 H   0  0  0  0  0  0  0  0  0  0  0  0
   36.1590   29.6760   39.2150 H   0  0  0  0  0  0  0  0  0  0  0  0
   36.5440   30.9600   40.9010 C   0  0  0  0  0  0  0  0  0  0  0  0
   37.1650   31.8700   41.1430 H   0  0  0  0  0  0  0  0  0  0  0  0
   35.4820   31.1550   41.1960 H   0  0  0  0  0  0  0  0  0  0  0  0
   38.4830   28.7690   43.1000 C   0  0  0  0  0  0  0  0  0  0  0  0
   37.8260   27.5280   42.9720 C   0  0  0  0  0  0  0  0  0  0  0  0
   36.7280   27.4990   42.1250 C   0  0  0  0  0  0  0  0  0  0  0  0
   36.3430   28.6170   41.4780 N   0  0  0  0  0  0  0  0  0  0  0  0
   37.0130   29.7720   41.6430 C   0  0  0  0  0  0  0  0  0  0  0  0
   38.0670   29.8670   42.4350 N   0  0  0  0  0  0  0  0  0  0  0  0
   39.3280   28.7490   43.7670 H   0  0  0  0  0  0  0  0  0  0  0  0
   38.1750   26.6570   43.5140 H   0  0  0  0  0  0  0  0  0  0  0  0
   36.1930   26.5680   41.9950 H   0  0  0  0  0  0  0  0  0  0  0  0
  1 27  1  0  0  0  0
  2  1  1  0  0  0  0
  2  7  1  0  0  0  0
  3  2  2  0  0  0  0
  4  5  2  0  0  0  0
  4  3  1  0  0  0  0
  5  6  1  0  0  0  0
  6 24  1  0  0  0  0
  6  1  2  0  0  0  0
  8  3  1  0  0  0  0
  9  5  1  0  0  0  0
 11  4  1  0  0  0  0
 11 10  2  0  0  0  0
 12 11  1  0  0  0  0
 13 12  1  0  0  0  0
 14 12  2  0  0  0  0
 14 20  1  0  0  0  0
 15 14  1  0  0  0  0
 16 15  1  0  0  0  0
 17 15  1  0  0  0  0
 17 18  2  0  0  0  0
 18 19  1  0  0  0  0
 18 20  1  0  0  0  0
 20 21  2  0  0  0  0
 21 10  1  0  0  0  0
 22 25  1  0  0  0  0
 22 23  2  0  0  0  0
 24 22  1  0  0  0  0
 26 24  1  0  0  0  0
 27 30  1  0  0  0  0
 28 27  1  0  0  0  0
 29 27  1  0  0  0  0
 30 31  1  0  0  0  0
 30 32  1  0  0  0  0
 30 37  1  0  0  0  0
 33 39  1  0  0  0  0
 34 33  1  0  0  0  0
 34 40  1  0  0  0  0
 35 34  2  0  0  0  0
 36 37  2  0  0  0  0
 36 35  1  0  0  0  0
 37 38  1  0  0  0  0
 38 33  2  0  0  0  0
 41 35  1  0  0  0  0
M  END
>  <minimizedAffinity>
-6.0663228

$$$$

 OpenBabel03252501303D

 41 44  0  0  0  0  0  0  0  0999 V2000
   34.2510   28.7230   37.9570 C   0  0  0  0  0  0  0  0  0  0  0  0
   34.2170   29.2810   39.2090 C   0  0  0  0  0  0  0  0  0  0  0  0
   35.0700   28.9660   40.2170 C   0  0  0  0  0  0  0  0  0  0  0  0
   36.0230   28.0380   39.9760 C   0  0  0  0  0  0  0  0  0  0  0  0
   36.1000   27.4370   38.7080 C   0  0  0  0  0  0  0  0  0  0  0  0
   35.2140   27.7880   37.7150 C   0  0  0  0  0  0  0  0  0  0  0  0
   33.4150   30.0290   39.3340 H   0  0  0  0  0  0  0  0  0  0  0  0
   34.9400   29.4770   41.1600 H   0  0  0  0  0  0  0  0  0  0  0  0
   36.9250   26.7240   38.7100 H   0  0  0  0  0  0  0  0  0  0  0  0
   37.0460   28.5830   42.1530 C   0  0  0  0  0  3  0  0  0  0  0  0
   36.9270   27.7310   41.1100 C   0  0  0  0  0  0  0  0  0  0  0  0
   37.6670   26.5520   41.1010 C   0  0  0  0  0  0  0  0  0  0  0  0
   37.6060   25.8420   40.2910 H   0  0  0  0  0  0  0  0  0  0  0  0
   38.4830   26.3490   42.1920 C   0  0  0  0  0  0  0  0  0  0  0  0
   39.2960   25.2720   42.3970 N   0  0  0  0  0  0  0  0  0  0  0  0
   39.4360   24.4320   41.7740 H   0  0  0  0  0  0  0  0  0  0  0  0
   39.9080   25.4640   43.5580 N   0  0  0  0  0  0  0  0  0  0  0  0
   39.5240   26.6280   44.1210 C   0  0  0  0  0  0  0  0  0  0  0  0
   39.7730   27.1450   45.0330 H   0  0  0  0  0  0  0  0  0  0  0  0
   38.6130   27.2100   43.2610 C   0  0  0  0  0  0  0  0  0  0  0  0
   37.8590   28.3890   43.2490 C   0  0  0  0  0  3  0  0  0  0  0  0
   36.5870   27.5630   35.7290 C   0  0  0  0  0  0  0  0  0  0  0  0
   37.2950   28.6240   35.6250 O   0  0  0  0  0  0  0  0  0  0  0  0
   35.5850   26.9980   36.5820 N   0  0  0  0  0  0  0  0  0  0  0  0
   36.9880   27.0690   34.8450 H   0  0  0  0  0  0  0  0  0  0  0  0
   35.2700   26.0720   36.2370 H   0  0  0  0  0  0  0  0  0  0  0  0
   33.3860   28.9590   36.7960 C   0  0  0  0  0  0  0  0  0  0  0  0
   33.8590   29.7680   36.2020 H   0  0  0  0  0  0  0  0  0  0  0  0
   33.3630   28.0760   36.1220 H   0  0  0  0  0  0  0  0  0  0  0  0
   31.9840   29.3100   37.2240 C   0  0  0  0  0  0  0  0  0  0  0  0
   31.3340   28.3880   37.2010 H   0  0  0  0  0  0  0  0  0  0  0  0
   31.9930   29.7240   38.2640 H   0  0  0  0  0  0  0  0  0  0  0  0
   30.2330   32.2650   35.9600 C   0  0  0  0  0  0  0  0  0  0  0  0
   30.5450   32.2550   34.5850 C   0  0  0  0  0  0  0  0  0  0  0  0
   31.3570   31.2210   34.1470 C   0  0  0  0  0  0  0  0  0  0  0  0
   31.8020   30.2940   35.0190 N   0  0  0  0  0  0  0  0  0  0  0  0
   31.4680   30.3590   36.3200 C   0  0  0  0  0  0  0  0  0  0  0  0
   30.6980   31.3190   36.8020 N   0  0  0  0  0  0  0  0  0  0  0  0
   29.6010   33.0840   36.2580 H   0  0  0  0  0  0  0  0  0  0  0  0
   30.1610   33.0230   33.9240 H   0  0  0  0  0  0  0  0  0  0  0  0
   31.6230   31.1720   33.1000 H   0  0  0  0  0  0  0  0  0  0  0  0
  1  2  1  0  0  0  0
  2  7  1  0  0  0  0
  2  3  2  0  0  0  0
  3  8  1  0  0  0  0
  4  3  1  0  0  0  0
  4 11  1  0  0  0  0
  5  9  1  0  0  0  0
  5  4  2  0  0  0  0
  6  1  2  0  0  0  0
  6  5  1  0  0  0  0
 10 21  1  0  0  0  0
 11 10  2  0  0  0  0
 12 11  1  0  0  0  0
 12 14  2  0  0  0  0
 13 12  1  0  0  0  0
 14 15  1  0  0  0  0
 14 20  1  0  0  0  0
 15 17  1  0  0  0  0
 16 15  1  0  0  0  0
 17 18  2  0  0  0  0
 18 19  1  0  0  0  0
 20 18  1  0  0  0  0
 21 20  2  0  0  0  0
 22 24  1  0  0  0  0
 23 22  2  0  0  0  0
 24  6  1  0  0  0  0
 25 22  1  0  0  0  0
 26 24  1  0  0  0  0
 27 30  1  0  0  0  0
 27  1  1  0  0  0  0
 28 27  1  0  0  0  0
 29 27  1  0  0  0  0
 30 32  1  0  0  0  0
 31 30  1  0  0  0  0
 33 39  1  0  0  0  0
 33 38  1  0  0  0  0
 34 33  2  0  0  0  0
 35 34  1  0  0  0  0
 35 36  2  0  0  0  0
 36 37  1  0  0  0  0
 37 38  2  0  0  0  0
 37 30  1  0  0  0  0
 40 34  1  0  0  0  0
 41 35  1  0  0  0  0
M  END
>  <minimizedAffinity>
-6.04473162

$$$$
