
 OpenBabel03252509033D

 51 54  0  0  1  0  0  0  0  0999 V2000
   46.7030   34.4030   43.4740 N   0  0  0  0  0  0  0  0  0  0  0  0
   46.4540   34.9550   42.1980 C   0  0  0  0  0  0  0  0  0  0  0  0
   44.9920   34.9480   41.7750 C   0  0  0  0  0  0  0  0  0  0  0  0
   44.0360   35.1670   42.9200 C   0  0  0  0  0  0  0  0  0  0  0  0
   44.7680   35.4220   44.2270 C   0  0  0  0  0  0  0  0  0  0  0  0
   45.6900   34.1440   44.3650 C   0  0  2  0  0  0  0  0  0  0  0  0
   47.0100   34.5260   41.3590 H   0  0  0  0  0  0  0  0  0  0  0  0
   46.7430   36.0370   42.2130 H   0  0  0  0  0  0  0  0  0  0  0  0
   44.8020   33.9630   41.2730 H   0  0  0  0  0  0  0  0  0  0  0  0
   44.8550   35.7220   40.9910 H   0  0  0  0  0  0  0  0  0  0  0  0
   43.3070   35.9810   42.7300 H   0  0  0  0  0  0  0  0  0  0  0  0
   43.4410   34.2420   43.0890 H   0  0  0  0  0  0  0  0  0  0  0  0
   44.0460   35.4250   45.0450 H   0  0  0  0  0  0  0  0  0  0  0  0
   45.4200   36.3030   44.1720 H   0  0  0  0  0  0  0  0  0  0  0  0
   45.0410   33.2670   44.2030 H   0  0  0  0  0  0  0  0  0  0  0  0
   47.9080   33.6140   43.5540 C   0  0  0  0  0  0  0  0  0  0  0  0
   48.7760   34.2090   43.2370 H   0  0  0  0  0  0  0  0  0  0  0  0
   48.0740   33.3520   44.6350 H   0  0  0  0  0  0  0  0  0  0  0  0
   47.6910   32.3540   42.8010 C   0  0  0  0  0  0  0  0  0  0  0  0
   46.7870   32.4100   42.1490 H   0  0  0  0  0  0  0  0  0  0  0  0
   47.5540   31.4530   43.4360 H   0  0  0  0  0  0  0  0  0  0  0  0
   51.1860   32.1340   41.4230 C   0  0  0  0  0  0  0  0  0  0  0  0
   50.1010   32.3370   42.2950 C   0  0  0  0  0  0  0  0  0  0  0  0
   48.8250   32.1320   41.8620 C   0  0  0  0  0  0  0  0  0  0  0  0
   48.6540   31.7350   40.5910 N   0  0  0  0  0  0  0  0  0  0  0  0
   49.6820   31.5380   39.7540 C   0  0  0  0  0  0  0  0  0  0  0  0
   50.9510   31.7330   40.1520 N   0  0  0  0  0  0  0  0  0  0  0  0
   52.1940   32.3020   41.7860 H   0  0  0  0  0  0  0  0  0  0  0  0
   50.3420   32.6600   43.3050 H   0  0  0  0  0  0  0  0  0  0  0  0
   49.3690   31.2190   38.7690 H   0  0  0  0  0  0  0  0  0  0  0  0
   46.0850   34.2520   45.6840 O   0  0  0  0  0  0  0  0  0  0  0  0
   45.6210   31.6330   45.5890 O   0  0  0  0  0  0  0  0  0  0  0  0
   46.0270   32.7980   46.5070 P   0  0  2  0  0  0  0  0  0  0  0  0
   44.7140   32.9390   47.6070 O   0  0  0  0  0  0  0  0  0  0  0  0
   43.8660   32.6960   47.1940 H   0  0  0  0  0  0  0  0  0  0  0  0
   47.3950   32.4630   47.3990 O   0  0  0  0  0  0  0  0  0  0  0  0
   47.7480   31.1410   47.2000 C   0  0  0  0  0  0  0  0  0  0  0  0
   46.8050   30.5640   47.1750 H   0  0  0  0  0  0  0  0  0  0  0  0
   48.2830   30.9850   46.2340 H   0  0  0  0  0  0  0  0  0  0  0  0
   49.1390   31.5430   49.2670 C   0  0  0  0  0  3  0  0  0  0  0  0
   48.6030   30.6730   48.3230 C   0  0  0  0  0  0  0  0  0  0  0  0
   48.8480   29.2970   48.3860 C   0  0  0  0  0  0  0  0  0  0  0  0
   48.4450   28.6040   47.6670 H   0  0  0  0  0  0  0  0  0  0  0  0
   49.6390   28.8190   49.4150 C   0  0  0  0  0  0  0  0  0  0  0  0
   50.0450   27.5600   49.7340 N   0  0  0  0  0  0  0  0  0  0  0  0
   49.7710   26.7200   49.1680 H   0  0  0  0  0  0  0  0  0  0  0  0
   50.7980   27.6220   50.8230 N   0  0  0  0  0  0  0  0  0  0  0  0
   50.9060   28.9020   51.2420 C   0  0  0  0  0  0  0  0  0  0  0  0
   51.4680   29.2270   52.1130 H   0  0  0  0  0  0  0  0  0  0  0  0
   50.1730   29.6880   50.3590 C   0  0  0  0  0  0  0  0  0  0  0  0
   49.9360   31.0440   50.3010 C   0  0  0  0  0  3  0  0  0  0  0  0
  1 16  1  0  0  0  0
  1  6  1  0  0  0  0
  2  8  1  0  0  0  0
  2  1  1  0  0  0  0
  3  2  1  0  0  0  0
  3  4  1  0  0  0  0
  4 12  1  0  0  0  0
  4  5  1  0  0  0  0
  5  6  1  0  0  0  0
  5 13  1  0  0  0  0
  6 15  1  6  0  0  0
  6 31  1  0  0  0  0
  7  2  1  0  0  0  0
  9  3  1  0  0  0  0
 10  3  1  0  0  0  0
 11  4  1  0  0  0  0
 14  5  1  0  0  0  0
 16 18  1  0  0  0  0
 17 16  1  0  0  0  0
 19 21  1  0  0  0  0
 19 16  1  0  0  0  0
 20 19  1  0  0  0  0
 22 28  1  0  0  0  0
 22 23  1  0  0  0  0
 23 29  1  0  0  0  0
 24 23  2  0  0  0  0
 24 19  1  0  0  0  0
 25 24  1  0  0  0  0
 26 27  1  0  0  0  0
 26 25  2  0  0  0  0
 27 22  2  0  0  0  0
 30 26  1  0  0  0  0
 31 33  1  0  0  0  0
 33 32  2  6  0  0  0
 33 36  1  0  0  0  0
 33 34  1  0  0  0  0
 35 34  1  0  0  0  0
 37 36  1  0  0  0  0
 37 41  1  0  0  0  0
 38 37  1  0  0  0  0
 39 37  1  0  0  0  0
 40 51  1  0  0  0  0
 41 42  1  0  0  0  0
 41 40  2  0  0  0  0
 42 44  2  0  0  0  0
 43 42  1  0  0  0  0
 44 45  1  0  0  0  0
 44 50  1  0  0  0  0
 45 47  1  0  0  0  0
 46 45  1  0  0  0  0
 47 48  2  0  0  0  0
 48 49  1  0  0  0  0
 50 48  1  0  0  0  0
 51 50  2  0  0  0  0
M  END
>  <minimizedAffinity>
-5.58905363

>  <minimizedRMSD>
3.36793041

$$$$
