
 OpenBabel03252507443D

 34 37  0  0  0  0  0  0  0  0999 V2000
   37.3380   29.6710   41.8680 C   0  0  0  0  0  0  0  0  0  0  0  0
   36.2180   29.6210   40.9710 C   0  0  0  0  0  0  0  0  0  0  0  0
   36.7060   30.8620   39.6780 S   0  0  0  0  0  0  0  0  0  0  0  0
   38.3220   31.2140   40.5880 C   0  0  0  0  0  0  0  0  0  0  0  0
   38.2650   30.5210   41.4940 N   0  0  0  0  0  0  0  0  0  0  0  0
   35.3530   29.0030   41.0790 H   0  0  0  0  0  0  0  0  0  0  0  0
   39.5790   33.3450   40.7590 C   0  0  0  0  0  3  0  0  0  0  0  0
   39.2850   32.1890   40.0680 C   0  0  0  0  0  0  0  0  0  0  0  0
   39.9190   31.9490   38.8560 C   0  0  0  0  0  0  0  0  0  0  0  0
   39.7040   31.0400   38.2880 H   0  0  0  0  0  0  0  0  0  0  0  0
   40.8320   32.8420   38.3320 C   0  0  0  0  0  0  0  0  0  0  0  0
   41.5720   32.8350   37.1870 N   0  0  0  0  0  0  0  0  0  0  0  0
   41.5950   32.1130   36.4370 H   0  0  0  0  0  0  0  0  0  0  0  0
   42.2970   33.9520   37.1760 N   0  0  0  0  0  0  0  0  0  0  0  0
   42.0640   34.6950   38.2670 C   0  0  0  0  0  0  0  0  0  0  0  0
   42.4860   35.6470   38.5600 H   0  0  0  0  0  0  0  0  0  0  0  0
   41.1390   34.0050   39.0100 C   0  0  0  0  0  0  0  0  0  0  0  0
   40.4950   34.2180   40.2110 C   0  0  0  0  0  3  0  0  0  0  0  0
   37.3630   28.8070   43.0840 C   0  0  0  0  0  0  0  0  0  0  0  0
   38.3150   28.9670   43.6190 H   0  0  0  0  0  0  0  0  0  0  0  0
   36.5250   29.0950   43.7730 H   0  0  0  0  0  0  0  0  0  0  0  0
   37.2180   27.3480   42.8200 C   0  0  0  0  0  0  0  0  0  0  0  0
   36.3820   26.9120   43.3500 H   0  0  0  0  0  0  0  0  0  0  0  0
   36.9820   27.2190   41.7230 H   0  0  0  0  0  0  0  0  0  0  0  0
   38.4700   26.5830   43.0240 C   0  0  0  0  0  0  0  0  0  0  0  0
   38.5190   25.2830   42.5160 C   0  0  0  0  0  0  0  0  0  0  0  0
   39.6730   24.5530   42.6940 C   0  0  0  0  0  0  0  0  0  0  0  0
   40.7210   25.1100   43.3530 N   0  0  0  0  0  0  0  0  0  0  0  0
   40.6380   26.3660   43.8300 C   0  0  0  0  0  0  0  0  0  0  0  0
   39.5310   27.0700   43.6610 N   0  0  0  0  0  0  0  0  0  0  0  0
   39.6460   23.5510   42.2750 H   0  0  0  0  0  0  0  0  0  0  0  0
   41.5400   26.6920   44.3350 H   0  0  0  0  0  0  0  0  0  0  0  0
   37.0940   24.6010   41.6500 S   0  0  0  0  0  0  0  0  0  0  0  0
   36.4060   23.6670   42.4510 H   0  0  0  0  0  0  0  0  0  0  0  0
  1 19  1  0  0  0  0
  2  6  1  0  0  0  0
  2  1  2  0  0  0  0
  3  4  1  0  0  0  0
  3  2  1  0  0  0  0
  4  5  2  0  0  0  0
  5  1  1  0  0  0  0
  8  4  1  0  0  0  0
  8  7  2  0  0  0  0
  9  8  1  0  0  0  0
 10  9  1  0  0  0  0
 11  9  2  0  0  0  0
 11 17  1  0  0  0  0
 12 11  1  0  0  0  0
 13 12  1  0  0  0  0
 14 12  1  0  0  0  0
 14 15  2  0  0  0  0
 15 16  1  0  0  0  0
 15 17  1  0  0  0  0
 17 18  2  0  0  0  0
 18  7  1  0  0  0  0
 19 20  1  0  0  0  0
 19 21  1  0  0  0  0
 22 25  1  0  0  0  0
 22 19  1  0  0  0  0
 22 23  1  0  0  0  0
 24 22  1  0  0  0  0
 25 30  1  0  0  0  0
 26 27  1  0  0  0  0
 26 25  2  0  0  0  0
 27 28  2  0  0  0  0
 28 29  1  0  0  0  0
 29 32  1  0  0  0  0
 30 29  2  0  0  0  0
 31 27  1  0  0  0  0
 33 34  1  0  0  0  0
 33 26  1  0  0  0  0
M  END
>  <minimizedAffinity>
-5.90594101

$$$$

 OpenBabel03252507443D

 34 37  0  0  0  0  0  0  0  0999 V2000
   38.5960   33.3160   40.2450 C   0  0  0  0  0  0  0  0  0  0  0  0
   37.3760   33.1550   39.5050 C   0  0  0  0  0  0  0  0  0  0  0  0
   36.8380   31.4530   40.0180 S   0  0  0  0  0  0  0  0  0  0  0  0
   38.3530   31.2790   41.1290 C   0  0  0  0  0  0  0  0  0  0  0  0
   38.8960   32.2730   40.9850 N   0  0  0  0  0  0  0  0  0  0  0  0
   36.9440   33.8740   38.8430 H   0  0  0  0  0  0  0  0  0  0  0  0
   37.5330   29.3580   42.4660 C   0  0  0  0  0  3  0  0  0  0  0  0
   38.5810   30.0610   41.9110 C   0  0  0  0  0  0  0  0  0  0  0  0
   39.8770   29.5980   42.0990 C   0  0  0  0  0  0  0  0  0  0  0  0
   40.7260   30.1370   41.6690 H   0  0  0  0  0  0  0  0  0  0  0  0
   40.1340   28.4540   42.8280 C   0  0  0  0  0  0  0  0  0  0  0  0
   41.2930   27.8100   43.1480 N   0  0  0  0  0  0  0  0  0  0  0  0
   42.2670   28.0680   42.8920 H   0  0  0  0  0  0  0  0  0  0  0  0
   40.9650   26.7450   43.8780 N   0  0  0  0  0  0  0  0  0  0  0  0
   39.6380   26.6620   44.0510 C   0  0  0  0  0  0  0  0  0  0  0  0
   39.0530   25.9260   44.5870 H   0  0  0  0  0  0  0  0  0  0  0  0
   39.0980   27.7380   43.3920 C   0  0  0  0  0  0  0  0  0  0  0  0
   37.8210   28.2190   43.1900 C   0  0  0  0  0  3  0  0  0  0  0  0
   39.3840   34.5770   40.1280 C   0  0  0  0  0  0  0  0  0  0  0  0
   39.4530   34.8600   39.0630 H   0  0  0  0  0  0  0  0  0  0  0  0
   38.8570   35.4060   40.6740 H   0  0  0  0  0  0  0  0  0  0  0  0
   40.7650   34.5100   40.6830 C   0  0  0  0  0  0  0  0  0  0  0  0
   40.9960   35.3510   41.3210 H   0  0  0  0  0  0  0  0  0  0  0  0
   40.8230   33.5980   41.3470 H   0  0  0  0  0  0  0  0  0  0  0  0
   41.8050   34.2860   39.6520 C   0  0  0  0  0  0  0  0  0  0  0  0
   43.1200   34.1240   40.0910 C   0  0  0  0  0  0  0  0  0  0  0  0
   44.1050   33.9160   39.1510 C   0  0  0  0  0  0  0  0  0  0  0  0
   43.7730   33.8740   37.8350 N   0  0  0  0  0  0  0  0  0  0  0  0
   42.4940   34.0340   37.4470 C   0  0  0  0  0  0  0  0  0  0  0  0
   41.5460   34.2340   38.3480 N   0  0  0  0  0  0  0  0  0  0  0  0
   45.1050   33.7970   39.5580 H   0  0  0  0  0  0  0  0  0  0  0  0
   42.3620   33.9790   36.3730 H   0  0  0  0  0  0  0  0  0  0  0  0
   43.4960   34.1900   41.8520 S   0  0  0  0  0  0  0  0  0  0  0  0
   44.1170   35.4080   42.1990 H   0  0  0  0  0  0  0  0  0  0  0  0
  1  5  1  0  0  0  0
  2  3  1  0  0  0  0
  2  1  2  0  0  0  0
  3  4  1  0  0  0  0
  4  8  1  0  0  0  0
  5  4  2  0  0  0  0
  6  2  1  0  0  0  0
  7 18  1  0  0  0  0
  8  9  1  0  0  0  0
  8  7  2  0  0  0  0
  9 11  2  0  0  0  0
 10  9  1  0  0  0  0
 11 12  1  0  0  0  0
 11 17  1  0  0  0  0
 12 14  1  0  0  0  0
 13 12  1  0  0  0  0
 14 15  2  0  0  0  0
 15 16  1  0  0  0  0
 17 15  1  0  0  0  0
 18 17  2  0  0  0  0
 19  1  1  0  0  0  0
 19 21  1  0  0  0  0
 19 22  1  0  0  0  0
 20 19  1  0  0  0  0
 22 23  1  0  0  0  0
 22 24  1  0  0  0  0
 25 26  1  0  0  0  0
 25 22  1  0  0  0  0
 26 33  1  0  0  0  0
 27 31  1  0  0  0  0
 27 26  2  0  0  0  0
 28 27  1  0  0  0  0
 29 28  2  0  0  0  0
 29 30  1  0  0  0  0
 30 25  2  0  0  0  0
 32 29  1  0  0  0  0
 33 34  1  0  0  0  0
M  END
>  <minimizedAffinity>
-5.83571196

$$$$

 OpenBabel03252507443D

 34 37  0  0  0  0  0  0  0  0999 V2000
   37.8670   29.4610   42.1620 C   0  0  0  0  0  0  0  0  0  0  0  0
   38.9080   30.4270   41.9500 C   0  0  0  0  0  0  0  0  0  0  0  0
   38.6640   30.8660   40.1620 S   0  0  0  0  0  0  0  0  0  0  0  0
   37.2100   29.6690   40.0380 C   0  0  0  0  0  0  0  0  0  0  0  0
   37.1440   29.2320   41.0910 N   0  0  0  0  0  0  0  0  0  0  0  0
   39.6120   30.7630   42.6800 H   0  0  0  0  0  0  0  0  0  0  0  0
   35.1580   29.1000   38.7680 C   0  0  0  0  0  3  0  0  0  0  0  0
   36.4760   29.4990   38.7810 C   0  0  0  0  0  0  0  0  0  0  0  0
   37.1180   29.7470   37.5730 C   0  0  0  0  0  0  0  0  0  0  0  0
   38.1630   30.0650   37.5560 H   0  0  0  0  0  0  0  0  0  0  0  0
   36.4620   29.5990   36.3670 C   0  0  0  0  0  0  0  0  0  0  0  0
   36.8630   29.7770   35.0760 N   0  0  0  0  0  0  0  0  0  0  0  0
   37.7950   30.0750   34.7240 H   0  0  0  0  0  0  0  0  0  0  0  0
   35.8210   29.4940   34.2960 N   0  0  0  0  0  0  0  0  0  0  0  0
   34.7510   29.1370   35.0210 C   0  0  0  0  0  0  0  0  0  0  0  0
   33.7590   28.8500   34.6970 H   0  0  0  0  0  0  0  0  0  0  0  0
   35.1410   29.1990   36.3350 C   0  0  0  0  0  0  0  0  0  0  0  0
   34.5290   28.9610   37.5480 C   0  0  0  0  0  3  0  0  0  0  0  0
   37.6940   28.8280   43.5020 C   0  0  0  0  0  0  0  0  0  0  0  0
   38.5890   29.0330   44.1150 H   0  0  0  0  0  0  0  0  0  0  0  0
   36.8060   29.2780   44.0230 H   0  0  0  0  0  0  0  0  0  0  0  0
   37.4730   27.3550   43.4780 C   0  0  0  0  0  0  0  0  0  0  0  0
   36.8700   27.0120   44.3070 H   0  0  0  0  0  0  0  0  0  0  0  0
   36.8780   27.1130   42.5480 H   0  0  0  0  0  0  0  0  0  0  0  0
   38.7230   26.5730   43.3340 C   0  0  0  0  0  0  0  0  0  0  0  0
   38.7110   25.5010   42.4390 C   0  0  0  0  0  0  0  0  0  0  0  0
   39.8610   24.7580   42.2900 C   0  0  0  0  0  0  0  0  0  0  0  0
   40.9650   25.0860   43.0080 N   0  0  0  0  0  0  0  0  0  0  0  0
   40.9410   26.1270   43.8610 C   0  0  0  0  0  0  0  0  0  0  0  0
   39.8380   26.8410   44.0080 N   0  0  0  0  0  0  0  0  0  0  0  0
   39.7850   23.9400   41.5790 H   0  0  0  0  0  0  0  0  0  0  0  0
   41.8840   26.2830   44.3730 H   0  0  0  0  0  0  0  0  0  0  0  0
   37.2130   25.1180   41.5150 S   0  0  0  0  0  0  0  0  0  0  0  0
   36.5690   23.9740   42.0320 H   0  0  0  0  0  0  0  0  0  0  0  0
  1 19  1  0  0  0  0
  2  1  2  0  0  0  0
  2  6  1  0  0  0  0
  3  2  1  0  0  0  0
  4  3  1  0  0  0  0
  4  5  2  0  0  0  0
  5  1  1  0  0  0  0
  7  8  1  0  0  0  0
  8  4  1  0  0  0  0
  9  8  2  0  0  0  0
 10  9  1  0  0  0  0
 11  9  1  0  0  0  0
 12 11  1  0  0  0  0
 13 12  1  0  0  0  0
 14 15  2  0  0  0  0
 14 12  1  0  0  0  0
 15 17  1  0  0  0  0
 16 15  1  0  0  0  0
 17 11  2  0  0  0  0
 17 18  1  0  0  0  0
 18  7  2  0  0  0  0
 19 21  1  0  0  0  0
 19 20  1  0  0  0  0
 22 19  1  0  0  0  0
 22 23  1  0  0  0  0
 24 22  1  0  0  0  0
 25 22  1  0  0  0  0
 25 30  1  0  0  0  0
 26 25  2  0  0  0  0
 27 26  1  0  0  0  0
 27 28  2  0  0  0  0
 28 29  1  0  0  0  0
 29 30  2  0  0  0  0
 29 32  1  0  0  0  0
 31 27  1  0  0  0  0
 33 34  1  0  0  0  0
 33 26  1  0  0  0  0
M  END
>  <minimizedAffinity>
-5.51811695

$$$$

 OpenBabel03252507443D

 34 37  0  0  0  0  0  0  0  0999 V2000
   38.9300   31.3450   41.3010 C   0  0  0  0  0  0  0  0  0  0  0  0
   38.9780   32.7540   41.0310 C   0  0  0  0  0  0  0  0  0  0  0  0
   37.9990   32.8750   39.4570 S   0  0  0  0  0  0  0  0  0  0  0  0
   37.7120   31.0100   39.4600 C   0  0  0  0  0  0  0  0  0  0  0  0
   38.2560   30.6660   40.4030 N   0  0  0  0  0  0  0  0  0  0  0  0
   39.4700   33.4920   41.6260 H   0  0  0  0  0  0  0  0  0  0  0  0
   35.7700   29.6830   38.6720 C   0  0  0  0  0  3  0  0  0  0  0  0
   36.9370   30.3630   38.3970 C   0  0  0  0  0  0  0  0  0  0  0  0
   37.3820   30.4340   37.0830 C   0  0  0  0  0  0  0  0  0  0  0  0
   38.3040   30.9670   36.8380 H   0  0  0  0  0  0  0  0  0  0  0  0
   36.6810   29.8390   36.0530 C   0  0  0  0  0  0  0  0  0  0  0  0
   36.9050   29.7680   34.7100 N   0  0  0  0  0  0  0  0  0  0  0  0
   37.6940   30.1710   34.1650 H   0  0  0  0  0  0  0  0  0  0  0  0
   35.9060   29.0660   34.1780 N   0  0  0  0  0  0  0  0  0  0  0  0
   35.0330   28.6720   35.1170 C   0  0  0  0  0  0  0  0  0  0  0  0
   34.1240   28.0930   35.0190 H   0  0  0  0  0  0  0  0  0  0  0  0
   35.5100   29.1540   36.3100 C   0  0  0  0  0  0  0  0  0  0  0  0
   35.0920   29.0990   37.6230 C   0  0  0  0  0  3  0  0  0  0  0  0
   39.6090   30.7900   42.5090 C   0  0  0  0  0  0  0  0  0  0  0  0
   40.5390   31.3560   42.6910 H   0  0  0  0  0  0  0  0  0  0  0  0
   38.9460   30.9130   43.4070 H   0  0  0  0  0  0  0  0  0  0  0  0
   39.9540   29.3430   42.4270 C   0  0  0  0  0  0  0  0  0  0  0  0
   40.4670   29.0900   41.5100 H   0  0  0  0  0  0  0  0  0  0  0  0
   40.6860   29.1180   43.2570 H   0  0  0  0  0  0  0  0  0  0  0  0
   38.8050   28.4460   42.6920 C   0  0  0  0  0  0  0  0  0  0  0  0
   38.6670   27.3210   41.8770 C   0  0  0  0  0  0  0  0  0  0  0  0
   37.6050   26.4730   42.1040 C   0  0  0  0  0  0  0  0  0  0  0  0
   36.7300   26.7520   43.1040 N   0  0  0  0  0  0  0  0  0  0  0  0
   36.8940   27.8460   43.8700 C   0  0  0  0  0  0  0  0  0  0  0  0
   37.9130   28.6620   43.6550 N   0  0  0  0  0  0  0  0  0  0  0  0
   37.5560   25.6180   41.4360 H   0  0  0  0  0  0  0  0  0  0  0  0
   36.1300   27.9540   44.6310 H   0  0  0  0  0  0  0  0  0  0  0  0
   39.8620   27.0070   40.5660 S   0  0  0  0  0  0  0  0  0  0  0  0
   39.3230   27.3060   39.2980 H   0  0  0  0  0  0  0  0  0  0  0  0
  1 19  1  0  0  0  0
  2  1  2  0  0  0  0
  2  6  1  0  0  0  0
  3  4  1  0  0  0  0
  3  2  1  0  0  0  0
  4  5  2  0  0  0  0
  5  1  1  0  0  0  0
  8  7  1  0  0  0  0
  8  4  1  0  0  0  0
  9  8  2  0  0  0  0
 10  9  1  0  0  0  0
 11 17  2  0  0  0  0
 11  9  1  0  0  0  0
 12 11  1  0  0  0  0
 13 12  1  0  0  0  0
 14 12  1  0  0  0  0
 14 15  2  0  0  0  0
 15 17  1  0  0  0  0
 16 15  1  0  0  0  0
 17 18  1  0  0  0  0
 18  7  2  0  0  0  0
 19 20  1  0  0  0  0
 19 21  1  0  0  0  0
 22 19  1  0  0  0  0
 22 25  1  0  0  0  0
 22 24  1  0  0  0  0
 23 22  1  0  0  0  0
 25 30  1  0  0  0  0
 26 27  1  0  0  0  0
 26 25  2  0  0  0  0
 27 28  2  0  0  0  0
 28 29  1  0  0  0  0
 29 32  1  0  0  0  0
 30 29  2  0  0  0  0
 31 27  1  0  0  0  0
 33 26  1  0  0  0  0
 34 33  1  0  0  0  0
M  END
>  <minimizedAffinity>
-5.49031687

$$$$

 OpenBabel03252507443D

 34 37  0  0  0  0  0  0  0  0999 V2000
   36.9050   27.4440   39.4610 C   0  0  0  0  0  0  0  0  0  0  0  0
   36.3580   27.3850   38.1340 C   0  0  0  0  0  0  0  0  0  0  0  0
   36.5590   29.1390   37.5580 S   0  0  0  0  0  0  0  0  0  0  0  0
   37.3390   29.6200   39.2080 C   0  0  0  0  0  0  0  0  0  0  0  0
   37.3330   28.6400   39.7930 N   0  0  0  0  0  0  0  0  0  0  0  0
   35.9540   26.5170   37.6600 H   0  0  0  0  0  0  0  0  0  0  0  0
   36.9510   32.0700   39.2310 C   0  0  0  0  0  3  0  0  0  0  0  0
   37.7810   30.9950   39.4620 C   0  0  0  0  0  0  0  0  0  0  0  0
   39.0620   31.2240   39.9480 C   0  0  0  0  0  0  0  0  0  0  0  0
   39.7400   30.3890   40.1400 H   0  0  0  0  0  0  0  0  0  0  0  0
   39.5160   32.5030   40.2020 C   0  0  0  0  0  0  0  0  0  0  0  0
   40.7050   32.9800   40.6710 N   0  0  0  0  0  0  0  0  0  0  0  0
   41.5530   32.4430   40.9450 H   0  0  0  0  0  0  0  0  0  0  0  0
   40.6060   34.3070   40.7240 N   0  0  0  0  0  0  0  0  0  0  0  0
   39.4000   34.7230   40.3100 C   0  0  0  0  0  0  0  0  0  0  0  0
   39.0030   35.7270   40.2320 H   0  0  0  0  0  0  0  0  0  0  0  0
   38.6990   33.5920   39.9760 C   0  0  0  0  0  0  0  0  0  0  0  0
   37.4330   33.3350   39.4930 C   0  0  0  0  0  3  0  0  0  0  0  0
   36.9450   26.2190   40.3110 C   0  0  0  0  0  0  0  0  0  0  0  0
   36.0740   25.5850   40.0680 H   0  0  0  0  0  0  0  0  0  0  0  0
   37.8760   25.6320   40.0870 H   0  0  0  0  0  0  0  0  0  0  0  0
   36.9410   26.4720   41.7790 C   0  0  0  0  0  0  0  0  0  0  0  0
   36.6050   27.4690   42.0270 H   0  0  0  0  0  0  0  0  0  0  0  0
   36.1870   25.7720   42.2460 H   0  0  0  0  0  0  0  0  0  0  0  0
   38.2230   26.1320   42.4400 C   0  0  0  0  0  0  0  0  0  0  0  0
   38.8500   27.1360   43.1800 C   0  0  0  0  0  0  0  0  0  0  0  0
   40.0440   26.8430   43.8020 C   0  0  0  0  0  0  0  0  0  0  0  0
   40.5720   25.5980   43.6810 N   0  0  0  0  0  0  0  0  0  0  0  0
   39.9390   24.6540   42.9590 C   0  0  0  0  0  0  0  0  0  0  0  0
   38.7940   24.9330   42.3600 N   0  0  0  0  0  0  0  0  0  0  0  0
   40.4790   27.6660   44.3620 H   0  0  0  0  0  0  0  0  0  0  0  0
   40.4640   23.7060   42.9410 H   0  0  0  0  0  0  0  0  0  0  0  0
   38.0970   28.7670   43.3030 S   0  0  0  0  0  0  0  0  0  0  0  0
   38.7740   29.7070   42.4980 H   0  0  0  0  0  0  0  0  0  0  0  0
  1  5  1  0  0  0  0
  1 19  1  0  0  0  0
  2  1  2  0  0  0  0
  3  2  1  0  0  0  0
  3  4  1  0  0  0  0
  4  8  1  0  0  0  0
  4  5  2  0  0  0  0
  6  2  1  0  0  0  0
  7  8  2  0  0  0  0
  7 18  1  0  0  0  0
  8  9  1  0  0  0  0
  9 10  1  0  0  0  0
  9 11  2  0  0  0  0
 11 12  1  0  0  0  0
 12 14  1  0  0  0  0
 12 13  1  0  0  0  0
 15 14  2  0  0  0  0
 16 15  1  0  0  0  0
 17 11  1  0  0  0  0
 17 15  1  0  0  0  0
 18 17  2  0  0  0  0
 19 22  1  0  0  0  0
 20 19  1  0  0  0  0
 21 19  1  0  0  0  0
 22 23  1  0  0  0  0
 22 24  1  0  0  0  0
 22 25  1  0  0  0  0
 25 26  1  0  0  0  0
 26 33  1  0  0  0  0
 26 27  2  0  0  0  0
 27 31  1  0  0  0  0
 28 27  1  0  0  0  0
 29 28  2  0  0  0  0
 30 25  2  0  0  0  0
 30 29  1  0  0  0  0
 32 29  1  0  0  0  0
 34 33  1  0  0  0  0
M  END
>  <minimizedAffinity>
-5.46033144

$$$$

 OpenBabel03252507443D

 34 37  0  0  0  0  0  0  0  0999 V2000
   37.8650   29.4530   42.0970 C   0  0  0  0  0  0  0  0  0  0  0  0
   38.8800   30.4250   41.8020 C   0  0  0  0  0  0  0  0  0  0  0  0
   38.5160   30.8320   40.0270 S   0  0  0  0  0  0  0  0  0  0  0  0
   37.0700   29.6200   40.0170 C   0  0  0  0  0  0  0  0  0  0  0  0
   37.0770   29.2000   41.0790 N   0  0  0  0  0  0  0  0  0  0  0  0
   39.6260   30.7800   42.4790 H   0  0  0  0  0  0  0  0  0  0  0  0
   36.7970   29.5620   37.5520 C   0  0  0  0  0  3  0  0  0  0  0  0
   36.2580   29.4220   38.8130 C   0  0  0  0  0  0  0  0  0  0  0  0
   34.9160   29.0850   38.9390 C   0  0  0  0  0  0  0  0  0  0  0  0
   34.4640   28.9680   39.9270 H   0  0  0  0  0  0  0  0  0  0  0  0
   34.1170   28.8890   37.8290 C   0  0  0  0  0  0  0  0  0  0  0  0
   32.8010   28.5600   37.6920 N   0  0  0  0  0  0  0  0  0  0  0  0
   32.0980   28.3810   38.4390 H   0  0  0  0  0  0  0  0  0  0  0  0
   32.5410   28.5000   36.3870 N   0  0  0  0  0  0  0  0  0  0  0  0
   33.6330   28.7760   35.6600 C   0  0  0  0  0  0  0  0  0  0  0  0
   33.7600   28.8120   34.5860 H   0  0  0  0  0  0  0  0  0  0  0  0
   34.6400   29.0250   36.5590 C   0  0  0  0  0  0  0  0  0  0  0  0
   35.9740   29.3600   36.4640 C   0  0  0  0  0  3  0  0  0  0  0  0
   37.7860   28.8420   43.4550 C   0  0  0  0  0  0  0  0  0  0  0  0
   38.7250   29.0470   43.9980 H   0  0  0  0  0  0  0  0  0  0  0  0
   36.9420   29.3070   44.0330 H   0  0  0  0  0  0  0  0  0  0  0  0
   37.5520   27.3700   43.4700 C   0  0  0  0  0  0  0  0  0  0  0  0
   36.9450   27.0550   44.3070 H   0  0  0  0  0  0  0  0  0  0  0  0
   36.9550   27.1090   42.5470 H   0  0  0  0  0  0  0  0  0  0  0  0
   38.7950   26.5740   43.3470 C   0  0  0  0  0  0  0  0  0  0  0  0
   38.7330   25.3990   42.5940 C   0  0  0  0  0  0  0  0  0  0  0  0
   39.8770   24.6420   42.4670 C   0  0  0  0  0  0  0  0  0  0  0  0
   41.0210   25.0530   43.0700 N   0  0  0  0  0  0  0  0  0  0  0  0
   41.0440   26.1920   43.7880 C   0  0  0  0  0  0  0  0  0  0  0  0
   39.9480   26.9210   43.9120 N   0  0  0  0  0  0  0  0  0  0  0  0
   39.7610   23.7420   41.8690 H   0  0  0  0  0  0  0  0  0  0  0  0
   42.0150   26.4080   44.2170 H   0  0  0  0  0  0  0  0  0  0  0  0
   37.1840   24.9080   41.8180 S   0  0  0  0  0  0  0  0  0  0  0  0
   36.5800   23.8380   42.5110 H   0  0  0  0  0  0  0  0  0  0  0  0
  1 19  1  0  0  0  0
  2  1  2  0  0  0  0
  2  6  1  0  0  0  0
  3  2  1  0  0  0  0
  4  3  1  0  0  0  0
  4  5  2  0  0  0  0
  5  1  1  0  0  0  0
  7  8  1  0  0  0  0
  8  9  2  0  0  0  0
  8  4  1  0  0  0  0
  9 10  1  0  0  0  0
 11  9  1  0  0  0  0
 12 11  1  0  0  0  0
 12 13  1  0  0  0  0
 14 12  1  0  0  0  0
 15 14  2  0  0  0  0
 15 17  1  0  0  0  0
 16 15  1  0  0  0  0
 17 11  2  0  0  0  0
 18 17  1  0  0  0  0
 18  7  2  0  0  0  0
 19 22  1  0  0  0  0
 19 20  1  0  0  0  0
 19 21  1  0  0  0  0
 22 23  1  0  0  0  0
 24 22  1  0  0  0  0
 25 22  1  0  0  0  0
 25 30  1  0  0  0  0
 26 25  2  0  0  0  0
 27 26  1  0  0  0  0
 27 28  2  0  0  0  0
 28 29  1  0  0  0  0
 29 30  2  0  0  0  0
 29 32  1  0  0  0  0
 31 27  1  0  0  0  0
 33 34  1  0  0  0  0
 33 26  1  0  0  0  0
M  END
>  <minimizedAffinity>
-5.45446014

$$$$

 OpenBabel03252507443D

 34 37  0  0  0  0  0  0  0  0999 V2000
   36.6120   28.7750   41.8010 C   0  0  0  0  0  0  0  0  0  0  0  0
   35.6570   28.7300   40.7280 C   0  0  0  0  0  0  0  0  0  0  0  0
   36.1620   30.1960   39.7050 S   0  0  0  0  0  0  0  0  0  0  0  0
   37.5590   30.5910   40.9110 C   0  0  0  0  0  0  0  0  0  0  0  0
   37.4600   29.7710   41.7000 N   0  0  0  0  0  0  0  0  0  0  0  0
   34.8790   28.0080   40.6100 H   0  0  0  0  0  0  0  0  0  0  0  0
   37.9520   32.9670   40.3170 C   0  0  0  0  0  3  0  0  0  0  0  0
   38.4470   31.7360   40.6900 C   0  0  0  0  0  0  0  0  0  0  0  0
   39.8170   31.5840   40.8600 C   0  0  0  0  0  0  0  0  0  0  0  0
   40.2360   30.6190   41.1560 H   0  0  0  0  0  0  0  0  0  0  0  0
   40.6880   32.6380   40.6620 C   0  0  0  0  0  0  0  0  0  0  0  0
   42.0440   32.7400   40.7630 N   0  0  0  0  0  0  0  0  0  0  0  0
   42.7300   32.0020   41.0230 H   0  0  0  0  0  0  0  0  0  0  0  0
   42.3700   33.9960   40.4600 N   0  0  0  0  0  0  0  0  0  0  0  0
   41.2830   34.7240   40.1640 C   0  0  0  0  0  0  0  0  0  0  0  0
   41.2030   35.7650   39.8800 H   0  0  0  0  0  0  0  0  0  0  0  0
   40.2100   33.8770   40.2880 C   0  0  0  0  0  0  0  0  0  0  0  0
   38.8460   34.0000   40.1260 C   0  0  0  0  0  3  0  0  0  0  0  0
   36.5710   27.7500   42.8840 C   0  0  0  0  0  0  0  0  0  0  0  0
   36.2070   28.2220   43.8130 H   0  0  0  0  0  0  0  0  0  0  0  0
   35.8520   26.9320   42.6050 H   0  0  0  0  0  0  0  0  0  0  0  0
   37.8750   27.0920   43.1760 C   0  0  0  0  0  0  0  0  0  0  0  0
   38.6950   27.7950   43.2130 H   0  0  0  0  0  0  0  0  0  0  0  0
   37.8090   26.6450   44.2120 H   0  0  0  0  0  0  0  0  0  0  0  0
   38.1650   25.9380   42.2930 C   0  0  0  0  0  0  0  0  0  0  0  0
   39.3380   25.9870   41.5370 C   0  0  0  0  0  0  0  0  0  0  0  0
   39.6280   24.9260   40.7070 C   0  0  0  0  0  0  0  0  0  0  0  0
   38.7750   23.8720   40.6480 N   0  0  0  0  0  0  0  0  0  0  0  0
   37.6530   23.8580   41.3920 C   0  0  0  0  0  0  0  0  0  0  0  0
   37.3720   24.8760   42.1890 N   0  0  0  0  0  0  0  0  0  0  0  0
   40.5550   25.0270   40.1480 H   0  0  0  0  0  0  0  0  0  0  0  0
   37.0590   22.9630   41.2540 H   0  0  0  0  0  0  0  0  0  0  0  0
   40.4300   27.4150   41.6610 S   0  0  0  0  0  0  0  0  0  0  0  0
   40.3210   28.2440   40.5250 H   0  0  0  0  0  0  0  0  0  0  0  0
  1 19  1  0  0  0  0
  2  1  2  0  0  0  0
  3  2  1  0  0  0  0
  3  4  1  0  0  0  0
  4  5  2  0  0  0  0
  5  1  1  0  0  0  0
  6  2  1  0  0  0  0
  7  8  1  0  0  0  0
  8  9  2  0  0  0  0
  8  4  1  0  0  0  0
  9 10  1  0  0  0  0
 11 12  1  0  0  0  0
 11  9  1  0  0  0  0
 12 13  1  0  0  0  0
 14 12  1  0  0  0  0
 15 17  1  0  0  0  0
 15 14  2  0  0  0  0
 16 15  1  0  0  0  0
 17 11  2  0  0  0  0
 18 17  1  0  0  0  0
 18  7  2  0  0  0  0
 19 22  1  0  0  0  0
 19 20  1  0  0  0  0
 21 19  1  0  0  0  0
 22 23  1  0  0  0  0
 22 24  1  0  0  0  0
 25 22  1  0  0  0  0
 26 33  1  0  0  0  0
 26 25  2  0  0  0  0
 27 26  1  0  0  0  0
 28 27  2  0  0  0  0
 28 29  1  0  0  0  0
 29 30  2  0  0  0  0
 30 25  1  0  0  0  0
 31 27  1  0  0  0  0
 32 29  1  0  0  0  0
 34 33  1  0  0  0  0
M  END
>  <minimizedAffinity>
-5.41838694

$$$$

 OpenBabel03252507443D

 34 37  0  0  0  0  0  0  0  0999 V2000
   38.3030   32.5310   39.2540 C   0  0  0  0  0  0  0  0  0  0  0  0
   37.7130   33.6770   39.8870 C   0  0  0  0  0  0  0  0  0  0  0  0
   39.2040   34.7230   40.2540 S   0  0  0  0  0  0  0  0  0  0  0  0
   40.3380   33.4220   39.4890 C   0  0  0  0  0  0  0  0  0  0  0  0
   39.6100   32.6070   39.1570 N   0  0  0  0  0  0  0  0  0  0  0  0
   36.6710   33.8270   40.0690 H   0  0  0  0  0  0  0  0  0  0  0  0
   42.5150   33.9100   40.5730 C   0  0  0  0  0  3  0  0  0  0  0  0
   41.7890   33.6210   39.4380 C   0  0  0  0  0  0  0  0  0  0  0  0
   42.4530   33.5160   38.2220 C   0  0  0  0  0  0  0  0  0  0  0  0
   41.9010   33.2870   37.3070 H   0  0  0  0  0  0  0  0  0  0  0  0
   43.8190   33.6950   38.1310 C   0  0  0  0  0  0  0  0  0  0  0  0
   44.6840   33.6450   37.0770 N   0  0  0  0  0  0  0  0  0  0  0  0
   44.4730   33.4520   36.0770 H   0  0  0  0  0  0  0  0  0  0  0  0
   45.9020   33.8970   37.5530 N   0  0  0  0  0  0  0  0  0  0  0  0
   45.8750   34.1100   38.8770 C   0  0  0  0  0  0  0  0  0  0  0  0
   46.6830   34.3370   39.5590 H   0  0  0  0  0  0  0  0  0  0  0  0
   44.5620   33.9860   39.2570 C   0  0  0  0  0  0  0  0  0  0  0  0
   43.8770   34.0850   40.4500 C   0  0  0  0  0  3  0  0  0  0  0  0
   37.4420   31.4080   38.7830 C   0  0  0  0  0  0  0  0  0  0  0  0
   36.9800   31.6880   37.8210 H   0  0  0  0  0  0  0  0  0  0  0  0
   38.0700   30.4930   38.6130 H   0  0  0  0  0  0  0  0  0  0  0  0
   36.3560   31.0120   39.7230 C   0  0  0  0  0  0  0  0  0  0  0  0
   35.9230   31.8590   40.2370 H   0  0  0  0  0  0  0  0  0  0  0  0
   35.5170   30.5670   39.1100 H   0  0  0  0  0  0  0  0  0  0  0  0
   36.7470   29.9310   40.6560 C   0  0  0  0  0  0  0  0  0  0  0  0
   36.3580   28.6290   40.3330 C   0  0  0  0  0  0  0  0  0  0  0  0
   36.7100   27.6080   41.1870 C   0  0  0  0  0  0  0  0  0  0  0  0
   37.4200   27.8910   42.3090 N   0  0  0  0  0  0  0  0  0  0  0  0
   37.7790   29.1570   42.5900 C   0  0  0  0  0  0  0  0  0  0  0  0
   37.4410   30.1400   41.7720 N   0  0  0  0  0  0  0  0  0  0  0  0
   36.3780   26.6210   40.8770 H   0  0  0  0  0  0  0  0  0  0  0  0
   38.3400   29.2490   43.5120 H   0  0  0  0  0  0  0  0  0  0  0  0
   35.4180   28.3200   38.8280 S   0  0  0  0  0  0  0  0  0  0  0  0
   34.0620   28.0610   39.1140 H   0  0  0  0  0  0  0  0  0  0  0  0
  1  2  2  0  0  0  0
  2  6  1  0  0  0  0
  2  3  1  0  0  0  0
  4  3  1  0  0  0  0
  5  1  1  0  0  0  0
  5  4  2  0  0  0  0
  8  4  1  0  0  0  0
  8  7  2  0  0  0  0
  9  8  1  0  0  0  0
 10  9  1  0  0  0  0
 11  9  2  0  0  0  0
 11 17  1  0  0  0  0
 12 14  1  0  0  0  0
 12 11  1  0  0  0  0
 13 12  1  0  0  0  0
 14 15  2  0  0  0  0
 15 17  1  0  0  0  0
 15 16  1  0  0  0  0
 17 18  2  0  0  0  0
 18  7  1  0  0  0  0
 19  1  1  0  0  0  0
 19 22  1  0  0  0  0
 20 19  1  0  0  0  0
 21 19  1  0  0  0  0
 22 23  1  0  0  0  0
 22 25  1  0  0  0  0
 24 22  1  0  0  0  0
 25 30  1  0  0  0  0
 26 25  2  0  0  0  0
 26 27  1  0  0  0  0
 27 28  2  0  0  0  0
 28 29  1  0  0  0  0
 29 32  1  0  0  0  0
 30 29  2  0  0  0  0
 31 27  1  0  0  0  0
 33 34  1  0  0  0  0
 33 26  1  0  0  0  0
M  END
>  <minimizedAffinity>
-5.39398479

$$$$

 OpenBabel03252507443D

 34 37  0  0  0  0  0  0  0  0999 V2000
   39.0340   27.3280   43.3150 C   0  0  0  0  0  0  0  0  0  0  0  0
   37.6220   27.0800   43.2240 C   0  0  0  0  0  0  0  0  0  0  0  0
   37.0130   28.6300   42.4020 S   0  0  0  0  0  0  0  0  0  0  0  0
   38.7690   29.3180   42.3370 C   0  0  0  0  0  0  0  0  0  0  0  0
   39.3900   28.4900   42.8190 N   0  0  0  0  0  0  0  0  0  0  0  0
   37.1160   26.2030   43.5630 H   0  0  0  0  0  0  0  0  0  0  0  0
   40.3260   31.1340   41.6800 C   0  0  0  0  0  3  0  0  0  0  0  0
   39.0430   30.6350   41.7540 C   0  0  0  0  0  0  0  0  0  0  0  0
   37.9930   31.4010   41.2640 C   0  0  0  0  0  0  0  0  0  0  0  0
   36.9660   31.0280   41.3110 H   0  0  0  0  0  0  0  0  0  0  0  0
   38.2090   32.6460   40.7070 C   0  0  0  0  0  0  0  0  0  0  0  0
   37.3630   33.5700   40.1680 N   0  0  0  0  0  0  0  0  0  0  0  0
   36.3290   33.5170   40.0640 H   0  0  0  0  0  0  0  0  0  0  0  0
   38.1050   34.6040   39.7760 N   0  0  0  0  0  0  0  0  0  0  0  0
   39.4050   34.3980   40.0340 C   0  0  0  0  0  0  0  0  0  0  0  0
   40.2590   35.0340   39.8430 H   0  0  0  0  0  0  0  0  0  0  0  0
   39.4860   33.1610   40.6250 C   0  0  0  0  0  0  0  0  0  0  0  0
   40.5100   32.3810   41.1190 C   0  0  0  0  0  3  0  0  0  0  0  0
   39.9360   26.3110   43.9290 C   0  0  0  0  0  0  0  0  0  0  0  0
   40.9770   26.6730   43.8740 H   0  0  0  0  0  0  0  0  0  0  0  0
   39.6720   26.1740   45.0120 H   0  0  0  0  0  0  0  0  0  0  0  0
   39.8790   24.9610   43.3020 C   0  0  0  0  0  0  0  0  0  0  0  0
   40.3250   24.1960   43.9220 H   0  0  0  0  0  0  0  0  0  0  0  0
   38.7910   24.6740   43.2020 H   0  0  0  0  0  0  0  0  0  0  0  0
   40.4000   24.9310   41.9150 C   0  0  0  0  0  0  0  0  0  0  0  0
   39.5500   24.4430   40.9200 C   0  0  0  0  0  0  0  0  0  0  0  0
   40.0140   24.4060   39.6240 C   0  0  0  0  0  0  0  0  0  0  0  0
   41.2700   24.8400   39.3510 N   0  0  0  0  0  0  0  0  0  0  0  0
   42.0620   25.3050   40.3350 C   0  0  0  0  0  0  0  0  0  0  0  0
   41.6200   25.3420   41.5810 N   0  0  0  0  0  0  0  0  0  0  0  0
   39.3040   24.0160   38.8990 H   0  0  0  0  0  0  0  0  0  0  0  0
   43.0390   25.6190   39.9870 H   0  0  0  0  0  0  0  0  0  0  0  0
   37.8930   23.8820   41.3470 S   0  0  0  0  0  0  0  0  0  0  0  0
   37.8080   22.4750   41.3340 H   0  0  0  0  0  0  0  0  0  0  0  0
  1 19  1  0  0  0  0
  2  1  2  0  0  0  0
  2  6  1  0  0  0  0
  3  2  1  0  0  0  0
  4  3  1  0  0  0  0
  4  5  2  0  0  0  0
  5  1  1  0  0  0  0
  7  8  1  0  0  0  0
  8  4  1  0  0  0  0
  9 10  1  0  0  0  0
  9  8  2  0  0  0  0
 11  9  1  0  0  0  0
 12 11  1  0  0  0  0
 13 12  1  0  0  0  0
 14 15  2  0  0  0  0
 14 12  1  0  0  0  0
 15 17  1  0  0  0  0
 16 15  1  0  0  0  0
 17 11  2  0  0  0  0
 17 18  1  0  0  0  0
 18  7  2  0  0  0  0
 19 21  1  0  0  0  0
 20 19  1  0  0  0  0
 22 23  1  0  0  0  0
 22 19  1  0  0  0  0
 24 22  1  0  0  0  0
 25 22  1  0  0  0  0
 26 33  1  0  0  0  0
 26 25  2  0  0  0  0
 27 26  1  0  0  0  0
 28 27  2  0  0  0  0
 28 29  1  0  0  0  0
 29 30  2  0  0  0  0
 30 25  1  0  0  0  0
 31 27  1  0  0  0  0
 32 29  1  0  0  0  0
 34 33  1  0  0  0  0
M  END
>  <minimizedAffinity>
-5.36937237

$$$$
