
 OpenBabel03242511303D

 37 41  0  0  0  0  0  0  0  0999 V2000
   37.8940   27.4690   39.2790 Cl  0  0  0  0  0  0  0  0  0  0  0  0
   37.4930   27.5240   40.9540 C   0  0  0  0  0  0  0  0  0  0  0  0
   37.2420   26.3560   41.6390 C   0  0  0  0  0  0  0  0  0  0  0  0
   36.9120   26.3510   43.0000 C   0  0  0  0  0  0  0  0  0  0  0  0
   36.8560   27.5870   43.5970 C   0  0  0  0  0  0  0  0  0  0  0  0
   37.1010   28.7370   42.9330 C   0  0  0  0  0  0  0  0  0  0  0  0
   37.4240   28.7340   41.6010 C   0  0  0  0  0  0  0  0  0  0  0  0
   36.7330   25.3970   43.4530 H   0  0  0  0  0  0  0  0  0  0  0  0
   36.5960   27.5500   44.6590 H   0  0  0  0  0  0  0  0  0  0  0  0
   37.0240   29.6510   43.5190 H   0  0  0  0  0  0  0  0  0  0  0  0
   38.5570   23.1970   40.2520 C   0  0  0  0  0  0  0  0  0  0  0  0
   37.4340   22.6790   39.5810 C   0  0  0  0  0  0  0  0  0  0  0  0
   36.2630   23.3980   39.6100 C   0  0  0  0  0  0  0  0  0  0  0  0
   36.2410   24.5760   40.2810 N   0  0  0  0  0  0  0  0  0  0  0  0
   37.3220   25.0790   40.9290 C   0  0  0  0  0  0  0  0  0  0  0  0
   38.4740   24.3740   40.9040 N   0  0  0  0  0  0  0  0  0  0  0  0
   39.4630   22.6080   40.2130 H   0  0  0  0  0  0  0  0  0  0  0  0
   37.4030   21.7650   39.0440 H   0  0  0  0  0  0  0  0  0  0  0  0
   35.3200   23.1770   39.1700 H   0  0  0  0  0  0  0  0  0  0  0  0
   37.6610   30.0560   41.0070 C   0  0  0  0  0  0  0  0  0  0  0  0
   36.5650   30.8730   40.7480 C   0  0  0  0  0  0  0  0  0  0  0  0
   37.3460   32.3830   40.0180 S   0  0  0  0  0  0  0  0  0  0  0  0
   39.0570   31.6050   40.2070 C   0  0  0  0  0  0  0  0  0  0  0  0
   38.7830   30.6180   40.6620 N   0  0  0  0  0  0  0  0  0  0  0  0
   35.4910   30.7260   40.9070 H   0  0  0  0  0  0  0  0  0  0  0  0
   41.1980   32.5670   40.8130 C   0  0  0  0  0  3  0  0  0  0  0  0
   40.3140   32.3150   39.7840 C   0  0  0  0  0  0  0  0  0  0  0  0
   40.4730   32.6440   38.4540 C   0  0  0  0  0  0  0  0  0  0  0  0
   39.7100   32.3970   37.7300 H   0  0  0  0  0  0  0  0  0  0  0  0
   41.6470   33.2950   38.1310 C   0  0  0  0  0  0  0  0  0  0  0  0
   42.1310   33.7570   36.9630 N   0  0  0  0  0  0  0  0  0  0  0  0
   41.6510   33.6890   36.0360 H   0  0  0  0  0  0  0  0  0  0  0  0
   43.3260   34.3210   37.1590 N   0  0  0  0  0  0  0  0  0  0  0  0
   43.6280   34.2240   38.4860 C   0  0  0  0  0  0  0  0  0  0  0  0
   44.5280   34.5850   38.9690 H   0  0  0  0  0  0  0  0  0  0  0  0
   42.5800   33.5820   39.1030 C   0  0  0  0  0  0  0  0  0  0  0  0
   42.3480   33.2190   40.4140 C   0  0  0  0  0  3  0  0  0  0  0  0
  1  2  1  0  0  0  0
  2  7  2  0  0  0  0
  2  3  1  0  0  0  0
  3  4  2  0  0  0  0
  4  8  1  0  0  0  0
  4  5  1  0  0  0  0
  5  9  1  0  0  0  0
  6 10  1  0  0  0  0
  6  5  2  0  0  0  0
  7  6  1  0  0  0  0
 11 16  1  0  0  0  0
 12 13  1  0  0  0  0
 12 11  2  0  0  0  0
 13 14  2  0  0  0  0
 14 15  1  0  0  0  0
 15  3  1  0  0  0  0
 16 15  2  0  0  0  0
 17 11  1  0  0  0  0
 18 12  1  0  0  0  0
 19 13  1  0  0  0  0
 20  7  1  0  0  0  0
 21 25  1  0  0  0  0
 21 20  2  0  0  0  0
 22 23  1  0  0  0  0
 22 21  1  0  0  0  0
 23 24  2  0  0  0  0
 24 20  1  0  0  0  0
 27 23  1  0  0  0  0
 27 26  2  0  0  0  0
 28 27  1  0  0  0  0
 29 28  1  0  0  0  0
 30 28  2  0  0  0  0
 30 36  1  0  0  0  0
 31 33  1  0  0  0  0
 31 30  1  0  0  0  0
 32 31  1  0  0  0  0
 33 34  2  0  0  0  0
 34 35  1  0  0  0  0
 34 36  1  0  0  0  0
 36 37  2  0  0  0  0
 37 26  1  0  0  0  0
M  END
>  <minimizedAffinity>
-6.36391306

$$$$

 OpenBabel03242511303D

 37 41  0  0  0  0  0  0  0  0999 V2000
   40.9160   30.4030   40.3990 Cl  0  0  0  0  0  0  0  0  0  0  0  0
   39.4360   31.2750   40.2630 C   0  0  0  0  0  0  0  0  0  0  0  0
   39.4250   32.5230   39.6800 C   0  0  0  0  0  0  0  0  0  0  0  0
   38.2470   33.2690   39.5480 C   0  0  0  0  0  0  0  0  0  0  0  0
   37.1130   32.6700   40.0390 C   0  0  0  0  0  0  0  0  0  0  0  0
   37.1140   31.4470   40.6110 C   0  0  0  0  0  0  0  0  0  0  0  0
   38.2710   30.7220   40.7360 C   0  0  0  0  0  0  0  0  0  0  0  0
   38.3310   34.2300   39.0820 H   0  0  0  0  0  0  0  0  0  0  0  0
   36.2100   33.2770   39.9210 H   0  0  0  0  0  0  0  0  0  0  0  0
   36.1490   31.0840   40.9600 H   0  0  0  0  0  0  0  0  0  0  0  0
   42.6680   34.2840   39.5580 C   0  0  0  0  0  0  0  0  0  0  0  0
   43.0290   34.1460   38.2060 C   0  0  0  0  0  0  0  0  0  0  0  0
   42.1780   33.4650   37.3660 C   0  0  0  0  0  0  0  0  0  0  0  0
   41.0290   32.9590   37.8780 N   0  0  0  0  0  0  0  0  0  0  0  0
   40.6780   33.0910   39.1820 C   0  0  0  0  0  0  0  0  0  0  0  0
   41.5110   33.7580   40.0090 N   0  0  0  0  0  0  0  0  0  0  0  0
   43.3570   34.8230   40.1940 H   0  0  0  0  0  0  0  0  0  0  0  0
   43.9140   34.5240   37.7600 H   0  0  0  0  0  0  0  0  0  0  0  0
   42.2730   33.2580   36.3270 H   0  0  0  0  0  0  0  0  0  0  0  0
   38.1260   29.4100   41.3800 C   0  0  0  0  0  0  0  0  0  0  0  0
   38.2660   29.3310   42.7630 C   0  0  0  0  0  0  0  0  0  0  0  0
   38.0130   27.5290   43.0940 S   0  0  0  0  0  0  0  0  0  0  0  0
   37.7570   27.2120   41.2490 C   0  0  0  0  0  0  0  0  0  0  0  0
   37.8800   28.2500   40.8450 N   0  0  0  0  0  0  0  0  0  0  0  0
   38.4730   30.0950   43.5200 H   0  0  0  0  0  0  0  0  0  0  0  0
   36.5440   25.8140   39.6830 C   0  0  0  0  0  3  0  0  0  0  0  0
   37.4750   25.8390   40.7010 C   0  0  0  0  0  0  0  0  0  0  0  0
   38.1440   24.7600   41.2410 C   0  0  0  0  0  0  0  0  0  0  0  0
   38.8570   24.8990   42.0420 H   0  0  0  0  0  0  0  0  0  0  0  0
   37.8410   23.5300   40.6960 C   0  0  0  0  0  0  0  0  0  0  0  0
   38.2870   22.2890   40.9640 N   0  0  0  0  0  0  0  0  0  0  0  0
   38.9970   22.0420   41.6930 H   0  0  0  0  0  0  0  0  0  0  0  0
   37.6900   21.4070   40.1580 N   0  0  0  0  0  0  0  0  0  0  0  0
   36.8340   22.0900   39.3450 C   0  0  0  0  0  0  0  0  0  0  0  0
   36.1980   21.6640   38.5770 H   0  0  0  0  0  0  0  0  0  0  0  0
   36.9220   23.4220   39.6740 C   0  0  0  0  0  0  0  0  0  0  0  0
   36.2940   24.5500   39.1880 C   0  0  0  0  0  3  0  0  0  0  0  0
  2  1  1  0  0  0  0
  2  7  1  0  0  0  0
  3  2  2  0  0  0  0
  4  3  1  0  0  0  0
  4  5  2  0  0  0  0
  5  6  1  0  0  0  0
  6  7  2  0  0  0  0
  6 10  1  0  0  0  0
  7 20  1  0  0  0  0
  8  4  1  0  0  0  0
  9  5  1  0  0  0  0
 11 16  1  0  0  0  0
 11 17  1  0  0  0  0
 12 11  2  0  0  0  0
 13 14  2  0  0  0  0
 13 12  1  0  0  0  0
 14 15  1  0  0  0  0
 15  3  1  0  0  0  0
 15 16  2  0  0  0  0
 18 12  1  0  0  0  0
 19 13  1  0  0  0  0
 20 21  2  0  0  0  0
 21 22  1  0  0  0  0
 21 25  1  0  0  0  0
 23 22  1  0  0  0  0
 24 23  2  0  0  0  0
 24 20  1  0  0  0  0
 26 27  1  0  0  0  0
 27 28  2  0  0  0  0
 27 23  1  0  0  0  0
 28 29  1  0  0  0  0
 30 31  1  0  0  0  0
 30 28  1  0  0  0  0
 31 32  1  0  0  0  0
 33 31  1  0  0  0  0
 34 36  1  0  0  0  0
 34 33  2  0  0  0  0
 35 34  1  0  0  0  0
 36 30  2  0  0  0  0
 37 36  1  0  0  0  0
 37 26  2  0  0  0  0
M  END
>  <minimizedAffinity>
-6.28330851

$$$$

 OpenBabel03242511303D

 37 41  0  0  0  0  0  0  0  0999 V2000
   36.2230   27.5340   38.4890 Cl  0  0  0  0  0  0  0  0  0  0  0  0
   36.4130   26.0570   39.3590 C   0  0  0  0  0  0  0  0  0  0  0  0
   36.0820   24.8610   38.7610 C   0  0  0  0  0  0  0  0  0  0  0  0
   36.2180   23.6370   39.4280 C   0  0  0  0  0  0  0  0  0  0  0  0
   36.7020   23.7160   40.7110 C   0  0  0  0  0  0  0  0  0  0  0  0
   37.0300   24.8840   41.3040 C   0  0  0  0  0  0  0  0  0  0  0  0
   36.8930   26.0790   40.6450 C   0  0  0  0  0  0  0  0  0  0  0  0
   35.9380   22.7560   38.8870 H   0  0  0  0  0  0  0  0  0  0  0  0
   36.7980   22.7450   41.2040 H   0  0  0  0  0  0  0  0  0  0  0  0
   37.4010   24.8130   42.3240 H   0  0  0  0  0  0  0  0  0  0  0  0
   33.7710   24.9590   35.8840 C   0  0  0  0  0  0  0  0  0  0  0  0
   34.6540   24.8640   34.7920 C   0  0  0  0  0  0  0  0  0  0  0  0
   36.0020   24.7700   35.0450 C   0  0  0  0  0  0  0  0  0  0  0  0
   36.4220   24.7720   36.3340 N   0  0  0  0  0  0  0  0  0  0  0  0
   35.5730   24.8630   37.3890 C   0  0  0  0  0  0  0  0  0  0  0  0
   34.2480   24.9560   37.1440 N   0  0  0  0  0  0  0  0  0  0  0  0
   32.7170   25.0320   35.6530 H   0  0  0  0  0  0  0  0  0  0  0  0
   34.3730   24.8580   33.7690 H   0  0  0  0  0  0  0  0  0  0  0  0
   36.8160   24.6910   34.3650 H   0  0  0  0  0  0  0  0  0  0  0  0
   37.2850   27.2690   41.4110 C   0  0  0  0  0  0  0  0  0  0  0  0
   37.4510   27.1460   42.7880 C   0  0  0  0  0  0  0  0  0  0  0  0
   37.9220   28.8620   43.2950 S   0  0  0  0  0  0  0  0  0  0  0  0
   37.8050   29.4390   41.5000 C   0  0  0  0  0  0  0  0  0  0  0  0
   37.5090   28.4820   40.9970 N   0  0  0  0  0  0  0  0  0  0  0  0
   37.3450   26.2890   43.4620 H   0  0  0  0  0  0  0  0  0  0  0  0
   37.0220   31.4890   40.4680 C   0  0  0  0  0  3  0  0  0  0  0  0
   38.0790   30.8620   41.0940 C   0  0  0  0  0  0  0  0  0  0  0  0
   39.3200   31.4000   41.3690 C   0  0  0  0  0  0  0  0  0  0  0  0
   40.0780   30.8120   41.8660 H   0  0  0  0  0  0  0  0  0  0  0  0
   39.5090   32.7080   40.9710 C   0  0  0  0  0  0  0  0  0  0  0  0
   40.5640   33.5380   41.0710 N   0  0  0  0  0  0  0  0  0  0  0  0
   41.4860   33.3000   41.5050 H   0  0  0  0  0  0  0  0  0  0  0  0
   40.2630   34.7220   40.5320 N   0  0  0  0  0  0  0  0  0  0  0  0
   38.9810   34.6620   40.0690 C   0  0  0  0  0  0  0  0  0  0  0  0
   38.4360   35.4600   39.5770 H   0  0  0  0  0  0  0  0  0  0  0  0
   38.5000   33.4030   40.3400 C   0  0  0  0  0  0  0  0  0  0  0  0
   37.2860   32.7930   40.1010 C   0  0  0  0  0  3  0  0  0  0  0  0
  1  2  1  0  0  0  0
  2  7  1  0  0  0  0
  3  2  2  0  0  0  0
  3  4  1  0  0  0  0
  4  5  2  0  0  0  0
  5  9  1  0  0  0  0
  5  6  1  0  0  0  0
  6 10  1  0  0  0  0
  7  6  2  0  0  0  0
  7 20  1  0  0  0  0
  8  4  1  0  0  0  0
 11 16  1  0  0  0  0
 12 13  1  0  0  0  0
 12 11  2  0  0  0  0
 13 14  2  0  0  0  0
 14 15  1  0  0  0  0
 15  3  1  0  0  0  0
 16 15  2  0  0  0  0
 17 11  1  0  0  0  0
 18 12  1  0  0  0  0
 19 13  1  0  0  0  0
 20 21  2  0  0  0  0
 21 22  1  0  0  0  0
 21 25  1  0  0  0  0
 23 22  1  0  0  0  0
 24 20  1  0  0  0  0
 24 23  2  0  0  0  0
 26 27  1  0  0  0  0
 27 28  2  0  0  0  0
 27 23  1  0  0  0  0
 28 29  1  0  0  0  0
 30 31  1  0  0  0  0
 30 28  1  0  0  0  0
 31 32  1  0  0  0  0
 33 31  1  0  0  0  0
 34 36  1  0  0  0  0
 34 33  2  0  0  0  0
 35 34  1  0  0  0  0
 36 30  2  0  0  0  0
 37 36  1  0  0  0  0
 37 26  2  0  0  0  0
M  END
>  <minimizedAffinity>
-6.16518307

$$$$

 OpenBabel03242511303D

 37 41  0  0  0  0  0  0  0  0999 V2000
   36.1100   26.5870   38.3680 Cl  0  0  0  0  0  0  0  0  0  0  0  0
   36.6020   26.0520   39.9310 C   0  0  0  0  0  0  0  0  0  0  0  0
   36.6560   24.7040   40.2100 C   0  0  0  0  0  0  0  0  0  0  0  0
   37.0490   24.2230   41.4650 C   0  0  0  0  0  0  0  0  0  0  0  0
   37.3740   25.1850   42.3900 C   0  0  0  0  0  0  0  0  0  0  0  0
   37.3240   26.5080   42.1250 C   0  0  0  0  0  0  0  0  0  0  0  0
   36.9380   26.9720   40.8940 C   0  0  0  0  0  0  0  0  0  0  0  0
   37.0630   23.1600   41.5950 H   0  0  0  0  0  0  0  0  0  0  0  0
   37.6770   24.7780   43.3590 H   0  0  0  0  0  0  0  0  0  0  0  0
   37.6050   27.1690   42.9430 H   0  0  0  0  0  0  0  0  0  0  0  0
   34.6800   22.4240   38.0840 C   0  0  0  0  0  0  0  0  0  0  0  0
   35.6520   21.9320   37.1940 C   0  0  0  0  0  0  0  0  0  0  0  0
   36.9470   22.3760   37.3260 C   0  0  0  0  0  0  0  0  0  0  0  0
   37.2300   23.2660   38.3090 N   0  0  0  0  0  0  0  0  0  0  0  0
   36.2940   23.7430   39.1680 C   0  0  0  0  0  0  0  0  0  0  0  0
   35.0220   23.3090   39.0410 N   0  0  0  0  0  0  0  0  0  0  0  0
   33.6710   22.0570   37.9540 H   0  0  0  0  0  0  0  0  0  0  0  0
   35.4790   21.2360   36.4120 H   0  0  0  0  0  0  0  0  0  0  0  0
   37.8120   22.1250   36.7600 H   0  0  0  0  0  0  0  0  0  0  0  0
   36.9280   28.4340   40.7460 C   0  0  0  0  0  0  0  0  0  0  0  0
   35.7400   29.1160   40.9950 C   0  0  0  0  0  0  0  0  0  0  0  0
   36.2110   30.8780   40.6800 S   0  0  0  0  0  0  0  0  0  0  0  0
   37.9740   30.3460   40.2610 C   0  0  0  0  0  0  0  0  0  0  0  0
   37.8920   29.2370   40.4000 N   0  0  0  0  0  0  0  0  0  0  0  0
   34.7480   28.7670   41.2990 H   0  0  0  0  0  0  0  0  0  0  0  0
   39.5800   32.0360   40.9250 C   0  0  0  0  0  3  0  0  0  0  0  0
   39.0400   31.3330   39.8680 C   0  0  0  0  0  0  0  0  0  0  0  0
   39.3760   31.4490   38.5350 C   0  0  0  0  0  0  0  0  0  0  0  0
   38.8830   30.8430   37.7880 H   0  0  0  0  0  0  0  0  0  0  0  0
   40.3590   32.3710   38.2400 C   0  0  0  0  0  0  0  0  0  0  0  0
   40.9270   32.7440   37.0790 N   0  0  0  0  0  0  0  0  0  0  0  0
   40.6910   32.3590   36.1340 H   0  0  0  0  0  0  0  0  0  0  0  0
   41.8460   33.6870   37.3050 N   0  0  0  0  0  0  0  0  0  0  0  0
   41.8770   33.9330   38.6460 C   0  0  0  0  0  0  0  0  0  0  0  0
   42.5170   34.6460   39.1550 H   0  0  0  0  0  0  0  0  0  0  0  0
   40.9480   33.1130   39.2410 C   0  0  0  0  0  0  0  0  0  0  0  0
   40.5570   32.9380   40.5520 C   0  0  0  0  0  3  0  0  0  0  0  0
  1  2  1  0  0  0  0
  2  3  2  0  0  0  0
  2  7  1  0  0  0  0
  3  4  1  0  0  0  0
  4  8  1  0  0  0  0
  4  5  2  0  0  0  0
  5  9  1  0  0  0  0
  6  5  1  0  0  0  0
  6 10  1  0  0  0  0
  7  6  2  0  0  0  0
 11 16  1  0  0  0  0
 12 13  1  0  0  0  0
 12 11  2  0  0  0  0
 13 14  2  0  0  0  0
 14 15  1  0  0  0  0
 15  3  1  0  0  0  0
 16 15  2  0  0  0  0
 17 11  1  0  0  0  0
 18 12  1  0  0  0  0
 19 13  1  0  0  0  0
 20  7  1  0  0  0  0
 20 21  2  0  0  0  0
 21 25  1  0  0  0  0
 22 21  1  0  0  0  0
 23 24  2  0  0  0  0
 23 22  1  0  0  0  0
 24 20  1  0  0  0  0
 27 23  1  0  0  0  0
 27 26  2  0  0  0  0
 28 27  1  0  0  0  0
 29 28  1  0  0  0  0
 30 28  2  0  0  0  0
 30 36  1  0  0  0  0
 31 33  1  0  0  0  0
 31 30  1  0  0  0  0
 32 31  1  0  0  0  0
 33 34  2  0  0  0  0
 34 35  1  0  0  0  0
 34 36  1  0  0  0  0
 36 37  2  0  0  0  0
 37 26  1  0  0  0  0
M  END
>  <minimizedAffinity>
-6.11400747

$$$$

 OpenBabel03242511303D

 37 41  0  0  0  0  0  0  0  0999 V2000
   39.4620   28.0250   40.3650 Cl  0  0  0  0  0  0  0  0  0  0  0  0
   37.9630   28.8750   40.4130 C   0  0  0  0  0  0  0  0  0  0  0  0
   36.7840   28.1810   40.5780 C   0  0  0  0  0  0  0  0  0  0  0  0
   35.5440   28.8280   40.6220 C   0  0  0  0  0  0  0  0  0  0  0  0
   35.5870   30.1940   40.4890 C   0  0  0  0  0  0  0  0  0  0  0  0
   36.7370   30.8830   40.3280 C   0  0  0  0  0  0  0  0  0  0  0  0
   37.9490   30.2420   40.2860 C   0  0  0  0  0  0  0  0  0  0  0  0
   34.6780   28.2100   40.7530 H   0  0  0  0  0  0  0  0  0  0  0  0
   34.6030   30.6700   40.5280 H   0  0  0  0  0  0  0  0  0  0  0  0
   36.6370   31.9620   40.2340 H   0  0  0  0  0  0  0  0  0  0  0  0
   36.6140   24.5830   39.7660 C   0  0  0  0  0  0  0  0  0  0  0  0
   36.9100   23.9860   41.0050 C   0  0  0  0  0  0  0  0  0  0  0  0
   37.1610   24.8020   42.0830 C   0  0  0  0  0  0  0  0  0  0  0  0
   37.1110   26.1450   41.9060 N   0  0  0  0  0  0  0  0  0  0  0  0
   36.8250   26.7240   40.7120 C   0  0  0  0  0  0  0  0  0  0  0  0
   36.5780   25.9260   39.6510 N   0  0  0  0  0  0  0  0  0  0  0  0
   36.4220   23.9160   38.9370 H   0  0  0  0  0  0  0  0  0  0  0  0
   36.9610   22.9430   41.1920 H   0  0  0  0  0  0  0  0  0  0  0  0
   37.4000   24.5450   43.0870 H   0  0  0  0  0  0  0  0  0  0  0  0
   39.1170   31.1140   40.1030 C   0  0  0  0  0  0  0  0  0  0  0  0
   39.1920   32.2860   40.8510 C   0  0  0  0  0  0  0  0  0  0  0  0
   40.7890   33.0280   40.2840 S   0  0  0  0  0  0  0  0  0  0  0  0
   41.0630   31.5740   39.1100 C   0  0  0  0  0  0  0  0  0  0  0  0
   40.1420   30.9690   39.3160 N   0  0  0  0  0  0  0  0  0  0  0  0
   38.5180   32.7200   41.5980 H   0  0  0  0  0  0  0  0  0  0  0  0
   43.3780   32.1620   38.6900 C   0  0  0  0  0  3  0  0  0  0  0  0
   42.2770   31.4710   38.2260 C   0  0  0  0  0  0  0  0  0  0  0  0
   42.1910   30.7250   37.0690 C   0  0  0  0  0  0  0  0  0  0  0  0
   41.2710   30.2240   36.8030 H   0  0  0  0  0  0  0  0  0  0  0  0
   43.3370   30.6710   36.3020 C   0  0  0  0  0  0  0  0  0  0  0  0
   43.6170   30.0540   35.1390 N   0  0  0  0  0  0  0  0  0  0  0  0
   42.9490   29.4680   34.5860 H   0  0  0  0  0  0  0  0  0  0  0  0
   44.8810   30.3000   34.7870 N   0  0  0  0  0  0  0  0  0  0  0  0
   45.4400   31.0960   35.7440 C   0  0  0  0  0  0  0  0  0  0  0  0
   46.4550   31.4740   35.7550 H   0  0  0  0  0  0  0  0  0  0  0  0
   44.4790   31.3340   36.6980 C   0  0  0  0  0  0  0  0  0  0  0  0
   44.4840   32.0600   37.8710 C   0  0  0  0  0  3  0  0  0  0  0  0
  1  2  1  0  0  0  0
  2  3  1  0  0  0  0
  3  4  2  0  0  0  0
  3 15  1  0  0  0  0
  4  8  1  0  0  0  0
  5  9  1  0  0  0  0
  5  4  1  0  0  0  0
  6  5  2  0  0  0  0
  7  6  1  0  0  0  0
  7  2  2  0  0  0  0
 10  6  1  0  0  0  0
 11 12  1  0  0  0  0
 12 18  1  0  0  0  0
 12 13  2  0  0  0  0
 13 19  1  0  0  0  0
 14 13  1  0  0  0  0
 15 14  2  0  0  0  0
 16 11  2  0  0  0  0
 16 15  1  0  0  0  0
 17 11  1  0  0  0  0
 20  7  1  0  0  0  0
 20 21  2  0  0  0  0
 21 25  1  0  0  0  0
 22 21  1  0  0  0  0
 23 24  2  0  0  0  0
 23 22  1  0  0  0  0
 24 20  1  0  0  0  0
 27 26  1  0  0  0  0
 27 23  1  0  0  0  0
 28 27  2  0  0  0  0
 29 28  1  0  0  0  0
 30 36  2  0  0  0  0
 30 28  1  0  0  0  0
 31 30  1  0  0  0  0
 32 31  1  0  0  0  0
 33 31  1  0  0  0  0
 33 34  2  0  0  0  0
 34 35  1  0  0  0  0
 34 36  1  0  0  0  0
 36 37  1  0  0  0  0
 37 26  2  0  0  0  0
M  END
>  <minimizedAffinity>
-6.05056715

$$$$

 OpenBabel03242511303D

 37 41  0  0  0  0  0  0  0  0999 V2000
   36.8200   28.5560   39.5620 Cl  0  0  0  0  0  0  0  0  0  0  0  0
   36.5360   26.8630   39.4100 C   0  0  0  0  0  0  0  0  0  0  0  0
   37.0970   25.9890   40.3150 C   0  0  0  0  0  0  0  0  0  0  0  0
   36.8960   24.6060   40.2320 C   0  0  0  0  0  0  0  0  0  0  0  0
   36.1050   24.1870   39.1900 C   0  0  0  0  0  0  0  0  0  0  0  0
   35.5510   25.0370   38.2980 C   0  0  0  0  0  0  0  0  0  0  0  0
   35.7530   26.3900   38.3860 C   0  0  0  0  0  0  0  0  0  0  0  0
   37.3700   24.0000   40.9780 H   0  0  0  0  0  0  0  0  0  0  0  0
   35.9670   23.1030   39.1520 H   0  0  0  0  0  0  0  0  0  0  0  0
   34.9450   24.5800   37.5180 H   0  0  0  0  0  0  0  0  0  0  0  0
   38.1330   27.3910   43.5700 C   0  0  0  0  0  0  0  0  0  0  0  0
   39.5260   27.5030   43.4140 C   0  0  0  0  0  0  0  0  0  0  0  0
   40.0870   27.1060   42.2230 C   0  0  0  0  0  0  0  0  0  0  0  0
   39.2730   26.6250   41.2510 N   0  0  0  0  0  0  0  0  0  0  0  0
   37.9280   26.5160   41.3990 C   0  0  0  0  0  0  0  0  0  0  0  0
   37.3740   26.9040   42.5670 N   0  0  0  0  0  0  0  0  0  0  0  0
   37.7200   27.7100   44.5180 H   0  0  0  0  0  0  0  0  0  0  0  0
   40.2020   27.8730   44.1440 H   0  0  0  0  0  0  0  0  0  0  0  0
   41.1060   27.1130   41.9170 H   0  0  0  0  0  0  0  0  0  0  0  0
   35.0930   27.1940   37.3490 C   0  0  0  0  0  0  0  0  0  0  0  0
   35.6330   27.1940   36.0670 C   0  0  0  0  0  0  0  0  0  0  0  0
   34.4930   28.3230   35.1460 S   0  0  0  0  0  0  0  0  0  0  0  0
   33.4700   28.5900   36.7120 C   0  0  0  0  0  0  0  0  0  0  0  0
   34.0360   27.9480   37.4360 N   0  0  0  0  0  0  0  0  0  0  0  0
   36.5040   26.6840   35.6420 H   0  0  0  0  0  0  0  0  0  0  0  0
   31.9340   30.0370   35.5180 C   0  0  0  0  0  3  0  0  0  0  0  0
   32.2560   29.4790   36.7370 C   0  0  0  0  0  0  0  0  0  0  0  0
   31.5910   29.6550   37.9340 C   0  0  0  0  0  0  0  0  0  0  0  0
   31.9350   29.1650   38.8330 H   0  0  0  0  0  0  0  0  0  0  0  0
   30.4870   30.4810   37.8910 C   0  0  0  0  0  0  0  0  0  0  0  0
   29.6160   30.8740   38.8400 N   0  0  0  0  0  0  0  0  0  0  0  0
   29.6440   30.5880   39.8470 H   0  0  0  0  0  0  0  0  0  0  0  0
   28.7010   31.6880   38.3080 N   0  0  0  0  0  0  0  0  0  0  0  0
   28.9820   31.8300   36.9800 C   0  0  0  0  0  0  0  0  0  0  0  0
   28.4280   32.4260   36.2640 H   0  0  0  0  0  0  0  0  0  0  0  0
   30.1000   31.0760   36.7100 C   0  0  0  0  0  0  0  0  0  0  0  0
   30.8180   30.8490   35.5540 C   0  0  0  0  0  3  0  0  0  0  0  0
  2  1  1  0  0  0  0
  2  3  1  0  0  0  0
  3 15  1  0  0  0  0
  4  3  2  0  0  0  0
  4  8  1  0  0  0  0
  5  4  1  0  0  0  0
  6  7  1  0  0  0  0
  6  5  2  0  0  0  0
  7  2  2  0  0  0  0
  9  5  1  0  0  0  0
 10  6  1  0  0  0  0
 11 17  1  0  0  0  0
 12 11  1  0  0  0  0
 12 18  1  0  0  0  0
 13 12  2  0  0  0  0
 14 15  2  0  0  0  0
 14 13  1  0  0  0  0
 15 16  1  0  0  0  0
 16 11  2  0  0  0  0
 19 13  1  0  0  0  0
 20 24  1  0  0  0  0
 20  7  1  0  0  0  0
 21 20  2  0  0  0  0
 22 21  1  0  0  0  0
 22 23  1  0  0  0  0
 23 27  1  0  0  0  0
 23 24  2  0  0  0  0
 25 21  1  0  0  0  0
 26 37  2  0  0  0  0
 26 27  1  0  0  0  0
 27 28  2  0  0  0  0
 28 29  1  0  0  0  0
 30 28  1  0  0  0  0
 30 31  1  0  0  0  0
 31 32  1  0  0  0  0
 33 31  1  0  0  0  0
 34 33  2  0  0  0  0
 35 34  1  0  0  0  0
 36 34  1  0  0  0  0
 36 30  2  0  0  0  0
 37 36  1  0  0  0  0
M  END
>  <minimizedAffinity>
-6.03397179

$$$$

 OpenBabel03242511303D

 37 41  0  0  0  0  0  0  0  0999 V2000
   41.2140   30.3930   39.2480 Cl  0  0  0  0  0  0  0  0  0  0  0  0
   40.9080   32.0710   39.4960 C   0  0  0  0  0  0  0  0  0  0  0  0
   41.8940   32.9960   39.2300 C   0  0  0  0  0  0  0  0  0  0  0  0
   41.6930   34.3690   39.4170 C   0  0  0  0  0  0  0  0  0  0  0  0
   40.4500   34.7230   39.8840 C   0  0  0  0  0  0  0  0  0  0  0  0
   39.4780   33.8240   40.1470 C   0  0  0  0  0  0  0  0  0  0  0  0
   39.6830   32.4810   39.9610 C   0  0  0  0  0  0  0  0  0  0  0  0
   42.5140   35.0160   39.1840 H   0  0  0  0  0  0  0  0  0  0  0  0
   40.3240   35.8020   40.0200 H   0  0  0  0  0  0  0  0  0  0  0  0
   38.5380   34.2320   40.5130 H   0  0  0  0  0  0  0  0  0  0  0  0
   44.5890   31.9120   36.9500 C   0  0  0  0  0  0  0  0  0  0  0  0
   45.6490   31.6680   37.8410 C   0  0  0  0  0  0  0  0  0  0  0  0
   45.4380   31.8720   39.1840 C   0  0  0  0  0  0  0  0  0  0  0  0
   44.2170   32.2990   39.5910 N   0  0  0  0  0  0  0  0  0  0  0  0
   43.1920   32.5350   38.7340 C   0  0  0  0  0  0  0  0  0  0  0  0
   43.3960   32.3360   37.4140 N   0  0  0  0  0  0  0  0  0  0  0  0
   44.7850   31.7440   35.9000 H   0  0  0  0  0  0  0  0  0  0  0  0
   46.6190   31.3340   37.5700 H   0  0  0  0  0  0  0  0  0  0  0  0
   46.1050   31.7440   40.0030 H   0  0  0  0  0  0  0  0  0  0  0  0
   38.5410   31.6180   40.2900 C   0  0  0  0  0  0  0  0  0  0  0  0
   37.2640   32.1740   40.2730 C   0  0  0  0  0  0  0  0  0  0  0  0
   36.1930   30.7420   40.7470 S   0  0  0  0  0  0  0  0  0  0  0  0
   37.7140   29.6300   40.8830 C   0  0  0  0  0  0  0  0  0  0  0  0
   38.5230   30.3590   40.6160 N   0  0  0  0  0  0  0  0  0  0  0  0
   36.9120   33.1860   40.0480 H   0  0  0  0  0  0  0  0  0  0  0  0
   36.9290   27.9440   42.4380 C   0  0  0  0  0  3  0  0  0  0  0  0
   37.6170   28.1780   41.2650 C   0  0  0  0  0  0  0  0  0  0  0  0
   38.2020   27.2370   40.4430 C   0  0  0  0  0  0  0  0  0  0  0  0
   38.7200   27.5370   39.5430 H   0  0  0  0  0  0  0  0  0  0  0  0
   38.0790   25.9240   40.8490 C   0  0  0  0  0  0  0  0  0  0  0  0
   38.5120   24.7690   40.3120 N   0  0  0  0  0  0  0  0  0  0  0  0
   39.0580   24.6780   39.4230 H   0  0  0  0  0  0  0  0  0  0  0  0
   38.1410   23.7420   41.0820 N   0  0  0  0  0  0  0  0  0  0  0  0
   37.4500   24.2410   42.1470 C   0  0  0  0  0  0  0  0  0  0  0  0
   37.0130   23.6680   42.9570 H   0  0  0  0  0  0  0  0  0  0  0  0
   37.4060   25.6090   42.0100 C   0  0  0  0  0  0  0  0  0  0  0  0
   36.8470   26.6090   42.7780 C   0  0  0  0  0  3  0  0  0  0  0  0
  1  2  1  0  0  0  0
  2  7  1  0  0  0  0
  3  4  1  0  0  0  0
  3  2  2  0  0  0  0
  4  5  2  0  0  0  0
  5  9  1  0  0  0  0
  5  6  1  0  0  0  0
  6 10  1  0  0  0  0
  7  6  2  0  0  0  0
  7 20  1  0  0  0  0
  8  4  1  0  0  0  0
 11 16  2  0  0  0  0
 11 12  1  0  0  0  0
 12 13  2  0  0  0  0
 13 14  1  0  0  0  0
 13 19  1  0  0  0  0
 15  3  1  0  0  0  0
 15 14  2  0  0  0  0
 16 15  1  0  0  0  0
 17 11  1  0  0  0  0
 18 12  1  0  0  0  0
 20 24  1  0  0  0  0
 21 20  2  0  0  0  0
 21 22  1  0  0  0  0
 22 23  1  0  0  0  0
 23 27  1  0  0  0  0
 24 23  2  0  0  0  0
 25 21  1  0  0  0  0
 26 37  1  0  0  0  0
 27 26  2  0  0  0  0
 28 30  2  0  0  0  0
 28 27  1  0  0  0  0
 29 28  1  0  0  0  0
 30 36  1  0  0  0  0
 31 30  1  0  0  0  0
 31 33  1  0  0  0  0
 32 31  1  0  0  0  0
 33 34  2  0  0  0  0
 34 35  1  0  0  0  0
 36 34  1  0  0  0  0
 36 37  2  0  0  0  0
M  END
>  <minimizedAffinity>
-5.97427177

$$$$

 OpenBabel03242511303D

 37 41  0  0  0  0  0  0  0  0999 V2000
   41.3670   30.9330   38.7580 Cl  0  0  0  0  0  0  0  0  0  0  0  0
   40.6600   32.4000   39.3250 C   0  0  0  0  0  0  0  0  0  0  0  0
   41.4500   33.5110   39.5210 C   0  0  0  0  0  0  0  0  0  0  0  0
   40.9220   34.7240   39.9810 C   0  0  0  0  0  0  0  0  0  0  0  0
   39.5690   34.7230   40.2210 C   0  0  0  0  0  0  0  0  0  0  0  0
   38.7880   33.6390   40.0320 C   0  0  0  0  0  0  0  0  0  0  0  0
   39.3120   32.4550   39.5810 C   0  0  0  0  0  0  0  0  0  0  0  0
   41.6080   35.5370   40.1040 H   0  0  0  0  0  0  0  0  0  0  0  0
   39.1870   35.6840   40.5790 H   0  0  0  0  0  0  0  0  0  0  0  0
   37.7320   33.7670   40.2590 H   0  0  0  0  0  0  0  0  0  0  0  0
   45.0870   33.0620   39.9730 C   0  0  0  0  0  0  0  0  0  0  0  0
   45.5760   33.2820   38.6720 C   0  0  0  0  0  0  0  0  0  0  0  0
   44.6770   33.5760   37.6740 C   0  0  0  0  0  0  0  0  0  0  0  0
   43.3590   33.6410   37.9870 N   0  0  0  0  0  0  0  0  0  0  0  0
   42.8840   33.4290   39.2400 C   0  0  0  0  0  0  0  0  0  0  0  0
   43.7650   33.1400   40.2230 N   0  0  0  0  0  0  0  0  0  0  0  0
   45.8170   32.8330   40.7370 H   0  0  0  0  0  0  0  0  0  0  0  0
   46.5950   33.2430   38.3810 H   0  0  0  0  0  0  0  0  0  0  0  0
   44.8480   33.7720   36.6430 H   0  0  0  0  0  0  0  0  0  0  0  0
   38.3480   31.3580   39.4230 C   0  0  0  0  0  0  0  0  0  0  0  0
   37.3000   31.5230   38.5220 C   0  0  0  0  0  0  0  0  0  0  0  0
   36.3780   29.9260   38.6760 S   0  0  0  0  0  0  0  0  0  0  0  0
   37.6180   29.3180   39.9640 C   0  0  0  0  0  0  0  0  0  0  0  0
   38.3060   30.2020   40.0180 N   0  0  0  0  0  0  0  0  0  0  0  0
   37.0280   32.3540   37.8620 H   0  0  0  0  0  0  0  0  0  0  0  0
   37.2080   28.0010   41.9580 C   0  0  0  0  0  3  0  0  0  0  0  0
   37.5070   27.9650   40.6120 C   0  0  0  0  0  0  0  0  0  0  0  0
   37.7060   26.8410   39.8360 C   0  0  0  0  0  0  0  0  0  0  0  0
   37.9380   26.9320   38.7840 H   0  0  0  0  0  0  0  0  0  0  0  0
   37.5910   25.6310   40.4880 C   0  0  0  0  0  0  0  0  0  0  0  0
   37.7160   24.3600   40.0620 N   0  0  0  0  0  0  0  0  0  0  0  0
   37.9400   24.0660   39.0830 H   0  0  0  0  0  0  0  0  0  0  0  0
   37.5110   23.5180   41.0790 N   0  0  0  0  0  0  0  0  0  0  0  0
   37.2450   24.2590   42.1940 C   0  0  0  0  0  0  0  0  0  0  0  0
   37.0340   23.8750   43.1860 H   0  0  0  0  0  0  0  0  0  0  0  0
   37.2930   25.5840   41.8330 C   0  0  0  0  0  0  0  0  0  0  0  0
   37.1080   26.7540   42.5410 C   0  0  0  0  0  3  0  0  0  0  0  0
  1  2  1  0  0  0  0
  2  3  2  0  0  0  0
  2  7  1  0  0  0  0
  3  4  1  0  0  0  0
  4  8  1  0  0  0  0
  4  5  2  0  0  0  0
  5  9  1  0  0  0  0
  6  5  1  0  0  0  0
  6 10  1  0  0  0  0
  7  6  2  0  0  0  0
 11 16  1  0  0  0  0
 11 17  1  0  0  0  0
 12 11  2  0  0  0  0
 13 14  2  0  0  0  0
 13 12  1  0  0  0  0
 14 15  1  0  0  0  0
 15  3  1  0  0  0  0
 15 16  2  0  0  0  0
 18 12  1  0  0  0  0
 19 13  1  0  0  0  0
 20  7  1  0  0  0  0
 20 24  1  0  0  0  0
 21 22  1  0  0  0  0
 21 20  2  0  0  0  0
 22 23  1  0  0  0  0
 23 24  2  0  0  0  0
 23 27  1  0  0  0  0
 25 21  1  0  0  0  0
 26 37  1  0  0  0  0
 27 26  2  0  0  0  0
 28 30  2  0  0  0  0
 28 27  1  0  0  0  0
 29 28  1  0  0  0  0
 30 36  1  0  0  0  0
 31 30  1  0  0  0  0
 31 33  1  0  0  0  0
 32 31  1  0  0  0  0
 33 34  2  0  0  0  0
 34 35  1  0  0  0  0
 36 34  1  0  0  0  0
 36 37  2  0  0  0  0
M  END
>  <minimizedAffinity>
-5.97034931

$$$$

 OpenBabel03242511303D

 37 41  0  0  0  0  0  0  0  0999 V2000
   40.3910   30.8620   39.0090 Cl  0  0  0  0  0  0  0  0  0  0  0  0
   39.6780   32.3560   39.4900 C   0  0  0  0  0  0  0  0  0  0  0  0
   40.4570   33.4880   39.5930 C   0  0  0  0  0  0  0  0  0  0  0  0
   39.9230   34.7220   39.9810 C   0  0  0  0  0  0  0  0  0  0  0  0
   38.5760   34.7230   40.2490 C   0  0  0  0  0  0  0  0  0  0  0  0
   37.8040   33.6190   40.1500 C   0  0  0  0  0  0  0  0  0  0  0  0
   38.3350   32.4130   39.7700 C   0  0  0  0  0  0  0  0  0  0  0  0
   40.6010   35.5500   40.0350 H   0  0  0  0  0  0  0  0  0  0  0  0
   38.1890   35.7010   40.5490 H   0  0  0  0  0  0  0  0  0  0  0  0
   36.7510   33.7510   40.3910 H   0  0  0  0  0  0  0  0  0  0  0  0
   44.0980   33.0110   39.9810 C   0  0  0  0  0  0  0  0  0  0  0  0
   44.5680   33.2520   38.6770 C   0  0  0  0  0  0  0  0  0  0  0  0
   43.6550   33.5670   37.6980 C   0  0  0  0  0  0  0  0  0  0  0  0
   42.3430   33.6340   38.0320 N   0  0  0  0  0  0  0  0  0  0  0  0
   41.8860   33.4020   39.2890 C   0  0  0  0  0  0  0  0  0  0  0  0
   42.7800   33.0920   40.2530 N   0  0  0  0  0  0  0  0  0  0  0  0
   44.8390   32.7650   40.7290 H   0  0  0  0  0  0  0  0  0  0  0  0
   45.5820   33.2120   38.3680 H   0  0  0  0  0  0  0  0  0  0  0  0
   43.8110   33.7800   36.6680 H   0  0  0  0  0  0  0  0  0  0  0  0
   37.3810   31.2970   39.7070 C   0  0  0  0  0  0  0  0  0  0  0  0
   36.9340   30.7400   40.9010 C   0  0  0  0  0  0  0  0  0  0  0  0
   35.7910   29.4050   40.3230 S   0  0  0  0  0  0  0  0  0  0  0  0
   36.1420   29.8650   38.5250 C   0  0  0  0  0  0  0  0  0  0  0  0
   36.8630   30.7110   38.6670 N   0  0  0  0  0  0  0  0  0  0  0  0
   37.1590   30.9770   41.9470 H   0  0  0  0  0  0  0  0  0  0  0  0
   34.1270   29.0770   37.4300 C   0  0  0  0  0  3  0  0  0  0  0  0
   35.5030   29.1410   37.3700 C   0  0  0  0  0  0  0  0  0  0  0  0
   36.3170   28.6200   36.3850 C   0  0  0  0  0  0  0  0  0  0  0  0
   37.3910   28.7300   36.4410 H   0  0  0  0  0  0  0  0  0  0  0  0
   35.6710   27.9680   35.3550 C   0  0  0  0  0  0  0  0  0  0  0  0
   36.1290   27.3510   34.2490 N   0  0  0  0  0  0  0  0  0  0  0  0
   37.1350   27.2620   33.9750 H   0  0  0  0  0  0  0  0  0  0  0  0
   35.1050   26.8630   33.5440 N   0  0  0  0  0  0  0  0  0  0  0  0
   33.9520   27.1700   34.2060 C   0  0  0  0  0  0  0  0  0  0  0  0
   32.9440   26.9150   33.8960 H   0  0  0  0  0  0  0  0  0  0  0  0
   34.2970   27.8620   35.3420 C   0  0  0  0  0  0  0  0  0  0  0  0
   33.5530   28.4110   36.3660 C   0  0  0  0  0  3  0  0  0  0  0  0
  1  2  1  0  0  0  0
  2  3  2  0  0  0  0
  2  7  1  0  0  0  0
  3  4  1  0  0  0  0
  4  8  1  0  0  0  0
  4  5  2  0  0  0  0
  5  9  1  0  0  0  0
  6  5  1  0  0  0  0
  6 10  1  0  0  0  0
  7  6  2  0  0  0  0
 11 16  1  0  0  0  0
 11 17  1  0  0  0  0
 12 11  2  0  0  0  0
 13 14  2  0  0  0  0
 13 12  1  0  0  0  0
 14 15  1  0  0  0  0
 15  3  1  0  0  0  0
 15 16  2  0  0  0  0
 18 12  1  0  0  0  0
 19 13  1  0  0  0  0
 20  7  1  0  0  0  0
 20 21  2  0  0  0  0
 21 25  1  0  0  0  0
 22 21  1  0  0  0  0
 23 24  2  0  0  0  0
 23 22  1  0  0  0  0
 24 20  1  0  0  0  0
 27 26  1  0  0  0  0
 27 23  1  0  0  0  0
 28 29  1  0  0  0  0
 28 27  2  0  0  0  0
 30 28  1  0  0  0  0
 31 30  1  0  0  0  0
 32 31  1  0  0  0  0
 33 34  2  0  0  0  0
 33 31  1  0  0  0  0
 34 36  1  0  0  0  0
 35 34  1  0  0  0  0
 36 30  2  0  0  0  0
 36 37  1  0  0  0  0
 37 26  2  0  0  0  0
M  END
>  <minimizedAffinity>
-5.76766872

$$$$
