
 OpenBabel03252501263D

 38 42  0  0  0  0  0  0  0  0999 V2000
   37.3680   27.8410   39.7430 F   0  0  0  0  0  0  0  0  0  0  0  0
   37.2880   27.7860   41.0760 C   0  0  0  0  0  0  0  0  0  0  0  0
   37.3170   28.9460   41.8090 C   0  0  0  0  0  0  0  0  0  0  0  0
   37.2340   28.9100   43.1990 C   0  0  0  0  0  0  0  0  0  0  0  0
   37.1230   27.7290   43.8920 C   0  0  0  0  0  0  0  0  0  0  0  0
   37.0960   26.5890   43.1490 C   0  0  0  0  0  0  0  0  0  0  0  0
   37.1750   26.5890   41.7690 C   0  0  0  0  0  0  0  0  0  0  0  0
   37.2550   29.8300   43.8000 H   0  0  0  0  0  0  0  0  0  0  0  0
   37.0570   27.6780   44.9730 H   0  0  0  0  0  0  0  0  0  0  0  0
   37.0080   25.6160   43.6530 H   0  0  0  0  0  0  0  0  0  0  0  0
   36.3650   25.2570   39.8980 C   0  0  0  0  0  3  0  0  0  0  0  0
   37.1410   25.3210   41.0490 C   0  0  0  0  0  0  0  0  0  0  0  0
   37.8090   24.1580   41.3990 C   0  0  0  0  0  0  0  0  0  0  0  0
   38.4060   24.2360   42.3010 H   0  0  0  0  0  0  0  0  0  0  0  0
   37.6920   23.0220   40.6320 C   0  0  0  0  0  0  0  0  0  0  0  0
   38.2500   21.7980   40.7900 N   0  0  0  0  0  0  0  0  0  0  0  0
   38.8890   21.5210   41.5650 H   0  0  0  0  0  0  0  0  0  0  0  0
   37.8590   21.0110   39.8120 N   0  0  0  0  0  0  0  0  0  0  0  0
   37.0400   21.6840   38.9860 C   0  0  0  0  0  0  0  0  0  0  0  0
   36.5290   21.3520   38.0750 H   0  0  0  0  0  0  0  0  0  0  0  0
   36.9230   22.9680   39.4950 C   0  0  0  0  0  0  0  0  0  0  0  0
   36.2480   24.1150   39.1280 C   0  0  0  0  0  3  0  0  0  0  0  0
   38.3790   32.1290   40.7200 C   0  0  0  0  0  0  0  0  0  0  0  0
   37.0910   32.1110   40.2300 C   0  0  0  0  0  0  0  0  0  0  0  0
   36.5030   30.9300   40.5600 C   0  0  0  0  0  0  0  0  0  0  0  0
   37.4260   30.2270   41.2480 N   0  0  0  0  0  0  0  0  0  0  0  0
   38.5470   30.9530   41.3400 N   0  0  0  0  0  0  0  0  0  0  0  0
   36.6440   32.9160   39.6780 H   0  0  0  0  0  0  0  0  0  0  0  0
   35.4810   30.6060   40.3180 H   0  0  0  0  0  0  0  0  0  0  0  0
   39.7680   35.4730   40.1910 C   0  0  0  0  0  0  0  0  0  0  0  0
   41.1450   35.2530   40.2970 C   0  0  0  0  0  0  0  0  0  0  0  0
   41.5950   33.9590   40.5480 C   0  0  0  0  0  0  0  0  0  0  0  0
   40.6430   33.0020   40.6730 N   0  0  0  0  0  0  0  0  0  0  0  0
   39.3200   33.2160   40.5720 C   0  0  0  0  0  0  0  0  0  0  0  0
   38.8770   34.4670   40.3270 N   0  0  0  0  0  0  0  0  0  0  0  0
   39.4720   36.4980   39.9940 H   0  0  0  0  0  0  0  0  0  0  0  0
   41.9080   35.9920   40.2020 H   0  0  0  0  0  0  0  0  0  0  0  0
   42.6180   33.6250   40.6570 H   0  0  0  0  0  0  0  0  0  0  0  0
  1  2  1  0  0  0  0
  2  7  2  0  0  0  0
  2  3  1  0  0  0  0
  3  4  2  0  0  0  0
  4  8  1  0  0  0  0
  4  5  1  0  0  0  0
  5  9  1  0  0  0  0
  6 10  1  0  0  0  0
  6  5  2  0  0  0  0
  7  6  1  0  0  0  0
 11 12  1  0  0  0  0
 12 13  2  0  0  0  0
 12  7  1  0  0  0  0
 13 14  1  0  0  0  0
 15 16  1  0  0  0  0
 15 13  1  0  0  0  0
 16 17  1  0  0  0  0
 18 16  1  0  0  0  0
 19 21  1  0  0  0  0
 19 18  2  0  0  0  0
 20 19  1  0  0  0  0
 21 15  2  0  0  0  0
 22 21  1  0  0  0  0
 22 11  2  0  0  0  0
 23 27  2  0  0  0  0
 24 25  2  0  0  0  0
 24 23  1  0  0  0  0
 25 26  1  0  0  0  0
 26 27  1  0  0  0  0
 26  3  1  0  0  0  0
 28 24  1  0  0  0  0
 29 25  1  0  0  0  0
 30 31  2  0  0  0  0
 30 35  1  0  0  0  0
 31 32  1  0  0  0  0
 32 38  1  0  0  0  0
 32 33  2  0  0  0  0
 34 33  1  0  0  0  0
 34 23  1  0  0  0  0
 35 34  2  0  0  0  0
 36 30  1  0  0  0  0
 37 31  1  0  0  0  0
M  END
>  <minimizedAffinity>
-7.38168669

$$$$

 OpenBabel03252501263D

 38 42  0  0  0  0  0  0  0  0999 V2000
   39.1690   27.3320   40.5890 F   0  0  0  0  0  0  0  0  0  0  0  0
   38.3890   27.4400   41.6700 C   0  0  0  0  0  0  0  0  0  0  0  0
   38.4730   28.5580   42.4620 C   0  0  0  0  0  0  0  0  0  0  0  0
   37.6700   28.6900   43.5910 C   0  0  0  0  0  0  0  0  0  0  0  0
   36.7690   27.7210   43.9630 C   0  0  0  0  0  0  0  0  0  0  0  0
   36.6990   26.6200   43.1670 C   0  0  0  0  0  0  0  0  0  0  0  0
   37.4820   26.4560   42.0380 C   0  0  0  0  0  0  0  0  0  0  0  0
   37.7250   29.5800   44.2350 H   0  0  0  0  0  0  0  0  0  0  0  0
   36.1340   27.8040   44.8370 H   0  0  0  0  0  0  0  0  0  0  0  0
   35.9950   25.8130   43.4170 H   0  0  0  0  0  0  0  0  0  0  0  0
   36.5510   25.3090   40.1020 C   0  0  0  0  0  3  0  0  0  0  0  0
   37.3450   25.2440   41.2400 C   0  0  0  0  0  0  0  0  0  0  0  0
   37.9320   24.0150   41.5040 C   0  0  0  0  0  0  0  0  0  0  0  0
   38.5460   23.9920   42.3970 H   0  0  0  0  0  0  0  0  0  0  0  0
   37.7220   22.9420   40.6680 C   0  0  0  0  0  0  0  0  0  0  0  0
   38.1920   21.6740   40.7380 N   0  0  0  0  0  0  0  0  0  0  0  0
   38.8200   21.3030   41.4830 H   0  0  0  0  0  0  0  0  0  0  0  0
   37.7320   20.9820   39.7200 N   0  0  0  0  0  0  0  0  0  0  0  0
   36.9520   21.7640   38.9540 C   0  0  0  0  0  0  0  0  0  0  0  0
   36.4050   21.5280   38.0320 H   0  0  0  0  0  0  0  0  0  0  0  0
   36.9350   23.0180   39.5450 C   0  0  0  0  0  0  0  0  0  0  0  0
   36.3410   24.2310   39.2630 C   0  0  0  0  0  3  0  0  0  0  0  0
   39.9560   31.6160   41.5170 C   0  0  0  0  0  0  0  0  0  0  0  0
   41.0430   30.9650   42.0610 C   0  0  0  0  0  0  0  0  0  0  0  0
   40.6580   29.7350   42.4920 C   0  0  0  0  0  0  0  0  0  0  0  0
   39.3420   29.6310   42.2150 N   0  0  0  0  0  0  0  0  0  0  0  0
   38.9290   30.7630   41.6300 N   0  0  0  0  0  0  0  0  0  0  0  0
   42.0290   31.3850   42.1220 H   0  0  0  0  0  0  0  0  0  0  0  0
   41.2870   28.9710   42.9710 H   0  0  0  0  0  0  0  0  0  0  0  0
   38.8440   34.8820   40.2950 C   0  0  0  0  0  0  0  0  0  0  0  0
   40.0380   35.4730   39.8720 C   0  0  0  0  0  0  0  0  0  0  0  0
   41.2220   34.7520   40.0050 C   0  0  0  0  0  0  0  0  0  0  0  0
   41.1180   33.5130   40.5450 N   0  0  0  0  0  0  0  0  0  0  0  0
   39.9690   32.9460   40.9520 C   0  0  0  0  0  0  0  0  0  0  0  0
   38.8170   33.6390   40.8250 N   0  0  0  0  0  0  0  0  0  0  0  0
   37.9510   35.4860   40.1690 H   0  0  0  0  0  0  0  0  0  0  0  0
   40.1400   36.4460   39.4470 H   0  0  0  0  0  0  0  0  0  0  0  0
   42.2200   35.0640   39.7290 H   0  0  0  0  0  0  0  0  0  0  0  0
  1  2  1  0  0  0  0
  2  7  2  0  0  0  0
  2  3  1  0  0  0  0
  3  4  2  0  0  0  0
  4  5  1  0  0  0  0
  4  8  1  0  0  0  0
  5  9  1  0  0  0  0
  6 10  1  0  0  0  0
  6  5  2  0  0  0  0
  7  6  1  0  0  0  0
 11 12  1  0  0  0  0
 12 13  2  0  0  0  0
 12  7  1  0  0  0  0
 13 14  1  0  0  0  0
 15 16  1  0  0  0  0
 15 13  1  0  0  0  0
 16 17  1  0  0  0  0
 18 16  1  0  0  0  0
 19 21  1  0  0  0  0
 19 18  2  0  0  0  0
 20 19  1  0  0  0  0
 21 15  2  0  0  0  0
 22 21  1  0  0  0  0
 22 11  2  0  0  0  0
 23 27  2  0  0  0  0
 23 24  1  0  0  0  0
 24 28  1  0  0  0  0
 24 25  2  0  0  0  0
 25 29  1  0  0  0  0
 26  3  1  0  0  0  0
 26 25  1  0  0  0  0
 27 26  1  0  0  0  0
 30 35  1  0  0  0  0
 31 32  1  0  0  0  0
 31 30  2  0  0  0  0
 32 33  2  0  0  0  0
 33 34  1  0  0  0  0
 34 23  1  0  0  0  0
 35 34  2  0  0  0  0
 36 30  1  0  0  0  0
 37 31  1  0  0  0  0
 38 32  1  0  0  0  0
M  END
>  <minimizedAffinity>
-7.17593718

$$$$

 OpenBabel03252501263D

 38 42  0  0  0  0  0  0  0  0999 V2000
   37.5790   27.7900   39.8990 F   0  0  0  0  0  0  0  0  0  0  0  0
   37.4840   27.8270   41.2320 C   0  0  0  0  0  0  0  0  0  0  0  0
   37.4290   29.0370   41.8780 C   0  0  0  0  0  0  0  0  0  0  0  0
   37.3290   29.0960   43.2660 C   0  0  0  0  0  0  0  0  0  0  0  0
   37.2830   27.9630   44.0430 C   0  0  0  0  0  0  0  0  0  0  0  0
   37.3380   26.7730   43.3860 C   0  0  0  0  0  0  0  0  0  0  0  0
   37.4370   26.6780   42.0100 C   0  0  0  0  0  0  0  0  0  0  0  0
   37.2840   30.0570   43.7980 H   0  0  0  0  0  0  0  0  0  0  0  0
   37.2050   27.9870   45.1240 H   0  0  0  0  0  0  0  0  0  0  0  0
   37.3040   25.8360   43.9580 H   0  0  0  0  0  0  0  0  0  0  0  0
   38.6470   24.6120   41.5660 C   0  0  0  0  0  3  0  0  0  0  0  0
   37.4920   25.3620   41.3840 C   0  0  0  0  0  0  0  0  0  0  0  0
   36.4990   24.7740   40.6170 C   0  0  0  0  0  0  0  0  0  0  0  0
   35.6080   25.3810   40.4910 H   0  0  0  0  0  0  0  0  0  0  0  0
   36.6750   23.5200   40.0790 C   0  0  0  0  0  0  0  0  0  0  0  0
   35.8460   22.7720   39.3120 N   0  0  0  0  0  0  0  0  0  0  0  0
   34.8950   23.0570   38.9970 H   0  0  0  0  0  0  0  0  0  0  0  0
   36.4300   21.6300   39.0250 N   0  0  0  0  0  0  0  0  0  0  0  0
   37.6500   21.5880   39.5880 C   0  0  0  0  0  0  0  0  0  0  0  0
   38.4120   20.8000   39.5620 H   0  0  0  0  0  0  0  0  0  0  0  0
   37.8220   22.7860   40.2640 C   0  0  0  0  0  0  0  0  0  0  0  0
   38.8240   23.3520   41.0250 C   0  0  0  0  0  3  0  0  0  0  0  0
   38.3360   32.1470   40.4840 C   0  0  0  0  0  0  0  0  0  0  0  0
   37.0070   32.0860   40.1240 C   0  0  0  0  0  0  0  0  0  0  0  0
   36.4700   30.9260   40.5860 C   0  0  0  0  0  0  0  0  0  0  0  0
   37.4660   30.2770   41.2260 N   0  0  0  0  0  0  0  0  0  0  0  0
   38.5800   31.0160   41.1600 N   0  0  0  0  0  0  0  0  0  0  0  0
   36.4970   32.8490   39.5660 H   0  0  0  0  0  0  0  0  0  0  0  0
   35.4350   30.5780   40.4670 H   0  0  0  0  0  0  0  0  0  0  0  0
   39.8600   35.4720   40.3470 C   0  0  0  0  0  0  0  0  0  0  0  0
   40.9940   35.2570   39.5580 C   0  0  0  0  0  0  0  0  0  0  0  0
   41.2340   33.9730   39.0740 C   0  0  0  0  0  0  0  0  0  0  0  0
   40.3320   33.0200   39.4140 N   0  0  0  0  0  0  0  0  0  0  0  0
   39.2430   33.2290   40.1730 C   0  0  0  0  0  0  0  0  0  0  0  0
   39.0030   34.4710   40.6450 N   0  0  0  0  0  0  0  0  0  0  0  0
   39.7200   36.4890   40.6980 H   0  0  0  0  0  0  0  0  0  0  0  0
   41.7140   35.9920   39.2810 H   0  0  0  0  0  0  0  0  0  0  0  0
   42.0590   33.6430   38.4560 H   0  0  0  0  0  0  0  0  0  0  0  0
  1  2  1  0  0  0  0
  2  3  2  0  0  0  0
  2  7  1  0  0  0  0
  3  4  1  0  0  0  0
  4  8  1  0  0  0  0
  4  5  2  0  0  0  0
  5  9  1  0  0  0  0
  6 10  1  0  0  0  0
  6  5  1  0  0  0  0
  7  6  2  0  0  0  0
 12 11  1  0  0  0  0
 12  7  1  0  0  0  0
 13 12  2  0  0  0  0
 14 13  1  0  0  0  0
 15 21  2  0  0  0  0
 15 13  1  0  0  0  0
 16 15  1  0  0  0  0
 17 16  1  0  0  0  0
 18 16  1  0  0  0  0
 18 19  2  0  0  0  0
 19 21  1  0  0  0  0
 20 19  1  0  0  0  0
 21 22  1  0  0  0  0
 22 11  2  0  0  0  0
 23 27  2  0  0  0  0
 24 23  1  0  0  0  0
 24 25  2  0  0  0  0
 25 26  1  0  0  0  0
 26  3  1  0  0  0  0
 27 26  1  0  0  0  0
 28 24  1  0  0  0  0
 29 25  1  0  0  0  0
 30 35  1  0  0  0  0
 30 36  1  0  0  0  0
 31 30  2  0  0  0  0
 32 33  2  0  0  0  0
 32 31  1  0  0  0  0
 33 34  1  0  0  0  0
 34 23  1  0  0  0  0
 34 35  2  0  0  0  0
 37 31  1  0  0  0  0
 38 32  1  0  0  0  0
M  END
>  <minimizedAffinity>
-6.92525244

$$$$

 OpenBabel03252501263D

 38 42  0  0  0  0  0  0  0  0999 V2000
   38.0720   28.2680   39.6870 F   0  0  0  0  0  0  0  0  0  0  0  0
   37.9320   28.1140   41.0080 C   0  0  0  0  0  0  0  0  0  0  0  0
   37.7630   26.8570   41.5330 C   0  0  0  0  0  0  0  0  0  0  0  0
   37.6160   26.6760   42.9060 C   0  0  0  0  0  0  0  0  0  0  0  0
   37.6310   27.7310   43.7870 C   0  0  0  0  0  0  0  0  0  0  0  0
   37.7990   28.9690   43.2490 C   0  0  0  0  0  0  0  0  0  0  0  0
   37.9490   29.1850   41.8910 C   0  0  0  0  0  0  0  0  0  0  0  0
   37.4800   25.6760   43.3420 H   0  0  0  0  0  0  0  0  0  0  0  0
   37.5190   27.6110   44.8590 H   0  0  0  0  0  0  0  0  0  0  0  0
   37.8200   29.8480   43.9080 H   0  0  0  0  0  0  0  0  0  0  0  0
   37.0630   31.1200   40.7080 C   0  0  0  0  0  3  0  0  0  0  0  0
   38.1240   30.5450   41.3970 C   0  0  0  0  0  0  0  0  0  0  0  0
   39.2540   31.3350   41.5430 C   0  0  0  0  0  0  0  0  0  0  0  0
   40.0660   30.8620   42.0850 H   0  0  0  0  0  0  0  0  0  0  0  0
   39.2930   32.6100   41.0270 C   0  0  0  0  0  0  0  0  0  0  0  0
   40.2800   33.5360   41.0570 N   0  0  0  0  0  0  0  0  0  0  0  0
   41.2130   33.4100   41.5040 H   0  0  0  0  0  0  0  0  0  0  0  0
   39.8790   34.6220   40.4330 N   0  0  0  0  0  0  0  0  0  0  0  0
   38.6270   34.4470   39.9770 C   0  0  0  0  0  0  0  0  0  0  0  0
   37.9790   35.1320   39.4160 H   0  0  0  0  0  0  0  0  0  0  0  0
   38.2380   33.1690   40.3470 C   0  0  0  0  0  0  0  0  0  0  0  0
   37.1030   32.4010   40.1890 C   0  0  0  0  0  3  0  0  0  0  0  0
   36.8590   23.8860   39.8610 C   0  0  0  0  0  0  0  0  0  0  0  0
   38.1820   23.9930   39.4900 C   0  0  0  0  0  0  0  0  0  0  0  0
   38.7170   25.1080   40.0530 C   0  0  0  0  0  0  0  0  0  0  0  0
   37.7260   25.6840   40.7660 N   0  0  0  0  0  0  0  0  0  0  0  0
   36.6160   24.9450   40.6460 N   0  0  0  0  0  0  0  0  0  0  0  0
   38.6890   23.2920   38.8550 H   0  0  0  0  0  0  0  0  0  0  0  0
   39.7480   25.4750   39.9530 H   0  0  0  0  0  0  0  0  0  0  0  0
   33.7880   22.0240   39.1560 C   0  0  0  0  0  0  0  0  0  0  0  0
   34.2730   20.7990   38.6900 C   0  0  0  0  0  0  0  0  0  0  0  0
   35.6510   20.6120   38.6180 C   0  0  0  0  0  0  0  0  0  0  0  0
   36.4240   21.6540   39.0130 N   0  0  0  0  0  0  0  0  0  0  0  0
   35.9550   22.8320   39.4610 C   0  0  0  0  0  0  0  0  0  0  0  0
   34.6200   23.0190   39.5340 N   0  0  0  0  0  0  0  0  0  0  0  0
   32.7070   22.1170   39.1930 H   0  0  0  0  0  0  0  0  0  0  0  0
   33.6820   19.9690   38.3740 H   0  0  0  0  0  0  0  0  0  0  0  0
   36.1820   19.7310   38.2830 H   0  0  0  0  0  0  0  0  0  0  0  0
  1  2  1  0  0  0  0
  2  3  2  0  0  0  0
  2  7  1  0  0  0  0
  3  4  1  0  0  0  0
  4  8  1  0  0  0  0
  4  5  2  0  0  0  0
  5  9  1  0  0  0  0
  6  5  1  0  0  0  0
  6 10  1  0  0  0  0
  7  6  2  0  0  0  0
 11 12  1  0  0  0  0
 12 13  2  0  0  0  0
 12  7  1  0  0  0  0
 13 14  1  0  0  0  0
 15 16  1  0  0  0  0
 15 13  1  0  0  0  0
 16 17  1  0  0  0  0
 18 16  1  0  0  0  0
 19 21  1  0  0  0  0
 19 18  2  0  0  0  0
 20 19  1  0  0  0  0
 21 15  2  0  0  0  0
 22 21  1  0  0  0  0
 22 11  2  0  0  0  0
 23 27  2  0  0  0  0
 24 23  1  0  0  0  0
 24 25  2  0  0  0  0
 25 26  1  0  0  0  0
 26  3  1  0  0  0  0
 27 26  1  0  0  0  0
 28 24  1  0  0  0  0
 29 25  1  0  0  0  0
 30 36  1  0  0  0  0
 30 35  1  0  0  0  0
 31 30  2  0  0  0  0
 32 31  1  0  0  0  0
 32 33  2  0  0  0  0
 33 34  1  0  0  0  0
 34 35  2  0  0  0  0
 34 23  1  0  0  0  0
 37 31  1  0  0  0  0
 38 32  1  0  0  0  0
M  END
>  <minimizedAffinity>
-6.4302659

$$$$

 OpenBabel03252501263D

 38 42  0  0  0  0  0  0  0  0999 V2000
   38.6610   27.7930   40.1620 F   0  0  0  0  0  0  0  0  0  0  0  0
   38.1260   27.8180   41.3870 C   0  0  0  0  0  0  0  0  0  0  0  0
   38.2160   28.9580   42.1470 C   0  0  0  0  0  0  0  0  0  0  0  0
   37.6650   29.0050   43.4250 C   0  0  0  0  0  0  0  0  0  0  0  0
   37.0170   27.9260   43.9790 C   0  0  0  0  0  0  0  0  0  0  0  0
   36.9380   26.8060   43.2120 C   0  0  0  0  0  0  0  0  0  0  0  0
   37.4730   26.7260   41.9400 C   0  0  0  0  0  0  0  0  0  0  0  0
   37.7280   29.9100   44.0450 H   0  0  0  0  0  0  0  0  0  0  0  0
   36.5810   27.9420   44.9720 H   0  0  0  0  0  0  0  0  0  0  0  0
   36.4290   25.9140   43.6060 H   0  0  0  0  0  0  0  0  0  0  0  0
   36.5720   25.5110   40.0310 C   0  0  0  0  0  3  0  0  0  0  0  0
   37.3450   25.4840   41.1850 C   0  0  0  0  0  0  0  0  0  0  0  0
   37.9200   24.2640   41.5040 C   0  0  0  0  0  0  0  0  0  0  0  0
   38.5180   24.2720   42.4090 H   0  0  0  0  0  0  0  0  0  0  0  0
   37.7210   23.1620   40.7050 C   0  0  0  0  0  0  0  0  0  0  0  0
   38.1830   21.8950   40.8310 N   0  0  0  0  0  0  0  0  0  0  0  0
   38.7960   21.5490   41.6000 H   0  0  0  0  0  0  0  0  0  0  0  0
   37.7380   21.1670   39.8310 N   0  0  0  0  0  0  0  0  0  0  0  0
   36.9760   21.9240   39.0220 C   0  0  0  0  0  0  0  0  0  0  0  0
   36.4450   21.6560   38.1000 H   0  0  0  0  0  0  0  0  0  0  0  0
   36.9550   23.1990   39.5660 C   0  0  0  0  0  0  0  0  0  0  0  0
   36.3720   24.4030   39.2290 C   0  0  0  0  0  3  0  0  0  0  0  0
   40.4600   31.6030   41.5050 C   0  0  0  0  0  0  0  0  0  0  0  0
   39.3420   32.0520   40.8360 C   0  0  0  0  0  0  0  0  0  0  0  0
   38.3420   31.1410   40.9730 C   0  0  0  0  0  0  0  0  0  0  0  0
   38.8450   30.1370   41.7220 N   0  0  0  0  0  0  0  0  0  0  0  0
   40.1140   30.4220   42.0360 N   0  0  0  0  0  0  0  0  0  0  0  0
   39.2920   32.9800   40.2990 H   0  0  0  0  0  0  0  0  0  0  0  0
   37.3260   31.2020   40.5610 H   0  0  0  0  0  0  0  0  0  0  0  0
   43.7870   32.6370   42.6260 C   0  0  0  0  0  0  0  0  0  0  0  0
   44.1210   33.6400   41.7100 C   0  0  0  0  0  0  0  0  0  0  0  0
   43.2060   33.9600   40.7100 C   0  0  0  0  0  0  0  0  0  0  0  0
   42.0450   33.2590   40.7070 N   0  0  0  0  0  0  0  0  0  0  0  0
   41.7260   32.2960   41.5880 C   0  0  0  0  0  0  0  0  0  0  0  0
   42.6070   31.9810   42.5610 N   0  0  0  0  0  0  0  0  0  0  0  0
   44.5340   32.4280   43.3840 H   0  0  0  0  0  0  0  0  0  0  0  0
   45.0280   34.2000   41.6960 H   0  0  0  0  0  0  0  0  0  0  0  0
   43.3100   34.7030   39.9320 H   0  0  0  0  0  0  0  0  0  0  0  0
  1  2  1  0  0  0  0
  2  7  2  0  0  0  0
  2  3  1  0  0  0  0
  3  4  2  0  0  0  0
  4  5  1  0  0  0  0
  4  8  1  0  0  0  0
  5  9  1  0  0  0  0
  6 10  1  0  0  0  0
  6  5  2  0  0  0  0
  7  6  1  0  0  0  0
 11 12  1  0  0  0  0
 12 13  2  0  0  0  0
 12  7  1  0  0  0  0
 13 14  1  0  0  0  0
 15 16  1  0  0  0  0
 15 13  1  0  0  0  0
 16 17  1  0  0  0  0
 18 16  1  0  0  0  0
 19 21  1  0  0  0  0
 19 18  2  0  0  0  0
 20 19  1  0  0  0  0
 21 15  2  0  0  0  0
 22 21  1  0  0  0  0
 22 11  2  0  0  0  0
 23 34  1  0  0  0  0
 23 27  2  0  0  0  0
 24 25  2  0  0  0  0
 24 23  1  0  0  0  0
 25 26  1  0  0  0  0
 26 27  1  0  0  0  0
 26  3  1  0  0  0  0
 28 24  1  0  0  0  0
 29 25  1  0  0  0  0
 30 36  1  0  0  0  0
 31 30  2  0  0  0  0
 32 31  1  0  0  0  0
 33 32  2  0  0  0  0
 33 34  1  0  0  0  0
 34 35  2  0  0  0  0
 35 30  1  0  0  0  0
 37 31  1  0  0  0  0
 38 32  1  0  0  0  0
M  END
>  <minimizedAffinity>
-6.41322231

$$$$

 OpenBabel03252501263D

 38 42  0  0  0  0  0  0  0  0999 V2000
   38.2020   27.9740   39.7830 F   0  0  0  0  0  0  0  0  0  0  0  0
   37.7520   27.8170   41.0320 C   0  0  0  0  0  0  0  0  0  0  0  0
   37.4060   26.5660   41.4790 C   0  0  0  0  0  0  0  0  0  0  0  0
   36.9360   26.3800   42.7760 C   0  0  0  0  0  0  0  0  0  0  0  0
   36.7960   27.4260   43.6580 C   0  0  0  0  0  0  0  0  0  0  0  0
   37.1440   28.6580   43.1980 C   0  0  0  0  0  0  0  0  0  0  0  0
   37.6150   28.8780   41.9160 C   0  0  0  0  0  0  0  0  0  0  0  0
   36.6550   25.3850   43.1490 H   0  0  0  0  0  0  0  0  0  0  0  0
   36.4330   27.3040   44.6710 H   0  0  0  0  0  0  0  0  0  0  0  0
   37.0530   29.5300   43.8610 H   0  0  0  0  0  0  0  0  0  0  0  0
   39.2440   30.6840   41.7980 C   0  0  0  0  0  3  0  0  0  0  0  0
   37.9640   30.2320   41.5030 C   0  0  0  0  0  0  0  0  0  0  0  0
   37.1410   31.1270   40.8370 C   0  0  0  0  0  0  0  0  0  0  0  0
   36.1480   30.7480   40.6190 H   0  0  0  0  0  0  0  0  0  0  0  0
   37.5920   32.3830   40.5020 C   0  0  0  0  0  0  0  0  0  0  0  0
   36.9630   33.3960   39.8610 N   0  0  0  0  0  0  0  0  0  0  0  0
   35.9840   33.3710   39.5070 H   0  0  0  0  0  0  0  0  0  0  0  0
   37.7820   34.4200   39.7560 N   0  0  0  0  0  0  0  0  0  0  0  0
   38.9640   34.1160   40.3180 C   0  0  0  0  0  0  0  0  0  0  0  0
   39.8750   34.7200   40.4150 H   0  0  0  0  0  0  0  0  0  0  0  0
   38.8600   32.8200   40.7990 C   0  0  0  0  0  0  0  0  0  0  0  0
   39.6970   31.9460   41.4610 C   0  0  0  0  0  3  0  0  0  0  0  0
   38.4560   23.8160   39.5350 C   0  0  0  0  0  0  0  0  0  0  0  0
   37.0940   23.6020   39.5620 C   0  0  0  0  0  0  0  0  0  0  0  0
   36.5000   24.5880   40.2850 C   0  0  0  0  0  0  0  0  0  0  0  0
   37.4920   25.4030   40.7010 N   0  0  0  0  0  0  0  0  0  0  0  0
   38.6610   24.9330   40.2460 N   0  0  0  0  0  0  0  0  0  0  0  0
   36.6030   22.7780   39.0790 H   0  0  0  0  0  0  0  0  0  0  0  0
   35.4280   24.7050   40.4940 H   0  0  0  0  0  0  0  0  0  0  0  0
   40.0840   20.9000   38.0370 C   0  0  0  0  0  0  0  0  0  0  0  0
   41.2980   21.4260   37.5840 C   0  0  0  0  0  0  0  0  0  0  0  0
   41.5570   22.7790   37.7930 C   0  0  0  0  0  0  0  0  0  0  0  0
   40.5920   23.4880   38.4300 N   0  0  0  0  0  0  0  0  0  0  0  0
   39.4250   22.9800   38.8640 C   0  0  0  0  0  0  0  0  0  0  0  0
   39.1680   21.6690   38.6660 N   0  0  0  0  0  0  0  0  0  0  0  0
   39.9330   19.8420   37.8500 H   0  0  0  0  0  0  0  0  0  0  0  0
   42.0670   20.8860   37.0820 H   0  0  0  0  0  0  0  0  0  0  0  0
   42.4390   23.3350   37.5070 H   0  0  0  0  0  0  0  0  0  0  0  0
  1  2  1  0  0  0  0
  2  3  2  0  0  0  0
  2  7  1  0  0  0  0
  3  4  1  0  0  0  0
  4  8  1  0  0  0  0
  4  5  2  0  0  0  0
  5  9  1  0  0  0  0
  6  5  1  0  0  0  0
  6 10  1  0  0  0  0
  7  6  2  0  0  0  0
 12 11  1  0  0  0  0
 12  7  1  0  0  0  0
 13 12  2  0  0  0  0
 14 13  1  0  0  0  0
 15 21  2  0  0  0  0
 15 13  1  0  0  0  0
 16 15  1  0  0  0  0
 17 16  1  0  0  0  0
 18 16  1  0  0  0  0
 18 19  2  0  0  0  0
 19 20  1  0  0  0  0
 19 21  1  0  0  0  0
 21 22  1  0  0  0  0
 22 11  2  0  0  0  0
 23 24  1  0  0  0  0
 23 27  2  0  0  0  0
 24 25  2  0  0  0  0
 25 29  1  0  0  0  0
 25 26  1  0  0  0  0
 26  3  1  0  0  0  0
 27 26  1  0  0  0  0
 28 24  1  0  0  0  0
 30 35  1  0  0  0  0
 31 32  1  0  0  0  0
 31 30  2  0  0  0  0
 32 33  2  0  0  0  0
 33 34  1  0  0  0  0
 34 23  1  0  0  0  0
 35 34  2  0  0  0  0
 36 30  1  0  0  0  0
 37 31  1  0  0  0  0
 38 32  1  0  0  0  0
M  END
>  <minimizedAffinity>
-6.34484863

$$$$

 OpenBabel03252501263D

 38 42  0  0  0  0  0  0  0  0999 V2000
   38.2750   27.8280   40.1020 F   0  0  0  0  0  0  0  0  0  0  0  0
   37.7980   27.7520   41.3490 C   0  0  0  0  0  0  0  0  0  0  0  0
   37.4750   26.5280   41.8800 C   0  0  0  0  0  0  0  0  0  0  0  0
   36.9770   26.4260   43.1770 C   0  0  0  0  0  0  0  0  0  0  0  0
   36.7870   27.5310   43.9730 C   0  0  0  0  0  0  0  0  0  0  0  0
   37.1130   28.7350   43.4300 C   0  0  0  0  0  0  0  0  0  0  0  0
   37.6100   28.8710   42.1470 C   0  0  0  0  0  0  0  0  0  0  0  0
   36.7140   25.4550   43.6170 H   0  0  0  0  0  0  0  0  0  0  0  0
   36.4010   27.4740   44.9850 H   0  0  0  0  0  0  0  0  0  0  0  0
   36.9810   29.6510   44.0230 H   0  0  0  0  0  0  0  0  0  0  0  0
   39.2190   30.6770   41.8620 C   0  0  0  0  0  3  0  0  0  0  0  0
   37.9330   30.2000   41.6410 C   0  0  0  0  0  0  0  0  0  0  0  0
   37.0790   31.0490   40.9540 C   0  0  0  0  0  0  0  0  0  0  0  0
   36.0820   30.6520   40.7950 H   0  0  0  0  0  0  0  0  0  0  0  0
   37.5080   32.2850   40.5280 C   0  0  0  0  0  0  0  0  0  0  0  0
   36.8480   33.2540   39.8510 N   0  0  0  0  0  0  0  0  0  0  0  0
   35.8560   33.2020   39.5350 H   0  0  0  0  0  0  0  0  0  0  0  0
   37.6530   34.2750   39.6550 N   0  0  0  0  0  0  0  0  0  0  0  0
   38.8580   34.0120   40.1910 C   0  0  0  0  0  0  0  0  0  0  0  0
   39.7660   34.6260   40.2180 H   0  0  0  0  0  0  0  0  0  0  0  0
   38.7810   32.7470   40.7520 C   0  0  0  0  0  0  0  0  0  0  0  0
   39.6490   31.9190   41.4340 C   0  0  0  0  0  3  0  0  0  0  0  0
   37.0110   23.6210   39.9370 C   0  0  0  0  0  0  0  0  0  0  0  0
   38.3200   23.4540   40.3340 C   0  0  0  0  0  0  0  0  0  0  0  0
   38.6890   24.5040   41.1130 C   0  0  0  0  0  0  0  0  0  0  0  0
   37.6120   25.3130   41.1940 N   0  0  0  0  0  0  0  0  0  0  0  0
   36.6100   24.7760   40.4870 N   0  0  0  0  0  0  0  0  0  0  0  0
   38.9320   22.6160   40.0570 H   0  0  0  0  0  0  0  0  0  0  0  0
   39.6670   24.6700   41.5860 H   0  0  0  0  0  0  0  0  0  0  0  0
   35.9400   20.5830   38.1990 C   0  0  0  0  0  0  0  0  0  0  0  0
   34.8110   21.0150   37.4950 C   0  0  0  0  0  0  0  0  0  0  0  0
   34.4200   22.3460   37.6160 C   0  0  0  0  0  0  0  0  0  0  0  0
   35.1790   23.1290   38.4220 N   0  0  0  0  0  0  0  0  0  0  0  0
   36.2630   22.7110   39.0990 C   0  0  0  0  0  0  0  0  0  0  0  0
   36.6490   21.4230   38.9860 N   0  0  0  0  0  0  0  0  0  0  0  0
   36.2010   19.5390   38.0690 H   0  0  0  0  0  0  0  0  0  0  0  0
   34.2020   20.4160   36.8570 H   0  0  0  0  0  0  0  0  0  0  0  0
   33.5790   22.8340   37.1410 H   0  0  0  0  0  0  0  0  0  0  0  0
  1  2  1  0  0  0  0
  2  3  2  0  0  0  0
  2  7  1  0  0  0  0
  3  4  1  0  0  0  0
  4  8  1  0  0  0  0
  4  5  2  0  0  0  0
  5  9  1  0  0  0  0
  6  5  1  0  0  0  0
  6 10  1  0  0  0  0
  7  6  2  0  0  0  0
 12 11  1  0  0  0  0
 12  7  1  0  0  0  0
 13 12  2  0  0  0  0
 14 13  1  0  0  0  0
 15 21  2  0  0  0  0
 15 13  1  0  0  0  0
 16 15  1  0  0  0  0
 17 16  1  0  0  0  0
 18 16  1  0  0  0  0
 18 19  2  0  0  0  0
 19 20  1  0  0  0  0
 19 21  1  0  0  0  0
 21 22  1  0  0  0  0
 22 11  2  0  0  0  0
 23 24  1  0  0  0  0
 23 27  2  0  0  0  0
 24 25  2  0  0  0  0
 25 26  1  0  0  0  0
 25 29  1  0  0  0  0
 26  3  1  0  0  0  0
 27 26  1  0  0  0  0
 28 24  1  0  0  0  0
 30 35  1  0  0  0  0
 31 32  1  0  0  0  0
 31 30  2  0  0  0  0
 32 33  2  0  0  0  0
 33 34  1  0  0  0  0
 34 23  1  0  0  0  0
 35 34  2  0  0  0  0
 36 30  1  0  0  0  0
 37 31  1  0  0  0  0
 38 32  1  0  0  0  0
M  END
>  <minimizedAffinity>
-6.28102732

$$$$

 OpenBabel03252501263D

 38 42  0  0  0  0  0  0  0  0999 V2000
   39.3130   28.6350   40.4870 F   0  0  0  0  0  0  0  0  0  0  0  0
   38.0650   29.1140   40.4600 C   0  0  0  0  0  0  0  0  0  0  0  0
   37.0120   28.2890   40.7680 C   0  0  0  0  0  0  0  0  0  0  0  0
   35.7050   28.7690   40.7460 C   0  0  0  0  0  0  0  0  0  0  0  0
   35.4110   30.0710   40.4180 C   0  0  0  0  0  0  0  0  0  0  0  0
   36.4670   30.8740   40.1160 C   0  0  0  0  0  0  0  0  0  0  0  0
   37.7770   30.4310   40.1280 C   0  0  0  0  0  0  0  0  0  0  0  0
   34.8510   28.1220   40.9900 H   0  0  0  0  0  0  0  0  0  0  0  0
   34.4020   30.4650   40.3950 H   0  0  0  0  0  0  0  0  0  0  0  0
   36.2900   31.9250   39.8470 H   0  0  0  0  0  0  0  0  0  0  0  0
   39.4450   32.0590   40.8310 C   0  0  0  0  0  3  0  0  0  0  0  0
   38.8510   31.3570   39.7900 C   0  0  0  0  0  0  0  0  0  0  0  0
   39.3460   31.6140   38.5210 C   0  0  0  0  0  0  0  0  0  0  0  0
   38.8640   31.0530   37.7270 H   0  0  0  0  0  0  0  0  0  0  0  0
   40.3680   32.5170   38.3340 C   0  0  0  0  0  0  0  0  0  0  0  0
   40.9900   32.9100   37.1970 N   0  0  0  0  0  0  0  0  0  0  0  0
   40.7720   32.5650   36.2380 H   0  0  0  0  0  0  0  0  0  0  0  0
   41.9140   33.7980   37.4910 N   0  0  0  0  0  0  0  0  0  0  0  0
   41.9290   34.0160   38.8180 C   0  0  0  0  0  0  0  0  0  0  0  0
   42.5610   34.6850   39.4150 H   0  0  0  0  0  0  0  0  0  0  0  0
   40.9490   33.2070   39.3700 C   0  0  0  0  0  0  0  0  0  0  0  0
   40.4720   32.9670   40.6420 C   0  0  0  0  0  3  0  0  0  0  0  0
   37.1600   24.7660   40.8390 C   0  0  0  0  0  0  0  0  0  0  0  0
   37.4730   25.0590   42.1490 C   0  0  0  0  0  0  0  0  0  0  0  0
   37.4650   26.4070   42.3210 C   0  0  0  0  0  0  0  0  0  0  0  0
   37.1490   26.9390   41.1210 N   0  0  0  0  0  0  0  0  0  0  0  0
   36.9680   25.9490   40.2390 N   0  0  0  0  0  0  0  0  0  0  0  0
   37.6850   24.3200   42.8980 H   0  0  0  0  0  0  0  0  0  0  0  0
   37.6730   26.9610   43.2470 H   0  0  0  0  0  0  0  0  0  0  0  0
   35.9590   21.8700   38.9510 C   0  0  0  0  0  0  0  0  0  0  0  0
   36.9370   20.9050   39.2140 C   0  0  0  0  0  0  0  0  0  0  0  0
   38.0050   21.2490   40.0390 C   0  0  0  0  0  0  0  0  0  0  0  0
   38.0100   22.5130   40.5270 N   0  0  0  0  0  0  0  0  0  0  0  0
   37.0700   23.4390   40.2720 C   0  0  0  0  0  0  0  0  0  0  0  0
   36.0300   23.1130   39.4740 N   0  0  0  0  0  0  0  0  0  0  0  0
   35.1490   21.5500   38.3040 H   0  0  0  0  0  0  0  0  0  0  0  0
   36.9510   19.9070   38.8400 H   0  0  0  0  0  0  0  0  0  0  0  0
   38.8360   20.6240   40.3390 H   0  0  0  0  0  0  0  0  0  0  0  0
  2  1  1  0  0  0  0
  2  3  1  0  0  0  0
  3 26  1  0  0  0  0
  4  3  2  0  0  0  0
  4  8  1  0  0  0  0
  5  4  1  0  0  0  0
  6  7  1  0  0  0  0
  6  5  2  0  0  0  0
  7  2  2  0  0  0  0
  9  5  1  0  0  0  0
 10  6  1  0  0  0  0
 12  7  1  0  0  0  0
 12 11  2  0  0  0  0
 13 12  1  0  0  0  0
 14 13  1  0  0  0  0
 15 13  2  0  0  0  0
 15 21  1  0  0  0  0
 16 18  1  0  0  0  0
 16 15  1  0  0  0  0
 17 16  1  0  0  0  0
 18 19  2  0  0  0  0
 19 21  1  0  0  0  0
 19 20  1  0  0  0  0
 21 22  2  0  0  0  0
 22 11  1  0  0  0  0
 23 24  1  0  0  0  0
 24 25  2  0  0  0  0
 24 28  1  0  0  0  0
 25 29  1  0  0  0  0
 26 25  1  0  0  0  0
 27 23  2  0  0  0  0
 27 26  1  0  0  0  0
 30 31  2  0  0  0  0
 30 35  1  0  0  0  0
 31 32  1  0  0  0  0
 32 38  1  0  0  0  0
 32 33  2  0  0  0  0
 34 33  1  0  0  0  0
 34 23  1  0  0  0  0
 35 34  2  0  0  0  0
 36 30  1  0  0  0  0
 37 31  1  0  0  0  0
M  END
>  <minimizedAffinity>
-6.2762723

$$$$

 OpenBabel03252501263D

 38 42  0  0  0  0  0  0  0  0999 V2000
   38.1820   28.2970   39.6360 F   0  0  0  0  0  0  0  0  0  0  0  0
   37.9010   28.1340   40.9330 C   0  0  0  0  0  0  0  0  0  0  0  0
   37.6480   26.8770   41.4220 C   0  0  0  0  0  0  0  0  0  0  0  0
   37.3540   26.6860   42.7700 C   0  0  0  0  0  0  0  0  0  0  0  0
   37.3020   27.7320   43.6600 C   0  0  0  0  0  0  0  0  0  0  0  0
   37.5550   28.9700   43.1570 C   0  0  0  0  0  0  0  0  0  0  0  0
   37.8510   29.1950   41.8260 C   0  0  0  0  0  0  0  0  0  0  0  0
   37.1500   25.6860   43.1770 H   0  0  0  0  0  0  0  0  0  0  0  0
   37.0750   27.6050   44.7130 H   0  0  0  0  0  0  0  0  0  0  0  0
   37.5270   29.8430   43.8260 H   0  0  0  0  0  0  0  0  0  0  0  0
   37.0910   31.2070   40.6820 C   0  0  0  0  0  3  0  0  0  0  0  0
   38.1080   30.5560   41.3690 C   0  0  0  0  0  0  0  0  0  0  0  0
   39.2790   31.2770   41.5500 C   0  0  0  0  0  0  0  0  0  0  0  0
   40.0560   30.7450   42.0890 H   0  0  0  0  0  0  0  0  0  0  0  0
   39.3970   32.5600   41.0670 C   0  0  0  0  0  0  0  0  0  0  0  0
   40.4340   33.4280   41.1330 N   0  0  0  0  0  0  0  0  0  0  0  0
   41.3520   33.2370   41.5880 H   0  0  0  0  0  0  0  0  0  0  0  0
   40.1030   34.5490   40.5330 N   0  0  0  0  0  0  0  0  0  0  0  0
   38.8490   34.4570   40.0570 C   0  0  0  0  0  0  0  0  0  0  0  0
   38.2480   35.1920   39.5060 H   0  0  0  0  0  0  0  0  0  0  0  0
   38.3850   33.1950   40.3890 C   0  0  0  0  0  0  0  0  0  0  0  0
   37.2100   32.4960   40.1970 C   0  0  0  0  0  3  0  0  0  0  0  0
   38.5310   24.0480   39.5080 C   0  0  0  0  0  0  0  0  0  0  0  0
   37.1560   23.9580   39.4750 C   0  0  0  0  0  0  0  0  0  0  0  0
   36.6220   24.9910   40.1780 C   0  0  0  0  0  0  0  0  0  0  0  0
   37.6640   25.7130   40.6410 N   0  0  0  0  0  0  0  0  0  0  0  0
   38.8040   25.1410   40.2350 N   0  0  0  0  0  0  0  0  0  0  0  0
   36.6150   23.1830   38.9660 H   0  0  0  0  0  0  0  0  0  0  0  0
   35.5560   25.2040   40.3410 H   0  0  0  0  0  0  0  0  0  0  0  0
   41.4910   22.7030   37.8280 C   0  0  0  0  0  0  0  0  0  0  0  0
   41.1700   21.3510   37.6770 C   0  0  0  0  0  0  0  0  0  0  0  0
   39.9390   20.9020   38.1500 C   0  0  0  0  0  0  0  0  0  0  0  0
   39.1390   21.8310   38.7300 N   0  0  0  0  0  0  0  0  0  0  0  0
   39.4510   23.1310   38.8750 C   0  0  0  0  0  0  0  0  0  0  0  0
   40.6410   23.5730   38.4170 N   0  0  0  0  0  0  0  0  0  0  0  0
   42.4610   23.0000   37.4420 H   0  0  0  0  0  0  0  0  0  0  0  0
   41.7840   20.6060   37.2250 H   0  0  0  0  0  0  0  0  0  0  0  0
   39.5420   19.8970   38.1110 H   0  0  0  0  0  0  0  0  0  0  0  0
  1  2  1  0  0  0  0
  2  3  2  0  0  0  0
  2  7  1  0  0  0  0
  3  4  1  0  0  0  0
  4  8  1  0  0  0  0
  4  5  2  0  0  0  0
  5  9  1  0  0  0  0
  6  5  1  0  0  0  0
  6 10  1  0  0  0  0
  7  6  2  0  0  0  0
 11 12  1  0  0  0  0
 12 13  2  0  0  0  0
 12  7  1  0  0  0  0
 13 14  1  0  0  0  0
 15 16  1  0  0  0  0
 15 13  1  0  0  0  0
 16 17  1  0  0  0  0
 18 16  1  0  0  0  0
 19 21  1  0  0  0  0
 19 18  2  0  0  0  0
 20 19  1  0  0  0  0
 21 15  2  0  0  0  0
 22 21  1  0  0  0  0
 22 11  2  0  0  0  0
 23 27  2  0  0  0  0
 24 23  1  0  0  0  0
 24 25  2  0  0  0  0
 25 29  1  0  0  0  0
 25 26  1  0  0  0  0
 26  3  1  0  0  0  0
 27 26  1  0  0  0  0
 28 24  1  0  0  0  0
 30 35  1  0  0  0  0
 31 30  2  0  0  0  0
 31 32  1  0  0  0  0
 32 33  2  0  0  0  0
 33 34  1  0  0  0  0
 34 23  1  0  0  0  0
 35 34  2  0  0  0  0
 36 30  1  0  0  0  0
 37 31  1  0  0  0  0
 38 32  1  0  0  0  0
M  END
>  <minimizedAffinity>
-6.22374153

$$$$
