
 OpenBabel03242511283D

 37 41  0  0  0  0  0  0  0  0999 V2000
   44.9830   33.2860   41.0240 Cl  0  0  0  0  0  0  0  0  0  0  0  0
   46.4930   34.1060   40.8940 C   0  0  0  0  0  0  0  0  0  0  0  0
   46.9780   34.8270   41.9630 C   0  0  0  0  0  0  0  0  0  0  0  0
   48.1980   35.5100   41.9040 C   0  0  0  0  0  0  0  0  0  0  0  0
   48.8720   35.4100   40.7100 C   0  0  0  0  0  0  0  0  0  0  0  0
   48.4040   34.7060   39.6570 C   0  0  0  0  0  0  0  0  0  0  0  0
   47.2080   34.0390   39.7230 C   0  0  0  0  0  0  0  0  0  0  0  0
   48.4990   36.0450   42.7820 H   0  0  0  0  0  0  0  0  0  0  0  0
   49.8210   35.9540   40.6950 H   0  0  0  0  0  0  0  0  0  0  0  0
   49.0310   34.7060   38.7680 H   0  0  0  0  0  0  0  0  0  0  0  0
   45.6460   33.9910   45.3030 C   0  0  0  0  0  0  0  0  0  0  0  0
   44.7130   35.0220   45.5160 C   0  0  0  0  0  0  0  0  0  0  0  0
   44.5530   35.9740   44.5370 C   0  0  0  0  0  0  0  0  0  0  0  0
   45.2980   35.8760   43.4090 N   0  0  0  0  0  0  0  0  0  0  0  0
   46.1990   34.8830   43.2010 C   0  0  0  0  0  0  0  0  0  0  0  0
   46.3590   33.9460   44.1610 N   0  0  0  0  0  0  0  0  0  0  0  0
   45.7500   33.2570   46.0910 H   0  0  0  0  0  0  0  0  0  0  0  0
   44.1080   35.1400   46.3800 H   0  0  0  0  0  0  0  0  0  0  0  0
   43.9070   36.8200   44.5120 H   0  0  0  0  0  0  0  0  0  0  0  0
   46.8210   33.3170   38.5040 C   0  0  0  0  0  0  0  0  0  0  0  0
   47.7400   33.2390   37.4610 C   0  0  0  0  0  0  0  0  0  0  0  0
   46.8200   32.2680   36.1820 S   0  0  0  0  0  0  0  0  0  0  0  0
   45.3260   32.1440   37.3310 C   0  0  0  0  0  0  0  0  0  0  0  0
   45.7050   32.7100   38.2210 N   0  0  0  0  0  0  0  0  0  0  0  0
   48.7580   33.6290   37.3540 H   0  0  0  0  0  0  0  0  0  0  0  0
   43.1460   31.2850   37.9550 C   0  0  0  0  0  0  0  0  0  0  0  0
   44.0650   31.4240   36.9360 C   0  0  0  0  0  0  0  0  0  0  0  0
   43.9380   30.9790   35.6360 C   0  0  0  0  0  0  0  0  0  0  0  0
   44.7270   31.1440   34.9160 H   0  0  0  0  0  0  0  0  0  0  0  0
   42.7600   30.3260   35.3370 C   0  0  0  0  0  0  0  0  0  0  0  0
   42.2990   29.7700   34.2010 N   0  0  0  0  0  0  0  0  0  0  0  0
   42.8080   29.7440   33.2860 H   0  0  0  0  0  0  0  0  0  0  0  0
   41.0860   29.2500   34.4090 N   0  0  0  0  0  0  0  0  0  0  0  0
   40.7480   29.4740   35.7120 C   0  0  0  0  0  0  0  0  0  0  0  0
   39.8260   29.1760   36.1980 H   0  0  0  0  0  0  0  0  0  0  0  0
   41.7910   30.1480   36.3010 C   0  0  0  0  0  0  0  0  0  0  0  0
   41.9940   30.6230   37.5800 C   0  0  0  0  0  0  0  0  0  0  0  0
  2  1  1  0  0  0  0
  2  3  1  0  0  0  0
  3 15  1  0  0  0  0
  4  3  2  0  0  0  0
  4  8  1  0  0  0  0
  5  4  1  0  0  0  0
  6  7  1  0  0  0  0
  6  5  2  0  0  0  0
  7  2  2  0  0  0  0
  9  5  1  0  0  0  0
 10  6  1  0  0  0  0
 11 12  1  0  0  0  0
 11 17  1  0  0  0  0
 12 18  1  0  0  0  0
 13 12  2  0  0  0  0
 14 13  1  0  0  0  0
 15 14  2  0  0  0  0
 15 16  1  0  0  0  0
 16 11  2  0  0  0  0
 19 13  1  0  0  0  0
 20  7  1  0  0  0  0
 21 20  2  0  0  0  0
 22 23  1  0  0  0  0
 22 21  1  0  0  0  0
 23 24  2  0  0  0  0
 24 20  1  0  0  0  0
 25 21  1  0  0  0  0
 27 23  1  0  0  0  0
 27 26  2  0  0  0  0
 28 27  1  0  0  0  0
 29 28  1  0  0  0  0
 30 28  2  0  0  0  0
 30 36  1  0  0  0  0
 31 33  1  0  0  0  0
 31 30  1  0  0  0  0
 32 31  1  0  0  0  0
 33 34  2  0  0  0  0
 34 35  1  0  0  0  0
 34 36  1  0  0  0  0
 36 37  2  0  0  0  0
 37 26  1  0  0  0  0
M  END
>  <minimizedAffinity>
-6.60358715

>  <minimizedRMSD>
1.78021133

$$$$
