
 OpenBabel03252501293D

 41 44  0  0  0  0  0  0  0  0999 V2000
   45.8050   29.9960   45.8560 C   0  0  0  0  0  0  0  0  0  0  0  0
   45.1660   29.7520   47.0450 C   0  0  0  0  0  0  0  0  0  0  0  0
   45.3060   28.6180   47.7760 C   0  0  0  0  0  0  0  0  0  0  0  0
   46.1320   27.6560   47.3060 C   0  0  0  0  0  0  0  0  0  0  0  0
   46.8110   27.8590   46.0930 C   0  0  0  0  0  0  0  0  0  0  0  0
   46.6390   29.0260   45.3840 C   0  0  0  0  0  0  0  0  0  0  0  0
   44.5090   30.5780   47.3670 H   0  0  0  0  0  0  0  0  0  0  0  0
   44.7460   28.5450   48.6980 H   0  0  0  0  0  0  0  0  0  0  0  0
   47.4230   26.9810   45.8860 H   0  0  0  0  0  0  0  0  0  0  0  0
   47.2330   25.5380   47.9290 C   0  0  0  0  0  0  0  0  0  0  0  0
   46.2480   26.4390   48.1440 C   0  0  0  0  0  0  0  0  0  0  0  0
   45.3270   26.2160   49.1650 C   0  0  0  0  0  0  0  0  0  0  0  0
   44.5250   26.9050   49.3730 H   0  0  0  0  0  0  0  0  0  0  0  0
   45.5060   25.0590   49.8910 C   0  0  0  0  0  0  0  0  0  0  0  0
   44.7300   24.6350   50.9300 N   0  0  0  0  0  0  0  0  0  0  0  0
   43.8830   25.1070   51.3470 H   0  0  0  0  0  0  0  0  0  0  0  0
   45.2370   23.4840   51.3480 N   0  0  0  0  0  0  0  0  0  0  0  0
   46.3190   23.1380   50.6200 C   0  0  0  0  0  0  0  0  0  0  0  0
   47.0030   22.3060   50.6300 H   0  0  0  0  0  0  0  0  0  0  0  0
   46.5070   24.1340   49.6810 C   0  0  0  0  0  0  0  0  0  0  0  0
   47.4210   24.3790   48.6500 C   0  0  0  0  0  0  0  0  0  0  0  0
   48.8700   29.1130   44.4390 C   0  0  0  0  0  0  0  0  0  0  0  0
   49.6770   29.4350   45.3790 O   0  0  0  0  0  0  0  0  0  0  0  0
   47.4710   28.8920   44.2290 N   0  0  0  0  0  0  0  0  0  0  0  0
   49.6280   29.0210   43.6620 H   0  0  0  0  0  0  0  0  0  0  0  0
   47.2680   28.6610   43.2380 H   0  0  0  0  0  0  0  0  0  0  0  0
   45.7280   31.1600   44.9660 C   0  0  0  0  0  0  0  0  0  0  0  0
   46.0740   30.8240   43.9670 H   0  0  0  0  0  0  0  0  0  0  0  0
   44.6770   31.4890   44.8180 H   0  0  0  0  0  0  0  0  0  0  0  0
   46.5500   32.3070   45.4980 C   0  0  0  0  0  0  0  0  0  0  0  0
   46.5870   32.2620   46.6250 H   0  0  0  0  0  0  0  0  0  0  0  0
   47.5940   32.2480   45.0980 H   0  0  0  0  0  0  0  0  0  0  0  0
   44.6100   35.4070   45.3750 C   0  0  0  0  0  0  0  0  0  0  0  0
   44.8690   35.8930   44.0760 C   0  0  0  0  0  0  0  0  0  0  0  0
   45.7120   35.1230   43.2890 C   0  0  0  0  0  0  0  0  0  0  0  0
   46.2350   33.9800   43.7760 N   0  0  0  0  0  0  0  0  0  0  0  0
   45.9500   33.5710   45.0250 C   0  0  0  0  0  0  0  0  0  0  0  0
   45.1540   34.2580   45.8260 N   0  0  0  0  0  0  0  0  0  0  0  0
   43.9530   36.0340   45.9520 H   0  0  0  0  0  0  0  0  0  0  0  0
   44.4230   36.8180   43.7310 H   0  0  0  0  0  0  0  0  0  0  0  0
   45.9390   35.4550   42.2860 H   0  0  0  0  0  0  0  0  0  0  0  0
  1  2  1  0  0  0  0
  2  7  1  0  0  0  0
  2  3  2  0  0  0  0
  3  8  1  0  0  0  0
  4  3  1  0  0  0  0
  4 11  1  0  0  0  0
  5  4  2  0  0  0  0
  6  1  2  0  0  0  0
  6  5  1  0  0  0  0
  9  5  1  0  0  0  0
 10 11  2  0  0  0  0
 10 21  1  0  0  0  0
 11 12  1  0  0  0  0
 12 13  1  0  0  0  0
 12 14  2  0  0  0  0
 14 15  1  0  0  0  0
 15 16  1  0  0  0  0
 15 17  1  0  0  0  0
 18 19  1  0  0  0  0
 18 17  2  0  0  0  0
 20 14  1  0  0  0  0
 20 18  1  0  0  0  0
 21 20  2  0  0  0  0
 22 23  2  0  0  0  0
 24 22  1  0  0  0  0
 24  6  1  0  0  0  0
 25 22  1  0  0  0  0
 26 24  1  0  0  0  0
 27 30  1  0  0  0  0
 27  1  1  0  0  0  0
 28 27  1  0  0  0  0
 29 27  1  0  0  0  0
 30 31  1  0  0  0  0
 32 30  1  0  0  0  0
 33 38  1  0  0  0  0
 33 39  1  0  0  0  0
 34 33  2  0  0  0  0
 35 36  2  0  0  0  0
 35 34  1  0  0  0  0
 36 37  1  0  0  0  0
 37 30  1  0  0  0  0
 37 38  2  0  0  0  0
 40 34  1  0  0  0  0
 41 35  1  0  0  0  0
M  END
>  <minimizedAffinity>
-5.03605127

>  <minimizedRMSD>
3.38199162

$$$$
