
 OpenBabel03242519203D

 41 44  0  0  1  0  0  0  0  0999 V2000
   48.1060   32.9370   42.8130 C   0  0  0  0  0  0  0  0  0  0  0  0
   49.0240   34.0000   42.5820 C   0  0  0  0  0  0  0  0  0  0  0  0
   50.3750   33.7070   42.3950 C   0  0  0  0  0  0  0  0  0  0  0  0
   50.7190   32.3740   42.4540 N   0  0  0  0  0  0  0  0  0  0  0  0
   49.8420   31.3880   42.6730 C   0  0  0  0  0  0  0  0  0  0  0  0
   48.5370   31.6730   42.8510 N   0  0  0  0  0  0  0  0  0  0  0  0
   48.8360   35.0420   42.5220 H   0  0  0  0  0  0  0  0  0  0  0  0
   51.1370   34.4290   42.2170 H   0  0  0  0  0  0  0  0  0  0  0  0
   46.6990   33.3350   43.0110 C   0  0  0  0  0  0  0  0  0  0  0  0
   46.2590   34.3860   42.0720 C   0  0  0  0  0  0  0  0  0  0  0  0
   46.0200   35.7160   42.7280 C   0  0  0  0  0  0  0  0  0  0  0  0
   45.0140   35.6120   43.8600 C   0  0  0  0  0  0  0  0  0  0  0  0
   45.2220   34.4080   44.7310 C   0  0  0  0  0  0  0  0  0  0  0  0
   46.5450   33.7390   44.4720 C   0  0  0  0  0  0  0  0  0  0  0  0
   46.1060   32.3740   42.9460 H   0  0  0  0  0  0  0  0  0  0  0  0
   45.2460   34.0640   41.6850 H   0  0  0  0  0  0  0  0  0  0  0  0
   46.8700   34.5170   41.1780 H   0  0  0  0  0  0  0  0  0  0  0  0
   45.6040   36.4030   41.9650 H   0  0  0  0  0  0  0  0  0  0  0  0
   46.8970   36.2130   43.1420 H   0  0  0  0  0  0  0  0  0  0  0  0
   43.9630   35.6580   43.4830 H   0  0  0  0  0  0  0  0  0  0  0  0
   45.1200   36.5170   44.4930 H   0  0  0  0  0  0  0  0  0  0  0  0
   44.3980   33.6800   44.4730 H   0  0  0  0  0  0  0  0  0  0  0  0
   45.1430   34.6270   45.7950 H   0  0  0  0  0  0  0  0  0  0  0  0
   47.3400   34.4410   44.7410 H   0  0  0  0  0  0  0  0  0  0  0  0
   46.5970   32.8260   45.1040 H   0  0  0  0  0  0  0  0  0  0  0  0
   50.2900   29.9600   42.7230 C   0  0  0  0  0  2  0  0  0  0  0  0
   50.3830   29.4340   44.0800 C   0  0  0  0  0  0  0  0  0  0  0  0
   51.4830   29.3590   44.8100 C   0  0  0  0  0  0  0  0  0  0  0  0
   51.3680   28.8040   46.1120 N   0  0  0  0  0  0  0  0  0  0  0  0
   51.7570   28.8360   47.5020 C   0  0  0  0  0  0  0  0  0  0  0  0
   52.6390   29.4700   48.1800 O   0  0  0  0  0  0  0  0  0  0  0  0
   50.7450   27.8410   47.9040 C   0  0  0  0  0  3  0  0  0  0  0  0
   51.1290   26.9500   48.4460 H   0  0  0  0  0  0  0  0  0  0  0  0
   50.5140   27.6530   46.4460 C   0  0  1  0  0  3  0  0  0  0  0  0
   48.8460   28.2060   46.0000 S   0  0  0  0  0  0  0  0  0  0  0  0
   48.9970   29.0370   44.4200 C   0  0  0  0  0  3  0  0  0  0  0  0
   48.3740   29.9580   44.4560 H   0  0  0  0  0  0  0  0  0  0  0  0
   52.8000   29.8050   44.3470 C   0  0  0  0  0  0  0  0  0  0  0  0
   53.5290   29.5360   43.3850 O   0  0  0  0  0  0  0  0  0  0  0  0
   53.5300   30.7420   45.0310 O   0  0  0  0  0  0  0  0  0  0  0  0
   53.9780   31.5140   44.5710 H   0  0  0  0  0  0  0  0  0  0  0  0
  1  6  1  0  0  0  0
  1  9  1  0  0  0  0
  2  1  2  0  0  0  0
  3  4  2  0  0  0  0
  3  2  1  0  0  0  0
  4  5  1  0  0  0  0
  5 26  1  0  0  0  0
  5  6  2  0  0  0  0
  7  2  1  0  0  0  0
  8  3  1  0  0  0  0
  9 14  1  0  0  0  0
 10 11  1  0  0  0  0
 10  9  1  0  0  0  0
 11 19  1  0  0  0  0
 11 12  1  0  0  0  0
 12 21  1  0  0  0  0
 12 13  1  0  0  0  0
 13 23  1  0  0  0  0
 14 13  1  0  0  0  0
 14 24  1  0  0  0  0
 14 25  1  0  0  0  0
 15  9  1  0  0  0  0
 16 10  1  0  0  0  0
 17 10  1  0  0  0  0
 18 11  1  0  0  0  0
 20 12  1  0  0  0  0
 22 13  1  0  0  0  0
 26 27  1  0  0  0  0
 27 36  1  0  0  0  0
 27 28  2  0  0  0  0
 28 29  1  0  0  0  0
 29 34  1  0  0  0  0
 29 30  1  0  0  0  0
 30 32  1  0  0  0  0
 30 31  2  0  0  0  0
 32 33  1  0  0  0  0
 34 35  1  1  0  0  0
 34 32  1  0  0  0  0
 36 37  1  0  0  0  0
 36 35  1  0  0  0  0
 38 28  1  0  0  0  0
 38 40  1  0  0  0  0
 39 38  2  0  0  0  0
 41 40  1  0  0  0  0
M  END
>  <minimizedAffinity>
-4.409513

>  <minimizedRMSD>
2.29462504

$$$$
