
 OpenBabel03242510093D

 35 38  0  0  1  0  0  0  0  0999 V2000
   43.4430   32.1540   42.0860 Br  0  0  0  0  0  0  0  0  0  0  0  0
   44.9490   32.9060   41.1870 C   0  0  0  0  0  0  0  0  0  0  0  0
   45.9120   33.6020   41.8970 C   0  0  0  0  0  0  0  0  0  0  0  0
   47.0140   34.1690   41.2640 C   0  0  0  0  0  0  0  0  0  0  0  0
   47.1100   34.0130   39.9080 C   0  0  0  0  0  0  0  0  0  0  0  0
   46.1330   33.3160   39.2340 C   0  0  0  0  0  0  0  0  0  0  0  0
   45.0550   32.7570   39.8310 C   0  0  0  0  0  0  0  0  0  0  0  0
   47.7600   34.7120   41.8430 H   0  0  0  0  0  0  0  0  0  0  0  0
   47.9730   34.4550   39.3950 H   0  0  0  0  0  0  0  0  0  0  0  0
   46.2970   33.2560   38.1720 H   0  0  0  0  0  0  0  0  0  0  0  0
   46.1160   32.8980   45.4780 C   0  0  0  0  0  0  0  0  0  0  0  0
   45.4300   33.9660   46.0810 C   0  0  0  0  0  0  0  0  0  0  0  0
   44.9000   34.9280   45.2240 C   0  0  0  0  0  0  0  0  0  0  0  0
   45.0740   34.7750   43.8890 N   0  0  0  0  0  0  0  0  0  0  0  0
   45.7450   33.7270   43.3480 C   0  0  0  0  0  0  0  0  0  0  0  0
   46.2660   32.7860   44.1570 N   0  0  0  0  0  0  0  0  0  0  0  0
   46.4970   32.1960   46.2130 H   0  0  0  0  0  0  0  0  0  0  0  0
   45.2670   34.1290   47.1180 H   0  0  0  0  0  0  0  0  0  0  0  0
   44.3380   35.8240   45.4980 H   0  0  0  0  0  0  0  0  0  0  0  0
   44.0050   32.0150   39.0810 C   0  0  0  0  0  2  0  0  0  0  0  0
   42.7890   32.7790   38.8070 C   0  0  0  0  0  0  0  0  0  0  0  0
   41.6420   32.1500   38.8130 C   0  0  0  0  0  0  0  0  0  0  0  0
   40.4520   32.8860   38.5580 N   0  0  0  0  0  0  0  0  0  0  0  0
   39.1890   32.9380   37.8580 C   0  0  0  0  0  0  0  0  0  0  0  0
   38.4160   32.1010   37.2790 O   0  0  0  0  0  0  0  0  0  0  0  0
   39.1180   34.4160   38.0730 C   0  0  0  0  0  3  0  0  0  0  0  0
   38.1080   34.6630   38.4910 H   0  0  0  0  0  0  0  0  0  0  0  0
   40.1500   34.1910   39.1560 C   0  0  2  0  0  3  0  0  0  0  0  0
   41.6250   35.1830   39.1050 S   0  0  0  0  0  0  0  0  0  0  0  0
   43.0150   34.2100   38.5160 C   0  0  0  0  0  3  0  0  0  0  0  0
   43.2100   34.3790   37.4210 H   0  0  0  0  0  0  0  0  0  0  0  0
   41.4590   30.7200   39.0740 C   0  0  0  0  0  0  0  0  0  0  0  0
   41.0240   30.1930   40.1230 O   0  0  0  0  0  0  0  0  0  0  0  0
   41.5750   29.4520   38.5860 O   0  0  0  0  0  0  0  0  0  0  0  0
   40.8610   29.0430   37.9680 H   0  0  0  0  0  0  0  0  0  0  0  0
  2  3  1  0  0  0  0
  2  1  1  0  0  0  0
  3 15  1  0  0  0  0
  4  8  1  0  0  0  0
  4  3  2  0  0  0  0
  5  4  1  0  0  0  0
  6  7  1  0  0  0  0
  6  5  2  0  0  0  0
  7  2  2  0  0  0  0
  9  5  1  0  0  0  0
 10  6  1  0  0  0  0
 11 12  1  0  0  0  0
 11 17  1  0  0  0  0
 12 18  1  0  0  0  0
 13 19  1  0  0  0  0
 13 12  2  0  0  0  0
 14 13  1  0  0  0  0
 15 14  2  0  0  0  0
 15 16  1  0  0  0  0
 16 11  2  0  0  0  0
 20  7  1  0  0  0  0
 21 22  2  0  0  0  0
 21 20  1  0  0  0  0
 22 32  1  0  0  0  0
 23 22  1  0  0  0  0
 23 28  1  0  0  0  0
 24 26  1  0  0  0  0
 24 23  1  0  0  0  0
 25 24  2  0  0  0  0
 26 27  1  0  0  0  0
 28 26  1  6  0  0  0
 29 28  1  0  0  0  0
 30 21  1  0  0  0  0
 30 29  1  0  0  0  0
 31 30  1  0  0  0  0
 32 33  2  0  0  0  0
 34 32  1  0  0  0  0
 35 34  1  0  0  0  0
M  END
>  <minimizedAffinity>
-4.99051905

>  <minimizedRMSD>
2.08152103

$$$$
