
 OpenBabel03252505533D

 40 43  0  0  1  0  0  0  0  0999 V2000
   47.0490   30.7080   47.6730 C   0  0  0  0  0  0  0  0  0  0  0  0
   47.6640   29.7200   46.9160 C   0  0  0  0  0  0  0  0  0  0  0  0
   48.9570   29.4010   47.1660 C   0  0  0  0  0  0  0  0  0  0  0  0
   49.6540   30.0060   48.1160 N   0  0  0  0  0  0  0  0  0  0  0  0
   49.0710   30.9620   48.8550 C   0  0  0  0  0  0  0  0  0  0  0  0
   47.7710   31.3280   48.6510 N   0  0  0  0  0  0  0  0  0  0  0  0
   46.9780   29.3190   46.1850 H   0  0  0  0  0  0  0  0  0  0  0  0
   49.3580   28.6270   46.5360 H   0  0  0  0  0  0  0  0  0  0  0  0
   45.6790   31.2590   47.6300 C   0  0  0  0  0  0  0  0  0  0  0  0
   45.1500   30.8570   46.7610 H   0  0  0  0  0  0  0  0  0  0  0  0
   45.1790   30.9340   48.5580 H   0  0  0  0  0  0  0  0  0  0  0  0
   45.7900   32.6600   47.5720 O   0  0  0  0  0  0  0  0  0  0  0  0
   44.9110   35.0190   45.0580 C   0  0  0  0  0  0  0  0  0  0  0  0
   45.7860   34.7210   44.0090 C   0  0  0  0  0  0  0  0  0  0  0  0
   46.6940   33.6710   44.2040 C   0  0  0  0  0  0  0  0  0  0  0  0
   46.6810   33.0070   45.3770 N   0  0  0  0  0  0  0  0  0  0  0  0
   45.8180   33.3310   46.3590 C   0  0  0  0  0  0  0  0  0  0  0  0
   44.9370   34.3250   46.2110 N   0  0  0  0  0  0  0  0  0  0  0  0
   44.2080   35.8330   44.9050 H   0  0  0  0  0  0  0  0  0  0  0  0
   47.3670   33.4540   43.3770 H   0  0  0  0  0  0  0  0  0  0  0  0
   45.6950   35.5350   42.7600 C   0  0  0  0  0  0  0  0  0  0  0  0
   45.2830   36.7790   43.1660 F   0  0  0  0  0  0  0  0  0  0  0  0
   44.6960   34.9370   41.9810 F   0  0  0  0  0  0  0  0  0  0  0  0
   46.9030   35.5320   42.1360 F   0  0  0  0  0  0  0  0  0  0  0  0
   49.9070   31.6200   49.9240 C   0  0  0  0  0  2  0  0  0  0  0  0
   50.7850   30.6050   50.5300 C   0  0  0  0  0  0  0  0  0  0  0  0
   52.0930   30.7950   50.5310 C   0  0  0  0  0  0  0  0  0  0  0  0
   52.9340   29.8150   51.1280 N   0  0  0  0  0  0  0  0  0  0  0  0
   54.0960   28.9950   50.9870 C   0  0  0  0  0  0  0  0  0  0  0  0
   55.1710   29.0360   50.2980 O   0  0  0  0  0  0  0  0  0  0  0  0
   53.5150   28.0540   52.0030 C   0  0  0  0  0  3  0  0  0  0  0  0
   54.2930   27.8220   52.7610 H   0  0  0  0  0  0  0  0  0  0  0  0
   52.7120   29.2490   52.4690 C   0  0  2  0  0  3  0  0  0  0  0  0
   50.9390   28.9890   52.6570 S   0  0  0  0  0  0  0  0  0  0  0  0
   50.1270   29.4060   51.0960 C   0  0  0  0  0  3  0  0  0  0  0  0
   50.2210   28.5800   50.3480 H   0  0  0  0  0  0  0  0  0  0  0  0
   52.6960   31.9780   49.9510 C   0  0  0  0  0  0  0  0  0  0  0  0
   53.0630   33.0190   50.5960 O   0  0  0  0  0  0  0  0  0  0  0  0
   53.2170   32.8780   49.0650 O   0  0  0  0  0  0  0  0  0  0  0  0
   52.7120   33.0710   48.1840 H   0  0  0  0  0  0  0  0  0  0  0  0
  1  6  1  0  0  0  0
  2  3  1  0  0  0  0
  2  1  2  0  0  0  0
  3  4  2  0  0  0  0
  4  5  1  0  0  0  0
  5 25  1  0  0  0  0
  6  5  2  0  0  0  0
  7  2  1  0  0  0  0
  8  3  1  0  0  0  0
  9  1  1  0  0  0  0
  9 11  1  0  0  0  0
 10  9  1  0  0  0  0
 12  9  1  0  0  0  0
 13 18  1  0  0  0  0
 14 15  1  0  0  0  0
 14 13  2  0  0  0  0
 15 16  2  0  0  0  0
 16 17  1  0  0  0  0
 17 12  1  0  0  0  0
 18 17  2  0  0  0  0
 19 13  1  0  0  0  0
 20 15  1  0  0  0  0
 21 22  1  0  0  0  0
 21 14  1  0  0  0  0
 23 21  1  0  0  0  0
 24 21  1  0  0  0  0
 25 26  1  0  0  0  0
 26 27  2  0  0  0  0
 26 35  1  0  0  0  0
 27 28  1  0  0  0  0
 28 33  1  0  0  0  0
 29 28  1  0  0  0  0
 29 31  1  0  0  0  0
 30 29  2  0  0  0  0
 31 32  1  0  0  0  0
 33 31  1  6  0  0  0
 33 34  1  0  0  0  0
 35 34  1  0  0  0  0
 36 35  1  0  0  0  0
 37 27  1  0  0  0  0
 37 38  2  0  0  0  0
 39 37  1  0  0  0  0
 40 39  1  0  0  0  0
M  END
>  <minimizedAffinity>
-6.12961769

>  <minimizedRMSD>
2.04607463

$$$$
