
 OpenBabel03252507163D

 36 39  0  0  1  0  0  0  0  0999 V2000
   44.1680   35.3740   43.0820 C   0  0  0  0  0  0  0  0  0  0  0  0
   45.0220   34.2860   42.7850 C   0  0  0  0  0  0  0  0  0  0  0  0
   45.7170   33.6990   43.8190 C   0  0  0  0  0  0  0  0  0  0  0  0
   45.5660   34.1710   45.0800 N   0  0  0  0  0  0  0  0  0  0  0  0
   44.7350   35.2230   45.3520 C   0  0  0  0  0  0  0  0  0  0  0  0
   44.0670   35.7910   44.3620 N   0  0  0  0  0  0  0  0  0  0  0  0
   43.6050   35.8620   42.2960 H   0  0  0  0  0  0  0  0  0  0  0  0
   44.6490   35.5620   46.3740 H   0  0  0  0  0  0  0  0  0  0  0  0
   46.5980   32.5790   43.5190 C   0  0  0  0  0  0  0  0  0  0  0  0
   46.1600   31.2880   43.6950 C   0  0  0  0  0  0  0  0  0  0  0  0
   47.0200   30.2540   43.4020 C   0  0  0  0  0  0  0  0  0  0  0  0
   48.3120   30.4440   42.9360 C   0  0  0  0  0  0  0  0  0  0  0  0
   48.6860   31.7580   42.7820 C   0  0  0  0  0  0  0  0  0  0  0  0
   47.8370   32.7680   43.0720 N   0  0  0  0  0  0  0  0  0  0  0  0
   45.1820   31.0830   44.0490 H   0  0  0  0  0  0  0  0  0  0  0  0
   46.6810   29.2150   43.5400 H   0  0  0  0  0  0  0  0  0  0  0  0
   48.9980   29.6610   42.7010 H   0  0  0  0  0  0  0  0  0  0  0  0
   49.6750   31.9940   42.4250 H   0  0  0  0  0  0  0  0  0  0  0  0
   45.1380   33.8340   41.4310 C   0  0  0  0  0  0  0  0  0  0  0  0
   46.0450   34.3580   40.7220 O   0  0  0  0  0  0  0  0  0  0  0  0
   40.5110   34.3830   39.8550 C   0  0  0  0  0  0  0  0  0  0  0  0
   40.8220   33.2490   40.4330 C   0  0  0  0  0  0  0  0  0  0  0  0
   42.1730   32.9230   40.7290 N   0  0  0  0  0  0  0  0  0  0  0  0
   43.1450   32.3130   41.5700 C   0  0  0  0  0  0  0  0  0  0  0  0
   43.1130   31.5940   42.6170 O   0  0  0  0  0  0  0  0  0  0  0  0
   44.2850   32.8050   40.7980 C   0  0  1  0  0  3  0  0  0  0  0  0
   43.2740   33.3380   39.8450 C   0  0  2  0  0  3  0  0  0  0  0  0
   43.1660   35.1100   39.6790 S   0  0  0  0  0  0  0  0  0  0  0  0
   41.4290   35.4420   39.4440 C   0  0  0  0  0  3  0  0  0  0  0  0
   41.1920   36.3420   40.0850 H   0  0  0  0  0  0  0  0  0  0  0  0
   39.0870   34.6110   39.5960 C   0  0  0  0  0  2  0  0  0  0  0  0
   38.6430   33.8710   38.8670 H   0  0  0  0  0  0  0  0  0  0  0  0
   39.8000   32.2720   40.7940 C   0  0  0  0  0  0  0  0  0  0  0  0
   39.4220   31.2640   40.1490 O   0  0  0  0  0  0  0  0  0  0  0  0
   39.0670   32.3310   41.9680 O   0  0  0  0  0  0  0  0  0  0  0  0
   38.1050   32.0570   42.0800 H   0  0  0  0  0  0  0  0  0  0  0  0
  1  6  1  0  0  0  0
  2  1  2  0  0  0  0
  2  3  1  0  0  0  0
  3  4  2  0  0  0  0
  4  5  1  0  0  0  0
  5  8  1  0  0  0  0
  6  5  2  0  0  0  0
  7  1  1  0  0  0  0
  9 10  1  0  0  0  0
  9  3  1  0  0  0  0
 10 15  1  0  0  0  0
 11 16  1  0  0  0  0
 11 10  2  0  0  0  0
 12 11  1  0  0  0  0
 13 12  2  0  0  0  0
 13 14  1  0  0  0  0
 14  9  2  0  0  0  0
 17 12  1  0  0  0  0
 18 13  1  0  0  0  0
 19  2  1  0  0  0  0
 20 19  2  0  0  0  0
 21 22  2  0  0  0  0
 22 23  1  0  0  0  0
 22 33  1  0  0  0  0
 23 24  1  0  0  0  0
 24 25  2  0  0  0  0
 26 19  1  1  0  0  0
 26 24  1  0  0  0  0
 27 28  1  1  0  0  0
 27 23  1  0  0  0  0
 27 26  1  0  0  0  0
 29 28  1  0  0  0  0
 29 21  1  0  0  0  0
 29 30  1  0  0  0  0
 31 21  1  0  0  0  0
 32 31  1  0  0  0  0
 33 35  1  0  0  0  0
 34 33  2  0  0  0  0
 35 36  1  0  0  0  0
M  END
>  <minimizedAffinity>
-5.27927971

>  <minimizedRMSD>
2.461869

$$$$
