
 OpenBabel03242513123D

 27 29  0  0  1  0  0  0  0  0999 V2000
   36.9190   29.6990   38.9250 C   0  0  0  0  0  0  0  0  0  0  0  0
   37.2440   30.1600   40.1180 C   0  0  0  0  0  0  0  0  0  0  0  0
   37.1950   29.2670   41.2200 N   0  0  0  0  0  0  0  0  0  0  0  0
   37.7110   28.8120   42.4620 C   0  0  0  0  0  0  0  0  0  0  0  0
   38.6390   29.2020   43.2490 O   0  0  0  0  0  0  0  0  0  0  0  0
   36.7750   27.6650   42.5710 C   0  0  1  0  0  3  0  0  0  0  0  0
   36.1830   28.2000   41.3170 C   0  0  2  0  0  3  0  0  0  0  0  0
   36.5270   27.1730   39.8320 S   0  0  0  0  0  0  0  0  0  0  0  0
   36.4910   28.3620   38.4740 C   0  0  0  0  0  3  0  0  0  0  0  0
   35.3990   28.4770   38.2030 H   0  0  0  0  0  0  0  0  0  0  0  0
   37.4220   26.3360   42.4730 C   0  0  0  0  0  0  0  0  0  0  0  0
   36.7410   25.2810   42.4270 O   0  0  0  0  0  0  0  0  0  0  0  0
   40.8370   26.0720   43.6770 C   0  0  0  0  0  0  0  0  0  0  0  0
   41.6290   26.3190   42.5520 C   0  0  0  0  0  0  0  0  0  0  0  0
   40.9650   26.5820   41.3510 C   0  0  0  0  0  0  0  0  0  0  0  0
   39.6120   26.5870   41.3280 N   0  0  0  0  0  0  0  0  0  0  0  0
   38.8830   26.3440   42.4350 C   0  0  0  0  0  0  0  0  0  0  0  0
   39.5120   26.0870   43.6120 N   0  0  0  0  0  0  0  0  0  0  0  0
   41.4200   25.8770   44.5700 H   0  0  0  0  0  0  0  0  0  0  0  0
   42.7090   26.3330   42.4920 H   0  0  0  0  0  0  0  0  0  0  0  0
   41.4300   26.7950   40.3830 H   0  0  0  0  0  0  0  0  0  0  0  0
   36.9960   30.7110   37.8220 C   0  0  0  0  0  2  0  0  0  0  0  0
   36.3100   31.5530   38.0230 H   0  0  0  0  0  0  0  0  0  0  0  0
   37.6470   31.5370   40.3540 C   0  0  0  0  0  0  0  0  0  0  0  0
   38.7690   32.0520   40.3810 O   0  0  0  0  0  0  0  0  0  0  0  0
   36.7220   32.5290   40.6020 O   0  0  0  0  0  0  0  0  0  0  0  0
   36.8620   33.3110   41.2170 H   0  0  0  0  0  0  0  0  0  0  0  0
  1  2  2  0  0  0  0
  2 24  1  0  0  0  0
  2  3  1  0  0  0  0
  3  7  1  0  0  0  0
  3  4  1  0  0  0  0
  4  6  1  0  0  0  0
  4  5  2  0  0  0  0
  6 11  1  6  0  0  0
  7  8  1  6  0  0  0
  7  6  1  0  0  0  0
  9  1  1  0  0  0  0
  9  8  1  0  0  0  0
 10  9  1  0  0  0  0
 12 11  2  0  0  0  0
 13 19  1  0  0  0  0
 14 13  2  0  0  0  0
 15 14  1  0  0  0  0
 16 15  2  0  0  0  0
 16 17  1  0  0  0  0
 17 11  1  0  0  0  0
 17 18  2  0  0  0  0
 18 13  1  0  0  0  0
 20 14  1  0  0  0  0
 21 15  1  0  0  0  0
 22 23  1  0  0  0  0
 22  1  1  0  0  0  0
 24 25  2  0  0  0  0
 24 26  1  0  0  0  0
 26 27  1  0  0  0  0
M  END
>  <minimizedAffinity>
-5.24628544

$$$$

 OpenBabel03242513123D

 27 29  0  0  1  0  0  0  0  0999 V2000
   39.7640   32.2170   40.3690 C   0  0  0  0  0  0  0  0  0  0  0  0
   38.5290   31.8660   40.0660 C   0  0  0  0  0  0  0  0  0  0  0  0
   38.0670   30.5950   40.4990 N   0  0  0  0  0  0  0  0  0  0  0  0
   37.0220   29.7590   40.9750 C   0  0  0  0  0  0  0  0  0  0  0  0
   35.7740   29.9160   41.1970 O   0  0  0  0  0  0  0  0  0  0  0  0
   37.8890   28.5670   41.1500 C   0  0  1  0  0  3  0  0  0  0  0  0
   38.9560   29.4210   40.5660 C   0  0  2  0  0  3  0  0  0  0  0  0
   40.2360   29.9470   41.7750 S   0  0  0  0  0  0  0  0  0  0  0  0
   40.8280   31.5190   41.1130 C   0  0  0  0  0  3  0  0  0  0  0  0
   41.6020   31.2470   40.3360 H   0  0  0  0  0  0  0  0  0  0  0  0
   38.0820   28.1530   42.5600 C   0  0  0  0  0  0  0  0  0  0  0  0
   37.7480   28.9030   43.5110 O   0  0  0  0  0  0  0  0  0  0  0  0
   38.5590   24.5710   42.2120 C   0  0  0  0  0  0  0  0  0  0  0  0
   39.6720   24.2830   43.0080 C   0  0  0  0  0  0  0  0  0  0  0  0
   40.2690   25.3530   43.6790 C   0  0  0  0  0  0  0  0  0  0  0  0
   39.7560   26.5970   43.5330 N   0  0  0  0  0  0  0  0  0  0  0  0
   38.6810   26.8340   42.7560 C   0  0  0  0  0  0  0  0  0  0  0  0
   38.0870   25.8060   42.0960 N   0  0  0  0  0  0  0  0  0  0  0  0
   38.1500   23.6930   41.7230 H   0  0  0  0  0  0  0  0  0  0  0  0
   40.1370   23.3200   43.1730 H   0  0  0  0  0  0  0  0  0  0  0  0
   41.1410   25.3040   44.3380 H   0  0  0  0  0  0  0  0  0  0  0  0
   40.1670   33.5720   39.8700 C   0  0  0  0  0  2  0  0  0  0  0  0
   40.0970   33.6130   38.7690 H   0  0  0  0  0  0  0  0  0  0  0  0
   37.6230   32.7150   39.3100 C   0  0  0  0  0  0  0  0  0  0  0  0
   37.3000   32.6850   38.1180 O   0  0  0  0  0  0  0  0  0  0  0  0
   36.9500   33.7630   39.9020 O   0  0  0  0  0  0  0  0  0  0  0  0
   36.7290   34.6360   39.4570 H   0  0  0  0  0  0  0  0  0  0  0  0
  1  9  1  0  0  0  0
  2  1  2  0  0  0  0
  2  3  1  0  0  0  0
  3  7  1  0  0  0  0
  3  4  1  0  0  0  0
  4  6  1  0  0  0  0
  4  5  2  0  0  0  0
  6 11  1  1  0  0  0
  7  6  1  0  0  0  0
  7  8  1  1  0  0  0
  9  8  1  0  0  0  0
 10  9  1  0  0  0  0
 11 17  1  0  0  0  0
 11 12  2  0  0  0  0
 13 14  1  0  0  0  0
 14 20  1  0  0  0  0
 14 15  2  0  0  0  0
 15 21  1  0  0  0  0
 16 15  1  0  0  0  0
 17 16  2  0  0  0  0
 18 13  2  0  0  0  0
 18 17  1  0  0  0  0
 19 13  1  0  0  0  0
 22  1  1  0  0  0  0
 23 22  1  0  0  0  0
 24 26  1  0  0  0  0
 24  2  1  0  0  0  0
 25 24  2  0  0  0  0
 27 26  1  0  0  0  0
M  END
>  <minimizedAffinity>
-5.22351742

$$$$

 OpenBabel03242513123D

 27 29  0  0  1  0  0  0  0  0999 V2000
   40.8730   31.4490   41.4010 C   0  0  0  0  0  0  0  0  0  0  0  0
   39.6890   31.8440   40.9750 C   0  0  0  0  0  0  0  0  0  0  0  0
   38.6540   30.8770   40.8780 N   0  0  0  0  0  0  0  0  0  0  0  0
   37.2820   30.5250   40.9850 C   0  0  0  0  0  0  0  0  0  0  0  0
   36.2050   31.1630   41.2390 O   0  0  0  0  0  0  0  0  0  0  0  0
   37.5020   29.0860   40.6910 C   0  0  1  0  0  3  0  0  0  0  0  0
   38.9220   29.4800   40.4930 C   0  0  2  0  0  3  0  0  0  0  0  0
   40.0500   28.8990   41.8220 S   0  0  0  0  0  0  0  0  0  0  0  0
   41.3730   30.1280   41.8260 C   0  0  0  0  0  3  0  0  0  0  0  0
   42.0860   29.8060   41.0100 H   0  0  0  0  0  0  0  0  0  0  0  0
   37.2290   28.1810   41.8330 C   0  0  0  0  0  0  0  0  0  0  0  0
   37.1680   28.6160   43.0100 O   0  0  0  0  0  0  0  0  0  0  0  0
   36.5420   25.2580   39.7930 C   0  0  0  0  0  0  0  0  0  0  0  0
   36.6550   24.1770   40.6730 C   0  0  0  0  0  0  0  0  0  0  0  0
   36.9760   24.4690   42.0010 C   0  0  0  0  0  0  0  0  0  0  0  0
   37.1600   25.7580   42.3720 N   0  0  0  0  0  0  0  0  0  0  0  0
   37.0420   26.7720   41.4930 C   0  0  0  0  0  0  0  0  0  0  0  0
   36.7310   26.5070   40.1970 N   0  0  0  0  0  0  0  0  0  0  0  0
   36.2910   24.9550   38.7820 H   0  0  0  0  0  0  0  0  0  0  0  0
   36.5230   23.1270   40.4530 H   0  0  0  0  0  0  0  0  0  0  0  0
   37.1020   23.7470   42.8150 H   0  0  0  0  0  0  0  0  0  0  0  0
   41.9060   32.5340   41.4690 C   0  0  0  0  0  2  0  0  0  0  0  0
   42.0700   32.9720   40.4690 H   0  0  0  0  0  0  0  0  0  0  0  0
   39.3970   33.2180   40.5990 C   0  0  0  0  0  0  0  0  0  0  0  0
   39.5920   33.8190   39.5380 O   0  0  0  0  0  0  0  0  0  0  0  0
   38.8050   34.0980   41.4790 O   0  0  0  0  0  0  0  0  0  0  0  0
   38.9960   35.0830   41.5300 H   0  0  0  0  0  0  0  0  0  0  0  0
  1 22  1  0  0  0  0
  1  9  1  0  0  0  0
  2  1  2  0  0  0  0
  3  2  1  0  0  0  0
  3  4  1  0  0  0  0
  4  5  2  0  0  0  0
  6  4  1  0  0  0  0
  6 11  1  1  0  0  0
  7  6  1  0  0  0  0
  7  3  1  0  0  0  0
  7  8  1  1  0  0  0
  8  9  1  0  0  0  0
 10  9  1  0  0  0  0
 11 12  2  0  0  0  0
 13 18  2  0  0  0  0
 13 14  1  0  0  0  0
 14 15  2  0  0  0  0
 15 16  1  0  0  0  0
 15 21  1  0  0  0  0
 17 11  1  0  0  0  0
 17 16  2  0  0  0  0
 18 17  1  0  0  0  0
 19 13  1  0  0  0  0
 20 14  1  0  0  0  0
 23 22  1  0  0  0  0
 24  2  1  0  0  0  0
 24 26  1  0  0  0  0
 25 24  2  0  0  0  0
 26 27  1  0  0  0  0
M  END
>  <minimizedAffinity>
-5.17823935

$$$$

 OpenBabel03242513123D

 27 29  0  0  1  0  0  0  0  0999 V2000
   39.4530   25.7650   40.2650 C   0  0  0  0  0  0  0  0  0  0  0  0
   38.9940   25.8720   41.4970 C   0  0  0  0  0  0  0  0  0  0  0  0
   38.5120   27.1370   41.9260 N   0  0  0  0  0  0  0  0  0  0  0  0
   37.5990   27.9150   42.6860 C   0  0  0  0  0  0  0  0  0  0  0  0
   36.6600   27.6520   43.5110 O   0  0  0  0  0  0  0  0  0  0  0  0
   38.1090   29.2190   42.1920 C   0  0  1  0  0  3  0  0  0  0  0  0
   39.1180   28.4000   41.4700 C   0  0  2  0  0  3  0  0  0  0  0  0
   38.8670   28.3400   39.6500 S   0  0  0  0  0  0  0  0  0  0  0  0
   39.5750   26.7490   39.1740 C   0  0  0  0  0  3  0  0  0  0  0  0
   40.6850   26.9340   39.0650 H   0  0  0  0  0  0  0  0  0  0  0  0
   37.1510   29.9690   41.3460 C   0  0  0  0  0  0  0  0  0  0  0  0
   36.0290   29.4880   41.0480 O   0  0  0  0  0  0  0  0  0  0  0  0
   37.1490   33.0860   39.4850 C   0  0  0  0  0  0  0  0  0  0  0  0
   38.2930   33.7610   39.9240 C   0  0  0  0  0  0  0  0  0  0  0  0
   39.0810   33.1210   40.8840 C   0  0  0  0  0  0  0  0  0  0  0  0
   38.7110   31.9010   41.3400 N   0  0  0  0  0  0  0  0  0  0  0  0
   37.6000   31.2830   40.8920 C   0  0  0  0  0  0  0  0  0  0  0  0
   36.8230   31.8900   39.9580 N   0  0  0  0  0  0  0  0  0  0  0  0
   36.5900   33.6420   38.7420 H   0  0  0  0  0  0  0  0  0  0  0  0
   38.6520   34.7310   39.6080 H   0  0  0  0  0  0  0  0  0  0  0  0
   40.0020   33.5050   41.3320 H   0  0  0  0  0  0  0  0  0  0  0  0
   39.9430   24.3960   39.8990 C   0  0  0  0  0  2  0  0  0  0  0  0
   40.7710   24.0930   40.5630 H   0  0  0  0  0  0  0  0  0  0  0  0
   38.9590   24.7600   42.4320 C   0  0  0  0  0  0  0  0  0  0  0  0
   39.7770   24.4030   43.2860 O   0  0  0  0  0  0  0  0  0  0  0  0
   37.8950   23.8840   42.4760 O   0  0  0  0  0  0  0  0  0  0  0  0
   37.9610   22.9020   42.6780 H   0  0  0  0  0  0  0  0  0  0  0  0
  1  2  2  0  0  0  0
  2  3  1  0  0  0  0
  2 24  1  0  0  0  0
  3  4  1  0  0  0  0
  4  5  2  0  0  0  0
  6 11  1  6  0  0  0
  6  4  1  0  0  0  0
  7  8  1  6  0  0  0
  7  3  1  0  0  0  0
  7  6  1  0  0  0  0
  9  8  1  0  0  0  0
  9  1  1  0  0  0  0
 10  9  1  0  0  0  0
 12 11  2  0  0  0  0
 13 14  2  0  0  0  0
 13 18  1  0  0  0  0
 14 15  1  0  0  0  0
 15 21  1  0  0  0  0
 15 16  2  0  0  0  0
 17 16  1  0  0  0  0
 17 11  1  0  0  0  0
 18 17  2  0  0  0  0
 19 13  1  0  0  0  0
 20 14  1  0  0  0  0
 22  1  1  0  0  0  0
 22 23  1  0  0  0  0
 24 26  1  0  0  0  0
 24 25  2  0  0  0  0
 26 27  1  0  0  0  0
M  END
>  <minimizedAffinity>
-5.12708807

$$$$

 OpenBabel03242513123D

 27 29  0  0  1  0  0  0  0  0999 V2000
   37.9630   30.8330   38.3070 C   0  0  0  0  0  0  0  0  0  0  0  0
   38.0640   31.3200   39.5290 C   0  0  0  0  0  0  0  0  0  0  0  0
   38.1960   30.4050   40.6070 N   0  0  0  0  0  0  0  0  0  0  0  0
   38.7350   30.0630   41.8760 C   0  0  0  0  0  0  0  0  0  0  0  0
   39.4610   30.6650   42.7380 O   0  0  0  0  0  0  0  0  0  0  0  0
   38.1540   28.6970   41.8910 C   0  0  1  0  0  3  0  0  0  0  0  0
   37.5210   29.0940   40.6070 C   0  0  2  0  0  3  0  0  0  0  0  0
   38.2390   28.2650   39.1320 S   0  0  0  0  0  0  0  0  0  0  0  0
   37.9600   29.4490   37.7980 C   0  0  0  0  0  3  0  0  0  0  0  0
   36.9010   29.2660   37.4490 H   0  0  0  0  0  0  0  0  0  0  0  0
   39.1550   27.6060   41.8160 C   0  0  0  0  0  0  0  0  0  0  0  0
   40.3880   27.8520   41.8190 O   0  0  0  0  0  0  0  0  0  0  0  0
   39.0000   24.0660   41.0300 C   0  0  0  0  0  0  0  0  0  0  0  0
   37.7520   23.6520   41.5060 C   0  0  0  0  0  0  0  0  0  0  0  0
   36.9480   24.6210   42.1110 C   0  0  0  0  0  0  0  0  0  0  0  0
   37.4020   25.8930   42.2100 N   0  0  0  0  0  0  0  0  0  0  0  0
   38.6120   26.2520   41.7380 C   0  0  0  0  0  0  0  0  0  0  0  0
   39.4070   25.3240   41.1470 N   0  0  0  0  0  0  0  0  0  0  0  0
   39.5670   23.2620   40.5740 H   0  0  0  0  0  0  0  0  0  0  0  0
   37.3230   22.6600   41.4630 H   0  0  0  0  0  0  0  0  0  0  0  0
   35.9510   24.4680   42.5340 H   0  0  0  0  0  0  0  0  0  0  0  0
   37.8250   31.8700   37.2330 C   0  0  0  0  0  2  0  0  0  0  0  0
   36.9180   32.4780   37.3980 H   0  0  0  0  0  0  0  0  0  0  0  0
   38.0460   32.7430   39.8230 C   0  0  0  0  0  0  0  0  0  0  0  0
   38.9720   33.5560   39.9130 O   0  0  0  0  0  0  0  0  0  0  0  0
   36.8680   33.4190   40.0580 O   0  0  0  0  0  0  0  0  0  0  0  0
   36.7560   34.1830   40.7010 H   0  0  0  0  0  0  0  0  0  0  0  0
  1  2  2  0  0  0  0
  2 24  1  0  0  0  0
  2  3  1  0  0  0  0
  3  7  1  0  0  0  0
  3  4  1  0  0  0  0
  4  6  1  0  0  0  0
  4  5  2  0  0  0  0
  6 11  1  6  0  0  0
  7  8  1  6  0  0  0
  7  6  1  0  0  0  0
  9  1  1  0  0  0  0
  9  8  1  0  0  0  0
 10  9  1  0  0  0  0
 11 12  2  0  0  0  0
 13 18  2  0  0  0  0
 13 14  1  0  0  0  0
 14 15  2  0  0  0  0
 15 16  1  0  0  0  0
 15 21  1  0  0  0  0
 17 11  1  0  0  0  0
 17 16  2  0  0  0  0
 18 17  1  0  0  0  0
 19 13  1  0  0  0  0
 20 14  1  0  0  0  0
 22 23  1  0  0  0  0
 22  1  1  0  0  0  0
 24 25  2  0  0  0  0
 24 26  1  0  0  0  0
 26 27  1  0  0  0  0
M  END
>  <minimizedAffinity>
-5.04971361

$$$$

 OpenBabel03242513123D

 27 29  0  0  1  0  0  0  0  0999 V2000
   36.9910   26.0790   39.6180 C   0  0  0  0  0  0  0  0  0  0  0  0
   37.3420   26.2230   40.8810 C   0  0  0  0  0  0  0  0  0  0  0  0
   37.6930   27.5210   41.3370 N   0  0  0  0  0  0  0  0  0  0  0  0
   37.7080   28.5060   42.3600 C   0  0  0  0  0  0  0  0  0  0  0  0
   37.3380   28.5420   43.5820 O   0  0  0  0  0  0  0  0  0  0  0  0
   38.3300   29.5530   41.5110 C   0  0  1  0  0  3  0  0  0  0  0  0
   38.3920   28.4900   40.4750 C   0  0  2  0  0  3  0  0  0  0  0  0
   37.2090   28.7290   39.0880 S   0  0  0  0  0  0  0  0  0  0  0  0
   36.8790   27.0500   38.5130 C   0  0  0  0  0  3  0  0  0  0  0  0
   37.7290   26.7980   37.8120 H   0  0  0  0  0  0  0  0  0  0  0  0
   37.4440   30.7040   41.2140 C   0  0  0  0  0  0  0  0  0  0  0  0
   36.1960   30.6110   41.3250 O   0  0  0  0  0  0  0  0  0  0  0  0
   40.1640   33.0320   40.6130 C   0  0  0  0  0  0  0  0  0  0  0  0
   39.5510   34.1540   40.0480 C   0  0  0  0  0  0  0  0  0  0  0  0
   38.1660   34.1020   39.8720 C   0  0  0  0  0  0  0  0  0  0  0  0
   37.4900   32.9910   40.2480 N   0  0  0  0  0  0  0  0  0  0  0  0
   38.1180   31.9290   40.7890 C   0  0  0  0  0  0  0  0  0  0  0  0
   39.4640   31.9620   40.9680 N   0  0  0  0  0  0  0  0  0  0  0  0
   41.2370   33.1440   40.7190 H   0  0  0  0  0  0  0  0  0  0  0  0
   40.0210   35.0730   39.7240 H   0  0  0  0  0  0  0  0  0  0  0  0
   37.5340   34.8880   39.4470 H   0  0  0  0  0  0  0  0  0  0  0  0
   36.6400   24.6750   39.2240 C   0  0  0  0  0  2  0  0  0  0  0  0
   37.5030   24.0040   39.3810 H   0  0  0  0  0  0  0  0  0  0  0  0
   37.3870   25.1170   41.8250 C   0  0  0  0  0  0  0  0  0  0  0  0
   38.3070   24.3450   42.1120 O   0  0  0  0  0  0  0  0  0  0  0  0
   36.2920   24.7700   42.5860 O   0  0  0  0  0  0  0  0  0  0  0  0
   36.0470   23.8330   42.8560 H   0  0  0  0  0  0  0  0  0  0  0  0
  1  2  2  0  0  0  0
  2  3  1  0  0  0  0
  2 24  1  0  0  0  0
  3  4  1  0  0  0  0
  4  5  2  0  0  0  0
  6 11  1  6  0  0  0
  6  4  1  0  0  0  0
  7  8  1  6  0  0  0
  7  3  1  0  0  0  0
  7  6  1  0  0  0  0
  9  8  1  0  0  0  0
  9  1  1  0  0  0  0
 10  9  1  0  0  0  0
 11 12  2  0  0  0  0
 13 19  1  0  0  0  0
 13 18  1  0  0  0  0
 14 13  2  0  0  0  0
 15 14  1  0  0  0  0
 15 16  2  0  0  0  0
 16 17  1  0  0  0  0
 17 18  2  0  0  0  0
 17 11  1  0  0  0  0
 20 14  1  0  0  0  0
 21 15  1  0  0  0  0
 22 23  1  0  0  0  0
 22  1  1  0  0  0  0
 24 25  2  0  0  0  0
 24 26  1  0  0  0  0
 26 27  1  0  0  0  0
M  END
>  <minimizedAffinity>
-4.96960306

$$$$

 OpenBabel03242513123D

 27 29  0  0  1  0  0  0  0  0999 V2000
   36.4810   28.6710   39.3540 C   0  0  0  0  0  0  0  0  0  0  0  0
   36.8180   29.1000   40.5550 C   0  0  0  0  0  0  0  0  0  0  0  0
   37.2550   28.1460   41.5110 N   0  0  0  0  0  0  0  0  0  0  0  0
   38.0880   27.7870   42.6040 C   0  0  0  0  0  0  0  0  0  0  0  0
   38.9430   28.4050   43.3250 O   0  0  0  0  0  0  0  0  0  0  0  0
   37.6280   26.3770   42.6510 C   0  0  1  0  0  3  0  0  0  0  0  0
   36.6950   26.7830   41.5680 C   0  0  2  0  0  3  0  0  0  0  0  0
   37.1230   26.0970   39.9180 S   0  0  0  0  0  0  0  0  0  0  0  0
   36.4650   27.3200   38.7630 C   0  0  0  0  0  3  0  0  0  0  0  0
   35.3710   27.0630   38.6430 H   0  0  0  0  0  0  0  0  0  0  0  0
   38.6640   25.3830   42.2820 C   0  0  0  0  0  0  0  0  0  0  0  0
   38.3510   24.2390   41.8650 O   0  0  0  0  0  0  0  0  0  0  0  0
   41.8990   26.7530   41.3670 C   0  0  0  0  0  0  0  0  0  0  0  0
   42.6510   26.7030   42.5440 C   0  0  0  0  0  0  0  0  0  0  0  0
   42.0230   26.1830   43.6790 C   0  0  0  0  0  0  0  0  0  0  0  0
   40.7400   25.7590   43.5920 N   0  0  0  0  0  0  0  0  0  0  0  0
   40.0490   25.8240   42.4370 C   0  0  0  0  0  0  0  0  0  0  0  0
   40.6430   26.3270   41.3240 N   0  0  0  0  0  0  0  0  0  0  0  0
   42.4510   27.1670   40.5300 H   0  0  0  0  0  0  0  0  0  0  0  0
   43.6740   27.0210   42.6910 H   0  0  0  0  0  0  0  0  0  0  0  0
   42.4640   26.0730   44.6740 H   0  0  0  0  0  0  0  0  0  0  0  0
   36.0300   29.7460   38.4120 C   0  0  0  0  0  2  0  0  0  0  0  0
   35.1410   30.2630   38.8140 H   0  0  0  0  0  0  0  0  0  0  0  0
   36.7620   30.5000   40.9440 C   0  0  0  0  0  0  0  0  0  0  0  0
   37.6350   31.3730   40.9290 O   0  0  0  0  0  0  0  0  0  0  0  0
   35.6030   31.0710   41.4250 O   0  0  0  0  0  0  0  0  0  0  0  0
   35.5580   31.7880   42.1280 H   0  0  0  0  0  0  0  0  0  0  0  0
  1  2  2  0  0  0  0
  2 24  1  0  0  0  0
  2  3  1  0  0  0  0
  3  7  1  0  0  0  0
  3  4  1  0  0  0  0
  4  6  1  0  0  0  0
  4  5  2  0  0  0  0
  6 11  1  6  0  0  0
  7  8  1  6  0  0  0
  7  6  1  0  0  0  0
  9  1  1  0  0  0  0
  9  8  1  0  0  0  0
 10  9  1  0  0  0  0
 11 17  1  0  0  0  0
 12 11  2  0  0  0  0
 13 14  1  0  0  0  0
 14 20  1  0  0  0  0
 14 15  2  0  0  0  0
 15 21  1  0  0  0  0
 16 15  1  0  0  0  0
 17 16  2  0  0  0  0
 18 13  2  0  0  0  0
 18 17  1  0  0  0  0
 19 13  1  0  0  0  0
 22 23  1  0  0  0  0
 22  1  1  0  0  0  0
 24 26  1  0  0  0  0
 25 24  2  0  0  0  0
 26 27  1  0  0  0  0
M  END
>  <minimizedAffinity>
-4.94641495

$$$$

 OpenBabel03242513123D

 27 29  0  0  1  0  0  0  0  0999 V2000
   38.2290   24.5560   41.2280 C   0  0  0  0  0  0  0  0  0  0  0  0
   37.1900   25.1450   40.6680 C   0  0  0  0  0  0  0  0  0  0  0  0
   36.8480   26.4540   41.0990 N   0  0  0  0  0  0  0  0  0  0  0  0
   36.3530   27.7550   40.8170 C   0  0  0  0  0  0  0  0  0  0  0  0
   35.8710   28.3310   39.7830 O   0  0  0  0  0  0  0  0  0  0  0  0
   36.5860   28.2740   42.1880 C   0  0  1  0  0  3  0  0  0  0  0  0
   37.0180   26.8860   42.4980 C   0  0  2  0  0  3  0  0  0  0  0  0
   38.8280   26.7100   42.7630 S   0  0  0  0  0  0  0  0  0  0  0  0
   39.1670   25.0050   42.2740 C   0  0  0  0  0  3  0  0  0  0  0  0
   38.9210   24.3770   43.1800 H   0  0  0  0  0  0  0  0  0  0  0  0
   37.6330   29.3190   42.2760 C   0  0  0  0  0  0  0  0  0  0  0  0
   38.3720   29.4170   43.2880 O   0  0  0  0  0  0  0  0  0  0  0  0
   38.9560   30.7340   39.2060 C   0  0  0  0  0  0  0  0  0  0  0  0
   38.0890   31.7870   38.8990 C   0  0  0  0  0  0  0  0  0  0  0  0
   37.0250   32.0120   39.7760 C   0  0  0  0  0  0  0  0  0  0  0  0
   36.8800   31.2170   40.8620 N   0  0  0  0  0  0  0  0  0  0  0  0
   37.7370   30.2100   41.1220 C   0  0  0  0  0  0  0  0  0  0  0  0
   38.7780   29.9770   40.2820 N   0  0  0  0  0  0  0  0  0  0  0  0
   39.7560   30.6200   38.4830 H   0  0  0  0  0  0  0  0  0  0  0  0
   38.1400   32.4630   38.0560 H   0  0  0  0  0  0  0  0  0  0  0  0
   36.2590   32.7890   39.6850 H   0  0  0  0  0  0  0  0  0  0  0  0
   38.5150   23.1760   40.7150 C   0  0  0  0  0  2  0  0  0  0  0  0
   37.6510   22.5120   40.8930 H   0  0  0  0  0  0  0  0  0  0  0  0
   36.3820   24.5190   39.6350 C   0  0  0  0  0  0  0  0  0  0  0  0
   35.4300   23.7370   39.7240 O   0  0  0  0  0  0  0  0  0  0  0  0
   36.6120   24.7510   38.2960 O   0  0  0  0  0  0  0  0  0  0  0  0
   36.4930   24.0760   37.5610 H   0  0  0  0  0  0  0  0  0  0  0  0
  1  9  1  0  0  0  0
  2  3  1  0  0  0  0
  2  1  2  0  0  0  0
  3  7  1  0  0  0  0
  4  3  1  0  0  0  0
  4  6  1  0  0  0  0
  5  4  2  0  0  0  0
  6 11  1  6  0  0  0
  6  7  1  0  0  0  0
  7  8  1  6  0  0  0
  9  8  1  0  0  0  0
  9 10  1  0  0  0  0
 11 12  2  0  0  0  0
 13 18  1  0  0  0  0
 14 13  2  0  0  0  0
 14 15  1  0  0  0  0
 15 16  2  0  0  0  0
 16 17  1  0  0  0  0
 17 11  1  0  0  0  0
 18 17  2  0  0  0  0
 19 13  1  0  0  0  0
 20 14  1  0  0  0  0
 21 15  1  0  0  0  0
 22 23  1  0  0  0  0
 22  1  1  0  0  0  0
 24 25  2  0  0  0  0
 24  2  1  0  0  0  0
 26 24  1  0  0  0  0
 27 26  1  0  0  0  0
M  END
>  <minimizedAffinity>
-4.84965515

$$$$

 OpenBabel03242513123D

 27 29  0  0  1  0  0  0  0  0999 V2000
   38.8750   26.2620   42.8220 C   0  0  0  0  0  0  0  0  0  0  0  0
   38.0800   25.9250   41.8250 C   0  0  0  0  0  0  0  0  0  0  0  0
   37.1740   26.9000   41.3300 N   0  0  0  0  0  0  0  0  0  0  0  0
   36.4690   27.4920   40.2490 C   0  0  0  0  0  0  0  0  0  0  0  0
   36.3540   27.2390   39.0020 O   0  0  0  0  0  0  0  0  0  0  0  0
   35.8660   28.5710   41.0720 C   0  0  1  0  0  3  0  0  0  0  0  0
   36.5340   27.8920   42.2130 C   0  0  2  0  0  3  0  0  0  0  0  0
   37.9690   28.8170   42.8950 S   0  0  0  0  0  0  0  0  0  0  0  0
   39.0280   27.5220   43.5730 C   0  0  0  0  0  3  0  0  0  0  0  0
   38.6150   27.3030   44.6020 H   0  0  0  0  0  0  0  0  0  0  0  0
   36.3520   29.9320   40.7460 C   0  0  0  0  0  0  0  0  0  0  0  0
   36.1230   30.9060   41.5080 O   0  0  0  0  0  0  0  0  0  0  0  0
   39.2070   29.9690   38.5040 C   0  0  0  0  0  0  0  0  0  0  0  0
   38.6650   30.2510   37.2460 C   0  0  0  0  0  0  0  0  0  0  0  0
   37.2820   30.4320   37.1740 C   0  0  0  0  0  0  0  0  0  0  0  0
   36.5390   30.3290   38.3020 N   0  0  0  0  0  0  0  0  0  0  0  0
   37.1000   30.0560   39.4970 C   0  0  0  0  0  0  0  0  0  0  0  0
   38.4430   29.8770   39.5860 N   0  0  0  0  0  0  0  0  0  0  0  0
   40.2830   29.8420   38.4830 H   0  0  0  0  0  0  0  0  0  0  0  0
   39.1910   30.3480   36.3060 H   0  0  0  0  0  0  0  0  0  0  0  0
   36.7000   30.6560   36.2750 H   0  0  0  0  0  0  0  0  0  0  0  0
   39.7960   25.1720   43.2810 C   0  0  0  0  0  2  0  0  0  0  0  0
   39.2160   24.3000   43.6320 H   0  0  0  0  0  0  0  0  0  0  0  0
   38.0870   24.6070   41.2120 C   0  0  0  0  0  0  0  0  0  0  0  0
   37.4440   23.5890   41.4900 O   0  0  0  0  0  0  0  0  0  0  0  0
   38.8980   24.3120   40.1380 O   0  0  0  0  0  0  0  0  0  0  0  0
   39.3360   23.4240   39.9680 H   0  0  0  0  0  0  0  0  0  0  0  0
  1 22  1  0  0  0  0
  1  9  1  0  0  0  0
  2  1  2  0  0  0  0
  3  2  1  0  0  0  0
  3  7  1  0  0  0  0
  4  6  1  0  0  0  0
  4  3  1  0  0  0  0
  5  4  2  0  0  0  0
  6 11  1  6  0  0  0
  6  7  1  0  0  0  0
  7  8  1  6  0  0  0
  8  9  1  0  0  0  0
  9 10  1  0  0  0  0
 11 12  2  0  0  0  0
 13 18  1  0  0  0  0
 14 13  2  0  0  0  0
 15 14  1  0  0  0  0
 15 16  2  0  0  0  0
 16 17  1  0  0  0  0
 17 18  2  0  0  0  0
 17 11  1  0  0  0  0
 19 13  1  0  0  0  0
 20 14  1  0  0  0  0
 21 15  1  0  0  0  0
 22 23  1  0  0  0  0
 24 25  2  0  0  0  0
 24  2  1  0  0  0  0
 26 24  1  0  0  0  0
 27 26  1  0  0  0  0
M  END
>  <minimizedAffinity>
-4.84460211

$$$$
