
 OpenBabel03242513263D

 37 40  0  0  1  0  0  0  0  0999 V2000
   46.3660   33.9260   40.9540 C   0  0  0  0  0  0  0  0  0  0  0  0
   46.8580   34.7370   41.9370 C   0  0  0  0  0  0  0  0  0  0  0  0
   48.0440   35.3830   41.6850 C   0  0  0  0  0  0  0  0  0  0  0  0
   48.7170   35.2220   40.4850 C   0  0  0  0  0  0  0  0  0  0  0  0
   48.2120   34.4160   39.5240 C   0  0  0  0  0  0  0  0  0  0  0  0
   47.0050   33.7330   39.7290 C   0  0  0  0  0  0  0  0  0  0  0  0
   48.4580   36.0320   42.4450 H   0  0  0  0  0  0  0  0  0  0  0  0
   49.6560   35.7270   40.2720 H   0  0  0  0  0  0  0  0  0  0  0  0
   48.7250   34.2800   38.5830 H   0  0  0  0  0  0  0  0  0  0  0  0
   44.5410   36.0310   44.6240 C   0  0  0  0  0  0  0  0  0  0  0  0
   45.2530   35.9410   43.4150 C   0  0  0  0  0  0  0  0  0  0  0  0
   46.1090   34.8640   43.1620 C   0  0  0  0  0  0  0  0  0  0  0  0
   46.1870   33.9510   44.1490 N   0  0  0  0  0  0  0  0  0  0  0  0
   45.5010   34.0410   45.3050 C   0  0  0  0  0  0  0  0  0  0  0  0
   44.6840   35.0680   45.5490 N   0  0  0  0  0  0  0  0  0  0  0  0
   43.9040   36.9000   44.7290 H   0  0  0  0  0  0  0  0  0  0  0  0
   45.1600   36.7010   42.6500 H   0  0  0  0  0  0  0  0  0  0  0  0
   45.6600   33.2320   46.0110 H   0  0  0  0  0  0  0  0  0  0  0  0
   45.1730   33.2520   41.1600 O   0  0  0  0  0  0  0  0  0  0  0  0
   45.2670   32.2510   41.3090 H   0  0  0  0  0  0  0  0  0  0  0  0
   46.4250   32.8930   38.7980 O   0  0  0  0  0  0  0  0  0  0  0  0
   46.2330   33.4570   37.4880 C   0  0  0  0  0  2  0  0  0  0  0  0
   46.0990   32.4170   36.4670 C   0  0  0  0  0  0  0  0  0  0  0  0
   47.0470   31.9930   35.6850 C   0  0  0  0  0  0  0  0  0  0  0  0
   46.7570   30.9770   34.7390 N   0  0  0  0  0  0  0  0  0  0  0  0
   47.2170   29.7930   34.0840 C   0  0  0  0  0  0  0  0  0  0  0  0
   48.2730   29.0750   34.0100 O   0  0  0  0  0  0  0  0  0  0  0  0
   45.9130   29.6060   33.4100 C   0  0  0  0  0  3  0  0  0  0  0  0
   45.3360   28.7200   33.7440 H   0  0  0  0  0  0  0  0  0  0  0  0
   45.4930   30.9190   33.9840 C   0  0  1  0  0  3  0  0  0  0  0  0
   44.2080   30.8000   35.2750 S   0  0  0  0  0  0  0  0  0  0  0  0
   44.6810   31.9910   36.5570 C   0  0  0  0  0  3  0  0  0  0  0  0
   43.9740   32.8630   36.4140 H   0  0  0  0  0  0  0  0  0  0  0  0
   48.4060   32.5170   35.7290 C   0  0  0  0  0  0  0  0  0  0  0  0
   49.2980   32.7040   36.5900 O   0  0  0  0  0  0  0  0  0  0  0  0
   49.0830   32.9930   34.6270 O   0  0  0  0  0  0  0  0  0  0  0  0
   50.0170   32.7500   34.3250 H   0  0  0  0  0  0  0  0  0  0  0  0
  1 19  1  0  0  0  0
  1  2  1  0  0  0  0
  2 12  1  0  0  0  0
  3  2  2  0  0  0  0
  3  7  1  0  0  0  0
  4  3  1  0  0  0  0
  5  6  1  0  0  0  0
  5  4  2  0  0  0  0
  6  1  2  0  0  0  0
  8  4  1  0  0  0  0
  9  5  1  0  0  0  0
 10 16  1  0  0  0  0
 10 15  1  0  0  0  0
 11 10  2  0  0  0  0
 12 11  1  0  0  0  0
 12 13  2  0  0  0  0
 13 14  1  0  0  0  0
 14 15  2  0  0  0  0
 14 18  1  0  0  0  0
 17 11  1  0  0  0  0
 19 20  1  0  0  0  0
 21  6  1  0  0  0  0
 22 21  1  0  0  0  0
 23 32  1  0  0  0  0
 23 22  1  0  0  0  0
 24 34  1  0  0  0  0
 24 23  2  0  0  0  0
 25 24  1  0  0  0  0
 26 25  1  0  0  0  0
 27 26  2  0  0  0  0
 28 29  1  0  0  0  0
 28 26  1  0  0  0  0
 30 28  1  6  0  0  0
 30 25  1  0  0  0  0
 30 31  1  0  0  0  0
 31 32  1  0  0  0  0
 33 32  1  0  0  0  0
 34 35  2  0  0  0  0
 36 34  1  0  0  0  0
 37 36  1  0  0  0  0
M  END
>  <minimizedAffinity>
-6.15141726

>  <minimizedRMSD>
1.11047685

$$$$
