
 OpenBabel03242515423D

 45 49  0  0  1  0  0  0  0  0999 V2000
   43.8660   33.4870   39.1940 C   0  0  0  0  0  0  0  0  0  0  0  0
   44.2790   32.3060   38.6620 C   0  0  0  0  0  0  0  0  0  0  0  0
   45.4530   31.7820   39.2390 C   0  0  0  0  0  0  0  0  0  0  0  0
   46.0990   32.4340   40.2340 N   0  0  0  0  0  0  0  0  0  0  0  0
   45.6470   33.6110   40.7160 C   0  0  0  0  0  0  0  0  0  0  0  0
   44.5440   34.0830   40.1730 N   0  0  0  0  0  0  0  0  0  0  0  0
   45.9690   30.5170   38.8200 N   0  0  0  0  0  0  0  0  0  0  0  0
   45.8350   29.7770   39.5710 H   0  0  0  0  0  0  0  0  0  0  0  0
   46.3630   30.6410   37.8490 H   0  0  0  0  0  0  0  0  0  0  0  0
   42.3220   34.1420   38.5130 S   0  0  0  0  0  0  0  0  0  0  0  0
   39.8670   33.2000   38.1450 C   0  0  0  0  0  0  0  0  0  0  0  0
   40.9260   33.1840   39.0740 C   0  0  0  0  0  0  0  0  0  0  0  0
   40.8620   32.4430   40.2530 C   0  0  0  0  0  0  0  0  0  0  0  0
   39.7380   31.7050   40.5220 C   0  0  0  0  0  0  0  0  0  0  0  0
   38.6750   31.7030   39.6190 C   0  0  0  0  0  0  0  0  0  0  0  0
   38.7240   32.4330   38.4480 C   0  0  0  0  0  0  0  0  0  0  0  0
   37.6660   30.8590   40.1630 O   0  0  0  0  0  0  0  0  0  0  0  0
   37.9820   30.7130   41.5060 C   0  0  0  0  0  0  0  0  0  0  0  0
   39.3840   30.8790   41.5880 O   0  0  0  0  0  0  0  0  0  0  0  0
   39.8580   33.7550   37.2200 H   0  0  0  0  0  0  0  0  0  0  0  0
   41.7100   32.4980   40.8870 H   0  0  0  0  0  0  0  0  0  0  0  0
   37.8950   32.4230   37.7580 H   0  0  0  0  0  0  0  0  0  0  0  0
   37.6280   29.7860   41.9830 H   0  0  0  0  0  0  0  0  0  0  0  0
   37.5310   31.5760   42.0680 H   0  0  0  0  0  0  0  0  0  0  0  0
   46.2570   34.3240   41.7040 O   0  0  0  0  0  0  0  0  0  0  0  0
   47.5860   34.7450   41.5120 C   0  0  0  0  0  0  0  0  0  0  0  0
   48.4760   33.8340   42.0420 F   0  0  0  0  0  0  0  0  0  0  0  0
   47.7700   34.8940   40.1340 F   0  0  0  0  0  0  0  0  0  0  0  0
   47.7630   35.9420   42.1840 F   0  0  0  0  0  0  0  0  0  0  0  0
   43.9330   31.4370   37.5230 C   0  0  0  0  0  2  0  0  0  0  0  0
   42.8180   30.5130   37.6120 C   0  0  0  0  0  0  0  0  0  0  0  0
   42.2660   29.5810   38.3620 C   0  0  0  0  0  0  0  0  0  0  0  0
   41.0940   28.8490   38.0440 N   0  0  0  0  0  0  0  0  0  0  0  0
   39.7910   28.4320   38.4050 C   0  0  0  0  0  0  0  0  0  0  0  0
   39.2670   28.1790   39.5230 O   0  0  0  0  0  0  0  0  0  0  0  0
   39.4800   28.4680   36.9320 C   0  0  0  0  0  3  0  0  0  0  0  0
   38.8170   27.6900   36.5620 H   0  0  0  0  0  0  0  0  0  0  0  0
   40.9320   28.0780   36.7980 C   0  0  1  0  0  3  0  0  0  0  0  0
   41.8700   29.0770   35.5750 S   0  0  0  0  0  0  0  0  0  0  0  0
   41.9420   30.7250   36.3880 C   0  0  0  0  0  3  0  0  0  0  0  0
   42.3340   31.4070   35.6570 H   0  0  0  0  0  0  0  0  0  0  0  0
   42.9680   29.2920   39.6110 C   0  0  0  0  0  0  0  0  0  0  0  0
   43.8540   28.7600   40.3210 O   0  0  0  0  0  0  0  0  0  0  0  0
   42.9390   29.5800   40.9470 O   0  0  0  0  0  0  0  0  0  0  0  0
   43.1730   30.5100   41.3560 H   0  0  0  0  0  0  0  0  0  0  0  0
  1  6  1  0  0  0  0
  2  1  2  0  0  0  0
  2  3  1  0  0  0  0
  3  4  2  0  0  0  0
  4  5  1  0  0  0  0
  5 25  1  0  0  0  0
  6  5  2  0  0  0  0
  7  3  1  0  0  0  0
  7  8  1  0  0  0  0
  9  7  1  0  0  0  0
 10 12  1  0  0  0  0
 10  1  1  0  0  0  0
 11 16  2  0  0  0  0
 11 12  1  0  0  0  0
 12 13  2  0  0  0  0
 13 14  1  0  0  0  0
 13 21  1  0  0  0  0
 14 19  1  0  0  0  0
 15 17  1  0  0  0  0
 15 14  2  0  0  0  0
 16 15  1  0  0  0  0
 17 18  1  0  0  0  0
 18 19  1  0  0  0  0
 18 23  1  0  0  0  0
 18 24  1  0  0  0  0
 20 11  1  0  0  0  0
 22 16  1  0  0  0  0
 26 25  1  0  0  0  0
 26 27  1  0  0  0  0
 26 29  1  0  0  0  0
 28 26  1  0  0  0  0
 30 31  1  0  0  0  0
 30  2  1  0  0  0  0
 31 32  2  0  0  0  0
 32 42  1  0  0  0  0
 33 32  1  0  0  0  0
 33 34  1  0  0  0  0
 34 35  2  0  0  0  0
 36 34  1  0  0  0  0
 37 36  1  0  0  0  0
 38 39  1  6  0  0  0
 38 36  1  0  0  0  0
 38 33  1  0  0  0  0
 39 40  1  0  0  0  0
 40 31  1  0  0  0  0
 41 40  1  0  0  0  0
 42 43  2  0  0  0  0
 42 44  1  0  0  0  0
 44 45  1  0  0  0  0
M  END
>  <minimizedAffinity>
-4.23929501

>  <minimizedRMSD>
1.78580129

$$$$
