
 OpenBabel03242514333D

 33 36  0  0  1  0  0  0  0  0999 V2000
   48.0100   33.7520   39.8640 C   0  0  1  0  0  3  0  0  0  0  0  0
   46.7400   33.9370   39.9550 O   0  0  0  0  0  0  0  0  0  0  0  0
   50.7480   31.2990   37.3770 C   0  0  0  0  0  0  0  0  0  0  0  0
   49.6140   31.5700   36.7530 C   0  0  0  0  0  0  0  0  0  0  0  0
   48.4970   32.0730   37.4730 N   0  0  0  0  0  0  0  0  0  0  0  0
   47.4730   33.0960   37.4950 C   0  0  0  0  0  0  0  0  0  0  0  0
   46.9310   33.8850   36.6460 O   0  0  0  0  0  0  0  0  0  0  0  0
   47.3390   32.8230   38.9240 C   0  0  1  0  0  0  0  0  0  0  0  0
   47.9960   31.4910   38.7030 C   0  0  2  0  0  3  0  0  0  0  0  0
   49.3900   31.1090   39.7560 S   0  0  0  0  0  0  0  0  0  0  0  0
   50.8950   31.5300   38.8370 C   0  0  0  0  0  3  0  0  0  0  0  0
   51.0520   32.6310   39.0230 H   0  0  0  0  0  0  0  0  0  0  0  0
   51.8550   30.7740   36.5880 C   0  0  0  0  0  2  0  0  0  0  0  0
   52.7320   30.6120   37.2780 H   0  0  0  0  0  0  0  0  0  0  0  0
   49.5000   31.3400   35.3030 C   0  0  0  0  0  0  0  0  0  0  0  0
   49.0770   30.2880   34.7670 O   0  0  0  0  0  0  0  0  0  0  0  0
   49.8230   32.2010   34.2970 O   0  0  0  0  0  0  0  0  0  0  0  0
   50.4610   31.9300   33.5610 H   0  0  0  0  0  0  0  0  0  0  0  0
   48.6860   34.5770   40.7040 O   0  0  0  0  0  0  0  0  0  0  0  0
   49.5440   35.3840   42.9850 O   0  0  0  0  0  0  0  0  0  0  0  0
   49.2940   34.1330   42.1940 P   0  0  2  0  0  0  0  0  0  0  0  0
   50.7790   33.3750   41.9910 O   0  0  0  0  0  0  0  0  0  0  0  0
   50.6860   32.4510   41.6400 H   0  0  0  0  0  0  0  0  0  0  0  0
   48.1930   33.1120   43.0110 O   0  0  0  0  0  0  0  0  0  0  0  0
   46.3880   34.6880   43.1890 C   0  0  0  0  0  0  0  0  0  0  0  0
   47.1390   33.6470   43.7600 C   0  0  0  0  0  0  0  0  0  0  0  0
   46.7970   33.2050   45.0330 C   0  0  0  0  0  0  0  0  0  0  0  0
   45.7560   33.7900   45.6760 N   0  0  0  0  0  0  0  0  0  0  0  0
   45.0540   34.7920   45.0990 C   0  0  0  0  0  0  0  0  0  0  0  0
   45.3760   35.2240   43.8730 N   0  0  0  0  0  0  0  0  0  0  0  0
   46.5770   35.1020   42.2050 H   0  0  0  0  0  0  0  0  0  0  0  0
   47.4120   32.4050   45.4100 H   0  0  0  0  0  0  0  0  0  0  0  0
   44.2560   35.1520   45.7380 H   0  0  0  0  0  0  0  0  0  0  0  0
  1  2  1  0  0  0  0
  1 19  1  6  0  0  0
  3 11  1  0  0  0  0
  4  3  2  0  0  0  0
  4  5  1  0  0  0  0
  5  6  1  0  0  0  0
  5  9  1  0  0  0  0
  7  6  2  0  0  0  0
  8  6  1  6  0  0  0
  8  1  1  0  0  0  0
  8  2  1  0  0  0  0
  9  8  1  0  0  0  0
  9 10  1  1  0  0  0
 11 12  1  0  0  0  0
 11 10  1  0  0  0  0
 13 14  1  0  0  0  0
 13  3  1  0  0  0  0
 15  4  1  0  0  0  0
 16 15  2  0  0  0  0
 17 15  1  0  0  0  0
 18 17  1  0  0  0  0
 19 21  1  0  0  0  0
 21 20  2  1  0  0  0
 21 24  1  0  0  0  0
 22 21  1  0  0  0  0
 23 22  1  0  0  0  0
 24 26  1  0  0  0  0
 25 26  2  0  0  0  0
 25 30  1  0  0  0  0
 26 27  1  0  0  0  0
 27 32  1  0  0  0  0
 27 28  2  0  0  0  0
 29 28  1  0  0  0  0
 29 33  1  0  0  0  0
 30 29  2  0  0  0  0
 31 25  1  0  0  0  0
M  END
>  <minimizedAffinity>
-4.73844862

>  <minimizedRMSD>
1.2307564

$$$$
