
 OpenBabel03242513263D

 37 40  0  0  1  0  0  0  0  0999 V2000
   46.3540   33.8850   40.9890 C   0  0  0  0  0  0  0  0  0  0  0  0
   46.8400   34.7180   41.9570 C   0  0  0  0  0  0  0  0  0  0  0  0
   48.0160   35.3760   41.6870 C   0  0  0  0  0  0  0  0  0  0  0  0
   48.6840   35.2070   40.4860 C   0  0  0  0  0  0  0  0  0  0  0  0
   48.1850   34.3780   39.5410 C   0  0  0  0  0  0  0  0  0  0  0  0
   46.9890   33.6810   39.7640 C   0  0  0  0  0  0  0  0  0  0  0  0
   48.4250   36.0440   42.4340 H   0  0  0  0  0  0  0  0  0  0  0  0
   49.6140   35.7220   40.2590 H   0  0  0  0  0  0  0  0  0  0  0  0
   48.6950   34.2350   38.6000 H   0  0  0  0  0  0  0  0  0  0  0  0
   44.5380   36.0320   44.6450 C   0  0  0  0  0  0  0  0  0  0  0  0
   45.2450   35.9340   43.4350 C   0  0  0  0  0  0  0  0  0  0  0  0
   46.0970   34.8530   43.1840 C   0  0  0  0  0  0  0  0  0  0  0  0
   46.1760   33.9460   44.1750 N   0  0  0  0  0  0  0  0  0  0  0  0
   45.4960   34.0440   45.3340 C   0  0  0  0  0  0  0  0  0  0  0  0
   44.6820   35.0740   45.5760 N   0  0  0  0  0  0  0  0  0  0  0  0
   43.9030   36.9030   44.7490 H   0  0  0  0  0  0  0  0  0  0  0  0
   45.1500   36.6900   42.6650 H   0  0  0  0  0  0  0  0  0  0  0  0
   45.6560   33.2390   46.0440 H   0  0  0  0  0  0  0  0  0  0  0  0
   45.1720   33.1970   41.2140 O   0  0  0  0  0  0  0  0  0  0  0  0
   45.2820   32.2000   41.3770 H   0  0  0  0  0  0  0  0  0  0  0  0
   46.4160   32.8190   38.8490 O   0  0  0  0  0  0  0  0  0  0  0  0
   46.0590   33.4030   37.5830 C   0  0  0  0  0  2  0  0  0  0  0  0
   45.9450   32.3890   36.5340 C   0  0  0  0  0  0  0  0  0  0  0  0
   46.8830   32.0490   35.7010 C   0  0  0  0  0  0  0  0  0  0  0  0
   46.6140   31.0470   34.7330 N   0  0  0  0  0  0  0  0  0  0  0  0
   47.1160   29.9150   34.0210 C   0  0  0  0  0  0  0  0  0  0  0  0
   48.2100   29.2670   33.8800 O   0  0  0  0  0  0  0  0  0  0  0  0
   45.7990   29.6700   33.3950 C   0  0  0  0  0  3  0  0  0  0  0  0
   45.2900   28.7390   33.7210 H   0  0  0  0  0  0  0  0  0  0  0  0
   45.3250   30.9360   34.0300 C   0  0  1  0  0  3  0  0  0  0  0  0
   44.1050   30.6970   35.3660 S   0  0  0  0  0  0  0  0  0  0  0  0
   44.5610   31.8740   36.6680 C   0  0  0  0  0  3  0  0  0  0  0  0
   43.7970   32.7060   36.5830 H   0  0  0  0  0  0  0  0  0  0  0  0
   48.2090   32.6550   35.7060 C   0  0  0  0  0  0  0  0  0  0  0  0
   49.1570   32.7960   36.5140 O   0  0  0  0  0  0  0  0  0  0  0  0
   48.7630   33.3010   34.6250 O   0  0  0  0  0  0  0  0  0  0  0  0
   49.6810   33.1610   34.2250 H   0  0  0  0  0  0  0  0  0  0  0  0
  1 19  1  0  0  0  0
  1  2  1  0  0  0  0
  2 12  1  0  0  0  0
  3  2  2  0  0  0  0
  3  7  1  0  0  0  0
  4  3  1  0  0  0  0
  5  6  1  0  0  0  0
  5  4  2  0  0  0  0
  6  1  2  0  0  0  0
  8  4  1  0  0  0  0
  9  5  1  0  0  0  0
 10 16  1  0  0  0  0
 10 15  1  0  0  0  0
 11 10  2  0  0  0  0
 12 11  1  0  0  0  0
 12 13  2  0  0  0  0
 13 14  1  0  0  0  0
 14 15  2  0  0  0  0
 14 18  1  0  0  0  0
 17 11  1  0  0  0  0
 19 20  1  0  0  0  0
 21  6  1  0  0  0  0
 22 21  1  0  0  0  0
 23 32  1  0  0  0  0
 23 22  1  0  0  0  0
 24 34  1  0  0  0  0
 24 23  2  0  0  0  0
 25 24  1  0  0  0  0
 26 25  1  0  0  0  0
 27 26  2  0  0  0  0
 28 29  1  0  0  0  0
 28 26  1  0  0  0  0
 30 28  1  6  0  0  0
 30 25  1  0  0  0  0
 30 31  1  0  0  0  0
 31 32  1  0  0  0  0
 33 32  1  0  0  0  0
 34 35  2  0  0  0  0
 36 34  1  0  0  0  0
 37 36  1  0  0  0  0
M  END
>  <minimizedAffinity>
-6.17469168

>  <minimizedRMSD>
1.34885657

$$$$
