
 OpenBabel03242513263D

 37 40  0  0  1  0  0  0  0  0999 V2000
   46.1370   33.9110   41.1860 C   0  0  0  0  0  0  0  0  0  0  0  0
   46.6800   34.7060   42.1550 C   0  0  0  0  0  0  0  0  0  0  0  0
   47.8680   35.3320   41.8620 C   0  0  0  0  0  0  0  0  0  0  0  0
   48.4930   35.1680   40.6360 C   0  0  0  0  0  0  0  0  0  0  0  0
   47.9370   34.3760   39.6910 C   0  0  0  0  0  0  0  0  0  0  0  0
   46.7260   33.7140   39.9370 C   0  0  0  0  0  0  0  0  0  0  0  0
   48.3220   35.9700   42.6090 H   0  0  0  0  0  0  0  0  0  0  0  0
   49.4320   35.6580   40.3910 H   0  0  0  0  0  0  0  0  0  0  0  0
   48.4120   34.2380   38.7310 H   0  0  0  0  0  0  0  0  0  0  0  0
   44.4650   36.0070   44.9220 C   0  0  0  0  0  0  0  0  0  0  0  0
   45.1280   35.9120   43.6870 C   0  0  0  0  0  0  0  0  0  0  0  0
   45.9810   34.8390   43.4090 C   0  0  0  0  0  0  0  0  0  0  0  0
   46.1060   33.9360   44.3990 N   0  0  0  0  0  0  0  0  0  0  0  0
   45.4670   34.0310   45.5810 C   0  0  0  0  0  0  0  0  0  0  0  0
   44.6520   35.0540   45.8500 N   0  0  0  0  0  0  0  0  0  0  0  0
   43.8250   36.8720   45.0460 H   0  0  0  0  0  0  0  0  0  0  0  0
   44.9970   36.6640   42.9190 H   0  0  0  0  0  0  0  0  0  0  0  0
   45.6610   33.2300   46.2870 H   0  0  0  0  0  0  0  0  0  0  0  0
   44.9410   33.2570   41.4340 O   0  0  0  0  0  0  0  0  0  0  0  0
   45.0230   32.2530   41.5740 H   0  0  0  0  0  0  0  0  0  0  0  0
   46.0970   32.8910   39.0240 O   0  0  0  0  0  0  0  0  0  0  0  0
   46.8830   32.5180   37.8780 C   0  0  0  0  0  2  0  0  0  0  0  0
   47.7020   31.3350   38.1470 C   0  0  0  0  0  0  0  0  0  0  0  0
   48.9820   31.2350   37.9490 C   0  0  0  0  0  0  0  0  0  0  0  0
   49.6360   30.0140   38.2560 N   0  0  0  0  0  0  0  0  0  0  0  0
   50.8020   29.3910   38.7950 C   0  0  0  0  0  0  0  0  0  0  0  0
   51.9600   29.7160   39.2320 O   0  0  0  0  0  0  0  0  0  0  0  0
   50.1890   28.0480   38.6860 C   0  0  0  0  0  3  0  0  0  0  0  0
   49.9640   27.5570   39.6550 H   0  0  0  0  0  0  0  0  0  0  0  0
   49.0360   28.6950   37.9930 C   0  0  1  0  0  3  0  0  0  0  0  0
   47.4870   28.7060   38.9580 S   0  0  0  0  0  0  0  0  0  0  0  0
   46.7440   30.3380   38.6840 C   0  0  0  0  0  3  0  0  0  0  0  0
   45.8930   30.1470   37.9620 H   0  0  0  0  0  0  0  0  0  0  0  0
   49.7900   32.3240   37.4150 C   0  0  0  0  0  0  0  0  0  0  0  0
   49.6090   33.3640   36.7360 O   0  0  0  0  0  0  0  0  0  0  0  0
   51.1520   32.4310   37.5900 O   0  0  0  0  0  0  0  0  0  0  0  0
   51.6720   33.2370   37.9080 H   0  0  0  0  0  0  0  0  0  0  0  0
  1 19  1  0  0  0  0
  1  2  1  0  0  0  0
  2 12  1  0  0  0  0
  3  2  2  0  0  0  0
  3  7  1  0  0  0  0
  4  3  1  0  0  0  0
  5  6  1  0  0  0  0
  5  4  2  0  0  0  0
  6  1  2  0  0  0  0
  8  4  1  0  0  0  0
  9  5  1  0  0  0  0
 10 16  1  0  0  0  0
 10 15  1  0  0  0  0
 11 10  2  0  0  0  0
 12 11  1  0  0  0  0
 12 13  2  0  0  0  0
 13 14  1  0  0  0  0
 14 15  2  0  0  0  0
 14 18  1  0  0  0  0
 17 11  1  0  0  0  0
 19 20  1  0  0  0  0
 21  6  1  0  0  0  0
 22 23  1  0  0  0  0
 22 21  1  0  0  0  0
 23 32  1  0  0  0  0
 24 23  2  0  0  0  0
 24 25  1  0  0  0  0
 25 26  1  0  0  0  0
 26 27  2  0  0  0  0
 28 26  1  0  0  0  0
 28 29  1  0  0  0  0
 30 25  1  0  0  0  0
 30 28  1  1  0  0  0
 30 31  1  0  0  0  0
 32 31  1  0  0  0  0
 33 32  1  0  0  0  0
 34 36  1  0  0  0  0
 34 24  1  0  0  0  0
 35 34  2  0  0  0  0
 36 37  1  0  0  0  0
M  END
>  <minimizedAffinity>
-5.38338089

>  <minimizedRMSD>
1.70701206

$$$$
