
 OpenBabel03242523333D

 44 48  0  0  1  0  0  0  0  0999 V2000
   44.5630   36.1410   44.2570 C   0  0  0  0  0  0  0  0  0  0  0  0
   45.4350   35.9500   43.1800 C   0  0  0  0  0  0  0  0  0  0  0  0
   46.3360   34.8810   43.1720 C   0  0  0  0  0  0  0  0  0  0  0  0
   46.3310   34.0300   44.2560 N   0  0  0  0  0  0  0  0  0  0  0  0
   45.4780   34.2320   45.2920 C   0  0  0  0  0  0  0  0  0  0  0  0
   44.6210   35.2710   45.2720 N   0  0  0  0  0  0  0  0  0  0  0  0
   43.8750   36.9750   44.2420 H   0  0  0  0  0  0  0  0  0  0  0  0
   45.4410   36.6060   42.3410 H   0  0  0  0  0  0  0  0  0  0  0  0
   45.5650   33.2570   46.4050 C   0  0  0  0  0  0  0  0  0  0  0  0
   45.9840   33.8060   47.2440 H   0  0  0  0  0  0  0  0  0  0  0  0
   44.5450   32.9030   46.7180 H   0  0  0  0  0  0  0  0  0  0  0  0
   46.5050   31.8430   45.8270 S   0  0  0  0  0  0  0  0  0  0  0  0
   47.5170   31.1810   47.1310 C   0  0  0  0  0  0  0  0  0  0  0  0
   47.8080   31.9990   48.2020 C   0  0  0  0  0  0  0  0  0  0  0  0
   48.5860   31.4950   49.2000 C   0  0  0  0  0  0  0  0  0  0  0  0
   49.0910   30.1840   49.1660 C   0  0  0  0  0  0  0  0  0  0  0  0
   49.8520   29.7390   50.1820 N   0  0  0  0  0  0  0  0  0  0  0  0
   50.3520   28.4850   50.1780 C   0  0  0  0  0  0  0  0  0  0  0  0
   50.0720   27.6690   49.1270 C   0  0  0  0  0  0  0  0  0  0  0  0
   49.2910   28.1370   48.0960 C   0  0  0  0  0  0  0  0  0  0  0  0
   48.7560   29.4170   48.0550 C   0  0  0  0  0  0  0  0  0  0  0  0
   47.9780   29.8900   47.0320 C   0  0  0  0  0  0  0  0  0  0  0  0
   47.4810   33.0200   48.3430 H   0  0  0  0  0  0  0  0  0  0  0  0
   48.8540   32.0930   50.0810 H   0  0  0  0  0  0  0  0  0  0  0  0
   50.9530   28.2080   51.0320 H   0  0  0  0  0  0  0  0  0  0  0  0
   50.4630   26.6580   49.1050 H   0  0  0  0  0  0  0  0  0  0  0  0
   49.0830   27.4650   47.2690 H   0  0  0  0  0  0  0  0  0  0  0  0
   47.7600   29.2510   46.2120 H   0  0  0  0  0  0  0  0  0  0  0  0
   47.3160   34.6220   42.1370 C   0  0  0  0  0  2  0  0  0  0  0  0
   47.0310   33.7460   41.0300 C   0  0  0  0  0  0  0  0  0  0  0  0
   45.9800   33.0090   40.6950 C   0  0  0  0  0  0  0  0  0  0  0  0
   45.8930   32.1930   39.5060 N   0  0  0  0  0  0  0  0  0  0  0  0
   45.5400   30.9790   38.8580 C   0  0  0  0  0  0  0  0  0  0  0  0
   44.5690   30.2070   39.1200 O   0  0  0  0  0  0  0  0  0  0  0  0
   46.7390   31.2330   37.9780 C   0  0  0  0  0  3  0  0  0  0  0  0
   46.6210   30.8620   36.9530 H   0  0  0  0  0  0  0  0  0  0  0  0
   46.3440   32.6730   38.2070 C   0  0  2  0  0  3  0  0  0  0  0  0
   47.6980   33.8510   38.3790 S   0  0  0  0  0  0  0  0  0  0  0  0
   48.1970   33.6810   40.1120 C   0  0  0  0  0  3  0  0  0  0  0  0
   48.7550   32.7250   40.2470 H   0  0  0  0  0  0  0  0  0  0  0  0
   44.8470   33.0580   41.6110 C   0  0  0  0  0  2  0  0  0  0  0  0
   43.7110   33.4330   41.1550 O   0  0  0  0  0  0  0  0  0  0  0  0
   43.7500   33.1170   42.4500 O   0  0  0  0  0  0  0  0  0  0  0  0
   43.6890   32.5430   43.2940 H   0  0  0  0  0  0  0  0  0  0  0  0
  1  6  1  0  0  0  0
  2  1  2  0  0  0  0
  3  2  1  0  0  0  0
  3  4  2  0  0  0  0
  4  5  1  0  0  0  0
  5  9  1  0  0  0  0
  6  5  2  0  0  0  0
  7  1  1  0  0  0  0
  8  2  1  0  0  0  0
  9 11  1  0  0  0  0
  9 10  1  0  0  0  0
 12  9  1  0  0  0  0
 12 13  1  0  0  0  0
 13 14  1  0  0  0  0
 14 23  1  0  0  0  0
 14 15  2  0  0  0  0
 15 24  1  0  0  0  0
 16 15  1  0  0  0  0
 16 17  1  0  0  0  0
 18 17  2  0  0  0  0
 18 25  1  0  0  0  0
 19 18  1  0  0  0  0
 20 19  2  0  0  0  0
 21 20  1  0  0  0  0
 21 16  2  0  0  0  0
 22 13  2  0  0  0  0
 22 21  1  0  0  0  0
 26 19  1  0  0  0  0
 27 20  1  0  0  0  0
 28 22  1  0  0  0  0
 29  3  1  0  0  0  0
 30 29  1  0  0  0  0
 31 30  2  0  0  0  0
 31 41  1  0  0  0  0
 32 31  1  0  0  0  0
 33 34  2  0  0  0  0
 33 32  1  0  0  0  0
 35 33  1  0  0  0  0
 36 35  1  0  0  0  0
 37 35  1  6  0  0  0
 37 38  1  0  0  0  0
 37 32  1  0  0  0  0
 38 39  1  0  0  0  0
 39 40  1  0  0  0  0
 39 30  1  0  0  0  0
 42 41  1  0  0  0  0
 42 43  1  0  0  0  0
 43 44  1  0  0  0  0
M  END
>  <minimizedAffinity>
-6.09830856

>  <minimizedRMSD>
1.56712842

$$$$
