
 OpenBabel03252503093D

 34 38  0  0  1  0  0  0  0  0999 V2000
   46.3550   34.8220   42.1860 C   0  0  2  0  0  3  0  0  0  0  0  0
   47.3860   35.5770   42.0250 O   0  0  0  0  0  1  0  0  0  0  0  0
   43.1920   31.7650   39.1860 C   0  0  0  0  0  0  0  0  0  0  0  0
   42.7950   32.8550   39.7760 C   0  0  0  0  0  0  0  0  0  0  0  0
   43.6340   33.6810   40.5740 N   0  0  0  0  0  0  0  0  0  0  0  0
   44.0930   34.9290   41.0880 C   0  0  2  0  0  0  0  0  0  0  0  0
   43.4680   35.9760   41.3880 O   0  0  0  0  0  1  0  0  0  0  0  0
   45.4430   34.3730   41.0600 C   0  0  2  0  0  3  0  0  0  0  0  0
   44.6750   33.1090   41.3980 C   0  0  2  0  0  0  0  0  0  0  0  0
   45.4690   31.6790   40.7080 S   0  0  0  0  0  0  0  0  0  0  0  0
   44.5470   31.2270   39.2440 C   0  0  0  0  0  3  0  0  0  0  0  0
   44.4650   30.1100   39.2280 H   0  0  0  0  0  0  0  0  0  0  0  0
   42.1250   31.0970   38.4260 C   0  0  0  0  0  2  0  0  0  0  0  0
   42.6020   30.4030   37.6740 H   0  0  0  0  0  0  0  0  0  0  0  0
   41.4020   33.2590   39.6190 C   0  0  0  0  0  0  0  0  0  0  0  0
   40.6730   33.7340   40.5560 O   0  0  0  0  0  0  0  0  0  0  0  0
   40.1260   33.5700   39.2360 O   0  0  0  0  0  0  0  0  0  0  0  0
   39.7870   33.3910   38.2800 H   0  0  0  0  0  0  0  0  0  0  0  0
   45.1490   35.1030   44.2960 C   0  0  0  0  0  0  0  0  0  0  0  0
   46.1310   34.4470   43.5290 C   0  0  0  0  0  0  0  0  0  0  0  0
   46.8020   33.4240   44.2060 C   0  0  0  0  0  0  0  0  0  0  0  0
   46.5230   33.0980   45.4800 N   0  0  0  0  0  0  0  0  0  0  0  0
   45.5600   33.7680   46.1720 C   0  0  0  0  0  0  0  0  0  0  0  0
   44.8790   34.7680   45.5740 N   0  0  0  0  0  0  0  0  0  0  0  0
   44.6050   35.9070   43.8060 H   0  0  0  0  0  0  0  0  0  0  0  0
   45.3780   33.4650   47.1910 H   0  0  0  0  0  0  0  0  0  0  0  0
   47.7970   32.7280   43.5280 C   0  0  0  0  0  0  0  0  0  0  0  0
   48.8960   33.0780   42.7800 C   0  0  0  0  0  0  0  0  0  0  0  0
   49.7200   32.2350   42.2110 C   0  0  0  0  0  0  0  0  0  0  0  0
   49.4290   30.8990   42.4010 C   0  0  0  0  0  0  0  0  0  0  0  0
   47.8930   30.9610   43.4510 S   0  0  0  0  0  0  0  0  0  0  0  0
   49.2700   34.0700   42.5790 H   0  0  0  0  0  0  0  0  0  0  0  0
   50.6010   32.2230   41.6090 H   0  0  0  0  0  0  0  0  0  0  0  0
   49.7510   29.8950   42.1730 H   0  0  0  0  0  0  0  0  0  0  0  0
  1  2  1  1  0  0  0
  1 20  1  0  0  0  0
  3 11  1  0  0  0  0
  3  4  2  0  0  0  0
  4  5  1  0  0  0  0
  5  6  1  0  0  0  0
  5  9  1  0  0  0  0
  6  7  1  1  0  0  0
  6  9  1  0  0  0  0
  8  6  1  0  0  0  0
  8  9  1  0  0  0  0
  8  1  1  1  0  0  0
  9 10  1  1  0  0  0
 11 10  1  0  0  0  0
 12 11  1  0  0  0  0
 13  3  1  0  0  0  0
 14 13  1  0  0  0  0
 15  4  1  0  0  0  0
 15 16  2  0  0  0  0
 17 15  1  0  0  0  0
 18 17  1  0  0  0  0
 19 24  1  0  0  0  0
 20 21  1  0  0  0  0
 20 19  2  0  0  0  0
 21 22  2  0  0  0  0
 22 23  1  0  0  0  0
 23 26  1  0  0  0  0
 24 23  2  0  0  0  0
 25 19  1  0  0  0  0
 27 21  1  0  0  0  0
 28 27  2  0  0  0  0
 29 30  2  0  0  0  0
 29 28  1  0  0  0  0
 30 31  1  0  0  0  0
 31 27  1  0  0  0  0
 32 28  1  0  0  0  0
 33 29  1  0  0  0  0
 34 30  1  0  0  0  0
M  END
>  <minimizedAffinity>
-5.20268011

>  <minimizedRMSD>
1.97865331

$$$$
