
 OpenBabel03242519543D

 47 50  0  0  1  0  0  0  0  0999 V2000
   46.5590   33.7380   42.4800 C   0  0  2  0  0  0  0  0  0  0  0  0
   48.0370   33.7710   42.5540 C   0  0  0  0  0  0  0  0  0  0  0  0
   48.6400   34.7380   41.5920 C   0  0  0  0  0  0  0  0  0  0  0  0
   48.2050   34.5230   40.1670 C   0  0  0  0  0  0  0  0  0  0  0  0
   46.7820   34.0870   40.0170 C   0  0  2  0  0  0  0  0  0  0  0  0
   45.9780   34.3790   41.2680 C   0  0  0  0  0  0  0  0  0  0  0  0
   46.2860   32.6340   42.4560 H   0  0  0  0  0  0  0  0  0  0  0  0
   48.5320   32.7870   42.4280 H   0  0  0  0  0  0  0  0  0  0  0  0
   48.3160   34.1170   43.5770 H   0  0  0  0  0  0  0  0  0  0  0  0
   49.7530   34.5610   41.6200 H   0  0  0  0  0  0  0  0  0  0  0  0
   48.5060   35.7730   41.9450 H   0  0  0  0  0  0  0  0  0  0  0  0
   48.4120   35.4910   39.6240 H   0  0  0  0  0  0  0  0  0  0  0  0
   48.9000   33.7920   39.6790 H   0  0  0  0  0  0  0  0  0  0  0  0
   46.3400   34.7110   39.2060 H   0  0  0  0  0  0  0  0  0  0  0  0
   45.7830   35.4330   41.2630 H   0  0  0  0  0  0  0  0  0  0  0  0
   44.9680   33.8840   41.1240 H   0  0  0  0  0  0  0  0  0  0  0  0
   45.8940   34.2640   43.6810 C   0  0  0  0  0  0  0  0  0  0  0  0
   45.2500   35.4820   43.4780 C   0  0  0  0  0  0  0  0  0  0  0  0
   44.5600   36.0890   44.5310 C   0  0  0  0  0  0  0  0  0  0  0  0
   44.5690   35.4100   45.7370 N   0  0  0  0  0  0  0  0  0  0  0  0
   45.2070   34.2330   45.8900 C   0  0  0  0  0  0  0  0  0  0  0  0
   45.8570   33.6760   44.8660 N   0  0  0  0  0  0  0  0  0  0  0  0
   45.1210   36.1780   42.6620 H   0  0  0  0  0  0  0  0  0  0  0  0
   44.0080   36.9990   44.5970 H   0  0  0  0  0  0  0  0  0  0  0  0
   45.1850   33.7410   46.8560 H   0  0  0  0  0  0  0  0  0  0  0  0
   46.7300   32.6720   39.6030 C   0  0  0  0  0  0  0  0  0  0  0  0
   47.6630   32.1560   39.9110 H   0  0  0  0  0  0  0  0  0  0  0  0
   46.7600   32.6490   38.4800 H   0  0  0  0  0  0  0  0  0  0  0  0
   45.5870   31.8700   40.0630 C   0  0  0  0  0  0  0  0  0  0  0  0
   45.9660   30.9350   40.5220 H   0  0  0  0  0  0  0  0  0  0  0  0
   45.0420   32.4120   40.8620 H   0  0  0  0  0  0  0  0  0  0  0  0
   41.0340   32.3580   41.0800 C   0  0  0  0  0  0  0  0  0  0  0  0
   41.4560   32.7840   39.9090 C   0  0  0  0  0  0  0  0  0  0  0  0
   42.6820   32.3840   39.3760 N   0  0  0  0  0  0  0  0  0  0  0  0
   43.8260   32.6940   38.6290 C   0  0  0  0  0  0  0  0  0  0  0  0
   44.1970   33.6370   37.8560 O   0  0  0  0  0  0  0  0  0  0  0  0
   44.5760   31.4700   39.0380 C   0  0  2  0  0  3  0  0  0  0  0  0
   43.2220   31.0630   39.5610 C   0  0  1  0  0  3  0  0  0  0  0  0
   43.1810   30.6470   41.3070 S   0  0  0  0  0  0  0  0  0  0  0  0
   41.7320   31.4340   42.0040 C   0  0  0  0  0  3  0  0  0  0  0  0
   40.9980   30.6040   42.2220 H   0  0  0  0  0  0  0  0  0  0  0  0
   39.7280   32.8000   41.6160 C   0  0  0  0  0  2  0  0  0  0  0  0
   39.0260   33.1610   40.8330 H   0  0  0  0  0  0  0  0  0  0  0  0
   40.6160   33.6990   39.1490 C   0  0  0  0  0  0  0  0  0  0  0  0
   40.4890   33.6490   37.8990 O   0  0  0  0  0  0  0  0  0  0  0  0
   39.7670   34.6840   38.7380 O   0  0  0  0  0  0  0  0  0  0  0  0
   39.7190   35.5570   39.2490 H   0  0  0  0  0  0  0  0  0  0  0  0
  1  7  1  6  0  0  0
  1  2  1  0  0  0  0
  1 17  1  0  0  0  0
  2  9  1  0  0  0  0
  3 10  1  0  0  0  0
  3 11  1  0  0  0  0
  3  2  1  0  0  0  0
  4  3  1  0  0  0  0
  5 14  1  6  0  0  0
  5  4  1  0  0  0  0
  5  6  1  0  0  0  0
  6  1  1  0  0  0  0
  8  2  1  0  0  0  0
 12  4  1  0  0  0  0
 13  4  1  0  0  0  0
 15  6  1  0  0  0  0
 16  6  1  0  0  0  0
 17 22  1  0  0  0  0
 18 17  2  0  0  0  0
 18 19  1  0  0  0  0
 19 24  1  0  0  0  0
 19 20  2  0  0  0  0
 20 21  1  0  0  0  0
 21 25  1  0  0  0  0
 22 21  2  0  0  0  0
 23 18  1  0  0  0  0
 26 27  1  0  0  0  0
 26  5  1  0  0  0  0
 26 29  1  0  0  0  0
 28 26  1  0  0  0  0
 29 30  1  0  0  0  0
 29 31  1  0  0  0  0
 32 42  1  0  0  0  0
 32 40  1  0  0  0  0
 33 32  2  0  0  0  0
 34 38  1  0  0  0  0
 34 33  1  0  0  0  0
 35 37  1  0  0  0  0
 35 34  1  0  0  0  0
 36 35  2  0  0  0  0
 37 38  1  0  0  0  0
 37 29  1  1  0  0  0
 38 39  1  1  0  0  0
 39 40  1  0  0  0  0
 40 41  1  0  0  0  0
 43 42  1  0  0  0  0
 44 33  1  0  0  0  0
 45 44  2  0  0  0  0
 46 44  1  0  0  0  0
 46 47  1  0  0  0  0
M  END
>  <minimizedAffinity>
-5.78766155

>  <minimizedRMSD>
2.22813702

$$$$
