
 OpenBabel03242511223D

 46 50  0  0  1  0  0  0  0  0999 V2000
   39.9660   26.2360   43.6660 C   0  0  0  0  0  0  0  0  0  0  0  0
   40.9600   27.2490   43.5080 C   0  0  0  0  0  0  0  0  0  0  0  0
   40.5410   28.4580   42.9200 C   0  0  0  0  0  0  0  0  0  0  0  0
   39.2380   28.5750   42.5510 N   0  0  0  0  0  0  0  0  0  0  0  0
   38.3420   27.5940   42.7220 C   0  0  0  0  0  0  0  0  0  0  0  0
   38.7050   26.4240   43.2800 N   0  0  0  0  0  0  0  0  0  0  0  0
   40.2300   25.2880   44.1100 H   0  0  0  0  0  0  0  0  0  0  0  0
   41.9730   27.0790   43.8260 H   0  0  0  0  0  0  0  0  0  0  0  0
   41.7290   29.7660   42.6910 S   0  0  0  0  0  0  0  0  0  0  0  0
   40.7800   31.2690   42.1960 C   0  0  0  0  0  0  0  0  0  0  0  0
   41.2380   32.0910   42.8210 H   0  0  0  0  0  0  0  0  0  0  0  0
   39.7430   31.2120   42.5120 H   0  0  0  0  0  0  0  0  0  0  0  0
   41.0500   31.6060   40.8100 C   0  0  0  0  0  0  0  0  0  0  0  0
   41.9550   32.4710   40.5140 C   0  0  0  0  0  0  0  0  0  0  0  0
   42.2310   32.8060   39.1710 N   0  0  0  0  0  0  0  0  0  0  0  0
   43.2340   33.0220   38.1490 C   0  0  0  0  0  0  0  0  0  0  0  0
   44.4380   33.3940   38.1360 O   0  0  0  0  0  0  0  0  0  0  0  0
   42.1530   32.5980   37.1790 C   0  0  0  0  0  0  0  0  0  0  0  0
   41.1630   33.1130   38.1910 C   0  0  1  0  0  0  0  0  0  0  0  0
   39.7430   32.0780   38.5290 S   0  0  0  0  0  0  0  0  0  0  0  0
   40.2200   30.8890   39.8200 C   0  0  0  0  0  0  0  0  0  0  0  0
   42.2160   33.2140   36.2760 H   0  0  0  0  0  0  0  0  0  0  0  0
   42.1370   31.4930   37.0410 H   0  0  0  0  0  0  0  0  0  0  0  0
   40.9620   34.1790   38.0690 H   0  0  0  0  0  0  0  0  0  0  0  0
   39.2940   30.4720   40.2090 H   0  0  0  0  0  0  0  0  0  0  0  0
   40.8110   30.0370   39.4210 H   0  0  0  0  0  0  0  0  0  0  0  0
   42.7270   33.1330   41.5770 C   0  0  0  0  0  0  0  0  0  0  0  0
   43.9540   33.4530   41.4950 O   0  0  0  0  0  0  0  0  0  0  0  0
   43.1400   33.7280   42.7250 O   0  0  0  0  0  0  0  0  0  0  0  0
   42.8070   33.5740   43.6690 H   0  0  0  0  0  0  0  0  0  0  0  0
   36.9850   28.0170   42.2170 C   0  0  0  0  0  2  0  0  0  0  0  0
   36.9390   28.0330   40.7530 C   0  0  0  0  0  0  0  0  0  0  0  0
   36.6410   29.0060   39.9340 C   0  0  0  0  0  0  0  0  0  0  0  0
   36.6220   28.8910   38.4940 N   0  0  0  0  0  0  0  0  0  0  0  0
   36.9510   29.3520   37.1950 C   0  0  0  0  0  0  0  0  0  0  0  0
   37.1080   30.5280   36.7480 O   0  0  0  0  0  0  0  0  0  0  0  0
   36.9910   27.9280   36.7720 C   0  0  0  0  0  3  0  0  0  0  0  0
   36.6430   27.7440   35.7420 H   0  0  0  0  0  0  0  0  0  0  0  0
   35.9520   27.7690   37.8600 C   0  0  1  0  0  3  0  0  0  0  0  0
   36.2430   26.2360   38.7770 S   0  0  0  0  0  0  0  0  0  0  0  0
   37.3000   26.7420   40.1560 C   0  0  0  0  0  3  0  0  0  0  0  0
   38.3680   26.7970   39.8630 H   0  0  0  0  0  0  0  0  0  0  0  0
   36.2900   30.3120   40.4850 C   0  0  0  0  0  0  0  0  0  0  0  0
   36.6110   31.4830   40.2530 O   0  0  0  0  0  0  0  0  0  0  0  0
   35.5770   31.0560   41.3870 O   0  0  0  0  0  0  0  0  0  0  0  0
   34.5890   31.1640   41.4750 H   0  0  0  0  0  0  0  0  0  0  0  0
  1  7  1  0  0  0  0
  2  1  1  0  0  0  0
  2  8  1  0  0  0  0
  3  2  2  0  0  0  0
  4  5  2  0  0  0  0
  4  3  1  0  0  0  0
  5  6  1  0  0  0  0
  6  1  2  0  0  0  0
  9  3  1  0  0  0  0
 10 12  1  0  0  0  0
 10  9  1  0  0  0  0
 10 11  1  0  0  0  0
 13 10  1  0  0  0  0
 14 13  2  0  0  0  0
 14 27  1  0  0  0  0
 15 14  1  0  0  0  0
 16 15  1  0  0  0  0
 17 16  2  0  0  0  0
 18 16  1  0  0  0  0
 18 19  1  0  0  0  0
 19 24  1  6  0  0  0
 19 20  1  0  0  0  0
 19 15  1  0  0  0  0
 20 21  1  0  0  0  0
 21 25  1  0  0  0  0
 21 13  1  0  0  0  0
 22 18  1  0  0  0  0
 23 18  1  0  0  0  0
 26 21  1  0  0  0  0
 27 29  1  0  0  0  0
 28 27  2  0  0  0  0
 29 30  1  0  0  0  0
 31  5  1  0  0  0  0
 32 31  1  0  0  0  0
 33 43  1  0  0  0  0
 33 32  2  0  0  0  0
 34 33  1  0  0  0  0
 35 34  1  0  0  0  0
 36 35  2  0  0  0  0
 37 35  1  0  0  0  0
 38 37  1  0  0  0  0
 39 37  1  6  0  0  0
 39 34  1  0  0  0  0
 39 40  1  0  0  0  0
 40 41  1  0  0  0  0
 41 32  1  0  0  0  0
 42 41  1  0  0  0  0
 43 45  1  0  0  0  0
 44 43  2  0  0  0  0
 45 46  1  0  0  0  0
M  END
>  <minimizedAffinity>
-6.39643431

$$$$

 OpenBabel03242511223D

 46 50  0  0  1  0  0  0  0  0999 V2000
   36.9660   24.7990   41.7390 C   0  0  0  0  0  0  0  0  0  0  0  0
   36.9300   24.9510   40.3190 C   0  0  0  0  0  0  0  0  0  0  0  0
   36.9430   26.2690   39.8250 C   0  0  0  0  0  0  0  0  0  0  0  0
   36.9880   27.2900   40.7210 N   0  0  0  0  0  0  0  0  0  0  0  0
   37.0210   27.0960   42.0460 C   0  0  0  0  0  0  0  0  0  0  0  0
   37.0100   25.8500   42.5570 N   0  0  0  0  0  0  0  0  0  0  0  0
   36.9580   23.8110   42.1750 H   0  0  0  0  0  0  0  0  0  0  0  0
   36.8950   24.0900   39.6760 H   0  0  0  0  0  0  0  0  0  0  0  0
   36.9000   26.5330   38.0630 S   0  0  0  0  0  0  0  0  0  0  0  0
   36.5610   28.3270   37.8000 C   0  0  0  0  0  0  0  0  0  0  0  0
   37.4680   28.6890   37.2320 H   0  0  0  0  0  0  0  0  0  0  0  0
   36.5690   28.8790   38.7350 H   0  0  0  0  0  0  0  0  0  0  0  0
   35.4230   28.5050   36.9170 C   0  0  0  0  0  0  0  0  0  0  0  0
   34.2700   28.8180   37.3950 C   0  0  0  0  0  0  0  0  0  0  0  0
   33.1550   28.9970   36.5490 N   0  0  0  0  0  0  0  0  0  0  0  0
   32.0150   29.8160   36.1890 C   0  0  0  0  0  0  0  0  0  0  0  0
   31.2580   30.6180   36.7970 O   0  0  0  0  0  0  0  0  0  0  0  0
   32.2020   29.2410   34.8020 C   0  0  0  0  0  0  0  0  0  0  0  0
   32.8060   28.0360   35.4760 C   0  0  1  0  0  0  0  0  0  0  0  0
   34.3110   27.3830   34.7630 S   0  0  0  0  0  0  0  0  0  0  0  0
   35.7070   28.3010   35.4820 C   0  0  0  0  0  0  0  0  0  0  0  0
   31.2220   29.0480   34.3570 H   0  0  0  0  0  0  0  0  0  0  0  0
   32.9240   29.8430   34.2030 H   0  0  0  0  0  0  0  0  0  0  0  0
   32.0520   27.3010   35.7630 H   0  0  0  0  0  0  0  0  0  0  0  0
   36.6000   27.7180   35.2670 H   0  0  0  0  0  0  0  0  0  0  0  0
   35.8550   29.2960   35.0100 H   0  0  0  0  0  0  0  0  0  0  0  0
   34.0890   28.9960   38.8440 C   0  0  0  0  0  0  0  0  0  0  0  0
   33.0050   29.3480   39.4050 O   0  0  0  0  0  0  0  0  0  0  0  0
   34.2530   29.0690   40.1890 O   0  0  0  0  0  0  0  0  0  0  0  0
   35.0900   29.2990   40.7100 H   0  0  0  0  0  0  0  0  0  0  0  0
   37.0680   28.4140   42.7770 C   0  0  0  0  0  2  0  0  0  0  0  0
   38.1790   29.2470   42.3120 C   0  0  0  0  0  0  0  0  0  0  0  0
   38.1680   30.3270   41.5780 C   0  0  0  0  0  0  0  0  0  0  0  0
   39.3460   31.0590   41.1750 N   0  0  0  0  0  0  0  0  0  0  0  0
   40.0790   32.2600   41.0040 C   0  0  0  0  0  0  0  0  0  0  0  0
   39.6890   33.4400   40.7540 O   0  0  0  0  0  0  0  0  0  0  0  0
   41.3110   31.4650   41.2450 C   0  0  0  0  0  3  0  0  0  0  0  0
   42.1920   31.7930   40.6680 H   0  0  0  0  0  0  0  0  0  0  0  0
   40.4910   30.3540   40.6260 C   0  0  1  0  0  3  0  0  0  0  0  0
   40.7820   28.8010   41.5090 S   0  0  0  0  0  0  0  0  0  0  0  0
   39.4860   28.7640   42.7720 C   0  0  0  0  0  3  0  0  0  0  0  0
   39.7630   29.3530   43.6700 H   0  0  0  0  0  0  0  0  0  0  0  0
   36.8870   30.8520   41.1110 C   0  0  0  0  0  0  0  0  0  0  0  0
   36.4540   31.3010   40.0430 O   0  0  0  0  0  0  0  0  0  0  0  0
   35.5810   31.1680   41.3680 O   0  0  0  0  0  0  0  0  0  0  0  0
   34.8230   30.5690   41.6210 H   0  0  0  0  0  0  0  0  0  0  0  0
  1  7  1  0  0  0  0
  1  6  1  0  0  0  0
  2  1  2  0  0  0  0
  3  2  1  0  0  0  0
  3  4  2  0  0  0  0
  4  5  1  0  0  0  0
  5  6  2  0  0  0  0
  5 31  1  0  0  0  0
  8  2  1  0  0  0  0
  9  3  1  0  0  0  0
 10  9  1  0  0  0  0
 10 12  1  0  0  0  0
 11 10  1  0  0  0  0
 13 14  2  0  0  0  0
 13 10  1  0  0  0  0
 14 27  1  0  0  0  0
 15 14  1  0  0  0  0
 16 15  1  0  0  0  0
 16 17  2  0  0  0  0
 18 19  1  0  0  0  0
 18 16  1  0  0  0  0
 19 24  1  1  0  0  0
 19 15  1  0  0  0  0
 20 19  1  0  0  0  0
 20 21  1  0  0  0  0
 21 13  1  0  0  0  0
 22 18  1  0  0  0  0
 23 18  1  0  0  0  0
 25 21  1  0  0  0  0
 26 21  1  0  0  0  0
 27 28  2  0  0  0  0
 27 29  1  0  0  0  0
 29 30  1  0  0  0  0
 32 41  1  0  0  0  0
 32 31  1  0  0  0  0
 33 32  2  0  0  0  0
 34 33  1  0  0  0  0
 35 34  1  0  0  0  0
 35 37  1  0  0  0  0
 36 35  2  0  0  0  0
 38 37  1  0  0  0  0
 39 34  1  0  0  0  0
 39 37  1  1  0  0  0
 39 40  1  0  0  0  0
 40 41  1  0  0  0  0
 41 42  1  0  0  0  0
 43 45  1  0  0  0  0
 43 33  1  0  0  0  0
 44 43  2  0  0  0  0
 45 46  1  0  0  0  0
M  END
>  <minimizedAffinity>
-6.18546486

$$$$

 OpenBabel03242511223D

 46 50  0  0  1  0  0  0  0  0999 V2000
   40.7310   30.0520   41.9010 C   0  0  0  0  0  0  0  0  0  0  0  0
   39.7820   29.0910   42.3680 C   0  0  0  0  0  0  0  0  0  0  0  0
   39.1860   28.2690   41.3930 C   0  0  0  0  0  0  0  0  0  0  0  0
   39.5500   28.4430   40.0960 N   0  0  0  0  0  0  0  0  0  0  0  0
   40.4460   29.3600   39.7070 C   0  0  0  0  0  0  0  0  0  0  0  0
   41.0390   30.1640   40.6100 N   0  0  0  0  0  0  0  0  0  0  0  0
   41.2200   30.7100   42.6040 H   0  0  0  0  0  0  0  0  0  0  0  0
   39.5480   29.0150   43.4140 H   0  0  0  0  0  0  0  0  0  0  0  0
   37.9920   27.0490   41.9040 S   0  0  0  0  0  0  0  0  0  0  0  0
   36.3460   27.6280   41.3030 C   0  0  0  0  0  0  0  0  0  0  0  0
   36.1910   28.6040   41.8510 H   0  0  0  0  0  0  0  0  0  0  0  0
   35.5440   26.9780   41.6400 H   0  0  0  0  0  0  0  0  0  0  0  0
   36.4080   27.9530   39.8900 C   0  0  0  0  0  0  0  0  0  0  0  0
   36.3300   29.1770   39.4990 C   0  0  0  0  0  0  0  0  0  0  0  0
   36.3920   29.5090   38.1290 N   0  0  0  0  0  0  0  0  0  0  0  0
   36.9610   30.3610   37.1040 C   0  0  0  0  0  0  0  0  0  0  0  0
   37.4190   31.5330   37.0640 O   0  0  0  0  0  0  0  0  0  0  0  0
   36.7310   29.1860   36.1800 C   0  0  0  0  0  0  0  0  0  0  0  0
   35.6030   28.7930   37.0990 C   0  0  1  0  0  0  0  0  0  0  0  0
   35.4890   27.0640   37.5450 S   0  0  0  0  0  0  0  0  0  0  0  0
   36.5630   26.7940   38.9870 C   0  0  0  0  0  0  0  0  0  0  0  0
   36.3930   29.5530   35.2060 H   0  0  0  0  0  0  0  0  0  0  0  0
   37.5950   28.4830   36.1870 H   0  0  0  0  0  0  0  0  0  0  0  0
   34.6640   29.2840   36.8350 H   0  0  0  0  0  0  0  0  0  0  0  0
   36.2700   25.8360   39.4120 H   0  0  0  0  0  0  0  0  0  0  0  0
   37.6360   26.7050   38.7130 H   0  0  0  0  0  0  0  0  0  0  0  0
   36.1730   30.2620   40.4800 C   0  0  0  0  0  0  0  0  0  0  0  0
   37.0860   31.0810   40.8110 O   0  0  0  0  0  0  0  0  0  0  0  0
   35.7090   31.1390   41.4050 O   0  0  0  0  0  0  0  0  0  0  0  0
   34.9980   30.9930   42.1100 H   0  0  0  0  0  0  0  0  0  0  0  0
   40.6420   29.3150   38.2120 C   0  0  0  0  0  2  0  0  0  0  0  0
   41.9660   29.8120   37.8300 C   0  0  0  0  0  0  0  0  0  0  0  0
   42.3290   30.9940   37.4120 C   0  0  0  0  0  0  0  0  0  0  0  0
   43.6790   31.3600   37.0530 N   0  0  0  0  0  0  0  0  0  0  0  0
   44.7980   32.2290   37.1000 C   0  0  0  0  0  0  0  0  0  0  0  0
   44.8630   33.4900   37.2230 O   0  0  0  0  0  0  0  0  0  0  0  0
   45.6560   31.0250   36.9530 C   0  0  0  0  0  3  0  0  0  0  0  0
   46.5760   31.1850   36.3650 H   0  0  0  0  0  0  0  0  0  0  0  0
   44.4640   30.4980   36.1860 C   0  0  1  0  0  3  0  0  0  0  0  0
   44.1900   28.7540   36.5860 S   0  0  0  0  0  0  0  0  0  0  0  0
   43.0170   28.7970   37.9620 C   0  0  0  0  0  3  0  0  0  0  0  0
   43.5220   28.9640   38.9350 H   0  0  0  0  0  0  0  0  0  0  0  0
   41.3170   32.0400   37.2790 C   0  0  0  0  0  0  0  0  0  0  0  0
   41.1530   33.1730   37.7450 O   0  0  0  0  0  0  0  0  0  0  0  0
   40.1400   32.4750   36.7330 O   0  0  0  0  0  0  0  0  0  0  0  0
   39.9130   32.6490   35.7770 H   0  0  0  0  0  0  0  0  0  0  0  0
  1  2  1  0  0  0  0
  1  7  1  0  0  0  0
  2  8  1  0  0  0  0
  3  9  1  0  0  0  0
  3  2  2  0  0  0  0
  4  3  1  0  0  0  0
  5  4  2  0  0  0  0
  5  6  1  0  0  0  0
  6  1  2  0  0  0  0
 10 12  1  0  0  0  0
 10 11  1  0  0  0  0
 10  9  1  0  0  0  0
 13 10  1  0  0  0  0
 14 13  2  0  0  0  0
 14 27  1  0  0  0  0
 15 14  1  0  0  0  0
 16 15  1  0  0  0  0
 17 16  2  0  0  0  0
 18 23  1  0  0  0  0
 18 19  1  0  0  0  0
 18 16  1  0  0  0  0
 19 24  1  6  0  0  0
 19 20  1  0  0  0  0
 19 15  1  0  0  0  0
 20 21  1  0  0  0  0
 21 25  1  0  0  0  0
 21 13  1  0  0  0  0
 22 18  1  0  0  0  0
 26 21  1  0  0  0  0
 27 28  2  0  0  0  0
 27 29  1  0  0  0  0
 29 30  1  0  0  0  0
 31  5  1  0  0  0  0
 32 41  1  0  0  0  0
 32 31  1  0  0  0  0
 33 32  2  0  0  0  0
 34 35  1  0  0  0  0
 34 33  1  0  0  0  0
 35 36  2  0  0  0  0
 37 35  1  0  0  0  0
 38 37  1  0  0  0  0
 39 40  1  1  0  0  0
 39 37  1  0  0  0  0
 39 34  1  0  0  0  0
 40 41  1  0  0  0  0
 41 42  1  0  0  0  0
 43 33  1  0  0  0  0
 43 44  2  0  0  0  0
 45 43  1  0  0  0  0
 46 45  1  0  0  0  0
M  END
>  <minimizedAffinity>
-5.97958326

$$$$

 OpenBabel03242511223D

 46 50  0  0  1  0  0  0  0  0999 V2000
   39.9650   25.7340   42.7520 C   0  0  0  0  0  0  0  0  0  0  0  0
   39.8070   25.5300   41.3470 C   0  0  0  0  0  0  0  0  0  0  0  0
   39.1620   26.5560   40.6300 C   0  0  0  0  0  0  0  0  0  0  0  0
   38.7410   27.6510   41.3140 N   0  0  0  0  0  0  0  0  0  0  0  0
   38.9130   27.7970   42.6350 C   0  0  0  0  0  0  0  0  0  0  0  0
   39.5260   26.8380   43.3550 N   0  0  0  0  0  0  0  0  0  0  0  0
   40.4520   24.9820   43.3530 H   0  0  0  0  0  0  0  0  0  0  0  0
   40.1680   24.6330   40.8790 H   0  0  0  0  0  0  0  0  0  0  0  0
   38.9290   26.3670   38.8730 S   0  0  0  0  0  0  0  0  0  0  0  0
   38.6900   28.0610   38.1820 C   0  0  0  0  0  0  0  0  0  0  0  0
   39.5710   28.1920   37.4860 H   0  0  0  0  0  0  0  0  0  0  0  0
   38.8080   28.8270   38.9430 H   0  0  0  0  0  0  0  0  0  0  0  0
   37.5000   28.1070   37.3520 C   0  0  0  0  0  0  0  0  0  0  0  0
   37.1410   29.2060   36.7870 C   0  0  0  0  0  0  0  0  0  0  0  0
   35.9880   29.2650   35.9750 N   0  0  0  0  0  0  0  0  0  0  0  0
   35.3950   29.7020   34.7280 C   0  0  0  0  0  0  0  0  0  0  0  0
   35.6060   30.6400   33.9130 O   0  0  0  0  0  0  0  0  0  0  0  0
   34.4600   28.5270   34.9080 C   0  0  0  0  0  0  0  0  0  0  0  0
   34.6910   28.6790   36.3890 C   0  0  1  0  0  0  0  0  0  0  0  0
   34.9940   27.1810   37.3180 S   0  0  0  0  0  0  0  0  0  0  0  0
   36.7760   26.8250   37.2260 C   0  0  0  0  0  0  0  0  0  0  0  0
   33.4530   28.8140   34.5900 H   0  0  0  0  0  0  0  0  0  0  0  0
   34.8850   27.5940   34.4700 H   0  0  0  0  0  0  0  0  0  0  0  0
   34.0030   29.3950   36.8430 H   0  0  0  0  0  0  0  0  0  0  0  0
   36.9830   26.0990   38.0100 H   0  0  0  0  0  0  0  0  0  0  0  0
   37.0690   26.3500   36.2660 H   0  0  0  0  0  0  0  0  0  0  0  0
   37.9310   30.4320   36.9770 C   0  0  0  0  0  0  0  0  0  0  0  0
   37.4800   31.5220   37.4500 O   0  0  0  0  0  0  0  0  0  0  0  0
   38.9110   31.3690   37.0240 O   0  0  0  0  0  0  0  0  0  0  0  0
   39.7110   31.4750   36.4130 H   0  0  0  0  0  0  0  0  0  0  0  0
   38.3440   29.1110   43.1060 C   0  0  0  0  0  2  0  0  0  0  0  0
   38.8600   30.2330   42.3170 C   0  0  0  0  0  0  0  0  0  0  0  0
   38.2590   30.9820   41.4320 C   0  0  0  0  0  0  0  0  0  0  0  0
   38.8870   32.0620   40.7070 N   0  0  0  0  0  0  0  0  0  0  0  0
   38.9170   33.3900   40.2130 C   0  0  0  0  0  0  0  0  0  0  0  0
   37.9760   34.1590   39.8490 O   0  0  0  0  0  0  0  0  0  0  0  0
   40.3950   33.3390   40.3540 C   0  0  0  0  0  3  0  0  0  0  0  0
   40.9500   33.8970   39.5810 H   0  0  0  0  0  0  0  0  0  0  0  0
   40.1830   31.8660   40.0830 C   0  0  1  0  0  3  0  0  0  0  0  0
   41.2710   30.8780   41.1400 S   0  0  0  0  0  0  0  0  0  0  0  0
   40.2660   30.5340   42.6050 C   0  0  0  0  0  3  0  0  0  0  0  0
   40.2860   31.3740   43.3300 H   0  0  0  0  0  0  0  0  0  0  0  0
   36.8540   30.7250   41.1250 C   0  0  0  0  0  0  0  0  0  0  0  0
   36.2380   30.1770   40.2030 O   0  0  0  0  0  0  0  0  0  0  0  0
   35.5340   30.8380   41.4710 O   0  0  0  0  0  0  0  0  0  0  0  0
   35.0510   30.4510   42.2540 H   0  0  0  0  0  0  0  0  0  0  0  0
  1  7  1  0  0  0  0
  1  6  1  0  0  0  0
  2  1  2  0  0  0  0
  3  4  2  0  0  0  0
  3  2  1  0  0  0  0
  4  5  1  0  0  0  0
  5 31  1  0  0  0  0
  5  6  2  0  0  0  0
  8  2  1  0  0  0  0
  9  3  1  0  0  0  0
 10  9  1  0  0  0  0
 10 12  1  0  0  0  0
 11 10  1  0  0  0  0
 13 10  1  0  0  0  0
 14 27  1  0  0  0  0
 14 13  2  0  0  0  0
 15 19  1  0  0  0  0
 15 14  1  0  0  0  0
 16 18  1  0  0  0  0
 16 15  1  0  0  0  0
 17 16  2  0  0  0  0
 18 19  1  0  0  0  0
 19 24  1  1  0  0  0
 19 20  1  0  0  0  0
 21 20  1  0  0  0  0
 21 13  1  0  0  0  0
 21 25  1  0  0  0  0
 22 18  1  0  0  0  0
 23 18  1  0  0  0  0
 26 21  1  0  0  0  0
 27 29  1  0  0  0  0
 27 28  2  0  0  0  0
 30 29  1  0  0  0  0
 32 41  1  0  0  0  0
 32 31  1  0  0  0  0
 33 32  2  0  0  0  0
 34 33  1  0  0  0  0
 35 37  1  0  0  0  0
 35 34  1  0  0  0  0
 36 35  2  0  0  0  0
 38 37  1  0  0  0  0
 39 37  1  1  0  0  0
 39 34  1  0  0  0  0
 39 40  1  0  0  0  0
 40 41  1  0  0  0  0
 41 42  1  0  0  0  0
 43 33  1  0  0  0  0
 43 45  1  0  0  0  0
 44 43  2  0  0  0  0
 45 46  1  0  0  0  0
M  END
>  <minimizedAffinity>
-5.97480202

$$$$

 OpenBabel03242511223D

 46 50  0  0  1  0  0  0  0  0999 V2000
   36.9740   30.6060   37.1140 C   0  0  0  0  0  0  0  0  0  0  0  0
   37.3700   31.7370   37.8910 C   0  0  0  0  0  0  0  0  0  0  0  0
   37.2480   31.6170   39.2890 C   0  0  0  0  0  0  0  0  0  0  0  0
   36.7700   30.4490   39.7930 N   0  0  0  0  0  0  0  0  0  0  0  0
   36.4120   29.4140   39.0210 C   0  0  0  0  0  0  0  0  0  0  0  0
   36.5140   29.4910   37.6810 N   0  0  0  0  0  0  0  0  0  0  0  0
   37.0460   30.6410   36.0380 H   0  0  0  0  0  0  0  0  0  0  0  0
   37.7390   32.6280   37.4150 H   0  0  0  0  0  0  0  0  0  0  0  0
   37.7220   32.9900   40.3200 S   0  0  0  0  0  0  0  0  0  0  0  0
   39.4590   33.4210   39.8710 C   0  0  0  0  0  0  0  0  0  0  0  0
   39.7250   34.2440   40.5970 H   0  0  0  0  0  0  0  0  0  0  0  0
   39.5190   33.8750   38.8860 H   0  0  0  0  0  0  0  0  0  0  0  0
   40.3480   32.3110   40.1620 C   0  0  0  0  0  0  0  0  0  0  0  0
   41.0210   31.7500   39.2190 C   0  0  0  0  0  0  0  0  0  0  0  0
   41.8910   30.6720   39.4860 N   0  0  0  0  0  0  0  0  0  0  0  0
   43.1990   30.0820   39.2870 C   0  0  0  0  0  0  0  0  0  0  0  0
   44.0780   30.1290   38.3860 O   0  0  0  0  0  0  0  0  0  0  0  0
   42.9680   29.4300   40.6320 C   0  0  0  0  0  0  0  0  0  0  0  0
   41.4950   29.5180   40.3270 C   0  0  1  0  0  0  0  0  0  0  0  0
   40.4300   30.0910   41.6450 S   0  0  0  0  0  0  0  0  0  0  0  0
   40.4020   31.9080   41.5820 C   0  0  0  0  0  0  0  0  0  0  0  0
   43.3590   28.4080   40.6100 H   0  0  0  0  0  0  0  0  0  0  0  0
   43.3040   30.0840   41.4690 H   0  0  0  0  0  0  0  0  0  0  0  0
   41.1370   28.6560   39.7600 H   0  0  0  0  0  0  0  0  0  0  0  0
   39.5510   32.2220   42.1830 H   0  0  0  0  0  0  0  0  0  0  0  0
   41.3030   32.3670   42.0410 H   0  0  0  0  0  0  0  0  0  0  0  0
   40.8940   32.2250   37.8310 C   0  0  0  0  0  0  0  0  0  0  0  0
   41.7530   32.9360   37.2250 O   0  0  0  0  0  0  0  0  0  0  0  0
   40.4800   32.4920   36.5680 O   0  0  0  0  0  0  0  0  0  0  0  0
   39.5330   32.5890   36.2220 H   0  0  0  0  0  0  0  0  0  0  0  0
   35.9220   28.2630   39.8650 C   0  0  0  0  0  2  0  0  0  0  0  0
   37.0210   27.3720   40.2460 C   0  0  0  0  0  0  0  0  0  0  0  0
   37.6990   27.3060   41.3600 C   0  0  0  0  0  0  0  0  0  0  0  0
   38.7780   26.3790   41.6120 N   0  0  0  0  0  0  0  0  0  0  0  0
   39.4490   25.4250   42.4160 C   0  0  0  0  0  0  0  0  0  0  0  0
   39.5240   25.3110   43.6770 O   0  0  0  0  0  0  0  0  0  0  0  0
   39.9060   24.7830   41.1570 C   0  0  0  0  0  3  0  0  0  0  0  0
   40.9160   24.3400   41.2060 H   0  0  0  0  0  0  0  0  0  0  0  0
   39.8290   26.1980   40.6270 C   0  0  1  0  0  3  0  0  0  0  0  0
   39.1530   26.1950   38.9480 S   0  0  0  0  0  0  0  0  0  0  0  0
   37.3730   26.4160   39.1900 C   0  0  0  0  0  3  0  0  0  0  0  0
   36.8630   25.4590   39.4210 H   0  0  0  0  0  0  0  0  0  0  0  0
   37.3710   28.2300   42.4430 C   0  0  0  0  0  0  0  0  0  0  0  0
   37.3750   28.1780   43.6790 O   0  0  0  0  0  0  0  0  0  0  0  0
   36.9420   29.4650   42.8470 O   0  0  0  0  0  0  0  0  0  0  0  0
   37.3690   30.3570   42.7120 H   0  0  0  0  0  0  0  0  0  0  0  0
  1  6  2  0  0  0  0
  1  2  1  0  0  0  0
  2  3  2  0  0  0  0
  3  4  1  0  0  0  0
  3  9  1  0  0  0  0
  5  4  2  0  0  0  0
  5 31  1  0  0  0  0
  6  5  1  0  0  0  0
  7  1  1  0  0  0  0
  8  2  1  0  0  0  0
 10 13  1  0  0  0  0
 10  9  1  0  0  0  0
 10 11  1  0  0  0  0
 12 10  1  0  0  0  0
 13 21  1  0  0  0  0
 14 15  1  0  0  0  0
 14 13  2  0  0  0  0
 15 19  1  0  0  0  0
 16 15  1  0  0  0  0
 16 18  1  0  0  0  0
 17 16  2  0  0  0  0
 18 23  1  0  0  0  0
 19 24  1  6  0  0  0
 19 18  1  0  0  0  0
 19 20  1  0  0  0  0
 21 20  1  0  0  0  0
 21 26  1  0  0  0  0
 21 25  1  0  0  0  0
 22 18  1  0  0  0  0
 27 14  1  0  0  0  0
 28 27  2  0  0  0  0
 29 27  1  0  0  0  0
 30 29  1  0  0  0  0
 31 32  1  0  0  0  0
 32 33  2  0  0  0  0
 33 34  1  0  0  0  0
 33 43  1  0  0  0  0
 34 35  1  0  0  0  0
 35 36  2  0  0  0  0
 37 38  1  0  0  0  0
 37 35  1  0  0  0  0
 39 40  1  6  0  0  0
 39 37  1  0  0  0  0
 39 34  1  0  0  0  0
 40 41  1  0  0  0  0
 41 42  1  0  0  0  0
 41 32  1  0  0  0  0
 43 45  1  0  0  0  0
 43 44  2  0  0  0  0
 46 45  1  0  0  0  0
M  END
>  <minimizedAffinity>
-5.77964306

$$$$

 OpenBabel03242511223D

 46 50  0  0  1  0  0  0  0  0999 V2000
   36.6260   29.1990   35.7730 C   0  0  0  0  0  0  0  0  0  0  0  0
   37.5320   28.0950   35.8080 C   0  0  0  0  0  0  0  0  0  0  0  0
   38.5720   28.1620   36.7540 C   0  0  0  0  0  0  0  0  0  0  0  0
   38.6400   29.2560   37.5580 N   0  0  0  0  0  0  0  0  0  0  0  0
   37.7640   30.2680   37.4880 C   0  0  0  0  0  0  0  0  0  0  0  0
   36.7560   30.2400   36.5950 N   0  0  0  0  0  0  0  0  0  0  0  0
   35.8090   29.2030   35.0680 H   0  0  0  0  0  0  0  0  0  0  0  0
   37.4100   27.2650   35.1370 H   0  0  0  0  0  0  0  0  0  0  0  0
   39.7400   26.8200   36.8520 S   0  0  0  0  0  0  0  0  0  0  0  0
   38.7570   25.2600   36.9130 C   0  0  0  0  0  0  0  0  0  0  0  0
   39.5250   24.4540   36.7210 H   0  0  0  0  0  0  0  0  0  0  0  0
   38.0570   25.1930   36.0860 H   0  0  0  0  0  0  0  0  0  0  0  0
   38.2470   25.0340   38.2530 C   0  0  0  0  0  0  0  0  0  0  0  0
   38.9900   24.4860   39.1500 C   0  0  0  0  0  0  0  0  0  0  0  0
   38.5100   24.2620   40.4570 N   0  0  0  0  0  0  0  0  0  0  0  0
   38.7540   24.3690   41.8820 C   0  0  0  0  0  0  0  0  0  0  0  0
   39.7740   24.3780   42.6200 O   0  0  0  0  0  0  0  0  0  0  0  0
   37.2480   24.4570   42.0030 C   0  0  0  0  0  0  0  0  0  0  0  0
   37.1840   23.6580   40.7270 C   0  0  1  0  0  0  0  0  0  0  0  0
   36.0240   24.2120   39.4840 S   0  0  0  0  0  0  0  0  0  0  0  0
   36.8550   25.4770   38.4760 C   0  0  0  0  0  0  0  0  0  0  0  0
   36.9230   23.8980   42.8860 H   0  0  0  0  0  0  0  0  0  0  0  0
   36.8890   25.5070   41.9050 H   0  0  0  0  0  0  0  0  0  0  0  0
   37.2140   22.5820   40.9100 H   0  0  0  0  0  0  0  0  0  0  0  0
   36.2580   25.5910   37.5740 H   0  0  0  0  0  0  0  0  0  0  0  0
   36.8800   26.4720   38.9700 H   0  0  0  0  0  0  0  0  0  0  0  0
   40.3660   24.0760   38.8260 C   0  0  0  0  0  0  0  0  0  0  0  0
   41.4140   24.5800   39.3360 O   0  0  0  0  0  0  0  0  0  0  0  0
   41.4740   23.4790   38.3190 O   0  0  0  0  0  0  0  0  0  0  0  0
   41.6060   23.0730   37.4010 H   0  0  0  0  0  0  0  0  0  0  0  0
   38.0970   31.3330   38.5010 C   0  0  0  0  0  2  0  0  0  0  0  0
   38.6990   30.7580   39.7060 C   0  0  0  0  0  0  0  0  0  0  0  0
   38.1330   30.3180   40.7980 C   0  0  0  0  0  0  0  0  0  0  0  0
   38.8460   29.7770   41.9330 N   0  0  0  0  0  0  0  0  0  0  0  0
   39.0450   28.7970   42.9370 C   0  0  0  0  0  0  0  0  0  0  0  0
   38.2160   28.0590   43.5510 O   0  0  0  0  0  0  0  0  0  0  0  0
   40.4980   29.0960   42.8470 C   0  0  0  0  0  3  0  0  0  0  0  0
   41.0420   29.0250   43.8040 H   0  0  0  0  0  0  0  0  0  0  0  0
   40.0010   30.4740   42.4700 C   0  0  1  0  0  3  0  0  0  0  0  0
   41.0210   31.1600   41.1410 S   0  0  0  0  0  0  0  0  0  0  0  0
   40.1610   30.6680   39.6270 C   0  0  0  0  0  3  0  0  0  0  0  0
   40.4170   29.6340   39.3210 H   0  0  0  0  0  0  0  0  0  0  0  0
   36.6780   30.3750   40.9140 C   0  0  0  0  0  0  0  0  0  0  0  0
   35.7340   29.6780   40.5230 O   0  0  0  0  0  0  0  0  0  0  0  0
   35.5580   31.0110   41.3760 O   0  0  0  0  0  0  0  0  0  0  0  0
   35.2690   31.1780   42.3170 H   0  0  0  0  0  0  0  0  0  0  0  0
  1  2  2  0  0  0  0
  1  6  1  0  0  0  0
  2  3  1  0  0  0  0
  3  9  1  0  0  0  0
  3  4  2  0  0  0  0
  5  4  1  0  0  0  0
  5 31  1  0  0  0  0
  6  5  2  0  0  0  0
  7  1  1  0  0  0  0
  8  2  1  0  0  0  0
  9 10  1  0  0  0  0
 10 13  1  0  0  0  0
 11 10  1  0  0  0  0
 12 10  1  0  0  0  0
 13 21  1  0  0  0  0
 13 14  2  0  0  0  0
 14 15  1  0  0  0  0
 15 19  1  0  0  0  0
 15 16  1  0  0  0  0
 16 18  1  0  0  0  0
 16 17  2  0  0  0  0
 18 22  1  0  0  0  0
 19 24  1  1  0  0  0
 19 18  1  0  0  0  0
 20 19  1  0  0  0  0
 21 26  1  0  0  0  0
 21 20  1  0  0  0  0
 23 18  1  0  0  0  0
 25 21  1  0  0  0  0
 27 14  1  0  0  0  0
 27 28  2  0  0  0  0
 29 27  1  0  0  0  0
 30 29  1  0  0  0  0
 31 32  1  0  0  0  0
 32 33  2  0  0  0  0
 33 43  1  0  0  0  0
 33 34  1  0  0  0  0
 34 39  1  0  0  0  0
 34 35  1  0  0  0  0
 35 36  2  0  0  0  0
 37 35  1  0  0  0  0
 37 38  1  0  0  0  0
 39 40  1  6  0  0  0
 39 37  1  0  0  0  0
 41 32  1  0  0  0  0
 41 40  1  0  0  0  0
 42 41  1  0  0  0  0
 43 45  1  0  0  0  0
 44 43  2  0  0  0  0
 45 46  1  0  0  0  0
M  END
>  <minimizedAffinity>
-5.76877499

$$$$

 OpenBabel03242511223D

 46 50  0  0  1  0  0  0  0  0999 V2000
   39.3680   24.2200   40.8170 C   0  0  0  0  0  0  0  0  0  0  0  0
   39.4850   25.1460   41.8980 C   0  0  0  0  0  0  0  0  0  0  0  0
   38.4510   26.0910   42.0330 C   0  0  0  0  0  0  0  0  0  0  0  0
   37.4280   26.0570   41.1390 N   0  0  0  0  0  0  0  0  0  0  0  0
   37.3630   25.1660   40.1410 C   0  0  0  0  0  0  0  0  0  0  0  0
   38.3320   24.2460   39.9790 N   0  0  0  0  0  0  0  0  0  0  0  0
   40.1310   23.4720   40.6640 H   0  0  0  0  0  0  0  0  0  0  0  0
   40.3280   25.1080   42.5640 H   0  0  0  0  0  0  0  0  0  0  0  0
   38.5330   27.2790   43.3590 S   0  0  0  0  0  0  0  0  0  0  0  0
   37.7560   28.8310   42.7350 C   0  0  0  0  0  0  0  0  0  0  0  0
   37.3630   29.3280   43.6710 H   0  0  0  0  0  0  0  0  0  0  0  0
   36.8790   28.6260   42.1280 H   0  0  0  0  0  0  0  0  0  0  0  0
   38.7650   29.7200   42.1890 C   0  0  0  0  0  0  0  0  0  0  0  0
   38.4240   30.7360   41.4780 C   0  0  0  0  0  0  0  0  0  0  0  0
   39.3930   31.6100   40.9430 N   0  0  0  0  0  0  0  0  0  0  0  0
   39.8160   32.9800   40.7290 C   0  0  0  0  0  0  0  0  0  0  0  0
   39.2340   34.0900   40.6060 O   0  0  0  0  0  0  0  0  0  0  0  0
   41.2180   32.4120   40.7320 C   0  0  0  0  0  0  0  0  0  0  0  0
   40.6070   31.1240   40.2450 C   0  0  1  0  0  0  0  0  0  0  0  0
   41.1680   29.6170   41.0270 S   0  0  0  0  0  0  0  0  0  0  0  0
   40.1600   29.3590   42.5190 C   0  0  0  0  0  0  0  0  0  0  0  0
   41.8170   32.9260   39.9740 H   0  0  0  0  0  0  0  0  0  0  0  0
   41.6380   32.3610   41.7630 H   0  0  0  0  0  0  0  0  0  0  0  0
   40.5140   31.0960   39.1570 H   0  0  0  0  0  0  0  0  0  0  0  0
   40.3110   28.3240   42.8150 H   0  0  0  0  0  0  0  0  0  0  0  0
   40.4910   29.9870   43.3740 H   0  0  0  0  0  0  0  0  0  0  0  0
   37.0030   31.0080   41.2030 C   0  0  0  0  0  0  0  0  0  0  0  0
   36.5440   31.4300   40.0970 O   0  0  0  0  0  0  0  0  0  0  0  0
   35.6570   31.1560   41.2760 O   0  0  0  0  0  0  0  0  0  0  0  0
   35.0910   31.3880   42.0830 H   0  0  0  0  0  0  0  0  0  0  0  0
   36.1160   25.3760   39.3190 C   0  0  0  0  0  2  0  0  0  0  0  0
   36.3580   26.2920   38.2010 C   0  0  0  0  0  0  0  0  0  0  0  0
   36.0800   27.5630   38.0830 C   0  0  0  0  0  0  0  0  0  0  0  0
   36.3650   28.3610   36.9130 N   0  0  0  0  0  0  0  0  0  0  0  0
   36.8680   29.5250   36.2820 C   0  0  0  0  0  0  0  0  0  0  0  0
   36.9250   30.7270   36.6840 O   0  0  0  0  0  0  0  0  0  0  0  0
   37.2130   28.6660   35.1200 C   0  0  0  0  0  3  0  0  0  0  0  0
   37.1090   29.1560   34.1370 H   0  0  0  0  0  0  0  0  0  0  0  0
   36.0170   27.8690   35.5920 C   0  0  1  0  0  3  0  0  0  0  0  0
   36.3570   26.0970   35.4490 S   0  0  0  0  0  0  0  0  0  0  0  0
   37.0280   25.6450   37.0670 C   0  0  0  0  0  3  0  0  0  0  0  0
   38.1110   25.8700   37.1460 H   0  0  0  0  0  0  0  0  0  0  0  0
   35.4270   28.2500   39.1950 C   0  0  0  0  0  0  0  0  0  0  0  0
   34.4700   29.0250   39.3130 O   0  0  0  0  0  0  0  0  0  0  0  0
   35.3560   28.5160   40.5350 O   0  0  0  0  0  0  0  0  0  0  0  0
   35.1670   27.8940   41.2930 H   0  0  0  0  0  0  0  0  0  0  0  0
  1  2  1  0  0  0  0
  2  3  2  0  0  0  0
  2  8  1  0  0  0  0
  3  9  1  0  0  0  0
  4  3  1  0  0  0  0
  5  4  2  0  0  0  0
  6  5  1  0  0  0  0
  6  1  2  0  0  0  0
  7  1  1  0  0  0  0
 10  9  1  0  0  0  0
 10 11  1  0  0  0  0
 12 10  1  0  0  0  0
 13 21  1  0  0  0  0
 13 10  1  0  0  0  0
 14 13  2  0  0  0  0
 15 14  1  0  0  0  0
 16 18  1  0  0  0  0
 16 15  1  0  0  0  0
 17 16  2  0  0  0  0
 18 23  1  0  0  0  0
 19 24  1  6  0  0  0
 19 18  1  0  0  0  0
 19 15  1  0  0  0  0
 19 20  1  0  0  0  0
 20 21  1  0  0  0  0
 21 25  1  0  0  0  0
 21 26  1  0  0  0  0
 22 18  1  0  0  0  0
 27 29  1  0  0  0  0
 27 14  1  0  0  0  0
 28 27  2  0  0  0  0
 29 30  1  0  0  0  0
 31  5  1  0  0  0  0
 32 31  1  0  0  0  0
 33 32  2  0  0  0  0
 33 43  1  0  0  0  0
 34 33  1  0  0  0  0
 35 36  2  0  0  0  0
 35 34  1  0  0  0  0
 37 35  1  0  0  0  0
 38 37  1  0  0  0  0
 39 37  1  6  0  0  0
 39 34  1  0  0  0  0
 40 39  1  0  0  0  0
 40 41  1  0  0  0  0
 41 42  1  0  0  0  0
 41 32  1  0  0  0  0
 43 44  2  0  0  0  0
 43 45  1  0  0  0  0
 45 46  1  0  0  0  0
M  END
>  <minimizedAffinity>
-5.7624507

$$$$

 OpenBabel03242511223D

 46 50  0  0  1  0  0  0  0  0999 V2000
   37.2250   24.0330   41.4260 C   0  0  0  0  0  0  0  0  0  0  0  0
   37.7050   24.3180   40.1110 C   0  0  0  0  0  0  0  0  0  0  0  0
   37.8540   25.6770   39.7750 C   0  0  0  0  0  0  0  0  0  0  0  0
   37.5350   26.6090   40.7110 N   0  0  0  0  0  0  0  0  0  0  0  0
   37.0890   26.2910   41.9330 C   0  0  0  0  0  0  0  0  0  0  0  0
   36.9340   25.0030   42.2920 N   0  0  0  0  0  0  0  0  0  0  0  0
   37.0920   23.0090   41.7390 H   0  0  0  0  0  0  0  0  0  0  0  0
   37.9360   23.5220   39.4270 H   0  0  0  0  0  0  0  0  0  0  0  0
   38.4470   26.1060   38.1500 S   0  0  0  0  0  0  0  0  0  0  0  0
   38.1770   27.9190   37.9440 C   0  0  0  0  0  0  0  0  0  0  0  0
   37.6670   28.2240   38.9050 H   0  0  0  0  0  0  0  0  0  0  0  0
   37.4590   28.1320   37.1580 H   0  0  0  0  0  0  0  0  0  0  0  0
   39.4470   28.6210   37.9110 C   0  0  0  0  0  0  0  0  0  0  0  0
   39.4800   29.9060   37.8520 C   0  0  0  0  0  0  0  0  0  0  0  0
   40.7070   30.6020   37.8220 N   0  0  0  0  0  0  0  0  0  0  0  0
   41.5030   31.6950   38.3440 C   0  0  0  0  0  0  0  0  0  0  0  0
   41.2590   32.8250   38.8430 O   0  0  0  0  0  0  0  0  0  0  0  0
   42.6910   30.8240   37.9990 C   0  0  0  0  0  0  0  0  0  0  0  0
   41.8240   30.2120   36.9300 C   0  0  1  0  0  0  0  0  0  0  0  0
   41.8600   28.4290   36.7830 S   0  0  0  0  0  0  0  0  0  0  0  0
   40.6420   27.7530   37.9520 C   0  0  0  0  0  0  0  0  0  0  0  0
   43.4960   31.4520   37.6030 H   0  0  0  0  0  0  0  0  0  0  0  0
   42.9500   30.1330   38.8330 H   0  0  0  0  0  0  0  0  0  0  0  0
   41.8640   30.7720   35.9930 H   0  0  0  0  0  0  0  0  0  0  0  0
   40.4730   26.7210   37.6550 H   0  0  0  0  0  0  0  0  0  0  0  0
   41.0190   27.7270   38.9970 H   0  0  0  0  0  0  0  0  0  0  0  0
   38.2300   30.6820   37.8120 C   0  0  0  0  0  0  0  0  0  0  0  0
   38.0360   31.7810   38.4180 O   0  0  0  0  0  0  0  0  0  0  0  0
   36.9760   31.1390   37.5710 O   0  0  0  0  0  0  0  0  0  0  0  0
   36.1350   30.6060   37.3860 H   0  0  0  0  0  0  0  0  0  0  0  0
   36.8220   27.5340   42.7440 C   0  0  0  0  0  2  0  0  0  0  0  0
   37.8580   28.5470   42.5290 C   0  0  0  0  0  0  0  0  0  0  0  0
   37.8160   29.6570   41.8430 C   0  0  0  0  0  0  0  0  0  0  0  0
   38.9200   30.5770   41.6980 N   0  0  0  0  0  0  0  0  0  0  0  0
   39.4770   31.8800   41.7110 C   0  0  0  0  0  0  0  0  0  0  0  0
   38.9620   33.0040   41.4280 O   0  0  0  0  0  0  0  0  0  0  0  0
   40.7510   31.2610   42.1610 C   0  0  0  0  0  3  0  0  0  0  0  0
   41.6620   31.7490   41.7760 H   0  0  0  0  0  0  0  0  0  0  0  0
   40.2430   30.0820   41.3590 C   0  0  1  0  0  3  0  0  0  0  0  0
   40.6010   28.5370   42.2320 S   0  0  0  0  0  0  0  0  0  0  0  0
   39.1150   28.2340   43.2180 C   0  0  0  0  0  3  0  0  0  0  0  0
   39.1250   28.8010   44.1710 H   0  0  0  0  0  0  0  0  0  0  0  0
   36.5790   30.0160   41.1530 C   0  0  0  0  0  0  0  0  0  0  0  0
   35.9980   29.6380   40.1290 O   0  0  0  0  0  0  0  0  0  0  0  0
   35.4490   30.7860   41.0870 O   0  0  0  0  0  0  0  0  0  0  0  0
   34.6760   30.8290   41.7170 H   0  0  0  0  0  0  0  0  0  0  0  0
  1  7  1  0  0  0  0
  1  6  1  0  0  0  0
  2  1  2  0  0  0  0
  3  2  1  0  0  0  0
  3  4  2  0  0  0  0
  4  5  1  0  0  0  0
  5  6  2  0  0  0  0
  5 31  1  0  0  0  0
  8  2  1  0  0  0  0
  9  3  1  0  0  0  0
 10  9  1  0  0  0  0
 10 11  1  0  0  0  0
 12 10  1  0  0  0  0
 13 10  1  0  0  0  0
 13 21  1  0  0  0  0
 14 13  2  0  0  0  0
 15 14  1  0  0  0  0
 15 16  1  0  0  0  0
 16 17  2  0  0  0  0
 18 16  1  0  0  0  0
 18 23  1  0  0  0  0
 19 24  1  6  0  0  0
 19 15  1  0  0  0  0
 19 18  1  0  0  0  0
 20 19  1  0  0  0  0
 20 21  1  0  0  0  0
 21 26  1  0  0  0  0
 22 18  1  0  0  0  0
 25 21  1  0  0  0  0
 27 14  1  0  0  0  0
 27 28  2  0  0  0  0
 29 27  1  0  0  0  0
 30 29  1  0  0  0  0
 32 31  1  0  0  0  0
 32 41  1  0  0  0  0
 33 32  2  0  0  0  0
 34 35  1  0  0  0  0
 34 33  1  0  0  0  0
 35 37  1  0  0  0  0
 36 35  2  0  0  0  0
 38 37  1  0  0  0  0
 39 34  1  0  0  0  0
 39 37  1  1  0  0  0
 39 40  1  0  0  0  0
 40 41  1  0  0  0  0
 41 42  1  0  0  0  0
 43 33  1  0  0  0  0
 44 43  2  0  0  0  0
 45 43  1  0  0  0  0
 45 46  1  0  0  0  0
M  END
>  <minimizedAffinity>
-5.75630093

$$$$

 OpenBabel03242511223D

 46 50  0  0  1  0  0  0  0  0999 V2000
   37.4520   28.7620   35.7910 C   0  0  0  0  0  0  0  0  0  0  0  0
   36.1750   28.1220   35.7790 C   0  0  0  0  0  0  0  0  0  0  0  0
   35.2440   28.5530   36.7440 C   0  0  0  0  0  0  0  0  0  0  0  0
   35.6200   29.5330   37.6060 N   0  0  0  0  0  0  0  0  0  0  0  0
   36.8320   30.1040   37.5770 C   0  0  0  0  0  0  0  0  0  0  0  0
   37.7490   29.7200   36.6690 N   0  0  0  0  0  0  0  0  0  0  0  0
   38.2060   28.4730   35.0750 H   0  0  0  0  0  0  0  0  0  0  0  0
   35.9540   27.3530   35.0620 H   0  0  0  0  0  0  0  0  0  0  0  0
   33.6310   27.7970   36.7870 S   0  0  0  0  0  0  0  0  0  0  0  0
   32.4310   29.1240   37.2340 C   0  0  0  0  0  0  0  0  0  0  0  0
   33.0910   29.9860   37.5490 H   0  0  0  0  0  0  0  0  0  0  0  0
   31.8540   28.8650   38.1170 H   0  0  0  0  0  0  0  0  0  0  0  0
   31.7060   29.5700   36.0570 C   0  0  0  0  0  0  0  0  0  0  0  0
   30.6450   30.2880   36.1780 C   0  0  0  0  0  0  0  0  0  0  0  0
   29.9320   30.7310   35.0440 N   0  0  0  0  0  0  0  0  0  0  0  0
   29.2830   31.8340   34.3660 C   0  0  0  0  0  0  0  0  0  0  0  0
   28.7090   32.8970   34.7240 O   0  0  0  0  0  0  0  0  0  0  0  0
   29.6320   31.0910   33.0950 C   0  0  0  0  0  0  0  0  0  0  0  0
   29.5830   29.8310   33.9200 C   0  0  1  0  0  0  0  0  0  0  0  0
   30.9090   28.6540   33.6780 S   0  0  0  0  0  0  0  0  0  0  0  0
   32.2830   29.1390   34.7670 C   0  0  0  0  0  0  0  0  0  0  0  0
   28.8040   31.1810   32.3850 H   0  0  0  0  0  0  0  0  0  0  0  0
   30.6490   31.3600   32.7280 H   0  0  0  0  0  0  0  0  0  0  0  0
   28.5760   29.4140   33.9800 H   0  0  0  0  0  0  0  0  0  0  0  0
   32.9460   28.2790   34.8230 H   0  0  0  0  0  0  0  0  0  0  0  0
   32.8820   29.9780   34.3540 H   0  0  0  0  0  0  0  0  0  0  0  0
   30.1490   30.6630   37.5120 C   0  0  0  0  0  0  0  0  0  0  0  0
   29.1310   30.1570   38.0790 O   0  0  0  0  0  0  0  0  0  0  0  0
   29.9600   31.2240   38.7330 O   0  0  0  0  0  0  0  0  0  0  0  0
   30.1890   32.1620   39.0380 H   0  0  0  0  0  0  0  0  0  0  0  0
   36.9530   31.1550   38.6520 C   0  0  0  0  0  2  0  0  0  0  0  0
   37.8700   30.7330   39.7140 C   0  0  0  0  0  0  0  0  0  0  0  0
   37.6510   29.9940   40.7670 C   0  0  0  0  0  0  0  0  0  0  0  0
   38.6480   29.6540   41.7560 N   0  0  0  0  0  0  0  0  0  0  0  0
   39.3240   28.7270   42.5880 C   0  0  0  0  0  0  0  0  0  0  0  0
   38.9150   27.6630   43.1450 O   0  0  0  0  0  0  0  0  0  0  0  0
   40.5340   29.5770   42.4400 C   0  0  0  0  0  3  0  0  0  0  0  0
   41.1770   29.6210   43.3340 H   0  0  0  0  0  0  0  0  0  0  0  0
   39.5110   30.6840   42.3050 C   0  0  1  0  0  3  0  0  0  0  0  0
   40.0270   31.8520   41.0220 S   0  0  0  0  0  0  0  0  0  0  0  0
   39.2370   31.2300   39.5180 C   0  0  0  0  0  3  0  0  0  0  0  0
   39.8240   30.4170   39.0450 H   0  0  0  0  0  0  0  0  0  0  0  0
   36.3070   29.4650   40.9930 C   0  0  0  0  0  0  0  0  0  0  0  0
   35.8330   28.4750   41.5610 O   0  0  0  0  0  0  0  0  0  0  0  0
   34.9540   29.5810   40.8250 O   0  0  0  0  0  0  0  0  0  0  0  0
   34.3330   30.2860   41.1630 H   0  0  0  0  0  0  0  0  0  0  0  0
  1  6  1  0  0  0  0
  2  1  2  0  0  0  0
  2  3  1  0  0  0  0
  3  9  1  0  0  0  0
  3  4  2  0  0  0  0
  5  4  1  0  0  0  0
  5 31  1  0  0  0  0
  6  5  2  0  0  0  0
  7  1  1  0  0  0  0
  8  2  1  0  0  0  0
  9 10  1  0  0  0  0
 10 11  1  0  0  0  0
 10 12  1  0  0  0  0
 13 14  2  0  0  0  0
 13 10  1  0  0  0  0
 14 27  1  0  0  0  0
 15 14  1  0  0  0  0
 16 17  2  0  0  0  0
 16 15  1  0  0  0  0
 18 19  1  0  0  0  0
 18 16  1  0  0  0  0
 19 24  1  1  0  0  0
 19 15  1  0  0  0  0
 20 19  1  0  0  0  0
 20 21  1  0  0  0  0
 21 25  1  0  0  0  0
 21 13  1  0  0  0  0
 22 18  1  0  0  0  0
 23 18  1  0  0  0  0
 26 21  1  0  0  0  0
 27 28  2  0  0  0  0
 27 29  1  0  0  0  0
 29 30  1  0  0  0  0
 31 32  1  0  0  0  0
 32 33  2  0  0  0  0
 33 43  1  0  0  0  0
 33 34  1  0  0  0  0
 34 39  1  0  0  0  0
 34 35  1  0  0  0  0
 35 36  2  0  0  0  0
 37 35  1  0  0  0  0
 37 38  1  0  0  0  0
 39 40  1  6  0  0  0
 39 37  1  0  0  0  0
 41 32  1  0  0  0  0
 41 40  1  0  0  0  0
 42 41  1  0  0  0  0
 43 44  2  0  0  0  0
 45 43  1  0  0  0  0
 45 46  1  0  0  0  0
M  END
>  <minimizedAffinity>
-5.72791719

$$$$
