
 OpenBabel03242515423D

 45 49  0  0  1  0  0  0  0  0999 V2000
   43.9880   34.6730   40.6820 C   0  0  0  0  0  0  0  0  0  0  0  0
   43.9980   33.7350   39.6970 C   0  0  0  0  0  0  0  0  0  0  0  0
   45.2390   33.0930   39.5120 C   0  0  0  0  0  0  0  0  0  0  0  0
   46.3180   33.4180   40.2630 N   0  0  0  0  0  0  0  0  0  0  0  0
   46.2500   34.3660   41.2210 C   0  0  0  0  0  0  0  0  0  0  0  0
   45.0810   34.9490   41.3890 N   0  0  0  0  0  0  0  0  0  0  0  0
   45.3810   32.0440   38.5530 N   0  0  0  0  0  0  0  0  0  0  0  0
   45.5000   31.1000   39.0270 H   0  0  0  0  0  0  0  0  0  0  0  0
   45.3330   32.4820   37.5940 H   0  0  0  0  0  0  0  0  0  0  0  0
   42.3850   35.4590   40.9810 S   0  0  0  0  0  0  0  0  0  0  0  0
   40.1770   34.5800   39.7970 C   0  0  0  0  0  0  0  0  0  0  0  0
   41.0630   34.2690   40.8480 C   0  0  0  0  0  0  0  0  0  0  0  0
   40.9100   33.1230   41.6270 C   0  0  0  0  0  0  0  0  0  0  0  0
   39.8710   32.2680   41.3660 C   0  0  0  0  0  0  0  0  0  0  0  0
   38.9800   32.5510   40.3310 C   0  0  0  0  0  0  0  0  0  0  0  0
   39.1180   33.6830   39.5520 C   0  0  0  0  0  0  0  0  0  0  0  0
   38.0220   31.4980   40.3030 O   0  0  0  0  0  0  0  0  0  0  0  0
   38.1320   30.8580   41.5290 C   0  0  0  0  0  0  0  0  0  0  0  0
   39.4650   31.0690   41.9510 O   0  0  0  0  0  0  0  0  0  0  0  0
   40.2420   35.4510   39.1640 H   0  0  0  0  0  0  0  0  0  0  0  0
   41.6280   32.9800   42.3940 H   0  0  0  0  0  0  0  0  0  0  0  0
   38.4210   33.8910   38.7550 H   0  0  0  0  0  0  0  0  0  0  0  0
   37.8370   29.7970   41.5450 H   0  0  0  0  0  0  0  0  0  0  0  0
   37.4800   31.4010   42.2680 H   0  0  0  0  0  0  0  0  0  0  0  0
   47.3000   34.7500   42.0010 O   0  0  0  0  0  0  0  0  0  0  0  0
   48.5020   35.1290   41.3770 C   0  0  0  0  0  0  0  0  0  0  0  0
   49.4920   34.1950   41.5980 F   0  0  0  0  0  0  0  0  0  0  0  0
   48.2270   35.2660   40.0120 F   0  0  0  0  0  0  0  0  0  0  0  0
   48.9230   36.3240   41.9350 F   0  0  0  0  0  0  0  0  0  0  0  0
   43.1030   33.2600   38.6270 C   0  0  0  0  0  2  0  0  0  0  0  0
   42.4810   31.9530   38.7120 C   0  0  0  0  0  0  0  0  0  0  0  0
   42.4390   30.8380   39.4120 C   0  0  0  0  0  0  0  0  0  0  0  0
   41.6450   29.7020   39.1150 N   0  0  0  0  0  0  0  0  0  0  0  0
   40.6710   28.7610   39.5300 C   0  0  0  0  0  0  0  0  0  0  0  0
   40.4130   28.2550   40.6550 O   0  0  0  0  0  0  0  0  0  0  0  0
   40.2230   28.7420   38.0910 C   0  0  0  0  0  3  0  0  0  0  0  0
   39.9020   27.7810   37.7010 H   0  0  0  0  0  0  0  0  0  0  0  0
   41.6850   28.9990   37.8190 C   0  0  1  0  0  3  0  0  0  0  0  0
   42.0000   30.3610   36.6260 S   0  0  0  0  0  0  0  0  0  0  0  0
   41.4740   31.8440   37.5790 C   0  0  0  0  0  3  0  0  0  0  0  0
   41.4750   32.6650   36.8850 H   0  0  0  0  0  0  0  0  0  0  0  0
   43.3210   30.8020   40.5770 C   0  0  0  0  0  0  0  0  0  0  0  0
   44.3810   30.5430   41.1920 O   0  0  0  0  0  0  0  0  0  0  0  0
   43.3660   31.1520   41.8970 O   0  0  0  0  0  0  0  0  0  0  0  0
   43.4050   32.1340   42.2470 H   0  0  0  0  0  0  0  0  0  0  0  0
  1 10  1  0  0  0  0
  1  6  1  0  0  0  0
  2  1  2  0  0  0  0
  3  2  1  0  0  0  0
  3  4  2  0  0  0  0
  4  5  1  0  0  0  0
  5  6  2  0  0  0  0
  5 25  1  0  0  0  0
  7  8  1  0  0  0  0
  7  3  1  0  0  0  0
  9  7  1  0  0  0  0
 11 12  1  0  0  0  0
 12 10  1  0  0  0  0
 12 13  2  0  0  0  0
 13 21  1  0  0  0  0
 14 13  1  0  0  0  0
 14 19  1  0  0  0  0
 15 14  2  0  0  0  0
 16 11  2  0  0  0  0
 16 15  1  0  0  0  0
 17 15  1  0  0  0  0
 17 18  1  0  0  0  0
 18 23  1  0  0  0  0
 18 19  1  0  0  0  0
 18 24  1  0  0  0  0
 20 11  1  0  0  0  0
 22 16  1  0  0  0  0
 26 27  1  0  0  0  0
 26 29  1  0  0  0  0
 26 25  1  0  0  0  0
 28 26  1  0  0  0  0
 30 31  1  0  0  0  0
 30  2  1  0  0  0  0
 31 32  2  0  0  0  0
 32 42  1  0  0  0  0
 33 32  1  0  0  0  0
 33 34  1  0  0  0  0
 34 35  2  0  0  0  0
 36 34  1  0  0  0  0
 37 36  1  0  0  0  0
 38 39  1  6  0  0  0
 38 36  1  0  0  0  0
 38 33  1  0  0  0  0
 39 40  1  0  0  0  0
 40 31  1  0  0  0  0
 41 40  1  0  0  0  0
 42 43  2  0  0  0  0
 42 44  1  0  0  0  0
 44 45  1  0  0  0  0
M  END
>  <minimizedAffinity>
-5.5414753

>  <minimizedRMSD>
0.996356905

$$$$
