
 OpenBabel03242518343D

 42 46  0  0  1  0  0  0  0  0999 V2000
   46.0190   32.8100   36.6700 C   0  0  2  0  0  0  0  0  0  0  0  0
   45.6590   31.3790   36.6300 C   0  0  0  0  0  0  0  0  0  0  0  0
   46.7610   31.8620   35.7470 C   0  0  1  0  0  0  0  0  0  0  0  0
   45.3440   33.5460   36.2110 H   0  0  0  0  0  0  0  0  0  0  0  0
   45.9560   30.8160   37.5530 H   0  0  0  0  0  0  0  0  0  0  0  0
   44.6900   31.0480   36.2600 H   0  0  0  0  0  0  0  0  0  0  0  0
   47.7770   31.5310   36.0770 H   0  0  0  0  0  0  0  0  0  0  0  0
   47.5120   33.6810   39.8110 C   0  0  0  0  0  0  0  0  0  0  0  0
   48.3430   34.3780   38.9330 C   0  0  0  0  0  0  0  0  0  0  0  0
   47.9170   34.1600   37.6360 C   0  0  0  0  0  0  0  0  0  0  0  0
   46.8370   33.3310   37.8000 C   0  0  0  0  0  0  0  0  0  0  0  0
   46.5970   33.0480   39.0640 O   0  0  0  0  0  0  0  0  0  0  0  0
   49.1700   34.9760   39.2800 H   0  0  0  0  0  0  0  0  0  0  0  0
   48.3490   34.5580   36.7290 H   0  0  0  0  0  0  0  0  0  0  0  0
   47.5170   33.5770   41.2120 O   0  0  0  0  0  0  0  0  0  0  0  0
   47.5150   34.7530   42.0000 C   0  0  0  0  0  0  0  0  0  0  0  0
   48.3340   35.6450   41.6590 O   0  0  0  0  0  0  0  0  0  0  0  0
   46.5880   34.7780   43.0770 C   0  0  0  0  0  0  0  0  0  0  0  0
   45.6580   35.7870   43.0170 C   0  0  0  0  0  0  0  0  0  0  0  0
   44.7150   35.8790   44.0390 C   0  0  0  0  0  0  0  0  0  0  0  0
   44.7580   34.9770   45.0340 N   0  0  0  0  0  0  0  0  0  0  0  0
   45.6890   34.0000   45.0550 C   0  0  0  0  0  0  0  0  0  0  0  0
   46.5910   33.9160   44.0760 N   0  0  0  0  0  0  0  0  0  0  0  0
   45.6020   36.5190   42.2340 H   0  0  0  0  0  0  0  0  0  0  0  0
   43.9590   36.6710   44.0210 H   0  0  0  0  0  0  0  0  0  0  0  0
   45.7650   33.2480   45.8390 H   0  0  0  0  0  0  0  0  0  0  0  0
   46.6100   32.0620   34.2920 C   0  0  0  0  0  2  0  0  0  0  0  0
   47.1620   31.0450   33.3860 C   0  0  0  0  0  0  0  0  0  0  0  0
   48.1150   31.5440   32.5550 C   0  0  0  0  0  0  0  0  0  0  0  0
   48.8260   30.7250   31.5930 N   0  0  0  0  0  0  0  0  0  0  0  0
   49.1950   30.5520   30.2180 C   0  0  0  0  0  0  0  0  0  0  0  0
   49.3350   31.3710   29.2580 O   0  0  0  0  0  0  0  0  0  0  0  0
   49.2940   29.0810   30.5510 C   0  0  0  0  0  3  0  0  0  0  0  0
   50.2150   28.6560   30.1160 H   0  0  0  0  0  0  0  0  0  0  0  0
   49.5500   29.4880   31.9860 C   0  0  2  0  0  3  0  0  0  0  0  0
   48.4850   28.7040   33.2280 S   0  0  0  0  0  0  0  0  0  0  0  0
   46.9000   29.6140   33.1020 C   0  0  0  0  0  3  0  0  0  0  0  0
   46.1190   29.2210   33.7280 H   0  0  0  0  0  0  0  0  0  0  0  0
   48.5090   32.9680   32.6010 C   0  0  0  0  0  0  0  0  0  0  0  0
   49.6980   33.4530   32.5550 O   0  0  0  0  0  0  0  0  0  0  0  0
   48.4570   34.3270   32.6710 O   0  0  0  0  0  0  0  0  0  0  0  0
   47.9010   34.7680   33.4220 H   0  0  0  0  0  0  0  0  0  0  0  0
  1  4  1  6  0  0  0
  1 11  1  0  0  0  0
  2  1  1  0  0  0  0
  2  5  1  0  0  0  0
  3  7  1  1  0  0  0
  3  2  1  0  0  0  0
  3  1  1  0  0  0  0
  6  2  1  0  0  0  0
  8 15  1  0  0  0  0
  9 13  1  0  0  0  0
  9  8  2  0  0  0  0
 10 11  2  0  0  0  0
 10  9  1  0  0  0  0
 11 12  1  0  0  0  0
 12  8  1  0  0  0  0
 14 10  1  0  0  0  0
 15 16  1  0  0  0  0
 16 18  1  0  0  0  0
 17 16  2  0  0  0  0
 18 23  1  0  0  0  0
 19 18  2  0  0  0  0
 19 20  1  0  0  0  0
 20 21  2  0  0  0  0
 21 22  1  0  0  0  0
 22 26  1  0  0  0  0
 23 22  2  0  0  0  0
 24 19  1  0  0  0  0
 25 20  1  0  0  0  0
 27  3  1  0  0  0  0
 28 27  1  0  0  0  0
 29 39  1  0  0  0  0
 29 28  2  0  0  0  0
 30 35  1  0  0  0  0
 30 29  1  0  0  0  0
 31 33  1  0  0  0  0
 31 30  1  0  0  0  0
 32 31  2  0  0  0  0
 34 33  1  0  0  0  0
 35 33  1  6  0  0  0
 35 36  1  0  0  0  0
 37 36  1  0  0  0  0
 37 28  1  0  0  0  0
 37 38  1  0  0  0  0
 39 41  1  0  0  0  0
 40 39  2  0  0  0  0
 41 42  1  0  0  0  0
M  END
>  <minimizedAffinity>
-6.39226389

>  <minimizedRMSD>
1.02493215

$$$$
