
 OpenBabel03242520453D

 29 31  0  0  1  0  0  0  0  0999 V2000
   47.7510   31.8910   36.9550 C   0  0  0  0  0  0  0  0  0  0  0  0
   47.7710   31.4410   38.1980 C   0  0  0  0  0  0  0  0  0  0  0  0
   47.5650   32.3610   39.2630 N   0  0  0  0  0  0  0  0  0  0  0  0
   46.8540   32.6670   40.4900 C   0  0  0  0  0  0  0  0  0  0  0  0
   46.2280   31.9680   41.3600 O   0  0  0  0  0  0  0  0  0  0  0  0
   47.1630   34.1340   40.3010 C   0  0  2  0  0  3  0  0  0  0  0  0
   48.2750   33.6420   39.3990 C   0  0  2  0  0  3  0  0  0  0  0  0
   48.3390   34.3910   37.7600 S   0  0  0  0  0  0  0  0  0  0  0  0
   47.5060   33.2950   36.5880 C   0  0  0  0  0  3  0  0  0  0  0  0
   47.8240   33.4820   35.5430 H   0  0  0  0  0  0  0  0  0  0  0  0
   47.6160   34.7660   41.5820 C   0  0  0  0  0  0  0  0  0  0  0  0
   48.6710   35.4410   41.5180 O   0  0  0  0  0  0  0  0  0  0  0  0
   44.8410   35.1320   44.0070 C   0  0  0  0  0  0  0  0  0  0  0  0
   45.6300   35.2800   42.8440 C   0  0  0  0  0  0  0  0  0  0  0  0
   46.8550   34.5830   42.7800 C   0  0  0  0  0  0  0  0  0  0  0  0
   47.1950   33.8110   43.8460 N   0  0  0  0  0  0  0  0  0  0  0  0
   46.4080   33.7000   44.9390 C   0  0  0  0  0  0  0  0  0  0  0  0
   45.2520   34.3590   44.9980 N   0  0  0  0  0  0  0  0  0  0  0  0
   43.6110   35.8260   44.0860 N   0  0  0  0  0  0  0  0  0  0  0  0
   45.2760   35.9190   42.0420 H   0  0  0  0  0  0  0  0  0  0  0  0
   46.7300   33.0700   45.7590 H   0  0  0  0  0  0  0  0  0  0  0  0
   43.8330   36.8540   44.2270 H   0  0  0  0  0  0  0  0  0  0  0  0
   42.6300   35.4330   44.0200 H   0  0  0  0  0  0  0  0  0  0  0  0
   47.9780   30.9140   35.8930 C   0  0  0  0  0  2  0  0  0  0  0  0
   48.9680   30.4250   35.9820 H   0  0  0  0  0  0  0  0  0  0  0  0
   48.0050   30.0390   38.5260 C   0  0  0  0  0  0  0  0  0  0  0  0
   49.0820   29.4760   38.7830 O   0  0  0  0  0  0  0  0  0  0  0  0
   47.0790   29.0150   38.6270 O   0  0  0  0  0  0  0  0  0  0  0  0
   47.0980   28.1690   38.0770 H   0  0  0  0  0  0  0  0  0  0  0  0
  1  2  2  0  0  0  0
  2 26  1  0  0  0  0
  2  3  1  0  0  0  0
  3  7  1  0  0  0  0
  3  4  1  0  0  0  0
  4  5  2  0  0  0  0
  6  4  1  0  0  0  0
  6 11  1  1  0  0  0
  7  8  1  6  0  0  0
  7  6  1  0  0  0  0
  9  1  1  0  0  0  0
  9  8  1  0  0  0  0
 10  9  1  0  0  0  0
 11 15  1  0  0  0  0
 12 11  2  0  0  0  0
 13 19  1  0  0  0  0
 13 18  1  0  0  0  0
 14 13  2  0  0  0  0
 15 14  1  0  0  0  0
 15 16  2  0  0  0  0
 16 17  1  0  0  0  0
 17 18  2  0  0  0  0
 17 21  1  0  0  0  0
 19 22  1  0  0  0  0
 20 14  1  0  0  0  0
 23 19  1  0  0  0  0
 24 25  1  0  0  0  0
 24  1  1  0  0  0  0
 26 28  1  0  0  0  0
 26 27  2  0  0  0  0
 29 28  1  0  0  0  0
M  END
>  <minimizedAffinity>
-5.02252579

>  <minimizedRMSD>
0.740710318

$$$$
