
 OpenBabel03242515043D

 46 49  0  0  1  0  0  0  0  0999 V2000
   44.7360   34.6540   41.9160 C   0  0  0  0  0  0  0  0  0  0  0  0
   46.0180   34.5760   41.3710 C   0  0  0  0  0  0  0  0  0  0  0  0
   47.0970   34.4230   42.2360 C   0  0  0  0  0  0  0  0  0  0  0  0
   46.8460   34.3580   43.5700 N   0  0  0  0  0  0  0  0  0  0  0  0
   45.6070   34.4360   44.0820 C   0  0  0  0  0  0  0  0  0  0  0  0
   44.5810   34.5820   43.2520 N   0  0  0  0  0  0  0  0  0  0  0  0
   46.1850   34.6300   40.3080 H   0  0  0  0  0  0  0  0  0  0  0  0
   45.4730   34.3550   45.5180 C   0  0  0  0  0  0  0  0  0  0  0  0
   44.5390   34.9950   46.0520 O   0  0  0  0  0  0  0  0  0  0  0  0
   46.4180   33.5480   46.2310 N   0  0  0  0  0  0  0  0  0  0  0  0
   45.9320   32.6300   46.4230 H   0  0  0  0  0  0  0  0  0  0  0  0
   47.2190   34.1980   46.2750 H   0  0  0  0  0  0  0  0  0  0  0  0
   43.3800   34.8510   40.7610 S   0  0  0  0  0  0  0  0  0  0  0  0
   41.8270   35.2730   41.5820 C   0  0  0  0  0  0  0  0  0  0  0  0
   41.9770   35.7600   42.5730 H   0  0  0  0  0  0  0  0  0  0  0  0
   41.3000   34.3150   41.7810 H   0  0  0  0  0  0  0  0  0  0  0  0
   40.9320   36.1290   40.7430 C   0  0  0  0  0  0  0  0  0  0  0  0
   41.5960   36.8080   40.1360 H   0  0  0  0  0  0  0  0  0  0  0  0
   40.2630   36.7920   41.3280 H   0  0  0  0  0  0  0  0  0  0  0  0
   41.7570   36.3020   37.8230 Cl  0  0  0  0  0  0  0  0  0  0  0  0
   40.4540   35.3060   38.4080 C   0  0  0  0  0  0  0  0  0  0  0  0
   40.1660   35.3100   39.7820 C   0  0  0  0  0  0  0  0  0  0  0  0
   39.1270   34.5000   40.1560 C   0  0  0  0  0  0  0  0  0  0  0  0
   38.3480   33.6960   39.3390 C   0  0  0  0  0  0  0  0  0  0  0  0
   38.6670   33.7240   38.0020 C   0  0  0  0  0  0  0  0  0  0  0  0
   37.7320   32.7340   36.8790 Cl  0  0  0  0  0  0  0  0  0  0  0  0
   39.6990   34.5150   37.5490 C   0  0  0  0  0  0  0  0  0  0  0  0
   38.9130   34.5110   41.2260 H   0  0  0  0  0  0  0  0  0  0  0  0
   37.5490   33.0960   39.7620 H   0  0  0  0  0  0  0  0  0  0  0  0
   39.9700   34.5540   36.4930 H   0  0  0  0  0  0  0  0  0  0  0  0
   48.4780   34.3380   41.6670 C   0  0  0  0  0  0  0  0  0  0  0  0
   48.8120   33.0160   41.1230 C   0  0  0  0  0  0  0  0  0  0  0  0
   48.8860   32.7260   39.8350 C   0  0  0  0  0  0  0  0  0  0  0  0
   49.2120   31.4280   39.3760 N   0  0  0  0  0  0  0  0  0  0  0  0
   49.8690   30.5560   38.4740 C   0  0  0  0  0  0  0  0  0  0  0  0
   50.4670   30.7640   37.3640 O   0  0  0  0  0  0  0  0  0  0  0  0
   49.6100   29.3410   39.2790 C   0  0  0  0  0  0  0  0  0  0  0  0
   50.5320   29.0050   39.7700 H   0  0  0  0  0  0  0  0  0  0  0  0
   48.7060   30.2470   40.0510 C   0  0  1  0  0  0  0  0  0  0  0  0
   49.3120   30.3880   41.7770 S   0  0  0  0  0  0  0  0  0  0  0  0
   49.0460   32.0920   42.2590 C   0  0  0  0  0  0  0  0  0  0  0  0
   49.9600   32.4010   42.8400 H   0  0  0  0  0  0  0  0  0  0  0  0
   48.6210   33.7860   38.8720 C   0  0  0  0  0  0  0  0  0  0  0  0
   47.5540   33.8600   38.2080 O   0  0  0  0  0  0  0  0  0  0  0  0
   48.6390   34.8700   38.0520 O   0  0  0  0  0  0  0  0  0  0  0  0
   49.1780   35.6990   38.3470 H   0  0  0  0  0  0  0  0  0  0  0  0
  1  6  1  0  0  0  0
  2  1  2  0  0  0  0
  2  3  1  0  0  0  0
  3  4  2  0  0  0  0
  4  5  1  0  0  0  0
  5  8  1  0  0  0  0
  6  5  2  0  0  0  0
  7  2  1  0  0  0  0
  8  9  2  0  0  0  0
  8 10  1  0  0  0  0
 10 12  1  0  0  0  0
 10 11  1  0  0  0  0
 13 14  1  0  0  0  0
 13  1  1  0  0  0  0
 14 16  1  0  0  0  0
 14 15  1  0  0  0  0
 17 19  1  0  0  0  0
 17 14  1  0  0  0  0
 18 17  1  0  0  0  0
 20 21  1  0  0  0  0
 21 22  1  0  0  0  0
 22 23  2  0  0  0  0
 22 17  1  0  0  0  0
 23 28  1  0  0  0  0
 24 29  1  0  0  0  0
 24 23  1  0  0  0  0
 25 24  2  0  0  0  0
 26 25  1  0  0  0  0
 27 25  1  0  0  0  0
 27 21  2  0  0  0  0
 30 27  1  0  0  0  0
 31  3  1  0  0  0  0
 32 31  1  0  0  0  0
 32 41  1  0  0  0  0
 33 32  2  0  0  0  0
 34 33  1  0  0  0  0
 34 39  1  0  0  0  0
 35 37  1  0  0  0  0
 35 34  1  0  0  0  0
 36 35  2  0  0  0  0
 37 38  1  0  0  0  0
 39 37  1  6  0  0  0
 39 40  1  0  0  0  0
 40 41  1  0  0  0  0
 41 42  1  0  0  0  0
 43 33  1  0  0  0  0
 44 43  2  0  0  0  0
 45 46  1  0  0  0  0
 45 43  1  0  0  0  0
M  END
>  <minimizedAffinity>
-7.09331942

>  <minimizedRMSD>
1.20870638

$$$$
