
 OpenBabel03252503093D

 34 38  0  0  1  0  0  0  0  0999 V2000
   47.6010   34.6670   42.4440 C   0  0  2  0  0  3  0  0  0  0  0  0
   48.4290   35.4770   41.8820 O   0  0  0  0  0  1  0  0  0  0  0  0
   47.2370   30.7720   46.0590 C   0  0  0  0  0  0  0  0  0  0  0  0
   47.8560   30.6460   44.9190 C   0  0  0  0  0  0  0  0  0  0  0  0
   47.9640   31.6830   43.9520 N   0  0  0  0  0  0  0  0  0  0  0  0
   48.6300   32.4220   42.9310 C   0  0  2  0  0  0  0  0  0  0  0  0
   49.4100   32.0480   42.0200 O   0  0  0  0  0  1  0  0  0  0  0  0
   47.9950   33.6200   43.4700 C   0  0  2  0  0  3  0  0  0  0  0  0
   46.8860   32.6220   43.7440 C   0  0  2  0  0  0  0  0  0  0  0  0
   45.9850   33.0590   45.2110 S   0  0  0  0  0  0  0  0  0  0  0  0
   46.5670   31.9850   46.5170 C   0  0  0  0  0  3  0  0  0  0  0  0
   45.6750   31.6680   47.1160 H   0  0  0  0  0  0  0  0  0  0  0  0
   47.2700   29.5490   46.8740 C   0  0  0  0  0  2  0  0  0  0  0  0
   47.0540   29.8280   47.9460 H   0  0  0  0  0  0  0  0  0  0  0  0
   48.4780   29.3640   44.6080 C   0  0  0  0  0  0  0  0  0  0  0  0
   48.3850   28.7660   43.4820 O   0  0  0  0  0  0  0  0  0  0  0  0
   49.1460   28.1710   44.5480 O   0  0  0  0  0  0  0  0  0  0  0  0
   49.6410   27.7840   45.3650 H   0  0  0  0  0  0  0  0  0  0  0  0
   45.3840   35.6640   42.7170 C   0  0  0  0  0  0  0  0  0  0  0  0
   46.2670   34.8270   42.0090 C   0  0  0  0  0  0  0  0  0  0  0  0
   45.7070   34.2270   40.8770 C   0  0  0  0  0  0  0  0  0  0  0  0
   44.4350   34.4410   40.5020 N   0  0  0  0  0  0  0  0  0  0  0  0
   43.6270   35.2630   41.2260 C   0  0  0  0  0  0  0  0  0  0  0  0
   44.1090   35.8710   42.3320 N   0  0  0  0  0  0  0  0  0  0  0  0
   45.7810   36.1490   43.6060 H   0  0  0  0  0  0  0  0  0  0  0  0
   42.6150   35.3990   40.8800 H   0  0  0  0  0  0  0  0  0  0  0  0
   46.5050   33.3740   40.1220 C   0  0  0  0  0  0  0  0  0  0  0  0
   46.6270   32.0110   39.9930 C   0  0  0  0  0  0  0  0  0  0  0  0
   47.4750   31.4010   39.2020 C   0  0  0  0  0  0  0  0  0  0  0  0
   48.2900   32.2270   38.4560 C   0  0  0  0  0  0  0  0  0  0  0  0
   47.7420   33.9270   38.9810 S   0  0  0  0  0  0  0  0  0  0  0  0
   46.0390   31.2460   40.4760 H   0  0  0  0  0  0  0  0  0  0  0  0
   47.7730   30.4180   38.9160 H   0  0  0  0  0  0  0  0  0  0  0  0
   49.0830   32.2390   37.7240 H   0  0  0  0  0  0  0  0  0  0  0  0
  1  2  1  6  0  0  0
  3 11  1  0  0  0  0
  3 13  1  0  0  0  0
  4  3  2  0  0  0  0
  5  4  1  0  0  0  0
  6  7  1  6  0  0  0
  6  8  1  0  0  0  0
  6  9  1  0  0  0  0
  6  5  1  0  0  0  0
  8  1  1  6  0  0  0
  8  9  1  0  0  0  0
  9  5  1  0  0  0  0
  9 10  1  6  0  0  0
 10 11  1  0  0  0  0
 11 12  1  0  0  0  0
 13 14  1  0  0  0  0
 15  4  1  0  0  0  0
 16 15  2  0  0  0  0
 17 15  1  0  0  0  0
 17 18  1  0  0  0  0
 19 25  1  0  0  0  0
 20  1  1  0  0  0  0
 20 19  2  0  0  0  0
 21 20  1  0  0  0  0
 22 21  2  0  0  0  0
 22 23  1  0  0  0  0
 23 24  2  0  0  0  0
 24 19  1  0  0  0  0
 26 23  1  0  0  0  0
 27 21  1  0  0  0  0
 28 27  2  0  0  0  0
 28 32  1  0  0  0  0
 29 28  1  0  0  0  0
 30 31  1  0  0  0  0
 30 29  2  0  0  0  0
 31 27  1  0  0  0  0
 33 29  1  0  0  0  0
 34 30  1  0  0  0  0
M  END
>  <minimizedAffinity>
-4.68165159

>  <minimizedRMSD>
5.50348902

$$$$
