
 OpenBabel03242519413D

 36 40  0  0  1  0  0  0  0  0999 V2000
   47.0950   34.1930   39.5950 O   0  0  0  0  0  0  0  0  0  0  0  0
   48.0960   32.8360   41.5870 O   0  0  0  0  0  0  0  0  0  0  0  0
   47.1980   34.0280   41.2430 P   0  0  2  0  0  0  0  0  0  0  0  0
   45.6330   33.7450   41.8810 O   0  0  0  0  0  0  0  0  0  0  0  0
   44.4050   35.8670   44.5800 C   0  0  0  0  0  0  0  0  0  0  0  0
   44.7010   35.3940   43.2810 C   0  0  0  0  0  0  0  0  0  0  0  0
   45.3620   34.1690   43.1640 C   0  0  0  0  0  0  0  0  0  0  0  0
   45.6870   33.4960   44.2910 N   0  0  0  0  0  0  0  0  0  0  0  0
   45.3940   33.9680   45.5230 C   0  0  0  0  0  0  0  0  0  0  0  0
   44.7620   35.1370   45.6810 N   0  0  0  0  0  0  0  0  0  0  0  0
   43.8970   36.8070   44.7090 H   0  0  0  0  0  0  0  0  0  0  0  0
   44.3920   36.0180   42.4790 H   0  0  0  0  0  0  0  0  0  0  0  0
   45.7090   33.3310   46.3390 H   0  0  0  0  0  0  0  0  0  0  0  0
   47.8370   35.3580   41.9940 O   0  0  0  0  0  0  0  0  0  0  0  0
   49.0610   35.7420   41.4680 C   0  0  0  0  0  0  0  0  0  0  0  0
   49.4100   37.0420   41.8060 F   0  0  0  0  0  0  0  0  0  0  0  0
   50.0210   34.8410   41.8000 F   0  0  0  0  0  0  0  0  0  0  0  0
   48.9070   35.7390   40.0880 F   0  0  0  0  0  0  0  0  0  0  0  0
   46.6890   33.2700   38.6680 C   0  0  1  0  0  3  0  0  0  0  0  0
   45.3980   33.0030   38.5570 O   0  0  0  0  0  0  0  0  0  0  0  0
   47.8830   30.1970   34.5540 C   0  0  0  0  0  0  0  0  0  0  0  0
   47.8260   29.7310   35.7750 C   0  0  0  0  0  0  0  0  0  0  0  0
   47.5540   30.5990   36.8650 N   0  0  0  0  0  0  0  0  0  0  0  0
   46.9230   30.8620   38.1070 C   0  0  2  0  0  0  0  0  0  0  0  0
   46.7380   30.0500   39.0700 O   0  0  0  0  0  1  0  0  0  0  0  0
   46.7310   32.2700   37.5950 C   0  0  2  0  0  0  0  0  0  0  0  0
   48.0670   31.9350   36.9900 C   0  0  2  0  0  0  0  0  0  0  0  0
   48.4420   32.7260   35.4310 S   0  0  0  0  0  0  0  0  0  0  0  0
   47.6680   31.6100   34.2590 C   0  0  0  0  0  3  0  0  0  0  0  0
   46.5580   31.8070   34.3310 H   0  0  0  0  0  0  0  0  0  0  0  0
   48.1690   29.2840   33.4500 C   0  0  0  0  0  2  0  0  0  0  0  0
   48.1440   29.7730   32.4520 H   0  0  0  0  0  0  0  0  0  0  0  0
   48.0380   28.3180   36.0610 C   0  0  0  0  0  0  0  0  0  0  0  0
   49.1040   27.7600   36.3430 O   0  0  0  0  0  0  0  0  0  0  0  0
   47.0630   27.3360   36.0680 O   0  0  0  0  0  0  0  0  0  0  0  0
   47.1480   26.4320   35.6560 H   0  0  0  0  0  0  0  0  0  0  0  0
  1  3  1  0  0  0  0
  3  2  2  1  0  0  0
  3  4  1  0  0  0  0
  3 14  1  0  0  0  0
  4  7  1  0  0  0  0
  5 11  1  0  0  0  0
  5 10  1  0  0  0  0
  6  5  2  0  0  0  0
  7  6  1  0  0  0  0
  7  8  2  0  0  0  0
  8  9  1  0  0  0  0
  9 10  2  0  0  0  0
  9 13  1  0  0  0  0
 12  6  1  0  0  0  0
 15 17  1  0  0  0  0
 15 16  1  0  0  0  0
 15 14  1  0  0  0  0
 18 15  1  0  0  0  0
 19  1  1  6  0  0  0
 20 19  1  0  0  0  0
 21 22  2  0  0  0  0
 22 33  1  0  0  0  0
 22 23  1  0  0  0  0
 23 27  1  0  0  0  0
 23 24  1  0  0  0  0
 24 25  1  1  0  0  0
 26 24  1  0  0  0  0
 26 20  1  6  0  0  0
 26 19  1  0  0  0  0
 27 28  1  1  0  0  0
 27 26  1  0  0  0  0
 27 24  1  0  0  0  0
 29 30  1  0  0  0  0
 29 21  1  0  0  0  0
 29 28  1  0  0  0  0
 31 21  1  0  0  0  0
 32 31  1  0  0  0  0
 33 35  1  0  0  0  0
 33 34  2  0  0  0  0
 36 35  1  0  0  0  0
M  END
>  <minimizedAffinity>
-5.2419467

>  <minimizedRMSD>
1.71414185

$$$$
