
 OpenBabel03252500143D

 45 50  0  0  1  0  0  0  0  0999 V2000
   47.1270   32.9140   37.7620 C   0  0  0  0  0  0  0  0  0  0  0  0
   45.9510   33.1450   37.0310 C   0  0  0  0  0  0  0  0  0  0  0  0
   45.8120   32.1680   36.0760 C   0  0  0  0  0  0  0  0  0  0  0  0
   46.9280   31.3710   36.2690 C   0  0  0  0  0  0  0  0  0  0  0  0
   47.6810   31.8320   37.2640 O   0  0  0  0  0  0  0  0  0  0  0  0
   45.2370   33.9560   37.1680 H   0  0  0  0  0  0  0  0  0  0  0  0
   45.0740   31.9880   35.3360 H   0  0  0  0  0  0  0  0  0  0  0  0
   45.8730   32.3080   40.3610 Cl  0  0  0  0  0  0  0  0  0  0  0  0
   47.0680   33.5470   40.1260 C   0  0  0  0  0  0  0  0  0  0  0  0
   47.4920   34.3180   41.1660 C   0  0  0  0  0  0  0  0  0  0  0  0
   48.4490   35.3200   41.0090 C   0  0  0  0  0  0  0  0  0  0  0  0
   48.9460   35.4870   39.7310 C   0  0  0  0  0  0  0  0  0  0  0  0
   48.5180   34.7070   38.6780 C   0  0  0  0  0  0  0  0  0  0  0  0
   47.5990   33.7550   38.8630 C   0  0  0  0  0  0  0  0  0  0  0  0
   48.7500   35.9030   41.8710 H   0  0  0  0  0  0  0  0  0  0  0  0
   49.6900   36.2590   39.5940 H   0  0  0  0  0  0  0  0  0  0  0  0
   48.9090   34.8400   37.6850 H   0  0  0  0  0  0  0  0  0  0  0  0
   46.7660   32.7960   44.4540 C   0  0  0  0  0  0  0  0  0  0  0  0
   45.8380   33.7060   45.0130 C   0  0  0  0  0  0  0  0  0  0  0  0
   45.4830   34.8250   44.2500 C   0  0  0  0  0  0  0  0  0  0  0  0
   46.0430   34.9770   43.0150 N   0  0  0  0  0  0  0  0  0  0  0  0
   46.9220   34.0910   42.5110 C   0  0  0  0  0  0  0  0  0  0  0  0
   47.2790   33.0090   43.2300 N   0  0  0  0  0  0  0  0  0  0  0  0
   47.0130   31.9530   45.0690 H   0  0  0  0  0  0  0  0  0  0  0  0
   45.3890   33.5940   45.9910 H   0  0  0  0  0  0  0  0  0  0  0  0
   44.5130   35.8490   44.7430 C   0  0  0  0  0  0  0  0  0  0  0  0
   44.9900   37.1120   44.5230 F   0  0  0  0  0  0  0  0  0  0  0  0
   43.3170   35.6850   44.0440 F   0  0  0  0  0  0  0  0  0  0  0  0
   44.2990   35.6060   46.0730 F   0  0  0  0  0  0  0  0  0  0  0  0
   47.3740   30.1260   35.5440 C   0  0  0  0  0  0  0  0  0  0  0  0
   46.2050   29.4380   34.9280 C   0  0  0  0  0  0  0  0  0  0  0  0
   45.9950   29.5180   33.6340 C   0  0  0  0  0  0  0  0  0  0  0  0
   44.8980   28.8700   33.0690 N   0  0  0  0  0  0  0  0  0  0  0  0
   44.2490   28.2000   32.0020 C   0  0  1  0  0  0  0  0  0  0  0  0
   44.4880   28.0220   30.7790 O   0  0  0  0  0  0  0  0  0  0  0  0
   43.1010   27.7260   32.8110 C   0  0  0  0  0  0  0  0  0  0  0  0
   43.1260   26.6550   33.0750 H   0  0  0  0  0  0  0  0  0  0  0  0
   43.6780   28.6910   33.8220 C   0  0  2  0  0  0  0  0  0  0  0  0
   44.1220   27.7360   35.3190 S   0  0  0  0  0  0  0  0  0  0  0  0
   45.4630   28.7540   35.9760 C   0  0  0  0  0  0  0  0  0  0  0  0
   44.9590   29.5090   36.6500 H   0  0  0  0  0  0  0  0  0  0  0  0
   46.8900   30.2750   32.7690 C   0  0  0  0  0  0  0  0  0  0  0  0
   47.3840   29.7720   31.7200 O   0  0  0  0  0  0  0  0  0  0  0  0
   47.6690   31.2290   32.1980 O   0  0  0  0  0  0  0  0  0  0  0  0
   48.3050   31.7820   32.7890 H   0  0  0  0  0  0  0  0  0  0  0  0
  1 14  1  0  0  0  0
  2  6  1  0  0  0  0
  2  1  2  0  0  0  0
  3  4  2  0  0  0  0
  3  2  1  0  0  0  0
  4  5  1  0  0  0  0
  5  1  1  0  0  0  0
  7  3  1  0  0  0  0
  9  8  1  0  0  0  0
  9 10  1  0  0  0  0
 10 22  1  0  0  0  0
 11 10  2  0  0  0  0
 11 15  1  0  0  0  0
 12 11  1  0  0  0  0
 13 14  1  0  0  0  0
 13 12  2  0  0  0  0
 14  9  2  0  0  0  0
 16 12  1  0  0  0  0
 17 13  1  0  0  0  0
 18 19  1  0  0  0  0
 18 24  1  0  0  0  0
 19 25  1  0  0  0  0
 20 26  1  0  0  0  0
 20 19  2  0  0  0  0
 21 20  1  0  0  0  0
 22 21  2  0  0  0  0
 22 23  1  0  0  0  0
 23 18  2  0  0  0  0
 26 29  1  0  0  0  0
 27 26  1  0  0  0  0
 28 26  1  0  0  0  0
 30  4  1  0  0  0  0
 31 30  1  0  0  0  0
 31 40  1  0  0  0  0
 32 31  2  0  0  0  0
 33 32  1  0  0  0  0
 33 38  1  0  0  0  0
 34 35  1  6  0  0  0
 34 36  1  0  0  0  0
 34 33  1  0  0  0  0
 34 38  1  0  0  0  0
 36 37  1  0  0  0  0
 38 36  1  1  0  0  0
 38 39  1  0  0  0  0
 39 40  1  0  0  0  0
 40 41  1  0  0  0  0
 42 32  1  0  0  0  0
 43 42  2  0  0  0  0
 44 42  1  0  0  0  0
 44 45  1  0  0  0  0
M  END
>  <minimizedAffinity>
-6.7691679

>  <minimizedRMSD>
0.993243277

$$$$
