
 OpenBabel03242520453D

 29 31  0  0  1  0  0  0  0  0999 V2000
   48.8710   31.6270   37.2250 C   0  0  0  0  0  0  0  0  0  0  0  0
   49.6250   31.8420   38.2880 C   0  0  0  0  0  0  0  0  0  0  0  0
   49.0510   32.4920   39.4150 N   0  0  0  0  0  0  0  0  0  0  0  0
   48.8460   32.4900   40.8510 C   0  0  0  0  0  0  0  0  0  0  0  0
   49.4430   31.9390   41.8400 O   0  0  0  0  0  0  0  0  0  0  0  0
   47.6500   33.3990   40.6810 C   0  0  2  0  0  3  0  0  0  0  0  0
   48.2750   33.7400   39.3440 C   0  0  2  0  0  3  0  0  0  0  0  0
   47.1820   33.6060   37.9150 S   0  0  0  0  0  0  0  0  0  0  0  0
   47.4510   32.0000   37.1290 C   0  0  0  0  0  3  0  0  0  0  0  0
   47.1190   31.9930   36.0710 H   0  0  0  0  0  0  0  0  0  0  0  0
   47.6580   34.5080   41.6880 C   0  0  0  0  0  0  0  0  0  0  0  0
   48.3580   35.5060   41.4000 O   0  0  0  0  0  0  0  0  0  0  0  0
   44.9260   35.0830   44.1220 C   0  0  0  0  0  0  0  0  0  0  0  0
   45.7170   35.1660   42.9540 C   0  0  0  0  0  0  0  0  0  0  0  0
   46.8920   34.3880   42.8910 C   0  0  0  0  0  0  0  0  0  0  0  0
   47.1860   33.6050   43.9640 N   0  0  0  0  0  0  0  0  0  0  0  0
   46.3990   33.5580   45.0610 C   0  0  0  0  0  0  0  0  0  0  0  0
   45.2890   34.2930   45.1190 N   0  0  0  0  0  0  0  0  0  0  0  0
   43.7460   35.8590   44.1990 N   0  0  0  0  0  0  0  0  0  0  0  0
   45.4020   35.8200   42.1470 H   0  0  0  0  0  0  0  0  0  0  0  0
   46.6820   32.9160   45.8870 H   0  0  0  0  0  0  0  0  0  0  0  0
   44.0370   36.8710   44.3290 H   0  0  0  0  0  0  0  0  0  0  0  0
   42.7410   35.5310   44.1420 H   0  0  0  0  0  0  0  0  0  0  0  0
   49.5040   30.9660   36.0860 C   0  0  0  0  0  2  0  0  0  0  0  0
   50.3600   31.5490   35.6900 H   0  0  0  0  0  0  0  0  0  0  0  0
   51.0280   31.4480   38.3530 C   0  0  0  0  0  0  0  0  0  0  0  0
   52.0210   32.0510   37.9120 O   0  0  0  0  0  0  0  0  0  0  0  0
   51.5740   30.3100   38.9200 O   0  0  0  0  0  0  0  0  0  0  0  0
   52.1260   29.6280   38.4210 H   0  0  0  0  0  0  0  0  0  0  0  0
  1  2  2  0  0  0  0
  2 26  1  0  0  0  0
  2  3  1  0  0  0  0
  3  4  1  0  0  0  0
  4  5  2  0  0  0  0
  6  4  1  0  0  0  0
  6 11  1  1  0  0  0
  7  8  1  6  0  0  0
  7  3  1  0  0  0  0
  7  6  1  0  0  0  0
  9  1  1  0  0  0  0
  9  8  1  0  0  0  0
 10  9  1  0  0  0  0
 11 15  1  0  0  0  0
 12 11  2  0  0  0  0
 13 19  1  0  0  0  0
 13 18  1  0  0  0  0
 14 13  2  0  0  0  0
 15 14  1  0  0  0  0
 15 16  2  0  0  0  0
 16 17  1  0  0  0  0
 17 18  2  0  0  0  0
 17 21  1  0  0  0  0
 19 22  1  0  0  0  0
 20 14  1  0  0  0  0
 23 19  1  0  0  0  0
 24  1  1  0  0  0  0
 25 24  1  0  0  0  0
 26 28  1  0  0  0  0
 27 26  2  0  0  0  0
 29 28  1  0  0  0  0
M  END
>  <minimizedAffinity>
-5.23579931

>  <minimizedRMSD>
1.56771958

$$$$
