
 OpenBabel03242520453D

 29 31  0  0  1  0  0  0  0  0999 V2000
   49.0160   31.7070   36.9650 C   0  0  0  0  0  0  0  0  0  0  0  0
   49.7370   31.8760   38.0600 C   0  0  0  0  0  0  0  0  0  0  0  0
   49.1480   32.5290   39.1750 N   0  0  0  0  0  0  0  0  0  0  0  0
   48.8880   32.5110   40.6030 C   0  0  0  0  0  0  0  0  0  0  0  0
   49.4250   31.9210   41.6030 O   0  0  0  0  0  0  0  0  0  0  0  0
   47.7380   33.4710   40.4040 C   0  0  2  0  0  3  0  0  0  0  0  0
   48.4240   33.8090   39.0980 C   0  0  2  0  0  3  0  0  0  0  0  0
   47.3820   33.7410   37.6270 S   0  0  0  0  0  0  0  0  0  0  0  0
   47.6150   32.1380   36.8230 C   0  0  0  0  0  3  0  0  0  0  0  0
   47.3250   32.1620   35.7540 H   0  0  0  0  0  0  0  0  0  0  0  0
   47.7510   34.5620   41.4310 C   0  0  0  0  0  0  0  0  0  0  0  0
   48.4800   35.5480   41.1740 O   0  0  0  0  0  0  0  0  0  0  0  0
   44.9430   35.0930   43.7860 C   0  0  0  0  0  0  0  0  0  0  0  0
   45.7600   35.1810   42.6370 C   0  0  0  0  0  0  0  0  0  0  0  0
   46.9590   34.4390   42.6170 C   0  0  0  0  0  0  0  0  0  0  0  0
   47.2500   33.6850   43.7100 N   0  0  0  0  0  0  0  0  0  0  0  0
   46.4370   33.6320   44.7880 C   0  0  0  0  0  0  0  0  0  0  0  0
   45.3050   34.3330   44.8060 N   0  0  0  0  0  0  0  0  0  0  0  0
   43.7370   35.8330   43.8210 N   0  0  0  0  0  0  0  0  0  0  0  0
   45.4450   35.8100   41.8110 H   0  0  0  0  0  0  0  0  0  0  0  0
   46.7200   33.0130   45.6320 H   0  0  0  0  0  0  0  0  0  0  0  0
   43.9940   36.8560   43.9390 H   0  0  0  0  0  0  0  0  0  0  0  0
   42.7450   35.4740   43.7450 H   0  0  0  0  0  0  0  0  0  0  0  0
   49.6640   31.0400   35.8390 C   0  0  0  0  0  2  0  0  0  0  0  0
   50.5570   31.5940   35.4860 H   0  0  0  0  0  0  0  0  0  0  0  0
   51.1200   31.4230   38.1690 C   0  0  0  0  0  0  0  0  0  0  0  0
   52.1570   32.0250   37.8430 O   0  0  0  0  0  0  0  0  0  0  0  0
   51.5930   30.2190   38.6590 O   0  0  0  0  0  0  0  0  0  0  0  0
   52.1510   29.5630   38.1330 H   0  0  0  0  0  0  0  0  0  0  0  0
  1  2  2  0  0  0  0
  2 26  1  0  0  0  0
  2  3  1  0  0  0  0
  3  4  1  0  0  0  0
  4  5  2  0  0  0  0
  6  4  1  0  0  0  0
  6 11  1  1  0  0  0
  7  8  1  6  0  0  0
  7  3  1  0  0  0  0
  7  6  1  0  0  0  0
  9  1  1  0  0  0  0
  9  8  1  0  0  0  0
 10  9  1  0  0  0  0
 11 15  1  0  0  0  0
 12 11  2  0  0  0  0
 13 19  1  0  0  0  0
 13 18  1  0  0  0  0
 14 13  2  0  0  0  0
 15 14  1  0  0  0  0
 15 16  2  0  0  0  0
 16 17  1  0  0  0  0
 17 18  2  0  0  0  0
 17 21  1  0  0  0  0
 19 22  1  0  0  0  0
 20 14  1  0  0  0  0
 23 19  1  0  0  0  0
 24  1  1  0  0  0  0
 25 24  1  0  0  0  0
 26 28  1  0  0  0  0
 27 26  2  0  0  0  0
 29 28  1  0  0  0  0
M  END
>  <minimizedAffinity>
-5.1683898

>  <minimizedRMSD>
1.44644308

$$$$
