
 OpenBabel03252500163D

 45 50  0  0  1  0  0  0  0  0999 V2000
   38.0450   32.9570   39.7330 C   0  0  0  0  0  0  0  0  0  0  0  0
   37.8320   32.3710   38.4770 C   0  0  0  0  0  0  0  0  0  0  0  0
   36.9940   31.2920   38.6170 C   0  0  0  0  0  0  0  0  0  0  0  0
   36.7290   31.2670   39.9750 C   0  0  0  0  0  0  0  0  0  0  0  0
   37.3590   32.2550   40.6050 O   0  0  0  0  0  0  0  0  0  0  0  0
   38.2450   32.6890   37.5200 H   0  0  0  0  0  0  0  0  0  0  0  0
   36.5970   30.5970   37.9200 H   0  0  0  0  0  0  0  0  0  0  0  0
   40.8340   32.3150   40.4420 Cl  0  0  0  0  0  0  0  0  0  0  0  0
   40.2160   33.9330   40.3110 C   0  0  0  0  0  0  0  0  0  0  0  0
   41.0180   35.0100   40.5360 C   0  0  0  0  0  0  0  0  0  0  0  0
   40.5500   36.3200   40.4390 C   0  0  0  0  0  0  0  0  0  0  0  0
   39.2190   36.4640   40.0970 C   0  0  0  0  0  0  0  0  0  0  0  0
   38.4070   35.3750   39.8680 C   0  0  0  0  0  0  0  0  0  0  0  0
   38.8870   34.1310   39.9700 C   0  0  0  0  0  0  0  0  0  0  0  0
   41.2320   37.1400   40.6290 H   0  0  0  0  0  0  0  0  0  0  0  0
   38.8420   37.4740   40.0160 H   0  0  0  0  0  0  0  0  0  0  0  0
   37.3710   35.4910   39.6020 H   0  0  0  0  0  0  0  0  0  0  0  0
   44.5300   33.8710   40.4160 C   0  0  0  0  0  0  0  0  0  0  0  0
   45.0670   34.4100   41.6100 C   0  0  0  0  0  0  0  0  0  0  0  0
   44.2100   35.1540   42.4310 C   0  0  0  0  0  0  0  0  0  0  0  0
   42.9130   35.3180   42.0410 N   0  0  0  0  0  0  0  0  0  0  0  0
   42.4340   34.7920   40.8990 C   0  0  0  0  0  0  0  0  0  0  0  0
   43.2420   34.0740   40.0940 N   0  0  0  0  0  0  0  0  0  0  0  0
   45.2170   33.3080   39.8150 H   0  0  0  0  0  0  0  0  0  0  0  0
   46.0930   34.2840   41.9280 H   0  0  0  0  0  0  0  0  0  0  0  0
   44.6710   35.7670   43.7130 C   0  0  0  0  0  0  0  0  0  0  0  0
   43.6460   36.4340   44.3260 F   0  0  0  0  0  0  0  0  0  0  0  0
   45.1130   34.7410   44.5490 F   0  0  0  0  0  0  0  0  0  0  0  0
   45.7200   36.5970   43.4190 F   0  0  0  0  0  0  0  0  0  0  0  0
   35.8740   30.3250   40.7850 C   0  0  0  0  0  2  0  0  0  0  0  0
   36.2140   28.9100   40.4620 C   0  0  0  0  0  0  0  0  0  0  0  0
   36.8220   28.1570   41.3500 C   0  0  0  0  0  0  0  0  0  0  0  0
   37.1360   26.8350   41.0380 N   0  0  0  0  0  0  0  0  0  0  0  0
   37.3480   25.4790   41.3900 C   0  0  1  0  0  0  0  0  0  0  0  0
   37.4840   24.8450   42.4690 O   0  0  0  0  0  1  0  0  0  0  0  0
   37.3650   24.9730   39.9970 C   0  0  0  0  0  3  0  0  0  0  0  0
   36.4510   24.4380   39.6820 H   0  0  0  0  0  0  0  0  0  0  0  0
   37.4360   26.4490   39.6780 C   0  0  2  0  0  0  0  0  0  0  0  0
   35.9660   26.8770   38.6750 S   0  0  0  0  0  0  0  0  0  0  0  0
   35.7650   28.6200   39.1100 C   0  0  0  0  0  3  0  0  0  0  0  0
   36.3960   29.1870   38.3620 H   0  0  0  0  0  0  0  0  0  0  0  0
   37.1800   28.6740   42.6640 C   0  0  0  0  0  0  0  0  0  0  0  0
   38.3520   29.0680   42.9280 O   0  0  0  0  0  0  0  0  0  0  0  0
   37.1790   29.0910   43.9560 O   0  0  0  0  0  0  0  0  0  0  0  0
   36.7130   28.5160   44.6720 H   0  0  0  0  0  0  0  0  0  0  0  0
  1 14  1  0  0  0  0
  1  5  1  0  0  0  0
  2  3  1  0  0  0  0
  2  1  2  0  0  0  0
  3  4  2  0  0  0  0
  4  5  1  0  0  0  0
  4 30  1  0  0  0  0
  6  2  1  0  0  0  0
  7  3  1  0  0  0  0
  9  8  1  0  0  0  0
  9 10  1  0  0  0  0
 10 22  1  0  0  0  0
 11 10  2  0  0  0  0
 11 15  1  0  0  0  0
 12 11  1  0  0  0  0
 13 14  1  0  0  0  0
 13 12  2  0  0  0  0
 14  9  2  0  0  0  0
 16 12  1  0  0  0  0
 17 13  1  0  0  0  0
 18 19  1  0  0  0  0
 19 25  1  0  0  0  0
 19 20  2  0  0  0  0
 20 26  1  0  0  0  0
 21 20  1  0  0  0  0
 22 21  2  0  0  0  0
 23 18  2  0  0  0  0
 23 22  1  0  0  0  0
 24 18  1  0  0  0  0
 26 27  1  0  0  0  0
 26 28  1  0  0  0  0
 29 26  1  0  0  0  0
 31 30  1  0  0  0  0
 31 32  2  0  0  0  0
 32 42  1  0  0  0  0
 33 32  1  0  0  0  0
 33 34  1  0  0  0  0
 34 35  1  1  0  0  0
 36 34  1  0  0  0  0
 37 36  1  0  0  0  0
 38 39  1  1  0  0  0
 38 36  1  0  0  0  0
 38 33  1  0  0  0  0
 38 34  1  0  0  0  0
 39 40  1  0  0  0  0
 40 31  1  0  0  0  0
 41 40  1  0  0  0  0
 42 43  2  0  0  0  0
 42 44  1  0  0  0  0
 44 45  1  0  0  0  0
M  END
>  <minimizedAffinity>
-8.39469528

$$$$

 OpenBabel03252500163D

 45 49  0  0  1  0  0  0  0  0999 V2000
   38.6600   32.9210   39.3660 C   0  0  0  0  0  0  0  0  0  0  0  0
   37.9880   33.9950   39.9690 C   0  0  0  0  0  0  0  0  0  0  0  0
   38.8970   34.9700   40.2980 C   0  0  0  0  0  0  0  0  0  0  0  0
   40.1030   34.4400   39.8740 C   0  0  0  0  0  0  0  0  0  0  0  0
   39.9340   33.2370   39.3320 O   0  0  0  0  0  0  0  0  0  0  0  0
   36.9190   34.0810   40.1630 H   0  0  0  0  0  0  0  0  0  0  0  0
   38.7950   35.9200   40.7600 H   0  0  0  0  0  0  0  0  0  0  0  0
   38.5530   30.7490   41.3570 Cl  0  0  0  0  0  0  0  0  0  0  0  0
   37.9120   30.6210   39.7470 C   0  0  0  0  0  0  0  0  0  0  0  0
   37.3130   29.4750   39.3210 C   0  0  0  0  0  0  0  0  0  0  0  0
   36.7900   29.3410   38.0350 C   0  0  0  0  0  0  0  0  0  0  0  0
   36.9140   30.4450   37.2140 C   0  0  0  0  0  0  0  0  0  0  0  0
   37.5190   31.6060   37.6440 C   0  0  0  0  0  0  0  0  0  0  0  0
   38.0110   31.7010   38.8840 C   0  0  0  0  0  0  0  0  0  0  0  0
   36.3230   28.4070   37.7490 H   0  0  0  0  0  0  0  0  0  0  0  0
   36.5110   30.3580   36.2140 H   0  0  0  0  0  0  0  0  0  0  0  0
   37.6130   32.4630   37.0020 H   0  0  0  0  0  0  0  0  0  0  0  0
   36.9910   26.0240   40.6010 C   0  0  0  0  0  0  0  0  0  0  0  0
   37.0220   26.2140   42.0030 C   0  0  0  0  0  0  0  0  0  0  0  0
   37.1540   27.5250   42.4790 C   0  0  0  0  0  0  0  0  0  0  0  0
   37.2430   28.5420   41.5740 N   0  0  0  0  0  0  0  0  0  0  0  0
   37.2100   28.3260   40.2460 C   0  0  0  0  0  0  0  0  0  0  0  0
   37.0850   27.0730   39.7670 N   0  0  0  0  0  0  0  0  0  0  0  0
   36.8890   25.0070   40.2760 H   0  0  0  0  0  0  0  0  0  0  0  0
   36.9520   25.4150   42.7280 H   0  0  0  0  0  0  0  0  0  0  0  0
   37.1970   27.8400   43.9390 C   0  0  0  0  0  0  0  0  0  0  0  0
   36.0230   27.4860   44.5450 F   0  0  0  0  0  0  0  0  0  0  0  0
   38.2420   27.1120   44.5080 F   0  0  0  0  0  0  0  0  0  0  0  0
   37.4560   29.1790   44.0640 F   0  0  0  0  0  0  0  0  0  0  0  0
   41.4980   35.0090   39.9440 C   0  0  0  0  0  2  0  0  0  0  0  0
   42.4930   33.9200   40.1550 C   0  0  0  0  0  0  0  0  0  0  0  0
   43.0970   33.3680   39.1280 C   0  0  0  0  0  0  0  0  0  0  0  0
   44.0260   32.3500   39.3360 N   0  0  0  0  0  0  0  0  0  0  0  0
   45.1940   31.6250   38.9890 C   0  0  0  0  0  0  0  0  0  0  0  0
   45.9490   31.5740   37.9840 O   0  0  0  0  0  0  0  0  0  0  0  0
   45.2780   30.8750   40.2650 C   0  0  0  0  0  3  0  0  0  0  0  0
   46.0610   31.2230   40.9610 H   0  0  0  0  0  0  0  0  0  0  0  0
   43.8920   31.4470   40.4570 C   0  0  1  0  0  3  0  0  0  0  0  0
   43.9160   32.4790   41.9680 S   0  0  0  0  0  0  0  0  0  0  0  0
   42.6040   33.6620   41.5820 C   0  0  0  0  0  3  0  0  0  0  0  0
   41.6530   33.1850   41.9650 H   0  0  0  0  0  0  0  0  0  0  0  0
   42.8190   33.7990   37.7640 C   0  0  0  0  0  0  0  0  0  0  0  0
   42.2180   33.0530   36.9400 O   0  0  0  0  0  0  0  0  0  0  0  0
   42.7200   34.4900   36.6000 O   0  0  0  0  0  0  0  0  0  0  0  0
   43.5390   35.0040   36.2460 H   0  0  0  0  0  0  0  0  0  0  0  0
  1  2  2  0  0  0  0
  2  6  1  0  0  0  0
  2  3  1  0  0  0  0
  3  7  1  0  0  0  0
  4 30  1  0  0  0  0
  4  3  2  0  0  0  0
  5  1  1  0  0  0  0
  5  4  1  0  0  0  0
  9  8  1  0  0  0  0
 10  9  1  0  0  0  0
 10 22  1  0  0  0  0
 11 10  2  0  0  0  0
 12 13  2  0  0  0  0
 12 11  1  0  0  0  0
 13 14  1  0  0  0  0
 14  1  1  0  0  0  0
 14  9  2  0  0  0  0
 15 11  1  0  0  0  0
 16 12  1  0  0  0  0
 17 13  1  0  0  0  0
 18 19  1  0  0  0  0
 19 20  2  0  0  0  0
 19 25  1  0  0  0  0
 20 26  1  0  0  0  0
 21 20  1  0  0  0  0
 22 21  2  0  0  0  0
 23 22  1  0  0  0  0
 23 18  2  0  0  0  0
 24 18  1  0  0  0  0
 26 29  1  0  0  0  0
 26 28  1  0  0  0  0
 26 27  1  0  0  0  0
 30 31  1  0  0  0  0
 31 40  1  0  0  0  0
 32 33  1  0  0  0  0
 32 31  2  0  0  0  0
 33 38  1  0  0  0  0
 34 33  1  0  0  0  0
 34 36  1  0  0  0  0
 35 34  2  0  0  0  0
 36 37  1  0  0  0  0
 38 36  1  1  0  0  0
 38 39  1  0  0  0  0
 40 41  1  0  0  0  0
 40 39  1  0  0  0  0
 42 32  1  0  0  0  0
 43 42  2  0  0  0  0
 44 42  1  0  0  0  0
 45 44  1  0  0  0  0
M  END
>  <minimizedAffinity>
-8.06718922

$$$$

 OpenBabel03252500163D

 45 50  0  0  1  0  0  0  0  0999 V2000
   38.2260   32.7550   39.8950 C   0  0  0  0  0  0  0  0  0  0  0  0
   37.3140   32.5430   38.8500 C   0  0  0  0  0  0  0  0  0  0  0  0
   36.7410   31.3030   38.9930 C   0  0  0  0  0  0  0  0  0  0  0  0
   37.3380   30.8050   40.1390 C   0  0  0  0  0  0  0  0  0  0  0  0
   38.2050   31.6780   40.6460 O   0  0  0  0  0  0  0  0  0  0  0  0
   37.0700   33.2260   38.0370 H   0  0  0  0  0  0  0  0  0  0  0  0
   36.0170   30.7770   38.4240 H   0  0  0  0  0  0  0  0  0  0  0  0
   41.0760   32.2500   40.4550 Cl  0  0  0  0  0  0  0  0  0  0  0  0
   40.3780   33.8370   40.3340 C   0  0  0  0  0  0  0  0  0  0  0  0
   41.1420   34.9520   40.4980 C   0  0  0  0  0  0  0  0  0  0  0  0
   40.6100   36.2380   40.4070 C   0  0  0  0  0  0  0  0  0  0  0  0
   39.2570   36.3170   40.1390 C   0  0  0  0  0  0  0  0  0  0  0  0
   38.4840   35.1880   39.9730 C   0  0  0  0  0  0  0  0  0  0  0  0
   39.0250   33.9690   40.0660 C   0  0  0  0  0  0  0  0  0  0  0  0
   41.2640   37.0910   40.5460 H   0  0  0  0  0  0  0  0  0  0  0  0
   38.8310   37.3080   40.0650 H   0  0  0  0  0  0  0  0  0  0  0  0
   37.4310   35.2540   39.7630 H   0  0  0  0  0  0  0  0  0  0  0  0
   44.7070   34.0470   40.1530 C   0  0  0  0  0  0  0  0  0  0  0  0
   45.2670   34.5490   41.3520 C   0  0  0  0  0  0  0  0  0  0  0  0
   44.4070   35.1890   42.2530 C   0  0  0  0  0  0  0  0  0  0  0  0
   43.0850   35.2930   41.9320 N   0  0  0  0  0  0  0  0  0  0  0  0
   42.5850   34.8040   40.7830 C   0  0  0  0  0  0  0  0  0  0  0  0
   43.3940   34.1860   39.9010 N   0  0  0  0  0  0  0  0  0  0  0  0
   45.3970   33.5640   39.4890 H   0  0  0  0  0  0  0  0  0  0  0  0
   46.3130   34.4710   41.6150 H   0  0  0  0  0  0  0  0  0  0  0  0
   44.8920   35.7550   43.5480 C   0  0  0  0  0  0  0  0  0  0  0  0
   45.9490   36.5980   43.3420 F   0  0  0  0  0  0  0  0  0  0  0  0
   43.8440   36.4710   44.1270 F   0  0  0  0  0  0  0  0  0  0  0  0
   45.2250   34.7030   44.3590 F   0  0  0  0  0  0  0  0  0  0  0  0
   37.1490   29.4850   40.8430 C   0  0  0  0  0  2  0  0  0  0  0  0
   38.4700   28.8570   41.1280 C   0  0  0  0  0  0  0  0  0  0  0  0
   38.7610   28.4520   42.3430 C   0  0  0  0  0  0  0  0  0  0  0  0
   39.9990   27.8650   42.6000 N   0  0  0  0  0  0  0  0  0  0  0  0
   40.8420   26.9680   43.3030 C   0  0  1  0  0  0  0  0  0  0  0  0
   40.7350   26.2700   44.3450 O   0  0  0  0  0  1  0  0  0  0  0  0
   41.9910   27.0980   42.3760 C   0  0  0  0  0  3  0  0  0  0  0  0
   42.1440   26.2410   41.6970 H   0  0  0  0  0  0  0  0  0  0  0  0
   41.1690   28.2510   41.8450 C   0  0  2  0  0  0  0  0  0  0  0  0
   40.7940   27.9090   40.0860 S   0  0  0  0  0  0  0  0  0  0  0  0
   39.2420   28.8140   39.8960 C   0  0  0  0  0  3  0  0  0  0  0  0
   39.5430   29.8600   39.5920 H   0  0  0  0  0  0  0  0  0  0  0  0
   37.8120   28.6020   43.4390 C   0  0  0  0  0  0  0  0  0  0  0  0
   37.3070   27.6020   44.0230 O   0  0  0  0  0  0  0  0  0  0  0  0
   36.9800   29.0800   44.3990 O   0  0  0  0  0  0  0  0  0  0  0  0
   36.3410   29.8550   44.1740 H   0  0  0  0  0  0  0  0  0  0  0  0
  1 14  1  0  0  0  0
  1  5  1  0  0  0  0
  2  3  1  0  0  0  0
  2  1  2  0  0  0  0
  3  4  2  0  0  0  0
  4  5  1  0  0  0  0
  4 30  1  0  0  0  0
  6  2  1  0  0  0  0
  7  3  1  0  0  0  0
  9  8  1  0  0  0  0
  9 10  1  0  0  0  0
 10 22  1  0  0  0  0
 11 10  2  0  0  0  0
 11 15  1  0  0  0  0
 12 11  1  0  0  0  0
 13 14  1  0  0  0  0
 13 12  2  0  0  0  0
 14  9  2  0  0  0  0
 16 12  1  0  0  0  0
 17 13  1  0  0  0  0
 18 19  1  0  0  0  0
 19 25  1  0  0  0  0
 19 20  2  0  0  0  0
 20 26  1  0  0  0  0
 21 20  1  0  0  0  0
 22 21  2  0  0  0  0
 23 18  2  0  0  0  0
 23 22  1  0  0  0  0
 24 18  1  0  0  0  0
 26 28  1  0  0  0  0
 26 29  1  0  0  0  0
 27 26  1  0  0  0  0
 30 31  1  0  0  0  0
 31 32  2  0  0  0  0
 32 33  1  0  0  0  0
 32 42  1  0  0  0  0
 33 34  1  0  0  0  0
 34 35  1  1  0  0  0
 36 34  1  0  0  0  0
 37 36  1  0  0  0  0
 38 39  1  6  0  0  0
 38 36  1  0  0  0  0
 38 33  1  0  0  0  0
 38 34  1  0  0  0  0
 40 39  1  0  0  0  0
 40 31  1  0  0  0  0
 41 40  1  0  0  0  0
 42 43  2  0  0  0  0
 42 44  1  0  0  0  0
 45 44  1  0  0  0  0
M  END
>  <minimizedAffinity>
-8.03639126

$$$$

 OpenBabel03252500163D

 45 50  0  0  1  0  0  0  0  0999 V2000
   38.1540   32.8200   39.8070 C   0  0  0  0  0  0  0  0  0  0  0  0
   38.0300   32.1480   38.5820 C   0  0  0  0  0  0  0  0  0  0  0  0
   37.1960   31.0690   38.7400 C   0  0  0  0  0  0  0  0  0  0  0  0
   36.8420   31.1310   40.0770 C   0  0  0  0  0  0  0  0  0  0  0  0
   37.4190   32.1690   40.6780 O   0  0  0  0  0  0  0  0  0  0  0  0
   38.5020   32.4080   37.6350 H   0  0  0  0  0  0  0  0  0  0  0  0
   36.8520   30.3230   38.0690 H   0  0  0  0  0  0  0  0  0  0  0  0
   40.9800   32.2640   40.4390 Cl  0  0  0  0  0  0  0  0  0  0  0  0
   40.3100   33.8630   40.3210 C   0  0  0  0  0  0  0  0  0  0  0  0
   41.0850   34.9640   40.5220 C   0  0  0  0  0  0  0  0  0  0  0  0
   40.5760   36.2590   40.4350 C   0  0  0  0  0  0  0  0  0  0  0  0
   39.2330   36.3620   40.1310 C   0  0  0  0  0  0  0  0  0  0  0  0
   38.4470   35.2480   39.9270 C   0  0  0  0  0  0  0  0  0  0  0  0
   38.9660   34.0200   40.0180 C   0  0  0  0  0  0  0  0  0  0  0  0
   41.2380   37.0990   40.6050 H   0  0  0  0  0  0  0  0  0  0  0  0
   38.8230   37.3600   40.0590 H   0  0  0  0  0  0  0  0  0  0  0  0
   37.4010   35.3330   39.6900 H   0  0  0  0  0  0  0  0  0  0  0  0
   44.6280   33.9380   40.3000 C   0  0  0  0  0  0  0  0  0  0  0  0
   45.1790   34.4870   41.4830 C   0  0  0  0  0  0  0  0  0  0  0  0
   44.3220   35.1990   42.3310 C   0  0  0  0  0  0  0  0  0  0  0  0
   43.0100   35.3240   41.9770 N   0  0  0  0  0  0  0  0  0  0  0  0
   42.5170   34.7890   40.8450 C   0  0  0  0  0  0  0  0  0  0  0  0
   43.3250   34.1010   40.0150 N   0  0  0  0  0  0  0  0  0  0  0  0
   45.3160   33.4000   39.6780 H   0  0  0  0  0  0  0  0  0  0  0  0
   46.2170   34.3930   41.7720 H   0  0  0  0  0  0  0  0  0  0  0  0
   44.7980   35.8200   43.6040 C   0  0  0  0  0  0  0  0  0  0  0  0
   43.7970   36.5430   44.1930 F   0  0  0  0  0  0  0  0  0  0  0  0
   45.1890   34.7960   44.4650 F   0  0  0  0  0  0  0  0  0  0  0  0
   45.8830   36.5990   43.3010 F   0  0  0  0  0  0  0  0  0  0  0  0
   35.9450   30.2340   40.8920 C   0  0  0  0  0  2  0  0  0  0  0  0
   36.6870   29.0170   41.3270 C   0  0  0  0  0  0  0  0  0  0  0  0
   36.6190   27.9120   40.6200 C   0  0  0  0  0  0  0  0  0  0  0  0
   37.3170   26.7790   41.0360 N   0  0  0  0  0  0  0  0  0  0  0  0
   38.0180   25.5740   40.7840 C   0  0  1  0  0  0  0  0  0  0  0  0
   38.1880   24.8300   39.7830 O   0  0  0  0  0  1  0  0  0  0  0  0
   38.5410   25.4240   42.1630 C   0  0  0  0  0  3  0  0  0  0  0  0
   39.6100   25.6710   42.2860 H   0  0  0  0  0  0  0  0  0  0  0  0
   37.5490   26.5300   42.4410 C   0  0  2  0  0  0  0  0  0  0  0  0
   38.4800   27.9700   43.0810 S   0  0  0  0  0  0  0  0  0  0  0  0
   37.4010   29.3220   42.5570 C   0  0  0  0  0  3  0  0  0  0  0  0
   36.6680   29.4630   43.4060 H   0  0  0  0  0  0  0  0  0  0  0  0
   35.8250   27.8420   39.4010 C   0  0  0  0  0  0  0  0  0  0  0  0
   36.1950   27.1600   38.4040 O   0  0  0  0  0  0  0  0  0  0  0  0
   34.8730   27.9870   38.4430 O   0  0  0  0  0  0  0  0  0  0  0  0
   34.4920   28.9230   38.2470 H   0  0  0  0  0  0  0  0  0  0  0  0
  1 14  1  0  0  0  0
  1  5  1  0  0  0  0
  2  3  1  0  0  0  0
  2  1  2  0  0  0  0
  3  4  2  0  0  0  0
  4  5  1  0  0  0  0
  4 30  1  0  0  0  0
  6  2  1  0  0  0  0
  7  3  1  0  0  0  0
  9  8  1  0  0  0  0
  9 10  1  0  0  0  0
 10 22  1  0  0  0  0
 11 10  2  0  0  0  0
 11 15  1  0  0  0  0
 12 11  1  0  0  0  0
 13 14  1  0  0  0  0
 13 12  2  0  0  0  0
 14  9  2  0  0  0  0
 16 12  1  0  0  0  0
 17 13  1  0  0  0  0
 18 19  1  0  0  0  0
 19 25  1  0  0  0  0
 19 20  2  0  0  0  0
 20 26  1  0  0  0  0
 21 20  1  0  0  0  0
 22 21  2  0  0  0  0
 23 18  2  0  0  0  0
 23 22  1  0  0  0  0
 24 18  1  0  0  0  0
 26 27  1  0  0  0  0
 26 28  1  0  0  0  0
 29 26  1  0  0  0  0
 30 31  1  0  0  0  0
 31 40  1  0  0  0  0
 32 33  1  0  0  0  0
 32 31  2  0  0  0  0
 33 38  1  0  0  0  0
 34 35  1  6  0  0  0
 34 33  1  0  0  0  0
 34 36  1  0  0  0  0
 34 38  1  0  0  0  0
 36 37  1  0  0  0  0
 38 36  1  1  0  0  0
 38 39  1  0  0  0  0
 40 39  1  0  0  0  0
 40 41  1  0  0  0  0
 42 32  1  0  0  0  0
 43 42  2  0  0  0  0
 44 42  1  0  0  0  0
 45 44  1  0  0  0  0
M  END
>  <minimizedAffinity>
-7.97024393

$$$$

 OpenBabel03252500163D

 45 50  0  0  1  0  0  0  0  0999 V2000
   38.3760   31.7360   38.5900 C   0  0  0  0  0  0  0  0  0  0  0  0
   37.8150   31.7240   37.3040 C   0  0  0  0  0  0  0  0  0  0  0  0
   37.3430   30.4640   37.0280 C   0  0  0  0  0  0  0  0  0  0  0  0
   37.6420   29.7520   38.1770 C   0  0  0  0  0  0  0  0  0  0  0  0
   38.2470   30.5230   39.0760 O   0  0  0  0  0  0  0  0  0  0  0  0
   37.7450   32.5570   36.6050 H   0  0  0  0  0  0  0  0  0  0  0  0
   36.8590   30.0490   36.1800 H   0  0  0  0  0  0  0  0  0  0  0  0
   41.3240   31.7290   38.5780 Cl  0  0  0  0  0  0  0  0  0  0  0  0
   40.3610   33.0000   39.2670 C   0  0  0  0  0  0  0  0  0  0  0  0
   40.9440   34.0840   39.8500 C   0  0  0  0  0  0  0  0  0  0  0  0
   40.1980   35.1190   40.4120 C   0  0  0  0  0  0  0  0  0  0  0  0
   38.8250   34.9830   40.3410 C   0  0  0  0  0  0  0  0  0  0  0  0
   38.2340   33.8870   39.7510 C   0  0  0  0  0  0  0  0  0  0  0  0
   38.9780   32.9110   39.2210 C   0  0  0  0  0  0  0  0  0  0  0  0
   40.7140   35.9580   40.8630 H   0  0  0  0  0  0  0  0  0  0  0  0
   38.2330   35.7790   40.7710 H   0  0  0  0  0  0  0  0  0  0  0  0
   37.1640   33.7860   39.6970 H   0  0  0  0  0  0  0  0  0  0  0  0
   44.4960   33.9430   38.8410 C   0  0  0  0  0  0  0  0  0  0  0  0
   45.1640   34.3520   40.0200 C   0  0  0  0  0  0  0  0  0  0  0  0
   44.3800   34.6680   41.1370 C   0  0  0  0  0  0  0  0  0  0  0  0
   43.0240   34.5650   41.0320 N   0  0  0  0  0  0  0  0  0  0  0  0
   42.4190   34.1730   39.8950 C   0  0  0  0  0  0  0  0  0  0  0  0
   43.1550   33.8650   38.8090 N   0  0  0  0  0  0  0  0  0  0  0  0
   45.1310   33.7100   38.0090 H   0  0  0  0  0  0  0  0  0  0  0  0
   46.2390   34.4360   40.1130 H   0  0  0  0  0  0  0  0  0  0  0  0
   44.9810   35.1090   42.4310 C   0  0  0  0  0  0  0  0  0  0  0  0
   44.0060   35.3470   43.3610 F   0  0  0  0  0  0  0  0  0  0  0  0
   45.8140   34.0900   42.8920 F   0  0  0  0  0  0  0  0  0  0  0  0
   45.7300   36.2270   42.1770 F   0  0  0  0  0  0  0  0  0  0  0  0
   37.3880   28.3060   38.5220 C   0  0  0  0  0  2  0  0  0  0  0  0
   37.7980   28.0290   39.9280 C   0  0  0  0  0  0  0  0  0  0  0  0
   36.9860   28.3080   40.9210 C   0  0  0  0  0  0  0  0  0  0  0  0
   37.3790   28.0450   42.2320 N   0  0  0  0  0  0  0  0  0  0  0  0
   37.1070   27.6980   43.5790 C   0  0  1  0  0  0  0  0  0  0  0  0
   36.0700   27.6010   44.2860 O   0  0  0  0  0  1  0  0  0  0  0  0
   38.5220   27.4610   43.9520 C   0  0  0  0  0  3  0  0  0  0  0  0
   38.8090   26.3990   44.0490 H   0  0  0  0  0  0  0  0  0  0  0  0
   38.7720   28.1160   42.6130 C   0  0  2  0  0  0  0  0  0  0  0  0
   39.6650   26.9150   41.5590 S   0  0  0  0  0  0  0  0  0  0  0  0
   39.1350   27.4560   39.9180 C   0  0  0  0  0  3  0  0  0  0  0  0
   39.8890   28.2380   39.6060 H   0  0  0  0  0  0  0  0  0  0  0  0
   35.6710   28.8890   40.6840 C   0  0  0  0  0  0  0  0  0  0  0  0
   35.4540   30.1260   40.8300 O   0  0  0  0  0  0  0  0  0  0  0  0
   34.3630   29.1020   40.3870 O   0  0  0  0  0  0  0  0  0  0  0  0
   33.6500   28.4600   40.7600 H   0  0  0  0  0  0  0  0  0  0  0  0
  1  5  1  0  0  0  0
  1 14  1  0  0  0  0
  2  1  2  0  0  0  0
  3  2  1  0  0  0  0
  3  4  2  0  0  0  0
  4 30  1  0  0  0  0
  4  5  1  0  0  0  0
  6  2  1  0  0  0  0
  7  3  1  0  0  0  0
  8  9  1  0  0  0  0
  9 10  1  0  0  0  0
 10 22  1  0  0  0  0
 10 11  2  0  0  0  0
 11 15  1  0  0  0  0
 12 11  1  0  0  0  0
 12 16  1  0  0  0  0
 13 12  2  0  0  0  0
 14  9  2  0  0  0  0
 14 13  1  0  0  0  0
 17 13  1  0  0  0  0
 18 19  1  0  0  0  0
 19 25  1  0  0  0  0
 19 20  2  0  0  0  0
 20 26  1  0  0  0  0
 21 20  1  0  0  0  0
 22 21  2  0  0  0  0
 23 18  2  0  0  0  0
 23 22  1  0  0  0  0
 24 18  1  0  0  0  0
 26 28  1  0  0  0  0
 26 27  1  0  0  0  0
 29 26  1  0  0  0  0
 30 31  1  0  0  0  0
 31 32  2  0  0  0  0
 32 33  1  0  0  0  0
 33 38  1  0  0  0  0
 33 34  1  0  0  0  0
 34 36  1  0  0  0  0
 34 35  1  1  0  0  0
 36 37  1  0  0  0  0
 38 39  1  6  0  0  0
 38 34  1  0  0  0  0
 38 36  1  0  0  0  0
 40 31  1  0  0  0  0
 40 39  1  0  0  0  0
 41 40  1  0  0  0  0
 42 43  2  0  0  0  0
 42 32  1  0  0  0  0
 44 42  1  0  0  0  0
 44 45  1  0  0  0  0
M  END
>  <minimizedAffinity>
-7.52296591

$$$$

 OpenBabel03252500163D

 45 50  0  0  1  0  0  0  0  0999 V2000
   37.5480   31.7020   39.7190 C   0  0  0  0  0  0  0  0  0  0  0  0
   36.9830   31.3370   38.4880 C   0  0  0  0  0  0  0  0  0  0  0  0
   36.2580   30.1820   38.6470 C   0  0  0  0  0  0  0  0  0  0  0  0
   36.4150   29.8880   39.9910 C   0  0  0  0  0  0  0  0  0  0  0  0
   37.1770   30.7960   40.5950 O   0  0  0  0  0  0  0  0  0  0  0  0
   37.0790   31.8590   37.5370 H   0  0  0  0  0  0  0  0  0  0  0  0
   35.6890   29.5930   37.9720 H   0  0  0  0  0  0  0  0  0  0  0  0
   40.4100   31.0930   40.0840 Cl  0  0  0  0  0  0  0  0  0  0  0  0
   39.7500   32.7000   40.1130 C   0  0  0  0  0  0  0  0  0  0  0  0
   40.5500   33.7830   40.3130 C   0  0  0  0  0  0  0  0  0  0  0  0
   40.0500   35.0840   40.3430 C   0  0  0  0  0  0  0  0  0  0  0  0
   38.6870   35.2120   40.1560 C   0  0  0  0  0  0  0  0  0  0  0  0
   37.8750   34.1170   39.9540 C   0  0  0  0  0  0  0  0  0  0  0  0
   38.3880   32.8820   39.9310 C   0  0  0  0  0  0  0  0  0  0  0  0
   40.7320   35.9090   40.5050 H   0  0  0  0  0  0  0  0  0  0  0  0
   38.2840   36.2160   40.1750 H   0  0  0  0  0  0  0  0  0  0  0  0
   36.8150   34.2210   39.8090 H   0  0  0  0  0  0  0  0  0  0  0  0
   43.8080   33.0700   41.9040 C   0  0  0  0  0  0  0  0  0  0  0  0
   44.7130   33.2150   40.8260 C   0  0  0  0  0  0  0  0  0  0  0  0
   44.1840   33.5550   39.5740 C   0  0  0  0  0  0  0  0  0  0  0  0
   42.8360   33.7280   39.4600 N   0  0  0  0  0  0  0  0  0  0  0  0
   42.0020   33.5820   40.5060 C   0  0  0  0  0  0  0  0  0  0  0  0
   42.4900   33.2550   41.7190 N   0  0  0  0  0  0  0  0  0  0  0  0
   44.2510   32.8090   42.8460 H   0  0  0  0  0  0  0  0  0  0  0  0
   45.7830   33.0810   40.9060 H   0  0  0  0  0  0  0  0  0  0  0  0
   45.0480   33.7340   38.3680 C   0  0  0  0  0  0  0  0  0  0  0  0
   45.8690   32.6530   38.1960 F   0  0  0  0  0  0  0  0  0  0  0  0
   44.2170   33.8580   37.2550 F   0  0  0  0  0  0  0  0  0  0  0  0
   45.7570   34.8930   38.5380 F   0  0  0  0  0  0  0  0  0  0  0  0
   35.8720   28.7440   40.8090 C   0  0  0  0  0  2  0  0  0  0  0  0
   36.8720   27.6410   40.8860 C   0  0  0  0  0  0  0  0  0  0  0  0
   37.6620   27.5360   41.9300 C   0  0  0  0  0  0  0  0  0  0  0  0
   38.5940   26.5020   41.9920 N   0  0  0  0  0  0  0  0  0  0  0  0
   39.3800   25.5620   42.7040 C   0  0  1  0  0  0  0  0  0  0  0  0
   39.6800   25.3780   43.9120 O   0  0  0  0  0  1  0  0  0  0  0  0
   39.7870   24.7850   41.5090 C   0  0  0  0  0  3  0  0  0  0  0  0
   39.2740   23.8150   41.3840 H   0  0  0  0  0  0  0  0  0  0  0  0
   39.1870   25.9700   40.7870 C   0  0  2  0  0  0  0  0  0  0  0  0
   37.8100   25.3570   39.7500 S   0  0  0  0  0  0  0  0  0  0  0  0
   36.7640   26.8300   39.6830 C   0  0  0  0  0  3  0  0  0  0  0  0
   37.1320   27.4140   38.7880 H   0  0  0  0  0  0  0  0  0  0  0  0
   37.5870   28.4840   43.0340 C   0  0  0  0  0  0  0  0  0  0  0  0
   38.5040   29.3250   43.2530 O   0  0  0  0  0  0  0  0  0  0  0  0
   37.2130   29.2060   44.1210 O   0  0  0  0  0  0  0  0  0  0  0  0
   36.8260   28.7210   44.9420 H   0  0  0  0  0  0  0  0  0  0  0  0
  1 14  1  0  0  0  0
  1  5  1  0  0  0  0
  2  3  1  0  0  0  0
  2  1  2  0  0  0  0
  3  4  2  0  0  0  0
  4  5  1  0  0  0  0
  4 30  1  0  0  0  0
  6  2  1  0  0  0  0
  7  3  1  0  0  0  0
  8  9  1  0  0  0  0
  9 10  1  0  0  0  0
 10 11  2  0  0  0  0
 10 22  1  0  0  0  0
 11 15  1  0  0  0  0
 12 16  1  0  0  0  0
 12 11  1  0  0  0  0
 13 12  2  0  0  0  0
 14 13  1  0  0  0  0
 14  9  2  0  0  0  0
 17 13  1  0  0  0  0
 18 24  1  0  0  0  0
 19 25  1  0  0  0  0
 19 18  2  0  0  0  0
 20 19  1  0  0  0  0
 21 20  2  0  0  0  0
 21 22  1  0  0  0  0
 22 23  2  0  0  0  0
 23 18  1  0  0  0  0
 26 29  1  0  0  0  0
 26 20  1  0  0  0  0
 27 26  1  0  0  0  0
 28 26  1  0  0  0  0
 30 31  1  0  0  0  0
 31 32  2  0  0  0  0
 32 33  1  0  0  0  0
 32 42  1  0  0  0  0
 33 34  1  0  0  0  0
 34 35  1  1  0  0  0
 36 34  1  0  0  0  0
 37 36  1  0  0  0  0
 38 39  1  1  0  0  0
 38 36  1  0  0  0  0
 38 33  1  0  0  0  0
 38 34  1  0  0  0  0
 40 39  1  0  0  0  0
 40 31  1  0  0  0  0
 41 40  1  0  0  0  0
 42 43  2  0  0  0  0
 42 44  1  0  0  0  0
 44 45  1  0  0  0  0
M  END
>  <minimizedAffinity>
-7.47891808

$$$$

 OpenBabel03252500163D

 45 49  0  0  1  0  0  0  0  0999 V2000
   38.1430   30.5520   40.8800 C   0  0  0  0  0  0  0  0  0  0  0  0
   37.1700   31.5500   40.7190 C   0  0  0  0  0  0  0  0  0  0  0  0
   37.6800   32.5560   39.9350 C   0  0  0  0  0  0  0  0  0  0  0  0
   38.9610   32.1200   39.6470 C   0  0  0  0  0  0  0  0  0  0  0  0
   39.2060   30.9410   40.2140 O   0  0  0  0  0  0  0  0  0  0  0  0
   36.1630   31.5640   41.1330 H   0  0  0  0  0  0  0  0  0  0  0  0
   37.2700   33.4700   39.5860 H   0  0  0  0  0  0  0  0  0  0  0  0
   38.2430   28.0830   39.2710 Cl  0  0  0  0  0  0  0  0  0  0  0  0
   37.9830   28.1100   40.9890 C   0  0  0  0  0  0  0  0  0  0  0  0
   37.8090   26.9560   41.6900 C   0  0  0  0  0  0  0  0  0  0  0  0
   37.5980   26.9470   43.0680 C   0  0  0  0  0  0  0  0  0  0  0  0
   37.5760   28.1820   43.6860 C   0  0  0  0  0  0  0  0  0  0  0  0
   37.7530   29.3510   42.9780 C   0  0  0  0  0  0  0  0  0  0  0  0
   37.9530   29.3250   41.6560 C   0  0  0  0  0  0  0  0  0  0  0  0
   37.4650   25.9990   43.5760 H   0  0  0  0  0  0  0  0  0  0  0  0
   37.4150   28.1910   44.7550 H   0  0  0  0  0  0  0  0  0  0  0  0
   37.7360   30.3110   43.4630 H   0  0  0  0  0  0  0  0  0  0  0  0
   39.0310   23.7940   40.2210 C   0  0  0  0  0  0  0  0  0  0  0  0
   37.8610   23.2610   39.6290 C   0  0  0  0  0  0  0  0  0  0  0  0
   36.6770   23.9990   39.7470 C   0  0  0  0  0  0  0  0  0  0  0  0
   36.7120   25.1850   40.4200 N   0  0  0  0  0  0  0  0  0  0  0  0
   37.8420   25.6640   40.9730 C   0  0  0  0  0  0  0  0  0  0  0  0
   38.9920   24.9690   40.8710 N   0  0  0  0  0  0  0  0  0  0  0  0
   39.9170   23.1990   40.1090 H   0  0  0  0  0  0  0  0  0  0  0  0
   37.8240   22.3220   39.0920 H   0  0  0  0  0  0  0  0  0  0  0  0
   35.3860   23.5300   39.1590 C   0  0  0  0  0  0  0  0  0  0  0  0
   35.5830   22.4220   38.3810 F   0  0  0  0  0  0  0  0  0  0  0  0
   34.5260   23.2050   40.2080 F   0  0  0  0  0  0  0  0  0  0  0  0
   34.8570   24.5710   38.4440 F   0  0  0  0  0  0  0  0  0  0  0  0
   40.0500   32.7640   38.8260 C   0  0  0  0  0  2  0  0  0  0  0  0
   41.1660   33.2120   39.7070 C   0  0  0  0  0  0  0  0  0  0  0  0
   41.1690   34.4260   40.2060 C   0  0  0  0  0  0  0  0  0  0  0  0
   42.2180   34.8350   41.0280 N   0  0  0  0  0  0  0  0  0  0  0  0
   42.7510   35.5990   42.0960 C   0  0  0  0  0  0  0  0  0  0  0  0
   42.3450   36.5600   42.7990 O   0  0  0  0  0  0  0  0  0  0  0  0
   44.0450   34.8770   42.1530 C   0  0  0  0  0  3  0  0  0  0  0  0
   44.1510   34.1730   42.9970 H   0  0  0  0  0  0  0  0  0  0  0  0
   43.5490   34.3030   40.8450 C   0  0  1  0  0  3  0  0  0  0  0  0
   43.4200   32.4880   41.0420 S   0  0  0  0  0  0  0  0  0  0  0  0
   42.1140   32.1170   39.8500 C   0  0  0  0  0  3  0  0  0  0  0  0
   42.6480   31.9380   38.8700 H   0  0  0  0  0  0  0  0  0  0  0  0
   40.0930   35.3650   39.9190 C   0  0  0  0  0  0  0  0  0  0  0  0
   40.3120   36.5980   39.7510 O   0  0  0  0  0  0  0  0  0  0  0  0
   38.8940   35.9530   39.6710 O   0  0  0  0  0  0  0  0  0  0  0  0
   38.0800   35.7030   40.2490 H   0  0  0  0  0  0  0  0  0  0  0  0
  1 14  1  0  0  0  0
  2  1  2  0  0  0  0
  2  6  1  0  0  0  0
  3  2  1  0  0  0  0
  4  3  2  0  0  0  0
  4  5  1  0  0  0  0
  5  1  1  0  0  0  0
  7  3  1  0  0  0  0
  8  9  1  0  0  0  0
  9 14  2  0  0  0  0
  9 10  1  0  0  0  0
 10 11  2  0  0  0  0
 11 15  1  0  0  0  0
 11 12  1  0  0  0  0
 12 16  1  0  0  0  0
 13 17  1  0  0  0  0
 13 12  2  0  0  0  0
 14 13  1  0  0  0  0
 18 23  1  0  0  0  0
 19 20  1  0  0  0  0
 19 18  2  0  0  0  0
 20 21  2  0  0  0  0
 21 22  1  0  0  0  0
 22 10  1  0  0  0  0
 23 22  2  0  0  0  0
 24 18  1  0  0  0  0
 25 19  1  0  0  0  0
 26 20  1  0  0  0  0
 26 28  1  0  0  0  0
 27 26  1  0  0  0  0
 29 26  1  0  0  0  0
 30  4  1  0  0  0  0
 30 31  1  0  0  0  0
 31 40  1  0  0  0  0
 31 32  2  0  0  0  0
 32 33  1  0  0  0  0
 33 34  1  0  0  0  0
 34 36  1  0  0  0  0
 34 35  2  0  0  0  0
 36 37  1  0  0  0  0
 38 33  1  0  0  0  0
 38 39  1  1  0  0  0
 38 36  1  0  0  0  0
 40 39  1  0  0  0  0
 41 40  1  0  0  0  0
 42 32  1  0  0  0  0
 43 42  2  0  0  0  0
 44 42  1  0  0  0  0
 44 45  1  0  0  0  0
M  END
>  <minimizedAffinity>
-7.44811201

$$$$

 OpenBabel03252500163D

 45 49  0  0  1  0  0  0  0  0999 V2000
   38.8410   33.3240   39.9850 C   0  0  0  0  0  0  0  0  0  0  0  0
   38.2380   34.5530   40.2910 C   0  0  0  0  0  0  0  0  0  0  0  0
   39.1960   35.5380   40.2990 C   0  0  0  0  0  0  0  0  0  0  0  0
   40.3600   34.8540   39.9940 C   0  0  0  0  0  0  0  0  0  0  0  0
   40.1230   33.5580   39.8140 O   0  0  0  0  0  0  0  0  0  0  0  0
   37.1840   34.7400   40.4940 H   0  0  0  0  0  0  0  0  0  0  0  0
   39.1500   36.5820   40.4820 H   0  0  0  0  0  0  0  0  0  0  0  0
   39.5450   31.3870   42.0940 Cl  0  0  0  0  0  0  0  0  0  0  0  0
   38.3900   31.0720   40.8350 C   0  0  0  0  0  0  0  0  0  0  0  0
   37.7380   29.8790   40.7640 C   0  0  0  0  0  0  0  0  0  0  0  0
   36.8070   29.5960   39.7660 C   0  0  0  0  0  0  0  0  0  0  0  0
   36.5810   30.6030   38.8470 C   0  0  0  0  0  0  0  0  0  0  0  0
   37.2400   31.8110   38.9170 C   0  0  0  0  0  0  0  0  0  0  0  0
   38.1270   32.0500   39.8880 C   0  0  0  0  0  0  0  0  0  0  0  0
   36.3180   28.6300   39.7580 H   0  0  0  0  0  0  0  0  0  0  0  0
   35.8600   30.3990   38.0670 H   0  0  0  0  0  0  0  0  0  0  0  0
   37.0600   32.5920   38.2000 H   0  0  0  0  0  0  0  0  0  0  0  0
   37.6240   27.9010   43.8830 C   0  0  0  0  0  0  0  0  0  0  0  0
   38.5820   26.8880   43.6370 C   0  0  0  0  0  0  0  0  0  0  0  0
   39.2460   26.9050   42.4040 C   0  0  0  0  0  0  0  0  0  0  0  0
   38.9390   27.8910   41.5120 N   0  0  0  0  0  0  0  0  0  0  0  0
   38.0230   28.8400   41.7770 C   0  0  0  0  0  0  0  0  0  0  0  0
   37.3720   28.8410   42.9570 N   0  0  0  0  0  0  0  0  0  0  0  0
   37.1370   27.8530   44.8380 H   0  0  0  0  0  0  0  0  0  0  0  0
   38.8320   26.1030   44.3380 H   0  0  0  0  0  0  0  0  0  0  0  0
   40.2750   25.8840   42.0410 C   0  0  0  0  0  0  0  0  0  0  0  0
   40.6910   25.2010   43.1500 F   0  0  0  0  0  0  0  0  0  0  0  0
   39.6960   24.9880   41.1420 F   0  0  0  0  0  0  0  0  0  0  0  0
   41.3070   26.5410   41.4260 F   0  0  0  0  0  0  0  0  0  0  0  0
   41.7750   35.3550   39.8470 C   0  0  0  0  0  2  0  0  0  0  0  0
   42.7440   34.2530   40.1110 C   0  0  0  0  0  0  0  0  0  0  0  0
   43.2520   33.5660   39.1130 C   0  0  0  0  0  0  0  0  0  0  0  0
   44.1580   32.5380   39.3710 N   0  0  0  0  0  0  0  0  0  0  0  0
   45.2710   31.7300   39.0280 C   0  0  0  0  0  0  0  0  0  0  0  0
   45.9490   31.5370   37.9860 O   0  0  0  0  0  0  0  0  0  0  0  0
   45.4220   31.1220   40.3720 C   0  0  0  0  0  3  0  0  0  0  0  0
   46.2660   31.5110   40.9690 H   0  0  0  0  0  0  0  0  0  0  0  0
   44.0750   31.7710   40.5930 C   0  0  1  0  0  3  0  0  0  0  0  0
   44.2440   32.9610   41.9720 S   0  0  0  0  0  0  0  0  0  0  0  0
   42.9500   34.1490   41.5470 C   0  0  0  0  0  3  0  0  0  0  0  0
   42.0140   33.7590   42.0450 H   0  0  0  0  0  0  0  0  0  0  0  0
   42.8900   33.8560   37.7330 C   0  0  0  0  0  0  0  0  0  0  0  0
   42.1850   33.0620   37.0480 O   0  0  0  0  0  0  0  0  0  0  0  0
   42.7380   34.4150   36.5040 O   0  0  0  0  0  0  0  0  0  0  0  0
   43.5530   34.8310   36.0340 H   0  0  0  0  0  0  0  0  0  0  0  0
  1  2  2  0  0  0  0
  2  3  1  0  0  0  0
  2  6  1  0  0  0  0
  3  7  1  0  0  0  0
  4  3  2  0  0  0  0
  5  1  1  0  0  0  0
  5  4  1  0  0  0  0
  9  8  1  0  0  0  0
 10  9  1  0  0  0  0
 10 22  1  0  0  0  0
 11 10  2  0  0  0  0
 12 13  2  0  0  0  0
 12 11  1  0  0  0  0
 13 14  1  0  0  0  0
 14  1  1  0  0  0  0
 14  9  2  0  0  0  0
 15 11  1  0  0  0  0
 16 12  1  0  0  0  0
 17 13  1  0  0  0  0
 18 24  1  0  0  0  0
 19 18  1  0  0  0  0
 19 25  1  0  0  0  0
 20 19  2  0  0  0  0
 21 22  2  0  0  0  0
 21 20  1  0  0  0  0
 22 23  1  0  0  0  0
 23 18  2  0  0  0  0
 26 20  1  0  0  0  0
 26 27  1  0  0  0  0
 28 26  1  0  0  0  0
 29 26  1  0  0  0  0
 30  4  1  0  0  0  0
 30 31  1  0  0  0  0
 31 40  1  0  0  0  0
 32 33  1  0  0  0  0
 32 31  2  0  0  0  0
 33 38  1  0  0  0  0
 34 33  1  0  0  0  0
 34 36  1  0  0  0  0
 35 34  2  0  0  0  0
 36 37  1  0  0  0  0
 38 36  1  6  0  0  0
 38 39  1  0  0  0  0
 40 39  1  0  0  0  0
 40 41  1  0  0  0  0
 42 32  1  0  0  0  0
 43 42  2  0  0  0  0
 44 42  1  0  0  0  0
 45 44  1  0  0  0  0
M  END
>  <minimizedAffinity>
-7.35430336

$$$$

 OpenBabel03252500163D

 45 50  0  0  1  0  0  0  0  0999 V2000
   38.2710   32.6120   39.5540 C   0  0  0  0  0  0  0  0  0  0  0  0
   38.4390   31.8600   38.3820 C   0  0  0  0  0  0  0  0  0  0  0  0
   37.5950   30.7770   38.4140 C   0  0  0  0  0  0  0  0  0  0  0  0
   36.9380   30.9190   39.6240 C   0  0  0  0  0  0  0  0  0  0  0  0
   37.3540   32.0040   40.2710 O   0  0  0  0  0  0  0  0  0  0  0  0
   39.1180   32.0670   37.5550 H   0  0  0  0  0  0  0  0  0  0  0  0
   37.4200   29.9830   37.7320 H   0  0  0  0  0  0  0  0  0  0  0  0
   41.1150   32.1760   40.1990 Cl  0  0  0  0  0  0  0  0  0  0  0  0
   40.3530   33.7380   40.1840 C   0  0  0  0  0  0  0  0  0  0  0  0
   41.0580   34.8640   40.4790 C   0  0  0  0  0  0  0  0  0  0  0  0
   40.4740   36.1300   40.4760 C   0  0  0  0  0  0  0  0  0  0  0  0
   39.1320   36.1770   40.1540 C   0  0  0  0  0  0  0  0  0  0  0  0
   38.4170   35.0370   39.8550 C   0  0  0  0  0  0  0  0  0  0  0  0
   39.0070   33.8380   39.8670 C   0  0  0  0  0  0  0  0  0  0  0  0
   41.0820   36.9930   40.7190 H   0  0  0  0  0  0  0  0  0  0  0  0
   38.6650   37.1530   40.1460 H   0  0  0  0  0  0  0  0  0  0  0  0
   37.3720   35.0790   39.6030 H   0  0  0  0  0  0  0  0  0  0  0  0
   44.6500   34.0260   40.2730 C   0  0  0  0  0  0  0  0  0  0  0  0
   45.1580   34.5580   41.4830 C   0  0  0  0  0  0  0  0  0  0  0  0
   44.2550   35.1950   42.3440 C   0  0  0  0  0  0  0  0  0  0  0  0
   42.9430   35.2670   41.9750 N   0  0  0  0  0  0  0  0  0  0  0  0
   42.4930   34.7500   40.8170 C   0  0  0  0  0  0  0  0  0  0  0  0
   43.3450   34.1340   39.9740 N   0  0  0  0  0  0  0  0  0  0  0  0
   45.3730   33.5470   39.6420 H   0  0  0  0  0  0  0  0  0  0  0  0
   46.1960   34.5060   41.7840 H   0  0  0  0  0  0  0  0  0  0  0  0
   44.6820   35.7910   43.6450 C   0  0  0  0  0  0  0  0  0  0  0  0
   43.6720   36.5360   44.1900 F   0  0  0  0  0  0  0  0  0  0  0  0
   45.0020   34.7490   44.5150 F   0  0  0  0  0  0  0  0  0  0  0  0
   45.8010   36.5430   43.4060 F   0  0  0  0  0  0  0  0  0  0  0  0
   35.8780   30.0590   40.2650 C   0  0  0  0  0  2  0  0  0  0  0  0
   35.7050   28.7930   39.4990 C   0  0  0  0  0  0  0  0  0  0  0  0
   36.3500   27.7080   39.8600 C   0  0  0  0  0  0  0  0  0  0  0  0
   36.1820   26.5280   39.1370 N   0  0  0  0  0  0  0  0  0  0  0  0
   36.1310   25.1160   39.0330 C   0  0  1  0  0  0  0  0  0  0  0  0
   36.4430   24.1510   39.7790 O   0  0  0  0  0  1  0  0  0  0  0  0
   35.5520   25.0960   37.6680 C   0  0  0  0  0  3  0  0  0  0  0  0
   34.4790   24.8400   37.6190 H   0  0  0  0  0  0  0  0  0  0  0  0
   35.9010   26.5660   37.7200 C   0  0  2  0  0  0  0  0  0  0  0  0
   34.3520   27.5180   37.5160 S   0  0  0  0  0  0  0  0  0  0  0  0
   34.7750   29.0330   38.4070 C   0  0  0  0  0  3  0  0  0  0  0  0
   35.2490   29.7080   37.6350 H   0  0  0  0  0  0  0  0  0  0  0  0
   37.2460   27.7070   41.0090 C   0  0  0  0  0  0  0  0  0  0  0  0
   38.4960   27.5730   40.8800 O   0  0  0  0  0  0  0  0  0  0  0  0
   37.7830   27.7490   42.2560 O   0  0  0  0  0  0  0  0  0  0  0  0
   37.3380   27.2160   43.0160 H   0  0  0  0  0  0  0  0  0  0  0  0
  1 14  1  0  0  0  0
  1  5  1  0  0  0  0
  2  3  1  0  0  0  0
  2  1  2  0  0  0  0
  3  4  2  0  0  0  0
  4 30  1  0  0  0  0
  4  5  1  0  0  0  0
  6  2  1  0  0  0  0
  7  3  1  0  0  0  0
  9  8  1  0  0  0  0
  9 10  1  0  0  0  0
 10 22  1  0  0  0  0
 11 10  2  0  0  0  0
 11 15  1  0  0  0  0
 12 11  1  0  0  0  0
 13 14  1  0  0  0  0
 13 12  2  0  0  0  0
 14  9  2  0  0  0  0
 16 12  1  0  0  0  0
 17 13  1  0  0  0  0
 18 19  1  0  0  0  0
 19 25  1  0  0  0  0
 19 20  2  0  0  0  0
 20 26  1  0  0  0  0
 21 20  1  0  0  0  0
 22 21  2  0  0  0  0
 23 18  2  0  0  0  0
 23 22  1  0  0  0  0
 24 18  1  0  0  0  0
 26 27  1  0  0  0  0
 26 28  1  0  0  0  0
 29 26  1  0  0  0  0
 31 32  2  0  0  0  0
 31 30  1  0  0  0  0
 32 42  1  0  0  0  0
 33 32  1  0  0  0  0
 34 33  1  0  0  0  0
 34 35  1  6  0  0  0
 36 38  1  0  0  0  0
 36 34  1  0  0  0  0
 37 36  1  0  0  0  0
 38 39  1  1  0  0  0
 38 34  1  0  0  0  0
 38 33  1  0  0  0  0
 39 40  1  0  0  0  0
 40 31  1  0  0  0  0
 41 40  1  0  0  0  0
 42 44  1  0  0  0  0
 43 42  2  0  0  0  0
 44 45  1  0  0  0  0
M  END
>  <minimizedAffinity>
-7.34335375

$$$$
