
 OpenBabel03242519553D

 47 50  0  0  1  0  0  0  0  0999 V2000
   47.1250   34.0430   42.4540 C   0  0  2  0  0  0  0  0  0  0  0  0
   48.5210   34.5230   42.5720 C   0  0  0  0  0  0  0  0  0  0  0  0
   48.8620   35.5580   41.5530 C   0  0  0  0  0  0  0  0  0  0  0  0
   48.5900   35.1240   40.1380 C   0  0  0  0  0  0  0  0  0  0  0  0
   47.3700   34.2730   39.9790 C   0  0  2  0  0  0  0  0  0  0  0  0
   46.4480   34.3950   41.1750 C   0  0  0  0  0  0  0  0  0  0  0  0
   47.1940   32.9100   42.5120 H   0  0  0  0  0  0  0  0  0  0  0  0
   49.2900   33.7270   42.5440 H   0  0  0  0  0  0  0  0  0  0  0  0
   48.6270   35.0070   43.5710 H   0  0  0  0  0  0  0  0  0  0  0  0
   49.9740   35.7240   41.6310 H   0  0  0  0  0  0  0  0  0  0  0  0
   48.4070   36.5270   41.8160 H   0  0  0  0  0  0  0  0  0  0  0  0
   48.5300   36.0700   39.5240 H   0  0  0  0  0  0  0  0  0  0  0  0
   49.4960   34.6040   39.7340 H   0  0  0  0  0  0  0  0  0  0  0  0
   46.8090   34.6780   39.1050 H   0  0  0  0  0  0  0  0  0  0  0  0
   45.9500   35.3400   41.0770 H   0  0  0  0  0  0  0  0  0  0  0  0
   45.6390   33.6110   41.0400 H   0  0  0  0  0  0  0  0  0  0  0  0
   46.2680   34.4270   43.5850 C   0  0  0  0  0  0  0  0  0  0  0  0
   45.5050   35.5680   43.3500 C   0  0  0  0  0  0  0  0  0  0  0  0
   44.6300   36.0360   44.3340 C   0  0  0  0  0  0  0  0  0  0  0  0
   44.5890   35.3060   45.5090 N   0  0  0  0  0  0  0  0  0  0  0  0
   45.3470   34.2080   45.6960 C   0  0  0  0  0  0  0  0  0  0  0  0
   46.1720   33.7830   44.7370 N   0  0  0  0  0  0  0  0  0  0  0  0
   45.3820   36.2810   42.5480 H   0  0  0  0  0  0  0  0  0  0  0  0
   43.9650   36.8690   44.3650 H   0  0  0  0  0  0  0  0  0  0  0  0
   45.2780   33.6710   46.6360 H   0  0  0  0  0  0  0  0  0  0  0  0
   47.7630   32.8820   39.6810 C   0  0  0  0  0  0  0  0  0  0  0  0
   47.7100   32.2710   40.6060 H   0  0  0  0  0  0  0  0  0  0  0  0
   48.8550   32.8900   39.4170 H   0  0  0  0  0  0  0  0  0  0  0  0
   47.0250   32.1790   38.6220 C   0  0  0  0  0  0  0  0  0  0  0  0
   47.7490   31.6440   37.9740 H   0  0  0  0  0  0  0  0  0  0  0  0
   46.3710   31.4030   39.0680 H   0  0  0  0  0  0  0  0  0  0  0  0
   46.2480   30.6750   34.2480 C   0  0  0  0  0  0  0  0  0  0  0  0
   45.2180   31.1010   34.9470 C   0  0  0  0  0  0  0  0  0  0  0  0
   45.3790   31.8750   36.0980 N   0  0  0  0  0  0  0  0  0  0  0  0
   44.9490   32.2130   37.3860 C   0  0  0  0  0  0  0  0  0  0  0  0
   43.9220   31.9870   38.1080 O   0  0  0  0  0  0  0  0  0  0  0  0
   46.1690   33.0070   37.7200 C   0  0  2  0  0  3  0  0  0  0  0  0
   46.4200   32.8580   36.2400 C   0  0  1  0  0  3  0  0  0  0  0  0
   47.9970   32.1140   35.8140 S   0  0  0  0  0  0  0  0  0  0  0  0
   47.6840   30.9120   34.5260 C   0  0  0  0  0  3  0  0  0  0  0  0
   48.1120   31.3490   33.5770 H   0  0  0  0  0  0  0  0  0  0  0  0
   46.0450   29.8570   33.0320 C   0  0  0  0  0  2  0  0  0  0  0  0
   45.0350   29.9740   32.5820 H   0  0  0  0  0  0  0  0  0  0  0  0
   43.8760   30.7550   34.5050 C   0  0  0  0  0  0  0  0  0  0  0  0
   42.9540   30.4090   35.2870 O   0  0  0  0  0  0  0  0  0  0  0  0
   42.7420   30.4980   33.7900 O   0  0  0  0  0  0  0  0  0  0  0  0
   42.8120   30.1360   32.8470 H   0  0  0  0  0  0  0  0  0  0  0  0
  1  7  1  1  0  0  0
  1  2  1  0  0  0  0
  1 17  1  0  0  0  0
  2  9  1  0  0  0  0
  3 10  1  0  0  0  0
  3 11  1  0  0  0  0
  3  2  1  0  0  0  0
  4  3  1  0  0  0  0
  5 14  1  6  0  0  0
  5  4  1  0  0  0  0
  5  6  1  0  0  0  0
  6  1  1  0  0  0  0
  8  2  1  0  0  0  0
 12  4  1  0  0  0  0
 13  4  1  0  0  0  0
 15  6  1  0  0  0  0
 16  6  1  0  0  0  0
 17 22  1  0  0  0  0
 18 17  2  0  0  0  0
 18 19  1  0  0  0  0
 19 24  1  0  0  0  0
 19 20  2  0  0  0  0
 20 21  1  0  0  0  0
 21 25  1  0  0  0  0
 22 21  2  0  0  0  0
 23 18  1  0  0  0  0
 26  5  1  0  0  0  0
 26 27  1  0  0  0  0
 28 26  1  0  0  0  0
 29 31  1  0  0  0  0
 29 26  1  0  0  0  0
 30 29  1  0  0  0  0
 32 40  1  0  0  0  0
 32 33  2  0  0  0  0
 33 34  1  0  0  0  0
 34 38  1  0  0  0  0
 34 35  1  0  0  0  0
 35 37  1  0  0  0  0
 35 36  2  0  0  0  0
 37 29  1  1  0  0  0
 38 39  1  1  0  0  0
 38 37  1  0  0  0  0
 40 39  1  0  0  0  0
 41 40  1  0  0  0  0
 42 32  1  0  0  0  0
 43 42  1  0  0  0  0
 44 33  1  0  0  0  0
 44 45  2  0  0  0  0
 46 44  1  0  0  0  0
 47 46  1  0  0  0  0
M  END
>  <minimizedAffinity>
-6.43772221

>  <minimizedRMSD>
1.62472212

$$$$
