
 OpenBabel03242515453D

 45 49  0  0  1  0  0  0  0  0999 V2000
   38.7390   31.2070   41.4670 C   0  0  0  0  0  0  0  0  0  0  0  0
   38.9130   32.4110   40.8590 C   0  0  0  0  0  0  0  0  0  0  0  0
   37.8060   32.8520   40.1070 C   0  0  0  0  0  0  0  0  0  0  0  0
   36.6800   32.1070   40.0080 N   0  0  0  0  0  0  0  0  0  0  0  0
   36.5690   30.9120   40.6280 C   0  0  0  0  0  0  0  0  0  0  0  0
   37.6080   30.5190   41.3350 N   0  0  0  0  0  0  0  0  0  0  0  0
   37.8250   34.1270   39.4620 N   0  0  0  0  0  0  0  0  0  0  0  0
   37.1710   34.8130   39.9430 H   0  0  0  0  0  0  0  0  0  0  0  0
   38.4980   34.0630   38.6510 H   0  0  0  0  0  0  0  0  0  0  0  0
   40.1250   30.6560   42.4950 S   0  0  0  0  0  0  0  0  0  0  0  0
   41.3980   28.3810   43.0000 C   0  0  0  0  0  0  0  0  0  0  0  0
   40.1260   28.8790   42.6530 C   0  0  0  0  0  0  0  0  0  0  0  0
   39.0190   28.0430   42.5160 C   0  0  0  0  0  0  0  0  0  0  0  0
   39.1640   26.6960   42.7260 C   0  0  0  0  0  0  0  0  0  0  0  0
   40.4110   26.1770   43.0720 C   0  0  0  0  0  0  0  0  0  0  0  0
   41.5180   26.9930   43.2100 C   0  0  0  0  0  0  0  0  0  0  0  0
   40.2530   24.7700   43.2220 O   0  0  0  0  0  0  0  0  0  0  0  0
   39.0570   24.4580   42.5920 C   0  0  0  0  0  0  0  0  0  0  0  0
   38.2680   25.6300   42.6700 O   0  0  0  0  0  0  0  0  0  0  0  0
   42.2890   28.9770   43.1170 H   0  0  0  0  0  0  0  0  0  0  0  0
   38.1070   28.5150   42.2500 H   0  0  0  0  0  0  0  0  0  0  0  0
   42.4770   26.5780   43.4770 H   0  0  0  0  0  0  0  0  0  0  0  0
   38.5370   23.5620   42.9670 H   0  0  0  0  0  0  0  0  0  0  0  0
   39.2670   24.2950   41.5000 H   0  0  0  0  0  0  0  0  0  0  0  0
   35.4720   30.1080   40.5580 O   0  0  0  0  0  0  0  0  0  0  0  0
   35.4600   29.0610   39.6170 C   0  0  0  0  0  0  0  0  0  0  0  0
   34.1890   28.8490   39.1270 F   0  0  0  0  0  0  0  0  0  0  0  0
   36.3460   29.4200   38.5970 F   0  0  0  0  0  0  0  0  0  0  0  0
   35.8590   27.9000   40.2560 F   0  0  0  0  0  0  0  0  0  0  0  0
   40.0050   33.3740   40.6260 C   0  0  0  0  0  2  0  0  0  0  0  0
   41.2550   32.9410   40.0310 C   0  0  0  0  0  0  0  0  0  0  0  0
   42.5280   32.7110   40.2800 C   0  0  0  0  0  0  0  0  0  0  0  0
   43.4930   32.2850   39.3340 N   0  0  0  0  0  0  0  0  0  0  0  0
   44.4830   31.3480   38.9500 C   0  0  0  0  0  0  0  0  0  0  0  0
   45.2990   30.6600   39.6220 O   0  0  0  0  0  0  0  0  0  0  0  0
   44.0500   31.6230   37.5330 C   0  0  0  0  0  3  0  0  0  0  0  0
   44.8360   31.6340   36.7840 H   0  0  0  0  0  0  0  0  0  0  0  0
   43.7700   33.0030   38.0760 C   0  0  1  0  0  3  0  0  0  0  0  0
   42.1210   33.6720   37.6170 S   0  0  0  0  0  0  0  0  0  0  0  0
   40.9810   32.5940   38.5770 C   0  0  0  0  0  3  0  0  0  0  0  0
   39.9890   32.8190   38.2320 H   0  0  0  0  0  0  0  0  0  0  0  0
   42.9440   32.9510   41.6610 C   0  0  0  0  0  0  0  0  0  0  0  0
   43.3800   32.6250   42.7890 O   0  0  0  0  0  0  0  0  0  0  0  0
   43.0730   33.9520   42.5820 O   0  0  0  0  0  0  0  0  0  0  0  0
   43.7830   34.7140   42.5300 H   0  0  0  0  0  0  0  0  0  0  0  0
  1 10  1  0  0  0  0
  2  1  2  0  0  0  0
  3  2  1  0  0  0  0
  4  3  2  0  0  0  0
  4  5  1  0  0  0  0
  5  6  2  0  0  0  0
  6  1  1  0  0  0  0
  7  8  1  0  0  0  0
  7  3  1  0  0  0  0
  9  7  1  0  0  0  0
 10 12  1  0  0  0  0
 11 20  1  0  0  0  0
 11 16  1  0  0  0  0
 12 11  2  0  0  0  0
 13 12  1  0  0  0  0
 13 14  2  0  0  0  0
 14 15  1  0  0  0  0
 15 16  2  0  0  0  0
 15 17  1  0  0  0  0
 16 22  1  0  0  0  0
 18 19  1  0  0  0  0
 18 23  1  0  0  0  0
 18 17  1  0  0  0  0
 19 14  1  0  0  0  0
 21 13  1  0  0  0  0
 24 18  1  0  0  0  0
 25  5  1  0  0  0  0
 26 29  1  0  0  0  0
 26 25  1  0  0  0  0
 27 26  1  0  0  0  0
 28 26  1  0  0  0  0
 30  2  1  0  0  0  0
 31 32  2  0  0  0  0
 31 30  1  0  0  0  0
 32 42  1  0  0  0  0
 33 32  1  0  0  0  0
 34 33  1  0  0  0  0
 34 35  2  0  0  0  0
 36 34  1  0  0  0  0
 37 36  1  0  0  0  0
 38 36  1  6  0  0  0
 38 33  1  0  0  0  0
 39 38  1  0  0  0  0
 39 40  1  0  0  0  0
 40 31  1  0  0  0  0
 41 40  1  0  0  0  0
 42 44  1  0  0  0  0
 42 43  2  0  0  0  0
 45 44  1  0  0  0  0
M  END
>  <minimizedAffinity>
-6.74234438

$$$$

 OpenBabel03242515453D

 45 49  0  0  1  0  0  0  0  0999 V2000
   37.5360   29.0120   41.8100 C   0  0  0  0  0  0  0  0  0  0  0  0
   38.8360   29.2650   42.1210 C   0  0  0  0  0  0  0  0  0  0  0  0
   39.5170   28.1830   42.7130 C   0  0  0  0  0  0  0  0  0  0  0  0
   38.8940   27.0040   42.9510 N   0  0  0  0  0  0  0  0  0  0  0  0
   37.5970   26.8150   42.6290 C   0  0  0  0  0  0  0  0  0  0  0  0
   36.9770   27.8310   42.0670 N   0  0  0  0  0  0  0  0  0  0  0  0
   40.9050   28.2860   43.0380 N   0  0  0  0  0  0  0  0  0  0  0  0
   41.4990   27.6900   42.3880 H   0  0  0  0  0  0  0  0  0  0  0  0
   40.9910   28.9420   43.8610 H   0  0  0  0  0  0  0  0  0  0  0  0
   36.6630   30.3670   40.9850 S   0  0  0  0  0  0  0  0  0  0  0  0
   34.8010   29.1760   39.5140 C   0  0  0  0  0  0  0  0  0  0  0  0
   36.0370   29.8430   39.3990 C   0  0  0  0  0  0  0  0  0  0  0  0
   36.6320   30.0870   38.1620 C   0  0  0  0  0  0  0  0  0  0  0  0
   35.9990   29.6710   37.0190 C   0  0  0  0  0  0  0  0  0  0  0  0
   34.7730   29.0110   37.1040 C   0  0  0  0  0  0  0  0  0  0  0  0
   34.1730   28.7600   38.3230 C   0  0  0  0  0  0  0  0  0  0  0  0
   34.3690   28.7070   35.7740 O   0  0  0  0  0  0  0  0  0  0  0  0
   35.5100   28.8320   34.9960 C   0  0  0  0  0  0  0  0  0  0  0  0
   36.3290   29.7690   35.6680 O   0  0  0  0  0  0  0  0  0  0  0  0
   34.2950   28.9570   40.4410 H   0  0  0  0  0  0  0  0  0  0  0  0
   37.5630   30.5940   38.1830 H   0  0  0  0  0  0  0  0  0  0  0  0
   33.2260   28.2480   38.3740 H   0  0  0  0  0  0  0  0  0  0  0  0
   35.3440   29.0850   33.9370 H   0  0  0  0  0  0  0  0  0  0  0  0
   36.0650   27.8540   35.0260 H   0  0  0  0  0  0  0  0  0  0  0  0
   36.9090   25.6610   42.8540 O   0  0  0  0  0  0  0  0  0  0  0  0
   37.0710   24.5910   41.9540 C   0  0  0  0  0  0  0  0  0  0  0  0
   35.8710   23.9550   41.7170 F   0  0  0  0  0  0  0  0  0  0  0  0
   37.6050   25.1250   40.7780 F   0  0  0  0  0  0  0  0  0  0  0  0
   37.9260   23.6670   42.5300 F   0  0  0  0  0  0  0  0  0  0  0  0
   39.7500   30.4200   42.1530 C   0  0  0  0  0  2  0  0  0  0  0  0
   40.2900   30.9670   40.9230 C   0  0  0  0  0  0  0  0  0  0  0  0
   40.2000   31.9720   40.0750 C   0  0  0  0  0  0  0  0  0  0  0  0
   40.9590   32.1250   38.8880 N   0  0  0  0  0  0  0  0  0  0  0  0
   41.8340   32.9130   38.1020 C   0  0  0  0  0  0  0  0  0  0  0  0
   41.9460   34.1600   37.9600 O   0  0  0  0  0  0  0  0  0  0  0  0
   42.4250   31.6080   37.6330 C   0  0  0  0  0  3  0  0  0  0  0  0
   42.7330   31.5670   36.5930 H   0  0  0  0  0  0  0  0  0  0  0  0
   41.0150   31.1060   37.8230 C   0  0  1  0  0  3  0  0  0  0  0  0
   40.8970   29.5300   38.7600 S   0  0  0  0  0  0  0  0  0  0  0  0
   41.4010   30.0430   40.4530 C   0  0  0  0  0  3  0  0  0  0  0  0
   41.5150   29.1390   41.0210 H   0  0  0  0  0  0  0  0  0  0  0  0
   39.2020   32.9840   40.4160 C   0  0  0  0  0  0  0  0  0  0  0  0
   38.1400   33.6300   40.2610 O   0  0  0  0  0  0  0  0  0  0  0  0
   38.9310   33.9520   41.3420 O   0  0  0  0  0  0  0  0  0  0  0  0
   38.6700   33.7630   42.3340 H   0  0  0  0  0  0  0  0  0  0  0  0
  1  6  2  0  0  0  0
  1  2  1  0  0  0  0
  2 30  1  0  0  0  0
  2  3  2  0  0  0  0
  3  4  1  0  0  0  0
  3  7  1  0  0  0  0
  5 25  1  0  0  0  0
  5  4  2  0  0  0  0
  6  5  1  0  0  0  0
  7  9  1  0  0  0  0
  8  7  1  0  0  0  0
 10  1  1  0  0  0  0
 11 20  1  0  0  0  0
 12 11  1  0  0  0  0
 12 10  1  0  0  0  0
 13 21  1  0  0  0  0
 13 12  2  0  0  0  0
 14 15  2  0  0  0  0
 14 13  1  0  0  0  0
 15 16  1  0  0  0  0
 16 22  1  0  0  0  0
 16 11  2  0  0  0  0
 17 15  1  0  0  0  0
 18 24  1  0  0  0  0
 18 19  1  0  0  0  0
 18 17  1  0  0  0  0
 19 14  1  0  0  0  0
 23 18  1  0  0  0  0
 26 29  1  0  0  0  0
 26 25  1  0  0  0  0
 27 26  1  0  0  0  0
 28 26  1  0  0  0  0
 31 30  1  0  0  0  0
 32 42  1  0  0  0  0
 32 31  2  0  0  0  0
 33 32  1  0  0  0  0
 34 33  1  0  0  0  0
 35 34  2  0  0  0  0
 36 34  1  0  0  0  0
 37 36  1  0  0  0  0
 38 36  1  1  0  0  0
 38 39  1  0  0  0  0
 38 33  1  0  0  0  0
 39 40  1  0  0  0  0
 40 31  1  0  0  0  0
 40 41  1  0  0  0  0
 42 44  1  0  0  0  0
 43 42  2  0  0  0  0
 44 45  1  0  0  0  0
M  END
>  <minimizedAffinity>
-6.65388727

$$$$

 OpenBabel03242515453D

 45 49  0  0  1  0  0  0  0  0999 V2000
   38.0240   31.5440   40.3930 C   0  0  0  0  0  0  0  0  0  0  0  0
   37.8880   31.3760   39.0500 C   0  0  0  0  0  0  0  0  0  0  0  0
   38.8490   32.0550   38.2740 C   0  0  0  0  0  0  0  0  0  0  0  0
   39.8090   32.8160   38.8510 N   0  0  0  0  0  0  0  0  0  0  0  0
   39.8880   32.9530   40.1920 C   0  0  0  0  0  0  0  0  0  0  0  0
   38.9900   32.3050   40.9030 N   0  0  0  0  0  0  0  0  0  0  0  0
   38.8640   31.9200   36.8520 N   0  0  0  0  0  0  0  0  0  0  0  0
   39.6980   31.3470   36.5270 H   0  0  0  0  0  0  0  0  0  0  0  0
   38.0240   32.4370   36.4750 H   0  0  0  0  0  0  0  0  0  0  0  0
   36.8410   30.6240   41.4090 S   0  0  0  0  0  0  0  0  0  0  0  0
   36.6050   28.0770   42.1220 C   0  0  0  0  0  0  0  0  0  0  0  0
   37.5640   29.1030   41.9990 C   0  0  0  0  0  0  0  0  0  0  0  0
   38.9140   28.8870   42.2670 C   0  0  0  0  0  0  0  0  0  0  0  0
   39.3300   27.6410   42.6590 C   0  0  0  0  0  0  0  0  0  0  0  0
   38.4030   26.6070   42.7870 C   0  0  0  0  0  0  0  0  0  0  0  0
   37.0610   26.8070   42.5270 C   0  0  0  0  0  0  0  0  0  0  0  0
   39.1210   25.4500   43.2030 O   0  0  0  0  0  0  0  0  0  0  0  0
   40.3380   25.9150   43.6800 C   0  0  0  0  0  0  0  0  0  0  0  0
   40.5820   27.1230   42.9870 O   0  0  0  0  0  0  0  0  0  0  0  0
   35.5490   28.1850   41.9320 H   0  0  0  0  0  0  0  0  0  0  0  0
   39.5540   29.7240   42.1470 H   0  0  0  0  0  0  0  0  0  0  0  0
   36.3540   25.9990   42.6300 H   0  0  0  0  0  0  0  0  0  0  0  0
   41.1780   25.2060   43.6210 H   0  0  0  0  0  0  0  0  0  0  0  0
   40.2080   26.1950   44.7610 H   0  0  0  0  0  0  0  0  0  0  0  0
   40.8190   33.7140   40.8340 O   0  0  0  0  0  0  0  0  0  0  0  0
   42.1410   33.2380   40.9140 C   0  0  0  0  0  0  0  0  0  0  0  0
   42.8420   33.8870   41.9080 F   0  0  0  0  0  0  0  0  0  0  0  0
   42.0650   31.8640   41.1590 F   0  0  0  0  0  0  0  0  0  0  0  0
   42.7730   33.5090   39.7120 F   0  0  0  0  0  0  0  0  0  0  0  0
   36.9170   30.7830   38.1130 C   0  0  0  0  0  2  0  0  0  0  0  0
   36.7040   29.3490   38.0810 C   0  0  0  0  0  0  0  0  0  0  0  0
   35.8310   28.3960   38.3400 C   0  0  0  0  0  0  0  0  0  0  0  0
   36.0490   27.0060   38.1740 N   0  0  0  0  0  0  0  0  0  0  0  0
   35.6430   25.7740   37.6050 C   0  0  0  0  0  0  0  0  0  0  0  0
   34.5050   25.3090   37.3260 O   0  0  0  0  0  0  0  0  0  0  0  0
   37.1100   25.4320   37.5510 C   0  0  0  0  0  3  0  0  0  0  0  0
   37.3680   24.3960   37.7530 H   0  0  0  0  0  0  0  0  0  0  0  0
   37.1710   26.2790   38.7980 C   0  0  1  0  0  3  0  0  0  0  0  0
   38.5190   27.5280   38.7920 S   0  0  0  0  0  0  0  0  0  0  0  0
   37.9540   28.7080   37.4990 C   0  0  0  0  0  3  0  0  0  0  0  0
   38.7730   29.3800   37.3230 H   0  0  0  0  0  0  0  0  0  0  0  0
   34.5460   28.8570   38.8630 C   0  0  0  0  0  0  0  0  0  0  0  0
   33.3330   29.1610   38.7900 O   0  0  0  0  0  0  0  0  0  0  0  0
   33.9490   29.2780   40.0180 O   0  0  0  0  0  0  0  0  0  0  0  0
   33.7450   28.6620   40.8350 H   0  0  0  0  0  0  0  0  0  0  0  0
  1  6  1  0  0  0  0
  1 10  1  0  0  0  0
  2  1  2  0  0  0  0
  3  4  2  0  0  0  0
  3  2  1  0  0  0  0
  4  5  1  0  0  0  0
  5 25  1  0  0  0  0
  5  6  2  0  0  0  0
  7  3  1  0  0  0  0
  8  7  1  0  0  0  0
  9  7  1  0  0  0  0
 10 12  1  0  0  0  0
 11 16  1  0  0  0  0
 12 11  2  0  0  0  0
 12 13  1  0  0  0  0
 13 14  2  0  0  0  0
 14 15  1  0  0  0  0
 14 19  1  0  0  0  0
 15 17  1  0  0  0  0
 16 22  1  0  0  0  0
 16 15  2  0  0  0  0
 17 18  1  0  0  0  0
 18 24  1  0  0  0  0
 19 18  1  0  0  0  0
 20 11  1  0  0  0  0
 21 13  1  0  0  0  0
 23 18  1  0  0  0  0
 25 26  1  0  0  0  0
 26 28  1  0  0  0  0
 26 27  1  0  0  0  0
 29 26  1  0  0  0  0
 30  2  1  0  0  0  0
 31 30  1  0  0  0  0
 31 32  2  0  0  0  0
 32 42  1  0  0  0  0
 33 32  1  0  0  0  0
 33 38  1  0  0  0  0
 34 33  1  0  0  0  0
 35 34  2  0  0  0  0
 36 34  1  0  0  0  0
 36 37  1  0  0  0  0
 38 36  1  6  0  0  0
 39 38  1  0  0  0  0
 40 31  1  0  0  0  0
 40 39  1  0  0  0  0
 41 40  1  0  0  0  0
 42 44  1  0  0  0  0
 43 42  2  0  0  0  0
 44 45  1  0  0  0  0
M  END
>  <minimizedAffinity>
-6.54175425

$$$$

 OpenBabel03242515453D

 45 49  0  0  1  0  0  0  0  0999 V2000
   38.3920   31.9540   40.1650 C   0  0  0  0  0  0  0  0  0  0  0  0
   38.4180   31.7570   38.8200 C   0  0  0  0  0  0  0  0  0  0  0  0
   39.5060   32.3630   38.1600 C   0  0  0  0  0  0  0  0  0  0  0  0
   40.4260   33.0870   38.8390 N   0  0  0  0  0  0  0  0  0  0  0  0
   40.3420   33.2560   40.1760 C   0  0  0  0  0  0  0  0  0  0  0  0
   39.3260   32.6760   40.7790 N   0  0  0  0  0  0  0  0  0  0  0  0
   39.6930   32.1890   36.7540 N   0  0  0  0  0  0  0  0  0  0  0  0
   40.5290   31.5640   36.5500 H   0  0  0  0  0  0  0  0  0  0  0  0
   38.9380   32.7390   36.2620 H   0  0  0  0  0  0  0  0  0  0  0  0
   37.0400   31.1260   41.0400 S   0  0  0  0  0  0  0  0  0  0  0  0
   38.6580   29.5560   42.4420 C   0  0  0  0  0  0  0  0  0  0  0  0
   37.5400   29.5030   41.5850 C   0  0  0  0  0  0  0  0  0  0  0  0
   36.9030   28.3030   41.2760 C   0  0  0  0  0  0  0  0  0  0  0  0
   37.3710   27.1350   41.8200 C   0  0  0  0  0  0  0  0  0  0  0  0
   38.4750   27.1580   42.6720 C   0  0  0  0  0  0  0  0  0  0  0  0
   39.1170   28.3400   42.9860 C   0  0  0  0  0  0  0  0  0  0  0  0
   38.7230   25.8150   43.0730 O   0  0  0  0  0  0  0  0  0  0  0  0
   38.0390   25.0200   42.1660 C   0  0  0  0  0  0  0  0  0  0  0  0
   36.9570   25.8080   41.7080 O   0  0  0  0  0  0  0  0  0  0  0  0
   39.1920   30.4520   42.7140 H   0  0  0  0  0  0  0  0  0  0  0  0
   36.0720   28.3690   40.6200 H   0  0  0  0  0  0  0  0  0  0  0  0
   39.9700   28.3450   43.6460 H   0  0  0  0  0  0  0  0  0  0  0  0
   37.7260   24.0310   42.5350 H   0  0  0  0  0  0  0  0  0  0  0  0
   38.7030   24.8530   41.2740 H   0  0  0  0  0  0  0  0  0  0  0  0
   41.2260   33.9830   40.9160 O   0  0  0  0  0  0  0  0  0  0  0  0
   42.5280   33.4820   41.0990 C   0  0  0  0  0  0  0  0  0  0  0  0
   43.0570   33.9010   42.3010 F   0  0  0  0  0  0  0  0  0  0  0  0
   42.4390   32.0880   41.0390 F   0  0  0  0  0  0  0  0  0  0  0  0
   43.3320   33.9860   40.0900 F   0  0  0  0  0  0  0  0  0  0  0  0
   37.5420   31.1920   37.7780 C   0  0  0  0  0  2  0  0  0  0  0  0
   37.2710   29.7680   37.7350 C   0  0  0  0  0  0  0  0  0  0  0  0
   37.8280   28.5820   37.5920 C   0  0  0  0  0  0  0  0  0  0  0  0
   37.1440   27.3410   37.5900 N   0  0  0  0  0  0  0  0  0  0  0  0
   36.9920   26.0400   38.1280 C   0  0  0  0  0  0  0  0  0  0  0  0
   37.8240   25.2220   38.6060 O   0  0  0  0  0  0  0  0  0  0  0  0
   35.5220   26.2010   37.8350 C   0  0  0  0  0  3  0  0  0  0  0  0
   35.0000   25.3100   37.4970 H   0  0  0  0  0  0  0  0  0  0  0  0
   36.0250   27.0310   36.6800 C   0  0  1  0  0  3  0  0  0  0  0  0
   35.1850   28.6550   36.4990 S   0  0  0  0  0  0  0  0  0  0  0  0
   35.7830   29.5710   37.9780 C   0  0  0  0  0  3  0  0  0  0  0  0
   35.2050   30.4750   38.0280 H   0  0  0  0  0  0  0  0  0  0  0  0
   39.2770   28.5960   37.3990 C   0  0  0  0  0  0  0  0  0  0  0  0
   40.4540   28.2200   37.6040 O   0  0  0  0  0  0  0  0  0  0  0  0
   40.2560   29.2250   36.6830 O   0  0  0  0  0  0  0  0  0  0  0  0
   40.4000   29.1130   35.6550 H   0  0  0  0  0  0  0  0  0  0  0  0
  1  6  1  0  0  0  0
  1 10  1  0  0  0  0
  2  1  2  0  0  0  0
  3  2  1  0  0  0  0
  3  4  2  0  0  0  0
  4  5  1  0  0  0  0
  5  6  2  0  0  0  0
  5 25  1  0  0  0  0
  7  3  1  0  0  0  0
  8  7  1  0  0  0  0
  9  7  1  0  0  0  0
 10 12  1  0  0  0  0
 11 20  1  0  0  0  0
 11 16  1  0  0  0  0
 12 11  2  0  0  0  0
 13 12  1  0  0  0  0
 13 14  2  0  0  0  0
 14 15  1  0  0  0  0
 15 16  2  0  0  0  0
 15 17  1  0  0  0  0
 16 22  1  0  0  0  0
 18 23  1  0  0  0  0
 18 17  1  0  0  0  0
 19 14  1  0  0  0  0
 19 18  1  0  0  0  0
 21 13  1  0  0  0  0
 24 18  1  0  0  0  0
 25 26  1  0  0  0  0
 26 27  1  0  0  0  0
 28 26  1  0  0  0  0
 29 26  1  0  0  0  0
 30  2  1  0  0  0  0
 31 30  1  0  0  0  0
 31 40  1  0  0  0  0
 32 31  2  0  0  0  0
 33 32  1  0  0  0  0
 33 34  1  0  0  0  0
 34 35  2  0  0  0  0
 36 34  1  0  0  0  0
 37 36  1  0  0  0  0
 38 39  1  1  0  0  0
 38 33  1  0  0  0  0
 38 36  1  0  0  0  0
 39 40  1  0  0  0  0
 40 41  1  0  0  0  0
 42 32  1  0  0  0  0
 42 43  2  0  0  0  0
 44 42  1  0  0  0  0
 45 44  1  0  0  0  0
M  END
>  <minimizedAffinity>
-6.39520168

$$$$

 OpenBabel03242515453D

 45 49  0  0  1  0  0  0  0  0999 V2000
   39.6210   27.6840   41.4010 C   0  0  0  0  0  0  0  0  0  0  0  0
   39.0080   28.6810   42.0940 C   0  0  0  0  0  0  0  0  0  0  0  0
   37.6180   28.5110   42.2580 C   0  0  0  0  0  0  0  0  0  0  0  0
   36.9750   27.4360   41.7430 N   0  0  0  0  0  0  0  0  0  0  0  0
   37.6370   26.4820   41.0550 C   0  0  0  0  0  0  0  0  0  0  0  0
   38.9360   26.6490   40.9200 N   0  0  0  0  0  0  0  0  0  0  0  0
   36.8540   29.4510   43.0150 N   0  0  0  0  0  0  0  0  0  0  0  0
   36.5350   29.0340   43.9400 H   0  0  0  0  0  0  0  0  0  0  0  0
   36.7970   30.3410   42.4520 H   0  0  0  0  0  0  0  0  0  0  0  0
   41.4170   27.8490   41.2400 S   0  0  0  0  0  0  0  0  0  0  0  0
   40.7370   28.7410   38.8330 C   0  0  0  0  0  0  0  0  0  0  0  0
   41.8420   28.6500   39.7030 C   0  0  0  0  0  0  0  0  0  0  0  0
   43.0850   29.1870   39.3750 C   0  0  0  0  0  0  0  0  0  0  0  0
   43.2440   29.8280   38.1740 C   0  0  0  0  0  0  0  0  0  0  0  0
   42.1670   29.9340   37.2940 C   0  0  0  0  0  0  0  0  0  0  0  0
   40.9290   29.4050   37.6050 C   0  0  0  0  0  0  0  0  0  0  0  0
   42.6300   30.6400   36.1480 O   0  0  0  0  0  0  0  0  0  0  0  0
   44.0150   30.5800   36.2050 C   0  0  0  0  0  0  0  0  0  0  0  0
   44.3350   30.4570   37.5770 O   0  0  0  0  0  0  0  0  0  0  0  0
   39.7540   28.3430   39.0300 H   0  0  0  0  0  0  0  0  0  0  0  0
   43.8520   29.0640   40.0970 H   0  0  0  0  0  0  0  0  0  0  0  0
   40.1040   29.4930   36.9150 H   0  0  0  0  0  0  0  0  0  0  0  0
   44.5510   31.4030   35.7080 H   0  0  0  0  0  0  0  0  0  0  0  0
   44.3450   29.6200   35.7200 H   0  0  0  0  0  0  0  0  0  0  0  0
   37.0490   25.3850   40.5010 O   0  0  0  0  0  0  0  0  0  0  0  0
   36.7650   24.2800   41.3270 C   0  0  0  0  0  0  0  0  0  0  0  0
   36.4400   24.6860   42.6040 F   0  0  0  0  0  0  0  0  0  0  0  0
   35.7080   23.5860   40.7290 F   0  0  0  0  0  0  0  0  0  0  0  0
   37.9050   23.5000   41.4140 F   0  0  0  0  0  0  0  0  0  0  0  0
   39.3460   30.0110   42.6310 C   0  0  0  0  0  2  0  0  0  0  0  0
   40.0000   30.9990   41.7950 C   0  0  0  0  0  0  0  0  0  0  0  0
   41.1020   31.7070   41.6470 C   0  0  0  0  0  0  0  0  0  0  0  0
   41.3460   32.6540   40.6210 N   0  0  0  0  0  0  0  0  0  0  0  0
   42.1660   33.1060   39.5590 C   0  0  0  0  0  0  0  0  0  0  0  0
   43.4130   33.0550   39.3760 O   0  0  0  0  0  0  0  0  0  0  0  0
   40.8920   33.5870   38.9140 C   0  0  0  0  0  3  0  0  0  0  0  0
   40.9550   34.5230   38.3680 H   0  0  0  0  0  0  0  0  0  0  0  0
   40.4590   33.7990   40.3440 C   0  0  1  0  0  3  0  0  0  0  0  0
   38.7930   33.1270   40.7330 S   0  0  0  0  0  0  0  0  0  0  0  0
   39.0710   31.3120   40.6330 C   0  0  0  0  0  3  0  0  0  0  0  0
   38.1010   30.8540   40.6880 H   0  0  0  0  0  0  0  0  0  0  0  0
   42.1260   31.4810   42.6650 C   0  0  0  0  0  0  0  0  0  0  0  0
   42.9030   30.7870   43.3610 O   0  0  0  0  0  0  0  0  0  0  0  0
   42.9110   32.1510   43.5610 O   0  0  0  0  0  0  0  0  0  0  0  0
   43.7050   32.7750   43.2990 H   0  0  0  0  0  0  0  0  0  0  0  0
  1  2  1  0  0  0  0
  2  3  2  0  0  0  0
  2 30  1  0  0  0  0
  3  7  1  0  0  0  0
  4  3  1  0  0  0  0
  5  4  2  0  0  0  0
  6  5  1  0  0  0  0
  6  1  2  0  0  0  0
  7  8  1  0  0  0  0
  9  7  1  0  0  0  0
 10  1  1  0  0  0  0
 11 20  1  0  0  0  0
 11 12  1  0  0  0  0
 12 10  1  0  0  0  0
 13 12  2  0  0  0  0
 13 21  1  0  0  0  0
 14 13  1  0  0  0  0
 15 16  1  0  0  0  0
 15 14  2  0  0  0  0
 16 11  2  0  0  0  0
 17 18  1  0  0  0  0
 17 15  1  0  0  0  0
 18 19  1  0  0  0  0
 19 14  1  0  0  0  0
 22 16  1  0  0  0  0
 23 18  1  0  0  0  0
 24 18  1  0  0  0  0
 25  5  1  0  0  0  0
 25 26  1  0  0  0  0
 26 29  1  0  0  0  0
 26 27  1  0  0  0  0
 28 26  1  0  0  0  0
 31 30  1  0  0  0  0
 32 31  2  0  0  0  0
 32 42  1  0  0  0  0
 33 32  1  0  0  0  0
 34 33  1  0  0  0  0
 35 34  2  0  0  0  0
 36 34  1  0  0  0  0
 37 36  1  0  0  0  0
 38 36  1  6  0  0  0
 38 33  1  0  0  0  0
 38 39  1  0  0  0  0
 40 41  1  0  0  0  0
 40 39  1  0  0  0  0
 40 31  1  0  0  0  0
 42 43  2  0  0  0  0
 42 44  1  0  0  0  0
 45 44  1  0  0  0  0
M  END
>  <minimizedAffinity>
-6.36846495

$$$$

 OpenBabel03242515453D

 45 49  0  0  1  0  0  0  0  0999 V2000
   38.0000   29.6590   41.2210 C   0  0  0  0  0  0  0  0  0  0  0  0
   38.3300   30.9730   41.1010 C   0  0  0  0  0  0  0  0  0  0  0  0
   37.3060   31.7880   40.5770 C   0  0  0  0  0  0  0  0  0  0  0  0
   36.1080   31.2700   40.2200 N   0  0  0  0  0  0  0  0  0  0  0  0
   35.8420   29.9530   40.3530 C   0  0  0  0  0  0  0  0  0  0  0  0
   36.8030   29.2070   40.8530 N   0  0  0  0  0  0  0  0  0  0  0  0
   37.4920   33.1990   40.4510 N   0  0  0  0  0  0  0  0  0  0  0  0
   36.9030   33.7310   41.1590 H   0  0  0  0  0  0  0  0  0  0  0  0
   38.1810   33.3600   39.6680 H   0  0  0  0  0  0  0  0  0  0  0  0
   39.2780   28.6080   41.9570 S   0  0  0  0  0  0  0  0  0  0  0  0
   40.2530   26.4450   40.7660 C   0  0  0  0  0  0  0  0  0  0  0  0
   39.0950   26.9180   41.4150 C   0  0  0  0  0  0  0  0  0  0  0  0
   37.9860   26.1030   41.6320 C   0  0  0  0  0  0  0  0  0  0  0  0
   38.0160   24.8010   41.2060 C   0  0  0  0  0  0  0  0  0  0  0  0
   39.1500   24.3060   40.5610 C   0  0  0  0  0  0  0  0  0  0  0  0
   40.2560   25.1020   40.3380 C   0  0  0  0  0  0  0  0  0  0  0  0
   38.8880   22.9440   40.2410 O   0  0  0  0  0  0  0  0  0  0  0  0
   37.5130   22.7920   40.3390 C   0  0  0  0  0  0  0  0  0  0  0  0
   37.0890   23.7620   41.2770 O   0  0  0  0  0  0  0  0  0  0  0  0
   41.1390   27.0280   40.5670 H   0  0  0  0  0  0  0  0  0  0  0  0
   37.1640   26.5540   42.1270 H   0  0  0  0  0  0  0  0  0  0  0  0
   41.1260   24.7070   39.8380 H   0  0  0  0  0  0  0  0  0  0  0  0
   37.1580   21.7770   40.5770 H   0  0  0  0  0  0  0  0  0  0  0  0
   37.0560   23.0880   39.3560 H   0  0  0  0  0  0  0  0  0  0  0  0
   34.6630   29.3660   40.0000 O   0  0  0  0  0  0  0  0  0  0  0  0
   34.5120   28.8910   38.6840 C   0  0  0  0  0  0  0  0  0  0  0  0
   34.9780   27.5990   38.5660 F   0  0  0  0  0  0  0  0  0  0  0  0
   33.1500   28.9710   38.3760 F   0  0  0  0  0  0  0  0  0  0  0  0
   35.2730   29.6880   37.8450 F   0  0  0  0  0  0  0  0  0  0  0  0
   39.5300   31.8180   41.2310 C   0  0  0  0  0  2  0  0  0  0  0  0
   40.6970   31.5730   40.4060 C   0  0  0  0  0  0  0  0  0  0  0  0
   41.1210   31.4870   39.1610 C   0  0  0  0  0  0  0  0  0  0  0  0
   42.4440   31.1810   38.7560 N   0  0  0  0  0  0  0  0  0  0  0  0
   43.5980   31.5350   38.0150 C   0  0  0  0  0  0  0  0  0  0  0  0
   43.7440   32.1530   36.9260 O   0  0  0  0  0  0  0  0  0  0  0  0
   44.3840   30.8560   39.1070 C   0  0  0  0  0  3  0  0  0  0  0  0
   45.2660   30.3060   38.7930 H   0  0  0  0  0  0  0  0  0  0  0  0
   43.1660   29.9690   39.1870 C   0  0  1  0  0  3  0  0  0  0  0  0
   42.5370   29.7050   40.8930 S   0  0  0  0  0  0  0  0  0  0  0  0
   41.8850   31.3680   41.3310 C   0  0  0  0  0  3  0  0  0  0  0  0
   41.6490   31.3340   42.3780 H   0  0  0  0  0  0  0  0  0  0  0  0
   40.1000   31.7120   38.1400 C   0  0  0  0  0  0  0  0  0  0  0  0
   38.9760   31.5670   37.6050 O   0  0  0  0  0  0  0  0  0  0  0  0
   39.8810   32.3930   36.9750 O   0  0  0  0  0  0  0  0  0  0  0  0
   39.7780   33.4290   36.9080 H   0  0  0  0  0  0  0  0  0  0  0  0
  1 10  1  0  0  0  0
  2  1  1  0  0  0  0
  2 30  1  0  0  0  0
  3  2  2  0  0  0  0
  4  5  2  0  0  0  0
  4  3  1  0  0  0  0
  5  6  1  0  0  0  0
  6  1  2  0  0  0  0
  7  3  1  0  0  0  0
  7  8  1  0  0  0  0
  9  7  1  0  0  0  0
 11 12  1  0  0  0  0
 12 13  2  0  0  0  0
 12 10  1  0  0  0  0
 13 21  1  0  0  0  0
 14 19  1  0  0  0  0
 14 13  1  0  0  0  0
 15 14  2  0  0  0  0
 16 15  1  0  0  0  0
 16 11  2  0  0  0  0
 17 18  1  0  0  0  0
 17 15  1  0  0  0  0
 18 23  1  0  0  0  0
 18 19  1  0  0  0  0
 20 11  1  0  0  0  0
 22 16  1  0  0  0  0
 24 18  1  0  0  0  0
 25  5  1  0  0  0  0
 26 25  1  0  0  0  0
 27 26  1  0  0  0  0
 28 26  1  0  0  0  0
 29 26  1  0  0  0  0
 31 30  1  0  0  0  0
 31 40  1  0  0  0  0
 32 31  2  0  0  0  0
 33 32  1  0  0  0  0
 33 38  1  0  0  0  0
 34 33  1  0  0  0  0
 34 36  1  0  0  0  0
 35 34  2  0  0  0  0
 37 36  1  0  0  0  0
 38 36  1  1  0  0  0
 38 39  1  0  0  0  0
 39 40  1  0  0  0  0
 40 41  1  0  0  0  0
 42 32  1  0  0  0  0
 43 42  2  0  0  0  0
 44 42  1  0  0  0  0
 45 44  1  0  0  0  0
M  END
>  <minimizedAffinity>
-6.3218894

$$$$

 OpenBabel03242515453D

 45 49  0  0  1  0  0  0  0  0999 V2000
   37.4730   29.3010   41.7710 C   0  0  0  0  0  0  0  0  0  0  0  0
   38.7640   29.5540   42.1140 C   0  0  0  0  0  0  0  0  0  0  0  0
   39.4370   28.4670   42.7060 C   0  0  0  0  0  0  0  0  0  0  0  0
   38.8130   27.2830   42.9140 N   0  0  0  0  0  0  0  0  0  0  0  0
   37.5240   27.0930   42.5600 C   0  0  0  0  0  0  0  0  0  0  0  0
   36.9130   28.1150   41.9990 N   0  0  0  0  0  0  0  0  0  0  0  0
   40.8160   28.5710   43.0630 N   0  0  0  0  0  0  0  0  0  0  0  0
   41.4270   27.9860   42.4190 H   0  0  0  0  0  0  0  0  0  0  0  0
   40.8810   29.2150   43.8970 H   0  0  0  0  0  0  0  0  0  0  0  0
   36.6130   30.6640   40.9460 S   0  0  0  0  0  0  0  0  0  0  0  0
   37.4870   31.1600   38.4880 C   0  0  0  0  0  0  0  0  0  0  0  0
   36.5350   30.3890   39.1850 C   0  0  0  0  0  0  0  0  0  0  0  0
   35.6920   29.4910   38.5330 C   0  0  0  0  0  0  0  0  0  0  0  0
   35.7890   29.3460   37.1730 C   0  0  0  0  0  0  0  0  0  0  0  0
   36.7240   30.0950   36.4580 C   0  0  0  0  0  0  0  0  0  0  0  0
   37.5640   30.9900   37.0910 C   0  0  0  0  0  0  0  0  0  0  0  0
   36.5900   29.7340   35.0880 O   0  0  0  0  0  0  0  0  0  0  0  0
   35.3580   29.1060   34.9830 C   0  0  0  0  0  0  0  0  0  0  0  0
   35.1060   28.5470   36.2580 O   0  0  0  0  0  0  0  0  0  0  0  0
   38.1620   31.8710   38.9370 H   0  0  0  0  0  0  0  0  0  0  0  0
   35.0090   28.9610   39.1460 H   0  0  0  0  0  0  0  0  0  0  0  0
   38.2820   31.5640   36.5270 H   0  0  0  0  0  0  0  0  0  0  0  0
   35.2600   28.3770   34.1640 H   0  0  0  0  0  0  0  0  0  0  0  0
   34.5730   29.8960   34.8280 H   0  0  0  0  0  0  0  0  0  0  0  0
   36.8360   25.9330   42.7530 O   0  0  0  0  0  0  0  0  0  0  0  0
   37.1580   24.8160   41.9600 C   0  0  0  0  0  0  0  0  0  0  0  0
   37.6880   25.2040   40.7480 F   0  0  0  0  0  0  0  0  0  0  0  0
   38.0680   24.0470   42.6910 F   0  0  0  0  0  0  0  0  0  0  0  0
   35.9910   24.1180   41.7010 F   0  0  0  0  0  0  0  0  0  0  0  0
   39.6730   30.7130   42.1830 C   0  0  0  0  0  2  0  0  0  0  0  0
   40.3320   31.2040   40.9880 C   0  0  0  0  0  0  0  0  0  0  0  0
   41.1630   30.8760   40.0190 C   0  0  0  0  0  0  0  0  0  0  0  0
   41.5990   31.7310   38.9770 N   0  0  0  0  0  0  0  0  0  0  0  0
   41.7390   31.9770   37.5890 C   0  0  0  0  0  0  0  0  0  0  0  0
   41.9370   31.2050   36.6120 O   0  0  0  0  0  0  0  0  0  0  0  0
   41.5480   33.4320   37.9310 C   0  0  0  0  0  3  0  0  0  0  0  0
   42.1350   34.1410   37.3550 H   0  0  0  0  0  0  0  0  0  0  0  0
   42.2390   33.0390   39.2130 C   0  0  1  0  0  3  0  0  0  0  0  0
   41.3990   33.6350   40.7340 S   0  0  0  0  0  0  0  0  0  0  0  0
   39.8590   32.6290   40.7510 C   0  0  0  0  0  3  0  0  0  0  0  0
   39.2380   33.0400   41.5250 H   0  0  0  0  0  0  0  0  0  0  0  0
   41.6730   29.5070   40.0760 C   0  0  0  0  0  0  0  0  0  0  0  0
   41.6440   28.2740   39.8580 O   0  0  0  0  0  0  0  0  0  0  0  0
   42.7330   28.7770   40.5350 O   0  0  0  0  0  0  0  0  0  0  0  0
   43.6970   28.8230   40.1400 H   0  0  0  0  0  0  0  0  0  0  0  0
  1  6  2  0  0  0  0
  1  2  1  0  0  0  0
  2 30  1  0  0  0  0
  2  3  2  0  0  0  0
  3  4  1  0  0  0  0
  3  7  1  0  0  0  0
  5 25  1  0  0  0  0
  5  4  2  0  0  0  0
  6  5  1  0  0  0  0
  7  9  1  0  0  0  0
  8  7  1  0  0  0  0
 10  1  1  0  0  0  0
 11 20  1  0  0  0  0
 11 12  1  0  0  0  0
 12 10  1  0  0  0  0
 13 21  1  0  0  0  0
 13 12  2  0  0  0  0
 14 13  1  0  0  0  0
 15 16  1  0  0  0  0
 15 14  2  0  0  0  0
 16 11  2  0  0  0  0
 17 15  1  0  0  0  0
 18 17  1  0  0  0  0
 18 19  1  0  0  0  0
 19 14  1  0  0  0  0
 22 16  1  0  0  0  0
 23 18  1  0  0  0  0
 24 18  1  0  0  0  0
 26 28  1  0  0  0  0
 26 25  1  0  0  0  0
 27 26  1  0  0  0  0
 29 26  1  0  0  0  0
 31 30  1  0  0  0  0
 32 42  1  0  0  0  0
 32 31  2  0  0  0  0
 33 38  1  0  0  0  0
 33 32  1  0  0  0  0
 34 36  1  0  0  0  0
 34 33  1  0  0  0  0
 35 34  2  0  0  0  0
 37 36  1  0  0  0  0
 38 36  1  6  0  0  0
 38 39  1  0  0  0  0
 39 40  1  0  0  0  0
 40 31  1  0  0  0  0
 40 41  1  0  0  0  0
 42 44  1  0  0  0  0
 43 42  2  0  0  0  0
 45 44  1  0  0  0  0
M  END
>  <minimizedAffinity>
-6.27879715

$$$$

 OpenBabel03242515453D

 45 49  0  0  1  0  0  0  0  0999 V2000
   37.1170   28.5120   36.3790 C   0  0  0  0  0  0  0  0  0  0  0  0
   36.3430   27.4380   36.6900 C   0  0  0  0  0  0  0  0  0  0  0  0
   35.1020   27.3970   36.0240 C   0  0  0  0  0  0  0  0  0  0  0  0
   34.7360   28.3720   35.1580 N   0  0  0  0  0  0  0  0  0  0  0  0
   35.5440   29.4210   34.8960 C   0  0  0  0  0  0  0  0  0  0  0  0
   36.7040   29.4400   35.5180 N   0  0  0  0  0  0  0  0  0  0  0  0
   34.2120   26.2960   36.2090 N   0  0  0  0  0  0  0  0  0  0  0  0
   34.1640   25.6870   35.3380 H   0  0  0  0  0  0  0  0  0  0  0  0
   33.8170   26.3670   37.1850 H   0  0  0  0  0  0  0  0  0  0  0  0
   38.7440   28.5470   37.1730 S   0  0  0  0  0  0  0  0  0  0  0  0
   40.3200   30.2560   38.4560 C   0  0  0  0  0  0  0  0  0  0  0  0
   38.9770   30.0710   38.0700 C   0  0  0  0  0  0  0  0  0  0  0  0
   37.9960   31.0250   38.3340 C   0  0  0  0  0  0  0  0  0  0  0  0
   38.3410   32.1810   38.9860 C   0  0  0  0  0  0  0  0  0  0  0  0
   39.6630   32.3900   39.3780 C   0  0  0  0  0  0  0  0  0  0  0  0
   40.6460   31.4530   39.1240 C   0  0  0  0  0  0  0  0  0  0  0  0
   39.7130   33.6580   40.0220 O   0  0  0  0  0  0  0  0  0  0  0  0
   38.3990   33.9710   40.3380 C   0  0  0  0  0  0  0  0  0  0  0  0
   37.6060   33.2980   39.3800 O   0  0  0  0  0  0  0  0  0  0  0  0
   41.1200   29.5540   38.2820 H   0  0  0  0  0  0  0  0  0  0  0  0
   37.0150   30.7910   38.0040 H   0  0  0  0  0  0  0  0  0  0  0  0
   41.6640   31.6270   39.4340 H   0  0  0  0  0  0  0  0  0  0  0  0
   38.1660   35.0440   40.4140 H   0  0  0  0  0  0  0  0  0  0  0  0
   38.1550   33.5010   41.3310 H   0  0  0  0  0  0  0  0  0  0  0  0
   35.2300   30.4410   34.0480 O   0  0  0  0  0  0  0  0  0  0  0  0
   36.2640   31.0500   33.3110 C   0  0  0  0  0  0  0  0  0  0  0  0
   37.0110   31.8920   34.1080 F   0  0  0  0  0  0  0  0  0  0  0  0
   37.0480   30.0200   32.7830 F   0  0  0  0  0  0  0  0  0  0  0  0
   35.6900   31.8190   32.3140 F   0  0  0  0  0  0  0  0  0  0  0  0
   36.3500   26.3270   37.6580 C   0  0  0  0  0  2  0  0  0  0  0  0
   36.7150   26.5560   39.0430 C   0  0  0  0  0  0  0  0  0  0  0  0
   36.5180   27.3480   40.0780 C   0  0  0  0  0  0  0  0  0  0  0  0
   37.1400   27.2240   41.3450 N   0  0  0  0  0  0  0  0  0  0  0  0
   37.0150   27.0990   42.7500 C   0  0  0  0  0  0  0  0  0  0  0  0
   36.1620   27.5460   43.5630 O   0  0  0  0  0  0  0  0  0  0  0  0
   38.2730   26.2710   42.6870 C   0  0  0  0  0  3  0  0  0  0  0  0
   38.9690   26.3930   43.5110 H   0  0  0  0  0  0  0  0  0  0  0  0
   38.6030   27.1840   41.5320 C   0  0  1  0  0  3  0  0  0  0  0  0
   39.1820   26.3090   40.0240 S   0  0  0  0  0  0  0  0  0  0  0  0
   37.6590   25.4430   39.4640 C   0  0  0  0  0  3  0  0  0  0  0  0
   37.9620   24.7770   38.6770 H   0  0  0  0  0  0  0  0  0  0  0  0
   35.5860   28.4500   39.8490 C   0  0  0  0  0  0  0  0  0  0  0  0
   34.9880   29.3080   39.1580 O   0  0  0  0  0  0  0  0  0  0  0  0
   34.6980   29.2550   40.5050 O   0  0  0  0  0  0  0  0  0  0  0  0
   33.7850   28.9330   40.8940 H   0  0  0  0  0  0  0  0  0  0  0  0
  1  2  1  0  0  0  0
  1 10  1  0  0  0  0
  2 30  1  0  0  0  0
  3  7  1  0  0  0  0
  3  2  2  0  0  0  0
  4  3  1  0  0  0  0
  5  4  2  0  0  0  0
  5  6  1  0  0  0  0
  6  1  2  0  0  0  0
  7  9  1  0  0  0  0
  8  7  1  0  0  0  0
 10 12  1  0  0  0  0
 11 16  1  0  0  0  0
 12 13  1  0  0  0  0
 12 11  2  0  0  0  0
 13 14  2  0  0  0  0
 14 15  1  0  0  0  0
 14 19  1  0  0  0  0
 15 17  1  0  0  0  0
 16 15  2  0  0  0  0
 16 22  1  0  0  0  0
 17 18  1  0  0  0  0
 18 23  1  0  0  0  0
 18 24  1  0  0  0  0
 19 18  1  0  0  0  0
 20 11  1  0  0  0  0
 21 13  1  0  0  0  0
 25  5  1  0  0  0  0
 26 25  1  0  0  0  0
 26 27  1  0  0  0  0
 28 26  1  0  0  0  0
 29 26  1  0  0  0  0
 30 31  1  0  0  0  0
 31 40  1  0  0  0  0
 31 32  2  0  0  0  0
 32 33  1  0  0  0  0
 33 38  1  0  0  0  0
 33 34  1  0  0  0  0
 34 35  2  0  0  0  0
 36 34  1  0  0  0  0
 36 37  1  0  0  0  0
 38 39  1  6  0  0  0
 38 36  1  0  0  0  0
 40 39  1  0  0  0  0
 41 40  1  0  0  0  0
 42 32  1  0  0  0  0
 42 44  1  0  0  0  0
 43 42  2  0  0  0  0
 44 45  1  0  0  0  0
M  END
>  <minimizedAffinity>
-6.27694035

$$$$

 OpenBabel03242515453D

 45 49  0  0  1  0  0  0  0  0999 V2000
   36.1290   29.5270   38.9190 C   0  0  0  0  0  0  0  0  0  0  0  0
   36.2680   28.2970   39.4830 C   0  0  0  0  0  0  0  0  0  0  0  0
   36.0930   27.2210   38.5900 C   0  0  0  0  0  0  0  0  0  0  0  0
   35.8000   27.4290   37.2850 N   0  0  0  0  0  0  0  0  0  0  0  0
   35.6650   28.6760   36.7840 C   0  0  0  0  0  0  0  0  0  0  0  0
   35.8400   29.6700   37.6280 N   0  0  0  0  0  0  0  0  0  0  0  0
   36.2690   25.8730   39.0310 N   0  0  0  0  0  0  0  0  0  0  0  0
   37.1550   25.4460   38.6280 H   0  0  0  0  0  0  0  0  0  0  0  0
   35.4540   25.6360   39.6600 H   0  0  0  0  0  0  0  0  0  0  0  0
   36.4180   30.9230   40.0350 S   0  0  0  0  0  0  0  0  0  0  0  0
   38.0780   32.9720   40.3430 C   0  0  0  0  0  0  0  0  0  0  0  0
   37.9010   31.8020   39.5780 C   0  0  0  0  0  0  0  0  0  0  0  0
   38.8350   31.3940   38.6260 C   0  0  0  0  0  0  0  0  0  0  0  0
   39.9620   32.1480   38.4260 C   0  0  0  0  0  0  0  0  0  0  0  0
   40.1620   33.3110   39.1700 C   0  0  0  0  0  0  0  0  0  0  0  0
   39.2450   33.7280   40.1150 C   0  0  0  0  0  0  0  0  0  0  0  0
   41.4000   33.8710   38.7460 O   0  0  0  0  0  0  0  0  0  0  0  0
   41.6880   33.2680   37.5300 C   0  0  0  0  0  0  0  0  0  0  0  0
   41.0540   32.0050   37.5710 O   0  0  0  0  0  0  0  0  0  0  0  0
   37.3900   33.3390   41.0890 H   0  0  0  0  0  0  0  0  0  0  0  0
   38.6080   30.5010   38.1020 H   0  0  0  0  0  0  0  0  0  0  0  0
   39.4120   34.6290   40.6830 H   0  0  0  0  0  0  0  0  0  0  0  0
   42.7550   33.2070   37.2660 H   0  0  0  0  0  0  0  0  0  0  0  0
   41.1720   33.8510   36.7180 H   0  0  0  0  0  0  0  0  0  0  0  0
   35.3570   28.9540   35.4860 O   0  0  0  0  0  0  0  0  0  0  0  0
   36.4010   29.2650   34.5950 C   0  0  0  0  0  0  0  0  0  0  0  0
   36.1280   28.7970   33.3280 F   0  0  0  0  0  0  0  0  0  0  0  0
   36.5430   30.6560   34.6050 F   0  0  0  0  0  0  0  0  0  0  0  0
   37.5500   28.6310   35.0360 F   0  0  0  0  0  0  0  0  0  0  0  0
   36.4170   27.7200   40.8310 C   0  0  0  0  0  2  0  0  0  0  0  0
   37.7310   27.4090   41.3590 C   0  0  0  0  0  0  0  0  0  0  0  0
   38.4680   26.4500   41.8810 C   0  0  0  0  0  0  0  0  0  0  0  0
   39.8100   26.5810   42.3180 N   0  0  0  0  0  0  0  0  0  0  0  0
   41.1550   26.1410   42.2550 C   0  0  0  0  0  0  0  0  0  0  0  0
   41.6610   25.0030   42.0620 O   0  0  0  0  0  0  0  0  0  0  0  0
   41.5310   27.5780   42.5100 C   0  0  0  0  0  3  0  0  0  0  0  0
   42.3990   27.7420   43.1410 H   0  0  0  0  0  0  0  0  0  0  0  0
   40.2480   27.5870   43.3050 C   0  0  1  0  0  3  0  0  0  0  0  0
   39.1500   29.0160   42.9450 S   0  0  0  0  0  0  0  0  0  0  0  0
   38.5890   28.6560   41.2300 C   0  0  0  0  0  3  0  0  0  0  0  0
   38.0720   29.5340   40.8910 H   0  0  0  0  0  0  0  0  0  0  0  0
   37.7980   25.1590   42.0250 C   0  0  0  0  0  0  0  0  0  0  0  0
   36.8490   24.3500   41.8970 O   0  0  0  0  0  0  0  0  0  0  0  0
   37.9950   23.8980   42.5150 O   0  0  0  0  0  0  0  0  0  0  0  0
   38.6470   23.1980   42.0980 H   0  0  0  0  0  0  0  0  0  0  0  0
  1  2  1  0  0  0  0
  1 10  1  0  0  0  0
  2 30  1  0  0  0  0
  3  7  1  0  0  0  0
  3  2  2  0  0  0  0
  4  3  1  0  0  0  0
  5  4  2  0  0  0  0
  5  6  1  0  0  0  0
  6  1  2  0  0  0  0
  7  9  1  0  0  0  0
  8  7  1  0  0  0  0
 11 20  1  0  0  0  0
 12 10  1  0  0  0  0
 12 11  2  0  0  0  0
 13 12  1  0  0  0  0
 14 13  2  0  0  0  0
 14 15  1  0  0  0  0
 15 16  2  0  0  0  0
 16 11  1  0  0  0  0
 16 22  1  0  0  0  0
 17 15  1  0  0  0  0
 18 19  1  0  0  0  0
 18 17  1  0  0  0  0
 19 14  1  0  0  0  0
 21 13  1  0  0  0  0
 23 18  1  0  0  0  0
 24 18  1  0  0  0  0
 25  5  1  0  0  0  0
 26 28  1  0  0  0  0
 26 29  1  0  0  0  0
 26 25  1  0  0  0  0
 27 26  1  0  0  0  0
 30 31  1  0  0  0  0
 31 32  2  0  0  0  0
 32 42  1  0  0  0  0
 32 33  1  0  0  0  0
 33 38  1  0  0  0  0
 34 33  1  0  0  0  0
 34 36  1  0  0  0  0
 35 34  2  0  0  0  0
 36 37  1  0  0  0  0
 38 36  1  6  0  0  0
 39 38  1  0  0  0  0
 40 31  1  0  0  0  0
 40 39  1  0  0  0  0
 41 40  1  0  0  0  0
 42 44  1  0  0  0  0
 43 42  2  0  0  0  0
 45 44  1  0  0  0  0
M  END
>  <minimizedAffinity>
-6.26732731

$$$$
