
 OpenBabel03242515423D

 45 49  0  0  1  0  0  0  0  0999 V2000
   44.9730   32.2900   41.2110 C   0  0  0  0  0  0  0  0  0  0  0  0
   44.8940   31.9950   39.8860 C   0  0  0  0  0  0  0  0  0  0  0  0
   45.7270   32.7780   39.0610 C   0  0  0  0  0  0  0  0  0  0  0  0
   46.5200   33.7460   39.5780 N   0  0  0  0  0  0  0  0  0  0  0  0
   46.5480   34.0000   40.9030 C   0  0  0  0  0  0  0  0  0  0  0  0
   45.7730   33.2540   41.6620 N   0  0  0  0  0  0  0  0  0  0  0  0
   45.7910   32.5370   37.6540 N   0  0  0  0  0  0  0  0  0  0  0  0
   46.7230   32.1050   37.3780 H   0  0  0  0  0  0  0  0  0  0  0  0
   44.8770   32.8580   37.2350 H   0  0  0  0  0  0  0  0  0  0  0  0
   43.9630   31.2490   42.2950 S   0  0  0  0  0  0  0  0  0  0  0  0
   44.2980   29.3530   44.1230 C   0  0  0  0  0  0  0  0  0  0  0  0
   44.9800   30.4180   43.5020 C   0  0  0  0  0  0  0  0  0  0  0  0
   46.3110   30.7110   43.7920 C   0  0  0  0  0  0  0  0  0  0  0  0
   46.9840   29.9420   44.7070 C   0  0  0  0  0  0  0  0  0  0  0  0
   46.3330   28.8810   45.3360 C   0  0  0  0  0  0  0  0  0  0  0  0
   45.0130   28.5800   45.0590 C   0  0  0  0  0  0  0  0  0  0  0  0
   47.2720   28.2780   46.2190 O   0  0  0  0  0  0  0  0  0  0  0  0
   48.2870   29.2090   46.3810 C   0  0  0  0  0  0  0  0  0  0  0  0
   48.2890   29.9810   45.1950 O   0  0  0  0  0  0  0  0  0  0  0  0
   43.2690   29.0820   43.9420 H   0  0  0  0  0  0  0  0  0  0  0  0
   46.7330   31.5340   43.2730 H   0  0  0  0  0  0  0  0  0  0  0  0
   44.5210   27.7570   45.5530 H   0  0  0  0  0  0  0  0  0  0  0  0
   49.2780   28.8000   46.6310 H   0  0  0  0  0  0  0  0  0  0  0  0
   47.9920   29.9100   47.2090 H   0  0  0  0  0  0  0  0  0  0  0  0
   47.3120   34.9680   41.4850 O   0  0  0  0  0  0  0  0  0  0  0  0
   48.6160   35.1810   41.0010 C   0  0  0  0  0  0  0  0  0  0  0  0
   49.4420   34.1230   41.3190 F   0  0  0  0  0  0  0  0  0  0  0  0
   48.5150   35.3500   39.6170 F   0  0  0  0  0  0  0  0  0  0  0  0
   49.1280   36.3100   41.6180 F   0  0  0  0  0  0  0  0  0  0  0  0
   44.0660   31.1610   38.9970 C   0  0  0  0  0  2  0  0  0  0  0  0
   42.6430   31.4110   38.8670 C   0  0  0  0  0  0  0  0  0  0  0  0
   41.7430   32.3440   38.6280 C   0  0  0  0  0  0  0  0  0  0  0  0
   40.3380   32.1550   38.6140 N   0  0  0  0  0  0  0  0  0  0  0  0
   39.1070   32.2710   37.9250 C   0  0  0  0  0  0  0  0  0  0  0  0
   38.6870   33.1140   37.0880 O   0  0  0  0  0  0  0  0  0  0  0  0
   38.6930   31.0230   38.6610 C   0  0  0  0  0  3  0  0  0  0  0  0
   37.6550   30.9740   38.9770 H   0  0  0  0  0  0  0  0  0  0  0  0
   39.5840   31.5800   39.7440 C   0  0  1  0  0  3  0  0  0  0  0  0
   40.7680   30.3630   40.4460 S   0  0  0  0  0  0  0  0  0  0  0  0
   41.9220   30.0840   39.0420 C   0  0  0  0  0  3  0  0  0  0  0  0
   42.5470   29.2580   39.3240 H   0  0  0  0  0  0  0  0  0  0  0  0
   42.2830   33.6800   38.3860 C   0  0  0  0  0  0  0  0  0  0  0  0
   43.1900   34.5410   38.2990 O   0  0  0  0  0  0  0  0  0  0  0  0
   41.8970   34.9450   38.0400 O   0  0  0  0  0  0  0  0  0  0  0  0
   41.5490   35.2180   37.0950 H   0  0  0  0  0  0  0  0  0  0  0  0
  1  6  1  0  0  0  0
  1 10  1  0  0  0  0
  2  1  2  0  0  0  0
  3  4  2  0  0  0  0
  3  2  1  0  0  0  0
  4  5  1  0  0  0  0
  5 25  1  0  0  0  0
  5  6  2  0  0  0  0
  7  3  1  0  0  0  0
  8  7  1  0  0  0  0
  9  7  1  0  0  0  0
 10 12  1  0  0  0  0
 11 16  1  0  0  0  0
 12 13  1  0  0  0  0
 12 11  2  0  0  0  0
 13 14  2  0  0  0  0
 14 19  1  0  0  0  0
 14 15  1  0  0  0  0
 15 17  1  0  0  0  0
 16 15  2  0  0  0  0
 16 22  1  0  0  0  0
 17 18  1  0  0  0  0
 18 23  1  0  0  0  0
 18 24  1  0  0  0  0
 19 18  1  0  0  0  0
 20 11  1  0  0  0  0
 21 13  1  0  0  0  0
 26 27  1  0  0  0  0
 26 25  1  0  0  0  0
 26 29  1  0  0  0  0
 28 26  1  0  0  0  0
 30  2  1  0  0  0  0
 31 30  1  0  0  0  0
 31 40  1  0  0  0  0
 32 31  2  0  0  0  0
 33 32  1  0  0  0  0
 33 38  1  0  0  0  0
 34 33  1  0  0  0  0
 34 36  1  0  0  0  0
 35 34  2  0  0  0  0
 36 37  1  0  0  0  0
 38 36  1  6  0  0  0
 38 39  1  0  0  0  0
 40 41  1  0  0  0  0
 40 39  1  0  0  0  0
 42 32  1  0  0  0  0
 43 42  2  0  0  0  0
 44 42  1  0  0  0  0
 45 44  1  0  0  0  0
M  END
>  <minimizedAffinity>
-4.98160934

>  <minimizedRMSD>
5.45758915

$$$$
