
 OpenBabel03242513273D

 37 40  0  0  1  0  0  0  0  0999 V2000
   46.1030   33.9140   41.2110 C   0  0  0  0  0  0  0  0  0  0  0  0
   46.6570   34.7020   42.1800 C   0  0  0  0  0  0  0  0  0  0  0  0
   47.8530   35.3120   41.8870 C   0  0  0  0  0  0  0  0  0  0  0  0
   48.4760   35.1380   40.6620 C   0  0  0  0  0  0  0  0  0  0  0  0
   47.9100   34.3540   39.7170 C   0  0  0  0  0  0  0  0  0  0  0  0
   46.6900   33.7080   39.9630 C   0  0  0  0  0  0  0  0  0  0  0  0
   48.3160   35.9430   42.6350 H   0  0  0  0  0  0  0  0  0  0  0  0
   49.4220   35.6140   40.4170 H   0  0  0  0  0  0  0  0  0  0  0  0
   48.3840   34.2080   38.7570 H   0  0  0  0  0  0  0  0  0  0  0  0
   44.4490   36.0310   44.9400 C   0  0  0  0  0  0  0  0  0  0  0  0
   45.1120   35.9250   43.7060 C   0  0  0  0  0  0  0  0  0  0  0  0
   45.9590   34.8450   43.4330 C   0  0  0  0  0  0  0  0  0  0  0  0
   46.0780   33.9460   44.4270 N   0  0  0  0  0  0  0  0  0  0  0  0
   45.4400   34.0510   45.6090 C   0  0  0  0  0  0  0  0  0  0  0  0
   44.6310   35.0800   45.8730 N   0  0  0  0  0  0  0  0  0  0  0  0
   43.8150   36.9000   45.0600 H   0  0  0  0  0  0  0  0  0  0  0  0
   44.9860   36.6740   42.9340 H   0  0  0  0  0  0  0  0  0  0  0  0
   45.6280   33.2530   46.3200 H   0  0  0  0  0  0  0  0  0  0  0  0
   44.8970   33.2770   41.4590 O   0  0  0  0  0  0  0  0  0  0  0  0
   44.9650   32.2720   41.5990 H   0  0  0  0  0  0  0  0  0  0  0  0
   46.0500   32.8930   39.0490 O   0  0  0  0  0  0  0  0  0  0  0  0
   46.7500   32.6790   37.8100 C   0  0  0  0  0  2  0  0  0  0  0  0
   47.5260   31.4380   37.8370 C   0  0  0  0  0  0  0  0  0  0  0  0
   48.8010   31.3330   37.6040 C   0  0  0  0  0  0  0  0  0  0  0  0
   49.4090   30.0550   37.6630 N   0  0  0  0  0  0  0  0  0  0  0  0
   50.5570   29.2990   38.0560 C   0  0  0  0  0  0  0  0  0  0  0  0
   51.7280   29.4940   38.5300 O   0  0  0  0  0  0  0  0  0  0  0  0
   49.8930   28.0240   37.7010 C   0  0  0  0  0  3  0  0  0  0  0  0
   49.6570   27.3650   38.5620 H   0  0  0  0  0  0  0  0  0  0  0  0
   48.7600   28.8310   37.1610 C   0  0  1  0  0  3  0  0  0  0  0  0
   47.2190   28.7120   38.1340 S   0  0  0  0  0  0  0  0  0  0  0  0
   46.5370   30.3910   38.1870 C   0  0  0  0  0  3  0  0  0  0  0  0
   45.6730   30.3720   37.4540 H   0  0  0  0  0  0  0  0  0  0  0  0
   49.6430   32.4760   37.2760 C   0  0  0  0  0  0  0  0  0  0  0  0
   49.5060   33.6070   36.7490 O   0  0  0  0  0  0  0  0  0  0  0  0
   50.9950   32.5340   37.5330 O   0  0  0  0  0  0  0  0  0  0  0  0
   51.5060   33.2760   37.9920 H   0  0  0  0  0  0  0  0  0  0  0  0
  1 19  1  0  0  0  0
  1  2  1  0  0  0  0
  2 12  1  0  0  0  0
  3  2  2  0  0  0  0
  3  7  1  0  0  0  0
  4  3  1  0  0  0  0
  5  6  1  0  0  0  0
  5  4  2  0  0  0  0
  6  1  2  0  0  0  0
  8  4  1  0  0  0  0
  9  5  1  0  0  0  0
 10 16  1  0  0  0  0
 10 15  1  0  0  0  0
 11 10  2  0  0  0  0
 12 11  1  0  0  0  0
 12 13  2  0  0  0  0
 13 14  1  0  0  0  0
 14 15  2  0  0  0  0
 14 18  1  0  0  0  0
 17 11  1  0  0  0  0
 19 20  1  0  0  0  0
 21  6  1  0  0  0  0
 22 23  1  0  0  0  0
 22 21  1  0  0  0  0
 23 32  1  0  0  0  0
 24 25  1  0  0  0  0
 24 23  2  0  0  0  0
 25 26  1  0  0  0  0
 26 27  2  0  0  0  0
 28 26  1  0  0  0  0
 28 29  1  0  0  0  0
 30 25  1  0  0  0  0
 30 28  1  1  0  0  0
 30 31  1  0  0  0  0
 31 32  1  0  0  0  0
 33 32  1  0  0  0  0
 34 36  1  0  0  0  0
 34 24  1  0  0  0  0
 35 34  2  0  0  0  0
 36 37  1  0  0  0  0
M  END
>  <minimizedAffinity>
-5.44403982

>  <minimizedRMSD>
1.1321857

$$$$
