
 OpenBabel03242514083D

 51 56  0  0  1  0  0  0  0  0999 V2000
   48.2860   32.2290   38.5720 C   0  0  0  0  0  0  0  0  0  0  0  0
   48.3930   33.5970   38.5170 C   0  0  0  0  0  0  0  0  0  0  0  0
   48.5160   34.3290   37.3550 C   0  0  0  0  0  0  0  0  0  0  0  0
   48.5240   33.5430   36.1890 C   0  0  0  0  0  0  0  0  0  0  0  0
   48.4170   32.1430   36.2270 C   0  0  0  0  0  0  0  0  0  0  0  0
   48.2990   31.5050   37.4150 N   0  0  0  0  0  0  0  0  0  0  0  0
   48.3790   34.1360   39.4550 H   0  0  0  0  0  0  0  0  0  0  0  0
   48.5990   35.3930   37.3120 H   0  0  0  0  0  0  0  0  0  0  0  0
   48.6160   34.1180   35.2790 H   0  0  0  0  0  0  0  0  0  0  0  0
   48.4220   31.3790   34.9830 C   0  0  1  0  0  0  0  0  0  0  0  0
   47.1350   31.6610   34.1430 C   0  0  0  0  0  0  0  0  0  0  0  0
   47.1370   30.4870   33.1310 C   0  0  0  0  0  0  0  0  0  0  0  0
   48.2530   30.8420   32.1510 C   0  0  0  0  0  0  0  0  0  0  0  0
   49.5700   30.9510   32.8140 C   0  0  0  0  0  0  0  0  0  0  0  0
   49.6240   31.4890   34.1860 C   0  0  2  0  0  0  0  0  0  0  0  0
   48.2370   30.3040   35.2830 H   0  0  0  0  0  0  0  0  0  0  0  0
   47.2180   32.5960   33.5930 H   0  0  0  0  0  0  0  0  0  0  0  0
   46.2720   31.5730   34.8270 H   0  0  0  0  0  0  0  0  0  0  0  0
   47.3910   29.5520   33.6990 H   0  0  0  0  0  0  0  0  0  0  0  0
   46.1860   30.4060   32.6080 H   0  0  0  0  0  0  0  0  0  0  0  0
   47.8960   31.7710   31.6350 H   0  0  0  0  0  0  0  0  0  0  0  0
   48.2330   30.0400   31.3910 H   0  0  0  0  0  0  0  0  0  0  0  0
   50.0270   29.9180   32.7500 H   0  0  0  0  0  0  0  0  0  0  0  0
   50.2230   31.5410   32.1340 H   0  0  0  0  0  0  0  0  0  0  0  0
   49.8970   32.5840   34.1040 H   0  0  0  0  0  0  0  0  0  0  0  0
   50.9540   30.5860   35.0580 S   0  0  0  0  0  0  0  0  0  0  0  0
   50.5990   30.2510   36.3540 H   0  0  0  0  0  0  0  0  0  0  0  0
   48.9450   30.2570   41.5670 C   0  0  0  0  0  0  0  0  0  0  0  0
   47.7580   30.2650   42.2650 C   0  0  0  0  0  0  0  0  0  0  0  0
   46.7270   30.9680   41.6750 C   0  0  0  0  0  0  0  0  0  0  0  0
   46.9570   31.5860   40.4760 N   0  0  0  0  0  0  0  0  0  0  0  0
   48.1450   31.5440   39.8370 C   0  0  0  0  0  0  0  0  0  0  0  0
   49.1190   30.8830   40.3890 N   0  0  0  0  0  0  0  0  0  0  0  0
   49.8090   29.7160   41.9790 H   0  0  0  0  0  0  0  0  0  0  0  0
   47.6410   29.7540   43.2120 H   0  0  0  0  0  0  0  0  0  0  0  0
   45.3980   31.0090   42.3840 C   0  0  0  0  0  0  0  0  0  0  0  0
   44.9600   32.4050   42.5850 C   0  0  0  0  0  0  0  0  0  0  0  0
   45.2110   33.0830   43.6680 C   0  0  0  0  0  0  0  0  0  0  0  0
   44.7880   34.4250   43.8440 N   0  0  0  0  0  0  0  0  0  0  0  0
   44.6870   35.6100   44.6350 C   0  0  1  0  0  0  0  0  0  0  0  0
   44.4930   35.7690   45.8750 O   0  0  0  0  0  0  0  0  0  0  0  0
   44.9120   36.3590   43.3440 C   0  0  0  0  0  0  0  0  0  0  0  0
   45.9540   36.2310   42.9550 H   0  0  0  0  0  0  0  0  0  0  0  0
   44.0760   35.2190   42.8590 C   0  0  1  0  0  0  0  0  0  0  0  0
   44.5670   34.6570   41.1930 S   0  0  0  0  0  0  0  0  0  0  0  0
   44.2240   32.8640   41.4130 C   0  0  0  0  0  0  0  0  0  0  0  0
   43.1150   32.7580   41.5190 H   0  0  0  0  0  0  0  0  0  0  0  0
   45.9630   32.5470   44.8280 C   0  0  0  0  0  0  0  0  0  0  0  0
   47.1620   32.4360   45.1660 O   0  0  0  0  0  0  0  0  0  0  0  0
   45.3860   31.9760   45.9370 O   0  0  0  0  0  0  0  0  0  0  0  0
   45.6640   31.1370   46.4280 H   0  0  0  0  0  0  0  0  0  0  0  0
  1 32  1  0  0  0  0
  2  1  1  0  0  0  0
  2  7  1  0  0  0  0
  3  2  2  0  0  0  0
  4  5  2  0  0  0  0
  4  3  1  0  0  0  0
  5  6  1  0  0  0  0
  6  1  2  0  0  0  0
  8  3  1  0  0  0  0
  9  4  1  0  0  0  0
 10 16  1  1  0  0  0
 10  5  1  0  0  0  0
 11 18  1  0  0  0  0
 11 10  1  0  0  0  0
 12 19  1  0  0  0  0
 12 11  1  0  0  0  0
 13 14  1  0  0  0  0
 13 12  1  0  0  0  0
 14 15  1  0  0  0  0
 15 25  1  6  0  0  0
 15 10  1  0  0  0  0
 15 26  1  0  0  0  0
 17 11  1  0  0  0  0
 20 12  1  0  0  0  0
 21 13  1  0  0  0  0
 22 13  1  0  0  0  0
 23 14  1  0  0  0  0
 24 14  1  0  0  0  0
 26 27  1  0  0  0  0
 28 34  1  0  0  0  0
 28 29  1  0  0  0  0
 29 35  1  0  0  0  0
 30 29  2  0  0  0  0
 30 36  1  0  0  0  0
 31 30  1  0  0  0  0
 32 33  1  0  0  0  0
 32 31  2  0  0  0  0
 33 28  2  0  0  0  0
 36 37  1  0  0  0  0
 37 38  2  0  0  0  0
 38 39  1  0  0  0  0
 38 48  1  0  0  0  0
 39 40  1  0  0  0  0
 40 41  1  1  0  0  0
 42 40  1  0  0  0  0
 43 42  1  0  0  0  0
 44 45  1  6  0  0  0
 44 42  1  0  0  0  0
 44 39  1  0  0  0  0
 44 40  1  0  0  0  0
 45 46  1  0  0  0  0
 46 47  1  0  0  0  0
 46 37  1  0  0  0  0
 48 49  2  0  0  0  0
 48 50  1  0  0  0  0
 50 51  1  0  0  0  0
M  END
>  <minimizedAffinity>
-5.77997112

>  <minimizedRMSD>
5.64935684

$$$$
