
 OpenBabel03242513263D

 37 40  0  0  1  0  0  0  0  0999 V2000
   46.0620   33.8900   41.2230 C   0  0  0  0  0  0  0  0  0  0  0  0
   46.6270   34.6790   42.1840 C   0  0  0  0  0  0  0  0  0  0  0  0
   47.8250   35.2790   41.8800 C   0  0  0  0  0  0  0  0  0  0  0  0
   48.4400   35.0950   40.6530 C   0  0  0  0  0  0  0  0  0  0  0  0
   47.8630   34.3090   39.7150 C   0  0  0  0  0  0  0  0  0  0  0  0
   46.6410   33.6730   39.9720 C   0  0  0  0  0  0  0  0  0  0  0  0
   48.2960   35.9120   42.6220 H   0  0  0  0  0  0  0  0  0  0  0  0
   49.3870   35.5640   40.3990 H   0  0  0  0  0  0  0  0  0  0  0  0
   48.3300   34.1550   38.7530 H   0  0  0  0  0  0  0  0  0  0  0  0
   44.4480   36.0390   44.9520 C   0  0  0  0  0  0  0  0  0  0  0  0
   45.1020   35.9220   43.7130 C   0  0  0  0  0  0  0  0  0  0  0  0
   45.9370   34.8340   43.4400 C   0  0  0  0  0  0  0  0  0  0  0  0
   46.0540   33.9370   44.4370 N   0  0  0  0  0  0  0  0  0  0  0  0
   45.4230   34.0530   45.6220 C   0  0  0  0  0  0  0  0  0  0  0  0
   44.6260   35.0900   45.8860 N   0  0  0  0  0  0  0  0  0  0  0  0
   43.8230   36.9140   45.0720 H   0  0  0  0  0  0  0  0  0  0  0  0
   44.9790   36.6700   42.9400 H   0  0  0  0  0  0  0  0  0  0  0  0
   45.6090   33.2550   46.3340 H   0  0  0  0  0  0  0  0  0  0  0  0
   44.8540   33.2620   41.4810 O   0  0  0  0  0  0  0  0  0  0  0  0
   44.9160   32.2580   41.6260 H   0  0  0  0  0  0  0  0  0  0  0  0
   45.9890   32.8570   39.0670 O   0  0  0  0  0  0  0  0  0  0  0  0
   46.6480   32.6870   37.7980 C   0  0  0  0  0  2  0  0  0  0  0  0
   47.4230   31.4460   37.7560 C   0  0  0  0  0  0  0  0  0  0  0  0
   48.6950   31.3510   37.5030 C   0  0  0  0  0  0  0  0  0  0  0  0
   49.3020   30.0700   37.4930 N   0  0  0  0  0  0  0  0  0  0  0  0
   50.4530   29.2970   37.8360 C   0  0  0  0  0  0  0  0  0  0  0  0
   51.6310   29.4680   38.3040 O   0  0  0  0  0  0  0  0  0  0  0  0
   49.7840   28.0410   37.4280 C   0  0  0  0  0  3  0  0  0  0  0  0
   49.5570   27.3400   38.2580 H   0  0  0  0  0  0  0  0  0  0  0  0
   48.6450   28.8730   36.9410 C   0  0  1  0  0  3  0  0  0  0  0  0
   47.1160   28.7090   37.9250 S   0  0  0  0  0  0  0  0  0  0  0  0
   46.4360   30.3840   38.0670 C   0  0  0  0  0  3  0  0  0  0  0  0
   45.5640   30.4000   37.3440 H   0  0  0  0  0  0  0  0  0  0  0  0
   49.5350   32.5080   37.2210 C   0  0  0  0  0  0  0  0  0  0  0  0
   49.4010   33.6470   36.7140 O   0  0  0  0  0  0  0  0  0  0  0  0
   50.8780   32.5720   37.5140 O   0  0  0  0  0  0  0  0  0  0  0  0
   51.3700   33.3090   38.0010 H   0  0  0  0  0  0  0  0  0  0  0  0
  1 19  1  0  0  0  0
  1  2  1  0  0  0  0
  2 12  1  0  0  0  0
  3  2  2  0  0  0  0
  3  7  1  0  0  0  0
  4  3  1  0  0  0  0
  5  6  1  0  0  0  0
  5  4  2  0  0  0  0
  6  1  2  0  0  0  0
  8  4  1  0  0  0  0
  9  5  1  0  0  0  0
 10 16  1  0  0  0  0
 10 15  1  0  0  0  0
 11 10  2  0  0  0  0
 12 11  1  0  0  0  0
 12 13  2  0  0  0  0
 13 14  1  0  0  0  0
 14 15  2  0  0  0  0
 14 18  1  0  0  0  0
 17 11  1  0  0  0  0
 19 20  1  0  0  0  0
 21  6  1  0  0  0  0
 22 21  1  0  0  0  0
 23 22  1  0  0  0  0
 23 32  1  0  0  0  0
 24 23  2  0  0  0  0
 25 24  1  0  0  0  0
 25 26  1  0  0  0  0
 26 27  2  0  0  0  0
 28 26  1  0  0  0  0
 28 29  1  0  0  0  0
 30 28  1  1  0  0  0
 30 25  1  0  0  0  0
 30 31  1  0  0  0  0
 31 32  1  0  0  0  0
 33 32  1  0  0  0  0
 34 24  1  0  0  0  0
 34 36  1  0  0  0  0
 35 34  2  0  0  0  0
 36 37  1  0  0  0  0
M  END
>  <minimizedAffinity>
-5.44764614

>  <minimizedRMSD>
0.664144218

$$$$
