
 OpenBabel03252503103D

 34 38  0  0  1  0  0  0  0  0999 V2000
   36.2060   29.1800   40.3080 C   0  0  2  0  0  3  0  0  0  0  0  0
   34.9470   29.0950   40.5650 O   0  0  0  0  0  1  0  0  0  0  0  0
   39.0700   25.3990   42.7290 C   0  0  0  0  0  0  0  0  0  0  0  0
   38.2150   25.1590   41.7770 C   0  0  0  0  0  0  0  0  0  0  0  0
   37.4520   26.1640   41.1210 N   0  0  0  0  0  0  0  0  0  0  0  0
   36.8050   26.7540   39.9970 C   0  0  2  0  0  0  0  0  0  0  0  0
   36.1920   26.2340   39.0310 O   0  0  0  0  0  1  0  0  0  0  0  0
   37.2000   28.0540   40.5310 C   0  0  2  0  0  3  0  0  0  0  0  0
   36.9700   27.3210   41.8390 C   0  0  2  0  0  0  0  0  0  0  0  0
   38.0630   27.9200   43.1050 S   0  0  0  0  0  0  0  0  0  0  0  0
   39.3800   26.7200   43.2640 C   0  0  0  0  0  3  0  0  0  0  0  0
   39.5950   26.5990   44.3570 H   0  0  0  0  0  0  0  0  0  0  0  0
   39.7240   24.1830   43.2390 C   0  0  0  0  0  2  0  0  0  0  0  0
   40.6740   24.4850   43.7700 H   0  0  0  0  0  0  0  0  0  0  0  0
   38.0190   23.7770   41.3550 C   0  0  0  0  0  0  0  0  0  0  0  0
   36.9810   23.3430   40.7460 O   0  0  0  0  0  0  0  0  0  0  0  0
   38.0580   22.4420   41.0570 O   0  0  0  0  0  0  0  0  0  0  0  0
   38.8470   21.8450   41.3430 H   0  0  0  0  0  0  0  0  0  0  0  0
   36.8430   31.5120   40.6760 C   0  0  0  0  0  0  0  0  0  0  0  0
   36.5980   30.4370   39.8000 C   0  0  0  0  0  0  0  0  0  0  0  0
   36.8010   30.7370   38.4500 C   0  0  0  0  0  0  0  0  0  0  0  0
   37.2000   31.9510   38.0320 N   0  0  0  0  0  0  0  0  0  0  0  0
   37.4230   32.9530   38.9260 C   0  0  0  0  0  0  0  0  0  0  0  0
   37.2430   32.7260   40.2450 N   0  0  0  0  0  0  0  0  0  0  0  0
   36.6950   31.3210   41.7360 H   0  0  0  0  0  0  0  0  0  0  0  0
   37.7410   33.9070   38.5360 H   0  0  0  0  0  0  0  0  0  0  0  0
   36.5720   29.7360   37.5120 C   0  0  0  0  0  0  0  0  0  0  0  0
   35.4620   29.2240   36.8820 C   0  0  0  0  0  0  0  0  0  0  0  0
   35.4740   28.2470   36.0110 C   0  0  0  0  0  0  0  0  0  0  0  0
   36.7160   27.7180   35.7280 C   0  0  0  0  0  0  0  0  0  0  0  0
   37.8470   28.7300   36.8060 S   0  0  0  0  0  0  0  0  0  0  0  0
   34.4390   29.5570   36.9710 H   0  0  0  0  0  0  0  0  0  0  0  0
   34.8070   27.6790   35.4010 H   0  0  0  0  0  0  0  0  0  0  0  0
   37.2340   26.9740   35.1420 H   0  0  0  0  0  0  0  0  0  0  0  0
  1  2  1  1  0  0  0
  3 13  1  0  0  0  0
  3 11  1  0  0  0  0
  4  3  2  0  0  0  0
  5  4  1  0  0  0  0
  5  9  1  0  0  0  0
  6  7  1  6  0  0  0
  6  8  1  0  0  0  0
  6  5  1  0  0  0  0
  6  9  1  0  0  0  0
  8  1  1  6  0  0  0
  8  9  1  0  0  0  0
  9 10  1  1  0  0  0
 10 11  1  0  0  0  0
 11 12  1  0  0  0  0
 13 14  1  0  0  0  0
 15  4  1  0  0  0  0
 16 15  2  0  0  0  0
 17 18  1  0  0  0  0
 17 15  1  0  0  0  0
 19 25  1  0  0  0  0
 20  1  1  0  0  0  0
 20 19  2  0  0  0  0
 21 20  1  0  0  0  0
 22 21  2  0  0  0  0
 22 23  1  0  0  0  0
 23 24  2  0  0  0  0
 24 19  1  0  0  0  0
 26 23  1  0  0  0  0
 27 21  1  0  0  0  0
 28 32  1  0  0  0  0
 28 27  2  0  0  0  0
 29 28  1  0  0  0  0
 30 29  2  0  0  0  0
 30 31  1  0  0  0  0
 31 27  1  0  0  0  0
 33 29  1  0  0  0  0
 34 30  1  0  0  0  0
M  END
>  <minimizedAffinity>
-5.9222641

$$$$

 OpenBabel03252503103D

 34 38  0  0  1  0  0  0  0  0999 V2000
   37.3620   26.5630   41.8650 C   0  0  2  0  0  3  0  0  0  0  0  0
   36.8150   26.6040   43.0290 O   0  0  0  0  0  1  0  0  0  0  0  0
   37.1540   31.2530   39.3500 C   0  0  0  0  0  0  0  0  0  0  0  0
   37.8800   31.0320   40.4080 C   0  0  0  0  0  0  0  0  0  0  0  0
   37.9470   29.7810   41.0800 N   0  0  0  0  0  0  0  0  0  0  0  0
   38.6060   28.7510   41.8130 C   0  0  2  0  0  0  0  0  0  0  0  0
   39.5020   28.8100   42.6930 O   0  0  0  0  0  1  0  0  0  0  0  0
   37.7880   27.7900   41.0800 C   0  0  2  0  0  3  0  0  0  0  0  0
   36.7860   28.9260   41.1800 C   0  0  2  0  0  0  0  0  0  0  0  0
   35.7150   28.9570   39.7630 S   0  0  0  0  0  0  0  0  0  0  0  0
   36.3060   30.2630   38.6940 C   0  0  0  0  0  3  0  0  0  0  0  0
   35.4090   30.8020   38.2930 H   0  0  0  0  0  0  0  0  0  0  0  0
   37.2620   32.6330   38.8510 C   0  0  0  0  0  2  0  0  0  0  0  0
   36.9210   32.6520   37.7760 H   0  0  0  0  0  0  0  0  0  0  0  0
   38.6760   32.1310   40.9430 C   0  0  0  0  0  0  0  0  0  0  0  0
   39.9540   32.1470   40.9900 O   0  0  0  0  0  0  0  0  0  0  0  0
   39.2040   33.2700   41.4880 O   0  0  0  0  0  0  0  0  0  0  0  0
   38.6050   34.0210   41.8600 H   0  0  0  0  0  0  0  0  0  0  0  0
   36.4560   24.5950   40.7310 C   0  0  0  0  0  0  0  0  0  0  0  0
   37.5280   25.2550   41.3610 C   0  0  0  0  0  0  0  0  0  0  0  0
   38.7150   24.5160   41.4030 C   0  0  0  0  0  0  0  0  0  0  0  0
   38.8150   23.2820   40.8810 N   0  0  0  0  0  0  0  0  0  0  0  0
   37.7430   22.6930   40.2820 C   0  0  0  0  0  0  0  0  0  0  0  0
   36.5680   23.3550   40.2110 N   0  0  0  0  0  0  0  0  0  0  0  0
   35.5140   25.1360   40.6780 H   0  0  0  0  0  0  0  0  0  0  0  0
   37.8790   21.7010   39.8810 H   0  0  0  0  0  0  0  0  0  0  0  0
   39.8240   25.0870   42.0170 C   0  0  0  0  0  0  0  0  0  0  0  0
   40.2170   25.3040   43.3170 C   0  0  0  0  0  0  0  0  0  0  0  0
   41.3340   25.8820   43.6800 C   0  0  0  0  0  0  0  0  0  0  0  0
   42.1540   26.2910   42.6480 C   0  0  0  0  0  0  0  0  0  0  0  0
   41.1960   25.7800   41.1370 S   0  0  0  0  0  0  0  0  0  0  0  0
   39.7060   25.0080   44.2200 H   0  0  0  0  0  0  0  0  0  0  0  0
   41.8670   26.1660   44.5600 H   0  0  0  0  0  0  0  0  0  0  0  0
   43.0930   26.7710   42.4180 H   0  0  0  0  0  0  0  0  0  0  0  0
  1  2  1  6  0  0  0
  3  4  2  0  0  0  0
  4 15  1  0  0  0  0
  4  5  1  0  0  0  0
  5  9  1  0  0  0  0
  5  6  1  0  0  0  0
  6  7  1  1  0  0  0
  8  9  1  0  0  0  0
  8  6  1  0  0  0  0
  8  1  1  1  0  0  0
  9 10  1  1  0  0  0
  9  6  1  0  0  0  0
 11  3  1  0  0  0  0
 11 10  1  0  0  0  0
 12 11  1  0  0  0  0
 13  3  1  0  0  0  0
 14 13  1  0  0  0  0
 15 16  2  0  0  0  0
 15 17  1  0  0  0  0
 17 18  1  0  0  0  0
 19 20  1  0  0  0  0
 20 21  2  0  0  0  0
 20  1  1  0  0  0  0
 21 27  1  0  0  0  0
 22 21  1  0  0  0  0
 23 22  2  0  0  0  0
 24 23  1  0  0  0  0
 24 19  2  0  0  0  0
 25 19  1  0  0  0  0
 26 23  1  0  0  0  0
 27 28  2  0  0  0  0
 28 29  1  0  0  0  0
 28 32  1  0  0  0  0
 29 33  1  0  0  0  0
 30 29  2  0  0  0  0
 31 27  1  0  0  0  0
 31 30  1  0  0  0  0
 34 30  1  0  0  0  0
M  END
>  <minimizedAffinity>
-5.74069357

$$$$

 OpenBabel03252503103D

 34 38  0  0  1  0  0  0  0  0999 V2000
   37.5630   30.7430   40.3850 C   0  0  2  0  0  3  0  0  0  0  0  0
   36.6340   31.4700   40.9000 O   0  0  0  0  0  1  0  0  0  0  0  0
   35.2160   28.0900   36.4080 C   0  0  0  0  0  0  0  0  0  0  0  0
   36.1300   29.0000   36.2290 C   0  0  0  0  0  0  0  0  0  0  0  0
   36.7670   29.7070   37.2860 N   0  0  0  0  0  0  0  0  0  0  0  0
   37.8710   30.3500   37.9170 C   0  0  2  0  0  0  0  0  0  0  0  0
   38.8060   31.0410   37.4390 O   0  0  0  0  0  1  0  0  0  0  0  0
   37.3680   29.8330   39.1860 C   0  0  2  0  0  3  0  0  0  0  0  0
   36.0430   30.0670   38.4840 C   0  0  2  0  0  0  0  0  0  0  0  0
   34.8290   28.8790   39.0040 S   0  0  0  0  0  0  0  0  0  0  0  0
   34.7090   27.6550   37.7050 C   0  0  0  0  0  3  0  0  0  0  0  0
   33.6240   27.4060   37.5760 H   0  0  0  0  0  0  0  0  0  0  0  0
   34.7190   27.5140   35.1490 C   0  0  0  0  0  2  0  0  0  0  0  0
   34.2300   26.5230   35.3780 H   0  0  0  0  0  0  0  0  0  0  0  0
   36.5290   29.3210   34.8640 C   0  0  0  0  0  0  0  0  0  0  0  0
   36.4040   30.4730   34.3220 O   0  0  0  0  0  0  0  0  0  0  0  0
   36.9730   29.3870   33.5710 O   0  0  0  0  0  0  0  0  0  0  0  0
   37.3360   28.5570   33.0790 H   0  0  0  0  0  0  0  0  0  0  0  0
   39.6860   31.9080   40.7340 C   0  0  0  0  0  0  0  0  0  0  0  0
   38.8050   30.8550   41.0470 C   0  0  0  0  0  0  0  0  0  0  0  0
   39.2660   29.9980   42.0510 C   0  0  0  0  0  0  0  0  0  0  0  0
   40.4500   30.1740   42.6620 N   0  0  0  0  0  0  0  0  0  0  0  0
   41.2610   31.2130   42.3170 C   0  0  0  0  0  0  0  0  0  0  0  0
   40.8720   32.0740   41.3530 N   0  0  0  0  0  0  0  0  0  0  0  0
   39.3640   32.5960   39.9560 H   0  0  0  0  0  0  0  0  0  0  0  0
   42.2000   31.3070   42.8400 H   0  0  0  0  0  0  0  0  0  0  0  0
   38.4650   28.9230   42.4190 C   0  0  0  0  0  0  0  0  0  0  0  0
   37.4590   28.7230   43.3350 C   0  0  0  0  0  0  0  0  0  0  0  0
   36.8260   27.5930   43.5240 C   0  0  0  0  0  0  0  0  0  0  0  0
   37.2250   26.5460   42.7190 C   0  0  0  0  0  0  0  0  0  0  0  0
   38.5700   27.3140   41.6860 S   0  0  0  0  0  0  0  0  0  0  0  0
   37.0170   29.4490   44.0000 H   0  0  0  0  0  0  0  0  0  0  0  0
   36.0520   27.1730   44.1270 H   0  0  0  0  0  0  0  0  0  0  0  0
   37.0490   25.5060   42.4890 H   0  0  0  0  0  0  0  0  0  0  0  0
  1  2  1  1  0  0  0
  1 20  1  0  0  0  0
  3 11  1  0  0  0  0
  4  3  2  0  0  0  0
  4  5  1  0  0  0  0
  5  6  1  0  0  0  0
  5  9  1  0  0  0  0
  6  7  1  6  0  0  0
  6  9  1  0  0  0  0
  6  8  1  0  0  0  0
  8  1  1  1  0  0  0
  9 10  1  1  0  0  0
  9  8  1  0  0  0  0
 11 10  1  0  0  0  0
 12 11  1  0  0  0  0
 13 14  1  0  0  0  0
 13  3  1  0  0  0  0
 15  4  1  0  0  0  0
 16 15  2  0  0  0  0
 17 15  1  0  0  0  0
 18 17  1  0  0  0  0
 19 20  2  0  0  0  0
 19 24  1  0  0  0  0
 20 21  1  0  0  0  0
 21 27  1  0  0  0  0
 21 22  2  0  0  0  0
 23 22  1  0  0  0  0
 23 26  1  0  0  0  0
 24 23  2  0  0  0  0
 25 19  1  0  0  0  0
 27 28  2  0  0  0  0
 28 29  1  0  0  0  0
 28 32  1  0  0  0  0
 29 33  1  0  0  0  0
 30 29  2  0  0  0  0
 31 27  1  0  0  0  0
 31 30  1  0  0  0  0
 34 30  1  0  0  0  0
M  END
>  <minimizedAffinity>
-5.61492825

$$$$

 OpenBabel03252503103D

 34 38  0  0  1  0  0  0  0  0999 V2000
   36.6850   29.6010   40.9300 C   0  0  2  0  0  3  0  0  0  0  0  0
   36.1990   30.5270   41.6810 O   0  0  0  0  0  1  0  0  0  0  0  0
   37.4030   24.3360   40.5780 C   0  0  0  0  0  0  0  0  0  0  0  0
   37.9770   25.0850   41.4750 C   0  0  0  0  0  0  0  0  0  0  0  0
   37.7840   26.4900   41.5800 N   0  0  0  0  0  0  0  0  0  0  0  0
   37.6500   27.7170   42.2930 C   0  0  2  0  0  0  0  0  0  0  0  0
   38.2100   28.1270   43.3410 O   0  0  0  0  0  1  0  0  0  0  0  0
   36.6770   28.1250   41.2840 C   0  0  2  0  0  3  0  0  0  0  0  0
   37.6030   27.3070   40.4020 C   0  0  2  0  0  0  0  0  0  0  0  0
   36.7010   26.5260   39.0860 S   0  0  0  0  0  0  0  0  0  0  0  0
   36.4810   24.8130   39.5530 C   0  0  0  0  0  3  0  0  0  0  0  0
   36.6450   24.1900   38.6360 H   0  0  0  0  0  0  0  0  0  0  0  0
   37.7740   22.9160   40.6870 C   0  0  0  0  0  2  0  0  0  0  0  0
   36.9950   22.3010   40.1490 H   0  0  0  0  0  0  0  0  0  0  0  0
   38.8760   24.4520   42.4330 C   0  0  0  0  0  0  0  0  0  0  0  0
   39.8890   25.0230   42.9660 O   0  0  0  0  0  0  0  0  0  0  0  0
   39.5740   23.6610   43.3050 O   0  0  0  0  0  0  0  0  0  0  0  0
   39.3140   22.6780   43.4730 H   0  0  0  0  0  0  0  0  0  0  0  0
   36.4690   30.1470   38.5560 C   0  0  0  0  0  0  0  0  0  0  0  0
   37.2470   30.0810   39.7270 C   0  0  0  0  0  0  0  0  0  0  0  0
   38.5570   30.5440   39.5750 C   0  0  0  0  0  0  0  0  0  0  0  0
   39.0250   31.0140   38.4060 N   0  0  0  0  0  0  0  0  0  0  0  0
   38.2250   31.0540   37.3050 C   0  0  0  0  0  0  0  0  0  0  0  0
   36.9490   30.6190   37.3880 N   0  0  0  0  0  0  0  0  0  0  0  0
   35.4430   29.7940   38.6320 H   0  0  0  0  0  0  0  0  0  0  0  0
   38.6520   31.4410   36.3930 H   0  0  0  0  0  0  0  0  0  0  0  0
   39.4010   30.5070   40.6800 C   0  0  0  0  0  0  0  0  0  0  0  0
   39.5410   31.2510   41.8270 C   0  0  0  0  0  0  0  0  0  0  0  0
   40.4340   31.0370   42.7600 C   0  0  0  0  0  0  0  0  0  0  0  0
   41.2820   29.9710   42.5380 C   0  0  0  0  0  0  0  0  0  0  0  0
   40.6920   29.3140   40.8990 S   0  0  0  0  0  0  0  0  0  0  0  0
   38.9350   32.0820   42.1540 H   0  0  0  0  0  0  0  0  0  0  0  0
   40.7550   31.4300   43.6990 H   0  0  0  0  0  0  0  0  0  0  0  0
   42.1110   29.4170   42.9490 H   0  0  0  0  0  0  0  0  0  0  0  0
  1  2  1  1  0  0  0
  3 13  1  0  0  0  0
  3  4  2  0  0  0  0
  4  5  1  0  0  0  0
  4 15  1  0  0  0  0
  5  6  1  0  0  0  0
  6  7  1  1  0  0  0
  8  1  1  6  0  0  0
  8  6  1  0  0  0  0
  9 10  1  6  0  0  0
  9  8  1  0  0  0  0
  9  5  1  0  0  0  0
  9  6  1  0  0  0  0
 10 11  1  0  0  0  0
 11  3  1  0  0  0  0
 12 11  1  0  0  0  0
 14 13  1  0  0  0  0
 15 16  2  0  0  0  0
 15 17  1  0  0  0  0
 17 18  1  0  0  0  0
 19 25  1  0  0  0  0
 19 20  1  0  0  0  0
 20  1  1  0  0  0  0
 21 20  2  0  0  0  0
 21 27  1  0  0  0  0
 22 21  1  0  0  0  0
 23 24  1  0  0  0  0
 23 22  2  0  0  0  0
 24 19  2  0  0  0  0
 26 23  1  0  0  0  0
 27 31  1  0  0  0  0
 27 28  2  0  0  0  0
 28 32  1  0  0  0  0
 28 29  1  0  0  0  0
 29 33  1  0  0  0  0
 30 29  2  0  0  0  0
 30 34  1  0  0  0  0
 31 30  1  0  0  0  0
M  END
>  <minimizedAffinity>
-5.57822323

$$$$

 OpenBabel03252503103D

 34 38  0  0  1  0  0  0  0  0999 V2000
   40.0010   30.0780   39.8350 C   0  0  2  0  0  3  0  0  0  0  0  0
   40.2800   29.8240   38.6040 O   0  0  0  0  0  1  0  0  0  0  0  0
   39.5070   25.4550   42.4330 C   0  0  0  0  0  0  0  0  0  0  0  0
   40.6450   26.0590   42.2420 C   0  0  0  0  0  0  0  0  0  0  0  0
   40.7840   27.2970   41.5560 N   0  0  0  0  0  0  0  0  0  0  0  0
   41.3690   28.5750   41.3210 C   0  0  2  0  0  0  0  0  0  0  0  0
   42.5560   28.9720   41.4350 O   0  0  0  0  0  1  0  0  0  0  0  0
   40.0390   29.0460   40.9480 C   0  0  2  0  0  3  0  0  0  0  0  0
   39.9390   27.6230   40.4300 C   0  0  2  0  0  0  0  0  0  0  0  0
   38.2740   27.0180   40.5490 S   0  0  0  0  0  0  0  0  0  0  0  0
   38.2100   25.9490   41.9820 C   0  0  0  0  0  3  0  0  0  0  0  0
   37.5870   25.0580   41.7100 H   0  0  0  0  0  0  0  0  0  0  0  0
   39.6400   24.1880   43.1690 C   0  0  0  0  0  2  0  0  0  0  0  0
   38.6340   23.9210   43.6040 H   0  0  0  0  0  0  0  0  0  0  0  0
   41.8560   25.4310   42.7570 C   0  0  0  0  0  0  0  0  0  0  0  0
   43.0040   25.4980   42.1970 O   0  0  0  0  0  0  0  0  0  0  0  0
   42.8470   24.7640   43.4240 O   0  0  0  0  0  0  0  0  0  0  0  0
   42.6570   24.2250   44.2820 H   0  0  0  0  0  0  0  0  0  0  0  0
   40.6280   32.3890   40.3350 C   0  0  0  0  0  0  0  0  0  0  0  0
   39.6390   31.4220   40.0700 C   0  0  0  0  0  0  0  0  0  0  0  0
   38.3350   31.9250   40.0430 C   0  0  0  0  0  0  0  0  0  0  0  0
   38.0580   33.2240   40.2500 N   0  0  0  0  0  0  0  0  0  0  0  0
   39.0580   34.1150   40.5020 C   0  0  0  0  0  0  0  0  0  0  0  0
   40.3390   33.6890   40.5420 N   0  0  0  0  0  0  0  0  0  0  0  0
   41.6570   32.0370   40.3660 H   0  0  0  0  0  0  0  0  0  0  0  0
   38.7790   35.1440   40.6610 H   0  0  0  0  0  0  0  0  0  0  0  0
   37.2920   31.0390   39.7980 C   0  0  0  0  0  0  0  0  0  0  0  0
   36.7400   30.4670   38.6760 C   0  0  0  0  0  0  0  0  0  0  0  0
   35.7270   29.6380   38.6740 C   0  0  0  0  0  0  0  0  0  0  0  0
   35.2020   29.3370   39.9140 C   0  0  0  0  0  0  0  0  0  0  0  0
   36.2730   30.3350   41.0640 S   0  0  0  0  0  0  0  0  0  0  0  0
   37.0640   30.5740   37.6520 H   0  0  0  0  0  0  0  0  0  0  0  0
   35.1260   29.0740   37.9960 H   0  0  0  0  0  0  0  0  0  0  0  0
   34.4400   28.7680   40.4230 H   0  0  0  0  0  0  0  0  0  0  0  0
  1  2  1  6  0  0  0
  1 20  1  0  0  0  0
  3 13  1  0  0  0  0
  4  3  2  0  0  0  0
  4 15  1  0  0  0  0
  5  4  1  0  0  0  0
  6  7  1  6  0  0  0
  6  5  1  0  0  0  0
  8  1  1  6  0  0  0
  8  6  1  0  0  0  0
  9 10  1  6  0  0  0
  9  8  1  0  0  0  0
  9  6  1  0  0  0  0
  9  5  1  0  0  0  0
 10 11  1  0  0  0  0
 11  3  1  0  0  0  0
 12 11  1  0  0  0  0
 13 14  1  0  0  0  0
 15 17  1  0  0  0  0
 16 15  2  0  0  0  0
 17 18  1  0  0  0  0
 19 25  1  0  0  0  0
 19 24  1  0  0  0  0
 20 19  2  0  0  0  0
 21 20  1  0  0  0  0
 21 22  2  0  0  0  0
 22 23  1  0  0  0  0
 23 24  2  0  0  0  0
 23 26  1  0  0  0  0
 27 21  1  0  0  0  0
 27 31  1  0  0  0  0
 28 27  2  0  0  0  0
 29 28  1  0  0  0  0
 29 30  2  0  0  0  0
 30 34  1  0  0  0  0
 30 31  1  0  0  0  0
 32 28  1  0  0  0  0
 33 29  1  0  0  0  0
M  END
>  <minimizedAffinity>
-5.57540321

$$$$

 OpenBabel03252503103D

 34 38  0  0  1  0  0  0  0  0999 V2000
   37.4790   30.8940   41.1250 C   0  0  2  0  0  3  0  0  0  0  0  0
   36.2290   31.1970   41.1830 O   0  0  0  0  0  1  0  0  0  0  0  0
   42.3190   32.9200   40.2120 C   0  0  0  0  0  0  0  0  0  0  0  0
   41.4030   32.7940   39.2950 C   0  0  0  0  0  0  0  0  0  0  0  0
   40.1060   32.2620   39.5320 N   0  0  0  0  0  0  0  0  0  0  0  0
   38.6970   32.1790   39.3350 C   0  0  2  0  0  0  0  0  0  0  0  0
   37.9990   32.3310   38.3010 O   0  0  0  0  0  1  0  0  0  0  0  0
   38.5780   31.8740   40.7580 C   0  0  2  0  0  3  0  0  0  0  0  0
   39.9030   31.1890   40.4790 C   0  0  2  0  0  0  0  0  0  0  0  0
   40.9610   31.2460   41.9050 S   0  0  0  0  0  0  0  0  0  0  0  0
   42.1600   32.5400   41.6120 C   0  0  0  0  0  3  0  0  0  0  0  0
   43.1530   32.1680   41.9740 H   0  0  0  0  0  0  0  0  0  0  0  0
   43.5730   33.4970   39.7020 C   0  0  0  0  0  2  0  0  0  0  0  0
   44.1590   33.9040   40.5770 H   0  0  0  0  0  0  0  0  0  0  0  0
   41.7200   33.2230   37.9370 C   0  0  0  0  0  0  0  0  0  0  0  0
   41.5490   32.5070   36.8910 O   0  0  0  0  0  0  0  0  0  0  0  0
   42.0890   33.8350   36.7700 O   0  0  0  0  0  0  0  0  0  0  0  0
   42.5050   34.7770   36.7600 H   0  0  0  0  0  0  0  0  0  0  0  0
   38.0870   29.1610   42.7400 C   0  0  0  0  0  0  0  0  0  0  0  0
   37.7500   29.5410   41.4270 C   0  0  0  0  0  0  0  0  0  0  0  0
   37.6930   28.4820   40.5170 C   0  0  0  0  0  0  0  0  0  0  0  0
   37.9380   27.2090   40.8750 N   0  0  0  0  0  0  0  0  0  0  0  0
   38.2590   26.9000   42.1620 C   0  0  0  0  0  0  0  0  0  0  0  0
   38.3310   27.8810   43.0880 N   0  0  0  0  0  0  0  0  0  0  0  0
   38.1430   29.9560   43.4790 H   0  0  0  0  0  0  0  0  0  0  0  0
   38.4450   25.8640   42.3930 H   0  0  0  0  0  0  0  0  0  0  0  0
   37.3770   28.7670   39.1940 C   0  0  0  0  0  0  0  0  0  0  0  0
   36.2330   29.1190   38.5170 C   0  0  0  0  0  0  0  0  0  0  0  0
   36.1570   29.3420   37.2290 C   0  0  0  0  0  0  0  0  0  0  0  0
   37.3400   29.2050   36.5320 C   0  0  0  0  0  0  0  0  0  0  0  0
   38.5490   28.7350   37.8670 S   0  0  0  0  0  0  0  0  0  0  0  0
   35.2510   29.3000   38.9280 H   0  0  0  0  0  0  0  0  0  0  0  0
   35.4470   29.6130   36.4810 H   0  0  0  0  0  0  0  0  0  0  0  0
   37.7860   29.2680   35.5520 H   0  0  0  0  0  0  0  0  0  0  0  0
  1  2  1  6  0  0  0
  1 20  1  0  0  0  0
  3 11  1  0  0  0  0
  4  5  1  0  0  0  0
  4  3  2  0  0  0  0
  5  9  1  0  0  0  0
  6  7  1  6  0  0  0
  6  5  1  0  0  0  0
  6  9  1  0  0  0  0
  6  8  1  0  0  0  0
  8  1  1  6  0  0  0
  9  8  1  0  0  0  0
  9 10  1  1  0  0  0
 11 10  1  0  0  0  0
 11 12  1  0  0  0  0
 13  3  1  0  0  0  0
 13 14  1  0  0  0  0
 15  4  1  0  0  0  0
 16 15  2  0  0  0  0
 17 15  1  0  0  0  0
 18 17  1  0  0  0  0
 19 24  1  0  0  0  0
 19 25  1  0  0  0  0
 20 19  2  0  0  0  0
 21 22  2  0  0  0  0
 21 20  1  0  0  0  0
 22 23  1  0  0  0  0
 23 26  1  0  0  0  0
 23 24  2  0  0  0  0
 27 21  1  0  0  0  0
 28 32  1  0  0  0  0
 28 27  2  0  0  0  0
 29 28  1  0  0  0  0
 30 29  2  0  0  0  0
 30 31  1  0  0  0  0
 31 27  1  0  0  0  0
 33 29  1  0  0  0  0
 34 30  1  0  0  0  0
M  END
>  <minimizedAffinity>
-5.57258749

$$$$

 OpenBabel03252503103D

 34 38  0  0  1  0  0  0  0  0999 V2000
   38.7840   28.7110   42.4510 C   0  0  2  0  0  3  0  0  0  0  0  0
   38.1440   29.1900   43.4600 O   0  0  0  0  0  1  0  0  0  0  0  0
   42.0190   30.0350   38.4330 C   0  0  0  0  0  0  0  0  0  0  0  0
   40.8380   30.5540   38.6110 C   0  0  0  0  0  0  0  0  0  0  0  0
   39.9710   30.2110   39.6860 N   0  0  0  0  0  0  0  0  0  0  0  0
   38.9880   30.4880   40.6800 C   0  0  2  0  0  0  0  0  0  0  0  0
   37.9980   31.2620   40.6670 O   0  0  0  0  0  1  0  0  0  0  0  0
   39.6780   29.5310   41.5400 C   0  0  2  0  0  3  0  0  0  0  0  0
   39.9210   28.8620   40.2000 C   0  0  2  0  0  0  0  0  0  0  0  0
   41.4750   28.0030   40.1900 S   0  0  0  0  0  0  0  0  0  0  0  0
   42.6330   29.0340   39.2990 C   0  0  0  0  0  3  0  0  0  0  0  0
   43.2520   28.3630   38.6490 H   0  0  0  0  0  0  0  0  0  0  0  0
   42.7080   30.5610   37.2440 C   0  0  0  0  0  2  0  0  0  0  0  0
   43.8130   30.3590   37.3550 H   0  0  0  0  0  0  0  0  0  0  0  0
   40.3660   31.5470   37.6530 C   0  0  0  0  0  0  0  0  0  0  0  0
   39.1360   31.7770   37.3910 O   0  0  0  0  0  0  0  0  0  0  0  0
   40.1630   32.5250   36.7180 O   0  0  0  0  0  0  0  0  0  0  0  0
   40.9490   32.9960   36.2460 H   0  0  0  0  0  0  0  0  0  0  0  0
   39.3950   26.3840   42.8910 C   0  0  0  0  0  0  0  0  0  0  0  0
   38.5730   27.3290   42.2490 C   0  0  0  0  0  0  0  0  0  0  0  0
   37.5650   26.7720   41.4560 C   0  0  0  0  0  0  0  0  0  0  0  0
   37.4020   25.4440   41.3250 N   0  0  0  0  0  0  0  0  0  0  0  0
   38.2290   24.5760   41.9720 C   0  0  0  0  0  0  0  0  0  0  0  0
   39.2220   25.0540   42.7520 N   0  0  0  0  0  0  0  0  0  0  0  0
   40.1930   26.7770   43.5170 H   0  0  0  0  0  0  0  0  0  0  0  0
   38.0520   23.5220   41.8310 H   0  0  0  0  0  0  0  0  0  0  0  0
   36.7110   27.6330   40.7760 C   0  0  0  0  0  0  0  0  0  0  0  0
   35.7430   28.5380   41.1420 C   0  0  0  0  0  0  0  0  0  0  0  0
   35.0340   29.2610   40.3120 C   0  0  0  0  0  0  0  0  0  0  0  0
   35.3120   29.0710   38.9730 C   0  0  0  0  0  0  0  0  0  0  0  0
   36.6570   27.7850   39.0120 S   0  0  0  0  0  0  0  0  0  0  0  0
   35.4460   28.8200   42.1410 H   0  0  0  0  0  0  0  0  0  0  0  0
   34.2630   29.9970   40.3130 H   0  0  0  0  0  0  0  0  0  0  0  0
   35.0440   29.3810   37.9750 H   0  0  0  0  0  0  0  0  0  0  0  0
  1  2  1  6  0  0  0
  3  4  2  0  0  0  0
  3 11  1  0  0  0  0
  4  5  1  0  0  0  0
  5  9  1  0  0  0  0
  5  6  1  0  0  0  0
  6  7  1  6  0  0  0
  6  8  1  0  0  0  0
  8  1  1  1  0  0  0
  9 10  1  6  0  0  0
  9  6  1  0  0  0  0
  9  8  1  0  0  0  0
 11 10  1  0  0  0  0
 12 11  1  0  0  0  0
 13 14  1  0  0  0  0
 13  3  1  0  0  0  0
 15  4  1  0  0  0  0
 16 15  2  0  0  0  0
 17 15  1  0  0  0  0
 18 17  1  0  0  0  0
 19 25  1  0  0  0  0
 20  1  1  0  0  0  0
 20 19  2  0  0  0  0
 21 20  1  0  0  0  0
 22 21  2  0  0  0  0
 22 23  1  0  0  0  0
 23 24  2  0  0  0  0
 24 19  1  0  0  0  0
 26 23  1  0  0  0  0
 27 28  2  0  0  0  0
 27 21  1  0  0  0  0
 28 32  1  0  0  0  0
 29 33  1  0  0  0  0
 29 28  1  0  0  0  0
 30 31  1  0  0  0  0
 30 29  2  0  0  0  0
 31 27  1  0  0  0  0
 34 30  1  0  0  0  0
M  END
>  <minimizedAffinity>
-5.5199461

$$$$

 OpenBabel03252503103D

 34 38  0  0  1  0  0  0  0  0999 V2000
   38.4550   30.3870   41.0610 C   0  0  2  0  0  3  0  0  0  0  0  0
   37.4310   31.1620   41.1590 O   0  0  0  0  0  1  0  0  0  0  0  0
   42.5870   30.7650   37.7240 C   0  0  0  0  0  0  0  0  0  0  0  0
   41.8160   31.7670   38.0350 C   0  0  0  0  0  0  0  0  0  0  0  0
   40.7150   31.6760   38.9310 N   0  0  0  0  0  0  0  0  0  0  0  0
   39.8410   32.1670   39.9440 C   0  0  2  0  0  0  0  0  0  0  0  0
   39.3940   33.3220   40.1580 O   0  0  0  0  0  1  0  0  0  0  0  0
   39.7890   30.8070   40.4720 C   0  0  2  0  0  3  0  0  0  0  0  0
   39.9030   30.4830   38.9930 C   0  0  2  0  0  0  0  0  0  0  0  0
   40.7890   28.9640   38.7420 S   0  0  0  0  0  0  0  0  0  0  0  0
   42.4480   29.4080   38.2420 C   0  0  0  0  0  3  0  0  0  0  0  0
   42.7540   28.7040   37.4250 H   0  0  0  0  0  0  0  0  0  0  0  0
   43.6510   31.1270   36.7740 C   0  0  0  0  0  2  0  0  0  0  0  0
   44.4650   30.3470   36.8350 H   0  0  0  0  0  0  0  0  0  0  0  0
   42.0900   33.0650   37.4300 C   0  0  0  0  0  0  0  0  0  0  0  0
   42.1980   34.1610   38.0800 O   0  0  0  0  0  0  0  0  0  0  0  0
   42.3490   34.1580   36.6490 O   0  0  0  0  0  0  0  0  0  0  0  0
   42.4080   34.0900   35.6230 H   0  0  0  0  0  0  0  0  0  0  0  0
   38.8550   28.6450   42.7310 C   0  0  0  0  0  0  0  0  0  0  0  0
   38.2270   29.0820   41.5490 C   0  0  0  0  0  0  0  0  0  0  0  0
   37.3810   28.1350   40.9640 C   0  0  0  0  0  0  0  0  0  0  0  0
   37.1870   26.9150   41.4940 N   0  0  0  0  0  0  0  0  0  0  0  0
   37.8220   26.5490   42.6410 C   0  0  0  0  0  0  0  0  0  0  0  0
   38.6540   27.4190   43.2530 N   0  0  0  0  0  0  0  0  0  0  0  0
   39.5230   29.3530   43.2180 H   0  0  0  0  0  0  0  0  0  0  0  0
   37.6300   25.5580   43.0220 H   0  0  0  0  0  0  0  0  0  0  0  0
   36.7260   28.4770   39.7860 C   0  0  0  0  0  0  0  0  0  0  0  0
   37.0540   28.4760   38.4500 C   0  0  0  0  0  0  0  0  0  0  0  0
   36.2620   28.8560   37.4800 C   0  0  0  0  0  0  0  0  0  0  0  0
   35.0080   29.2830   37.8680 C   0  0  0  0  0  0  0  0  0  0  0  0
   35.0670   29.0940   39.7190 S   0  0  0  0  0  0  0  0  0  0  0  0
   37.9720   28.1370   37.9960 H   0  0  0  0  0  0  0  0  0  0  0  0
   36.2500   28.9560   36.4180 H   0  0  0  0  0  0  0  0  0  0  0  0
   34.0660   29.6640   37.5050 H   0  0  0  0  0  0  0  0  0  0  0  0
  1  2  1  6  0  0  0
  1 20  1  0  0  0  0
  3  4  2  0  0  0  0
  3 11  1  0  0  0  0
  4  5  1  0  0  0  0
  5  9  1  0  0  0  0
  5  6  1  0  0  0  0
  6  7  1  1  0  0  0
  6  8  1  0  0  0  0
  8  1  1  6  0  0  0
  9 10  1  6  0  0  0
  9  6  1  0  0  0  0
  9  8  1  0  0  0  0
 11 10  1  0  0  0  0
 12 11  1  0  0  0  0
 13 14  1  0  0  0  0
 13  3  1  0  0  0  0
 15  4  1  0  0  0  0
 15 16  2  0  0  0  0
 17 15  1  0  0  0  0
 18 17  1  0  0  0  0
 19 25  1  0  0  0  0
 19 24  1  0  0  0  0
 20 19  2  0  0  0  0
 21 22  2  0  0  0  0
 21 20  1  0  0  0  0
 22 23  1  0  0  0  0
 23 26  1  0  0  0  0
 23 24  2  0  0  0  0
 27 21  1  0  0  0  0
 28 27  2  0  0  0  0
 29 30  2  0  0  0  0
 29 28  1  0  0  0  0
 30 31  1  0  0  0  0
 31 27  1  0  0  0  0
 32 28  1  0  0  0  0
 33 29  1  0  0  0  0
 34 30  1  0  0  0  0
M  END
>  <minimizedAffinity>
-5.46008635

$$$$

 OpenBabel03252503103D

 34 38  0  0  1  0  0  0  0  0999 V2000
   37.3900   28.1840   42.0210 C   0  0  2  0  0  3  0  0  0  0  0  0
   36.2000   27.8730   42.4030 O   0  0  0  0  0  1  0  0  0  0  0  0
   40.2920   32.1100   39.8930 C   0  0  0  0  0  0  0  0  0  0  0  0
   39.3650   31.4640   39.2460 C   0  0  0  0  0  0  0  0  0  0  0  0
   38.5810   30.4200   39.8090 N   0  0  0  0  0  0  0  0  0  0  0  0
   37.3850   29.6660   39.9860 C   0  0  2  0  0  0  0  0  0  0  0  0
   36.4810   29.3510   39.1710 O   0  0  0  0  0  1  0  0  0  0  0  0
   37.7620   29.5130   41.3870 C   0  0  2  0  0  3  0  0  0  0  0  0
   39.1460   29.4980   40.7670 C   0  0  2  0  0  0  0  0  0  0  0  0
   40.3440   30.2100   41.8680 S   0  0  0  0  0  0  0  0  0  0  0  0
   40.6660   31.8690   41.2830 C   0  0  0  0  0  3  0  0  0  0  0  0
   41.7690   32.0500   41.3700 H   0  0  0  0  0  0  0  0  0  0  0  0
   40.9560   33.1400   39.0790 C   0  0  0  0  0  2  0  0  0  0  0  0
   41.4590   33.8740   39.7730 H   0  0  0  0  0  0  0  0  0  0  0  0
   39.1120   31.8260   37.8560 C   0  0  0  0  0  0  0  0  0  0  0  0
   37.9570   31.8310   37.3060 O   0  0  0  0  0  0  0  0  0  0  0  0
   39.1170   32.2010   36.5400 O   0  0  0  0  0  0  0  0  0  0  0  0
   39.9930   32.4180   36.0410 H   0  0  0  0  0  0  0  0  0  0  0  0
   39.1070   27.1400   43.4150 C   0  0  0  0  0  0  0  0  0  0  0  0
   38.3410   27.1620   42.2340 C   0  0  0  0  0  0  0  0  0  0  0  0
   38.5980   26.1020   41.3600 C   0  0  0  0  0  0  0  0  0  0  0  0
   39.5010   25.1440   41.6340 N   0  0  0  0  0  0  0  0  0  0  0  0
   40.2130   25.1740   42.7940 C   0  0  0  0  0  0  0  0  0  0  0  0
   40.0100   26.1740   43.6790 N   0  0  0  0  0  0  0  0  0  0  0  0
   38.9370   27.9490   44.1210 H   0  0  0  0  0  0  0  0  0  0  0  0
   40.9240   24.3810   42.9630 H   0  0  0  0  0  0  0  0  0  0  0  0
   37.8930   26.0500   40.1630 C   0  0  0  0  0  0  0  0  0  0  0  0
   36.6080   25.7210   39.8000 C   0  0  0  0  0  0  0  0  0  0  0  0
   36.1440   25.7360   38.5760 C   0  0  0  0  0  0  0  0  0  0  0  0
   37.0440   26.1180   37.6030 C   0  0  0  0  0  0  0  0  0  0  0  0
   38.5910   26.4480   38.5840 S   0  0  0  0  0  0  0  0  0  0  0  0
   35.7890   25.4440   40.4460 H   0  0  0  0  0  0  0  0  0  0  0  0
   35.2460   25.5420   38.0330 H   0  0  0  0  0  0  0  0  0  0  0  0
   37.1650   26.2830   36.5440 H   0  0  0  0  0  0  0  0  0  0  0  0
  1 20  1  0  0  0  0
  1  2  1  6  0  0  0
  3 11  1  0  0  0  0
  4  5  1  0  0  0  0
  4  3  2  0  0  0  0
  5  6  1  0  0  0  0
  5  9  1  0  0  0  0
  6  7  1  6  0  0  0
  6  9  1  0  0  0  0
  6  8  1  0  0  0  0
  8  1  1  6  0  0  0
  9  8  1  0  0  0  0
  9 10  1  6  0  0  0
 11 12  1  0  0  0  0
 11 10  1  0  0  0  0
 13 14  1  0  0  0  0
 13  3  1  0  0  0  0
 15  4  1  0  0  0  0
 16 15  2  0  0  0  0
 17 15  1  0  0  0  0
 18 17  1  0  0  0  0
 19 24  1  0  0  0  0
 19 25  1  0  0  0  0
 20 19  2  0  0  0  0
 21 22  2  0  0  0  0
 21 20  1  0  0  0  0
 22 23  1  0  0  0  0
 23 26  1  0  0  0  0
 23 24  2  0  0  0  0
 27 21  1  0  0  0  0
 28 27  2  0  0  0  0
 28 32  1  0  0  0  0
 29 28  1  0  0  0  0
 30 29  2  0  0  0  0
 30 31  1  0  0  0  0
 31 27  1  0  0  0  0
 33 29  1  0  0  0  0
 34 30  1  0  0  0  0
M  END
>  <minimizedAffinity>
-5.44176912

$$$$
