
 OpenBabel03242510083D

 35 38  0  0  1  0  0  0  0  0999 V2000
   43.4200   32.1080   42.1420 Br  0  0  0  0  0  0  0  0  0  0  0  0
   44.9130   32.8600   41.2210 C   0  0  0  0  0  0  0  0  0  0  0  0
   45.8820   33.5640   41.9160 C   0  0  0  0  0  0  0  0  0  0  0  0
   46.9740   34.1310   41.2670 C   0  0  0  0  0  0  0  0  0  0  0  0
   47.0550   33.9670   39.9110 C   0  0  0  0  0  0  0  0  0  0  0  0
   46.0730   33.2630   39.2530 C   0  0  0  0  0  0  0  0  0  0  0  0
   45.0050   32.7030   39.8650 C   0  0  0  0  0  0  0  0  0  0  0  0
   47.7240   34.6800   41.8350 H   0  0  0  0  0  0  0  0  0  0  0  0
   47.9100   34.4100   39.3850 H   0  0  0  0  0  0  0  0  0  0  0  0
   46.2260   33.1970   38.1890 H   0  0  0  0  0  0  0  0  0  0  0  0
   46.1270   32.8810   45.4980 C   0  0  0  0  0  0  0  0  0  0  0  0
   45.4460   33.9520   46.1030 C   0  0  0  0  0  0  0  0  0  0  0  0
   44.9040   34.9070   45.2470 C   0  0  0  0  0  0  0  0  0  0  0  0
   45.0640   34.7470   43.9110 N   0  0  0  0  0  0  0  0  0  0  0  0
   45.7310   33.6970   43.3680 C   0  0  0  0  0  0  0  0  0  0  0  0
   46.2630   32.7610   44.1760 N   0  0  0  0  0  0  0  0  0  0  0  0
   46.5170   32.1840   46.2330 H   0  0  0  0  0  0  0  0  0  0  0  0
   45.2940   34.1200   47.1400 H   0  0  0  0  0  0  0  0  0  0  0  0
   44.3440   35.8040   45.5220 H   0  0  0  0  0  0  0  0  0  0  0  0
   43.9490   31.9520   39.1310 C   0  0  0  0  0  2  0  0  0  0  0  0
   42.7620   32.7350   38.7900 C   0  0  0  0  0  0  0  0  0  0  0  0
   41.5920   32.1510   38.8420 C   0  0  0  0  0  0  0  0  0  0  0  0
   40.4310   32.9050   38.5200 N   0  0  0  0  0  0  0  0  0  0  0  0
   39.1720   32.9460   37.8120 C   0  0  0  0  0  0  0  0  0  0  0  0
   38.3700   32.0930   37.2990 O   0  0  0  0  0  0  0  0  0  0  0  0
   39.1550   34.4380   37.9070 C   0  0  0  0  0  3  0  0  0  0  0  0
   38.1540   34.7550   38.2980 H   0  0  0  0  0  0  0  0  0  0  0  0
   40.1760   34.2650   39.0080 C   0  0  2  0  0  3  0  0  0  0  0  0
   41.6850   35.1960   38.8850 S   0  0  0  0  0  0  0  0  0  0  0  0
   43.0420   34.1280   38.3830 C   0  0  0  0  0  3  0  0  0  0  0  0
   43.2450   34.2000   37.2810 H   0  0  0  0  0  0  0  0  0  0  0  0
   41.3580   30.7550   39.2170 C   0  0  0  0  0  0  0  0  0  0  0  0
   40.8240   30.3340   40.2690 O   0  0  0  0  0  0  0  0  0  0  0  0
   41.4860   29.4440   38.8600 O   0  0  0  0  0  0  0  0  0  0  0  0
   40.8180   28.9880   38.2220 H   0  0  0  0  0  0  0  0  0  0  0  0
  2  3  1  0  0  0  0
  2  1  1  0  0  0  0
  3 15  1  0  0  0  0
  4  8  1  0  0  0  0
  4  3  2  0  0  0  0
  5  4  1  0  0  0  0
  6  7  1  0  0  0  0
  6  5  2  0  0  0  0
  7  2  2  0  0  0  0
  9  5  1  0  0  0  0
 10  6  1  0  0  0  0
 11 12  1  0  0  0  0
 11 17  1  0  0  0  0
 12 18  1  0  0  0  0
 13 19  1  0  0  0  0
 13 12  2  0  0  0  0
 14 13  1  0  0  0  0
 15 14  2  0  0  0  0
 15 16  1  0  0  0  0
 16 11  2  0  0  0  0
 20  7  1  0  0  0  0
 21 22  2  0  0  0  0
 21 20  1  0  0  0  0
 22 32  1  0  0  0  0
 23 22  1  0  0  0  0
 23 28  1  0  0  0  0
 24 26  1  0  0  0  0
 24 23  1  0  0  0  0
 25 24  2  0  0  0  0
 26 27  1  0  0  0  0
 28 26  1  6  0  0  0
 29 28  1  0  0  0  0
 30 21  1  0  0  0  0
 30 29  1  0  0  0  0
 31 30  1  0  0  0  0
 32 33  2  0  0  0  0
 34 32  1  0  0  0  0
 35 34  1  0  0  0  0
M  END
>  <minimizedAffinity>
-4.95771265

>  <minimizedRMSD>
2.53753161

$$$$
