
 OpenBabel03252503353D

 29 31  0  0  1  0  0  0  0  0999 V2000
   49.7410   32.2720   41.9210 C   0  0  0  0  0  0  0  0  0  0  0  0
   48.9540   33.2770   42.2630 C   0  0  0  0  0  0  0  0  0  0  0  0
   47.5870   33.0540   42.5740 N   0  0  0  0  0  0  0  0  0  0  0  0
   46.4540   33.3690   43.3490 C   0  0  0  0  0  0  0  0  0  0  0  0
   46.1530   34.2390   44.2310 O   0  0  0  0  0  0  0  0  0  0  0  0
   45.6220   32.2760   42.7790 C   0  0  1  0  0  3  0  0  0  0  0  0
   46.7820   32.0680   41.8730 C   0  0  2  0  0  3  0  0  0  0  0  0
   47.6460   30.4880   42.0620 S   0  0  0  0  0  0  0  0  0  0  0  0
   49.3860   30.8380   41.8120 C   0  0  0  0  0  3  0  0  0  0  0  0
   50.0490   30.2390   42.4860 H   0  0  0  0  0  0  0  0  0  0  0  0
   45.3340   31.2530   43.7820 C   0  0  0  0  0  0  0  0  0  0  0  0
   44.5540   30.2690   43.7560 O   0  0  0  0  0  0  0  0  0  0  0  0
   46.0660   31.3950   45.0040 N   0  0  0  0  0  0  0  0  0  0  0  0
   46.7700   32.1470   45.2020 H   0  0  0  0  0  0  0  0  0  0  0  0
   45.0990   29.9550   48.2880 C   0  0  0  0  0  0  0  0  0  0  0  0
   45.2420   30.8910   47.2520 C   0  0  0  0  0  0  0  0  0  0  0  0
   45.8910   30.4930   46.0900 C   0  0  0  0  0  0  0  0  0  0  0  0
   46.3580   29.2370   45.9900 N   0  0  0  0  0  0  0  0  0  0  0  0
   46.2100   28.3390   47.0110 C   0  0  0  0  0  0  0  0  0  0  0  0
   45.5830   28.7160   48.1410 N   0  0  0  0  0  0  0  0  0  0  0  0
   44.5810   30.3570   49.1530 H   0  0  0  0  0  0  0  0  0  0  0  0
   44.8820   31.9120   47.2860 H   0  0  0  0  0  0  0  0  0  0  0  0
   46.5970   27.3120   46.9180 H   0  0  0  0  0  0  0  0  0  0  0  0
   51.1450   32.6480   41.6190 C   0  0  0  0  0  2  0  0  0  0  0  0
   51.0790   33.3730   40.7560 H   0  0  0  0  0  0  0  0  0  0  0  0
   49.4480   34.6530   42.3350 C   0  0  0  0  0  0  0  0  0  0  0  0
   49.1750   35.5290   41.4770 O   0  0  0  0  0  0  0  0  0  0  0  0
   50.2530   35.3270   43.2350 O   0  0  0  0  0  0  0  0  0  0  0  0
   49.8400   36.0700   43.7770 H   0  0  0  0  0  0  0  0  0  0  0  0
  1  2  2  0  0  0  0
  2 26  1  0  0  0  0
  2  3  1  0  0  0  0
  3  4  1  0  0  0  0
  4  5  2  0  0  0  0
  6  4  1  0  0  0  0
  6 11  1  1  0  0  0
  7  8  1  1  0  0  0
  7  3  1  0  0  0  0
  7  6  1  0  0  0  0
  9  1  1  0  0  0  0
  9  8  1  0  0  0  0
  9 10  1  0  0  0  0
 11 13  1  0  0  0  0
 12 11  2  0  0  0  0
 13 14  1  0  0  0  0
 13 17  1  0  0  0  0
 15 21  1  0  0  0  0
 16 22  1  0  0  0  0
 16 15  2  0  0  0  0
 17 16  1  0  0  0  0
 18 17  2  0  0  0  0
 18 19  1  0  0  0  0
 19 20  2  0  0  0  0
 20 15  1  0  0  0  0
 23 19  1  0  0  0  0
 24  1  1  0  0  0  0
 25 24  1  0  0  0  0
 26 28  1  0  0  0  0
 27 26  2  0  0  0  0
 28 29  1  0  0  0  0
M  END
>  <minimizedAffinity>
-4.61977053

>  <minimizedRMSD>
4.72972298

$$$$
