
 OpenBabel03242519543D

 47 50  0  0  1  0  0  0  0  0999 V2000
   47.1170   33.9440   42.6280 C   0  0  2  0  0  0  0  0  0  0  0  0
   48.5380   34.3300   42.7770 C   0  0  0  0  0  0  0  0  0  0  0  0
   48.9350   35.4320   41.8550 C   0  0  0  0  0  0  0  0  0  0  0  0
   48.6330   35.1480   40.4080 C   0  0  0  0  0  0  0  0  0  0  0  0
   47.3650   34.3870   40.1830 C   0  0  2  0  0  0  0  0  0  0  0  0
   46.4560   34.4520   41.3930 C   0  0  0  0  0  0  0  0  0  0  0  0
   47.1190   32.8080   42.5810 H   0  0  0  0  0  0  0  0  0  0  0  0
   49.2600   33.4960   42.6680 H   0  0  0  0  0  0  0  0  0  0  0  0
   48.6770   34.7120   43.8150 H   0  0  0  0  0  0  0  0  0  0  0  0
   50.0550   35.5260   41.9370 H   0  0  0  0  0  0  0  0  0  0  0  0
   48.5390   36.3980   42.2090 H   0  0  0  0  0  0  0  0  0  0  0  0
   48.6260   36.1480   39.8840 H   0  0  0  0  0  0  0  0  0  0  0  0
   49.5050   34.6150   39.9490 H   0  0  0  0  0  0  0  0  0  0  0  0
   46.8250   34.9030   39.3550 H   0  0  0  0  0  0  0  0  0  0  0  0
   46.0140   35.4290   41.3870 H   0  0  0  0  0  0  0  0  0  0  0  0
   45.6020   33.7320   41.1950 H   0  0  0  0  0  0  0  0  0  0  0  0
   46.2880   34.2710   43.7980 C   0  0  0  0  0  0  0  0  0  0  0  0
   45.4480   35.3650   43.6040 C   0  0  0  0  0  0  0  0  0  0  0  0
   44.5910   35.7760   44.6280 C   0  0  0  0  0  0  0  0  0  0  0  0
   44.6440   35.0390   45.7990 N   0  0  0  0  0  0  0  0  0  0  0  0
   45.4730   33.9880   45.9450 C   0  0  0  0  0  0  0  0  0  0  0  0
   46.2800   33.6170   44.9490 N   0  0  0  0  0  0  0  0  0  0  0  0
   45.2490   36.0740   42.8140 H   0  0  0  0  0  0  0  0  0  0  0  0
   43.8790   36.5670   44.6940 H   0  0  0  0  0  0  0  0  0  0  0  0
   45.4770   33.4430   46.8830 H   0  0  0  0  0  0  0  0  0  0  0  0
   47.6740   33.0090   39.7550 C   0  0  0  0  0  0  0  0  0  0  0  0
   47.9160   32.3860   40.6400 H   0  0  0  0  0  0  0  0  0  0  0  0
   48.6340   33.0450   39.1730 H   0  0  0  0  0  0  0  0  0  0  0  0
   46.6630   32.3020   38.9560 C   0  0  0  0  0  0  0  0  0  0  0  0
   47.1770   31.6250   38.2450 H   0  0  0  0  0  0  0  0  0  0  0  0
   46.0460   31.6570   39.6130 H   0  0  0  0  0  0  0  0  0  0  0  0
   43.3820   30.1520   36.3840 C   0  0  0  0  0  0  0  0  0  0  0  0
   43.0140   31.1750   37.1260 C   0  0  0  0  0  0  0  0  0  0  0  0
   43.9420   32.0800   37.6430 N   0  0  0  0  0  0  0  0  0  0  0  0
   44.3440   32.9230   38.6880 C   0  0  0  0  0  0  0  0  0  0  0  0
   43.8160   33.3960   39.7480 O   0  0  0  0  0  0  0  0  0  0  0  0
   45.7200   33.1370   38.1520 C   0  0  2  0  0  3  0  0  0  0  0  0
   45.1260   32.4820   36.9300 C   0  0  1  0  0  3  0  0  0  0  0  0
   45.9960   31.0210   36.3580 S   0  0  0  0  0  0  0  0  0  0  0  0
   44.7580   29.7820   35.9810 C   0  0  0  0  0  3  0  0  0  0  0  0
   44.7370   29.6930   34.8550 H   0  0  0  0  0  0  0  0  0  0  0  0
   42.3750   29.2100   35.8490 C   0  0  0  0  0  2  0  0  0  0  0  0
   41.3510   29.6400   35.7940 H   0  0  0  0  0  0  0  0  0  0  0  0
   41.6000   31.3640   37.4130 C   0  0  0  0  0  0  0  0  0  0  0  0
   41.1080   32.4570   37.7900 O   0  0  0  0  0  0  0  0  0  0  0  0
   40.2560   31.2190   37.5970 O   0  0  0  0  0  0  0  0  0  0  0  0
   39.8790   30.3280   37.8950 H   0  0  0  0  0  0  0  0  0  0  0  0
  1  7  1  6  0  0  0
  1  2  1  0  0  0  0
  1 17  1  0  0  0  0
  2  9  1  0  0  0  0
  3 10  1  0  0  0  0
  3 11  1  0  0  0  0
  3  2  1  0  0  0  0
  4  3  1  0  0  0  0
  5 14  1  6  0  0  0
  5  4  1  0  0  0  0
  5  6  1  0  0  0  0
  6  1  1  0  0  0  0
  8  2  1  0  0  0  0
 12  4  1  0  0  0  0
 13  4  1  0  0  0  0
 15  6  1  0  0  0  0
 16  6  1  0  0  0  0
 17 22  1  0  0  0  0
 18 17  2  0  0  0  0
 18 19  1  0  0  0  0
 19 24  1  0  0  0  0
 19 20  2  0  0  0  0
 20 21  1  0  0  0  0
 21 25  1  0  0  0  0
 22 21  2  0  0  0  0
 23 18  1  0  0  0  0
 26  5  1  0  0  0  0
 26 27  1  0  0  0  0
 28 26  1  0  0  0  0
 29 31  1  0  0  0  0
 29 26  1  0  0  0  0
 30 29  1  0  0  0  0
 32 33  2  0  0  0  0
 33 44  1  0  0  0  0
 33 34  1  0  0  0  0
 34 35  1  0  0  0  0
 35 36  2  0  0  0  0
 37 35  1  0  0  0  0
 37 29  1  1  0  0  0
 38 39  1  1  0  0  0
 38 34  1  0  0  0  0
 38 37  1  0  0  0  0
 40 39  1  0  0  0  0
 40 32  1  0  0  0  0
 41 40  1  0  0  0  0
 42 32  1  0  0  0  0
 43 42  1  0  0  0  0
 44 46  1  0  0  0  0
 44 45  2  0  0  0  0
 46 47  1  0  0  0  0
M  END
>  <minimizedAffinity>
-5.79535913

>  <minimizedRMSD>
1.37063742

$$$$
