
 OpenBabel03242515433D

 45 49  0  0  1  0  0  0  0  0999 V2000
   44.4330   33.9900   40.1350 C   0  0  0  0  0  0  0  0  0  0  0  0
   44.7860   33.0730   39.1940 C   0  0  0  0  0  0  0  0  0  0  0  0
   46.1640   32.7840   39.1460 C   0  0  0  0  0  0  0  0  0  0  0  0
   47.0410   33.3980   39.9750 N   0  0  0  0  0  0  0  0  0  0  0  0
   46.6320   34.3080   40.8840 C   0  0  0  0  0  0  0  0  0  0  0  0
   45.3410   34.5600   40.9240 N   0  0  0  0  0  0  0  0  0  0  0  0
   46.6700   31.7960   38.2460 N   0  0  0  0  0  0  0  0  0  0  0  0
   46.9890   30.9260   38.7670 H   0  0  0  0  0  0  0  0  0  0  0  0
   46.6000   32.1900   37.2690 H   0  0  0  0  0  0  0  0  0  0  0  0
   42.6580   34.3230   40.2590 S   0  0  0  0  0  0  0  0  0  0  0  0
   40.4290   33.0690   40.9750 C   0  0  0  0  0  0  0  0  0  0  0  0
   41.8280   33.0110   41.1380 C   0  0  0  0  0  0  0  0  0  0  0  0
   42.4450   31.9940   41.8660 C   0  0  0  0  0  0  0  0  0  0  0  0
   41.6740   31.0170   42.4400 C   0  0  0  0  0  0  0  0  0  0  0  0
   40.2870   31.0500   42.2930 C   0  0  0  0  0  0  0  0  0  0  0  0
   39.6620   32.0520   41.5770 C   0  0  0  0  0  0  0  0  0  0  0  0
   39.7660   29.9230   42.9900 O   0  0  0  0  0  0  0  0  0  0  0  0
   40.7830   29.4980   43.8320 C   0  0  0  0  0  0  0  0  0  0  0  0
   41.9870   29.8950   43.2050 O   0  0  0  0  0  0  0  0  0  0  0  0
   39.8970   33.8310   40.4280 H   0  0  0  0  0  0  0  0  0  0  0  0
   43.5020   32.0410   41.9310 H   0  0  0  0  0  0  0  0  0  0  0  0
   38.5890   32.0660   41.4720 H   0  0  0  0  0  0  0  0  0  0  0  0
   40.7680   28.4310   44.1020 H   0  0  0  0  0  0  0  0  0  0  0  0
   40.7180   30.0900   44.7860 H   0  0  0  0  0  0  0  0  0  0  0  0
   47.4630   34.9700   41.7370 O   0  0  0  0  0  0  0  0  0  0  0  0
   48.7330   35.3630   41.2750 C   0  0  0  0  0  0  0  0  0  0  0  0
   49.6810   34.4010   41.5520 F   0  0  0  0  0  0  0  0  0  0  0  0
   48.6160   35.5810   39.8990 F   0  0  0  0  0  0  0  0  0  0  0  0
   49.1010   36.5170   41.9460 F   0  0  0  0  0  0  0  0  0  0  0  0
   44.1560   32.3590   38.0690 C   0  0  0  0  0  2  0  0  0  0  0  0
   43.2430   31.2590   38.3120 C   0  0  0  0  0  0  0  0  0  0  0  0
   43.1200   30.0890   38.9050 C   0  0  0  0  0  0  0  0  0  0  0  0
   41.9700   29.2610   38.8760 N   0  0  0  0  0  0  0  0  0  0  0  0
   40.9760   28.5430   39.5800 C   0  0  0  0  0  0  0  0  0  0  0  0
   40.9970   27.9350   40.6840 O   0  0  0  0  0  0  0  0  0  0  0  0
   40.0600   28.8830   38.4320 C   0  0  0  0  0  3  0  0  0  0  0  0
   39.3480   28.1150   38.1410 H   0  0  0  0  0  0  0  0  0  0  0  0
   41.3340   28.8010   37.6260 C   0  0  1  0  0  3  0  0  0  0  0  0
   41.5970   30.2210   36.4900 S   0  0  0  0  0  0  0  0  0  0  0  0
   41.9150   31.6040   37.6580 C   0  0  0  0  0  3  0  0  0  0  0  0
   41.9150   32.5040   37.0700 H   0  0  0  0  0  0  0  0  0  0  0  0
   44.3060   29.6320   39.6290 C   0  0  0  0  0  0  0  0  0  0  0  0
   45.5130   29.3200   39.7500 O   0  0  0  0  0  0  0  0  0  0  0  0
   44.7160   29.2350   40.8710 O   0  0  0  0  0  0  0  0  0  0  0  0
   44.7990   29.8680   41.6960 H   0  0  0  0  0  0  0  0  0  0  0  0
  1 10  1  0  0  0  0
  1  6  1  0  0  0  0
  2  1  2  0  0  0  0
  3  2  1  0  0  0  0
  3  4  2  0  0  0  0
  4  5  1  0  0  0  0
  5  6  2  0  0  0  0
  5 25  1  0  0  0  0
  7  8  1  0  0  0  0
  7  3  1  0  0  0  0
  9  7  1  0  0  0  0
 10 12  1  0  0  0  0
 11 12  2  0  0  0  0
 11 16  1  0  0  0  0
 12 13  1  0  0  0  0
 13 21  1  0  0  0  0
 13 14  2  0  0  0  0
 14 19  1  0  0  0  0
 15 14  1  0  0  0  0
 15 17  1  0  0  0  0
 16 15  2  0  0  0  0
 17 18  1  0  0  0  0
 18 23  1  0  0  0  0
 18 24  1  0  0  0  0
 19 18  1  0  0  0  0
 20 11  1  0  0  0  0
 22 16  1  0  0  0  0
 26 27  1  0  0  0  0
 26 25  1  0  0  0  0
 26 29  1  0  0  0  0
 28 26  1  0  0  0  0
 30 31  1  0  0  0  0
 30  2  1  0  0  0  0
 31 32  2  0  0  0  0
 32 42  1  0  0  0  0
 33 32  1  0  0  0  0
 33 34  1  0  0  0  0
 34 35  2  0  0  0  0
 36 34  1  0  0  0  0
 37 36  1  0  0  0  0
 38 39  1  6  0  0  0
 38 36  1  0  0  0  0
 38 33  1  0  0  0  0
 39 40  1  0  0  0  0
 40 31  1  0  0  0  0
 41 40  1  0  0  0  0
 42 43  2  0  0  0  0
 42 44  1  0  0  0  0
 44 45  1  0  0  0  0
M  END
>  <minimizedAffinity>
-5.22753763

>  <minimizedRMSD>
1.71956277

$$$$
