
 OpenBabel03242514333D

 33 36  0  0  1  0  0  0  0  0999 V2000
   48.0910   33.7690   39.8730 C   0  0  2  0  0  3  0  0  0  0  0  0
   46.8190   33.9550   39.9230 O   0  0  0  0  0  0  0  0  0  0  0  0
   50.9000   31.2750   37.5070 C   0  0  0  0  0  0  0  0  0  0  0  0
   49.7840   31.5340   36.8470 C   0  0  0  0  0  0  0  0  0  0  0  0
   48.6460   32.0490   37.5270 N   0  0  0  0  0  0  0  0  0  0  0  0
   47.6210   33.0710   37.5020 C   0  0  0  0  0  0  0  0  0  0  0  0
   47.1030   33.8430   36.6240 O   0  0  0  0  0  0  0  0  0  0  0  0
   47.4470   32.8230   38.9310 C   0  0  1  0  0  0  0  0  0  0  0  0
   48.1110   31.4880   38.7520 C   0  0  2  0  0  3  0  0  0  0  0  0
   49.4750   31.1250   39.8510 S   0  0  0  0  0  0  0  0  0  0  0  0
   51.0050   31.5320   38.9680 C   0  0  0  0  0  3  0  0  0  0  0  0
   51.1560   32.6360   39.1370 H   0  0  0  0  0  0  0  0  0  0  0  0
   52.0290   30.7370   36.7600 C   0  0  0  0  0  2  0  0  0  0  0  0
   52.8870   30.5890   37.4770 H   0  0  0  0  0  0  0  0  0  0  0  0
   49.7110   31.2780   35.4000 C   0  0  0  0  0  0  0  0  0  0  0  0
   49.3180   30.2110   34.8700 O   0  0  0  0  0  0  0  0  0  0  0  0
   50.0480   32.1280   34.3880 O   0  0  0  0  0  0  0  0  0  0  0  0
   50.7090   31.8550   33.6720 H   0  0  0  0  0  0  0  0  0  0  0  0
   48.7430   34.6080   40.7170 O   0  0  0  0  0  0  0  0  0  0  0  0
   49.5550   35.4440   43.0040 O   0  0  0  0  0  0  0  0  0  0  0  0
   49.3330   34.1840   42.2200 P   0  0  2  0  0  0  0  0  0  0  0  0
   50.8310   33.4440   42.0460 O   0  0  0  0  0  0  0  0  0  0  0  0
   50.7550   32.5160   41.7010 H   0  0  0  0  0  0  0  0  0  0  0  0
   48.2320   33.1550   43.0280 O   0  0  0  0  0  0  0  0  0  0  0  0
   46.4100   34.7170   43.1590 C   0  0  0  0  0  0  0  0  0  0  0  0
   47.1560   33.6820   43.7500 C   0  0  0  0  0  0  0  0  0  0  0  0
   46.7860   33.2390   45.0140 C   0  0  0  0  0  0  0  0  0  0  0  0
   45.7240   33.8170   45.6300 N   0  0  0  0  0  0  0  0  0  0  0  0
   45.0280   34.8110   45.0340 C   0  0  0  0  0  0  0  0  0  0  0  0
   45.3770   35.2450   43.8170 N   0  0  0  0  0  0  0  0  0  0  0  0
   46.6200   35.1310   42.1790 H   0  0  0  0  0  0  0  0  0  0  0  0
   47.3980   32.4450   45.4070 H   0  0  0  0  0  0  0  0  0  0  0  0
   44.2110   35.1660   45.6520 H   0  0  0  0  0  0  0  0  0  0  0  0
  1  2  1  0  0  0  0
  1 19  1  1  0  0  0
  3 11  1  0  0  0  0
  4  3  2  0  0  0  0
  4  5  1  0  0  0  0
  5  9  1  0  0  0  0
  6  5  1  0  0  0  0
  7  6  2  0  0  0  0
  8  6  1  6  0  0  0
  8  1  1  0  0  0  0
  8  2  1  0  0  0  0
  9  8  1  0  0  0  0
  9 10  1  1  0  0  0
 11 12  1  0  0  0  0
 11 10  1  0  0  0  0
 13 14  1  0  0  0  0
 13  3  1  0  0  0  0
 15  4  1  0  0  0  0
 16 15  2  0  0  0  0
 17 15  1  0  0  0  0
 18 17  1  0  0  0  0
 19 21  1  0  0  0  0
 21 20  2  1  0  0  0
 21 24  1  0  0  0  0
 22 21  1  0  0  0  0
 23 22  1  0  0  0  0
 24 26  1  0  0  0  0
 25 26  2  0  0  0  0
 25 30  1  0  0  0  0
 26 27  1  0  0  0  0
 27 32  1  0  0  0  0
 27 28  2  0  0  0  0
 29 28  1  0  0  0  0
 29 33  1  0  0  0  0
 30 29  2  0  0  0  0
 31 25  1  0  0  0  0
M  END
>  <minimizedAffinity>
-4.74344158

>  <minimizedRMSD>
2.1825459

$$$$
