
 OpenBabel03242519433D

 36 40  0  0  1  0  0  0  0  0999 V2000
   37.8670   29.0610   38.8080 O   0  0  0  0  0  0  0  0  0  0  0  0
   36.7550   31.3610   39.3440 O   0  0  0  0  0  0  0  0  0  0  0  0
   36.4580   29.8720   39.1430 P   0  0  2  0  0  0  0  0  0  0  0  0
   35.7740   29.2440   40.5830 O   0  0  0  0  0  0  0  0  0  0  0  0
   37.5800   26.9350   42.7520 C   0  0  0  0  0  0  0  0  0  0  0  0
   36.7190   27.4240   41.7420 C   0  0  0  0  0  0  0  0  0  0  0  0
   36.6250   28.8080   41.5760 C   0  0  0  0  0  0  0  0  0  0  0  0
   37.3550   29.6110   42.3820 N   0  0  0  0  0  0  0  0  0  0  0  0
   38.1710   29.1210   43.3420 C   0  0  0  0  0  0  0  0  0  0  0  0
   38.2920   27.8020   43.5360 N   0  0  0  0  0  0  0  0  0  0  0  0
   37.6780   25.8750   42.9100 H   0  0  0  0  0  0  0  0  0  0  0  0
   36.2010   26.6880   41.1780 H   0  0  0  0  0  0  0  0  0  0  0  0
   38.6980   29.8710   43.9160 H   0  0  0  0  0  0  0  0  0  0  0  0
   35.3340   29.7550   37.9340 O   0  0  0  0  0  0  0  0  0  0  0  0
   34.3890   28.7670   38.1650 C   0  0  0  0  0  0  0  0  0  0  0  0
   33.5540   29.0580   39.2340 F   0  0  0  0  0  0  0  0  0  0  0  0
   33.7020   28.4950   37.0250 F   0  0  0  0  0  0  0  0  0  0  0  0
   35.0980   27.6330   38.5370 F   0  0  0  0  0  0  0  0  0  0  0  0
   39.1570   29.4570   39.0440 C   0  0  1  0  0  3  0  0  0  0  0  0
   39.7580   29.0420   40.1470 O   0  0  0  0  0  0  0  0  0  0  0  0
   43.7590   31.3620   37.3190 C   0  0  0  0  0  0  0  0  0  0  0  0
   42.7720   32.1430   37.6690 C   0  0  0  0  0  0  0  0  0  0  0  0
   41.5290   31.5950   38.0780 N   0  0  0  0  0  0  0  0  0  0  0  0
   40.3900   31.6080   38.9220 C   0  0  2  0  0  0  0  0  0  0  0  0
   39.7720   32.6260   39.3760 O   0  0  0  0  0  1  0  0  0  0  0  0
   40.4640   30.1010   38.8750 C   0  0  2  0  0  0  0  0  0  0  0  0
   40.9110   30.4440   37.4800 C   0  0  2  0  0  0  0  0  0  0  0  0
   42.0590   29.3040   36.7220 S   0  0  0  0  0  0  0  0  0  0  0  0
   43.6330   29.9060   37.3380 C   0  0  0  0  0  3  0  0  0  0  0  0
   43.6900   29.5750   38.4170 H   0  0  0  0  0  0  0  0  0  0  0  0
   45.0280   31.9500   36.8980 C   0  0  0  0  0  2  0  0  0  0  0  0
   45.8150   31.1970   36.6720 H   0  0  0  0  0  0  0  0  0  0  0  0
   42.9080   33.5950   37.6500 C   0  0  0  0  0  0  0  0  0  0  0  0
   43.2460   34.3300   38.5840 O   0  0  0  0  0  0  0  0  0  0  0  0
   42.6750   34.4170   36.5620 O   0  0  0  0  0  0  0  0  0  0  0  0
   42.1700   35.2770   36.5810 H   0  0  0  0  0  0  0  0  0  0  0  0
  1  3  1  0  0  0  0
  3  2  2  1  0  0  0
  3  4  1  0  0  0  0
  4  7  1  0  0  0  0
  5 11  1  0  0  0  0
  5 10  1  0  0  0  0
  6  5  2  0  0  0  0
  7  6  1  0  0  0  0
  7  8  2  0  0  0  0
  8  9  1  0  0  0  0
  9 10  2  0  0  0  0
  9 13  1  0  0  0  0
 12  6  1  0  0  0  0
 14 15  1  0  0  0  0
 14  3  1  0  0  0  0
 15 18  1  0  0  0  0
 15 16  1  0  0  0  0
 17 15  1  0  0  0  0
 19  1  1  6  0  0  0
 19 20  1  0  0  0  0
 21 29  1  0  0  0  0
 21 22  2  0  0  0  0
 22 23  1  0  0  0  0
 23 24  1  0  0  0  0
 24 25  1  1  0  0  0
 26 24  1  0  0  0  0
 26 19  1  0  0  0  0
 26 20  1  1  0  0  0
 27 28  1  6  0  0  0
 27 23  1  0  0  0  0
 27 26  1  0  0  0  0
 27 24  1  0  0  0  0
 28 29  1  0  0  0  0
 29 30  1  0  0  0  0
 31 21  1  0  0  0  0
 32 31  1  0  0  0  0
 33 22  1  0  0  0  0
 33 34  2  0  0  0  0
 35 36  1  0  0  0  0
 35 33  1  0  0  0  0
M  END
>  <minimizedAffinity>
-5.64234352

$$$$

 OpenBabel03242519433D

 36 40  0  0  1  0  0  0  0  0999 V2000
   36.9630   26.3460   42.6480 O   0  0  0  0  0  0  0  0  0  0  0  0
   36.7490   24.1330   41.2810 O   0  0  0  0  0  0  0  0  0  0  0  0
   37.7370   25.2270   41.6990 P   0  0  2  0  0  0  0  0  0  0  0  0
   39.0100   24.5100   42.5970 O   0  0  0  0  0  0  0  0  0  0  0  0
   42.4020   25.8020   42.2540 C   0  0  0  0  0  0  0  0  0  0  0  0
   41.2290   25.0480   42.0190 C   0  0  0  0  0  0  0  0  0  0  0  0
   40.1330   25.2650   42.8580 C   0  0  0  0  0  0  0  0  0  0  0  0
   40.2430   26.1780   43.8490 N   0  0  0  0  0  0  0  0  0  0  0  0
   41.3750   26.8870   44.0550 C   0  0  0  0  0  0  0  0  0  0  0  0
   42.4500   26.7110   43.2750 N   0  0  0  0  0  0  0  0  0  0  0  0
   43.2670   25.6620   41.6280 H   0  0  0  0  0  0  0  0  0  0  0  0
   41.2720   24.3630   41.2090 H   0  0  0  0  0  0  0  0  0  0  0  0
   41.3310   27.5840   44.8800 H   0  0  0  0  0  0  0  0  0  0  0  0
   38.3720   25.8710   40.3140 O   0  0  0  0  0  0  0  0  0  0  0  0
   37.4030   26.2460   39.3960 C   0  0  0  0  0  0  0  0  0  0  0  0
   36.1760   26.5160   39.9850 F   0  0  0  0  0  0  0  0  0  0  0  0
   37.8510   27.2740   38.6290 F   0  0  0  0  0  0  0  0  0  0  0  0
   37.1960   25.1410   38.5800 F   0  0  0  0  0  0  0  0  0  0  0  0
   37.2090   27.6900   42.7580 C   0  0  1  0  0  3  0  0  0  0  0  0
   37.0540   28.2720   43.9350 O   0  0  0  0  0  0  0  0  0  0  0  0
   39.4390   32.1160   40.9640 C   0  0  0  0  0  0  0  0  0  0  0  0
   38.2850   31.6930   40.5210 C   0  0  0  0  0  0  0  0  0  0  0  0
   37.7390   30.4680   40.9890 N   0  0  0  0  0  0  0  0  0  0  0  0
   36.6300   29.6870   41.4000 C   0  0  2  0  0  0  0  0  0  0  0  0
   35.4460   29.7110   40.9300 O   0  0  0  0  0  1  0  0  0  0  0  0
   37.5700   29.0670   42.4060 C   0  0  2  0  0  0  0  0  0  0  0  0
   38.5060   29.2820   41.2490 C   0  0  2  0  0  0  0  0  0  0  0  0
   40.2160   29.5900   41.6700 S   0  0  0  0  0  0  0  0  0  0  0  0
   40.2090   31.3630   41.9500 C   0  0  0  0  0  3  0  0  0  0  0  0
   39.7150   31.5160   42.9550 H   0  0  0  0  0  0  0  0  0  0  0  0
   39.9810   33.3770   40.4650 C   0  0  0  0  0  2  0  0  0  0  0  0
   40.9410   33.6700   40.9440 H   0  0  0  0  0  0  0  0  0  0  0  0
   37.5210   32.4530   39.5390 C   0  0  0  0  0  0  0  0  0  0  0  0
   37.4650   32.2610   38.3190 O   0  0  0  0  0  0  0  0  0  0  0  0
   36.7120   33.5420   39.8070 O   0  0  0  0  0  0  0  0  0  0  0  0
   36.6860   34.3900   39.2830 H   0  0  0  0  0  0  0  0  0  0  0  0
  3  2  2  6  0  0  0
  3  4  1  0  0  0  0
  3  1  1  0  0  0  0
  4  7  1  0  0  0  0
  5 10  1  0  0  0  0
  6  5  2  0  0  0  0
  6  7  1  0  0  0  0
  7  8  2  0  0  0  0
  8  9  1  0  0  0  0
  9 13  1  0  0  0  0
 10  9  2  0  0  0  0
 11  5  1  0  0  0  0
 12  6  1  0  0  0  0
 14  3  1  0  0  0  0
 15 16  1  0  0  0  0
 15 14  1  0  0  0  0
 17 15  1  0  0  0  0
 18 15  1  0  0  0  0
 19  1  1  1  0  0  0
 19 20  1  0  0  0  0
 21 29  1  0  0  0  0
 22 21  2  0  0  0  0
 22 23  1  0  0  0  0
 23 27  1  0  0  0  0
 23 24  1  0  0  0  0
 24 25  1  6  0  0  0
 24 26  1  0  0  0  0
 26 19  1  0  0  0  0
 26 20  1  1  0  0  0
 27 24  1  0  0  0  0
 27 28  1  6  0  0  0
 27 26  1  0  0  0  0
 28 29  1  0  0  0  0
 29 30  1  0  0  0  0
 31 32  1  0  0  0  0
 31 21  1  0  0  0  0
 33 35  1  0  0  0  0
 33 22  1  0  0  0  0
 34 33  2  0  0  0  0
 36 35  1  0  0  0  0
M  END
>  <minimizedAffinity>
-5.61994791

$$$$

 OpenBabel03242519433D

 36 40  0  0  1  0  0  0  0  0999 V2000
   38.1040   26.7800   40.1380 O   0  0  0  0  0  0  0  0  0  0  0  0
   39.5460   27.2400   42.2650 O   0  0  0  0  0  0  0  0  0  0  0  0
   38.5210   26.2740   41.6630 P   0  0  2  0  0  0  0  0  0  0  0  0
   39.2210   24.7120   41.5670 O   0  0  0  0  0  0  0  0  0  0  0  0
   37.1990   22.3230   39.6960 C   0  0  0  0  0  0  0  0  0  0  0  0
   37.6340   23.1880   40.7270 C   0  0  0  0  0  0  0  0  0  0  0  0
   38.8320   23.8820   40.5380 C   0  0  0  0  0  0  0  0  0  0  0  0
   39.5150   23.6970   39.3870 N   0  0  0  0  0  0  0  0  0  0  0  0
   39.0800   22.8650   38.4150 C   0  0  0  0  0  0  0  0  0  0  0  0
   37.9380   22.1800   38.5540 N   0  0  0  0  0  0  0  0  0  0  0  0
   36.2810   21.7720   39.8070 H   0  0  0  0  0  0  0  0  0  0  0  0
   37.0060   23.2440   41.5820 H   0  0  0  0  0  0  0  0  0  0  0  0
   39.7210   22.8090   37.5450 H   0  0  0  0  0  0  0  0  0  0  0  0
   37.2360   26.2090   42.7040 O   0  0  0  0  0  0  0  0  0  0  0  0
   36.7500   27.4620   43.0440 C   0  0  0  0  0  0  0  0  0  0  0  0
   37.7220   28.2890   43.5890 F   0  0  0  0  0  0  0  0  0  0  0  0
   36.1180   28.0280   41.9830 F   0  0  0  0  0  0  0  0  0  0  0  0
   35.8210   27.2540   44.0550 F   0  0  0  0  0  0  0  0  0  0  0  0
   38.1650   28.0430   39.6110 C   0  0  1  0  0  3  0  0  0  0  0  0
   37.5900   28.2740   38.4420 O   0  0  0  0  0  0  0  0  0  0  0  0
   38.6070   33.2780   40.0410 C   0  0  0  0  0  0  0  0  0  0  0  0
   39.6310   32.4800   40.1960 C   0  0  0  0  0  0  0  0  0  0  0  0
   39.4640   31.0720   40.1270 N   0  0  0  0  0  0  0  0  0  0  0  0
   39.9240   29.7920   39.7270 C   0  0  2  0  0  0  0  0  0  0  0  0
   41.1260   29.3690   39.7090 O   0  0  0  0  0  1  0  0  0  0  0  0
   38.4740   29.4680   39.4570 C   0  0  2  0  0  0  0  0  0  0  0  0
   38.3390   30.3580   40.6620 C   0  0  2  0  0  0  0  0  0  0  0  0
   36.8360   31.3210   40.7620 S   0  0  0  0  0  0  0  0  0  0  0  0
   37.2630   32.7650   39.7850 C   0  0  0  0  0  3  0  0  0  0  0  0
   37.2270   32.4310   38.7060 H   0  0  0  0  0  0  0  0  0  0  0  0
   38.8030   34.7230   40.1210 C   0  0  0  0  0  2  0  0  0  0  0  0
   37.8790   35.3090   39.9230 H   0  0  0  0  0  0  0  0  0  0  0  0
   40.9690   33.0000   40.4480 C   0  0  0  0  0  0  0  0  0  0  0  0
   41.8160   33.3320   39.6110 O   0  0  0  0  0  0  0  0  0  0  0  0
   41.5350   33.2150   41.6920 O   0  0  0  0  0  0  0  0  0  0  0  0
   42.4630   32.9650   41.9590 H   0  0  0  0  0  0  0  0  0  0  0  0
  1  3  1  0  0  0  0
  3  2  2  1  0  0  0
  3 14  1  0  0  0  0
  4  3  1  0  0  0  0
  5 11  1  0  0  0  0
  5  6  1  0  0  0  0
  6 12  1  0  0  0  0
  7  6  2  0  0  0  0
  7  4  1  0  0  0  0
  8  7  1  0  0  0  0
  9 10  1  0  0  0  0
  9  8  2  0  0  0  0
 10  5  2  0  0  0  0
 13  9  1  0  0  0  0
 14 15  1  0  0  0  0
 15 16  1  0  0  0  0
 15 18  1  0  0  0  0
 17 15  1  0  0  0  0
 19  1  1  1  0  0  0
 20 19  1  0  0  0  0
 21 31  1  0  0  0  0
 21 22  2  0  0  0  0
 22 33  1  0  0  0  0
 23 22  1  0  0  0  0
 23 27  1  0  0  0  0
 24 25  1  1  0  0  0
 24 23  1  0  0  0  0
 24 27  1  0  0  0  0
 26 20  1  6  0  0  0
 26 19  1  0  0  0  0
 26 24  1  0  0  0  0
 26 27  1  0  0  0  0
 27 28  1  1  0  0  0
 29 21  1  0  0  0  0
 29 28  1  0  0  0  0
 30 29  1  0  0  0  0
 32 31  1  0  0  0  0
 33 35  1  0  0  0  0
 34 33  2  0  0  0  0
 35 36  1  0  0  0  0
M  END
>  <minimizedAffinity>
-5.58827782

$$$$

 OpenBabel03242519433D

 36 40  0  0  1  0  0  0  0  0999 V2000
   38.1640   26.7660   43.0930 O   0  0  0  0  0  0  0  0  0  0  0  0
   40.3410   25.4100   43.5830 O   0  0  0  0  0  0  0  0  0  0  0  0
   39.3000   25.7120   42.4990 P   0  0  2  0  0  0  0  0  0  0  0  0
   40.0890   26.4300   41.1580 O   0  0  0  0  0  0  0  0  0  0  0  0
   43.0600   24.7910   39.8220 C   0  0  0  0  0  0  0  0  0  0  0  0
   42.2300   25.6010   40.6310 C   0  0  0  0  0  0  0  0  0  0  0  0
   40.8630   25.6270   40.3460 C   0  0  0  0  0  0  0  0  0  0  0  0
   40.3980   24.8830   39.3180 N   0  0  0  0  0  0  0  0  0  0  0  0
   41.2100   24.1160   38.5570 C   0  0  0  0  0  0  0  0  0  0  0  0
   42.5270   24.0610   38.7940 N   0  0  0  0  0  0  0  0  0  0  0  0
   44.1180   24.7460   40.0110 H   0  0  0  0  0  0  0  0  0  0  0  0
   42.7200   26.1360   41.4070 H   0  0  0  0  0  0  0  0  0  0  0  0
   40.7110   23.5720   37.7680 H   0  0  0  0  0  0  0  0  0  0  0  0
   38.6590   24.2650   42.0170 O   0  0  0  0  0  0  0  0  0  0  0  0
   37.3670   24.3790   41.5280 C   0  0  0  0  0  0  0  0  0  0  0  0
   36.4220   24.5410   42.5300 F   0  0  0  0  0  0  0  0  0  0  0  0
   37.3030   25.3580   40.5880 F   0  0  0  0  0  0  0  0  0  0  0  0
   37.0740   23.1640   40.9240 F   0  0  0  0  0  0  0  0  0  0  0  0
   38.1340   28.1330   42.9990 C   0  0  1  0  0  3  0  0  0  0  0  0
   37.5410   28.8250   43.9570 O   0  0  0  0  0  0  0  0  0  0  0  0
   39.7500   32.5050   40.5370 C   0  0  0  0  0  0  0  0  0  0  0  0
   38.5670   31.9880   40.3290 C   0  0  0  0  0  0  0  0  0  0  0  0
   38.1860   30.7800   40.9690 N   0  0  0  0  0  0  0  0  0  0  0  0
   37.2130   29.9790   41.6180 C   0  0  2  0  0  0  0  0  0  0  0  0
   35.9680   29.9050   41.3560 O   0  0  0  0  0  1  0  0  0  0  0  0
   38.3440   29.4930   42.4930 C   0  0  2  0  0  0  0  0  0  0  0  0
   39.0600   29.6600   41.1810 C   0  0  2  0  0  0  0  0  0  0  0  0
   40.7930   30.0880   41.2820 S   0  0  0  0  0  0  0  0  0  0  0  0
   40.7190   31.8750   41.4310 C   0  0  0  0  0  3  0  0  0  0  0  0
   40.3890   32.0840   42.4910 H   0  0  0  0  0  0  0  0  0  0  0  0
   40.1200   33.7470   39.8640 C   0  0  0  0  0  2  0  0  0  0  0  0
   41.1260   34.1260   40.1500 H   0  0  0  0  0  0  0  0  0  0  0  0
   37.6050   32.6250   39.4390 C   0  0  0  0  0  0  0  0  0  0  0  0
   37.3790   32.3490   38.2550 O   0  0  0  0  0  0  0  0  0  0  0  0
   36.7610   33.6700   39.7700 O   0  0  0  0  0  0  0  0  0  0  0  0
   36.5880   34.4780   39.2100 H   0  0  0  0  0  0  0  0  0  0  0  0
  3  1  1  0  0  0  0
  3  2  2  1  0  0  0
  4  3  1  0  0  0  0
  5 11  1  0  0  0  0
  5  6  1  0  0  0  0
  6 12  1  0  0  0  0
  7  6  2  0  0  0  0
  7  4  1  0  0  0  0
  8  7  1  0  0  0  0
  9 10  1  0  0  0  0
  9  8  2  0  0  0  0
 10  5  2  0  0  0  0
 13  9  1  0  0  0  0
 14  3  1  0  0  0  0
 15 14  1  0  0  0  0
 15 16  1  0  0  0  0
 17 15  1  0  0  0  0
 18 15  1  0  0  0  0
 19  1  1  1  0  0  0
 19 20  1  0  0  0  0
 21 29  1  0  0  0  0
 22 21  2  0  0  0  0
 22 23  1  0  0  0  0
 23 27  1  0  0  0  0
 23 24  1  0  0  0  0
 24 25  1  6  0  0  0
 24 26  1  0  0  0  0
 26 19  1  0  0  0  0
 26 20  1  1  0  0  0
 27 28  1  6  0  0  0
 27 24  1  0  0  0  0
 27 26  1  0  0  0  0
 28 29  1  0  0  0  0
 29 30  1  0  0  0  0
 31 32  1  0  0  0  0
 31 21  1  0  0  0  0
 33 35  1  0  0  0  0
 33 22  1  0  0  0  0
 34 33  2  0  0  0  0
 36 35  1  0  0  0  0
M  END
>  <minimizedAffinity>
-5.57236958

$$$$

 OpenBabel03242519433D

 36 40  0  0  1  0  0  0  0  0999 V2000
   38.5330   30.5880   40.6960 O   0  0  0  0  0  0  0  0  0  0  0  0
   36.0160   31.0190   41.2360 O   0  0  0  0  0  0  0  0  0  0  0  0
   36.9650   30.4710   40.1660 P   0  0  2  0  0  0  0  0  0  0  0  0
   36.5870   28.8240   39.8800 O   0  0  0  0  0  0  0  0  0  0  0  0
   37.4010   26.6920   42.7230 C   0  0  0  0  0  0  0  0  0  0  0  0
   36.7610   27.6670   41.9230 C   0  0  0  0  0  0  0  0  0  0  0  0
   37.2370   27.8640   40.6250 C   0  0  0  0  0  0  0  0  0  0  0  0
   38.2800   27.1200   40.1950 N   0  0  0  0  0  0  0  0  0  0  0  0
   38.8770   26.1930   40.9770 C   0  0  0  0  0  0  0  0  0  0  0  0
   38.4540   25.9710   42.2280 N   0  0  0  0  0  0  0  0  0  0  0  0
   37.0620   26.5120   43.7280 H   0  0  0  0  0  0  0  0  0  0  0  0
   35.9530   28.1830   42.3800 H   0  0  0  0  0  0  0  0  0  0  0  0
   39.7000   25.6680   40.5110 H   0  0  0  0  0  0  0  0  0  0  0  0
   36.6810   31.3230   38.7760 O   0  0  0  0  0  0  0  0  0  0  0  0
   37.1780   30.6970   37.6440 C   0  0  0  0  0  0  0  0  0  0  0  0
   38.3760   30.0350   37.8740 F   0  0  0  0  0  0  0  0  0  0  0  0
   36.2330   29.8890   37.0970 F   0  0  0  0  0  0  0  0  0  0  0  0
   37.4740   31.7090   36.7400 F   0  0  0  0  0  0  0  0  0  0  0  0
   39.3760   31.6670   40.6410 C   0  0  1  0  0  3  0  0  0  0  0  0
   39.0150   32.7880   41.2430 O   0  0  0  0  0  0  0  0  0  0  0  0
   44.1590   33.8110   40.0810 C   0  0  0  0  0  0  0  0  0  0  0  0
   43.4670   33.3820   39.0590 C   0  0  0  0  0  0  0  0  0  0  0  0
   42.2040   32.7610   39.2520 N   0  0  0  0  0  0  0  0  0  0  0  0
   40.8610   32.5430   38.8550 C   0  0  2  0  0  0  0  0  0  0  0  0
   40.4060   32.4590   37.6680 O   0  0  0  0  0  1  0  0  0  0  0  0
   40.5390   32.5040   40.3300 C   0  0  2  0  0  0  0  0  0  0  0  0
   41.8970   31.8580   40.3260 C   0  0  2  0  0  0  0  0  0  0  0  0
   42.8850   32.1020   41.7960 S   0  0  0  0  0  0  0  0  0  0  0  0
   43.6700   33.6780   41.4520 C   0  0  0  0  0  3  0  0  0  0  0  0
   42.8710   34.4620   41.6040 H   0  0  0  0  0  0  0  0  0  0  0  0
   45.4560   34.4420   39.8570 C   0  0  0  0  0  2  0  0  0  0  0  0
   45.9360   34.8160   40.7880 H   0  0  0  0  0  0  0  0  0  0  0  0
   43.9600   33.5210   37.6940 C   0  0  0  0  0  0  0  0  0  0  0  0
   44.8690   32.8810   37.1550 O   0  0  0  0  0  0  0  0  0  0  0  0
   43.4870   34.4130   36.7480 O   0  0  0  0  0  0  0  0  0  0  0  0
   44.0510   34.9730   36.1450 H   0  0  0  0  0  0  0  0  0  0  0  0
  3  1  1  0  0  0  0
  3  2  2  1  0  0  0
  4  3  1  0  0  0  0
  4  7  1  0  0  0  0
  5 11  1  0  0  0  0
  6 12  1  0  0  0  0
  6  5  2  0  0  0  0
  7  6  1  0  0  0  0
  8  7  2  0  0  0  0
  8  9  1  0  0  0  0
  9 10  2  0  0  0  0
 10  5  1  0  0  0  0
 13  9  1  0  0  0  0
 14  3  1  0  0  0  0
 15 16  1  0  0  0  0
 15 14  1  0  0  0  0
 17 15  1  0  0  0  0
 18 15  1  0  0  0  0
 19  1  1  1  0  0  0
 19 20  1  0  0  0  0
 21 29  1  0  0  0  0
 22 23  1  0  0  0  0
 22 21  2  0  0  0  0
 23 27  1  0  0  0  0
 24 25  1  6  0  0  0
 24 23  1  0  0  0  0
 24 27  1  0  0  0  0
 24 26  1  0  0  0  0
 26 19  1  0  0  0  0
 26 20  1  1  0  0  0
 27 26  1  0  0  0  0
 27 28  1  1  0  0  0
 29 30  1  0  0  0  0
 29 28  1  0  0  0  0
 31 21  1  0  0  0  0
 31 32  1  0  0  0  0
 33 22  1  0  0  0  0
 34 33  2  0  0  0  0
 35 33  1  0  0  0  0
 36 35  1  0  0  0  0
M  END
>  <minimizedAffinity>
-5.54650974

$$$$

 OpenBabel03242519433D

 36 40  0  0  1  0  0  0  0  0999 V2000
   37.3530   30.1050   41.2210 O   0  0  0  0  0  0  0  0  0  0  0  0
   38.8520   28.3390   40.0180 O   0  0  0  0  0  0  0  0  0  0  0  0
   37.5600   28.5070   40.8240 P   0  0  2  0  0  0  0  0  0  0  0  0
   36.2370   27.9880   39.8660 O   0  0  0  0  0  0  0  0  0  0  0  0
   36.2890   29.5490   36.5700 C   0  0  0  0  0  0  0  0  0  0  0  0
   36.1940   29.3880   37.9720 C   0  0  0  0  0  0  0  0  0  0  0  0
   36.3370   28.1010   38.4950 C   0  0  0  0  0  0  0  0  0  0  0  0
   36.5580   27.0740   37.6440 N   0  0  0  0  0  0  0  0  0  0  0  0
   36.6440   27.2510   36.3070 C   0  0  0  0  0  0  0  0  0  0  0  0
   36.5130   28.4670   35.7620 N   0  0  0  0  0  0  0  0  0  0  0  0
   36.1840   30.5250   36.1310 H   0  0  0  0  0  0  0  0  0  0  0  0
   36.0190   30.2750   38.5290 H   0  0  0  0  0  0  0  0  0  0  0  0
   36.8230   26.3470   35.7400 H   0  0  0  0  0  0  0  0  0  0  0  0
   37.6720   27.5150   42.1430 O   0  0  0  0  0  0  0  0  0  0  0  0
   38.2690   28.1280   43.2340 C   0  0  0  0  0  0  0  0  0  0  0  0
   39.3960   28.8610   42.8920 F   0  0  0  0  0  0  0  0  0  0  0  0
   37.3560   28.8630   43.9210 F   0  0  0  0  0  0  0  0  0  0  0  0
   38.7200   27.1020   44.0550 F   0  0  0  0  0  0  0  0  0  0  0  0
   38.0900   31.1880   40.8200 C   0  0  1  0  0  3  0  0  0  0  0  0
   37.4880   32.3600   40.7010 O   0  0  0  0  0  0  0  0  0  0  0  0
   42.8120   33.3020   39.8140 C   0  0  0  0  0  0  0  0  0  0  0  0
   42.0460   32.8330   38.8650 C   0  0  0  0  0  0  0  0  0  0  0  0
   40.8030   32.2220   39.1780 N   0  0  0  0  0  0  0  0  0  0  0  0
   39.4350   31.9880   38.8920 C   0  0  2  0  0  0  0  0  0  0  0  0
   38.8920   31.8570   37.7470 O   0  0  0  0  0  1  0  0  0  0  0  0
   39.2250   32.0100   40.3880 C   0  0  2  0  0  0  0  0  0  0  0  0
   40.5800   31.3640   40.3080 C   0  0  2  0  0  0  0  0  0  0  0  0
   41.6750   31.6660   41.6880 S   0  0  0  0  0  0  0  0  0  0  0  0
   42.4290   33.2260   41.2210 C   0  0  0  0  0  3  0  0  0  0  0  0
   41.6420   34.0170   41.4020 H   0  0  0  0  0  0  0  0  0  0  0  0
   44.0880   33.9220   39.4670 C   0  0  0  0  0  2  0  0  0  0  0  0
   44.6360   34.3330   40.3420 H   0  0  0  0  0  0  0  0  0  0  0  0
   42.4350   32.9150   37.4620 C   0  0  0  0  0  0  0  0  0  0  0  0
   42.8720   32.0060   36.7490 O   0  0  0  0  0  0  0  0  0  0  0  0
   42.3810   34.0490   36.6710 O   0  0  0  0  0  0  0  0  0  0  0  0
   43.0960   34.3560   36.0460 H   0  0  0  0  0  0  0  0  0  0  0  0
  3  2  2  6  0  0  0
  3  1  1  0  0  0  0
  3 14  1  0  0  0  0
  4  3  1  0  0  0  0
  5  6  1  0  0  0  0
  6  7  2  0  0  0  0
  6 12  1  0  0  0  0
  7  4  1  0  0  0  0
  8  7  1  0  0  0  0
  9  8  2  0  0  0  0
 10  9  1  0  0  0  0
 10  5  2  0  0  0  0
 11  5  1  0  0  0  0
 13  9  1  0  0  0  0
 14 15  1  0  0  0  0
 15 17  1  0  0  0  0
 15 18  1  0  0  0  0
 16 15  1  0  0  0  0
 19  1  1  1  0  0  0
 20 19  1  0  0  0  0
 21 29  1  0  0  0  0
 22 23  1  0  0  0  0
 22 21  2  0  0  0  0
 23 27  1  0  0  0  0
 24 25  1  6  0  0  0
 24 23  1  0  0  0  0
 24 27  1  0  0  0  0
 24 26  1  0  0  0  0
 26 20  1  1  0  0  0
 26 19  1  0  0  0  0
 27 26  1  0  0  0  0
 27 28  1  1  0  0  0
 29 30  1  0  0  0  0
 29 28  1  0  0  0  0
 31 21  1  0  0  0  0
 31 32  1  0  0  0  0
 33 22  1  0  0  0  0
 34 33  2  0  0  0  0
 35 33  1  0  0  0  0
 36 35  1  0  0  0  0
M  END
>  <minimizedAffinity>
-5.52561522

$$$$

 OpenBabel03242519433D

 36 40  0  0  1  0  0  0  0  0999 V2000
   38.1230   30.2680   41.6300 O   0  0  0  0  0  0  0  0  0  0  0  0
   40.1450   29.0340   42.7260 O   0  0  0  0  0  0  0  0  0  0  0  0
   38.7160   28.8320   42.2130 P   0  0  2  0  0  0  0  0  0  0  0  0
   38.7390   27.6750   40.9490 O   0  0  0  0  0  0  0  0  0  0  0  0
   38.7310   28.6190   37.4270 C   0  0  0  0  0  0  0  0  0  0  0  0
   38.2750   28.2250   38.7060 C   0  0  0  0  0  0  0  0  0  0  0  0
   39.2250   28.0600   39.7180 C   0  0  0  0  0  0  0  0  0  0  0  0
   40.5260   28.2820   39.4290 N   0  0  0  0  0  0  0  0  0  0  0  0
   40.9390   28.6570   38.1980 C   0  0  0  0  0  0  0  0  0  0  0  0
   40.0640   28.8270   37.2000 N   0  0  0  0  0  0  0  0  0  0  0  0
   38.0280   28.7550   36.6230 H   0  0  0  0  0  0  0  0  0  0  0  0
   37.2270   28.0830   38.8010 H   0  0  0  0  0  0  0  0  0  0  0  0
   42.0070   28.8020   38.1030 H   0  0  0  0  0  0  0  0  0  0  0  0
   37.8260   28.2200   43.4670 O   0  0  0  0  0  0  0  0  0  0  0  0
   36.7190   27.4990   43.0470 C   0  0  0  0  0  0  0  0  0  0  0  0
   35.7780   27.3200   44.0510 F   0  0  0  0  0  0  0  0  0  0  0  0
   36.1880   28.0590   41.9290 F   0  0  0  0  0  0  0  0  0  0  0  0
   37.1820   26.2290   42.7310 F   0  0  0  0  0  0  0  0  0  0  0  0
   38.8170   31.3440   41.1420 C   0  0  1  0  0  3  0  0  0  0  0  0
   38.1570   32.4570   40.8670 O   0  0  0  0  0  0  0  0  0  0  0  0
   43.4720   33.5150   39.9550 C   0  0  0  0  0  0  0  0  0  0  0  0
   42.6690   33.0480   39.0350 C   0  0  0  0  0  0  0  0  0  0  0  0
   41.4470   32.4220   39.3950 N   0  0  0  0  0  0  0  0  0  0  0  0
   40.0700   32.1780   39.1670 C   0  0  2  0  0  0  0  0  0  0  0  0
   39.4790   32.0520   38.0450 O   0  0  0  0  0  1  0  0  0  0  0  0
   39.9240   32.1820   40.6700 C   0  0  2  0  0  0  0  0  0  0  0  0
   41.2810   31.5500   40.5240 C   0  0  2  0  0  0  0  0  0  0  0  0
   42.4330   31.8490   41.8590 S   0  0  0  0  0  0  0  0  0  0  0  0
   43.1500   33.4210   41.3770 C   0  0  0  0  0  3  0  0  0  0  0  0
   42.3640   34.2020   41.6000 H   0  0  0  0  0  0  0  0  0  0  0  0
   44.7250   34.1520   39.5600 C   0  0  0  0  0  2  0  0  0  0  0  0
   45.3070   34.5590   40.4150 H   0  0  0  0  0  0  0  0  0  0  0  0
   42.9960   33.1490   37.6180 C   0  0  0  0  0  0  0  0  0  0  0  0
   43.6800   32.3690   36.9470 O   0  0  0  0  0  0  0  0  0  0  0  0
   42.5890   34.1570   36.7620 O   0  0  0  0  0  0  0  0  0  0  0  0
   43.1680   34.6230   36.0960 H   0  0  0  0  0  0  0  0  0  0  0  0
  1  3  1  0  0  0  0
  3  2  2  1  0  0  0
  3 14  1  0  0  0  0
  4  3  1  0  0  0  0
  5  6  1  0  0  0  0
  6 12  1  0  0  0  0
  6  7  2  0  0  0  0
  7  4  1  0  0  0  0
  8  7  1  0  0  0  0
  9  8  2  0  0  0  0
 10  5  2  0  0  0  0
 10  9  1  0  0  0  0
 11  5  1  0  0  0  0
 13  9  1  0  0  0  0
 15 14  1  0  0  0  0
 15 16  1  0  0  0  0
 17 15  1  0  0  0  0
 18 15  1  0  0  0  0
 19  1  1  1  0  0  0
 20 19  1  0  0  0  0
 21 29  1  0  0  0  0
 22 23  1  0  0  0  0
 22 21  2  0  0  0  0
 23 27  1  0  0  0  0
 24 25  1  6  0  0  0
 24 23  1  0  0  0  0
 24 27  1  0  0  0  0
 24 26  1  0  0  0  0
 26 20  1  1  0  0  0
 26 19  1  0  0  0  0
 27 26  1  0  0  0  0
 27 28  1  1  0  0  0
 29 30  1  0  0  0  0
 29 28  1  0  0  0  0
 31 21  1  0  0  0  0
 31 32  1  0  0  0  0
 33 22  1  0  0  0  0
 34 33  2  0  0  0  0
 35 33  1  0  0  0  0
 36 35  1  0  0  0  0
M  END
>  <minimizedAffinity>
-5.50413799

$$$$

 OpenBabel03242519433D

 36 40  0  0  1  0  0  0  0  0999 V2000
   39.4440   28.7860   41.0110 O   0  0  0  0  0  0  0  0  0  0  0  0
   39.1050   30.6570   42.7990 O   0  0  0  0  0  0  0  0  0  0  0  0
   38.5090   29.3530   42.2590 P   0  0  2  0  0  0  0  0  0  0  0  0
   38.4840   28.1910   43.5190 O   0  0  0  0  0  0  0  0  0  0  0  0
   41.0990   25.6530   43.6430 C   0  0  0  0  0  0  0  0  0  0  0  0
   40.4100   26.8730   43.8350 C   0  0  0  0  0  0  0  0  0  0  0  0
   39.1200   26.9860   43.3110 C   0  0  0  0  0  0  0  0  0  0  0  0
   38.5930   25.9320   42.6490 N   0  0  0  0  0  0  0  0  0  0  0  0
   39.2700   24.7760   42.4770 C   0  0  0  0  0  0  0  0  0  0  0  0
   40.5090   24.6230   42.9620 N   0  0  0  0  0  0  0  0  0  0  0  0
   42.0950   25.5300   44.0320 H   0  0  0  0  0  0  0  0  0  0  0  0
   40.9370   27.6230   44.3720 H   0  0  0  0  0  0  0  0  0  0  0  0
   38.7340   24.0130   41.9300 H   0  0  0  0  0  0  0  0  0  0  0  0
   36.9480   29.6750   41.8130 O   0  0  0  0  0  0  0  0  0  0  0  0
   36.2310   28.5350   41.4850 C   0  0  0  0  0  0  0  0  0  0  0  0
   36.8640   27.7540   40.5280 F   0  0  0  0  0  0  0  0  0  0  0  0
   35.9200   27.8340   42.6070 F   0  0  0  0  0  0  0  0  0  0  0  0
   35.0540   28.9750   40.8950 F   0  0  0  0  0  0  0  0  0  0  0  0
   40.6990   29.1850   40.6340 C   0  0  1  0  0  3  0  0  0  0  0  0
   41.7430   28.4910   41.0580 O   0  0  0  0  0  0  0  0  0  0  0  0
   44.2550   31.3360   37.3920 C   0  0  0  0  0  0  0  0  0  0  0  0
   43.2900   32.0370   37.9260 C   0  0  0  0  0  0  0  0  0  0  0  0
   42.3190   31.4130   38.7520 N   0  0  0  0  0  0  0  0  0  0  0  0
   41.4760   31.4230   39.8920 C   0  0  2  0  0  0  0  0  0  0  0  0
   40.8490   32.4170   40.3850 O   0  0  0  0  0  1  0  0  0  0  0  0
   41.7810   29.9490   40.0040 C   0  0  2  0  0  0  0  0  0  0  0  0
   41.7570   30.1130   38.5100 C   0  0  2  0  0  0  0  0  0  0  0  0
   42.8210   29.0150   37.5830 S   0  0  0  0  0  0  0  0  0  0  0  0
   44.3820   29.8990   37.6220 C   0  0  0  0  0  3  0  0  0  0  0  0
   44.7920   29.7570   38.6650 H   0  0  0  0  0  0  0  0  0  0  0  0
   45.2400   32.0000   36.5430 C   0  0  0  0  0  2  0  0  0  0  0  0
   46.0460   31.3230   36.1820 H   0  0  0  0  0  0  0  0  0  0  0  0
   43.1730   33.4720   37.6940 C   0  0  0  0  0  0  0  0  0  0  0  0
   43.6250   34.3850   38.3930 O   0  0  0  0  0  0  0  0  0  0  0  0
   42.5220   34.0710   36.6310 O   0  0  0  0  0  0  0  0  0  0  0  0
   41.9050   34.8520   36.6930 H   0  0  0  0  0  0  0  0  0  0  0  0
  1  3  1  0  0  0  0
  3  2  2  1  0  0  0
  3  4  1  0  0  0  0
  5  6  1  0  0  0  0
  5 11  1  0  0  0  0
  6 12  1  0  0  0  0
  7  4  1  0  0  0  0
  7  6  2  0  0  0  0
  8  7  1  0  0  0  0
  9  8  2  0  0  0  0
  9 10  1  0  0  0  0
 10  5  2  0  0  0  0
 13  9  1  0  0  0  0
 14  3  1  0  0  0  0
 15 14  1  0  0  0  0
 15 17  1  0  0  0  0
 16 15  1  0  0  0  0
 18 15  1  0  0  0  0
 19  1  1  6  0  0  0
 19 20  1  0  0  0  0
 21 29  1  0  0  0  0
 21 22  2  0  0  0  0
 22 23  1  0  0  0  0
 23 24  1  0  0  0  0
 24 26  1  0  0  0  0
 24 25  1  1  0  0  0
 26 19  1  0  0  0  0
 26 20  1  1  0  0  0
 27 28  1  6  0  0  0
 27 23  1  0  0  0  0
 27 24  1  0  0  0  0
 27 26  1  0  0  0  0
 28 29  1  0  0  0  0
 29 30  1  0  0  0  0
 31 21  1  0  0  0  0
 32 31  1  0  0  0  0
 33 22  1  0  0  0  0
 33 34  2  0  0  0  0
 35 36  1  0  0  0  0
 35 33  1  0  0  0  0
M  END
>  <minimizedAffinity>
-5.49032402

$$$$

 OpenBabel03242519433D

 36 40  0  0  1  0  0  0  0  0999 V2000
   39.9770   32.3550   41.2620 O   0  0  0  0  0  0  0  0  0  0  0  0
   40.7290   31.4290   38.9400 O   0  0  0  0  0  0  0  0  0  0  0  0
   40.0050   32.5960   39.6210 P   0  0  2  0  0  0  0  0  0  0  0  0
   40.8480   34.0470   39.2770 O   0  0  0  0  0  0  0  0  0  0  0  0
   44.2540   34.0410   37.9760 C   0  0  0  0  0  0  0  0  0  0  0  0
   42.8410   34.0680   38.0220 C   0  0  0  0  0  0  0  0  0  0  0  0
   42.2260   34.0200   39.2760 C   0  0  0  0  0  0  0  0  0  0  0  0
   43.0030   33.9500   40.3790 N   0  0  0  0  0  0  0  0  0  0  0  0
   44.3530   33.9240   40.3110 C   0  0  0  0  0  0  0  0  0  0  0  0
   44.9850   33.9680   39.1310 N   0  0  0  0  0  0  0  0  0  0  0  0
   44.7630   34.0760   37.0280 H   0  0  0  0  0  0  0  0  0  0  0  0
   42.3480   34.1250   37.0830 H   0  0  0  0  0  0  0  0  0  0  0  0
   44.8550   33.8670   41.2670 H   0  0  0  0  0  0  0  0  0  0  0  0
   38.4950   32.6940   38.9500 O   0  0  0  0  0  0  0  0  0  0  0  0
   37.6030   33.4180   39.7260 C   0  0  0  0  0  0  0  0  0  0  0  0
   38.2300   34.3310   40.5610 F   0  0  0  0  0  0  0  0  0  0  0  0
   36.6540   33.9930   38.9420 F   0  0  0  0  0  0  0  0  0  0  0  0
   36.9870   32.4990   40.5650 F   0  0  0  0  0  0  0  0  0  0  0  0
   39.7630   31.1910   41.9520 C   0  0  1  0  0  3  0  0  0  0  0  0
   40.1390   31.1220   43.2180 O   0  0  0  0  0  0  0  0  0  0  0  0
   37.4760   26.4480   42.2010 C   0  0  0  0  0  0  0  0  0  0  0  0
   38.7140   26.6020   41.8090 C   0  0  0  0  0  0  0  0  0  0  0  0
   39.2800   27.8990   41.7030 N   0  0  0  0  0  0  0  0  0  0  0  0
   40.3750   28.7860   41.8600 C   0  0  2  0  0  0  0  0  0  0  0  0
   41.6100   28.5370   41.6680 O   0  0  0  0  0  1  0  0  0  0  0  0
   39.3490   29.8190   42.2620 C   0  0  2  0  0  0  0  0  0  0  0  0
   38.5800   29.0560   41.2190 C   0  0  2  0  0  0  0  0  0  0  0  0
   36.8070   28.9900   41.4430 S   0  0  0  0  0  0  0  0  0  0  0  0
   36.6320   27.5870   42.5490 C   0  0  0  0  0  3  0  0  0  0  0  0
   36.9580   27.9540   43.5680 H   0  0  0  0  0  0  0  0  0  0  0  0
   36.9150   25.1030   42.2980 C   0  0  0  0  0  2  0  0  0  0  0  0
   35.8740   25.0820   42.6900 H   0  0  0  0  0  0  0  0  0  0  0  0
   39.5510   25.4590   41.4660 C   0  0  0  0  0  0  0  0  0  0  0  0
   39.7150   24.9560   40.3490 O   0  0  0  0  0  0  0  0  0  0  0  0
   40.3210   24.7240   42.3500 O   0  0  0  0  0  0  0  0  0  0  0  0
   40.3820   23.7280   42.3780 H   0  0  0  0  0  0  0  0  0  0  0  0
  3  2  2  6  0  0  0
  3  1  1  0  0  0  0
  4  3  1  0  0  0  0
  5  6  2  0  0  0  0
  5 10  1  0  0  0  0
  6  7  1  0  0  0  0
  7  4  1  0  0  0  0
  7  8  2  0  0  0  0
  9  8  1  0  0  0  0
  9 13  1  0  0  0  0
 10  9  2  0  0  0  0
 11  5  1  0  0  0  0
 12  6  1  0  0  0  0
 14  3  1  0  0  0  0
 14 15  1  0  0  0  0
 15 16  1  0  0  0  0
 15 18  1  0  0  0  0
 17 15  1  0  0  0  0
 19  1  1  1  0  0  0
 19 26  1  0  0  0  0
 19 20  1  0  0  0  0
 21 31  1  0  0  0  0
 21 29  1  0  0  0  0
 22 21  2  0  0  0  0
 23 22  1  0  0  0  0
 23 24  1  0  0  0  0
 24 25  1  6  0  0  0
 24 26  1  0  0  0  0
 26 20  1  1  0  0  0
 27 28  1  6  0  0  0
 27 23  1  0  0  0  0
 27 24  1  0  0  0  0
 27 26  1  0  0  0  0
 28 29  1  0  0  0  0
 29 30  1  0  0  0  0
 31 32  1  0  0  0  0
 33 22  1  0  0  0  0
 33 35  1  0  0  0  0
 34 33  2  0  0  0  0
 35 36  1  0  0  0  0
M  END
>  <minimizedAffinity>
-5.48870277

$$$$
