
 OpenBabel03242520013D

 37 40  0  0  1  0  0  0  0  0999 V2000
   44.6690   33.1120   41.2000 Br  0  0  0  0  0  0  0  0  0  0  0  0
   46.3280   34.0280   41.0300 C   0  0  0  0  0  0  0  0  0  0  0  0
   46.8700   34.7700   42.0630 C   0  0  0  0  0  0  0  0  0  0  0  0
   48.0820   35.4100   41.8450 C   0  0  0  0  0  0  0  0  0  0  0  0
   48.7540   35.3270   40.6410 C   0  0  0  0  0  0  0  0  0  0  0  0
   48.2150   34.5850   39.6060 C   0  0  0  0  0  0  0  0  0  0  0  0
   47.0030   33.9520   39.8420 C   0  0  0  0  0  0  0  0  0  0  0  0
   48.4820   35.9760   42.6510 H   0  0  0  0  0  0  0  0  0  0  0  0
   49.6990   35.8700   40.5770 H   0  0  0  0  0  0  0  0  0  0  0  0
   48.7560   34.5300   38.6620 H   0  0  0  0  0  0  0  0  0  0  0  0
   44.5100   35.7980   44.8340 C   0  0  0  0  0  0  0  0  0  0  0  0
   45.2000   35.7870   43.6120 C   0  0  0  0  0  0  0  0  0  0  0  0
   46.1310   34.8210   43.3140 C   0  0  0  0  0  0  0  0  0  0  0  0
   46.3200   33.8830   44.3010 N   0  0  0  0  0  0  0  0  0  0  0  0
   45.6570   33.9020   45.4630 C   0  0  0  0  0  0  0  0  0  0  0  0
   44.7650   34.8400   45.7310 N   0  0  0  0  0  0  0  0  0  0  0  0
   43.7800   36.5520   45.0740 H   0  0  0  0  0  0  0  0  0  0  0  0
   44.9910   36.5530   42.9030 H   0  0  0  0  0  0  0  0  0  0  0  0
   45.9710   33.0680   46.0820 H   0  0  0  0  0  0  0  0  0  0  0  0
   46.4730   33.1620   38.7520 C   0  0  1  0  0  3  0  0  0  0  0  0
   45.2540   33.3320   38.3770 O   0  0  0  0  0  1  0  0  0  0  0  0
   46.7990   29.4830   34.8170 C   0  0  0  0  0  0  0  0  0  0  0  0
   47.1210   30.7430   34.7520 C   0  0  0  0  0  0  0  0  0  0  0  0
   47.1220   31.5780   35.8750 N   0  0  0  0  0  0  0  0  0  0  0  0
   47.7090   32.6320   36.6520 C   0  0  0  0  0  0  0  0  0  0  0  0
   48.4730   33.6060   36.3370 O   0  0  0  0  0  0  0  0  0  0  0  0
   47.0680   32.1060   37.8860 C   0  0  2  0  0  3  0  0  0  0  0  0
   46.0850   31.4880   36.8880 C   0  0  2  0  0  3  0  0  0  0  0  0
   45.7920   29.7560   37.3610 S   0  0  0  0  0  0  0  0  0  0  0  0
   46.3990   28.7380   36.0180 C   0  0  0  0  0  3  0  0  0  0  0  0
   45.5370   28.0780   35.7070 H   0  0  0  0  0  0  0  0  0  0  0  0
   46.8500   28.7440   33.5310 C   0  0  0  0  0  2  0  0  0  0  0  0
   46.4390   29.3730   32.6970 H   0  0  0  0  0  0  0  0  0  0  0  0
   47.4900   31.2700   33.4450 C   0  0  0  0  0  0  0  0  0  0  0  0
   47.7220   32.5030   33.2210 O   0  0  0  0  0  0  0  0  0  0  0  0
   47.8180   31.5500   32.1470 O   0  0  0  0  0  0  0  0  0  0  0  0
   47.9150   30.8380   31.4150 H   0  0  0  0  0  0  0  0  0  0  0  0
  2  1  1  0  0  0  0
  2  3  1  0  0  0  0
  3 13  1  0  0  0  0
  4  3  2  0  0  0  0
  4  8  1  0  0  0  0
  5  4  1  0  0  0  0
  6  7  1  0  0  0  0
  6  5  2  0  0  0  0
  7  2  2  0  0  0  0
  9  5  1  0  0  0  0
 10  6  1  0  0  0  0
 11 17  1  0  0  0  0
 11 16  1  0  0  0  0
 12 11  2  0  0  0  0
 13 12  1  0  0  0  0
 13 14  2  0  0  0  0
 14 15  1  0  0  0  0
 15 16  2  0  0  0  0
 15 19  1  0  0  0  0
 18 12  1  0  0  0  0
 20 21  1  6  0  0  0
 20  7  1  0  0  0  0
 22 30  1  0  0  0  0
 23 22  2  0  0  0  0
 23 24  1  0  0  0  0
 24 25  1  0  0  0  0
 24 28  1  0  0  0  0
 25 27  1  0  0  0  0
 26 25  2  0  0  0  0
 27 20  1  1  0  0  0
 28 29  1  1  0  0  0
 28 27  1  0  0  0  0
 30 29  1  0  0  0  0
 31 30  1  0  0  0  0
 32 22  1  0  0  0  0
 33 32  1  0  0  0  0
 34 23  1  0  0  0  0
 35 34  2  0  0  0  0
 36 34  1  0  0  0  0
 37 36  1  0  0  0  0
M  END
>  <minimizedAffinity>
-6.6324892

>  <minimizedRMSD>
3.54557991

$$$$
