
 OpenBabel03242520453D

 29 31  0  0  1  0  0  0  0  0999 V2000
   48.7850   31.7610   36.6800 C   0  0  0  0  0  0  0  0  0  0  0  0
   49.5890   31.9590   37.7110 C   0  0  0  0  0  0  0  0  0  0  0  0
   49.0650   32.5780   38.8780 N   0  0  0  0  0  0  0  0  0  0  0  0
   48.9300   32.5420   40.3220 C   0  0  0  0  0  0  0  0  0  0  0  0
   49.5790   31.9740   41.2680 O   0  0  0  0  0  0  0  0  0  0  0  0
   47.7200   33.4430   40.2310 C   0  0  2  0  0  3  0  0  0  0  0  0
   48.2750   33.8200   38.8740 C   0  0  2  0  0  3  0  0  0  0  0  0
   47.1160   33.7070   37.4960 S   0  0  0  0  0  0  0  0  0  0  0  0
   47.3590   32.1210   36.6620 C   0  0  0  0  0  3  0  0  0  0  0  0
   46.9770   32.1350   35.6220 H   0  0  0  0  0  0  0  0  0  0  0  0
   47.7680   34.5290   41.2610 C   0  0  0  0  0  0  0  0  0  0  0  0
   48.4790   35.5220   40.9810 O   0  0  0  0  0  0  0  0  0  0  0  0
   45.0680   35.0530   43.7420 C   0  0  0  0  0  0  0  0  0  0  0  0
   45.8370   35.1500   42.5600 C   0  0  0  0  0  0  0  0  0  0  0  0
   47.0260   34.3950   42.4780 C   0  0  0  0  0  0  0  0  0  0  0  0
   47.3530   33.6200   43.5460 N   0  0  0  0  0  0  0  0  0  0  0  0
   46.5860   33.5580   44.6560 C   0  0  0  0  0  0  0  0  0  0  0  0
   45.4630   34.2720   44.7330 N   0  0  0  0  0  0  0  0  0  0  0  0
   43.8740   35.8060   43.8390 N   0  0  0  0  0  0  0  0  0  0  0  0
   45.4950   35.7970   41.7590 H   0  0  0  0  0  0  0  0  0  0  0  0
   46.8960   32.9220   45.4770 H   0  0  0  0  0  0  0  0  0  0  0  0
   44.1470   36.8230   43.9630 H   0  0  0  0  0  0  0  0  0  0  0  0
   42.8750   35.4580   43.7990 H   0  0  0  0  0  0  0  0  0  0  0  0
   49.3680   31.1310   35.4980 C   0  0  0  0  0  2  0  0  0  0  0  0
   50.1980   31.7310   35.0740 H   0  0  0  0  0  0  0  0  0  0  0  0
   50.9970   31.5770   37.6980 C   0  0  0  0  0  0  0  0  0  0  0  0
   51.8540   31.7590   38.5780 O   0  0  0  0  0  0  0  0  0  0  0  0
   51.7000   30.9230   36.7010 O   0  0  0  0  0  0  0  0  0  0  0  0
   52.5140   31.2940   36.2350 H   0  0  0  0  0  0  0  0  0  0  0  0
  1  2  2  0  0  0  0
  2  3  1  0  0  0  0
  3  4  1  0  0  0  0
  4  5  2  0  0  0  0
  6  4  1  0  0  0  0
  6 11  1  1  0  0  0
  7  8  1  6  0  0  0
  7  3  1  0  0  0  0
  7  6  1  0  0  0  0
  9  1  1  0  0  0  0
  9  8  1  0  0  0  0
 10  9  1  0  0  0  0
 11 15  1  0  0  0  0
 12 11  2  0  0  0  0
 13 19  1  0  0  0  0
 13 18  1  0  0  0  0
 14 13  2  0  0  0  0
 15 14  1  0  0  0  0
 15 16  2  0  0  0  0
 16 17  1  0  0  0  0
 17 18  2  0  0  0  0
 17 21  1  0  0  0  0
 19 22  1  0  0  0  0
 20 14  1  0  0  0  0
 23 19  1  0  0  0  0
 24  1  1  0  0  0  0
 25 24  1  0  0  0  0
 26  2  1  0  0  0  0
 26 27  2  0  0  0  0
 28 26  1  0  0  0  0
 29 28  1  0  0  0  0
M  END
>  <minimizedAffinity>
-5.21404743

>  <minimizedRMSD>
1.24762464

$$$$
