
 OpenBabel03252503093D

 34 38  0  0  1  0  0  0  0  0999 V2000
   46.8690   34.4800   42.0650 C   0  0  2  0  0  3  0  0  0  0  0  0
   48.1020   34.2450   42.3500 O   0  0  0  0  0  1  0  0  0  0  0  0
   46.0860   32.9710   37.0180 C   0  0  0  0  0  0  0  0  0  0  0  0
   45.2010   32.8250   37.9620 C   0  0  0  0  0  0  0  0  0  0  0  0
   45.3980   33.2330   39.3100 N   0  0  0  0  0  0  0  0  0  0  0  0
   44.9790   33.7570   40.5660 C   0  0  2  0  0  0  0  0  0  0  0  0
   43.8990   33.6270   41.1940 O   0  0  0  0  0  1  0  0  0  0  0  0
   46.2860   34.3980   40.6660 C   0  0  2  0  0  3  0  0  0  0  0  0
   46.6980   33.1350   39.9320 C   0  0  2  0  0  0  0  0  0  0  0  0
   48.0700   33.4470   38.8480 S   0  0  0  0  0  0  0  0  0  0  0  0
   47.4050   33.5700   37.1930 C   0  0  0  0  0  3  0  0  0  0  0  0
   48.1110   33.0340   36.5050 H   0  0  0  0  0  0  0  0  0  0  0  0
   45.6320   32.4640   35.7140 C   0  0  0  0  0  2  0  0  0  0  0  0
   46.2640   32.9350   34.9080 H   0  0  0  0  0  0  0  0  0  0  0  0
   43.9240   32.2060   37.6230 C   0  0  0  0  0  0  0  0  0  0  0  0
   43.3890   31.2440   38.2730 O   0  0  0  0  0  0  0  0  0  0  0  0
   42.7230   31.7870   37.1190 O   0  0  0  0  0  0  0  0  0  0  0  0
   42.3210   32.1960   36.2630 H   0  0  0  0  0  0  0  0  0  0  0  0
   45.5420   36.1340   43.2830 C   0  0  0  0  0  0  0  0  0  0  0  0
   46.0860   34.8390   43.1840 C   0  0  0  0  0  0  0  0  0  0  0  0
   45.7590   33.9940   44.2480 C   0  0  0  0  0  0  0  0  0  0  0  0
   44.9870   34.3900   45.2730 N   0  0  0  0  0  0  0  0  0  0  0  0
   44.4860   35.6560   45.3160 C   0  0  0  0  0  0  0  0  0  0  0  0
   44.7680   36.5210   44.3180 N   0  0  0  0  0  0  0  0  0  0  0  0
   45.7740   36.8240   42.4750 H   0  0  0  0  0  0  0  0  0  0  0  0
   43.8720   35.9210   46.1620 H   0  0  0  0  0  0  0  0  0  0  0  0
   46.2630   32.6980   44.2370 C   0  0  0  0  0  0  0  0  0  0  0  0
   47.3820   32.0810   44.7470 C   0  0  0  0  0  0  0  0  0  0  0  0
   47.6710   30.8120   44.6090 C   0  0  0  0  0  0  0  0  0  0  0  0
   46.7560   30.0680   43.8920 C   0  0  0  0  0  0  0  0  0  0  0  0
   45.4670   31.3320   43.4410 S   0  0  0  0  0  0  0  0  0  0  0  0
   48.1590   32.5190   45.3540 H   0  0  0  0  0  0  0  0  0  0  0  0
   48.4230   30.1040   44.8800 H   0  0  0  0  0  0  0  0  0  0  0  0
   46.5360   29.0790   43.5230 H   0  0  0  0  0  0  0  0  0  0  0  0
  1  2  1  6  0  0  0
  1 20  1  0  0  0  0
  3 11  1  0  0  0  0
  3  4  2  0  0  0  0
  4  5  1  0  0  0  0
  5  9  1  0  0  0  0
  5  6  1  0  0  0  0
  6  8  1  0  0  0  0
  6  7  1  1  0  0  0
  8  1  1  1  0  0  0
  9 10  1  1  0  0  0
  9  6  1  0  0  0  0
  9  8  1  0  0  0  0
 11 10  1  0  0  0  0
 12 11  1  0  0  0  0
 13  3  1  0  0  0  0
 14 13  1  0  0  0  0
 15  4  1  0  0  0  0
 15 16  2  0  0  0  0
 17 15  1  0  0  0  0
 18 17  1  0  0  0  0
 19 24  1  0  0  0  0
 20 19  2  0  0  0  0
 20 21  1  0  0  0  0
 21 22  2  0  0  0  0
 22 23  1  0  0  0  0
 23 26  1  0  0  0  0
 24 23  2  0  0  0  0
 25 19  1  0  0  0  0
 27 21  1  0  0  0  0
 27 28  2  0  0  0  0
 28 32  1  0  0  0  0
 29 28  1  0  0  0  0
 29 33  1  0  0  0  0
 30 29  2  0  0  0  0
 31 30  1  0  0  0  0
 31 27  1  0  0  0  0
 34 30  1  0  0  0  0
M  END
>  <minimizedAffinity>
-5.1438446

>  <minimizedRMSD>
2.20019078

$$$$
