
 OpenBabel03242514333D

 33 36  0  0  1  0  0  0  0  0999 V2000
   47.8850   33.6300   39.8820 C   0  0  1  0  0  3  0  0  0  0  0  0
   46.6190   33.8270   39.9990 O   0  0  0  0  0  0  0  0  0  0  0  0
   50.5270   31.2580   37.2190 C   0  0  0  0  0  0  0  0  0  0  0  0
   49.3410   31.4780   36.6780 C   0  0  0  0  0  0  0  0  0  0  0  0
   48.2600   31.9480   37.4740 N   0  0  0  0  0  0  0  0  0  0  0  0
   47.2030   32.9320   37.5630 C   0  0  0  0  0  0  0  0  0  0  0  0
   46.5710   33.6910   36.7500 O   0  0  0  0  0  0  0  0  0  0  0  0
   47.1830   32.6680   39.0000 C   0  0  1  0  0  0  0  0  0  0  0  0
   47.8730   31.3590   38.7410 C   0  0  2  0  0  3  0  0  0  0  0  0
   49.3540   31.0400   39.6920 S   0  0  0  0  0  0  0  0  0  0  0  0
   50.7700   31.5080   38.6630 C   0  0  0  0  0  3  0  0  0  0  0  0
   50.8980   32.6150   38.8280 H   0  0  0  0  0  0  0  0  0  0  0  0
   51.5930   30.7660   36.3550 C   0  0  0  0  0  2  0  0  0  0  0  0
   52.5240   30.6440   36.9800 H   0  0  0  0  0  0  0  0  0  0  0  0
   49.1310   31.2320   35.2420 C   0  0  0  0  0  0  0  0  0  0  0  0
   49.2120   32.0970   34.3370 O   0  0  0  0  0  0  0  0  0  0  0  0
   48.8170   30.0490   34.6400 O   0  0  0  0  0  0  0  0  0  0  0  0
   48.0100   29.9680   34.0340 H   0  0  0  0  0  0  0  0  0  0  0  0
   48.5890   34.4840   40.6680 O   0  0  0  0  0  0  0  0  0  0  0  0
   49.4500   35.3710   42.9180 O   0  0  0  0  0  0  0  0  0  0  0  0
   49.2430   34.0960   42.1550 P   0  0  2  0  0  0  0  0  0  0  0  0
   50.7570   33.4030   41.9370 O   0  0  0  0  0  0  0  0  0  0  0  0
   50.7000   32.4690   41.6040 H   0  0  0  0  0  0  0  0  0  0  0  0
   48.2040   33.0400   43.0090 O   0  0  0  0  0  0  0  0  0  0  0  0
   46.3630   34.5600   43.2820 C   0  0  0  0  0  0  0  0  0  0  0  0
   47.1750   33.5430   43.8130 C   0  0  0  0  0  0  0  0  0  0  0  0
   46.9130   33.0920   45.1010 C   0  0  0  0  0  0  0  0  0  0  0  0
   45.8890   33.6450   45.7980 N   0  0  0  0  0  0  0  0  0  0  0  0
   45.1270   34.6230   45.2590 C   0  0  0  0  0  0  0  0  0  0  0  0
   45.3710   35.0640   44.0180 N   0  0  0  0  0  0  0  0  0  0  0  0
   46.4870   34.9780   42.2900 H   0  0  0  0  0  0  0  0  0  0  0  0
   47.5720   32.3120   45.4450 H   0  0  0  0  0  0  0  0  0  0  0  0
   44.3530   34.9600   45.9380 H   0  0  0  0  0  0  0  0  0  0  0  0
  1  2  1  0  0  0  0
  1 19  1  6  0  0  0
  3 11  1  0  0  0  0
  4  3  2  0  0  0  0
  4  5  1  0  0  0  0
  5  6  1  0  0  0  0
  5  9  1  0  0  0  0
  7  6  2  0  0  0  0
  8  6  1  6  0  0  0
  8  1  1  0  0  0  0
  8  2  1  0  0  0  0
  9  8  1  0  0  0  0
  9 10  1  1  0  0  0
 11 12  1  0  0  0  0
 11 10  1  0  0  0  0
 13 14  1  0  0  0  0
 13  3  1  0  0  0  0
 15  4  1  0  0  0  0
 16 15  2  0  0  0  0
 17 15  1  0  0  0  0
 18 17  1  0  0  0  0
 19 21  1  0  0  0  0
 21 20  2  1  0  0  0
 21 24  1  0  0  0  0
 22 21  1  0  0  0  0
 23 22  1  0  0  0  0
 24 26  1  0  0  0  0
 25 26  2  0  0  0  0
 25 30  1  0  0  0  0
 26 27  1  0  0  0  0
 27 32  1  0  0  0  0
 27 28  2  0  0  0  0
 29 28  1  0  0  0  0
 29 33  1  0  0  0  0
 30 29  2  0  0  0  0
 31 25  1  0  0  0  0
M  END
>  <minimizedAffinity>
-4.55637503

>  <minimizedRMSD>
1.95603681

$$$$
