
 OpenBabel03242518463D

 52 56  0  0  1  0  0  0  0  0999 V2000
   47.4740   31.3400   45.9020 O   0  0  0  0  0  0  0  0  0  0  0  0
   47.4600   33.1170   44.3790 C   0  0  2  0  0  0  0  0  0  0  0  0
   47.3470   33.4470   42.9330 C   0  0  1  0  0  0  0  0  0  0  0  0
   47.2550   32.1960   42.0600 C   0  0  0  0  0  0  0  0  0  0  0  0
   48.3730   31.4420   42.4150 O   0  0  0  0  0  0  0  0  0  0  0  0
   48.2320   30.8750   43.6640 C   0  0  0  0  0  0  0  0  0  0  0  0
   47.2820   31.5980   44.5640 C   0  0  1  0  0  0  0  0  0  0  0  0
   48.4840   33.3320   44.7340 H   0  0  0  0  0  0  0  0  0  0  0  0
   48.2570   34.0080   42.5920 H   0  0  0  0  0  0  0  0  0  0  0  0
   46.3020   31.6590   42.2170 H   0  0  0  0  0  0  0  0  0  0  0  0
   47.3300   32.4630   40.9920 H   0  0  0  0  0  0  0  0  0  0  0  0
   47.8980   29.8070   43.5500 H   0  0  0  0  0  0  0  0  0  0  0  0
   49.2330   30.8180   44.1640 H   0  0  0  0  0  0  0  0  0  0  0  0
   46.2400   31.3350   44.2780 H   0  0  0  0  0  0  0  0  0  0  0  0
   45.0250   36.2700   42.7360 C   0  0  0  0  0  0  0  0  0  0  0  0
   43.9920   35.8100   41.8830 C   0  0  0  0  0  0  0  0  0  0  0  0
   44.1420   34.4830   41.3850 C   0  0  0  0  0  0  0  0  0  0  0  0
   45.2300   33.7690   41.7500 N   0  0  0  0  0  0  0  0  0  0  0  0
   46.1800   34.2630   42.5650 C   0  0  0  0  0  0  0  0  0  0  0  0
   46.0730   35.5200   43.0600 N   0  0  0  0  0  0  0  0  0  0  0  0
   43.1690   36.4370   41.6440 H   0  0  0  0  0  0  0  0  0  0  0  0
   43.3610   34.1210   40.7330 H   0  0  0  0  0  0  0  0  0  0  0  0
   44.8820   37.5350   43.2120 O   0  0  0  0  0  0  0  0  0  0  0  0
   44.4520   37.7380   44.1110 H   0  0  0  0  0  0  0  0  0  0  0  0
   46.5230   33.7660   45.1820 O   0  0  0  0  0  0  0  0  0  0  0  0
   45.6880   33.2460   45.2110 H   0  0  0  0  0  0  0  0  0  0  0  0
   46.5170   28.8150   45.9540 F   0  0  0  0  0  0  0  0  0  0  0  0
   46.2660   29.7490   46.8910 C   0  0  0  0  0  0  0  0  0  0  0  0
   46.7080   31.0510   46.9410 C   0  0  0  0  0  0  0  0  0  0  0  0
   46.2760   31.7820   48.0420 C   0  0  0  0  0  0  0  0  0  0  0  0
   45.4690   31.3260   49.0500 C   0  0  0  0  0  0  0  0  0  0  0  0
   45.0650   30.0270   48.9400 C   0  0  0  0  0  0  0  0  0  0  0  0
   45.4430   29.1930   47.8690 C   0  0  0  0  0  0  0  0  0  0  0  0
   46.6660   32.8120   48.0170 H   0  0  0  0  0  0  0  0  0  0  0  0
   45.2240   32.0130   49.8260 H   0  0  0  0  0  0  0  0  0  0  0  0
   44.4210   29.7430   49.7850 H   0  0  0  0  0  0  0  0  0  0  0  0
   44.8680   27.8360   48.0730 C   0  0  0  0  0  2  0  0  0  0  0  0
   44.4510   27.1420   46.8450 C   0  0  0  0  0  0  0  0  0  0  0  0
   45.0650   26.0140   46.5100 C   0  0  0  0  0  0  0  0  0  0  0  0
   44.7090   25.3230   45.3150 N   0  0  0  0  0  0  0  0  0  0  0  0
   44.7150   24.1620   44.5650 C   0  0  0  0  0  0  0  0  0  0  0  0
   45.2610   23.0470   44.5320 O   0  0  0  0  0  0  0  0  0  0  0  0
   43.7130   24.6570   43.6190 C   0  0  0  0  0  3  0  0  0  0  0  0
   42.6620   24.3630   43.8220 H   0  0  0  0  0  0  0  0  0  0  0  0
   44.0030   25.9680   44.2500 C   0  0  1  0  0  3  0  0  0  0  0  0
   42.5710   26.8320   44.9350 S   0  0  0  0  0  0  0  0  0  0  0  0
   43.3720   27.8560   46.1810 C   0  0  0  0  0  3  0  0  0  0  0  0
   42.5220   28.0980   46.9050 H   0  0  0  0  0  0  0  0  0  0  0  0
   46.1620   25.3710   47.2820 C   0  0  0  0  0  0  0  0  0  0  0  0
   46.5060   25.2760   48.4860 O   0  0  0  0  0  0  0  0  0  0  0  0
   47.1680   24.6380   46.7040 O   0  0  0  0  0  0  0  0  0  0  0  0
   47.4290   23.7270   47.0380 H   0  0  0  0  0  0  0  0  0  0  0  0
  1 29  1  0  0  0  0
  2  7  1  0  0  0  0
  2  8  1  1  0  0  0
  2 25  1  0  0  0  0
  3  9  1  6  0  0  0
  3  2  1  0  0  0  0
  4 10  1  0  0  0  0
  4  5  1  0  0  0  0
  4  3  1  0  0  0  0
  5  6  1  0  0  0  0
  6 13  1  0  0  0  0
  6  7  1  0  0  0  0
  7 14  1  6  0  0  0
  7  1  1  0  0  0  0
 11  4  1  0  0  0  0
 12  6  1  0  0  0  0
 15 20  1  0  0  0  0
 15 23  1  0  0  0  0
 16 15  2  0  0  0  0
 17 18  2  0  0  0  0
 17 16  1  0  0  0  0
 18 19  1  0  0  0  0
 19  3  1  0  0  0  0
 19 20  2  0  0  0  0
 21 16  1  0  0  0  0
 22 17  1  0  0  0  0
 23 24  1  0  0  0  0
 25 26  1  0  0  0  0
 27 28  1  0  0  0  0
 28 29  2  0  0  0  0
 28 33  1  0  0  0  0
 29 30  1  0  0  0  0
 30 31  2  0  0  0  0
 31 35  1  0  0  0  0
 32 31  1  0  0  0  0
 32 36  1  0  0  0  0
 33 37  1  0  0  0  0
 33 32  2  0  0  0  0
 34 30  1  0  0  0  0
 38 37  1  0  0  0  0
 39 38  2  0  0  0  0
 39 49  1  0  0  0  0
 40 39  1  0  0  0  0
 41 40  1  0  0  0  0
 42 41  2  0  0  0  0
 43 44  1  0  0  0  0
 43 41  1  0  0  0  0
 45 43  1  6  0  0  0
 45 46  1  0  0  0  0
 45 40  1  0  0  0  0
 46 47  1  0  0  0  0
 47 38  1  0  0  0  0
 47 48  1  0  0  0  0
 49 50  2  0  0  0  0
 51 52  1  0  0  0  0
 51 49  1  0  0  0  0
M  END
>  <minimizedAffinity>
-5.49083471

>  <minimizedRMSD>
1.07181871

$$$$
