
 OpenBabel03242513113D

 27 29  0  0  1  0  0  0  0  0999 V2000
   46.9700   28.2130   46.9980 C   0  0  0  0  0  0  0  0  0  0  0  0
   47.8480   29.0550   47.5070 C   0  0  0  0  0  0  0  0  0  0  0  0
   47.7190   30.4330   47.1890 N   0  0  0  0  0  0  0  0  0  0  0  0
   47.8340   31.7990   47.5590 C   0  0  0  0  0  0  0  0  0  0  0  0
   48.2550   32.4210   48.5930 O   0  0  0  0  0  0  0  0  0  0  0  0
   47.2730   32.3180   46.2860 C   0  0  1  0  0  0  0  0  0  0  0  0
   47.2410   30.8910   45.8730 C   0  0  2  0  0  0  0  0  0  0  0  0
   45.5490   30.1780   45.7830 S   0  0  0  0  0  0  0  0  0  0  0  0
   45.8080   28.4220   46.1140 C   0  0  0  0  0  0  0  0  0  0  0  0
   46.1060   27.9690   45.1220 H   0  0  0  0  0  0  0  0  0  0  0  0
   45.9580   32.9880   46.4260 C   0  0  0  0  0  0  0  0  0  0  0  0
   45.1880   32.7200   47.3830 O   0  0  0  0  0  0  0  0  0  0  0  0
   44.4210   35.8870   44.8730 C   0  0  0  0  0  0  0  0  0  0  0  0
   44.9020   35.8820   43.5600 C   0  0  0  0  0  0  0  0  0  0  0  0
   45.7750   34.8510   43.2060 C   0  0  0  0  0  0  0  0  0  0  0  0
   46.1140   33.9210   44.1300 N   0  0  0  0  0  0  0  0  0  0  0  0
   45.6290   33.9610   45.3870 C   0  0  0  0  0  0  0  0  0  0  0  0
   44.7780   34.9560   45.7490 N   0  0  0  0  0  0  0  0  0  0  0  0
   43.7500   36.7140   45.0750 H   0  0  0  0  0  0  0  0  0  0  0  0
   44.6770   36.5860   42.7700 H   0  0  0  0  0  0  0  0  0  0  0  0
   46.2400   34.6980   42.2270 H   0  0  0  0  0  0  0  0  0  0  0  0
   47.1840   26.7800   47.3830 C   0  0  0  0  0  0  0  0  0  0  0  0
   48.1750   26.4340   47.0420 H   0  0  0  0  0  0  0  0  0  0  0  0
   48.9400   28.6390   48.3730 C   0  0  0  0  0  0  0  0  0  0  0  0
   49.8530   27.8300   48.1810 O   0  0  0  0  0  0  0  0  0  0  0  0
   49.0950   29.1570   49.6410 O   0  0  0  0  0  0  0  0  0  0  0  0
   49.4420   28.6500   50.4350 H   0  0  0  0  0  0  0  0  0  0  0  0
  1 22  1  0  0  0  0
  1  2  2  0  0  0  0
  2 24  1  0  0  0  0
  3  2  1  0  0  0  0
  3  4  1  0  0  0  0
  4  5  2  0  0  0  0
  6 11  1  1  0  0  0
  6  4  1  0  0  0  0
  7  8  1  1  0  0  0
  7  6  1  0  0  0  0
  7  3  1  0  0  0  0
  8  9  1  0  0  0  0
  9  1  1  0  0  0  0
 10  9  1  0  0  0  0
 11 12  2  0  0  0  0
 13 19  1  0  0  0  0
 13 18  1  0  0  0  0
 14 13  2  0  0  0  0
 15 14  1  0  0  0  0
 15 16  2  0  0  0  0
 16 17  1  0  0  0  0
 17 18  2  0  0  0  0
 17 11  1  0  0  0  0
 20 14  1  0  0  0  0
 21 15  1  0  0  0  0
 23 22  1  0  0  0  0
 24 26  1  0  0  0  0
 25 24  2  0  0  0  0
 26 27  1  0  0  0  0
M  END
>  <minimizedAffinity>
-4.62044334

>  <minimizedRMSD>
0.807365358

$$$$
