
 OpenBabel03242519203D

 41 44  0  0  1  0  0  0  0  0999 V2000
   47.9470   31.7630   43.0030 C   0  0  0  0  0  0  0  0  0  0  0  0
   48.9190   31.9020   41.9730 C   0  0  0  0  0  0  0  0  0  0  0  0
   50.0750   31.1230   42.0160 C   0  0  0  0  0  0  0  0  0  0  0  0
   50.1850   30.2590   43.0840 N   0  0  0  0  0  0  0  0  0  0  0  0
   49.2600   30.1420   44.0430 C   0  0  0  0  0  0  0  0  0  0  0  0
   48.1430   30.8950   43.9990 N   0  0  0  0  0  0  0  0  0  0  0  0
   48.9050   32.5380   41.1250 H   0  0  0  0  0  0  0  0  0  0  0  0
   50.8590   31.1530   41.2950 H   0  0  0  0  0  0  0  0  0  0  0  0
   46.7600   32.6320   42.8880 C   0  0  0  0  0  0  0  0  0  0  0  0
   46.8110   33.5260   41.7130 C   0  0  0  0  0  0  0  0  0  0  0  0
   46.9980   34.9730   42.0680 C   0  0  0  0  0  0  0  0  0  0  0  0
   45.9190   35.4640   43.0160 C   0  0  0  0  0  0  0  0  0  0  0  0
   45.6040   34.4900   44.1130 C   0  0  0  0  0  0  0  0  0  0  0  0
   46.6220   33.3860   44.2040 C   0  0  0  0  0  0  0  0  0  0  0  0
   45.8740   31.9290   42.9000 H   0  0  0  0  0  0  0  0  0  0  0  0
   45.7910   33.4730   41.2270 H   0  0  0  0  0  0  0  0  0  0  0  0
   47.5090   33.2420   40.9250 H   0  0  0  0  0  0  0  0  0  0  0  0
   46.9260   35.5650   41.1340 H   0  0  0  0  0  0  0  0  0  0  0  0
   47.9510   35.2370   42.5260 H   0  0  0  0  0  0  0  0  0  0  0  0
   44.9930   35.7630   42.4660 H   0  0  0  0  0  0  0  0  0  0  0  0
   46.2780   36.4040   43.4820 H   0  0  0  0  0  0  0  0  0  0  0  0
   44.6040   34.0320   43.8570 H   0  0  0  0  0  0  0  0  0  0  0  0
   45.5080   34.9590   45.0910 H   0  0  0  0  0  0  0  0  0  0  0  0
   47.5860   33.8320   44.4710 H   0  0  0  0  0  0  0  0  0  0  0  0
   46.2880   32.6750   44.9910 H   0  0  0  0  0  0  0  0  0  0  0  0
   49.4470   29.1800   45.1750 C   0  0  0  0  0  2  0  0  0  0  0  0
   48.1980   28.8340   45.8460 C   0  0  0  0  0  0  0  0  0  0  0  0
   47.7690   29.3320   46.9930 C   0  0  0  0  0  0  0  0  0  0  0  0
   46.5260   28.8580   47.4890 N   0  0  0  0  0  0  0  0  0  0  0  0
   45.2760   29.1440   48.1530 C   0  0  0  0  0  0  0  0  0  0  0  0
   44.7890   30.1570   48.7650 O   0  0  0  0  0  0  0  0  0  0  0  0
   44.7170   27.8070   47.8760 C   0  0  0  0  0  3  0  0  0  0  0  0
   44.3560   27.2390   48.7590 H   0  0  0  0  0  0  0  0  0  0  0  0
   46.0840   27.4570   47.4010 C   0  0  1  0  0  3  0  0  0  0  0  0
   46.0620   27.1180   45.6210 S   0  0  0  0  0  0  0  0  0  0  0  0
   47.5610   27.8380   44.9540 C   0  0  0  0  0  3  0  0  0  0  0  0
   47.3020   28.3480   43.9990 H   0  0  0  0  0  0  0  0  0  0  0  0
   48.5050   30.3310   47.7740 C   0  0  0  0  0  0  0  0  0  0  0  0
   49.5720   30.3420   48.3990 O   0  0  0  0  0  0  0  0  0  0  0  0
   48.0360   31.6050   47.9480 O   0  0  0  0  0  0  0  0  0  0  0  0
   48.6200   32.4130   47.8330 H   0  0  0  0  0  0  0  0  0  0  0  0
  1  6  1  0  0  0  0
  2  3  1  0  0  0  0
  2  1  2  0  0  0  0
  3  4  2  0  0  0  0
  4  5  1  0  0  0  0
  5 26  1  0  0  0  0
  6  5  2  0  0  0  0
  7  2  1  0  0  0  0
  8  3  1  0  0  0  0
  9 15  1  0  0  0  0
  9  1  1  0  0  0  0
  9 14  1  0  0  0  0
 10 11  1  0  0  0  0
 10  9  1  0  0  0  0
 11 19  1  0  0  0  0
 11 12  1  0  0  0  0
 12 21  1  0  0  0  0
 12 13  1  0  0  0  0
 13 14  1  0  0  0  0
 13 23  1  0  0  0  0
 14 24  1  0  0  0  0
 14 25  1  0  0  0  0
 16 10  1  0  0  0  0
 17 10  1  0  0  0  0
 18 11  1  0  0  0  0
 20 12  1  0  0  0  0
 22 13  1  0  0  0  0
 26 27  1  0  0  0  0
 27 28  2  0  0  0  0
 28 29  1  0  0  0  0
 28 38  1  0  0  0  0
 29 30  1  0  0  0  0
 30 31  2  0  0  0  0
 32 30  1  0  0  0  0
 32 33  1  0  0  0  0
 34 35  1  6  0  0  0
 34 29  1  0  0  0  0
 34 32  1  0  0  0  0
 36 35  1  0  0  0  0
 36 27  1  0  0  0  0
 37 36  1  0  0  0  0
 38 40  1  0  0  0  0
 38 39  2  0  0  0  0
 41 40  1  0  0  0  0
M  END
>  <minimizedAffinity>
-4.18145943

>  <minimizedRMSD>
4.67870188

$$$$
