
 OpenBabel03242518463D

 52 56  0  0  1  0  0  0  0  0999 V2000
   47.4220   31.0200   45.7620 O   0  0  0  0  0  0  0  0  0  0  0  0
   47.4260   32.9080   44.3780 C   0  0  2  0  0  0  0  0  0  0  0  0
   47.3640   33.3450   42.9580 C   0  0  1  0  0  0  0  0  0  0  0  0
   47.3390   32.1630   41.9900 C   0  0  0  0  0  0  0  0  0  0  0  0
   48.4590   31.4080   42.3340 O   0  0  0  0  0  0  0  0  0  0  0  0
   48.2820   30.7450   43.5290 C   0  0  0  0  0  0  0  0  0  0  0  0
   47.2780   31.3750   44.4400 C   0  0  1  0  0  0  0  0  0  0  0  0
   48.4280   33.1180   44.7920 H   0  0  0  0  0  0  0  0  0  0  0  0
   48.2720   33.9510   42.7000 H   0  0  0  0  0  0  0  0  0  0  0  0
   46.3940   31.5940   42.0640 H   0  0  0  0  0  0  0  0  0  0  0  0
   47.4500   32.5120   40.9490 H   0  0  0  0  0  0  0  0  0  0  0  0
   47.9800   29.6820   43.3210 H   0  0  0  0  0  0  0  0  0  0  0  0
   49.2630   30.6720   44.0660 H   0  0  0  0  0  0  0  0  0  0  0  0
   46.2560   31.1120   44.0910 H   0  0  0  0  0  0  0  0  0  0  0  0
   45.0040   36.1410   42.8430 C   0  0  0  0  0  0  0  0  0  0  0  0
   43.9960   35.7070   41.9470 C   0  0  0  0  0  0  0  0  0  0  0  0
   44.1760   34.4080   41.3920 C   0  0  0  0  0  0  0  0  0  0  0  0
   45.2670   33.6920   41.7460 N   0  0  0  0  0  0  0  0  0  0  0  0
   46.1920   34.1610   42.6040 C   0  0  0  0  0  0  0  0  0  0  0  0
   46.0560   35.3920   43.1530 N   0  0  0  0  0  0  0  0  0  0  0  0
   43.1690   36.3330   41.7200 H   0  0  0  0  0  0  0  0  0  0  0  0
   43.4150   34.0650   40.7070 H   0  0  0  0  0  0  0  0  0  0  0  0
   44.8320   37.3810   43.3740 O   0  0  0  0  0  0  0  0  0  0  0  0
   44.3800   37.5350   44.2710 H   0  0  0  0  0  0  0  0  0  0  0  0
   46.4410   33.4730   45.1880 O   0  0  0  0  0  0  0  0  0  0  0  0
   45.6180   32.9340   45.1410 H   0  0  0  0  0  0  0  0  0  0  0  0
   46.5530   28.4900   45.3930 F   0  0  0  0  0  0  0  0  0  0  0  0
   46.2430   29.2590   46.4530 C   0  0  0  0  0  0  0  0  0  0  0  0
   46.6370   30.5500   46.7180 C   0  0  0  0  0  0  0  0  0  0  0  0
   46.1490   31.0890   47.9030 C   0  0  0  0  0  0  0  0  0  0  0  0
   45.3290   30.4580   48.8010 C   0  0  0  0  0  0  0  0  0  0  0  0
   44.9750   29.1810   48.4800 C   0  0  0  0  0  0  0  0  0  0  0  0
   45.4120   28.5340   47.3060 C   0  0  0  0  0  0  0  0  0  0  0  0
   46.5030   32.1220   48.0500 H   0  0  0  0  0  0  0  0  0  0  0  0
   45.0390   31.0100   49.6650 H   0  0  0  0  0  0  0  0  0  0  0  0
   44.3170   28.7500   49.2490 H   0  0  0  0  0  0  0  0  0  0  0  0
   44.8800   27.1450   47.2810 C   0  0  0  0  0  2  0  0  0  0  0  0
   45.7400   26.1350   47.9160 C   0  0  0  0  0  0  0  0  0  0  0  0
   45.3690   25.6250   49.0850 C   0  0  0  0  0  0  0  0  0  0  0  0
   46.1860   24.6630   49.7470 N   0  0  0  0  0  0  0  0  0  0  0  0
   46.3170   23.6630   50.6930 C   0  0  0  0  0  0  0  0  0  0  0  0
   45.7120   23.1770   51.6620 O   0  0  0  0  0  0  0  0  0  0  0  0
   47.6130   23.2160   50.1760 C   0  0  0  0  0  3  0  0  0  0  0  0
   47.5860   22.3600   49.4690 H   0  0  0  0  0  0  0  0  0  0  0  0
   47.5700   24.4950   49.4250 C   0  0  1  0  0  3  0  0  0  0  0  0
   47.7410   24.3460   47.6330 S   0  0  0  0  0  0  0  0  0  0  0  0
   46.9090   25.8530   47.0990 C   0  0  0  0  0  3  0  0  0  0  0  0
   46.6190   25.6210   46.0190 H   0  0  0  0  0  0  0  0  0  0  0  0
   44.1330   25.9910   49.8280 C   0  0  0  0  0  0  0  0  0  0  0  0
   42.8960   25.8320   49.6890 O   0  0  0  0  0  0  0  0  0  0  0  0
   44.1370   26.6950   51.0080 O   0  0  0  0  0  0  0  0  0  0  0  0
   43.6190   26.3930   51.8140 H   0  0  0  0  0  0  0  0  0  0  0  0
  1 29  1  0  0  0  0
  2  7  1  0  0  0  0
  2  8  1  1  0  0  0
  2 25  1  0  0  0  0
  3  9  1  6  0  0  0
  3  2  1  0  0  0  0
  4 10  1  0  0  0  0
  4  5  1  0  0  0  0
  4  3  1  0  0  0  0
  5  6  1  0  0  0  0
  6 13  1  0  0  0  0
  6  7  1  0  0  0  0
  7 14  1  6  0  0  0
  7  1  1  0  0  0  0
 11  4  1  0  0  0  0
 12  6  1  0  0  0  0
 15 20  1  0  0  0  0
 15 23  1  0  0  0  0
 16 15  2  0  0  0  0
 17 18  2  0  0  0  0
 17 16  1  0  0  0  0
 18 19  1  0  0  0  0
 19  3  1  0  0  0  0
 19 20  2  0  0  0  0
 21 16  1  0  0  0  0
 22 17  1  0  0  0  0
 23 24  1  0  0  0  0
 26 25  1  0  0  0  0
 27 28  1  0  0  0  0
 28 29  2  0  0  0  0
 28 33  1  0  0  0  0
 29 30  1  0  0  0  0
 30 34  1  0  0  0  0
 30 31  2  0  0  0  0
 31 35  1  0  0  0  0
 32 31  1  0  0  0  0
 32 36  1  0  0  0  0
 33 32  2  0  0  0  0
 37 33  1  0  0  0  0
 37 38  1  0  0  0  0
 38 39  2  0  0  0  0
 39 40  1  0  0  0  0
 39 49  1  0  0  0  0
 40 41  1  0  0  0  0
 41 42  2  0  0  0  0
 43 41  1  0  0  0  0
 44 43  1  0  0  0  0
 45 46  1  6  0  0  0
 45 40  1  0  0  0  0
 45 43  1  0  0  0  0
 47 46  1  0  0  0  0
 47 38  1  0  0  0  0
 48 47  1  0  0  0  0
 49 51  1  0  0  0  0
 50 49  2  0  0  0  0
 51 52  1  0  0  0  0
M  END
>  <minimizedAffinity>
-6.65940809

>  <minimizedRMSD>
1.37974489

$$$$
