
 OpenBabel03242520003D

 37 40  0  0  1  0  0  0  0  0999 V2000
   44.6600   32.9820   41.2590 Br  0  0  0  0  0  0  0  0  0  0  0  0
   46.2970   33.9230   41.0240 C   0  0  0  0  0  0  0  0  0  0  0  0
   46.8210   34.7460   42.0060 C   0  0  0  0  0  0  0  0  0  0  0  0
   48.0170   35.3990   41.7430 C   0  0  0  0  0  0  0  0  0  0  0  0
   48.6910   35.2520   40.5460 C   0  0  0  0  0  0  0  0  0  0  0  0
   48.1700   34.4300   39.5640 C   0  0  0  0  0  0  0  0  0  0  0  0
   46.9730   33.7850   39.8430 C   0  0  0  0  0  0  0  0  0  0  0  0
   48.4030   36.0260   42.5090 H   0  0  0  0  0  0  0  0  0  0  0  0
   49.6230   35.8120   40.4450 H   0  0  0  0  0  0  0  0  0  0  0  0
   48.7120   34.3250   38.6250 H   0  0  0  0  0  0  0  0  0  0  0  0
   44.4840   35.9370   44.7300 C   0  0  0  0  0  0  0  0  0  0  0  0
   45.1760   35.8630   43.5110 C   0  0  0  0  0  0  0  0  0  0  0  0
   46.0820   34.8620   43.2510 C   0  0  0  0  0  0  0  0  0  0  0  0
   46.2430   33.9560   44.2720 N   0  0  0  0  0  0  0  0  0  0  0  0
   45.5790   34.0340   45.4310 C   0  0  0  0  0  0  0  0  0  0  0  0
   44.7120   35.0060   45.6620 N   0  0  0  0  0  0  0  0  0  0  0  0
   43.7740   36.7180   44.9400 H   0  0  0  0  0  0  0  0  0  0  0  0
   44.9890   36.6080   42.7750 H   0  0  0  0  0  0  0  0  0  0  0  0
   45.8680   33.2160   46.0810 H   0  0  0  0  0  0  0  0  0  0  0  0
   46.4620   32.9120   38.8090 C   0  0  1  0  0  3  0  0  0  0  0  0
   45.4940   33.3100   38.0620 O   0  0  0  0  0  1  0  0  0  0  0  0
   48.6390   27.9810   39.0410 C   0  0  0  0  0  0  0  0  0  0  0  0
   47.4340   28.3300   39.3860 C   0  0  0  0  0  0  0  0  0  0  0  0
   46.9310   29.6160   39.1590 N   0  0  0  0  0  0  0  0  0  0  0  0
   45.8600   30.4930   38.7790 C   0  0  0  0  0  0  0  0  0  0  0  0
   44.5890   30.3580   38.8090 O   0  0  0  0  0  0  0  0  0  0  0  0
   46.8350   31.5380   38.3710 C   0  0  2  0  0  3  0  0  0  0  0  0
   47.7540   30.7970   39.3450 C   0  0  2  0  0  3  0  0  0  0  0  0
   49.3800   30.5840   38.5580 S   0  0  0  0  0  0  0  0  0  0  0  0
   49.6450   28.8210   38.3780 C   0  0  0  0  0  3  0  0  0  0  0  0
   50.6280   28.5960   38.8860 H   0  0  0  0  0  0  0  0  0  0  0  0
   49.0120   26.5800   39.3580 C   0  0  0  0  0  2  0  0  0  0  0  0
   48.6250   26.2860   40.3710 H   0  0  0  0  0  0  0  0  0  0  0  0
   46.6070   27.3220   40.0330 C   0  0  0  0  0  0  0  0  0  0  0  0
   45.8240   27.5700   41.0090 O   0  0  0  0  0  0  0  0  0  0  0  0
   45.9200   26.2300   40.4920 O   0  0  0  0  0  0  0  0  0  0  0  0
   45.9870   25.2960   40.0730 H   0  0  0  0  0  0  0  0  0  0  0  0
  2  1  1  0  0  0  0
  2  3  1  0  0  0  0
  3 13  1  0  0  0  0
  4  3  2  0  0  0  0
  4  8  1  0  0  0  0
  5  4  1  0  0  0  0
  6  7  1  0  0  0  0
  6  5  2  0  0  0  0
  7  2  2  0  0  0  0
  9  5  1  0  0  0  0
 10  6  1  0  0  0  0
 11 17  1  0  0  0  0
 11 16  1  0  0  0  0
 12 11  2  0  0  0  0
 13 12  1  0  0  0  0
 13 14  2  0  0  0  0
 14 15  1  0  0  0  0
 15 16  2  0  0  0  0
 15 19  1  0  0  0  0
 18 12  1  0  0  0  0
 20 21  1  6  0  0  0
 20  7  1  0  0  0  0
 22 32  1  0  0  0  0
 22 23  2  0  0  0  0
 23 34  1  0  0  0  0
 24 28  1  0  0  0  0
 24 23  1  0  0  0  0
 25 26  2  0  0  0  0
 25 24  1  0  0  0  0
 27 25  1  0  0  0  0
 27 20  1  1  0  0  0
 27 28  1  0  0  0  0
 28 29  1  6  0  0  0
 30 29  1  0  0  0  0
 30 31  1  0  0  0  0
 30 22  1  0  0  0  0
 32 33  1  0  0  0  0
 34 36  1  0  0  0  0
 34 35  2  0  0  0  0
 37 36  1  0  0  0  0
M  END
>  <minimizedAffinity>
-4.94895267

>  <minimizedRMSD>
2.65281105

$$$$
