
 OpenBabel03242512423D

 30 32  0  0  1  0  0  0  0  0999 V2000
   38.5080   29.6080   42.7780 C   0  0  0  0  0  2  0  0  0  0  0  0
   39.1040   30.2620   41.6100 C   0  0  0  0  0  0  0  0  0  0  0  0
   38.2530   30.8040   40.7590 C   0  0  0  0  0  0  0  0  0  0  0  0
   38.7160   31.4610   39.6010 N   0  0  0  0  0  0  0  0  0  0  0  0
   38.5900   31.7830   38.1990 C   0  0  0  0  0  0  0  0  0  0  0  0
   37.5740   31.9680   37.5010 O   0  0  0  0  0  0  0  0  0  0  0  0
   40.0960   31.7510   38.1810 C   0  0  0  0  0  3  0  0  0  0  0  0
   40.4750   30.7070   38.1900 H   0  0  0  0  0  0  0  0  0  0  0  0
   39.9080   32.2880   39.5840 C   0  0  2  0  0  3  0  0  0  0  0  0
   41.1250   31.7960   40.7890 S   0  0  0  0  0  0  0  0  0  0  0  0
   40.5720   30.2470   41.4980 C   0  0  0  0  0  3  0  0  0  0  0  0
   41.0080   30.1990   42.5300 H   0  0  0  0  0  0  0  0  0  0  0  0
   36.8060   30.7590   40.9590 C   0  0  0  0  0  0  0  0  0  0  0  0
   36.0090   30.1170   40.2190 O   0  0  0  0  0  0  0  0  0  0  0  0
   35.5690   30.9920   41.5060 O   0  0  0  0  0  0  0  0  0  0  0  0
   35.2660   31.9590   41.6230 H   0  0  0  0  0  0  0  0  0  0  0  0
   39.6280   26.1060   43.0960 C   0  0  0  0  0  0  0  0  0  0  0  0
   38.5810   25.3790   42.5100 C   0  0  0  0  0  0  0  0  0  0  0  0
   37.4850   26.0950   42.0030 C   0  0  0  0  0  0  0  0  0  0  0  0
   37.5150   27.4570   42.1170 N   0  0  0  0  0  0  0  0  0  0  0  0
   38.5350   28.1070   42.6840 C   0  0  0  0  0  0  0  0  0  0  0  0
   39.5710   27.4360   43.1630 N   0  0  0  0  0  0  0  0  0  0  0  0
   38.5150   24.3110   42.3990 H   0  0  0  0  0  0  0  0  0  0  0  0
   36.6310   25.6350   41.5340 H   0  0  0  0  0  0  0  0  0  0  0  0
   40.6680   25.3800   43.5740 O   0  0  0  0  0  0  0  0  0  0  0  0
   41.8570   25.1610   42.8870 C   0  0  0  0  0  0  0  0  0  0  0  0
   41.9930   25.2230   41.6130 O   0  0  0  0  0  0  0  0  0  0  0  0
   43.1010   24.8370   43.5070 N   0  0  0  0  0  0  0  0  0  0  0  0
   44.0120   25.3720   43.5510 H   0  0  0  0  0  0  0  0  0  0  0  0
   43.6950   24.1660   44.0750 H   0  0  0  0  0  0  0  0  0  0  0  0
  2  1  1  0  0  0  0
  3 13  1  0  0  0  0
  3  2  2  0  0  0  0
  4  3  1  0  0  0  0
  5  4  1  0  0  0  0
  6  5  2  0  0  0  0
  7  8  1  0  0  0  0
  7  5  1  0  0  0  0
  9  7  1  6  0  0  0
  9  4  1  0  0  0  0
  9 10  1  0  0  0  0
 10 11  1  0  0  0  0
 11  2  1  0  0  0  0
 11 12  1  0  0  0  0
 13 15  1  0  0  0  0
 14 13  2  0  0  0  0
 15 16  1  0  0  0  0
 17 22  1  0  0  0  0
 17 25  1  0  0  0  0
 18 17  2  0  0  0  0
 19 20  2  0  0  0  0
 19 18  1  0  0  0  0
 20 21  1  0  0  0  0
 21  1  1  0  0  0  0
 21 22  2  0  0  0  0
 23 18  1  0  0  0  0
 24 19  1  0  0  0  0
 26 28  1  0  0  0  0
 26 25  1  0  0  0  0
 27 26  2  0  0  0  0
 28 29  1  0  0  0  0
 28 30  1  0  0  0  0
M  END
>  <minimizedAffinity>
-5.8535099

$$$$

 OpenBabel03242512423D

 30 32  0  0  1  0  0  0  0  0999 V2000
   37.6830   30.5590   38.5560 C   0  0  0  0  0  2  0  0  0  0  0  0
   38.0860   29.3330   39.2520 C   0  0  0  0  0  0  0  0  0  0  0  0
   37.3550   29.0000   40.2990 C   0  0  0  0  0  0  0  0  0  0  0  0
   37.6510   27.8390   41.0420 N   0  0  0  0  0  0  0  0  0  0  0  0
   37.7550   27.1420   42.3010 C   0  0  0  0  0  0  0  0  0  0  0  0
   37.0630   27.2290   43.3330 O   0  0  0  0  0  0  0  0  0  0  0  0
   38.9360   26.4430   41.6770 C   0  0  0  0  0  3  0  0  0  0  0  0
   39.8280   27.1050   41.6540 H   0  0  0  0  0  0  0  0  0  0  0  0
   38.0930   26.6000   40.4300 C   0  0  2  0  0  3  0  0  0  0  0  0
   38.9770   26.8440   38.9030 S   0  0  0  0  0  0  0  0  0  0  0  0
   39.2520   28.6050   38.7250 C   0  0  0  0  0  3  0  0  0  0  0  0
   39.3290   28.8040   37.6240 H   0  0  0  0  0  0  0  0  0  0  0  0
   36.2150   29.7980   40.7460 C   0  0  0  0  0  0  0  0  0  0  0  0
   35.0100   29.4330   40.6380 O   0  0  0  0  0  0  0  0  0  0  0  0
   35.4940   30.8350   41.2840 O   0  0  0  0  0  0  0  0  0  0  0  0
   35.6310   31.7700   40.9010 H   0  0  0  0  0  0  0  0  0  0  0  0
   40.4110   32.9850   39.0950 C   0  0  0  0  0  0  0  0  0  0  0  0
   39.8080   33.9760   39.8820 C   0  0  0  0  0  0  0  0  0  0  0  0
   38.4580   33.8120   40.2310 C   0  0  0  0  0  0  0  0  0  0  0  0
   37.8230   32.6900   39.7750 N   0  0  0  0  0  0  0  0  0  0  0  0
   38.4380   31.7720   39.0260 C   0  0  0  0  0  0  0  0  0  0  0  0
   39.7110   31.9230   38.6960 N   0  0  0  0  0  0  0  0  0  0  0  0
   40.2680   34.8720   40.2630 H   0  0  0  0  0  0  0  0  0  0  0  0
   37.9020   34.5130   40.8310 H   0  0  0  0  0  0  0  0  0  0  0  0
   41.7150   33.1790   38.7790 O   0  0  0  0  0  0  0  0  0  0  0  0
   42.2400   33.0590   37.4980 C   0  0  0  0  0  0  0  0  0  0  0  0
   42.5050   31.9480   36.9120 O   0  0  0  0  0  0  0  0  0  0  0  0
   42.5620   34.1600   36.6480 N   0  0  0  0  0  0  0  0  0  0  0  0
   42.1520   34.4610   35.7220 H   0  0  0  0  0  0  0  0  0  0  0  0
   43.1460   35.0220   36.4470 H   0  0  0  0  0  0  0  0  0  0  0  0
  1 21  1  0  0  0  0
  1  2  1  0  0  0  0
  2  3  2  0  0  0  0
  3 13  1  0  0  0  0
  3  4  1  0  0  0  0
  4  5  1  0  0  0  0
  5  6  2  0  0  0  0
  7  5  1  0  0  0  0
  8  7  1  0  0  0  0
  9 10  1  6  0  0  0
  9  4  1  0  0  0  0
  9  7  1  0  0  0  0
 11 10  1  0  0  0  0
 11  2  1  0  0  0  0
 12 11  1  0  0  0  0
 13 15  1  0  0  0  0
 14 13  2  0  0  0  0
 16 15  1  0  0  0  0
 17 18  1  0  0  0  0
 18 19  2  0  0  0  0
 18 23  1  0  0  0  0
 19 24  1  0  0  0  0
 20 19  1  0  0  0  0
 21 20  2  0  0  0  0
 22 21  1  0  0  0  0
 22 17  2  0  0  0  0
 25 17  1  0  0  0  0
 26 25  1  0  0  0  0
 27 26  2  0  0  0  0
 28 26  1  0  0  0  0
 29 28  1  0  0  0  0
 30 28  1  0  0  0  0
M  END
>  <minimizedAffinity>
-5.72891045

$$$$

 OpenBabel03242512423D

 30 32  0  0  1  0  0  0  0  0999 V2000
   35.9360   28.5140   40.4970 C   0  0  0  0  0  2  0  0  0  0  0  0
   36.6830   27.2720   40.7160 C   0  0  0  0  0  0  0  0  0  0  0  0
   37.3730   27.2070   41.8400 C   0  0  0  0  0  0  0  0  0  0  0  0
   38.1260   26.0580   42.1550 N   0  0  0  0  0  0  0  0  0  0  0  0
   39.3070   25.4380   42.7070 C   0  0  0  0  0  0  0  0  0  0  0  0
   40.0120   25.7670   43.6800 O   0  0  0  0  0  0  0  0  0  0  0  0
   39.1360   24.4190   41.6100 C   0  0  0  0  0  3  0  0  0  0  0  0
   39.4700   24.8230   40.6310 H   0  0  0  0  0  0  0  0  0  0  0  0
   37.6720   24.7110   41.8640 C   0  0  2  0  0  3  0  0  0  0  0  0
   36.5910   24.6200   40.4510 S   0  0  0  0  0  0  0  0  0  0  0  0
   36.5960   26.2340   39.6760 C   0  0  0  0  0  3  0  0  0  0  0  0
   35.6100   26.3370   39.1520 H   0  0  0  0  0  0  0  0  0  0  0  0
   37.3970   28.3000   42.8100 C   0  0  0  0  0  0  0  0  0  0  0  0
   38.4550   28.8280   43.2540 O   0  0  0  0  0  0  0  0  0  0  0  0
   36.9580   29.2670   43.6790 O   0  0  0  0  0  0  0  0  0  0  0  0
   36.3380   28.9890   44.4400 H   0  0  0  0  0  0  0  0  0  0  0  0
   38.0700   31.1920   39.1220 C   0  0  0  0  0  0  0  0  0  0  0  0
   37.8370   31.1120   37.7410 C   0  0  0  0  0  0  0  0  0  0  0  0
   36.9410   30.1340   37.2800 C   0  0  0  0  0  0  0  0  0  0  0  0
   36.3580   29.3240   38.2140 N   0  0  0  0  0  0  0  0  0  0  0  0
   36.6110   29.4360   39.5190 C   0  0  0  0  0  0  0  0  0  0  0  0
   37.4550   30.3580   39.9600 N   0  0  0  0  0  0  0  0  0  0  0  0
   38.2720   31.7260   36.9720 H   0  0  0  0  0  0  0  0  0  0  0  0
   36.6920   29.9890   36.2410 H   0  0  0  0  0  0  0  0  0  0  0  0
   38.9410   32.1480   39.5280 O   0  0  0  0  0  0  0  0  0  0  0  0
   38.5680   33.3960   40.0170 C   0  0  0  0  0  0  0  0  0  0  0  0
   39.3110   34.1600   40.7300 O   0  0  0  0  0  0  0  0  0  0  0  0
   37.2970   34.0050   39.7910 N   0  0  0  0  0  0  0  0  0  0  0  0
   37.0340   34.8830   39.2640 H   0  0  0  0  0  0  0  0  0  0  0  0
   36.2450   34.0070   39.9260 H   0  0  0  0  0  0  0  0  0  0  0  0
  1  2  1  0  0  0  0
  2  3  2  0  0  0  0
  3  4  1  0  0  0  0
  3 13  1  0  0  0  0
  4  5  1  0  0  0  0
  5  6  2  0  0  0  0
  7  9  1  0  0  0  0
  7  5  1  0  0  0  0
  8  7  1  0  0  0  0
  9 10  1  6  0  0  0
  9  4  1  0  0  0  0
 11 10  1  0  0  0  0
 11  2  1  0  0  0  0
 12 11  1  0  0  0  0
 13 14  2  0  0  0  0
 13 15  1  0  0  0  0
 15 16  1  0  0  0  0
 17 25  1  0  0  0  0
 17 22  1  0  0  0  0
 18 17  2  0  0  0  0
 19 18  1  0  0  0  0
 19 20  2  0  0  0  0
 20 21  1  0  0  0  0
 21 22  2  0  0  0  0
 21  1  1  0  0  0  0
 23 18  1  0  0  0  0
 24 19  1  0  0  0  0
 25 26  1  0  0  0  0
 26 27  2  0  0  0  0
 28 30  1  0  0  0  0
 28 26  1  0  0  0  0
 29 28  1  0  0  0  0
M  END
>  <minimizedAffinity>
-5.68262768

$$$$

 OpenBabel03242512423D

 30 32  0  0  1  0  0  0  0  0999 V2000
   35.9340   28.2630   40.2180 C   0  0  0  0  0  2  0  0  0  0  0  0
   36.8980   27.1710   40.3830 C   0  0  0  0  0  0  0  0  0  0  0  0
   37.3920   27.0200   41.5980 C   0  0  0  0  0  0  0  0  0  0  0  0
   38.3250   25.9990   41.8720 N   0  0  0  0  0  0  0  0  0  0  0  0
   39.5090   25.5230   42.5450 C   0  0  0  0  0  0  0  0  0  0  0  0
   39.9540   25.7840   43.6800 O   0  0  0  0  0  0  0  0  0  0  0  0
   39.7550   24.7280   41.2890 C   0  0  0  0  0  3  0  0  0  0  0  0
   40.1430   25.3750   40.4740 H   0  0  0  0  0  0  0  0  0  0  0  0
   38.2420   24.6750   41.2860 C   0  0  2  0  0  3  0  0  0  0  0  0
   37.4550   24.6580   39.6890 S   0  0  0  0  0  0  0  0  0  0  0  0
   37.2190   26.3630   39.1950 C   0  0  0  0  0  3  0  0  0  0  0  0
   36.3340   26.3740   38.5060 H   0  0  0  0  0  0  0  0  0  0  0  0
   37.0100   27.8830   42.7130 C   0  0  0  0  0  0  0  0  0  0  0  0
   36.2850   27.5130   43.6790 O   0  0  0  0  0  0  0  0  0  0  0  0
   36.9100   28.9950   43.5130 O   0  0  0  0  0  0  0  0  0  0  0  0
   36.5590   29.8590   43.0990 H   0  0  0  0  0  0  0  0  0  0  0  0
   38.0050   30.8700   38.6240 C   0  0  0  0  0  0  0  0  0  0  0  0
   37.7930   31.9920   39.4400 C   0  0  0  0  0  0  0  0  0  0  0  0
   36.9360   31.8520   40.5430 C   0  0  0  0  0  0  0  0  0  0  0  0
   36.3640   30.6270   40.7450 N   0  0  0  0  0  0  0  0  0  0  0  0
   36.5940   29.5870   39.9410 C   0  0  0  0  0  0  0  0  0  0  0  0
   37.4030   29.7130   38.8990 N   0  0  0  0  0  0  0  0  0  0  0  0
   38.2210   32.9720   39.3190 H   0  0  0  0  0  0  0  0  0  0  0  0
   36.7070   32.6490   41.2310 H   0  0  0  0  0  0  0  0  0  0  0  0
   38.8380   31.0440   37.5690 O   0  0  0  0  0  0  0  0  0  0  0  0
   40.1470   31.5040   37.6680 C   0  0  0  0  0  0  0  0  0  0  0  0
   41.1060   30.8760   38.2450 O   0  0  0  0  0  0  0  0  0  0  0  0
   40.6100   32.7460   37.1390 N   0  0  0  0  0  0  0  0  0  0  0  0
   41.3100   32.9540   36.3740 H   0  0  0  0  0  0  0  0  0  0  0  0
   40.5900   33.8060   37.1390 H   0  0  0  0  0  0  0  0  0  0  0  0
  1  2  1  0  0  0  0
  2  3  2  0  0  0  0
  3  4  1  0  0  0  0
  3 13  1  0  0  0  0
  4  5  1  0  0  0  0
  5  6  2  0  0  0  0
  7  5  1  0  0  0  0
  8  7  1  0  0  0  0
  9 10  1  6  0  0  0
  9  7  1  0  0  0  0
  9  4  1  0  0  0  0
 11 10  1  0  0  0  0
 11  2  1  0  0  0  0
 12 11  1  0  0  0  0
 13 15  1  0  0  0  0
 13 14  2  0  0  0  0
 16 15  1  0  0  0  0
 17 22  2  0  0  0  0
 17 18  1  0  0  0  0
 18 19  2  0  0  0  0
 19 20  1  0  0  0  0
 19 24  1  0  0  0  0
 21  1  1  0  0  0  0
 21 20  2  0  0  0  0
 22 21  1  0  0  0  0
 23 18  1  0  0  0  0
 25 26  1  0  0  0  0
 25 17  1  0  0  0  0
 26 27  2  0  0  0  0
 28 26  1  0  0  0  0
 29 28  1  0  0  0  0
 30 28  1  0  0  0  0
M  END
>  <minimizedAffinity>
-5.42854261

$$$$

 OpenBabel03242512423D

 30 32  0  0  1  0  0  0  0  0999 V2000
   38.5000   29.3400   42.6670 C   0  0  0  0  0  2  0  0  0  0  0  0
   39.0880   30.0920   41.5540 C   0  0  0  0  0  0  0  0  0  0  0  0
   38.2310   30.6920   40.7500 C   0  0  0  0  0  0  0  0  0  0  0  0
   38.6860   31.4450   39.6490 N   0  0  0  0  0  0  0  0  0  0  0  0
   38.5550   31.8780   38.2780 C   0  0  0  0  0  0  0  0  0  0  0  0
   37.5380   32.1070   37.5960 O   0  0  0  0  0  0  0  0  0  0  0  0
   40.0620   31.8630   38.2570 C   0  0  0  0  0  3  0  0  0  0  0  0
   40.4520   30.8250   38.1820 H   0  0  0  0  0  0  0  0  0  0  0  0
   39.8700   32.2830   39.6980 C   0  0  2  0  0  3  0  0  0  0  0  0
   41.0920   31.7090   40.8600 S   0  0  0  0  0  0  0  0  0  0  0  0
   40.5560   30.1020   41.4420 C   0  0  0  0  0  3  0  0  0  0  0  0
   40.9930   29.9750   42.4670 H   0  0  0  0  0  0  0  0  0  0  0  0
   36.7850   30.6160   40.9460 C   0  0  0  0  0  0  0  0  0  0  0  0
   36.0230   29.8400   40.3020 O   0  0  0  0  0  0  0  0  0  0  0  0
   35.5330   30.8730   41.4450 O   0  0  0  0  0  0  0  0  0  0  0  0
   35.1890   31.8340   41.4180 H   0  0  0  0  0  0  0  0  0  0  0  0
   38.7700   25.8040   41.6470 C   0  0  0  0  0  0  0  0  0  0  0  0
   39.5870   25.2440   42.6400 C   0  0  0  0  0  0  0  0  0  0  0  0
   40.0470   26.0850   43.6660 C   0  0  0  0  0  0  0  0  0  0  0  0
   39.6650   27.3970   43.6240 N   0  0  0  0  0  0  0  0  0  0  0  0
   38.8860   27.8860   42.6570 C   0  0  0  0  0  0  0  0  0  0  0  0
   38.4490   27.0970   41.6870 N   0  0  0  0  0  0  0  0  0  0  0  0
   39.9110   24.2210   42.7140 H   0  0  0  0  0  0  0  0  0  0  0  0
   40.6770   25.7560   44.4760 H   0  0  0  0  0  0  0  0  0  0  0  0
   38.3460   24.9600   40.6740 O   0  0  0  0  0  0  0  0  0  0  0  0
   37.5200   23.8630   40.8890 C   0  0  0  0  0  0  0  0  0  0  0  0
   36.2730   23.9260   41.1830 O   0  0  0  0  0  0  0  0  0  0  0  0
   37.9460   22.5020   40.8120 N   0  0  0  0  0  0  0  0  0  0  0  0
   37.6690   21.7280   40.1470 H   0  0  0  0  0  0  0  0  0  0  0  0
   38.5420   21.7060   41.1810 H   0  0  0  0  0  0  0  0  0  0  0  0
  2  1  1  0  0  0  0
  3 13  1  0  0  0  0
  3  2  2  0  0  0  0
  4  9  1  0  0  0  0
  4  3  1  0  0  0  0
  5  4  1  0  0  0  0
  6  5  2  0  0  0  0
  7  5  1  0  0  0  0
  8  7  1  0  0  0  0
  9  7  1  6  0  0  0
  9 10  1  0  0  0  0
 10 11  1  0  0  0  0
 11  2  1  0  0  0  0
 11 12  1  0  0  0  0
 13 15  1  0  0  0  0
 14 13  2  0  0  0  0
 16 15  1  0  0  0  0
 17 22  2  0  0  0  0
 17 18  1  0  0  0  0
 18 23  1  0  0  0  0
 18 19  2  0  0  0  0
 19 24  1  0  0  0  0
 20 19  1  0  0  0  0
 21  1  1  0  0  0  0
 21 20  2  0  0  0  0
 22 21  1  0  0  0  0
 25 26  1  0  0  0  0
 25 17  1  0  0  0  0
 26 27  2  0  0  0  0
 28 26  1  0  0  0  0
 28 30  1  0  0  0  0
 29 28  1  0  0  0  0
M  END
>  <minimizedAffinity>
-5.3736124

$$$$

 OpenBabel03242512423D

 30 32  0  0  1  0  0  0  0  0999 V2000
   38.8170   29.9040   42.9260 C   0  0  0  0  0  2  0  0  0  0  0  0
   39.4400   28.6240   42.5780 C   0  0  0  0  0  0  0  0  0  0  0  0
   38.6190   27.5950   42.4750 C   0  0  0  0  0  0  0  0  0  0  0  0
   39.1090   26.3160   42.1420 N   0  0  0  0  0  0  0  0  0  0  0  0
   39.0910   24.8810   42.2970 C   0  0  0  0  0  0  0  0  0  0  0  0
   38.1410   24.1030   42.5090 O   0  0  0  0  0  0  0  0  0  0  0  0
   40.5800   24.9620   42.0830 C   0  0  0  0  0  3  0  0  0  0  0  0
   41.0970   25.3300   42.9950 H   0  0  0  0  0  0  0  0  0  0  0  0
   40.1700   26.1020   41.1760 C   0  0  2  0  0  3  0  0  0  0  0  0
   41.3050   27.4700   41.0620 S   0  0  0  0  0  0  0  0  0  0  0  0
   40.8990   28.6090   42.3830 C   0  0  0  0  0  3  0  0  0  0  0  0
   41.2230   29.6250   42.0360 H   0  0  0  0  0  0  0  0  0  0  0  0
   37.1790   27.7150   42.6950 C   0  0  0  0  0  0  0  0  0  0  0  0
   36.5680   27.2070   43.6770 O   0  0  0  0  0  0  0  0  0  0  0  0
   35.8670   28.0710   42.5030 O   0  0  0  0  0  0  0  0  0  0  0  0
   35.4210   27.8190   41.6210 H   0  0  0  0  0  0  0  0  0  0  0  0
   38.8990   32.1280   39.9810 C   0  0  0  0  0  0  0  0  0  0  0  0
   37.5730   32.1070   39.5250 C   0  0  0  0  0  0  0  0  0  0  0  0
   36.6450   31.3260   40.2330 C   0  0  0  0  0  0  0  0  0  0  0  0
   37.1030   30.6370   41.3210 N   0  0  0  0  0  0  0  0  0  0  0  0
   38.3760   30.6860   41.7180 C   0  0  0  0  0  0  0  0  0  0  0  0
   39.2550   31.4220   41.0540 N   0  0  0  0  0  0  0  0  0  0  0  0
   37.1700   32.6310   38.6770 H   0  0  0  0  0  0  0  0  0  0  0  0
   35.6040   31.2410   39.9680 H   0  0  0  0  0  0  0  0  0  0  0  0
   39.7650   32.8930   39.2720 O   0  0  0  0  0  0  0  0  0  0  0  0
   40.6200   32.4070   38.2880 C   0  0  0  0  0  0  0  0  0  0  0  0
   41.7440   31.8290   38.5100 O   0  0  0  0  0  0  0  0  0  0  0  0
   40.3660   32.4840   36.8860 N   0  0  0  0  0  0  0  0  0  0  0  0
   40.2050   31.7240   36.1700 H   0  0  0  0  0  0  0  0  0  0  0  0
   40.2290   33.0670   36.0100 H   0  0  0  0  0  0  0  0  0  0  0  0
  2  1  1  0  0  0  0
  3  2  2  0  0  0  0
  3 13  1  0  0  0  0
  4  5  1  0  0  0  0
  4  3  1  0  0  0  0
  5  6  2  0  0  0  0
  7  5  1  0  0  0  0
  7  8  1  0  0  0  0
  9 10  1  1  0  0  0
  9  7  1  0  0  0  0
  9  4  1  0  0  0  0
 10 11  1  0  0  0  0
 11  2  1  0  0  0  0
 12 11  1  0  0  0  0
 13 14  2  0  0  0  0
 15 13  1  0  0  0  0
 16 15  1  0  0  0  0
 17 22  1  0  0  0  0
 18 17  2  0  0  0  0
 18 19  1  0  0  0  0
 19 20  2  0  0  0  0
 20 21  1  0  0  0  0
 21  1  1  0  0  0  0
 22 21  2  0  0  0  0
 23 18  1  0  0  0  0
 24 19  1  0  0  0  0
 25 17  1  0  0  0  0
 26 27  2  0  0  0  0
 26 25  1  0  0  0  0
 28 26  1  0  0  0  0
 29 28  1  0  0  0  0
 30 28  1  0  0  0  0
M  END
>  <minimizedAffinity>
-5.30475521

$$$$

 OpenBabel03242512423D

 30 32  0  0  1  0  0  0  0  0999 V2000
   37.2700   27.9740   42.3770 C   0  0  0  0  0  2  0  0  0  0  0  0
   37.1090   27.2400   41.1190 C   0  0  0  0  0  0  0  0  0  0  0  0
   36.2790   27.7760   40.2440 C   0  0  0  0  0  0  0  0  0  0  0  0
   36.0490   27.1570   38.9990 N   0  0  0  0  0  0  0  0  0  0  0  0
   35.1630   26.7800   37.9230 C   0  0  0  0  0  0  0  0  0  0  0  0
   34.1820   27.3760   37.4380 O   0  0  0  0  0  0  0  0  0  0  0  0
   36.0060   25.5350   37.8270 C   0  0  0  0  0  3  0  0  0  0  0  0
   35.7650   24.8230   38.6450 H   0  0  0  0  0  0  0  0  0  0  0  0
   37.0960   26.5030   38.2360 C   0  0  2  0  0  3  0  0  0  0  0  0
   38.4020   25.8420   39.2520 S   0  0  0  0  0  0  0  0  0  0  0  0
   37.8740   25.9930   40.9570 C   0  0  0  0  0  3  0  0  0  0  0  0
   38.8090   26.0660   41.5720 H   0  0  0  0  0  0  0  0  0  0  0  0
   35.5600   29.0210   40.5050 C   0  0  0  0  0  0  0  0  0  0  0  0
   34.3610   29.2320   40.1640 O   0  0  0  0  0  0  0  0  0  0  0  0
   35.2980   30.2960   40.9420 O   0  0  0  0  0  0  0  0  0  0  0  0
   35.9090   31.0510   40.6280 H   0  0  0  0  0  0  0  0  0  0  0  0
   39.3720   30.9790   41.9570 C   0  0  0  0  0  0  0  0  0  0  0  0
   40.6420   30.5420   42.3610 C   0  0  0  0  0  0  0  0  0  0  0  0
   40.7780   29.2090   42.7800 C   0  0  0  0  0  0  0  0  0  0  0  0
   39.6570   28.4260   42.7650 N   0  0  0  0  0  0  0  0  0  0  0  0
   38.4670   28.8860   42.3720 C   0  0  0  0  0  0  0  0  0  0  0  0
   38.3330   30.1430   41.9750 N   0  0  0  0  0  0  0  0  0  0  0  0
   41.5480   31.1200   42.3890 H   0  0  0  0  0  0  0  0  0  0  0  0
   41.7070   28.7730   43.1090 H   0  0  0  0  0  0  0  0  0  0  0  0
   39.2800   32.2710   41.5600 O   0  0  0  0  0  0  0  0  0  0  0  0
   38.4940   32.7160   40.5020 C   0  0  0  0  0  0  0  0  0  0  0  0
   38.9440   33.2260   39.4140 O   0  0  0  0  0  0  0  0  0  0  0  0
   37.0680   32.6670   40.4780 N   0  0  0  0  0  0  0  0  0  0  0  0
   36.4050   32.1250   39.8580 H   0  0  0  0  0  0  0  0  0  0  0  0
   36.1340   32.9820   40.8680 H   0  0  0  0  0  0  0  0  0  0  0  0
  2  1  1  0  0  0  0
  3 13  1  0  0  0  0
  3  2  2  0  0  0  0
  4  3  1  0  0  0  0
  5  4  1  0  0  0  0
  6  5  2  0  0  0  0
  7  5  1  0  0  0  0
  7  8  1  0  0  0  0
  9  7  1  1  0  0  0
  9  4  1  0  0  0  0
  9 10  1  0  0  0  0
 10 11  1  0  0  0  0
 11  2  1  0  0  0  0
 11 12  1  0  0  0  0
 13 15  1  0  0  0  0
 14 13  2  0  0  0  0
 16 15  1  0  0  0  0
 17 22  2  0  0  0  0
 17 18  1  0  0  0  0
 18 23  1  0  0  0  0
 18 19  2  0  0  0  0
 19 24  1  0  0  0  0
 20 19  1  0  0  0  0
 21  1  1  0  0  0  0
 21 20  2  0  0  0  0
 22 21  1  0  0  0  0
 25 17  1  0  0  0  0
 26 25  1  0  0  0  0
 27 26  2  0  0  0  0
 28 26  1  0  0  0  0
 28 30  1  0  0  0  0
 29 28  1  0  0  0  0
M  END
>  <minimizedAffinity>
-5.27221966

$$$$

 OpenBabel03242512423D

 30 32  0  0  1  0  0  0  0  0999 V2000
   36.9830   30.9570   39.0890 C   0  0  0  0  0  2  0  0  0  0  0  0
   37.0630   29.8500   40.0460 C   0  0  0  0  0  0  0  0  0  0  0  0
   37.3630   28.6700   39.5360 C   0  0  0  0  0  0  0  0  0  0  0  0
   37.4700   27.5350   40.3650 N   0  0  0  0  0  0  0  0  0  0  0  0
   37.2610   26.1280   40.6070 C   0  0  0  0  0  0  0  0  0  0  0  0
   37.3130   25.1570   39.8270 O   0  0  0  0  0  0  0  0  0  0  0  0
   37.0120   26.5340   42.0360 C   0  0  0  0  0  3  0  0  0  0  0  0
   36.0040   26.9870   42.1550 H   0  0  0  0  0  0  0  0  0  0  0  0
   38.0530   27.5780   41.6930 C   0  0  2  0  0  3  0  0  0  0  0  0
   37.8800   29.1620   42.4890 S   0  0  0  0  0  0  0  0  0  0  0  0
   36.8010   30.1560   41.4620 C   0  0  0  0  0  3  0  0  0  0  0  0
   37.0800   31.2250   41.6530 H   0  0  0  0  0  0  0  0  0  0  0  0
   37.6000   28.4700   38.1080 C   0  0  0  0  0  0  0  0  0  0  0  0
   36.8310   27.8180   37.3470 O   0  0  0  0  0  0  0  0  0  0  0  0
   38.2000   28.5380   36.8750 O   0  0  0  0  0  0  0  0  0  0  0  0
   39.1640   28.2160   36.7870 H   0  0  0  0  0  0  0  0  0  0  0  0
   40.1720   32.8120   39.1790 C   0  0  0  0  0  0  0  0  0  0  0  0
   39.8350   33.9970   39.8480 C   0  0  0  0  0  0  0  0  0  0  0  0
   38.5070   34.1610   40.2720 C   0  0  0  0  0  0  0  0  0  0  0  0
   37.6300   33.1480   39.9990 N   0  0  0  0  0  0  0  0  0  0  0  0
   37.9960   32.0360   39.3580 C   0  0  0  0  0  0  0  0  0  0  0  0
   39.2480   31.8770   38.9570 N   0  0  0  0  0  0  0  0  0  0  0  0
   40.4900   34.8180   40.0840 H   0  0  0  0  0  0  0  0  0  0  0  0
   38.1450   35.0320   40.7930 H   0  0  0  0  0  0  0  0  0  0  0  0
   41.4640   32.6900   38.7870 O   0  0  0  0  0  0  0  0  0  0  0  0
   41.8980   32.7920   37.4690 C   0  0  0  0  0  0  0  0  0  0  0  0
   41.9990   31.8100   36.6500 O   0  0  0  0  0  0  0  0  0  0  0  0
   42.2960   34.0100   36.8410 N   0  0  0  0  0  0  0  0  0  0  0  0
   41.8720   34.5410   36.0310 H   0  0  0  0  0  0  0  0  0  0  0  0
   42.9640   34.8310   36.7740 H   0  0  0  0  0  0  0  0  0  0  0  0
  1 21  1  0  0  0  0
  1  2  1  0  0  0  0
  2 11  1  0  0  0  0
  3  2  2  0  0  0  0
  3  4  1  0  0  0  0
  4  5  1  0  0  0  0
  4  9  1  0  0  0  0
  5  7  1  0  0  0  0
  6  5  2  0  0  0  0
  7  8  1  0  0  0  0
  9  7  1  1  0  0  0
  9 10  1  0  0  0  0
 11 12  1  0  0  0  0
 11 10  1  0  0  0  0
 13  3  1  0  0  0  0
 14 13  2  0  0  0  0
 15 13  1  0  0  0  0
 16 15  1  0  0  0  0
 17 18  1  0  0  0  0
 18 23  1  0  0  0  0
 18 19  2  0  0  0  0
 19 24  1  0  0  0  0
 20 19  1  0  0  0  0
 21 20  2  0  0  0  0
 22 17  2  0  0  0  0
 22 21  1  0  0  0  0
 25 17  1  0  0  0  0
 26 25  1  0  0  0  0
 27 26  2  0  0  0  0
 28 26  1  0  0  0  0
 29 28  1  0  0  0  0
 30 28  1  0  0  0  0
M  END
>  <minimizedAffinity>
-5.247859

$$$$

 OpenBabel03242512423D

 30 32  0  0  1  0  0  0  0  0999 V2000
   36.7340   31.4650   39.6820 C   0  0  0  0  0  2  0  0  0  0  0  0
   36.3670   30.3210   38.8420 C   0  0  0  0  0  0  0  0  0  0  0  0
   36.9220   30.2870   37.6440 C   0  0  0  0  0  0  0  0  0  0  0  0
   36.6430   29.2320   36.7530 N   0  0  0  0  0  0  0  0  0  0  0  0
   36.3910   28.7430   35.4180 C   0  0  0  0  0  0  0  0  0  0  0  0
   36.8570   29.1100   34.3220 O   0  0  0  0  0  0  0  0  0  0  0  0
   35.4510   27.7700   36.0830 C   0  0  0  0  0  3  0  0  0  0  0  0
   34.5020   28.2670   36.3780 H   0  0  0  0  0  0  0  0  0  0  0  0
   36.4890   27.8540   37.1820 C   0  0  2  0  0  3  0  0  0  0  0  0
   35.8870   27.6980   38.8510 S   0  0  0  0  0  0  0  0  0  0  0  0
   35.4270   29.3380   39.4040 C   0  0  0  0  0  3  0  0  0  0  0  0
   35.5370   29.3380   40.5200 H   0  0  0  0  0  0  0  0  0  0  0  0
   37.8440   31.3210   37.1770 C   0  0  0  0  0  0  0  0  0  0  0  0
   37.6120   32.0850   36.1980 O   0  0  0  0  0  0  0  0  0  0  0  0
   38.9570   32.1190   37.0950 O   0  0  0  0  0  0  0  0  0  0  0  0
   39.8690   31.6700   37.0040 H   0  0  0  0  0  0  0  0  0  0  0  0
   38.6760   29.9430   42.4270 C   0  0  0  0  0  0  0  0  0  0  0  0
   39.9150   30.5960   42.3450 C   0  0  0  0  0  0  0  0  0  0  0  0
   40.0840   31.5640   41.3420 C   0  0  0  0  0  0  0  0  0  0  0  0
   39.0250   31.8030   40.5120 N   0  0  0  0  0  0  0  0  0  0  0  0
   37.8630   31.1560   40.6280 C   0  0  0  0  0  0  0  0  0  0  0  0
   37.6980   30.2420   41.5720 N   0  0  0  0  0  0  0  0  0  0  0  0
   40.7730   30.4410   42.9750 H   0  0  0  0  0  0  0  0  0  0  0  0
   40.9940   32.1230   41.1930 H   0  0  0  0  0  0  0  0  0  0  0  0
   38.5510   29.0160   43.4080 O   0  0  0  0  0  0  0  0  0  0  0  0
   37.7560   27.8780   43.3180 C   0  0  0  0  0  0  0  0  0  0  0  0
   38.1960   26.6820   43.1710 O   0  0  0  0  0  0  0  0  0  0  0  0
   36.3300   27.8820   43.3760 N   0  0  0  0  0  0  0  0  0  0  0  0
   35.6660   27.4670   44.0870 H   0  0  0  0  0  0  0  0  0  0  0  0
   35.3960   28.1620   42.9580 H   0  0  0  0  0  0  0  0  0  0  0  0
  1 21  1  0  0  0  0
  2 11  1  0  0  0  0
  2  1  1  0  0  0  0
  3  2  2  0  0  0  0
  4  9  1  0  0  0  0
  4  3  1  0  0  0  0
  5  7  1  0  0  0  0
  5  4  1  0  0  0  0
  6  5  2  0  0  0  0
  7  8  1  0  0  0  0
  9  7  1  6  0  0  0
  9 10  1  0  0  0  0
 10 11  1  0  0  0  0
 11 12  1  0  0  0  0
 13  3  1  0  0  0  0
 14 13  2  0  0  0  0
 15 13  1  0  0  0  0
 16 15  1  0  0  0  0
 17 25  1  0  0  0  0
 18 17  1  0  0  0  0
 18 23  1  0  0  0  0
 19 18  2  0  0  0  0
 20 21  2  0  0  0  0
 20 19  1  0  0  0  0
 21 22  1  0  0  0  0
 22 17  2  0  0  0  0
 24 19  1  0  0  0  0
 26 28  1  0  0  0  0
 26 25  1  0  0  0  0
 27 26  2  0  0  0  0
 28 29  1  0  0  0  0
 30 28  1  0  0  0  0
M  END
>  <minimizedAffinity>
-5.18242836

$$$$
