
 OpenBabel03242510083D

 35 38  0  0  1  0  0  0  0  0999 V2000
   44.6520   32.8300   41.4460 Br  0  0  0  0  0  0  0  0  0  0  0  0
   46.2640   33.7950   41.1130 C   0  0  0  0  0  0  0  0  0  0  0  0
   46.7830   34.6440   42.0750 C   0  0  0  0  0  0  0  0  0  0  0  0
   47.9510   35.3680   41.8530 C   0  0  0  0  0  0  0  0  0  0  0  0
   48.5690   35.2080   40.6430 C   0  0  0  0  0  0  0  0  0  0  0  0
   48.0250   34.3560   39.7100 C   0  0  0  0  0  0  0  0  0  0  0  0
   46.8920   33.6440   39.9060 C   0  0  0  0  0  0  0  0  0  0  0  0
   48.3410   36.0300   42.6250 H   0  0  0  0  0  0  0  0  0  0  0  0
   49.4910   35.7730   40.4530 H   0  0  0  0  0  0  0  0  0  0  0  0
   48.5820   34.3070   38.7900 H   0  0  0  0  0  0  0  0  0  0  0  0
   45.6530   33.9750   45.4860 C   0  0  0  0  0  0  0  0  0  0  0  0
   44.7210   34.9920   45.7490 C   0  0  0  0  0  0  0  0  0  0  0  0
   44.4940   35.9080   44.7240 C   0  0  0  0  0  0  0  0  0  0  0  0
   45.1740   35.7630   43.5610 N   0  0  0  0  0  0  0  0  0  0  0  0
   46.0680   34.7640   43.3490 C   0  0  0  0  0  0  0  0  0  0  0  0
   46.3020   33.8670   44.3260 N   0  0  0  0  0  0  0  0  0  0  0  0
   45.7700   33.3060   46.3330 H   0  0  0  0  0  0  0  0  0  0  0  0
   44.1650   35.1480   46.6400 H   0  0  0  0  0  0  0  0  0  0  0  0
   43.8130   36.7630   44.7360 H   0  0  0  0  0  0  0  0  0  0  0  0
   46.3140   32.7350   38.8780 C   0  0  0  0  0  2  0  0  0  0  0  0
   47.2940   32.0880   38.0070 C   0  0  0  0  0  0  0  0  0  0  0  0
   47.0790   32.0900   36.7170 C   0  0  0  0  0  0  0  0  0  0  0  0
   48.0300   31.4740   35.8600 N   0  0  0  0  0  0  0  0  0  0  0  0
   48.2540   30.6040   34.7270 C   0  0  0  0  0  0  0  0  0  0  0  0
   47.5600   30.1600   33.7490 O   0  0  0  0  0  0  0  0  0  0  0  0
   49.6740   30.4050   35.1460 C   0  0  0  0  0  3  0  0  0  0  0  0
   50.3330   30.5850   34.2580 H   0  0  0  0  0  0  0  0  0  0  0  0
   49.4820   31.6490   35.9830 C   0  0  2  0  0  3  0  0  0  0  0  0
   49.9110   31.5560   37.7070 S   0  0  0  0  0  0  0  0  0  0  0  0
   48.4280   31.4630   38.7180 C   0  0  0  0  0  3  0  0  0  0  0  0
   48.1920   30.4050   39.0170 H   0  0  0  0  0  0  0  0  0  0  0  0
   45.9220   32.6920   36.0500 C   0  0  0  0  0  0  0  0  0  0  0  0
   45.3500   32.2860   35.0120 O   0  0  0  0  0  0  0  0  0  0  0  0
   45.0050   33.7030   36.0570 O   0  0  0  0  0  0  0  0  0  0  0  0
   44.1650   33.6670   36.6510 H   0  0  0  0  0  0  0  0  0  0  0  0
  2  1  1  0  0  0  0
  2  3  1  0  0  0  0
  3 15  1  0  0  0  0
  4  3  2  0  0  0  0
  4  8  1  0  0  0  0
  5  4  1  0  0  0  0
  6  7  1  0  0  0  0
  6  5  2  0  0  0  0
  7  2  2  0  0  0  0
  9  5  1  0  0  0  0
 10  6  1  0  0  0  0
 11 12  1  0  0  0  0
 11 17  1  0  0  0  0
 12 18  1  0  0  0  0
 13 19  1  0  0  0  0
 13 12  2  0  0  0  0
 14 13  1  0  0  0  0
 15 14  2  0  0  0  0
 15 16  1  0  0  0  0
 16 11  2  0  0  0  0
 20  7  1  0  0  0  0
 21 30  1  0  0  0  0
 21 20  1  0  0  0  0
 22 21  2  0  0  0  0
 23 28  1  0  0  0  0
 23 22  1  0  0  0  0
 24 26  1  0  0  0  0
 24 23  1  0  0  0  0
 25 24  2  0  0  0  0
 27 26  1  0  0  0  0
 28 26  1  6  0  0  0
 28 29  1  0  0  0  0
 29 30  1  0  0  0  0
 30 31  1  0  0  0  0
 32 34  1  0  0  0  0
 32 22  1  0  0  0  0
 33 32  2  0  0  0  0
 34 35  1  0  0  0  0
M  END
>  <minimizedAffinity>
-6.21560717

>  <minimizedRMSD>
0.65002054

$$$$
