
 OpenBabel03242510413D

 38 41  0  0  1  0  0  0  0  0999 V2000
   36.6100   27.2130   40.5760 Cl  0  0  0  0  0  0  0  0  0  0  0  0
   37.7670   26.6290   41.7550 C   0  0  0  0  0  0  0  0  0  0  0  0
   38.2090   25.3380   41.6200 C   0  0  0  0  0  0  0  0  0  0  0  0
   39.1100   24.8670   42.5280 C   0  0  0  0  0  0  0  0  0  0  0  0
   39.5470   25.6990   43.5510 C   0  0  0  0  0  0  0  0  0  0  0  0
   39.1000   26.9880   43.6790 C   0  0  0  0  0  0  0  0  0  0  0  0
   38.1750   27.4760   42.7480 C   0  0  0  0  0  0  0  0  0  0  0  0
   39.4980   23.8380   42.4650 H   0  0  0  0  0  0  0  0  0  0  0  0
   40.2620   25.3760   44.3010 H   0  0  0  0  0  0  0  0  0  0  0  0
   39.4320   27.6420   44.4650 H   0  0  0  0  0  0  0  0  0  0  0  0
   38.1120   23.2870   38.5930 C   0  0  0  0  0  0  0  0  0  0  0  0
   36.7450   22.9290   38.4720 C   0  0  0  0  0  0  0  0  0  0  0  0
   35.8950   23.4280   39.4750 C   0  0  0  0  0  0  0  0  0  0  0  0
   36.4260   24.1890   40.4500 N   0  0  0  0  0  0  0  0  0  0  0  0
   37.7280   24.5030   40.5260 C   0  0  0  0  0  0  0  0  0  0  0  0
   38.5710   24.0430   39.5840 N   0  0  0  0  0  0  0  0  0  0  0  0
   38.7670   22.8970   37.8120 H   0  0  0  0  0  0  0  0  0  0  0  0
   36.3940   22.3050   37.6490 H   0  0  0  0  0  0  0  0  0  0  0  0
   34.4880   23.0340   39.3140 C   0  0  0  0  0  0  0  0  0  0  0  0
   34.4500   21.7860   38.6900 F   0  0  0  0  0  0  0  0  0  0  0  0
   33.9240   23.8970   38.4180 F   0  0  0  0  0  0  0  0  0  0  0  0
   33.8060   22.9330   40.5020 F   0  0  0  0  0  0  0  0  0  0  0  0
   37.7060   28.8890   42.9160 C   0  0  0  0  0  2  0  0  0  0  0  0
   38.4990   29.8170   42.0960 C   0  0  0  0  0  0  0  0  0  0  0  0
   38.0340   30.5640   41.1390 C   0  0  0  0  0  0  0  0  0  0  0  0
   38.9230   31.4210   40.4360 N   0  0  0  0  0  0  0  0  0  0  0  0
   39.3100   32.0260   39.2050 C   0  0  0  0  0  0  0  0  0  0  0  0
   38.8200   32.1560   38.0450 O   0  0  0  0  0  0  0  0  0  0  0  0
   40.6060   32.5170   39.7320 C   0  0  0  0  0  3  0  0  0  0  0  0
   41.4990   32.0030   39.3590 H   0  0  0  0  0  0  0  0  0  0  0  0
   40.0410   32.1160   41.0470 C   0  0  2  0  0  3  0  0  0  0  0  0
   41.0630   30.7840   41.7900 S   0  0  0  0  0  0  0  0  0  0  0  0
   39.8820   29.6960   42.6030 C   0  0  0  0  0  3  0  0  0  0  0  0
   40.2380   28.6440   42.6410 H   0  0  0  0  0  0  0  0  0  0  0  0
   36.6190   30.6030   40.7150 C   0  0  0  0  0  0  0  0  0  0  0  0
   35.9900   30.3120   39.6730 O   0  0  0  0  0  0  0  0  0  0  0  0
   35.5900   31.0260   41.5040 O   0  0  0  0  0  0  0  0  0  0  0  0
   34.8960   31.7020   41.2120 H   0  0  0  0  0  0  0  0  0  0  0  0
  1  2  1  0  0  0  0
  2  7  1  0  0  0  0
  3  2  2  0  0  0  0
  3  4  1  0  0  0  0
  4  5  2  0  0  0  0
  5  6  1  0  0  0  0
  5  9  1  0  0  0  0
  6 10  1  0  0  0  0
  7 23  1  0  0  0  0
  7  6  2  0  0  0  0
  8  4  1  0  0  0  0
 11 16  1  0  0  0  0
 12 11  2  0  0  0  0
 12 13  1  0  0  0  0
 13 14  2  0  0  0  0
 14 15  1  0  0  0  0
 15  3  1  0  0  0  0
 16 15  2  0  0  0  0
 17 11  1  0  0  0  0
 18 12  1  0  0  0  0
 19 13  1  0  0  0  0
 19 22  1  0  0  0  0
 20 19  1  0  0  0  0
 21 19  1  0  0  0  0
 24 33  1  0  0  0  0
 24 23  1  0  0  0  0
 25 24  2  0  0  0  0
 26 31  1  0  0  0  0
 26 25  1  0  0  0  0
 27 29  1  0  0  0  0
 27 26  1  0  0  0  0
 28 27  2  0  0  0  0
 30 29  1  0  0  0  0
 31 29  1  6  0  0  0
 31 32  1  0  0  0  0
 32 33  1  0  0  0  0
 33 34  1  0  0  0  0
 35 25  1  0  0  0  0
 35 37  1  0  0  0  0
 36 35  2  0  0  0  0
 38 37  1  0  0  0  0
M  END
>  <minimizedAffinity>
-6.69098711

$$$$

 OpenBabel03242510413D

 38 41  0  0  1  0  0  0  0  0999 V2000
   39.8450   30.8160   42.3220 Cl  0  0  0  0  0  0  0  0  0  0  0  0
   38.7000   31.3280   41.0990 C   0  0  0  0  0  0  0  0  0  0  0  0
   37.6180   30.5180   40.8680 C   0  0  0  0  0  0  0  0  0  0  0  0
   36.7150   30.9000   39.9210 C   0  0  0  0  0  0  0  0  0  0  0  0
   36.9180   32.0850   39.2240 C   0  0  0  0  0  0  0  0  0  0  0  0
   38.0020   32.8890   39.4600 C   0  0  0  0  0  0  0  0  0  0  0  0
   38.9310   32.5000   40.4340 C   0  0  0  0  0  0  0  0  0  0  0  0
   35.8290   30.2860   39.6970 H   0  0  0  0  0  0  0  0  0  0  0  0
   36.2340   32.4370   38.4590 H   0  0  0  0  0  0  0  0  0  0  0  0
   38.1690   33.8090   38.9300 H   0  0  0  0  0  0  0  0  0  0  0  0
   37.2180   28.1720   43.6460 C   0  0  0  0  0  0  0  0  0  0  0  0
   37.1160   26.9090   43.0090 C   0  0  0  0  0  0  0  0  0  0  0  0
   37.1900   26.9280   41.6050 C   0  0  0  0  0  0  0  0  0  0  0  0
   37.3500   28.1130   40.9840 N   0  0  0  0  0  0  0  0  0  0  0  0
   37.4420   29.2860   41.6290 C   0  0  0  0  0  0  0  0  0  0  0  0
   37.3750   29.3050   42.9710 N   0  0  0  0  0  0  0  0  0  0  0  0
   37.1610   28.1510   44.7350 H   0  0  0  0  0  0  0  0  0  0  0  0
   36.9870   25.9930   43.5860 H   0  0  0  0  0  0  0  0  0  0  0  0
   37.0800   25.6010   40.9830 C   0  0  0  0  0  0  0  0  0  0  0  0
   36.5700   24.7130   41.9320 F   0  0  0  0  0  0  0  0  0  0  0  0
   38.3480   25.1620   40.7310 F   0  0  0  0  0  0  0  0  0  0  0  0
   36.2470   25.5740   39.8910 F   0  0  0  0  0  0  0  0  0  0  0  0
   40.1050   33.4010   40.6670 C   0  0  0  0  0  2  0  0  0  0  0  0
   41.2730   32.9710   39.8860 C   0  0  0  0  0  0  0  0  0  0  0  0
   42.4420   32.6800   40.3760 C   0  0  0  0  0  0  0  0  0  0  0  0
   43.4790   32.2690   39.4940 N   0  0  0  0  0  0  0  0  0  0  0  0
   44.8630   32.2800   39.1570 C   0  0  0  0  0  0  0  0  0  0  0  0
   45.9470   32.6300   39.7100 O   0  0  0  0  0  0  0  0  0  0  0  0
   44.6480   31.6950   37.8120 C   0  0  0  0  0  3  0  0  0  0  0  0
   44.7930   32.3750   36.9660 H   0  0  0  0  0  0  0  0  0  0  0  0
   43.2700   31.4520   38.3130 C   0  0  2  0  0  3  0  0  0  0  0  0
   42.0600   32.3980   37.3060 S   0  0  0  0  0  0  0  0  0  0  0  0
   40.8140   32.9510   38.4810 C   0  0  0  0  0  3  0  0  0  0  0  0
   40.3370   33.9050   38.1690 H   0  0  0  0  0  0  0  0  0  0  0  0
   42.7900   32.7360   41.8110 C   0  0  0  0  0  0  0  0  0  0  0  0
   43.0010   31.8950   42.7130 O   0  0  0  0  0  0  0  0  0  0  0  0
   42.9730   33.8910   42.5140 O   0  0  0  0  0  0  0  0  0  0  0  0
   42.5300   34.0860   43.4030 H   0  0  0  0  0  0  0  0  0  0  0  0
  2  1  1  0  0  0  0
  3  2  1  0  0  0  0
  3 15  1  0  0  0  0
  4  3  2  0  0  0  0
  5  6  2  0  0  0  0
  5  4  1  0  0  0  0
  6  7  1  0  0  0  0
  7 23  1  0  0  0  0
  7  2  2  0  0  0  0
  8  4  1  0  0  0  0
  9  5  1  0  0  0  0
 10  6  1  0  0  0  0
 11 17  1  0  0  0  0
 12 18  1  0  0  0  0
 12 11  1  0  0  0  0
 13 12  2  0  0  0  0
 14 13  1  0  0  0  0
 14 15  2  0  0  0  0
 15 16  1  0  0  0  0
 16 11  2  0  0  0  0
 19 13  1  0  0  0  0
 19 20  1  0  0  0  0
 21 19  1  0  0  0  0
 22 19  1  0  0  0  0
 24 25  2  0  0  0  0
 24 23  1  0  0  0  0
 25 35  1  0  0  0  0
 26 25  1  0  0  0  0
 27 26  1  0  0  0  0
 27 28  2  0  0  0  0
 29 31  1  0  0  0  0
 29 27  1  0  0  0  0
 30 29  1  0  0  0  0
 31 32  1  6  0  0  0
 31 26  1  0  0  0  0
 32 33  1  0  0  0  0
 33 24  1  0  0  0  0
 34 33  1  0  0  0  0
 35 37  1  0  0  0  0
 35 36  2  0  0  0  0
 37 38  1  0  0  0  0
M  END
>  <minimizedAffinity>
-6.47685289

$$$$

 OpenBabel03242510413D

 38 41  0  0  1  0  0  0  0  0999 V2000
   36.5630   27.4220   40.7040 Cl  0  0  0  0  0  0  0  0  0  0  0  0
   37.7740   26.8590   41.8390 C   0  0  0  0  0  0  0  0  0  0  0  0
   38.1940   25.5590   41.7200 C   0  0  0  0  0  0  0  0  0  0  0  0
   39.1360   25.1030   42.5930 C   0  0  0  0  0  0  0  0  0  0  0  0
   39.6340   25.9600   43.5670 C   0  0  0  0  0  0  0  0  0  0  0  0
   39.2090   27.2570   43.6800 C   0  0  0  0  0  0  0  0  0  0  0  0
   38.2420   27.7290   42.7830 C   0  0  0  0  0  0  0  0  0  0  0  0
   39.5080   24.0680   42.5420 H   0  0  0  0  0  0  0  0  0  0  0  0
   40.3840   25.6500   44.2890 H   0  0  0  0  0  0  0  0  0  0  0  0
   39.5880   27.9300   44.4270 H   0  0  0  0  0  0  0  0  0  0  0  0
   36.0120   23.2530   39.9030 C   0  0  0  0  0  0  0  0  0  0  0  0
   36.6700   23.0750   38.6590 C   0  0  0  0  0  0  0  0  0  0  0  0
   37.8750   23.7840   38.5020 C   0  0  0  0  0  0  0  0  0  0  0  0
   38.3030   24.5590   39.5160 N   0  0  0  0  0  0  0  0  0  0  0  0
   37.6470   24.6980   40.6780 C   0  0  0  0  0  0  0  0  0  0  0  0
   36.4920   24.0350   40.8630 N   0  0  0  0  0  0  0  0  0  0  0  0
   35.0790   22.7000   40.0200 H   0  0  0  0  0  0  0  0  0  0  0  0
   36.2550   22.4280   37.8870 H   0  0  0  0  0  0  0  0  0  0  0  0
   38.5250   23.5730   37.2010 C   0  0  0  0  0  0  0  0  0  0  0  0
   39.5440   24.5170   37.0620 F   0  0  0  0  0  0  0  0  0  0  0  0
   37.6140   23.8890   36.2340 F   0  0  0  0  0  0  0  0  0  0  0  0
   39.0840   22.3260   37.0610 F   0  0  0  0  0  0  0  0  0  0  0  0
   37.7980   29.1530   42.9330 C   0  0  0  0  0  2  0  0  0  0  0  0
   38.5740   30.0490   42.0630 C   0  0  0  0  0  0  0  0  0  0  0  0
   38.0940   30.7410   41.0730 C   0  0  0  0  0  0  0  0  0  0  0  0
   38.9680   31.5740   40.3220 N   0  0  0  0  0  0  0  0  0  0  0  0
   39.3400   32.1210   39.0610 C   0  0  0  0  0  0  0  0  0  0  0  0
   38.8420   32.1870   37.8980 O   0  0  0  0  0  0  0  0  0  0  0  0
   40.6310   32.6560   39.5550 C   0  0  0  0  0  3  0  0  0  0  0  0
   41.5290   32.1370   39.2030 H   0  0  0  0  0  0  0  0  0  0  0  0
   40.0780   32.3140   40.8920 C   0  0  2  0  0  3  0  0  0  0  0  0
   41.1230   31.0340   41.6940 S   0  0  0  0  0  0  0  0  0  0  0  0
   39.9620   29.9730   42.5680 C   0  0  0  0  0  3  0  0  0  0  0  0
   40.3320   28.9290   42.6560 H   0  0  0  0  0  0  0  0  0  0  0  0
   36.6760   30.7390   40.6550 C   0  0  0  0  0  0  0  0  0  0  0  0
   36.0550   30.4700   39.6020 O   0  0  0  0  0  0  0  0  0  0  0  0
   35.6340   31.0810   41.4670 O   0  0  0  0  0  0  0  0  0  0  0  0
   34.9110   31.7400   41.2090 H   0  0  0  0  0  0  0  0  0  0  0  0
  1  2  1  0  0  0  0
  2  7  1  0  0  0  0
  3  2  2  0  0  0  0
  3  4  1  0  0  0  0
  4  5  2  0  0  0  0
  5  6  1  0  0  0  0
  5  9  1  0  0  0  0
  6 10  1  0  0  0  0
  7 23  1  0  0  0  0
  7  6  2  0  0  0  0
  8  4  1  0  0  0  0
 11 17  1  0  0  0  0
 11 16  1  0  0  0  0
 12 11  2  0  0  0  0
 13 12  1  0  0  0  0
 13 14  2  0  0  0  0
 14 15  1  0  0  0  0
 15 16  2  0  0  0  0
 15  3  1  0  0  0  0
 18 12  1  0  0  0  0
 19 13  1  0  0  0  0
 20 19  1  0  0  0  0
 21 19  1  0  0  0  0
 22 19  1  0  0  0  0
 24 33  1  0  0  0  0
 24 23  1  0  0  0  0
 25 24  2  0  0  0  0
 26 31  1  0  0  0  0
 26 25  1  0  0  0  0
 27 29  1  0  0  0  0
 27 26  1  0  0  0  0
 28 27  2  0  0  0  0
 30 29  1  0  0  0  0
 31 29  1  6  0  0  0
 31 32  1  0  0  0  0
 32 33  1  0  0  0  0
 33 34  1  0  0  0  0
 35 25  1  0  0  0  0
 35 37  1  0  0  0  0
 36 35  2  0  0  0  0
 38 37  1  0  0  0  0
M  END
>  <minimizedAffinity>
-6.20842934

$$$$

 OpenBabel03242510413D

 38 41  0  0  1  0  0  0  0  0999 V2000
   40.7880   30.6360   37.9870 Cl  0  0  0  0  0  0  0  0  0  0  0  0
   39.5840   31.6730   38.7240 C   0  0  0  0  0  0  0  0  0  0  0  0
   39.9970   32.9010   39.1720 C   0  0  0  0  0  0  0  0  0  0  0  0
   39.0740   33.7220   39.7480 C   0  0  0  0  0  0  0  0  0  0  0  0
   37.7580   33.2930   39.8640 C   0  0  0  0  0  0  0  0  0  0  0  0
   37.3520   32.0640   39.4130 C   0  0  0  0  0  0  0  0  0  0  0  0
   38.2980   31.2190   38.8200 C   0  0  0  0  0  0  0  0  0  0  0  0
   39.3530   34.7190   40.1250 H   0  0  0  0  0  0  0  0  0  0  0  0
   36.9820   33.9050   40.3140 H   0  0  0  0  0  0  0  0  0  0  0  0
   36.3370   31.7230   39.4950 H   0  0  0  0  0  0  0  0  0  0  0  0
   43.1330   34.1090   37.7250 C   0  0  0  0  0  0  0  0  0  0  0  0
   44.0430   34.0680   38.8120 C   0  0  0  0  0  0  0  0  0  0  0  0
   43.5140   33.6130   40.0330 C   0  0  0  0  0  0  0  0  0  0  0  0
   42.2160   33.2570   40.0790 N   0  0  0  0  0  0  0  0  0  0  0  0
   41.3890   33.3120   39.0240 C   0  0  0  0  0  0  0  0  0  0  0  0
   41.8610   33.7430   37.8410 N   0  0  0  0  0  0  0  0  0  0  0  0
   43.5490   34.4620   36.7810 H   0  0  0  0  0  0  0  0  0  0  0  0
   45.0820   34.3750   38.6910 H   0  0  0  0  0  0  0  0  0  0  0  0
   44.4880   33.5860   41.1320 C   0  0  0  0  0  0  0  0  0  0  0  0
   44.7040   32.2560   41.4950 F   0  0  0  0  0  0  0  0  0  0  0  0
   43.8920   34.1580   42.2190 F   0  0  0  0  0  0  0  0  0  0  0  0
   45.7030   34.1370   40.8030 F   0  0  0  0  0  0  0  0  0  0  0  0
   37.8230   29.8820   38.3380 C   0  0  0  0  0  2  0  0  0  0  0  0
   37.8920   28.8730   39.4060 C   0  0  0  0  0  0  0  0  0  0  0  0
   36.9380   28.5970   40.2450 C   0  0  0  0  0  0  0  0  0  0  0  0
   37.1480   27.5870   41.2230 N   0  0  0  0  0  0  0  0  0  0  0  0
   36.9320   27.1160   42.5500 C   0  0  0  0  0  0  0  0  0  0  0  0
   36.2020   27.4320   43.5350 O   0  0  0  0  0  0  0  0  0  0  0  0
   37.9250   26.0220   42.4360 C   0  0  0  0  0  3  0  0  0  0  0  0
   38.8510   26.1560   43.0060 H   0  0  0  0  0  0  0  0  0  0  0  0
   37.9110   26.3740   40.9920 C   0  0  2  0  0  3  0  0  0  0  0  0
   39.5710   26.9640   40.4740 S   0  0  0  0  0  0  0  0  0  0  0  0
   39.2430   28.2840   39.2940 C   0  0  0  0  0  3  0  0  0  0  0  0
   40.0490   29.0490   39.2860 H   0  0  0  0  0  0  0  0  0  0  0  0
   35.6160   29.2570   40.2630 C   0  0  0  0  0  0  0  0  0  0  0  0
   34.5630   29.1680   39.5930 O   0  0  0  0  0  0  0  0  0  0  0  0
   35.2530   30.2300   41.1480 O   0  0  0  0  0  0  0  0  0  0  0  0
   34.8330   31.1100   40.8790 H   0  0  0  0  0  0  0  0  0  0  0  0
  1  2  1  0  0  0  0
  2  7  2  0  0  0  0
  2  3  1  0  0  0  0
  3  4  2  0  0  0  0
  4  5  1  0  0  0  0
  4  8  1  0  0  0  0
  5  9  1  0  0  0  0
  6 10  1  0  0  0  0
  6  5  2  0  0  0  0
  7  6  1  0  0  0  0
 11 16  2  0  0  0  0
 11 12  1  0  0  0  0
 12 13  2  0  0  0  0
 13 14  1  0  0  0  0
 13 19  1  0  0  0  0
 15  3  1  0  0  0  0
 15 14  2  0  0  0  0
 16 15  1  0  0  0  0
 17 11  1  0  0  0  0
 18 12  1  0  0  0  0
 19 20  1  0  0  0  0
 19 21  1  0  0  0  0
 22 19  1  0  0  0  0
 23  7  1  0  0  0  0
 23 24  1  0  0  0  0
 24 25  2  0  0  0  0
 25 35  1  0  0  0  0
 25 26  1  0  0  0  0
 26 27  1  0  0  0  0
 27 28  2  0  0  0  0
 29 27  1  0  0  0  0
 29 30  1  0  0  0  0
 31 32  1  1  0  0  0
 31 26  1  0  0  0  0
 31 29  1  0  0  0  0
 33 24  1  0  0  0  0
 33 32  1  0  0  0  0
 34 33  1  0  0  0  0
 35 37  1  0  0  0  0
 36 35  2  0  0  0  0
 38 37  1  0  0  0  0
M  END
>  <minimizedAffinity>
-6.19948626

$$$$

 OpenBabel03242510413D

 38 41  0  0  1  0  0  0  0  0999 V2000
   38.2560   30.6380   41.3220 Cl  0  0  0  0  0  0  0  0  0  0  0  0
   37.6850   30.5280   39.6690 C   0  0  0  0  0  0  0  0  0  0  0  0
   38.3130   31.3060   38.7300 C   0  0  0  0  0  0  0  0  0  0  0  0
   37.8830   31.2330   37.4390 C   0  0  0  0  0  0  0  0  0  0  0  0
   36.8310   30.3840   37.1180 C   0  0  0  0  0  0  0  0  0  0  0  0
   36.2080   29.6100   38.0610 C   0  0  0  0  0  0  0  0  0  0  0  0
   36.6480   29.6820   39.3890 C   0  0  0  0  0  0  0  0  0  0  0  0
   38.3530   31.8360   36.6470 H   0  0  0  0  0  0  0  0  0  0  0  0
   36.4470   30.2870   36.1070 H   0  0  0  0  0  0  0  0  0  0  0  0
   35.3950   28.9480   37.8240 H   0  0  0  0  0  0  0  0  0  0  0  0
   40.2100   34.1390   40.0550 C   0  0  0  0  0  0  0  0  0  0  0  0
   41.5610   33.7870   39.8060 C   0  0  0  0  0  0  0  0  0  0  0  0
   41.7590   32.5470   39.1730 C   0  0  0  0  0  0  0  0  0  0  0  0
   40.6810   31.8050   38.8580 N   0  0  0  0  0  0  0  0  0  0  0  0
   39.4180   32.1780   39.1130 C   0  0  0  0  0  0  0  0  0  0  0  0
   39.1910   33.3570   39.7180 N   0  0  0  0  0  0  0  0  0  0  0  0
   40.0620   35.1020   40.5460 H   0  0  0  0  0  0  0  0  0  0  0  0
   42.3800   34.4460   40.0940 H   0  0  0  0  0  0  0  0  0  0  0  0
   43.1710   32.2190   38.9320 C   0  0  0  0  0  0  0  0  0  0  0  0
   43.8870   32.4750   40.1030 F   0  0  0  0  0  0  0  0  0  0  0  0
   43.6490   33.1160   38.0200 F   0  0  0  0  0  0  0  0  0  0  0  0
   43.3800   30.9040   38.5910 F   0  0  0  0  0  0  0  0  0  0  0  0
   35.9460   28.8230   40.3960 C   0  0  0  0  0  2  0  0  0  0  0  0
   36.5650   27.4930   40.4900 C   0  0  0  0  0  0  0  0  0  0  0  0
   37.0440   26.9590   41.5740 C   0  0  0  0  0  0  0  0  0  0  0  0
   37.6090   25.6560   41.5120 N   0  0  0  0  0  0  0  0  0  0  0  0
   38.6050   24.7400   41.9580 C   0  0  0  0  0  0  0  0  0  0  0  0
   39.4770   24.6970   42.8750 O   0  0  0  0  0  0  0  0  0  0  0  0
   38.2960   23.7330   40.9160 C   0  0  0  0  0  3  0  0  0  0  0  0
   39.0430   23.6200   40.1220 H   0  0  0  0  0  0  0  0  0  0  0  0
   37.1050   24.5880   40.6690 C   0  0  2  0  0  3  0  0  0  0  0  0
   37.1680   25.2750   38.9670 S   0  0  0  0  0  0  0  0  0  0  0  0
   36.5100   26.9430   39.1190 C   0  0  0  0  0  3  0  0  0  0  0  0
   36.9360   27.6330   38.3590 H   0  0  0  0  0  0  0  0  0  0  0  0
   37.0450   27.6080   42.9010 C   0  0  0  0  0  0  0  0  0  0  0  0
   37.9090   28.1370   43.6370 O   0  0  0  0  0  0  0  0  0  0  0  0
   35.9370   27.7710   43.6800 O   0  0  0  0  0  0  0  0  0  0  0  0
   35.8910   27.5150   44.6580 H   0  0  0  0  0  0  0  0  0  0  0  0
  2  1  1  0  0  0  0
  3 15  1  0  0  0  0
  3  2  2  0  0  0  0
  4  3  1  0  0  0  0
  5  4  2  0  0  0  0
  5  6  1  0  0  0  0
  6  7  2  0  0  0  0
  7  2  1  0  0  0  0
  7 23  1  0  0  0  0
  8  4  1  0  0  0  0
  9  5  1  0  0  0  0
 10  6  1  0  0  0  0
 11 17  1  0  0  0  0
 12 11  1  0  0  0  0
 12 18  1  0  0  0  0
 13 12  2  0  0  0  0
 14 15  2  0  0  0  0
 14 13  1  0  0  0  0
 15 16  1  0  0  0  0
 16 11  2  0  0  0  0
 19 13  1  0  0  0  0
 19 20  1  0  0  0  0
 21 19  1  0  0  0  0
 22 19  1  0  0  0  0
 23 24  1  0  0  0  0
 24 25  2  0  0  0  0
 25 35  1  0  0  0  0
 26 25  1  0  0  0  0
 26 27  1  0  0  0  0
 27 28  2  0  0  0  0
 29 27  1  0  0  0  0
 30 29  1  0  0  0  0
 31 32  1  6  0  0  0
 31 29  1  0  0  0  0
 31 26  1  0  0  0  0
 32 33  1  0  0  0  0
 33 24  1  0  0  0  0
 34 33  1  0  0  0  0
 35 36  2  0  0  0  0
 35 37  1  0  0  0  0
 37 38  1  0  0  0  0
M  END
>  <minimizedAffinity>
-6.17376804

$$$$

 OpenBabel03242510413D

 38 41  0  0  1  0  0  0  0  0999 V2000
   36.7430   25.9620   40.2390 Cl  0  0  0  0  0  0  0  0  0  0  0  0
   37.8430   26.0580   41.5990 C   0  0  0  0  0  0  0  0  0  0  0  0
   38.7870   25.0700   41.7190 C   0  0  0  0  0  0  0  0  0  0  0  0
   39.6520   25.1280   42.7700 C   0  0  0  0  0  0  0  0  0  0  0  0
   39.5520   26.1750   43.6790 C   0  0  0  0  0  0  0  0  0  0  0  0
   38.6070   27.1580   43.5520 C   0  0  0  0  0  0  0  0  0  0  0  0
   37.7170   27.1020   42.4720 C   0  0  0  0  0  0  0  0  0  0  0  0
   40.4280   24.3610   42.9130 H   0  0  0  0  0  0  0  0  0  0  0  0
   40.2140   26.2700   44.5340 H   0  0  0  0  0  0  0  0  0  0  0  0
   38.5210   27.9740   44.2470 H   0  0  0  0  0  0  0  0  0  0  0  0
   38.1960   21.9120   39.9690 C   0  0  0  0  0  0  0  0  0  0  0  0
   39.0490   21.9880   38.8390 C   0  0  0  0  0  0  0  0  0  0  0  0
   39.8120   23.1640   38.7300 C   0  0  0  0  0  0  0  0  0  0  0  0
   39.6800   24.1080   39.6820 N   0  0  0  0  0  0  0  0  0  0  0  0
   38.8580   23.9940   40.7370 C   0  0  0  0  0  0  0  0  0  0  0  0
   38.1140   22.8820   40.8730 N   0  0  0  0  0  0  0  0  0  0  0  0
   37.6070   20.9970   40.0490 H   0  0  0  0  0  0  0  0  0  0  0  0
   39.0970   21.1780   38.1110 H   0  0  0  0  0  0  0  0  0  0  0  0
   40.6820   23.2040   37.5470 C   0  0  0  0  0  0  0  0  0  0  0  0
   41.8540   22.5050   37.8400 F   0  0  0  0  0  0  0  0  0  0  0  0
   41.0750   24.5000   37.3730 F   0  0  0  0  0  0  0  0  0  0  0  0
   40.1190   22.6330   36.4310 F   0  0  0  0  0  0  0  0  0  0  0  0
   36.6950   28.1930   42.3630 C   0  0  0  0  0  2  0  0  0  0  0  0
   37.1970   29.3180   41.5610 C   0  0  0  0  0  0  0  0  0  0  0  0
   36.6630   29.7570   40.4600 C   0  0  0  0  0  0  0  0  0  0  0  0
   37.2590   30.8640   39.7960 N   0  0  0  0  0  0  0  0  0  0  0  0
   37.5990   31.5070   38.5700 C   0  0  0  0  0  0  0  0  0  0  0  0
   37.3210   31.3630   37.3430 O   0  0  0  0  0  0  0  0  0  0  0  0
   38.4750   32.5110   39.2180 C   0  0  0  0  0  3  0  0  0  0  0  0
   39.5500   32.3880   39.0490 H   0  0  0  0  0  0  0  0  0  0  0  0
   37.8790   31.9860   40.4750 C   0  0  2  0  0  3  0  0  0  0  0  0
   39.1850   31.2290   41.5200 S   0  0  0  0  0  0  0  0  0  0  0  0
   38.3970   29.7990   42.2790 C   0  0  0  0  0  3  0  0  0  0  0  0
   39.1230   28.9880   42.4990 H   0  0  0  0  0  0  0  0  0  0  0  0
   35.4520   29.1930   39.8300 C   0  0  0  0  0  0  0  0  0  0  0  0
   35.2140   28.4900   38.8210 O   0  0  0  0  0  0  0  0  0  0  0  0
   34.1850   29.3610   40.3070 O   0  0  0  0  0  0  0  0  0  0  0  0
   33.4040   29.6650   39.7400 H   0  0  0  0  0  0  0  0  0  0  0  0
  1  2  1  0  0  0  0
  2  3  2  0  0  0  0
  2  7  1  0  0  0  0
  3  4  1  0  0  0  0
  4  8  1  0  0  0  0
  4  5  2  0  0  0  0
  5  9  1  0  0  0  0
  6  5  1  0  0  0  0
  6 10  1  0  0  0  0
  7  6  2  0  0  0  0
 11 17  1  0  0  0  0
 11 16  1  0  0  0  0
 12 11  2  0  0  0  0
 13 12  1  0  0  0  0
 13 14  2  0  0  0  0
 14 15  1  0  0  0  0
 15 16  2  0  0  0  0
 15  3  1  0  0  0  0
 18 12  1  0  0  0  0
 19 20  1  0  0  0  0
 19 13  1  0  0  0  0
 21 19  1  0  0  0  0
 22 19  1  0  0  0  0
 23  7  1  0  0  0  0
 24 33  1  0  0  0  0
 24 23  1  0  0  0  0
 25 24  2  0  0  0  0
 26 25  1  0  0  0  0
 26 31  1  0  0  0  0
 27 29  1  0  0  0  0
 27 26  1  0  0  0  0
 28 27  2  0  0  0  0
 30 29  1  0  0  0  0
 31 29  1  6  0  0  0
 31 32  1  0  0  0  0
 32 33  1  0  0  0  0
 33 34  1  0  0  0  0
 35 37  1  0  0  0  0
 35 25  1  0  0  0  0
 36 35  2  0  0  0  0
 38 37  1  0  0  0  0
M  END
>  <minimizedAffinity>
-6.0682292

$$$$

 OpenBabel03242510413D

 38 41  0  0  1  0  0  0  0  0999 V2000
   33.9870   29.2780   39.7200 Cl  0  0  0  0  0  0  0  0  0  0  0  0
   35.4390   29.5640   38.7810 C   0  0  0  0  0  0  0  0  0  0  0  0
   35.3880   29.2850   37.4390 C   0  0  0  0  0  0  0  0  0  0  0  0
   36.5080   29.5020   36.6930 C   0  0  0  0  0  0  0  0  0  0  0  0
   37.6530   29.9910   37.3080 C   0  0  0  0  0  0  0  0  0  0  0  0
   37.6960   30.2670   38.6490 C   0  0  0  0  0  0  0  0  0  0  0  0
   36.5470   30.0470   39.4190 C   0  0  0  0  0  0  0  0  0  0  0  0
   36.5210   29.2950   35.6110 H   0  0  0  0  0  0  0  0  0  0  0  0
   38.5730   30.1810   36.7630 H   0  0  0  0  0  0  0  0  0  0  0  0
   38.5750   30.6480   39.1360 H   0  0  0  0  0  0  0  0  0  0  0  0
   32.8170   27.0160   36.1670 C   0  0  0  0  0  0  0  0  0  0  0  0
   31.8130   27.8870   35.6720 C   0  0  0  0  0  0  0  0  0  0  0  0
   32.0800   29.2610   35.8070 C   0  0  0  0  0  0  0  0  0  0  0  0
   33.2380   29.6390   36.3800 N   0  0  0  0  0  0  0  0  0  0  0  0
   34.1610   28.7790   36.8350 C   0  0  0  0  0  0  0  0  0  0  0  0
   33.9390   27.4570   36.7230 N   0  0  0  0  0  0  0  0  0  0  0  0
   32.6050   25.9510   36.0600 H   0  0  0  0  0  0  0  0  0  0  0  0
   30.8990   27.4990   35.2210 H   0  0  0  0  0  0  0  0  0  0  0  0
   31.0160   30.1290   35.2820 C   0  0  0  0  0  0  0  0  0  0  0  0
   31.0710   31.3480   35.9600 F   0  0  0  0  0  0  0  0  0  0  0  0
   29.8220   29.5750   35.6440 F   0  0  0  0  0  0  0  0  0  0  0  0
   31.1320   30.3890   33.9380 F   0  0  0  0  0  0  0  0  0  0  0  0
   36.6270   30.3580   40.8830 C   0  0  0  0  0  2  0  0  0  0  0  0
   37.4360   29.3610   41.5980 C   0  0  0  0  0  0  0  0  0  0  0  0
   38.6340   29.5550   42.0620 C   0  0  0  0  0  0  0  0  0  0  0  0
   39.2930   28.4950   42.7420 N   0  0  0  0  0  0  0  0  0  0  0  0
   40.5040   27.8010   43.0280 C   0  0  0  0  0  0  0  0  0  0  0  0
   41.7430   27.9880   42.8440 O   0  0  0  0  0  0  0  0  0  0  0  0
   39.8200   26.6590   43.6800 C   0  0  0  0  0  3  0  0  0  0  0  0
   39.8200   25.7170   43.1190 H   0  0  0  0  0  0  0  0  0  0  0  0
   38.6250   27.5400   43.6070 C   0  0  2  0  0  3  0  0  0  0  0  0
   37.3420   26.7710   42.5410 S   0  0  0  0  0  0  0  0  0  0  0  0
   36.5930   28.1480   41.6560 C   0  0  0  0  0  3  0  0  0  0  0  0
   36.2040   27.8440   40.6600 H   0  0  0  0  0  0  0  0  0  0  0  0
   39.3870   30.8210   41.9450 C   0  0  0  0  0  0  0  0  0  0  0  0
   39.7210   31.5790   41.0070 O   0  0  0  0  0  0  0  0  0  0  0  0
   39.9330   31.4930   42.9990 O   0  0  0  0  0  0  0  0  0  0  0  0
   40.8910   31.8200   43.0250 H   0  0  0  0  0  0  0  0  0  0  0  0
  2  7  1  0  0  0  0
  2  1  1  0  0  0  0
  3  2  2  0  0  0  0
  4  5  2  0  0  0  0
  4  3  1  0  0  0  0
  5  6  1  0  0  0  0
  6 10  1  0  0  0  0
  6  7  2  0  0  0  0
  7 23  1  0  0  0  0
  8  4  1  0  0  0  0
  9  5  1  0  0  0  0
 11 16  1  0  0  0  0
 12 13  1  0  0  0  0
 12 11  2  0  0  0  0
 13 14  2  0  0  0  0
 14 15  1  0  0  0  0
 15  3  1  0  0  0  0
 16 15  2  0  0  0  0
 17 11  1  0  0  0  0
 18 12  1  0  0  0  0
 19 21  1  0  0  0  0
 19 13  1  0  0  0  0
 19 20  1  0  0  0  0
 22 19  1  0  0  0  0
 23 24  1  0  0  0  0
 24 33  1  0  0  0  0
 24 25  2  0  0  0  0
 25 26  1  0  0  0  0
 26 27  1  0  0  0  0
 26 31  1  0  0  0  0
 27 29  1  0  0  0  0
 28 27  2  0  0  0  0
 30 29  1  0  0  0  0
 31 32  1  6  0  0  0
 31 29  1  0  0  0  0
 33 32  1  0  0  0  0
 34 33  1  0  0  0  0
 35 25  1  0  0  0  0
 35 37  1  0  0  0  0
 36 35  2  0  0  0  0
 37 38  1  0  0  0  0
M  END
>  <minimizedAffinity>
-5.95671129

$$$$

 OpenBabel03242510413D

 38 41  0  0  1  0  0  0  0  0999 V2000
   36.8630   28.1530   40.1220 Cl  0  0  0  0  0  0  0  0  0  0  0  0
   36.7270   26.4070   40.1000 C   0  0  0  0  0  0  0  0  0  0  0  0
   36.4420   25.8100   38.8990 C   0  0  0  0  0  0  0  0  0  0  0  0
   36.3330   24.4520   38.8620 C   0  0  0  0  0  0  0  0  0  0  0  0
   36.5110   23.7220   40.0310 C   0  0  0  0  0  0  0  0  0  0  0  0
   36.7950   24.3250   41.2280 C   0  0  0  0  0  0  0  0  0  0  0  0
   36.9090   25.7200   41.2680 C   0  0  0  0  0  0  0  0  0  0  0  0
   36.1060   23.9230   37.9230 H   0  0  0  0  0  0  0  0  0  0  0  0
   36.4350   22.6390   40.0600 H   0  0  0  0  0  0  0  0  0  0  0  0
   36.9370   23.7710   42.1370 H   0  0  0  0  0  0  0  0  0  0  0  0
   37.1030   27.5180   35.7320 C   0  0  0  0  0  0  0  0  0  0  0  0
   35.8780   28.1680   35.4370 C   0  0  0  0  0  0  0  0  0  0  0  0
   34.8470   27.9790   36.3760 C   0  0  0  0  0  0  0  0  0  0  0  0
   35.0940   27.2150   37.4570 N   0  0  0  0  0  0  0  0  0  0  0  0
   36.2700   26.6170   37.6960 C   0  0  0  0  0  0  0  0  0  0  0  0
   37.2780   26.7760   36.8200 N   0  0  0  0  0  0  0  0  0  0  0  0
   37.8980   27.6690   35.0010 H   0  0  0  0  0  0  0  0  0  0  0  0
   35.7590   28.7710   34.5360 H   0  0  0  0  0  0  0  0  0  0  0  0
   33.5950   28.6680   36.0340 C   0  0  0  0  0  0  0  0  0  0  0  0
   33.2870   29.5550   37.0670 F   0  0  0  0  0  0  0  0  0  0  0  0
   32.5980   27.7360   36.0560 F   0  0  0  0  0  0  0  0  0  0  0  0
   33.6650   29.3890   34.8670 F   0  0  0  0  0  0  0  0  0  0  0  0
   37.2210   26.3490   42.5930 C   0  0  0  0  0  2  0  0  0  0  0  0
   38.6560   26.6410   42.7210 C   0  0  0  0  0  0  0  0  0  0  0  0
   39.1750   27.8260   42.8560 C   0  0  0  0  0  0  0  0  0  0  0  0
   40.5850   27.9530   42.9770 N   0  0  0  0  0  0  0  0  0  0  0  0
   41.7690   28.6910   42.6860 C   0  0  0  0  0  0  0  0  0  0  0  0
   42.0550   29.8310   42.2150 O   0  0  0  0  0  0  0  0  0  0  0  0
   42.6790   27.6150   43.1450 C   0  0  0  0  0  3  0  0  0  0  0  0
   43.2320   27.0890   42.3590 H   0  0  0  0  0  0  0  0  0  0  0  0
   41.4330   27.0080   43.6800 C   0  0  2  0  0  3  0  0  0  0  0  0
   41.1140   25.3990   42.8530 S   0  0  0  0  0  0  0  0  0  0  0  0
   39.3250   25.3250   42.6630 C   0  0  0  0  0  3  0  0  0  0  0  0
   39.0220   24.7250   41.7790 H   0  0  0  0  0  0  0  0  0  0  0  0
   38.4000   29.0830   42.9010 C   0  0  0  0  0  0  0  0  0  0  0  0
   38.4750   30.2000   42.3400 O   0  0  0  0  0  0  0  0  0  0  0  0
   37.2980   29.2810   43.6800 O   0  0  0  0  0  0  0  0  0  0  0  0
   37.1710   30.0810   44.2860 H   0  0  0  0  0  0  0  0  0  0  0  0
  2  1  1  0  0  0  0
  2  7  1  0  0  0  0
  3  2  2  0  0  0  0
  4  3  1  0  0  0  0
  4  5  2  0  0  0  0
  5  9  1  0  0  0  0
  5  6  1  0  0  0  0
  6  7  2  0  0  0  0
  6 10  1  0  0  0  0
  7 23  1  0  0  0  0
  8  4  1  0  0  0  0
 11 16  1  0  0  0  0
 12 11  2  0  0  0  0
 12 13  1  0  0  0  0
 13 14  2  0  0  0  0
 14 15  1  0  0  0  0
 15  3  1  0  0  0  0
 16 15  2  0  0  0  0
 17 11  1  0  0  0  0
 18 12  1  0  0  0  0
 19 21  1  0  0  0  0
 19 13  1  0  0  0  0
 19 20  1  0  0  0  0
 22 19  1  0  0  0  0
 23 24  1  0  0  0  0
 24 25  2  0  0  0  0
 25 35  1  0  0  0  0
 25 26  1  0  0  0  0
 26 31  1  0  0  0  0
 27 26  1  0  0  0  0
 27 29  1  0  0  0  0
 28 27  2  0  0  0  0
 29 31  1  0  0  0  0
 30 29  1  0  0  0  0
 31 32  1  6  0  0  0
 33 24  1  0  0  0  0
 33 32  1  0  0  0  0
 34 33  1  0  0  0  0
 35 37  1  0  0  0  0
 36 35  2  0  0  0  0
 37 38  1  0  0  0  0
M  END
>  <minimizedAffinity>
-5.91044426

$$$$

 OpenBabel03242510413D

 38 41  0  0  1  0  0  0  0  0999 V2000
   36.0590   27.5480   39.7280 Cl  0  0  0  0  0  0  0  0  0  0  0  0
   36.9370   26.4830   40.8070 C   0  0  0  0  0  0  0  0  0  0  0  0
   37.1790   25.2040   40.3740 C   0  0  0  0  0  0  0  0  0  0  0  0
   37.8600   24.3610   41.1990 C   0  0  0  0  0  0  0  0  0  0  0  0
   38.2840   24.8170   42.4410 C   0  0  0  0  0  0  0  0  0  0  0  0
   38.0380   26.0960   42.8670 C   0  0  0  0  0  0  0  0  0  0  0  0
   37.3390   26.9650   42.0210 C   0  0  0  0  0  0  0  0  0  0  0  0
   38.0810   23.3240   40.9000 H   0  0  0  0  0  0  0  0  0  0  0  0
   38.8290   24.1890   43.1390 H   0  0  0  0  0  0  0  0  0  0  0  0
   38.3630   26.4610   43.8240 H   0  0  0  0  0  0  0  0  0  0  0  0
   35.1300   23.7790   37.6990 C   0  0  0  0  0  0  0  0  0  0  0  0
   35.9170   23.9680   36.5340 C   0  0  0  0  0  0  0  0  0  0  0  0
   37.1570   24.6010   36.7340 C   0  0  0  0  0  0  0  0  0  0  0  0
   37.4970   24.9700   37.9830 N   0  0  0  0  0  0  0  0  0  0  0  0
   36.7200   24.7710   39.0580 C   0  0  0  0  0  0  0  0  0  0  0  0
   35.5280   24.1690   38.9040 N   0  0  0  0  0  0  0  0  0  0  0  0
   34.1700   23.2870   37.5380 H   0  0  0  0  0  0  0  0  0  0  0  0
   35.5670   23.6390   35.5550 H   0  0  0  0  0  0  0  0  0  0  0  0
   37.9410   24.7790   35.5030 C   0  0  0  0  0  0  0  0  0  0  0  0
   38.8350   23.7130   35.3950 F   0  0  0  0  0  0  0  0  0  0  0  0
   38.7240   25.8840   35.6750 F   0  0  0  0  0  0  0  0  0  0  0  0
   37.1750   24.8040   34.3630 F   0  0  0  0  0  0  0  0  0  0  0  0
   37.0870   28.3570   42.5170 C   0  0  0  0  0  2  0  0  0  0  0  0
   38.1530   29.2760   42.0940 C   0  0  0  0  0  0  0  0  0  0  0  0
   37.9960   30.3080   41.3200 C   0  0  0  0  0  0  0  0  0  0  0  0
   39.1230   31.1140   41.0020 N   0  0  0  0  0  0  0  0  0  0  0  0
   39.8210   31.9060   40.0450 C   0  0  0  0  0  0  0  0  0  0  0  0
   39.5790   32.4060   38.9070 O   0  0  0  0  0  0  0  0  0  0  0  0
   41.0580   31.9880   40.8580 C   0  0  0  0  0  3  0  0  0  0  0  0
   41.9120   31.4110   40.4860 H   0  0  0  0  0  0  0  0  0  0  0  0
   40.2040   31.4040   41.9260 C   0  0  2  0  0  3  0  0  0  0  0  0
   40.8500   29.7560   42.4150 S   0  0  0  0  0  0  0  0  0  0  0  0
   39.3830   28.7630   42.7350 C   0  0  0  0  0  3  0  0  0  0  0  0
   39.5550   27.6840   42.5360 H   0  0  0  0  0  0  0  0  0  0  0  0
   36.7080   30.7300   40.7320 C   0  0  0  0  0  0  0  0  0  0  0  0
   36.2720   30.9160   39.5730 O   0  0  0  0  0  0  0  0  0  0  0  0
   35.5930   31.0360   41.4570 O   0  0  0  0  0  0  0  0  0  0  0  0
   35.0500   31.8800   41.3270 H   0  0  0  0  0  0  0  0  0  0  0  0
  1  2  1  0  0  0  0
  2  7  1  0  0  0  0
  3  2  2  0  0  0  0
  3  4  1  0  0  0  0
  4  5  2  0  0  0  0
  5  6  1  0  0  0  0
  5  9  1  0  0  0  0
  6 10  1  0  0  0  0
  7 23  1  0  0  0  0
  7  6  2  0  0  0  0
  8  4  1  0  0  0  0
 11 16  1  0  0  0  0
 12 13  1  0  0  0  0
 12 11  2  0  0  0  0
 13 14  2  0  0  0  0
 14 15  1  0  0  0  0
 15  3  1  0  0  0  0
 16 15  2  0  0  0  0
 17 11  1  0  0  0  0
 18 12  1  0  0  0  0
 19 21  1  0  0  0  0
 19 13  1  0  0  0  0
 20 19  1  0  0  0  0
 22 19  1  0  0  0  0
 24 23  1  0  0  0  0
 24 33  1  0  0  0  0
 25 24  2  0  0  0  0
 26 25  1  0  0  0  0
 26 31  1  0  0  0  0
 27 29  1  0  0  0  0
 27 26  1  0  0  0  0
 28 27  2  0  0  0  0
 30 29  1  0  0  0  0
 31 29  1  6  0  0  0
 31 32  1  0  0  0  0
 32 33  1  0  0  0  0
 34 33  1  0  0  0  0
 35 25  1  0  0  0  0
 35 37  1  0  0  0  0
 36 35  2  0  0  0  0
 38 37  1  0  0  0  0
M  END
>  <minimizedAffinity>
-5.87259436

$$$$
