
 OpenBabel03242515423D

 45 49  0  0  1  0  0  0  0  0999 V2000
   43.6640   34.5200   40.4380 C   0  0  0  0  0  0  0  0  0  0  0  0
   43.7720   33.5630   39.4780 C   0  0  0  0  0  0  0  0  0  0  0  0
   45.0510   32.9800   39.3730 C   0  0  0  0  0  0  0  0  0  0  0  0
   46.0720   33.3750   40.1710 N   0  0  0  0  0  0  0  0  0  0  0  0
   45.9070   34.3390   41.1010 C   0  0  0  0  0  0  0  0  0  0  0  0
   44.7040   34.8660   41.1940 N   0  0  0  0  0  0  0  0  0  0  0  0
   45.2940   31.9190   38.4480 N   0  0  0  0  0  0  0  0  0  0  0  0
   45.4340   30.9920   38.9510 H   0  0  0  0  0  0  0  0  0  0  0  0
   45.2750   32.3330   37.4770 H   0  0  0  0  0  0  0  0  0  0  0  0
   42.0110   35.2320   40.6350 S   0  0  0  0  0  0  0  0  0  0  0  0
   39.7640   34.1230   39.7570 C   0  0  0  0  0  0  0  0  0  0  0  0
   40.7770   33.9470   40.7210 C   0  0  0  0  0  0  0  0  0  0  0  0
   40.7940   32.8500   41.5800 C   0  0  0  0  0  0  0  0  0  0  0  0
   39.8010   31.9090   41.4880 C   0  0  0  0  0  0  0  0  0  0  0  0
   38.7870   32.0580   40.5420 C   0  0  0  0  0  0  0  0  0  0  0  0
   38.7560   33.1410   39.6850 C   0  0  0  0  0  0  0  0  0  0  0  0
   37.9150   30.9430   40.6840 O   0  0  0  0  0  0  0  0  0  0  0  0
   38.2010   30.3970   41.9270 C   0  0  0  0  0  0  0  0  0  0  0  0
   39.5510   30.7280   42.1860 O   0  0  0  0  0  0  0  0  0  0  0  0
   39.6960   34.9510   39.0690 H   0  0  0  0  0  0  0  0  0  0  0  0
   41.5980   32.8100   42.2710 H   0  0  0  0  0  0  0  0  0  0  0  0
   37.9660   33.2450   38.9580 H   0  0  0  0  0  0  0  0  0  0  0  0
   37.9910   29.3220   42.0390 H   0  0  0  0  0  0  0  0  0  0  0  0
   37.5920   30.9430   42.6980 H   0  0  0  0  0  0  0  0  0  0  0  0
   46.8940   34.7910   41.9240 O   0  0  0  0  0  0  0  0  0  0  0  0
   48.1800   34.9930   41.3900 C   0  0  0  0  0  0  0  0  0  0  0  0
   49.0220   33.9510   41.7160 F   0  0  0  0  0  0  0  0  0  0  0  0
   48.0310   35.1130   40.0050 F   0  0  0  0  0  0  0  0  0  0  0  0
   48.7060   36.1450   41.9490 F   0  0  0  0  0  0  0  0  0  0  0  0
   42.9590   33.0210   38.3750 C   0  0  0  0  0  2  0  0  0  0  0  0
   42.3070   31.7330   38.5040 C   0  0  0  0  0  0  0  0  0  0  0  0
   42.2820   30.6180   39.2060 C   0  0  0  0  0  0  0  0  0  0  0  0
   41.4360   29.5060   38.9660 N   0  0  0  0  0  0  0  0  0  0  0  0
   40.4680   28.5930   39.4480 C   0  0  0  0  0  0  0  0  0  0  0  0
   40.2760   28.0930   40.5890 O   0  0  0  0  0  0  0  0  0  0  0  0
   39.9190   28.5890   38.0440 C   0  0  0  0  0  3  0  0  0  0  0  0
   39.5440   27.6380   37.6780 H   0  0  0  0  0  0  0  0  0  0  0  0
   41.3650   28.8040   37.6700 C   0  0  1  0  0  3  0  0  0  0  0  0
   41.6340   30.1590   36.4580 S   0  0  0  0  0  0  0  0  0  0  0  0
   41.2190   31.6550   37.4450 C   0  0  0  0  0  3  0  0  0  0  0  0
   41.1960   32.4760   36.7530 H   0  0  0  0  0  0  0  0  0  0  0  0
   43.2430   30.5530   40.3060 C   0  0  0  0  0  0  0  0  0  0  0  0
   44.3400   30.2690   40.8410 O   0  0  0  0  0  0  0  0  0  0  0  0
   43.3880   30.8880   41.6230 O   0  0  0  0  0  0  0  0  0  0  0  0
   43.4710   31.8660   41.9780 H   0  0  0  0  0  0  0  0  0  0  0  0
  1 10  1  0  0  0  0
  1  6  1  0  0  0  0
  2  1  2  0  0  0  0
  3  2  1  0  0  0  0
  3  4  2  0  0  0  0
  4  5  1  0  0  0  0
  5  6  2  0  0  0  0
  5 25  1  0  0  0  0
  7  8  1  0  0  0  0
  7  3  1  0  0  0  0
  9  7  1  0  0  0  0
 10 12  1  0  0  0  0
 11 12  1  0  0  0  0
 12 13  2  0  0  0  0
 13 21  1  0  0  0  0
 14 13  1  0  0  0  0
 14 19  1  0  0  0  0
 15 17  1  0  0  0  0
 15 14  2  0  0  0  0
 16 11  2  0  0  0  0
 16 15  1  0  0  0  0
 17 18  1  0  0  0  0
 18 23  1  0  0  0  0
 18 19  1  0  0  0  0
 18 24  1  0  0  0  0
 20 11  1  0  0  0  0
 22 16  1  0  0  0  0
 26 27  1  0  0  0  0
 26 25  1  0  0  0  0
 26 29  1  0  0  0  0
 28 26  1  0  0  0  0
 30 31  1  0  0  0  0
 30  2  1  0  0  0  0
 31 32  2  0  0  0  0
 32 42  1  0  0  0  0
 33 32  1  0  0  0  0
 33 34  1  0  0  0  0
 34 35  2  0  0  0  0
 36 34  1  0  0  0  0
 37 36  1  0  0  0  0
 38 39  1  6  0  0  0
 38 36  1  0  0  0  0
 38 33  1  0  0  0  0
 39 40  1  0  0  0  0
 40 31  1  0  0  0  0
 41 40  1  0  0  0  0
 42 43  2  0  0  0  0
 42 44  1  0  0  0  0
 44 45  1  0  0  0  0
M  END
>  <minimizedAffinity>
-5.21390676

>  <minimizedRMSD>
0.897964239

$$$$
