
 OpenBabel03242518313D

 35 38  0  0  1  0  0  0  0  0999 V2000
   47.2100   33.6170   39.9060 C   0  0  0  0  0  0  0  0  0  0  0  0
   48.2750   33.9950   39.1080 C   0  0  0  0  0  0  0  0  0  0  0  0
   47.8730   33.8770   37.7840 C   0  0  0  0  0  0  0  0  0  0  0  0
   46.5610   33.4250   37.8510 C   0  0  0  0  0  0  0  0  0  0  0  0
   46.2130   33.2870   39.1050 O   0  0  0  0  0  0  0  0  0  0  0  0
   49.2220   34.3150   39.5090 H   0  0  0  0  0  0  0  0  0  0  0  0
   48.4990   34.1050   36.9120 H   0  0  0  0  0  0  0  0  0  0  0  0
   47.0880   33.5550   41.2990 O   0  0  0  0  0  0  0  0  0  0  0  0
   47.2420   34.6930   42.0940 C   0  0  0  0  0  0  0  0  0  0  0  0
   48.1150   35.5080   41.7140 O   0  0  0  0  0  0  0  0  0  0  0  0
   46.3880   34.7770   43.2300 C   0  0  0  0  0  0  0  0  0  0  0  0
   45.5210   35.8500   43.1770 C   0  0  0  0  0  0  0  0  0  0  0  0
   44.6340   36.0180   44.2570 C   0  0  0  0  0  0  0  0  0  0  0  0
   44.6780   35.1330   45.2760 N   0  0  0  0  0  0  0  0  0  0  0  0
   45.5560   34.0970   45.2700 C   0  0  0  0  0  0  0  0  0  0  0  0
   46.4140   33.9180   44.2430 N   0  0  0  0  0  0  0  0  0  0  0  0
   45.4470   36.5890   42.3810 H   0  0  0  0  0  0  0  0  0  0  0  0
   43.9260   36.8370   44.2850 H   0  0  0  0  0  0  0  0  0  0  0  0
   45.5420   33.4170   46.1210 H   0  0  0  0  0  0  0  0  0  0  0  0
   45.7120   33.1510   36.6380 C   0  0  0  0  0  2  0  0  0  0  0  0
   45.8260   31.7130   36.3960 C   0  0  0  0  0  0  0  0  0  0  0  0
   46.6110   31.2670   35.4430 C   0  0  0  0  0  0  0  0  0  0  0  0
   46.7560   29.9010   35.1670 N   0  0  0  0  0  0  0  0  0  0  0  0
   47.5840   28.8080   34.7950 C   0  0  0  0  0  0  0  0  0  0  0  0
   48.6120   28.6590   34.1130 O   0  0  0  0  0  0  0  0  0  0  0  0
   46.6930   27.9200   35.5710 C   0  0  0  0  0  3  0  0  0  0  0  0
   46.5240   26.9240   35.1610 H   0  0  0  0  0  0  0  0  0  0  0  0
   45.6370   28.9720   35.2400 C   0  0  1  0  0  3  0  0  0  0  0  0
   44.4970   29.3130   36.5750 S   0  0  0  0  0  0  0  0  0  0  0  0
   45.0100   30.8980   37.2910 C   0  0  0  0  0  3  0  0  0  0  0  0
   45.5400   30.6450   38.2530 H   0  0  0  0  0  0  0  0  0  0  0  0
   47.3740   32.2030   34.6230 C   0  0  0  0  0  0  0  0  0  0  0  0
   47.5080   32.1300   33.3740 O   0  0  0  0  0  0  0  0  0  0  0  0
   48.1550   33.2410   34.1560 O   0  0  0  0  0  0  0  0  0  0  0  0
   48.2070   34.1730   34.5430 H   0  0  0  0  0  0  0  0  0  0  0  0
  1  8  1  0  0  0  0
  2  6  1  0  0  0  0
  2  1  2  0  0  0  0
  3  4  2  0  0  0  0
  3  2  1  0  0  0  0
  4  5  1  0  0  0  0
  5  1  1  0  0  0  0
  7  3  1  0  0  0  0
  8  9  1  0  0  0  0
  9 11  1  0  0  0  0
 10  9  2  0  0  0  0
 11 16  1  0  0  0  0
 12 11  2  0  0  0  0
 12 13  1  0  0  0  0
 13 18  1  0  0  0  0
 13 14  2  0  0  0  0
 15 14  1  0  0  0  0
 15 19  1  0  0  0  0
 16 15  2  0  0  0  0
 17 12  1  0  0  0  0
 20  4  1  0  0  0  0
 21 20  1  0  0  0  0
 21 30  1  0  0  0  0
 22 21  2  0  0  0  0
 23 28  1  0  0  0  0
 23 22  1  0  0  0  0
 24 23  1  0  0  0  0
 24 26  1  0  0  0  0
 25 24  2  0  0  0  0
 27 26  1  0  0  0  0
 28 26  1  1  0  0  0
 28 29  1  0  0  0  0
 29 30  1  0  0  0  0
 30 31  1  0  0  0  0
 32 22  1  0  0  0  0
 33 32  2  0  0  0  0
 34 35  1  0  0  0  0
 34 32  1  0  0  0  0
M  END
>  <minimizedAffinity>
-5.01182175

>  <minimizedRMSD>
1.12242639

$$$$
