
 OpenBabel03242520213D

 42 45  0  0  1  0  0  0  0  0999 V2000
   37.4680   30.0240   41.8540 C   0  0  0  0  0  0  0  0  0  0  0  0
   36.5730   30.4590   42.3310 H   0  0  0  0  0  0  0  0  0  0  0  0
   37.1670   29.0890   41.3440 H   0  0  0  0  0  0  0  0  0  0  0  0
   37.3750   31.1000   39.6610 C   0  0  0  0  0  0  0  0  0  0  0  0
   36.3620   30.4370   39.2940 O   0  0  0  0  0  0  0  0  0  0  0  0
   37.9960   31.0170   40.9460 N   0  0  0  0  0  0  0  0  0  0  0  0
   38.7710   31.6130   41.2350 H   0  0  0  0  0  0  0  0  0  0  0  0
   41.8010   31.0800   37.3550 C   0  0  0  0  0  0  0  0  0  0  0  0
   41.3790   32.2280   37.8070 C   0  0  0  0  0  0  0  0  0  0  0  0
   40.0530   32.3200   38.3130 N   0  0  0  0  0  0  0  0  0  0  0  0
   39.0930   32.8490   39.2130 C   0  0  0  0  0  0  0  0  0  0  0  0
   39.1410   33.7100   40.1580 O   0  0  0  0  0  0  0  0  0  0  0  0
   37.9780   32.0490   38.6830 C   0  0  1  0  0  3  0  0  0  0  0  0
   38.9590   31.5220   37.7320 C   0  0  2  0  0  3  0  0  0  0  0  0
   39.5090   29.8130   37.9520 S   0  0  0  0  0  0  0  0  0  0  0  0
   41.1680   29.7580   37.2430 C   0  0  0  0  0  3  0  0  0  0  0  0
   41.7880   28.9490   37.6800 H   0  0  0  0  0  0  0  0  0  0  0  0
   43.2200   31.1280   36.8500 C   0  0  0  0  0  2  0  0  0  0  0  0
   43.3270   31.8290   35.9960 H   0  0  0  0  0  0  0  0  0  0  0  0
   42.1970   33.4360   37.8240 C   0  0  0  0  0  0  0  0  0  0  0  0
   42.8580   33.9540   38.7310 O   0  0  0  0  0  0  0  0  0  0  0  0
   42.3490   34.2350   36.7040 O   0  0  0  0  0  0  0  0  0  0  0  0
   42.4870   35.2180   36.6820 H   0  0  0  0  0  0  0  0  0  0  0  0
   38.4620   29.6590   42.9410 C   0  0  0  0  0  0  0  0  0  0  0  0
   38.0730   29.9400   43.9440 H   0  0  0  0  0  0  0  0  0  0  0  0
   39.3800   30.2250   42.7480 H   0  0  0  0  0  0  0  0  0  0  0  0
   38.0770   25.9250   42.4900 C   0  0  0  0  0  0  0  0  0  0  0  0
   37.7730   27.3080   42.5080 C   0  0  0  0  0  0  0  0  0  0  0  0
   38.7480   28.2010   42.9190 C   0  0  0  0  0  0  0  0  0  0  0  0
   39.9650   27.6750   43.2880 N   0  0  0  0  0  0  0  0  0  0  0  0
   40.2040   26.3450   43.2520 C   0  0  0  0  0  0  0  0  0  0  0  0
   39.2730   25.4780   42.8580 N   0  0  0  0  0  0  0  0  0  0  0  0
   36.7930   27.6120   42.2020 H   0  0  0  0  0  0  0  0  0  0  0  0
   41.1760   25.9790   43.5520 H   0  0  0  0  0  0  0  0  0  0  0  0
   37.0240   24.9690   42.0570 C   0  0  0  0  0  0  0  0  0  0  0  0
   36.8460   24.9580   40.4990 C   0  0  0  0  0  0  0  0  0  0  0  0
   37.2630   23.7970   41.2960 C   0  0  0  0  0  0  0  0  0  0  0  0
   36.0800   25.1210   42.6150 H   0  0  0  0  0  0  0  0  0  0  0  0
   35.7960   25.0340   40.1740 H   0  0  0  0  0  0  0  0  0  0  0  0
   37.5940   25.5040   39.9050 H   0  0  0  0  0  0  0  0  0  0  0  0
   36.5840   22.9310   41.3500 H   0  0  0  0  0  0  0  0  0  0  0  0
   38.3320   23.4720   41.1340 H   0  0  0  0  0  0  0  0  0  0  0  0
  1  2  1  0  0  0  0
  1 24  1  0  0  0  0
  3  1  1  0  0  0  0
  4  6  1  0  0  0  0
  5  4  2  0  0  0  0
  6  7  1  0  0  0  0
  6  1  1  0  0  0  0
  8  9  2  0  0  0  0
  9 20  1  0  0  0  0
  9 10  1  0  0  0  0
 10 11  1  0  0  0  0
 11 12  2  0  0  0  0
 13 11  1  0  0  0  0
 13  4  1  1  0  0  0
 14 15  1  1  0  0  0
 14 10  1  0  0  0  0
 14 13  1  0  0  0  0
 16  8  1  0  0  0  0
 16 17  1  0  0  0  0
 16 15  1  0  0  0  0
 18  8  1  0  0  0  0
 19 18  1  0  0  0  0
 20 21  2  0  0  0  0
 22 20  1  0  0  0  0
 23 22  1  0  0  0  0
 24 25  1  0  0  0  0
 26 24  1  0  0  0  0
 27 28  2  0  0  0  0
 27 32  1  0  0  0  0
 28 29  1  0  0  0  0
 29 24  1  0  0  0  0
 29 30  2  0  0  0  0
 31 30  1  0  0  0  0
 31 34  1  0  0  0  0
 32 31  2  0  0  0  0
 33 28  1  0  0  0  0
 35 27  1  0  0  0  0
 35 38  1  0  0  0  0
 36 37  1  0  0  0  0
 36 35  1  0  0  0  0
 37 41  1  0  0  0  0
 37 35  1  0  0  0  0
 39 36  1  0  0  0  0
 40 36  1  0  0  0  0
 42 37  1  0  0  0  0
M  END
>  <minimizedAffinity>
-6.17045975

$$$$

 OpenBabel03242520213D

 42 45  0  0  1  0  0  0  0  0999 V2000
   40.4600   30.9980   41.9500 C   0  0  0  0  0  0  0  0  0  0  0  0
   41.4240   31.5330   41.9220 H   0  0  0  0  0  0  0  0  0  0  0  0
   39.8610   31.4080   42.7860 H   0  0  0  0  0  0  0  0  0  0  0  0
   39.0270   32.3550   40.5070 C   0  0  0  0  0  0  0  0  0  0  0  0
   38.8940   33.2700   41.3710 O   0  0  0  0  0  0  0  0  0  0  0  0
   39.8300   31.1830   40.6620 N   0  0  0  0  0  0  0  0  0  0  0  0
   39.9690   30.4960   39.9210 H   0  0  0  0  0  0  0  0  0  0  0  0
   35.6950   29.3950   38.2640 C   0  0  0  0  0  0  0  0  0  0  0  0
   36.6020   29.9400   37.5030 C   0  0  0  0  0  0  0  0  0  0  0  0
   37.4620   30.9250   38.0620 N   0  0  0  0  0  0  0  0  0  0  0  0
   38.7190   31.5740   38.1610 C   0  0  0  0  0  0  0  0  0  0  0  0
   39.8420   31.4330   37.5640 O   0  0  0  0  0  0  0  0  0  0  0  0
   38.2920   32.5020   39.2200 C   0  0  1  0  0  3  0  0  0  0  0  0
   36.9840   31.8550   39.0990 C   0  0  2  0  0  3  0  0  0  0  0  0
   36.4580   30.7660   40.4440 S   0  0  0  0  0  0  0  0  0  0  0  0
   35.3330   29.5810   39.6770 C   0  0  0  0  0  3  0  0  0  0  0  0
   35.2820   28.6240   40.2340 H   0  0  0  0  0  0  0  0  0  0  0  0
   34.8540   28.3720   37.5430 C   0  0  0  0  0  2  0  0  0  0  0  0
   34.2890   28.8250   36.7030 H   0  0  0  0  0  0  0  0  0  0  0  0
   36.7870   29.5950   36.0970 C   0  0  0  0  0  0  0  0  0  0  0  0
   36.1560   29.9330   35.0900 O   0  0  0  0  0  0  0  0  0  0  0  0
   37.8050   28.7560   35.6760 O   0  0  0  0  0  0  0  0  0  0  0  0
   37.7890   28.1360   34.9010 H   0  0  0  0  0  0  0  0  0  0  0  0
   40.7300   29.5350   42.2480 C   0  0  0  0  0  0  0  0  0  0  0  0
   41.3730   29.4260   43.1490 H   0  0  0  0  0  0  0  0  0  0  0  0
   41.2610   29.1190   41.3850 H   0  0  0  0  0  0  0  0  0  0  0  0
   38.0280   26.8950   42.0930 C   0  0  0  0  0  0  0  0  0  0  0  0
   39.2490   27.5740   41.8620 C   0  0  0  0  0  0  0  0  0  0  0  0
   39.4570   28.8020   42.4650 C   0  0  0  0  0  0  0  0  0  0  0  0
   38.4450   29.2880   43.2620 N   0  0  0  0  0  0  0  0  0  0  0  0
   37.2970   28.5990   43.4520 C   0  0  0  0  0  0  0  0  0  0  0  0
   37.0880   27.4170   42.8760 N   0  0  0  0  0  0  0  0  0  0  0  0
   39.9700   27.1070   41.2220 H   0  0  0  0  0  0  0  0  0  0  0  0
   36.5310   29.0220   44.0870 H   0  0  0  0  0  0  0  0  0  0  0  0
   37.8060   25.5810   41.4360 C   0  0  0  0  0  0  0  0  0  0  0  0
   38.3220   24.3890   42.3150 C   0  0  0  0  0  0  0  0  0  0  0  0
   36.9230   24.5800   41.9120 C   0  0  0  0  0  0  0  0  0  0  0  0
   38.1920   25.5730   40.3980 H   0  0  0  0  0  0  0  0  0  0  0  0
   38.9440   23.6700   41.7610 H   0  0  0  0  0  0  0  0  0  0  0  0
   38.6260   24.6230   43.3460 H   0  0  0  0  0  0  0  0  0  0  0  0
   36.4720   23.8420   41.2300 H   0  0  0  0  0  0  0  0  0  0  0  0
   36.2200   24.8430   42.7570 H   0  0  0  0  0  0  0  0  0  0  0  0
  1 24  1  0  0  0  0
  1  3  1  0  0  0  0
  2  1  1  0  0  0  0
  4  6  1  0  0  0  0
  4  5  2  0  0  0  0
  6  1  1  0  0  0  0
  7  6  1  0  0  0  0
  8 16  1  0  0  0  0
  9 10  1  0  0  0  0
  9  8  2  0  0  0  0
 10 11  1  0  0  0  0
 10 14  1  0  0  0  0
 11 13  1  0  0  0  0
 12 11  2  0  0  0  0
 13  4  1  1  0  0  0
 14 13  1  0  0  0  0
 14 15  1  1  0  0  0
 16 17  1  0  0  0  0
 16 15  1  0  0  0  0
 18  8  1  0  0  0  0
 19 18  1  0  0  0  0
 20  9  1  0  0  0  0
 21 20  2  0  0  0  0
 22 20  1  0  0  0  0
 23 22  1  0  0  0  0
 24 29  1  0  0  0  0
 24 25  1  0  0  0  0
 26 24  1  0  0  0  0
 27 32  1  0  0  0  0
 28 27  2  0  0  0  0
 28 29  1  0  0  0  0
 29 30  2  0  0  0  0
 30 31  1  0  0  0  0
 31 34  1  0  0  0  0
 32 31  2  0  0  0  0
 33 28  1  0  0  0  0
 35 37  1  0  0  0  0
 35 27  1  0  0  0  0
 35 36  1  0  0  0  0
 36 40  1  0  0  0  0
 37 36  1  0  0  0  0
 37 42  1  0  0  0  0
 38 35  1  0  0  0  0
 39 36  1  0  0  0  0
 41 37  1  0  0  0  0
M  END
>  <minimizedAffinity>
-5.8852973

$$$$

 OpenBabel03242520213D

 42 45  0  0  1  0  0  0  0  0999 V2000
   41.5700   33.1310   37.5370 C   0  0  0  0  0  0  0  0  0  0  0  0
   41.3250   32.8570   36.4960 H   0  0  0  0  0  0  0  0  0  0  0  0
   41.9560   34.1680   37.5400 H   0  0  0  0  0  0  0  0  0  0  0  0
   40.3440   33.6080   39.5980 C   0  0  0  0  0  0  0  0  0  0  0  0
   41.2610   34.3470   40.0620 O   0  0  0  0  0  0  0  0  0  0  0  0
   40.3610   32.9770   38.3150 N   0  0  0  0  0  0  0  0  0  0  0  0
   39.5780   32.4410   37.9430 H   0  0  0  0  0  0  0  0  0  0  0  0
   38.7720   29.5270   42.0010 C   0  0  0  0  0  0  0  0  0  0  0  0
   37.8650   30.2300   41.3820 C   0  0  0  0  0  0  0  0  0  0  0  0
   38.2320   31.4900   40.8330 N   0  0  0  0  0  0  0  0  0  0  0  0
   38.1260   32.4990   39.8420 C   0  0  0  0  0  0  0  0  0  0  0  0
   37.4150   32.6380   38.7880 O   0  0  0  0  0  0  0  0  0  0  0  0
   39.1450   33.3700   40.4490 C   0  0  1  0  0  3  0  0  0  0  0  0
   39.2360   32.3450   41.4910 C   0  0  2  0  0  3  0  0  0  0  0  0
   40.7220   31.3130   41.5270 S   0  0  0  0  0  0  0  0  0  0  0  0
   40.1960   29.7590   42.2810 C   0  0  0  0  0  3  0  0  0  0  0  0
   40.8360   28.9050   41.9780 H   0  0  0  0  0  0  0  0  0  0  0  0
   38.2450   28.2190   42.5330 C   0  0  0  0  0  2  0  0  0  0  0  0
   37.4420   28.3750   43.2820 H   0  0  0  0  0  0  0  0  0  0  0  0
   36.4820   29.7950   41.2180 C   0  0  0  0  0  0  0  0  0  0  0  0
   35.9980   28.6640   41.0950 O   0  0  0  0  0  0  0  0  0  0  0  0
   35.4300   30.6940   41.1750 O   0  0  0  0  0  0  0  0  0  0  0  0
   34.5800   30.5990   40.6720 H   0  0  0  0  0  0  0  0  0  0  0  0
   42.6820   32.2200   38.0240 C   0  0  0  0  0  0  0  0  0  0  0  0
   42.5410   31.9640   39.0970 H   0  0  0  0  0  0  0  0  0  0  0  0
   43.6240   32.7670   37.9130 H   0  0  0  0  0  0  0  0  0  0  0  0
   42.1010   28.6650   36.8780 C   0  0  0  0  0  0  0  0  0  0  0  0
   42.0530   29.8400   37.6660 C   0  0  0  0  0  0  0  0  0  0  0  0
   42.7200   30.9700   37.2240 C   0  0  0  0  0  0  0  0  0  0  0  0
   43.3960   30.8710   36.0290 N   0  0  0  0  0  0  0  0  0  0  0  0
   43.4100   29.7240   35.3140 C   0  0  0  0  0  0  0  0  0  0  0  0
   42.7720   28.6320   35.7300 N   0  0  0  0  0  0  0  0  0  0  0  0
   41.4980   29.8100   38.5820 H   0  0  0  0  0  0  0  0  0  0  0  0
   43.9550   29.6940   34.3800 H   0  0  0  0  0  0  0  0  0  0  0  0
   41.3910   27.4520   37.3610 C   0  0  0  0  0  0  0  0  0  0  0  0
   39.9390   27.3490   36.7770 C   0  0  0  0  0  0  0  0  0  0  0  0
   41.0020   26.3640   36.5410 C   0  0  0  0  0  0  0  0  0  0  0  0
   41.4370   27.3640   38.4640 H   0  0  0  0  0  0  0  0  0  0  0  0
   39.1710   27.1350   37.5360 H   0  0  0  0  0  0  0  0  0  0  0  0
   39.6690   28.0570   35.9790 H   0  0  0  0  0  0  0  0  0  0  0  0
   40.8750   25.3510   36.9540 H   0  0  0  0  0  0  0  0  0  0  0  0
   41.3870   26.3300   35.4790 H   0  0  0  0  0  0  0  0  0  0  0  0
  1  3  1  0  0  0  0
  1 24  1  0  0  0  0
  1  6  1  0  0  0  0
  2  1  1  0  0  0  0
  4  5  2  0  0  0  0
  6  4  1  0  0  0  0
  7  6  1  0  0  0  0
  8 16  1  0  0  0  0
  8 18  1  0  0  0  0
  9  8  2  0  0  0  0
 10  9  1  0  0  0  0
 10 14  1  0  0  0  0
 11 13  1  0  0  0  0
 11 10  1  0  0  0  0
 12 11  2  0  0  0  0
 13  4  1  6  0  0  0
 13 14  1  0  0  0  0
 14 15  1  6  0  0  0
 15 16  1  0  0  0  0
 17 16  1  0  0  0  0
 18 19  1  0  0  0  0
 20  9  1  0  0  0  0
 21 20  2  0  0  0  0
 22 20  1  0  0  0  0
 23 22  1  0  0  0  0
 24 25  1  0  0  0  0
 26 24  1  0  0  0  0
 27 35  1  0  0  0  0
 27 28  1  0  0  0  0
 28 33  1  0  0  0  0
 29 28  2  0  0  0  0
 29 24  1  0  0  0  0
 30 29  1  0  0  0  0
 31 32  1  0  0  0  0
 31 30  2  0  0  0  0
 32 27  2  0  0  0  0
 34 31  1  0  0  0  0
 35 38  1  0  0  0  0
 36 35  1  0  0  0  0
 36 39  1  0  0  0  0
 37 36  1  0  0  0  0
 37 41  1  0  0  0  0
 37 35  1  0  0  0  0
 40 36  1  0  0  0  0
 42 37  1  0  0  0  0
M  END
>  <minimizedAffinity>
-5.49393034

$$$$

 OpenBabel03242520213D

 42 45  0  0  1  0  0  0  0  0999 V2000
   36.6220   28.6160   43.0160 C   0  0  0  0  0  0  0  0  0  0  0  0
   36.1190   29.2150   43.7940 H   0  0  0  0  0  0  0  0  0  0  0  0
   35.9360   27.8050   42.7060 H   0  0  0  0  0  0  0  0  0  0  0  0
   36.0590   29.5370   40.8230 C   0  0  0  0  0  0  0  0  0  0  0  0
   34.9670   28.9020   40.7510 O   0  0  0  0  0  0  0  0  0  0  0  0
   36.9580   29.5150   41.9340 N   0  0  0  0  0  0  0  0  0  0  0  0
   37.7980   30.0900   41.9890 H   0  0  0  0  0  0  0  0  0  0  0  0
   39.9470   29.2570   37.7080 C   0  0  0  0  0  0  0  0  0  0  0  0
   39.6110   30.4470   38.1220 C   0  0  0  0  0  0  0  0  0  0  0  0
   38.4090   30.5980   38.8660 N   0  0  0  0  0  0  0  0  0  0  0  0
   37.6380   31.2200   39.8820 C   0  0  0  0  0  0  0  0  0  0  0  0
   37.8610   32.1670   40.7120 O   0  0  0  0  0  0  0  0  0  0  0  0
   36.4490   30.3830   39.6590 C   0  0  1  0  0  3  0  0  0  0  0  0
   37.2300   29.7580   38.5890 C   0  0  2  0  0  3  0  0  0  0  0  0
   37.8290   28.0730   38.8600 S   0  0  0  0  0  0  0  0  0  0  0  0
   39.3180   27.9360   37.8490 C   0  0  0  0  0  3  0  0  0  0  0  0
   40.0200   27.1670   38.2310 H   0  0  0  0  0  0  0  0  0  0  0  0
   41.2400   29.2440   36.9320 C   0  0  0  0  0  2  0  0  0  0  0  0
   41.1710   29.8590   36.0110 H   0  0  0  0  0  0  0  0  0  0  0  0
   40.4040   31.6440   37.8630 C   0  0  0  0  0  0  0  0  0  0  0  0
   41.3530   32.1370   38.4830 O   0  0  0  0  0  0  0  0  0  0  0  0
   40.1640   32.4610   36.7710 O   0  0  0  0  0  0  0  0  0  0  0  0
   40.3040   33.4420   36.7140 H   0  0  0  0  0  0  0  0  0  0  0  0
   37.8540   27.9730   43.6260 C   0  0  0  0  0  0  0  0  0  0  0  0
   37.6030   27.4650   44.5820 H   0  0  0  0  0  0  0  0  0  0  0  0
   38.5730   28.7740   43.8300 H   0  0  0  0  0  0  0  0  0  0  0  0
   38.3690   24.8760   41.5200 C   0  0  0  0  0  0  0  0  0  0  0  0
   37.7860   25.7960   42.4240 C   0  0  0  0  0  0  0  0  0  0  0  0
   38.4450   26.9850   42.6880 C   0  0  0  0  0  0  0  0  0  0  0  0
   39.6420   27.1940   42.0420 N   0  0  0  0  0  0  0  0  0  0  0  0
   40.1560   26.2820   41.1860 C   0  0  0  0  0  0  0  0  0  0  0  0
   39.5300   25.1360   40.9260 N   0  0  0  0  0  0  0  0  0  0  0  0
   36.8500   25.5340   42.8750 H   0  0  0  0  0  0  0  0  0  0  0  0
   41.1000   26.4910   40.7020 H   0  0  0  0  0  0  0  0  0  0  0  0
   37.6620   23.5970   41.2480 C   0  0  0  0  0  0  0  0  0  0  0  0
   36.5850   23.7500   40.1190 C   0  0  0  0  0  0  0  0  0  0  0  0
   37.7550   22.8660   40.0370 C   0  0  0  0  0  0  0  0  0  0  0  0
   37.2740   23.1390   42.1790 H   0  0  0  0  0  0  0  0  0  0  0  0
   35.6060   23.3180   40.3810 H   0  0  0  0  0  0  0  0  0  0  0  0
   36.5800   24.6950   39.5560 H   0  0  0  0  0  0  0  0  0  0  0  0
   37.5850   21.7780   40.0100 H   0  0  0  0  0  0  0  0  0  0  0  0
   38.5320   23.1810   39.2800 H   0  0  0  0  0  0  0  0  0  0  0  0
  1 24  1  0  0  0  0
  1  2  1  0  0  0  0
  3  1  1  0  0  0  0
  4  6  1  0  0  0  0
  5  4  2  0  0  0  0
  6  7  1  0  0  0  0
  6  1  1  0  0  0  0
  8 16  1  0  0  0  0
  8  9  2  0  0  0  0
  9 10  1  0  0  0  0
 10 11  1  0  0  0  0
 11 12  2  0  0  0  0
 13 11  1  0  0  0  0
 13  4  1  1  0  0  0
 14 15  1  1  0  0  0
 14 10  1  0  0  0  0
 14 13  1  0  0  0  0
 16 17  1  0  0  0  0
 16 15  1  0  0  0  0
 18  8  1  0  0  0  0
 19 18  1  0  0  0  0
 20  9  1  0  0  0  0
 20 21  2  0  0  0  0
 22 20  1  0  0  0  0
 23 22  1  0  0  0  0
 24 26  1  0  0  0  0
 24 25  1  0  0  0  0
 27 28  1  0  0  0  0
 28 29  2  0  0  0  0
 28 33  1  0  0  0  0
 29 24  1  0  0  0  0
 30 29  1  0  0  0  0
 31 30  2  0  0  0  0
 32 31  1  0  0  0  0
 32 27  2  0  0  0  0
 34 31  1  0  0  0  0
 35 27  1  0  0  0  0
 35 38  1  0  0  0  0
 36 39  1  0  0  0  0
 36 35  1  0  0  0  0
 37 36  1  0  0  0  0
 37 35  1  0  0  0  0
 40 36  1  0  0  0  0
 41 37  1  0  0  0  0
 42 37  1  0  0  0  0
M  END
>  <minimizedAffinity>
-5.47715998

$$$$

 OpenBabel03242520213D

 42 45  0  0  1  0  0  0  0  0999 V2000
   37.2900   29.3300   39.1700 C   0  0  0  0  0  0  0  0  0  0  0  0
   36.7270   29.9220   38.4280 H   0  0  0  0  0  0  0  0  0  0  0  0
   37.9430   28.6230   38.6230 H   0  0  0  0  0  0  0  0  0  0  0  0
   37.8190   31.6510   39.7250 C   0  0  0  0  0  0  0  0  0  0  0  0
   36.9850   32.1200   38.8960 O   0  0  0  0  0  0  0  0  0  0  0  0
   38.0300   30.2630   39.9890 N   0  0  0  0  0  0  0  0  0  0  0  0
   38.6630   29.9180   40.7120 H   0  0  0  0  0  0  0  0  0  0  0  0
   42.6990   32.6730   39.5240 C   0  0  0  0  0  0  0  0  0  0  0  0
   42.1630   32.5990   40.7100 C   0  0  0  0  0  0  0  0  0  0  0  0
   40.7490   32.4850   40.8160 N   0  0  0  0  0  0  0  0  0  0  0  0
   39.5800   31.9980   41.4540 C   0  0  0  0  0  0  0  0  0  0  0  0
   39.3670   31.2770   42.4890 O   0  0  0  0  0  0  0  0  0  0  0  0
   38.6530   32.6170   40.4940 C   0  0  1  0  0  3  0  0  0  0  0  0
   39.8560   33.1480   39.8490 C   0  0  2  0  0  3  0  0  0  0  0  0
   40.3410   32.4370   38.2580 S   0  0  0  0  0  0  0  0  0  0  0  0
   42.1300   32.6640   38.1680 C   0  0  0  0  0  3  0  0  0  0  0  0
   42.6180   31.9210   37.5050 H   0  0  0  0  0  0  0  0  0  0  0  0
   44.2020   32.7920   39.5590 C   0  0  0  0  0  2  0  0  0  0  0  0
   44.5270   33.7160   40.0790 H   0  0  0  0  0  0  0  0  0  0  0  0
   42.9370   32.6260   41.9460 C   0  0  0  0  0  0  0  0  0  0  0  0
   43.5350   31.7270   42.5470 O   0  0  0  0  0  0  0  0  0  0  0  0
   43.1160   33.7890   42.6750 O   0  0  0  0  0  0  0  0  0  0  0  0
   43.2210   33.8720   43.6580 H   0  0  0  0  0  0  0  0  0  0  0  0
   36.3020   28.5150   39.9840 C   0  0  0  0  0  0  0  0  0  0  0  0
   35.9160   27.6560   39.3930 H   0  0  0  0  0  0  0  0  0  0  0  0
   35.4640   29.1740   40.2360 H   0  0  0  0  0  0  0  0  0  0  0  0
   38.1270   26.2930   42.4380 C   0  0  0  0  0  0  0  0  0  0  0  0
   37.5170   26.7480   41.2450 C   0  0  0  0  0  0  0  0  0  0  0  0
   36.9420   28.0070   41.2240 C   0  0  0  0  0  0  0  0  0  0  0  0
   37.0040   28.7430   42.3860 N   0  0  0  0  0  0  0  0  0  0  0  0
   37.6000   28.2620   43.5000 C   0  0  0  0  0  0  0  0  0  0  0  0
   38.1560   27.0530   43.5300 N   0  0  0  0  0  0  0  0  0  0  0  0
   37.5230   26.0940   40.3960 H   0  0  0  0  0  0  0  0  0  0  0  0
   37.6240   28.8780   44.3890 H   0  0  0  0  0  0  0  0  0  0  0  0
   38.7350   24.9370   42.4580 C   0  0  0  0  0  0  0  0  0  0  0  0
   40.1940   24.9380   41.8820 C   0  0  0  0  0  0  0  0  0  0  0  0
   39.8430   24.5610   43.2570 C   0  0  0  0  0  0  0  0  0  0  0  0
   38.0700   24.1850   41.9920 H   0  0  0  0  0  0  0  0  0  0  0  0
   40.3760   24.1450   41.1400 H   0  0  0  0  0  0  0  0  0  0  0  0
   40.6550   25.9180   41.6900 H   0  0  0  0  0  0  0  0  0  0  0  0
   39.9990   23.5160   43.5660 H   0  0  0  0  0  0  0  0  0  0  0  0
   40.2010   25.2830   44.0500 H   0  0  0  0  0  0  0  0  0  0  0  0
  1 24  1  0  0  0  0
  1  6  1  0  0  0  0
  2  1  1  0  0  0  0
  3  1  1  0  0  0  0
  4  6  1  0  0  0  0
  5  4  2  0  0  0  0
  6  7  1  0  0  0  0
  8 18  1  0  0  0  0
  8  9  2  0  0  0  0
  9 10  1  0  0  0  0
  9 20  1  0  0  0  0
 10 11  1  0  0  0  0
 11 12  2  0  0  0  0
 13  4  1  6  0  0  0
 13 11  1  0  0  0  0
 14 15  1  6  0  0  0
 14 13  1  0  0  0  0
 14 10  1  0  0  0  0
 16 15  1  0  0  0  0
 16  8  1  0  0  0  0
 17 16  1  0  0  0  0
 18 19  1  0  0  0  0
 20 21  2  0  0  0  0
 20 22  1  0  0  0  0
 22 23  1  0  0  0  0
 24 26  1  0  0  0  0
 24 29  1  0  0  0  0
 25 24  1  0  0  0  0
 27 35  1  0  0  0  0
 27 32  1  0  0  0  0
 28 27  2  0  0  0  0
 29 28  1  0  0  0  0
 29 30  2  0  0  0  0
 30 31  1  0  0  0  0
 31 32  2  0  0  0  0
 31 34  1  0  0  0  0
 33 28  1  0  0  0  0
 35 37  1  0  0  0  0
 36 35  1  0  0  0  0
 36 37  1  0  0  0  0
 37 41  1  0  0  0  0
 37 42  1  0  0  0  0
 38 35  1  0  0  0  0
 39 36  1  0  0  0  0
 40 36  1  0  0  0  0
M  END
>  <minimizedAffinity>
-5.46106577

$$$$

 OpenBabel03242520213D

 42 45  0  0  1  0  0  0  0  0999 V2000
   35.1250   29.0480   37.8890 C   0  0  0  0  0  0  0  0  0  0  0  0
   34.3510   29.3450   37.1620 H   0  0  0  0  0  0  0  0  0  0  0  0
   35.5390   28.0700   37.5740 H   0  0  0  0  0  0  0  0  0  0  0  0
   37.3660   29.8100   37.2780 C   0  0  0  0  0  0  0  0  0  0  0  0
   37.6350   28.7510   36.6390 O   0  0  0  0  0  0  0  0  0  0  0  0
   36.1180   30.0990   37.9110 N   0  0  0  0  0  0  0  0  0  0  0  0
   35.9090   30.9900   38.3620 H   0  0  0  0  0  0  0  0  0  0  0  0
   40.4860   30.9540   41.0000 C   0  0  0  0  0  0  0  0  0  0  0  0
   39.9470   31.9520   40.3590 C   0  0  0  0  0  0  0  0  0  0  0  0
   39.1920   31.6830   39.1830 N   0  0  0  0  0  0  0  0  0  0  0  0
   38.1170   31.9560   38.3000 C   0  0  0  0  0  0  0  0  0  0  0  0
   37.1880   32.8350   38.2750 O   0  0  0  0  0  0  0  0  0  0  0  0
   38.4310   30.8470   37.3840 C   0  0  1  0  0  3  0  0  0  0  0  0
   39.5600   30.5810   38.2770 C   0  0  2  0  0  3  0  0  0  0  0  0
   39.4730   29.1120   39.3290 S   0  0  0  0  0  0  0  0  0  0  0  0
   40.4910   29.5030   40.7670 C   0  0  0  0  0  3  0  0  0  0  0  0
   40.1930   28.9250   41.6660 H   0  0  0  0  0  0  0  0  0  0  0  0
   41.2570   31.3830   42.2230 C   0  0  0  0  0  2  0  0  0  0  0  0
   42.1060   32.0470   41.9590 H   0  0  0  0  0  0  0  0  0  0  0  0
   40.0730   33.3430   40.7800 C   0  0  0  0  0  0  0  0  0  0  0  0
   40.9870   34.1590   40.6170 O   0  0  0  0  0  0  0  0  0  0  0  0
   39.0760   33.9880   41.4920 O   0  0  0  0  0  0  0  0  0  0  0  0
   39.1890   34.7080   42.1650 H   0  0  0  0  0  0  0  0  0  0  0  0
   34.4660   28.8570   39.2430 C   0  0  0  0  0  0  0  0  0  0  0  0
   34.0680   27.8250   39.3480 H   0  0  0  0  0  0  0  0  0  0  0  0
   33.6320   29.5650   39.3020 H   0  0  0  0  0  0  0  0  0  0  0  0
   36.8930   28.3480   42.0970 C   0  0  0  0  0  0  0  0  0  0  0  0
   35.9650   28.0680   41.0650 C   0  0  0  0  0  0  0  0  0  0  0  0
   35.4360   29.1200   40.3370 C   0  0  0  0  0  0  0  0  0  0  0  0
   35.8570   30.3870   40.6710 N   0  0  0  0  0  0  0  0  0  0  0  0
   36.7480   30.6010   41.6660 C   0  0  0  0  0  0  0  0  0  0  0  0
   37.2610   29.5950   42.3720 N   0  0  0  0  0  0  0  0  0  0  0  0
   35.7030   27.0450   40.8870 H   0  0  0  0  0  0  0  0  0  0  0  0
   37.0480   31.6150   41.8920 H   0  0  0  0  0  0  0  0  0  0  0  0
   37.4500   27.2160   42.8820 C   0  0  0  0  0  0  0  0  0  0  0  0
   38.7470   26.6260   42.2260 C   0  0  0  0  0  0  0  0  0  0  0  0
   38.6950   27.2390   43.5590 C   0  0  0  0  0  0  0  0  0  0  0  0
   36.6770   26.4550   43.1080 H   0  0  0  0  0  0  0  0  0  0  0  0
   38.7390   25.5290   42.1410 H   0  0  0  0  0  0  0  0  0  0  0  0
   39.1840   27.1900   41.3880 H   0  0  0  0  0  0  0  0  0  0  0  0
   38.8830   26.5980   44.4350 H   0  0  0  0  0  0  0  0  0  0  0  0
   39.2380   28.2260   43.6470 H   0  0  0  0  0  0  0  0  0  0  0  0
  1  6  1  0  0  0  0
  1 24  1  0  0  0  0
  2  1  1  0  0  0  0
  3  1  1  0  0  0  0
  4  6  1  0  0  0  0
  5  4  2  0  0  0  0
  6  7  1  0  0  0  0
  8 18  1  0  0  0  0
  9 20  1  0  0  0  0
  9  8  2  0  0  0  0
 10  9  1  0  0  0  0
 11 10  1  0  0  0  0
 12 11  2  0  0  0  0
 13  4  1  1  0  0  0
 13 14  1  0  0  0  0
 13 11  1  0  0  0  0
 14 10  1  0  0  0  0
 14 15  1  1  0  0  0
 15 16  1  0  0  0  0
 16  8  1  0  0  0  0
 16 17  1  0  0  0  0
 19 18  1  0  0  0  0
 20 22  1  0  0  0  0
 21 20  2  0  0  0  0
 22 23  1  0  0  0  0
 24 26  1  0  0  0  0
 24 25  1  0  0  0  0
 24 29  1  0  0  0  0
 27 32  1  0  0  0  0
 27 35  1  0  0  0  0
 28 27  2  0  0  0  0
 29 30  2  0  0  0  0
 29 28  1  0  0  0  0
 30 31  1  0  0  0  0
 31 34  1  0  0  0  0
 31 32  2  0  0  0  0
 33 28  1  0  0  0  0
 35 38  1  0  0  0  0
 35 37  1  0  0  0  0
 36 35  1  0  0  0  0
 36 37  1  0  0  0  0
 37 42  1  0  0  0  0
 37 41  1  0  0  0  0
 39 36  1  0  0  0  0
 40 36  1  0  0  0  0
M  END
>  <minimizedAffinity>
-5.43684387

$$$$

 OpenBabel03242520213D

 42 45  0  0  1  0  0  0  0  0999 V2000
   38.5480   31.7920   40.8920 C   0  0  0  0  0  0  0  0  0  0  0  0
   38.7490   32.5490   41.6700 H   0  0  0  0  0  0  0  0  0  0  0  0
   39.3710   31.8300   40.1530 H   0  0  0  0  0  0  0  0  0  0  0  0
   39.5290   30.1500   42.4150 C   0  0  0  0  0  0  0  0  0  0  0  0
   40.5170   30.8880   42.6960 O   0  0  0  0  0  0  0  0  0  0  0  0
   38.4440   30.5120   41.5570 N   0  0  0  0  0  0  0  0  0  0  0  0
   37.6280   29.9210   41.4020 H   0  0  0  0  0  0  0  0  0  0  0  0
   39.7920   25.6120   40.3570 C   0  0  0  0  0  0  0  0  0  0  0  0
   38.9090   25.7770   41.3020 C   0  0  0  0  0  0  0  0  0  0  0  0
   38.9150   26.9950   42.0380 N   0  0  0  0  0  0  0  0  0  0  0  0
   38.2500   28.0350   42.7360 C   0  0  0  0  0  0  0  0  0  0  0  0
   37.0270   28.2680   43.0300 O   0  0  0  0  0  0  0  0  0  0  0  0
   39.4800   28.7910   43.0230 C   0  0  1  0  0  3  0  0  0  0  0  0
   40.1730   27.7040   42.3290 C   0  0  2  0  0  3  0  0  0  0  0  0
   40.8590   28.0540   40.6920 S   0  0  0  0  0  0  0  0  0  0  0  0
   40.8720   26.4640   39.8390 C   0  0  0  0  0  3  0  0  0  0  0  0
   40.8370   26.5750   38.7350 H   0  0  0  0  0  0  0  0  0  0  0  0
   39.6730   24.2790   39.6630 C   0  0  0  0  0  2  0  0  0  0  0  0
   39.8420   23.4360   40.3640 H   0  0  0  0  0  0  0  0  0  0  0  0
   37.9070   24.7770   41.6530 C   0  0  0  0  0  0  0  0  0  0  0  0
   36.7390   24.6340   41.2750 O   0  0  0  0  0  0  0  0  0  0  0  0
   38.1730   23.7550   42.5480 O   0  0  0  0  0  0  0  0  0  0  0  0
   37.5300   23.3140   43.1630 H   0  0  0  0  0  0  0  0  0  0  0  0
   37.2640   32.1680   40.1760 C   0  0  0  0  0  0  0  0  0  0  0  0
   37.4780   32.7980   39.2840 H   0  0  0  0  0  0  0  0  0  0  0  0
   36.6560   32.7480   40.8780 H   0  0  0  0  0  0  0  0  0  0  0  0
   35.9720   29.2960   38.0850 C   0  0  0  0  0  0  0  0  0  0  0  0
   36.6790   30.4630   38.4610 C   0  0  0  0  0  0  0  0  0  0  0  0
   36.5290   30.9500   39.7490 C   0  0  0  0  0  0  0  0  0  0  0  0
   35.6890   30.2540   40.5880 N   0  0  0  0  0  0  0  0  0  0  0  0
   35.0370   29.1430   40.1790 C   0  0  0  0  0  0  0  0  0  0  0  0
   35.1740   28.6670   38.9430 N   0  0  0  0  0  0  0  0  0  0  0  0
   37.3070   30.9290   37.7300 H   0  0  0  0  0  0  0  0  0  0  0  0
   34.3870   28.6300   40.8750 H   0  0  0  0  0  0  0  0  0  0  0  0
   36.1280   28.7820   36.6990 C   0  0  0  0  0  0  0  0  0  0  0  0
   34.8880   29.1240   35.8020 C   0  0  0  0  0  0  0  0  0  0  0  0
   36.2550   29.5970   35.5460 C   0  0  0  0  0  0  0  0  0  0  0  0
   36.4060   27.7100   36.6900 H   0  0  0  0  0  0  0  0  0  0  0  0
   34.5050   28.2640   35.2320 H   0  0  0  0  0  0  0  0  0  0  0  0
   34.1440   29.8190   36.2210 H   0  0  0  0  0  0  0  0  0  0  0  0
   36.7700   29.2360   34.6430 H   0  0  0  0  0  0  0  0  0  0  0  0
   36.4050   30.7080   35.6890 H   0  0  0  0  0  0  0  0  0  0  0  0
  1  6  1  0  0  0  0
  1  2  1  0  0  0  0
  3  1  1  0  0  0  0
  4  5  2  0  0  0  0
  6  4  1  0  0  0  0
  7  6  1  0  0  0  0
  8  9  2  0  0  0  0
  9 20  1  0  0  0  0
  9 10  1  0  0  0  0
 10 14  1  0  0  0  0
 10 11  1  0  0  0  0
 11 13  1  0  0  0  0
 11 12  2  0  0  0  0
 13  4  1  6  0  0  0
 14 15  1  6  0  0  0
 14 13  1  0  0  0  0
 16  8  1  0  0  0  0
 16 15  1  0  0  0  0
 17 16  1  0  0  0  0
 18  8  1  0  0  0  0
 18 19  1  0  0  0  0
 20 22  1  0  0  0  0
 21 20  2  0  0  0  0
 22 23  1  0  0  0  0
 24 26  1  0  0  0  0
 24  1  1  0  0  0  0
 25 24  1  0  0  0  0
 27 28  2  0  0  0  0
 27 32  1  0  0  0  0
 28 29  1  0  0  0  0
 29 24  1  0  0  0  0
 29 30  2  0  0  0  0
 31 30  1  0  0  0  0
 31 34  1  0  0  0  0
 32 31  2  0  0  0  0
 33 28  1  0  0  0  0
 35 27  1  0  0  0  0
 36 40  1  0  0  0  0
 36 35  1  0  0  0  0
 37 42  1  0  0  0  0
 37 36  1  0  0  0  0
 37 35  1  0  0  0  0
 38 35  1  0  0  0  0
 39 36  1  0  0  0  0
 41 37  1  0  0  0  0
M  END
>  <minimizedAffinity>
-5.40395164

$$$$

 OpenBabel03242520213D

 42 45  0  0  1  0  0  0  0  0999 V2000
   36.4100   29.4160   35.6280 C   0  0  0  0  0  0  0  0  0  0  0  0
   36.3300   30.3860   35.1070 H   0  0  0  0  0  0  0  0  0  0  0  0
   37.3650   28.9420   35.3300 H   0  0  0  0  0  0  0  0  0  0  0  0
   37.0510   30.8260   37.5200 C   0  0  0  0  0  0  0  0  0  0  0  0
   37.6720   31.6530   36.7910 O   0  0  0  0  0  0  0  0  0  0  0  0
   36.3330   29.6840   37.0470 N   0  0  0  0  0  0  0  0  0  0  0  0
   35.7860   29.0730   37.6530 H   0  0  0  0  0  0  0  0  0  0  0  0
   39.2460   28.2990   41.2200 C   0  0  0  0  0  0  0  0  0  0  0  0
   38.0280   28.7100   41.4330 C   0  0  0  0  0  0  0  0  0  0  0  0
   37.4240   29.5810   40.4840 N   0  0  0  0  0  0  0  0  0  0  0  0
   36.2970   30.0620   39.7690 C   0  0  0  0  0  0  0  0  0  0  0  0
   35.0520   29.7670   39.7700 O   0  0  0  0  0  0  0  0  0  0  0  0
   37.0610   31.0510   38.9930 C   0  0  1  0  0  3  0  0  0  0  0  0
   38.2220   30.5800   39.7500 C   0  0  2  0  0  3  0  0  0  0  0  0
   39.4520   29.5850   38.8710 S   0  0  0  0  0  0  0  0  0  0  0  0
   40.2100   28.5490   40.1390 C   0  0  0  0  0  3  0  0  0  0  0  0
   40.6360   27.6130   39.7220 H   0  0  0  0  0  0  0  0  0  0  0  0
   39.7600   27.3850   42.3040 C   0  0  0  0  0  2  0  0  0  0  0  0
   39.7970   27.8970   43.2870 H   0  0  0  0  0  0  0  0  0  0  0  0
   37.2390   28.3260   42.5990 C   0  0  0  0  0  0  0  0  0  0  0  0
   36.6280   27.2820   42.8550 O   0  0  0  0  0  0  0  0  0  0  0  0
   37.0620   29.1750   43.6770 O   0  0  0  0  0  0  0  0  0  0  0  0
   36.2720   29.2290   44.2760 H   0  0  0  0  0  0  0  0  0  0  0  0
   35.2800   28.5210   35.1540 C   0  0  0  0  0  0  0  0  0  0  0  0
   35.4610   27.4650   35.4490 H   0  0  0  0  0  0  0  0  0  0  0  0
   35.2510   28.5820   34.0610 H   0  0  0  0  0  0  0  0  0  0  0  0
   31.8880   30.1490   35.5320 C   0  0  0  0  0  0  0  0  0  0  0  0
   33.1200   29.7410   34.9650 C   0  0  0  0  0  0  0  0  0  0  0  0
   33.9840   28.9710   35.7240 C   0  0  0  0  0  0  0  0  0  0  0  0
   33.5800   28.6500   37.0000 N   0  0  0  0  0  0  0  0  0  0  0  0
   32.3920   29.0650   37.4950 C   0  0  0  0  0  0  0  0  0  0  0  0
   31.5540   29.8060   36.7720 N   0  0  0  0  0  0  0  0  0  0  0  0
   33.3370   30.0470   33.9620 H   0  0  0  0  0  0  0  0  0  0  0  0
   32.1190   28.7880   38.5040 H   0  0  0  0  0  0  0  0  0  0  0  0
   30.9680   30.9830   34.7150 C   0  0  0  0  0  0  0  0  0  0  0  0
   30.5930   32.3230   35.4380 C   0  0  0  0  0  0  0  0  0  0  0  0
   31.3030   32.2410   34.1550 C   0  0  0  0  0  0  0  0  0  0  0  0
   30.0920   30.4020   34.3660 H   0  0  0  0  0  0  0  0  0  0  0  0
   29.5130   32.5370   35.4390 H   0  0  0  0  0  0  0  0  0  0  0  0
   31.1530   32.5730   36.3520 H   0  0  0  0  0  0  0  0  0  0  0  0
   30.7950   32.6210   33.2540 H   0  0  0  0  0  0  0  0  0  0  0  0
   32.3820   32.5740   34.1910 H   0  0  0  0  0  0  0  0  0  0  0  0
  1  6  1  0  0  0  0
  2  1  1  0  0  0  0
  3  1  1  0  0  0  0
  5  4  2  0  0  0  0
  6  4  1  0  0  0  0
  6  7  1  0  0  0  0
  8  9  2  0  0  0  0
  8 18  1  0  0  0  0
  9 20  1  0  0  0  0
 10  9  1  0  0  0  0
 11 12  2  0  0  0  0
 11 10  1  0  0  0  0
 13  4  1  6  0  0  0
 13 14  1  0  0  0  0
 13 11  1  0  0  0  0
 14 15  1  6  0  0  0
 14 10  1  0  0  0  0
 15 16  1  0  0  0  0
 16  8  1  0  0  0  0
 17 16  1  0  0  0  0
 18 19  1  0  0  0  0
 20 21  2  0  0  0  0
 20 22  1  0  0  0  0
 22 23  1  0  0  0  0
 24 25  1  0  0  0  0
 24  1  1  0  0  0  0
 24 29  1  0  0  0  0
 26 24  1  0  0  0  0
 27 32  1  0  0  0  0
 28 27  2  0  0  0  0
 28 29  1  0  0  0  0
 29 30  2  0  0  0  0
 30 31  1  0  0  0  0
 31 34  1  0  0  0  0
 32 31  2  0  0  0  0
 33 28  1  0  0  0  0
 35 36  1  0  0  0  0
 35 27  1  0  0  0  0
 36 39  1  0  0  0  0
 36 40  1  0  0  0  0
 37 42  1  0  0  0  0
 37 35  1  0  0  0  0
 37 36  1  0  0  0  0
 38 35  1  0  0  0  0
 41 37  1  0  0  0  0
M  END
>  <minimizedAffinity>
-5.3444376

$$$$

 OpenBabel03242520213D

 42 45  0  0  1  0  0  0  0  0999 V2000
   37.0240   25.5530   38.1960 C   0  0  0  0  0  0  0  0  0  0  0  0
   36.4880   25.1100   37.3400 H   0  0  0  0  0  0  0  0  0  0  0  0
   38.0620   25.1670   38.1910 H   0  0  0  0  0  0  0  0  0  0  0  0
   37.7270   27.5580   36.9880 C   0  0  0  0  0  0  0  0  0  0  0  0
   38.3910   26.9030   36.1330 O   0  0  0  0  0  0  0  0  0  0  0  0
   36.9550   26.9890   38.0470 N   0  0  0  0  0  0  0  0  0  0  0  0
   36.3760   27.5410   38.6800 H   0  0  0  0  0  0  0  0  0  0  0  0
   39.5890   31.0350   40.0450 C   0  0  0  0  0  0  0  0  0  0  0  0
   38.4200   31.2790   39.5220 C   0  0  0  0  0  0  0  0  0  0  0  0
   37.9260   30.4060   38.5130 N   0  0  0  0  0  0  0  0  0  0  0  0
   36.8670   29.7320   37.8530 C   0  0  0  0  0  0  0  0  0  0  0  0
   35.5980   29.7030   38.0090 O   0  0  0  0  0  0  0  0  0  0  0  0
   37.7430   29.0450   36.8910 C   0  0  1  0  0  3  0  0  0  0  0  0
   38.8370   29.7630   37.5490 C   0  0  2  0  0  3  0  0  0  0  0  0
   39.9620   28.8060   38.5930 S   0  0  0  0  0  0  0  0  0  0  0  0
   40.5880   29.9820   39.8110 C   0  0  0  0  0  3  0  0  0  0  0  0
   40.9150   29.4880   40.7480 H   0  0  0  0  0  0  0  0  0  0  0  0
   39.9860   32.0380   41.0980 C   0  0  0  0  0  2  0  0  0  0  0  0
   40.0670   33.0620   40.6780 H   0  0  0  0  0  0  0  0  0  0  0  0
   37.5800   32.4050   39.9150 C   0  0  0  0  0  0  0  0  0  0  0  0
   37.6520   33.6060   39.6340 O   0  0  0  0  0  0  0  0  0  0  0  0
   36.4800   32.2460   40.7410 O   0  0  0  0  0  0  0  0  0  0  0  0
   36.1180   32.9040   41.3910 H   0  0  0  0  0  0  0  0  0  0  0  0
   36.3600   25.0790   39.4760 C   0  0  0  0  0  0  0  0  0  0  0  0
   36.0470   24.0160   39.3890 H   0  0  0  0  0  0  0  0  0  0  0  0
   35.4690   25.6970   39.6290 H   0  0  0  0  0  0  0  0  0  0  0  0
   38.1220   26.4600   42.5220 C   0  0  0  0  0  0  0  0  0  0  0  0
   37.2320   26.3540   41.4260 C   0  0  0  0  0  0  0  0  0  0  0  0
   37.2860   25.2240   40.6280 C   0  0  0  0  0  0  0  0  0  0  0  0
   38.2170   24.2660   40.9600 N   0  0  0  0  0  0  0  0  0  0  0  0
   39.0440   24.4160   42.0190 C   0  0  0  0  0  0  0  0  0  0  0  0
   39.0000   25.4990   42.7920 N   0  0  0  0  0  0  0  0  0  0  0  0
   36.5470   27.1580   41.2550 H   0  0  0  0  0  0  0  0  0  0  0  0
   39.7590   23.6360   42.2410 H   0  0  0  0  0  0  0  0  0  0  0  0
   38.0670   27.6790   43.3700 C   0  0  0  0  0  0  0  0  0  0  0  0
   39.1980   28.7020   43.0040 C   0  0  0  0  0  0  0  0  0  0  0  0
   37.7600   28.9790   42.8950 C   0  0  0  0  0  0  0  0  0  0  0  0
   38.0240   27.4260   44.4470 H   0  0  0  0  0  0  0  0  0  0  0  0
   39.7510   29.0810   43.8770 H   0  0  0  0  0  0  0  0  0  0  0  0
   39.7810   28.4990   42.0930 H   0  0  0  0  0  0  0  0  0  0  0  0
   37.3260   29.7440   43.5580 H   0  0  0  0  0  0  0  0  0  0  0  0
   37.3780   29.0870   41.8370 H   0  0  0  0  0  0  0  0  0  0  0  0
  1 24  1  0  0  0  0
  2  1  1  0  0  0  0
  3  1  1  0  0  0  0
  4  6  1  0  0  0  0
  5  4  2  0  0  0  0
  6  1  1  0  0  0  0
  6  7  1  0  0  0  0
  8 18  1  0  0  0  0
  9 20  1  0  0  0  0
  9  8  2  0  0  0  0
 10  9  1  0  0  0  0
 11 12  2  0  0  0  0
 11 10  1  0  0  0  0
 13  4  1  1  0  0  0
 13 14  1  0  0  0  0
 13 11  1  0  0  0  0
 14 10  1  0  0  0  0
 14 15  1  1  0  0  0
 15 16  1  0  0  0  0
 16  8  1  0  0  0  0
 16 17  1  0  0  0  0
 19 18  1  0  0  0  0
 20 22  1  0  0  0  0
 21 20  2  0  0  0  0
 22 23  1  0  0  0  0
 24 26  1  0  0  0  0
 24 29  1  0  0  0  0
 25 24  1  0  0  0  0
 27 32  1  0  0  0  0
 27 35  1  0  0  0  0
 28 27  2  0  0  0  0
 29 30  2  0  0  0  0
 29 28  1  0  0  0  0
 30 31  1  0  0  0  0
 31 34  1  0  0  0  0
 31 32  2  0  0  0  0
 33 28  1  0  0  0  0
 35 38  1  0  0  0  0
 36 35  1  0  0  0  0
 36 39  1  0  0  0  0
 37 36  1  0  0  0  0
 37 35  1  0  0  0  0
 37 41  1  0  0  0  0
 40 36  1  0  0  0  0
 42 37  1  0  0  0  0
M  END
>  <minimizedAffinity>
-5.33201075

$$$$
