
 OpenBabel03242519213D

 41 44  0  0  1  0  0  0  0  0999 V2000
   47.6820   33.3950   42.9540 C   0  0  0  0  0  0  0  0  0  0  0  0
   48.5600   34.5070   42.8270 C   0  0  0  0  0  0  0  0  0  0  0  0
   49.8990   34.2860   42.5060 C   0  0  0  0  0  0  0  0  0  0  0  0
   50.2720   32.9700   42.3360 N   0  0  0  0  0  0  0  0  0  0  0  0
   49.4320   31.9370   42.4610 C   0  0  0  0  0  0  0  0  0  0  0  0
   48.1380   32.1530   42.7690 N   0  0  0  0  0  0  0  0  0  0  0  0
   48.3480   35.5400   42.9400 H   0  0  0  0  0  0  0  0  0  0  0  0
   50.6330   35.0490   42.3880 H   0  0  0  0  0  0  0  0  0  0  0  0
   46.2850   33.7160   43.3060 C   0  0  0  0  0  0  0  0  0  0  0  0
   45.6970   34.7580   42.4400 C   0  0  0  0  0  0  0  0  0  0  0  0
   45.4620   36.0630   43.1460 C   0  0  0  0  0  0  0  0  0  0  0  0
   44.5880   35.8890   44.3750 C   0  0  0  0  0  0  0  0  0  0  0  0
   44.9460   34.6840   45.1930 C   0  0  0  0  0  0  0  0  0  0  0  0
   46.2660   34.0880   44.7840 C   0  0  0  0  0  0  0  0  0  0  0  0
   45.7370   32.7270   43.2830 H   0  0  0  0  0  0  0  0  0  0  0  0
   44.6660   34.3900   42.1550 H   0  0  0  0  0  0  0  0  0  0  0  0
   46.2030   34.9340   41.4910 H   0  0  0  0  0  0  0  0  0  0  0  0
   44.9340   36.7400   42.4450 H   0  0  0  0  0  0  0  0  0  0  0  0
   46.3530   36.5980   43.4770 H   0  0  0  0  0  0  0  0  0  0  0  0
   43.5020   35.8870   44.1100 H   0  0  0  0  0  0  0  0  0  0  0  0
   44.7140   36.7880   45.0110 H   0  0  0  0  0  0  0  0  0  0  0  0
   44.1360   33.9190   45.0070 H   0  0  0  0  0  0  0  0  0  0  0  0
   44.9680   34.8810   46.2640 H   0  0  0  0  0  0  0  0  0  0  0  0
   47.0490   34.8270   44.9830 H   0  0  0  0  0  0  0  0  0  0  0  0
   46.4290   33.1690   45.3870 H   0  0  0  0  0  0  0  0  0  0  0  0
   49.9100   30.5320   42.2600 C   0  0  0  0  0  0  0  0  0  0  0  0
   51.1220   30.4470   41.4510 C   0  0  0  0  0  0  0  0  0  0  0  0
   51.2270   30.7620   40.1720 C   0  0  0  0  0  0  0  0  0  0  0  0
   52.4960   30.5990   39.5590 N   0  0  0  0  0  0  0  0  0  0  0  0
   53.4890   31.0960   38.6360 C   0  0  0  0  0  0  0  0  0  0  0  0
   53.5250   32.0300   37.7620 O   0  0  0  0  0  0  0  0  0  0  0  0
   54.5070   30.1140   39.0590 C   0  0  0  0  0  0  0  0  0  0  0  0
   54.9460   29.4930   38.2510 H   0  0  0  0  0  0  0  0  0  0  0  0
   53.4070   29.4770   39.8330 C   0  0  1  0  0  0  0  0  0  0  0  0
   53.7350   29.6050   41.6100 S   0  0  0  0  0  0  0  0  0  0  0  0
   52.1580   29.9530   42.3890 C   0  0  0  0  0  0  0  0  0  0  0  0
   52.3220   30.7340   43.1630 H   0  0  0  0  0  0  0  0  0  0  0  0
   50.1090   31.2560   39.3610 C   0  0  0  0  0  0  0  0  0  0  0  0
   49.1810   30.7300   38.7330 O   0  0  0  0  0  0  0  0  0  0  0  0
   49.9020   32.5920   39.1510 O   0  0  0  0  0  0  0  0  0  0  0  0
   48.9960   33.0160   39.2410 H   0  0  0  0  0  0  0  0  0  0  0  0
  1  9  1  0  0  0  0
  2  7  1  0  0  0  0
  2  1  1  0  0  0  0
  3  2  2  0  0  0  0
  4  5  2  0  0  0  0
  4  3  1  0  0  0  0
  5  6  1  0  0  0  0
  6  1  2  0  0  0  0
  8  3  1  0  0  0  0
  9 14  1  0  0  0  0
 10 11  1  0  0  0  0
 10  9  1  0  0  0  0
 11 19  1  0  0  0  0
 11 12  1  0  0  0  0
 12 21  1  0  0  0  0
 12 13  1  0  0  0  0
 13 23  1  0  0  0  0
 14 24  1  0  0  0  0
 14 13  1  0  0  0  0
 14 25  1  0  0  0  0
 15  9  1  0  0  0  0
 16 10  1  0  0  0  0
 17 10  1  0  0  0  0
 18 11  1  0  0  0  0
 20 12  1  0  0  0  0
 22 13  1  0  0  0  0
 26  5  1  0  0  0  0
 27 26  1  0  0  0  0
 27 36  1  0  0  0  0
 28 27  2  0  0  0  0
 29 34  1  0  0  0  0
 29 28  1  0  0  0  0
 30 32  1  0  0  0  0
 30 29  1  0  0  0  0
 31 30  2  0  0  0  0
 33 32  1  0  0  0  0
 34 32  1  6  0  0  0
 34 35  1  0  0  0  0
 35 36  1  0  0  0  0
 36 37  1  0  0  0  0
 38 28  1  0  0  0  0
 39 38  2  0  0  0  0
 40 41  1  0  0  0  0
 40 38  1  0  0  0  0
M  END
>  <minimizedAffinity>
-5.02049255

>  <minimizedRMSD>
3.88729978

$$$$
