
 OpenBabel03242518353D

 42 46  0  0  1  0  0  0  0  0999 V2000
   46.1080   32.8380   36.6250 C   0  0  2  0  0  0  0  0  0  0  0  0
   44.9230   31.9790   36.8190 C   0  0  0  0  0  0  0  0  0  0  0  0
   46.2100   31.3380   36.4180 C   0  0  1  0  0  0  0  0  0  0  0  0
   46.1640   33.4810   35.7360 H   0  0  0  0  0  0  0  0  0  0  0  0
   44.6150   31.8750   37.8920 H   0  0  0  0  0  0  0  0  0  0  0  0
   44.0560   32.0520   36.1640 H   0  0  0  0  0  0  0  0  0  0  0  0
   46.6910   30.7490   37.2380 H   0  0  0  0  0  0  0  0  0  0  0  0
   47.3790   33.6870   39.8680 C   0  0  0  0  0  0  0  0  0  0  0  0
   48.2890   34.3620   39.0530 C   0  0  0  0  0  0  0  0  0  0  0  0
   47.9570   34.1490   37.7280 C   0  0  0  0  0  0  0  0  0  0  0  0
   46.8500   33.3450   37.8120 C   0  0  0  0  0  0  0  0  0  0  0  0
   46.5090   33.0710   39.0550 O   0  0  0  0  0  0  0  0  0  0  0  0
   49.1010   34.9430   39.4600 H   0  0  0  0  0  0  0  0  0  0  0  0
   48.4650   34.5340   36.8560 H   0  0  0  0  0  0  0  0  0  0  0  0
   47.2760   33.5870   41.2650 O   0  0  0  0  0  0  0  0  0  0  0  0
   47.3540   34.7590   42.0560 C   0  0  0  0  0  0  0  0  0  0  0  0
   48.2060   35.6110   41.6950 O   0  0  0  0  0  0  0  0  0  0  0  0
   46.4590   34.8250   43.1590 C   0  0  0  0  0  0  0  0  0  0  0  0
   45.5700   35.8710   43.1210 C   0  0  0  0  0  0  0  0  0  0  0  0
   44.6610   36.0040   44.1690 C   0  0  0  0  0  0  0  0  0  0  0  0
   44.6950   35.1030   45.1650 N   0  0  0  0  0  0  0  0  0  0  0  0
   45.5860   34.0900   45.1640 C   0  0  0  0  0  0  0  0  0  0  0  0
   46.4550   33.9660   44.1600 N   0  0  0  0  0  0  0  0  0  0  0  0
   45.5220   36.6030   42.3380 H   0  0  0  0  0  0  0  0  0  0  0  0
   43.9380   36.8270   44.1700 H   0  0  0  0  0  0  0  0  0  0  0  0
   45.6530   33.3360   45.9480 H   0  0  0  0  0  0  0  0  0  0  0  0
   46.4870   30.8520   35.0520 C   0  0  0  0  0  2  0  0  0  0  0  0
   47.8200   30.3040   34.7620 C   0  0  0  0  0  0  0  0  0  0  0  0
   48.5160   31.0630   33.8740 C   0  0  0  0  0  0  0  0  0  0  0  0
   49.8670   30.7420   33.4560 N   0  0  0  0  0  0  0  0  0  0  0  0
   50.7440   30.4960   32.3480 C   0  0  0  0  0  0  0  0  0  0  0  0
   50.7170   30.8660   31.1350 O   0  0  0  0  0  0  0  0  0  0  0  0
   51.5600   29.6830   33.3260 C   0  0  0  0  0  3  0  0  0  0  0  0
   52.6330   29.9170   33.2110 H   0  0  0  0  0  0  0  0  0  0  0  0
   50.9700   30.5330   34.4300 C   0  0  2  0  0  3  0  0  0  0  0  0
   50.2090   29.6240   35.8020 S   0  0  0  0  0  0  0  0  0  0  0  0
   48.5830   29.0940   35.1460 C   0  0  0  0  0  3  0  0  0  0  0  0
   48.0220   28.4680   35.8170 H   0  0  0  0  0  0  0  0  0  0  0  0
   47.9410   32.2940   33.2930 C   0  0  0  0  0  0  0  0  0  0  0  0
   48.5670   33.2500   32.7070 O   0  0  0  0  0  0  0  0  0  0  0  0
   47.0570   33.2510   32.8950 O   0  0  0  0  0  0  0  0  0  0  0  0
   46.3720   33.6140   33.5790 H   0  0  0  0  0  0  0  0  0  0  0  0
  1  4  1  6  0  0  0
  1  2  1  0  0  0  0
  1 11  1  0  0  0  0
  2  5  1  0  0  0  0
  3  1  1  0  0  0  0
  3  2  1  0  0  0  0
  3  7  1  1  0  0  0
  6  2  1  0  0  0  0
  8 15  1  0  0  0  0
  9 13  1  0  0  0  0
  9  8  2  0  0  0  0
 10 11  2  0  0  0  0
 10  9  1  0  0  0  0
 11 12  1  0  0  0  0
 12  8  1  0  0  0  0
 14 10  1  0  0  0  0
 15 16  1  0  0  0  0
 16 18  1  0  0  0  0
 17 16  2  0  0  0  0
 18 23  1  0  0  0  0
 19 18  2  0  0  0  0
 19 20  1  0  0  0  0
 20 25  1  0  0  0  0
 20 21  2  0  0  0  0
 22 21  1  0  0  0  0
 22 26  1  0  0  0  0
 23 22  2  0  0  0  0
 24 19  1  0  0  0  0
 27  3  1  0  0  0  0
 28 27  1  0  0  0  0
 28 37  1  0  0  0  0
 29 28  2  0  0  0  0
 30 29  1  0  0  0  0
 30 35  1  0  0  0  0
 31 33  1  0  0  0  0
 31 30  1  0  0  0  0
 32 31  2  0  0  0  0
 34 33  1  0  0  0  0
 35 33  1  6  0  0  0
 35 36  1  0  0  0  0
 37 36  1  0  0  0  0
 37 38  1  0  0  0  0
 39 29  1  0  0  0  0
 40 39  2  0  0  0  0
 41 39  1  0  0  0  0
 41 42  1  0  0  0  0
M  END
>  <minimizedAffinity>
-5.96839476

>  <minimizedRMSD>
1.65913332

$$$$
