
 OpenBabel03242523373D

 26 28  0  0  1  0  0  0  0  0999 V2000
   46.2150   31.3510   45.8760 C   0  0  0  0  0  0  0  0  0  0  0  0
   47.0170   30.6140   46.5880 C   0  0  0  0  0  0  0  0  0  0  0  0
   47.2470   29.2520   46.2960 N   0  0  0  0  0  0  0  0  0  0  0  0
   47.5190   27.9290   46.7090 C   0  0  0  0  0  0  0  0  0  0  0  0
   47.8350   27.3220   47.7890 O   0  0  0  0  0  0  0  0  0  0  0  0
   47.3160   27.3400   45.3820 C   0  0  0  0  0  3  0  0  0  0  0  0
   46.3730   26.7570   45.3370 H   0  0  0  0  0  0  0  0  0  0  0  0
   47.2410   28.7570   44.9350 C   0  0  1  0  0  3  0  0  0  0  0  0
   45.5870   29.1970   44.2750 S   0  0  0  0  0  0  0  0  0  0  0  0
   45.4430   30.9270   44.7020 C   0  0  0  0  0  3  0  0  0  0  0  0
   45.8050   31.5290   43.8230 H   0  0  0  0  0  0  0  0  0  0  0  0
   47.7410   31.1310   47.7420 C   0  0  0  0  0  0  0  0  0  0  0  0
   48.7930   30.6590   48.2420 O   0  0  0  0  0  0  0  0  0  0  0  0
   47.8370   32.0810   48.7400 O   0  0  0  0  0  0  0  0  0  0  0  0
   47.2370   32.0590   49.5760 H   0  0  0  0  0  0  0  0  0  0  0  0
   45.9730   32.7710   46.1740 C   0  0  0  0  0  2  0  0  0  0  0  0
   45.2670   35.1470   43.3580 C   0  0  0  0  0  0  0  0  0  0  0  0
   46.5150   35.0940   42.6690 C   0  0  0  0  0  0  0  0  0  0  0  0
   47.5160   34.2620   43.1970 C   0  0  0  0  0  0  0  0  0  0  0  0
   47.2410   33.5630   44.3190 N   0  0  0  0  0  0  0  0  0  0  0  0
   46.0410   33.6370   44.9490 C   0  0  0  0  0  0  0  0  0  0  0  0
   45.0710   34.4230   44.4660 N   0  0  0  0  0  0  0  0  0  0  0  0
   44.5000   35.7750   42.9680 H   0  0  0  0  0  0  0  0  0  0  0  0
   46.6600   35.6800   41.7810 H   0  0  0  0  0  0  0  0  0  0  0  0
   49.0920   34.1600   42.3760 S   0  0  0  0  0  0  0  0  0  0  0  0
   49.6150   32.8530   42.3970 H   0  0  0  0  0  0  0  0  0  0  0  0
  1 16  1  0  0  0  0
  1  2  2  0  0  0  0
  2 12  1  0  0  0  0
  3  2  1  0  0  0  0
  3  4  1  0  0  0  0
  4  5  2  0  0  0  0
  6  4  1  0  0  0  0
  7  6  1  0  0  0  0
  8  9  1  1  0  0  0
  8  6  1  0  0  0  0
  8  3  1  0  0  0  0
  9 10  1  0  0  0  0
 10  1  1  0  0  0  0
 11 10  1  0  0  0  0
 12 13  2  0  0  0  0
 12 14  1  0  0  0  0
 14 15  1  0  0  0  0
 17 22  1  0  0  0  0
 18 19  1  0  0  0  0
 18 17  2  0  0  0  0
 19 20  2  0  0  0  0
 20 21  1  0  0  0  0
 21 16  1  0  0  0  0
 22 21  2  0  0  0  0
 23 17  1  0  0  0  0
 24 18  1  0  0  0  0
 25 26  1  0  0  0  0
 25 19  1  0  0  0  0
M  END
>  <minimizedAffinity>
-3.91559839

>  <minimizedRMSD>
1.75002897

$$$$
