
 OpenBabel03242520013D

 37 40  0  0  1  0  0  0  0  0999 V2000
   44.8160   33.0260   41.1450 Br  0  0  0  0  0  0  0  0  0  0  0  0
   46.4370   34.0060   40.9790 C   0  0  0  0  0  0  0  0  0  0  0  0
   46.9500   34.7630   42.0170 C   0  0  0  0  0  0  0  0  0  0  0  0
   48.1360   35.4520   41.8020 C   0  0  0  0  0  0  0  0  0  0  0  0
   48.8100   35.4020   40.5970 C   0  0  0  0  0  0  0  0  0  0  0  0
   48.3000   34.6450   39.5580 C   0  0  0  0  0  0  0  0  0  0  0  0
   47.1140   33.9640   39.7900 C   0  0  0  0  0  0  0  0  0  0  0  0
   48.5140   36.0280   42.6110 H   0  0  0  0  0  0  0  0  0  0  0  0
   49.7330   35.9820   40.5360 H   0  0  0  0  0  0  0  0  0  0  0  0
   48.8430   34.6170   38.6140 H   0  0  0  0  0  0  0  0  0  0  0  0
   44.5530   35.6820   44.7940 C   0  0  0  0  0  0  0  0  0  0  0  0
   45.2430   35.7050   43.5720 C   0  0  0  0  0  0  0  0  0  0  0  0
   46.2110   34.7780   43.2670 C   0  0  0  0  0  0  0  0  0  0  0  0
   46.4370   33.8430   44.2490 N   0  0  0  0  0  0  0  0  0  0  0  0
   45.7750   33.8290   45.4110 C   0  0  0  0  0  0  0  0  0  0  0  0
   44.8460   34.7300   45.6850 N   0  0  0  0  0  0  0  0  0  0  0  0
   43.7940   36.4050   45.0380 H   0  0  0  0  0  0  0  0  0  0  0  0
   45.0030   36.4670   42.8670 H   0  0  0  0  0  0  0  0  0  0  0  0
   46.1210   33.0050   46.0260 H   0  0  0  0  0  0  0  0  0  0  0  0
   46.6150   33.1600   38.6960 C   0  0  1  0  0  3  0  0  0  0  0  0
   45.4160   33.3440   38.2660 O   0  0  0  0  0  1  0  0  0  0  0  0
   47.0470   29.4140   34.8370 C   0  0  0  0  0  0  0  0  0  0  0  0
   47.4070   30.6620   34.7710 C   0  0  0  0  0  0  0  0  0  0  0  0
   47.3710   31.5150   35.8810 N   0  0  0  0  0  0  0  0  0  0  0  0
   47.9460   32.5640   36.6730 C   0  0  0  0  0  0  0  0  0  0  0  0
   48.7530   33.5110   36.3860 O   0  0  0  0  0  0  0  0  0  0  0  0
   47.2250   32.0750   37.8790 C   0  0  2  0  0  3  0  0  0  0  0  0
   46.2800   31.4690   36.8370 C   0  0  2  0  0  3  0  0  0  0  0  0
   45.9120   29.7530   37.3190 S   0  0  0  0  0  0  0  0  0  0  0  0
   46.5620   28.6990   36.0240 C   0  0  0  0  0  3  0  0  0  0  0  0
   45.7000   28.0570   35.6760 H   0  0  0  0  0  0  0  0  0  0  0  0
   47.1450   28.6540   33.5660 C   0  0  0  0  0  2  0  0  0  0  0  0
   46.7980   29.2810   32.7020 H   0  0  0  0  0  0  0  0  0  0  0  0
   47.8590   31.1580   33.4780 C   0  0  0  0  0  0  0  0  0  0  0  0
   47.8020   32.3850   33.1350 O   0  0  0  0  0  0  0  0  0  0  0  0
   48.3360   31.4100   32.2210 O   0  0  0  0  0  0  0  0  0  0  0  0
   48.7450   30.6920   31.6120 H   0  0  0  0  0  0  0  0  0  0  0  0
  2  1  1  0  0  0  0
  2  3  1  0  0  0  0
  3 13  1  0  0  0  0
  4  3  2  0  0  0  0
  4  8  1  0  0  0  0
  5  4  1  0  0  0  0
  6  7  1  0  0  0  0
  6  5  2  0  0  0  0
  7  2  2  0  0  0  0
  9  5  1  0  0  0  0
 10  6  1  0  0  0  0
 11 17  1  0  0  0  0
 11 16  1  0  0  0  0
 12 11  2  0  0  0  0
 13 12  1  0  0  0  0
 13 14  2  0  0  0  0
 14 15  1  0  0  0  0
 15 16  2  0  0  0  0
 15 19  1  0  0  0  0
 18 12  1  0  0  0  0
 20 21  1  6  0  0  0
 20  7  1  0  0  0  0
 22 30  1  0  0  0  0
 23 22  2  0  0  0  0
 23 24  1  0  0  0  0
 24 25  1  0  0  0  0
 24 28  1  0  0  0  0
 25 27  1  0  0  0  0
 26 25  2  0  0  0  0
 27 20  1  1  0  0  0
 28 29  1  1  0  0  0
 28 27  1  0  0  0  0
 30 29  1  0  0  0  0
 31 30  1  0  0  0  0
 32 22  1  0  0  0  0
 33 32  1  0  0  0  0
 34 23  1  0  0  0  0
 35 34  2  0  0  0  0
 36 34  1  0  0  0  0
 37 36  1  0  0  0  0
M  END
>  <minimizedAffinity>
-6.35292006

>  <minimizedRMSD>
2.86216378

$$$$
