
 OpenBabel03242519543D

 47 50  0  0  1  0  0  0  0  0999 V2000
   47.3090   34.0490   42.6940 C   0  0  2  0  0  0  0  0  0  0  0  0
   48.6690   34.6080   42.8670 C   0  0  0  0  0  0  0  0  0  0  0  0
   48.9720   35.6980   41.8950 C   0  0  0  0  0  0  0  0  0  0  0  0
   48.7620   35.3010   40.4580 C   0  0  0  0  0  0  0  0  0  0  0  0
   47.6010   34.3830   40.2360 C   0  0  2  0  0  0  0  0  0  0  0  0
   46.6440   34.4060   41.4110 C   0  0  0  0  0  0  0  0  0  0  0  0
   47.4460   32.9200   42.7150 H   0  0  0  0  0  0  0  0  0  0  0  0
   49.4870   33.8610   42.8320 H   0  0  0  0  0  0  0  0  0  0  0  0
   48.7210   35.0600   43.8850 H   0  0  0  0  0  0  0  0  0  0  0  0
   50.0690   35.9280   42.0090 H   0  0  0  0  0  0  0  0  0  0  0  0
   48.4520   36.6280   42.1790 H   0  0  0  0  0  0  0  0  0  0  0  0
   48.6590   36.2630   39.8770 H   0  0  0  0  0  0  0  0  0  0  0  0
   49.7080   34.8510   40.0610 H   0  0  0  0  0  0  0  0  0  0  0  0
   47.0380   34.7860   39.3620 H   0  0  0  0  0  0  0  0  0  0  0  0
   46.0910   35.3220   41.3320 H   0  0  0  0  0  0  0  0  0  0  0  0
   45.8880   33.5800   41.2270 H   0  0  0  0  0  0  0  0  0  0  0  0
   46.4020   34.3390   43.8150 C   0  0  0  0  0  0  0  0  0  0  0  0
   45.5410   35.4080   43.5790 C   0  0  0  0  0  0  0  0  0  0  0  0
   44.6110   35.7820   44.5530 C   0  0  0  0  0  0  0  0  0  0  0  0
   44.6180   35.0360   45.7190 N   0  0  0  0  0  0  0  0  0  0  0  0
   45.4700   34.0100   45.9070 C   0  0  0  0  0  0  0  0  0  0  0  0
   46.3470   33.6740   44.9580 N   0  0  0  0  0  0  0  0  0  0  0  0
   45.3670   36.1170   42.7830 H   0  0  0  0  0  0  0  0  0  0  0  0
   43.8730   36.5500   44.5820 H   0  0  0  0  0  0  0  0  0  0  0  0
   45.4360   33.4570   46.8390 H   0  0  0  0  0  0  0  0  0  0  0  0
   48.0860   33.0310   39.9010 C   0  0  0  0  0  0  0  0  0  0  0  0
   48.1810   32.4260   40.8260 H   0  0  0  0  0  0  0  0  0  0  0  0
   49.1410   33.1340   39.5300 H   0  0  0  0  0  0  0  0  0  0  0  0
   47.3130   32.2550   38.9210 C   0  0  0  0  0  0  0  0  0  0  0  0
   48.0150   31.7620   38.2190 H   0  0  0  0  0  0  0  0  0  0  0  0
   46.7600   31.4420   39.4330 H   0  0  0  0  0  0  0  0  0  0  0  0
   47.5160   31.8190   34.2550 C   0  0  0  0  0  0  0  0  0  0  0  0
   46.3400   31.7160   34.8340 C   0  0  0  0  0  0  0  0  0  0  0  0
   46.1190   32.1640   36.1380 N   0  0  0  0  0  0  0  0  0  0  0  0
   45.4760   32.0000   37.3720 C   0  0  0  0  0  0  0  0  0  0  0  0
   44.5180   31.2920   37.8290 O   0  0  0  0  0  0  0  0  0  0  0  0
   46.3220   33.0010   38.0870 C   0  0  2  0  0  3  0  0  0  0  0  0
   46.7530   33.3360   36.6810 C   0  0  1  0  0  3  0  0  0  0  0  0
   48.5220   33.2390   36.3900 S   0  0  0  0  0  0  0  0  0  0  0  0
   48.7560   32.3890   34.8310 C   0  0  0  0  0  3  0  0  0  0  0  0
   49.1050   33.1730   34.0960 H   0  0  0  0  0  0  0  0  0  0  0  0
   47.7180   31.3360   32.8720 C   0  0  0  0  0  2  0  0  0  0  0  0
   46.7760   31.2630   32.2850 H   0  0  0  0  0  0  0  0  0  0  0  0
   45.2390   31.1160   34.0940 C   0  0  0  0  0  0  0  0  0  0  0  0
   44.0420   31.1580   34.4740 O   0  0  0  0  0  0  0  0  0  0  0  0
   44.4510   30.4700   33.1870 O   0  0  0  0  0  0  0  0  0  0  0  0
   44.8220   29.6880   32.6620 H   0  0  0  0  0  0  0  0  0  0  0  0
  1  7  1  6  0  0  0
  1  2  1  0  0  0  0
  1 17  1  0  0  0  0
  2  9  1  0  0  0  0
  3 10  1  0  0  0  0
  3 11  1  0  0  0  0
  3  2  1  0  0  0  0
  4  3  1  0  0  0  0
  5 14  1  6  0  0  0
  5  4  1  0  0  0  0
  5  6  1  0  0  0  0
  6  1  1  0  0  0  0
  8  2  1  0  0  0  0
 12  4  1  0  0  0  0
 13  4  1  0  0  0  0
 15  6  1  0  0  0  0
 16  6  1  0  0  0  0
 17 22  1  0  0  0  0
 18 17  2  0  0  0  0
 18 19  1  0  0  0  0
 19 24  1  0  0  0  0
 19 20  2  0  0  0  0
 20 21  1  0  0  0  0
 21 25  1  0  0  0  0
 22 21  2  0  0  0  0
 23 18  1  0  0  0  0
 26  5  1  0  0  0  0
 26 27  1  0  0  0  0
 28 26  1  0  0  0  0
 29 31  1  0  0  0  0
 29 26  1  0  0  0  0
 30 29  1  0  0  0  0
 32 40  1  0  0  0  0
 32 33  2  0  0  0  0
 33 34  1  0  0  0  0
 34 38  1  0  0  0  0
 34 35  1  0  0  0  0
 35 36  2  0  0  0  0
 35 37  1  0  0  0  0
 37 29  1  1  0  0  0
 38 39  1  1  0  0  0
 38 37  1  0  0  0  0
 40 39  1  0  0  0  0
 41 40  1  0  0  0  0
 42 32  1  0  0  0  0
 43 42  1  0  0  0  0
 44 45  2  0  0  0  0
 44 33  1  0  0  0  0
 46 44  1  0  0  0  0
 47 46  1  0  0  0  0
M  END
>  <minimizedAffinity>
-6.28602886

>  <minimizedRMSD>
1.510589

$$$$
