
 OpenBabel03252507173D

 36 39  0  0  1  0  0  0  0  0999 V2000
   35.9700   24.9510   38.4190 C   0  0  0  0  0  0  0  0  0  0  0  0
   36.5610   25.7310   39.4400 C   0  0  0  0  0  0  0  0  0  0  0  0
   36.9360   25.1050   40.6080 C   0  0  0  0  0  0  0  0  0  0  0  0
   36.7310   23.7740   40.7490 N   0  0  0  0  0  0  0  0  0  0  0  0
   36.1580   23.0310   39.7520 C   0  0  0  0  0  0  0  0  0  0  0  0
   35.7970   23.6280   38.6300 N   0  0  0  0  0  0  0  0  0  0  0  0
   35.6620   25.4070   37.4870 H   0  0  0  0  0  0  0  0  0  0  0  0
   36.0170   21.9720   39.9140 H   0  0  0  0  0  0  0  0  0  0  0  0
   37.5450   25.9040   41.6630 C   0  0  0  0  0  0  0  0  0  0  0  0
   36.7570   26.5520   42.5820 C   0  0  0  0  0  0  0  0  0  0  0  0
   37.3670   27.2980   43.5660 C   0  0  0  0  0  0  0  0  0  0  0  0
   38.7420   27.4320   43.6800 C   0  0  0  0  0  0  0  0  0  0  0  0
   39.4720   26.7570   42.7290 C   0  0  0  0  0  0  0  0  0  0  0  0
   38.8660   26.0280   41.7670 N   0  0  0  0  0  0  0  0  0  0  0  0
   35.6990   26.4860   42.5430 H   0  0  0  0  0  0  0  0  0  0  0  0
   36.7450   27.8240   44.3080 H   0  0  0  0  0  0  0  0  0  0  0  0
   39.2400   28.0030   44.4320 H   0  0  0  0  0  0  0  0  0  0  0  0
   40.5480   26.8080   42.7460 H   0  0  0  0  0  0  0  0  0  0  0  0
   36.7510   27.1360   39.2300 C   0  0  0  0  0  0  0  0  0  0  0  0
   35.7120   27.8510   39.1330 O   0  0  0  0  0  0  0  0  0  0  0  0
   37.6300   31.9610   39.6090 C   0  0  0  0  0  0  0  0  0  0  0  0
   38.3100   31.2910   38.7110 C   0  0  0  0  0  0  0  0  0  0  0  0
   38.2730   29.8710   38.6710 N   0  0  0  0  0  0  0  0  0  0  0  0
   38.2830   28.6500   37.9400 C   0  0  0  0  0  0  0  0  0  0  0  0
   38.4260   28.3260   36.7210 O   0  0  0  0  0  0  0  0  0  0  0  0
   38.0600   27.8140   39.1190 C   0  0  1  0  0  3  0  0  0  0  0  0
   38.1770   29.0720   39.9030 C   0  0  2  0  0  3  0  0  0  0  0  0
   36.7200   29.6290   40.7690 S   0  0  0  0  0  0  0  0  0  0  0  0
   36.7740   31.4090   40.6540 C   0  0  0  0  0  3  0  0  0  0  0  0
   35.7200   31.7400   40.4180 H   0  0  0  0  0  0  0  0  0  0  0  0
   37.7440   33.4210   39.5550 C   0  0  0  0  0  2  0  0  0  0  0  0
   38.7910   33.7920   39.7570 H   0  0  0  0  0  0  0  0  0  0  0  0
   39.1310   31.9700   37.7150 C   0  0  0  0  0  0  0  0  0  0  0  0
   40.3170   32.3670   37.8210 O   0  0  0  0  0  0  0  0  0  0  0  0
   38.6850   32.2860   36.4400 O   0  0  0  0  0  0  0  0  0  0  0  0
   38.9380   33.1030   35.9110 H   0  0  0  0  0  0  0  0  0  0  0  0
  1  6  2  0  0  0  0
  1  2  1  0  0  0  0
  2  3  2  0  0  0  0
  3  4  1  0  0  0  0
  3  9  1  0  0  0  0
  5  8  1  0  0  0  0
  5  4  2  0  0  0  0
  6  5  1  0  0  0  0
  7  1  1  0  0  0  0
  9 14  2  0  0  0  0
  9 10  1  0  0  0  0
 10 11  2  0  0  0  0
 11 12  1  0  0  0  0
 11 16  1  0  0  0  0
 12 17  1  0  0  0  0
 13 18  1  0  0  0  0
 13 12  2  0  0  0  0
 14 13  1  0  0  0  0
 15 10  1  0  0  0  0
 19  2  1  0  0  0  0
 20 19  2  0  0  0  0
 21 29  1  0  0  0  0
 22 21  2  0  0  0  0
 23 22  1  0  0  0  0
 23 27  1  0  0  0  0
 24 23  1  0  0  0  0
 24 26  1  0  0  0  0
 25 24  2  0  0  0  0
 26 19  1  6  0  0  0
 26 27  1  0  0  0  0
 27 28  1  6  0  0  0
 29 28  1  0  0  0  0
 30 29  1  0  0  0  0
 31 21  1  0  0  0  0
 31 32  1  0  0  0  0
 33 34  2  0  0  0  0
 33 22  1  0  0  0  0
 35 33  1  0  0  0  0
 36 35  1  0  0  0  0
M  END
>  <minimizedAffinity>
-6.07859802

$$$$

 OpenBabel03252507173D

 36 39  0  0  1  0  0  0  0  0999 V2000
   41.7250   27.5820   43.2700 C   0  0  0  0  0  0  0  0  0  0  0  0
   40.5330   27.1370   42.6520 C   0  0  0  0  0  0  0  0  0  0  0  0
   40.4000   25.7950   42.3760 C   0  0  0  0  0  0  0  0  0  0  0  0
   41.4020   24.9420   42.7000 N   0  0  0  0  0  0  0  0  0  0  0  0
   42.5500   25.3870   43.2990 C   0  0  0  0  0  0  0  0  0  0  0  0
   42.6820   26.6750   43.5650 N   0  0  0  0  0  0  0  0  0  0  0  0
   41.8670   28.6300   43.5030 H   0  0  0  0  0  0  0  0  0  0  0  0
   43.3190   24.6670   43.5380 H   0  0  0  0  0  0  0  0  0  0  0  0
   39.1750   25.3320   41.7390 C   0  0  0  0  0  0  0  0  0  0  0  0
   38.0540   25.0840   42.4950 C   0  0  0  0  0  0  0  0  0  0  0  0
   36.9140   24.6470   41.8600 C   0  0  0  0  0  0  0  0  0  0  0  0
   36.8330   24.4420   40.4910 C   0  0  0  0  0  0  0  0  0  0  0  0
   37.9880   24.7090   39.7950 C   0  0  0  0  0  0  0  0  0  0  0  0
   39.1040   25.1380   40.4250 N   0  0  0  0  0  0  0  0  0  0  0  0
   38.0580   25.2230   43.5460 H   0  0  0  0  0  0  0  0  0  0  0  0
   36.0090   24.4440   42.4550 H   0  0  0  0  0  0  0  0  0  0  0  0
   35.9620   24.1050   39.9750 H   0  0  0  0  0  0  0  0  0  0  0  0
   38.0110   24.5760   38.7260 H   0  0  0  0  0  0  0  0  0  0  0  0
   39.5110   28.0890   42.3340 C   0  0  0  0  0  0  0  0  0  0  0  0
   38.8830   28.6080   43.3020 O   0  0  0  0  0  0  0  0  0  0  0  0
   39.8730   32.6100   40.4290 C   0  0  0  0  0  0  0  0  0  0  0  0
   38.8180   31.9020   40.1080 C   0  0  0  0  0  0  0  0  0  0  0  0
   38.7310   30.5230   40.4420 N   0  0  0  0  0  0  0  0  0  0  0  0
   37.9690   29.3880   40.8380 C   0  0  0  0  0  0  0  0  0  0  0  0
   36.7370   29.1470   41.0270 O   0  0  0  0  0  0  0  0  0  0  0  0
   39.1330   28.5130   40.9690 C   0  0  1  0  0  3  0  0  0  0  0  0
   39.9200   29.6550   40.4330 C   0  0  2  0  0  3  0  0  0  0  0  0
   41.1150   30.4040   41.5260 S   0  0  0  0  0  0  0  0  0  0  0  0
   41.0620   32.1450   41.1360 C   0  0  0  0  0  3  0  0  0  0  0  0
   41.0840   32.6890   42.1260 H   0  0  0  0  0  0  0  0  0  0  0  0
   39.8530   34.0210   40.0340 C   0  0  0  0  0  2  0  0  0  0  0  0
   39.8270   34.1680   38.9140 H   0  0  0  0  0  0  0  0  0  0  0  0
   37.6900   32.4930   39.3980 C   0  0  0  0  0  0  0  0  0  0  0  0
   37.3910   32.3900   38.1840 O   0  0  0  0  0  0  0  0  0  0  0  0
   36.7370   33.2960   40.0070 O   0  0  0  0  0  0  0  0  0  0  0  0
   36.2710   34.0820   39.5870 H   0  0  0  0  0  0  0  0  0  0  0  0
  1  7  1  0  0  0  0
  1  6  1  0  0  0  0
  2  1  2  0  0  0  0
  3  2  1  0  0  0  0
  3  4  2  0  0  0  0
  4  5  1  0  0  0  0
  5  8  1  0  0  0  0
  5  6  2  0  0  0  0
  9  3  1  0  0  0  0
  9 10  1  0  0  0  0
 10 15  1  0  0  0  0
 11 16  1  0  0  0  0
 11 10  2  0  0  0  0
 12 11  1  0  0  0  0
 13 14  1  0  0  0  0
 13 12  2  0  0  0  0
 14  9  2  0  0  0  0
 17 12  1  0  0  0  0
 18 13  1  0  0  0  0
 19  2  1  0  0  0  0
 19 20  2  0  0  0  0
 21 29  1  0  0  0  0
 22 21  2  0  0  0  0
 22 23  1  0  0  0  0
 23 24  1  0  0  0  0
 24 26  1  0  0  0  0
 24 25  2  0  0  0  0
 26 19  1  1  0  0  0
 27 23  1  0  0  0  0
 27 26  1  0  0  0  0
 27 28  1  1  0  0  0
 29 28  1  0  0  0  0
 29 30  1  0  0  0  0
 31 21  1  0  0  0  0
 32 31  1  0  0  0  0
 33 35  1  0  0  0  0
 33 22  1  0  0  0  0
 34 33  2  0  0  0  0
 36 35  1  0  0  0  0
M  END
>  <minimizedAffinity>
-5.77373791

$$$$

 OpenBabel03252507173D

 36 39  0  0  1  0  0  0  0  0999 V2000
   36.8980   31.1330   38.3470 C   0  0  0  0  0  0  0  0  0  0  0  0
   37.0590   29.9520   39.1080 C   0  0  0  0  0  0  0  0  0  0  0  0
   37.4630   30.0690   40.4190 C   0  0  0  0  0  0  0  0  0  0  0  0
   37.6930   31.2980   40.9420 N   0  0  0  0  0  0  0  0  0  0  0  0
   37.5330   32.4320   40.1930 C   0  0  0  0  0  0  0  0  0  0  0  0
   37.1460   32.3240   38.9330 N   0  0  0  0  0  0  0  0  0  0  0  0
   36.5810   31.0820   37.3120 H   0  0  0  0  0  0  0  0  0  0  0  0
   37.7290   33.3880   40.6560 H   0  0  0  0  0  0  0  0  0  0  0  0
   37.6300   28.8570   41.2080 C   0  0  0  0  0  0  0  0  0  0  0  0
   36.6110   28.4110   42.0150 C   0  0  0  0  0  0  0  0  0  0  0  0
   36.8040   27.2610   42.7470 C   0  0  0  0  0  0  0  0  0  0  0  0
   37.9780   26.5240   42.7150 C   0  0  0  0  0  0  0  0  0  0  0  0
   38.9550   27.0240   41.8880 C   0  0  0  0  0  0  0  0  0  0  0  0
   38.7590   28.1530   41.1730 N   0  0  0  0  0  0  0  0  0  0  0  0
   35.6920   28.9350   42.0800 H   0  0  0  0  0  0  0  0  0  0  0  0
   35.9950   26.8940   43.3990 H   0  0  0  0  0  0  0  0  0  0  0  0
   38.1530   25.6300   43.2720 H   0  0  0  0  0  0  0  0  0  0  0  0
   39.8990   26.5110   41.8040 H   0  0  0  0  0  0  0  0  0  0  0  0
   36.7990   28.6830   38.4980 C   0  0  0  0  0  0  0  0  0  0  0  0
   37.7710   28.1020   37.9340 O   0  0  0  0  0  0  0  0  0  0  0  0
   33.0790   29.5070   35.3870 C   0  0  0  0  0  0  0  0  0  0  0  0
   32.7770   29.2600   36.6380 C   0  0  0  0  0  0  0  0  0  0  0  0
   33.7650   28.8100   37.5560 N   0  0  0  0  0  0  0  0  0  0  0  0
   34.3180   28.7800   38.8670 C   0  0  0  0  0  0  0  0  0  0  0  0
   33.9800   29.2370   40.0020 O   0  0  0  0  0  0  0  0  0  0  0  0
   35.4890   27.9970   38.4750 C   0  0  1  0  0  3  0  0  0  0  0  0
   34.8540   27.9150   37.1330 C   0  0  2  0  0  3  0  0  0  0  0  0
   35.6940   28.7260   35.7840 S   0  0  0  0  0  0  0  0  0  0  0  0
   34.3880   29.3750   34.7560 C   0  0  0  0  0  3  0  0  0  0  0  0
   34.7110   30.4160   34.4600 H   0  0  0  0  0  0  0  0  0  0  0  0
   31.9800   29.9640   34.5320 C   0  0  0  0  0  2  0  0  0  0  0  0
   31.1630   29.1940   34.4090 H   0  0  0  0  0  0  0  0  0  0  0  0
   31.4200   29.4350   37.1440 C   0  0  0  0  0  0  0  0  0  0  0  0
   30.9260   30.4340   37.7210 O   0  0  0  0  0  0  0  0  0  0  0  0
   30.4360   28.4630   37.0500 O   0  0  0  0  0  0  0  0  0  0  0  0
   29.7150   28.2830   37.7290 H   0  0  0  0  0  0  0  0  0  0  0  0
  1  6  2  0  0  0  0
  1  2  1  0  0  0  0
  2  3  2  0  0  0  0
  3  4  1  0  0  0  0
  3  9  1  0  0  0  0
  5  8  1  0  0  0  0
  5  4  2  0  0  0  0
  6  5  1  0  0  0  0
  7  1  1  0  0  0  0
  9 10  1  0  0  0  0
 10 15  1  0  0  0  0
 10 11  2  0  0  0  0
 11 16  1  0  0  0  0
 12 11  1  0  0  0  0
 12 17  1  0  0  0  0
 13 12  2  0  0  0  0
 14  9  2  0  0  0  0
 14 13  1  0  0  0  0
 18 13  1  0  0  0  0
 19  2  1  0  0  0  0
 20 19  2  0  0  0  0
 21 22  2  0  0  0  0
 22 33  1  0  0  0  0
 22 23  1  0  0  0  0
 23 24  1  0  0  0  0
 24 25  2  0  0  0  0
 26 19  1  6  0  0  0
 26 24  1  0  0  0  0
 27 28  1  6  0  0  0
 27 23  1  0  0  0  0
 27 26  1  0  0  0  0
 29 21  1  0  0  0  0
 29 28  1  0  0  0  0
 30 29  1  0  0  0  0
 31 21  1  0  0  0  0
 32 31  1  0  0  0  0
 33 34  2  0  0  0  0
 35 33  1  0  0  0  0
 35 36  1  0  0  0  0
M  END
>  <minimizedAffinity>
-5.61264944

$$$$

 OpenBabel03252507173D

 36 39  0  0  1  0  0  0  0  0999 V2000
   41.5040   27.5900   43.6800 C   0  0  0  0  0  0  0  0  0  0  0  0
   40.3250   27.2540   42.9740 C   0  0  0  0  0  0  0  0  0  0  0  0
   40.2780   26.0460   42.3150 C   0  0  0  0  0  0  0  0  0  0  0  0
   41.3500   25.2180   42.3580 N   0  0  0  0  0  0  0  0  0  0  0  0
   42.4840   25.5560   43.0460 C   0  0  0  0  0  0  0  0  0  0  0  0
   42.5330   26.7150   43.6790 N   0  0  0  0  0  0  0  0  0  0  0  0
   41.5790   28.5310   44.2100 H   0  0  0  0  0  0  0  0  0  0  0  0
   43.3110   24.8610   43.0500 H   0  0  0  0  0  0  0  0  0  0  0  0
   39.0670   25.6960   41.5860 C   0  0  0  0  0  0  0  0  0  0  0  0
   38.0800   24.9620   42.1990 C   0  0  0  0  0  0  0  0  0  0  0  0
   36.9490   24.6480   41.4800 C   0  0  0  0  0  0  0  0  0  0  0  0
   36.7490   25.0340   40.1640 C   0  0  0  0  0  0  0  0  0  0  0  0
   37.7740   25.7660   39.6120 C   0  0  0  0  0  0  0  0  0  0  0  0
   38.8810   26.0700   40.3230 N   0  0  0  0  0  0  0  0  0  0  0  0
   38.1790   24.6380   43.2040 H   0  0  0  0  0  0  0  0  0  0  0  0
   36.1510   24.0590   41.9600 H   0  0  0  0  0  0  0  0  0  0  0  0
   35.8820   24.8050   39.5850 H   0  0  0  0  0  0  0  0  0  0  0  0
   37.6990   26.1070   38.5920 H   0  0  0  0  0  0  0  0  0  0  0  0
   39.2260   28.1730   42.9660 C   0  0  0  0  0  0  0  0  0  0  0  0
   38.2240   27.8820   43.6800 O   0  0  0  0  0  0  0  0  0  0  0  0
   36.2670   29.1920   39.1710 C   0  0  0  0  0  0  0  0  0  0  0  0
   37.4980   29.6360   39.1130 C   0  0  0  0  0  0  0  0  0  0  0  0
   38.3560   29.5690   40.2440 N   0  0  0  0  0  0  0  0  0  0  0  0
   39.6490   29.3910   40.8110 C   0  0  0  0  0  0  0  0  0  0  0  0
   40.8250   29.2450   40.3550 O   0  0  0  0  0  0  0  0  0  0  0  0
   39.1710   29.4330   42.1920 C   0  0  1  0  0  3  0  0  0  0  0  0
   37.8390   29.7470   41.6110 C   0  0  2  0  0  3  0  0  0  0  0  0
   36.5470   28.5370   41.8360 S   0  0  0  0  0  0  0  0  0  0  0  0
   35.6020   28.5910   40.3230 C   0  0  0  0  0  3  0  0  0  0  0  0
   35.3880   27.5160   40.0490 H   0  0  0  0  0  0  0  0  0  0  0  0
   35.4740   29.3140   37.9440 C   0  0  0  0  0  2  0  0  0  0  0  0
   35.3020   30.3860   37.6310 H   0  0  0  0  0  0  0  0  0  0  0  0
   38.0430   30.2170   37.8910 C   0  0  0  0  0  0  0  0  0  0  0  0
   37.9720   31.4050   37.4930 O   0  0  0  0  0  0  0  0  0  0  0  0
   38.7560   29.4910   36.9490 O   0  0  0  0  0  0  0  0  0  0  0  0
   38.7370   29.6340   35.9530 H   0  0  0  0  0  0  0  0  0  0  0  0
  1  7  1  0  0  0  0
  2  1  2  0  0  0  0
  3  4  2  0  0  0  0
  3  2  1  0  0  0  0
  4  5  1  0  0  0  0
  5  8  1  0  0  0  0
  5  6  2  0  0  0  0
  6  1  1  0  0  0  0
  9 10  1  0  0  0  0
  9  3  1  0  0  0  0
 10 15  1  0  0  0  0
 11 16  1  0  0  0  0
 11 10  2  0  0  0  0
 12 11  1  0  0  0  0
 13 12  2  0  0  0  0
 13 14  1  0  0  0  0
 14  9  2  0  0  0  0
 17 12  1  0  0  0  0
 18 13  1  0  0  0  0
 19  2  1  0  0  0  0
 19 20  2  0  0  0  0
 21 29  1  0  0  0  0
 22 21  2  0  0  0  0
 22 23  1  0  0  0  0
 23 24  1  0  0  0  0
 23 27  1  0  0  0  0
 24 26  1  0  0  0  0
 25 24  2  0  0  0  0
 26 19  1  6  0  0  0
 27 28  1  1  0  0  0
 27 26  1  0  0  0  0
 29 28  1  0  0  0  0
 30 29  1  0  0  0  0
 31 21  1  0  0  0  0
 32 31  1  0  0  0  0
 33 22  1  0  0  0  0
 34 33  2  0  0  0  0
 35 33  1  0  0  0  0
 36 35  1  0  0  0  0
M  END
>  <minimizedAffinity>
-5.60225153

$$$$

 OpenBabel03252507173D

 36 39  0  0  1  0  0  0  0  0999 V2000
   39.2190   32.2080   40.9320 C   0  0  0  0  0  0  0  0  0  0  0  0
   38.5400   31.2580   40.1340 C   0  0  0  0  0  0  0  0  0  0  0  0
   37.5360   31.6990   39.3020 C   0  0  0  0  0  0  0  0  0  0  0  0
   37.2260   33.0180   39.2690 N   0  0  0  0  0  0  0  0  0  0  0  0
   37.8920   33.9260   40.0470 C   0  0  0  0  0  0  0  0  0  0  0  0
   38.8560   33.5060   40.8470 N   0  0  0  0  0  0  0  0  0  0  0  0
   40.0140   31.8990   41.5990 H   0  0  0  0  0  0  0  0  0  0  0  0
   37.6070   34.9670   39.9830 H   0  0  0  0  0  0  0  0  0  0  0  0
   36.8340   30.7250   38.4780 C   0  0  0  0  0  0  0  0  0  0  0  0
   35.7720   30.0220   38.9930 C   0  0  0  0  0  0  0  0  0  0  0  0
   35.1320   29.1090   38.1850 C   0  0  0  0  0  0  0  0  0  0  0  0
   35.5030   28.8590   36.8730 C   0  0  0  0  0  0  0  0  0  0  0  0
   36.5710   29.5960   36.4210 C   0  0  0  0  0  0  0  0  0  0  0  0
   37.1950   30.4900   37.2190 N   0  0  0  0  0  0  0  0  0  0  0  0
   35.4450   30.1720   39.9900 H   0  0  0  0  0  0  0  0  0  0  0  0
   34.2800   28.5380   38.5860 H   0  0  0  0  0  0  0  0  0  0  0  0
   35.0230   28.1580   36.2260 H   0  0  0  0  0  0  0  0  0  0  0  0
   36.9240   29.4630   35.4110 H   0  0  0  0  0  0  0  0  0  0  0  0
   38.9150   29.8780   40.2150 C   0  0  0  0  0  0  0  0  0  0  0  0
   39.7910   29.4670   39.4000 O   0  0  0  0  0  0  0  0  0  0  0  0
   41.3690   26.3140   42.5550 C   0  0  0  0  0  0  0  0  0  0  0  0
   40.1590   26.0390   42.1350 C   0  0  0  0  0  0  0  0  0  0  0  0
   39.3050   27.0600   41.6360 N   0  0  0  0  0  0  0  0  0  0  0  0
   38.2930   27.5020   40.7400 C   0  0  0  0  0  0  0  0  0  0  0  0
   37.5590   26.9530   39.8620 O   0  0  0  0  0  0  0  0  0  0  0  0
   38.3620   28.8970   41.1740 C   0  0  1  0  0  3  0  0  0  0  0  0
   39.3260   28.4200   42.2000 C   0  0  2  0  0  3  0  0  0  0  0  0
   41.0060   29.0050   42.0740 S   0  0  0  0  0  0  0  0  0  0  0  0
   42.0120   27.6230   42.5860 C   0  0  0  0  0  3  0  0  0  0  0  0
   42.8750   27.5770   41.8590 H   0  0  0  0  0  0  0  0  0  0  0  0
   42.1590   25.1810   43.0490 C   0  0  0  0  0  2  0  0  0  0  0  0
   41.7150   24.6980   43.9680 H   0  0  0  0  0  0  0  0  0  0  0  0
   39.6350   24.6770   42.1570 C   0  0  0  0  0  0  0  0  0  0  0  0
   39.3440   23.9370   41.1860 O   0  0  0  0  0  0  0  0  0  0  0  0
   39.3730   23.9760   43.3250 O   0  0  0  0  0  0  0  0  0  0  0  0
   38.6240   23.3190   43.4640 H   0  0  0  0  0  0  0  0  0  0  0  0
  1  7  1  0  0  0  0
  2 19  1  0  0  0  0
  2  1  2  0  0  0  0
  3  2  1  0  0  0  0
  4  3  2  0  0  0  0
  4  5  1  0  0  0  0
  5  6  2  0  0  0  0
  6  1  1  0  0  0  0
  8  5  1  0  0  0  0
  9 10  1  0  0  0  0
  9  3  1  0  0  0  0
 10 15  1  0  0  0  0
 11 16  1  0  0  0  0
 11 10  2  0  0  0  0
 12 11  1  0  0  0  0
 13 12  2  0  0  0  0
 13 14  1  0  0  0  0
 14  9  2  0  0  0  0
 17 12  1  0  0  0  0
 18 13  1  0  0  0  0
 20 19  2  0  0  0  0
 21 29  1  0  0  0  0
 21 31  1  0  0  0  0
 22 33  1  0  0  0  0
 22 21  2  0  0  0  0
 23 22  1  0  0  0  0
 23 27  1  0  0  0  0
 24 26  1  0  0  0  0
 24 23  1  0  0  0  0
 25 24  2  0  0  0  0
 26 19  1  6  0  0  0
 26 27  1  0  0  0  0
 27 28  1  6  0  0  0
 28 29  1  0  0  0  0
 30 29  1  0  0  0  0
 31 32  1  0  0  0  0
 33 35  1  0  0  0  0
 34 33  2  0  0  0  0
 35 36  1  0  0  0  0
M  END
>  <minimizedAffinity>
-5.52872801

$$$$

 OpenBabel03252507173D

 36 39  0  0  1  0  0  0  0  0999 V2000
   42.6110   29.7200   38.2210 C   0  0  0  0  0  0  0  0  0  0  0  0
   41.3860   30.2710   38.6650 C   0  0  0  0  0  0  0  0  0  0  0  0
   40.9930   31.4880   38.1560 C   0  0  0  0  0  0  0  0  0  0  0  0
   41.7790   32.1210   37.2520 N   0  0  0  0  0  0  0  0  0  0  0  0
   42.9610   31.5750   36.8300 C   0  0  0  0  0  0  0  0  0  0  0  0
   43.3430   30.4070   37.3180 N   0  0  0  0  0  0  0  0  0  0  0  0
   42.9540   28.7650   38.5980 H   0  0  0  0  0  0  0  0  0  0  0  0
   43.5520   32.1200   36.1080 H   0  0  0  0  0  0  0  0  0  0  0  0
   39.7330   32.0600   38.6100 C   0  0  0  0  0  0  0  0  0  0  0  0
   38.5590   31.7390   37.9730 C   0  0  0  0  0  0  0  0  0  0  0  0
   37.3860   32.2980   38.4290 C   0  0  0  0  0  0  0  0  0  0  0  0
   37.3250   33.1740   39.5020 C   0  0  0  0  0  0  0  0  0  0  0  0
   38.5340   33.4520   40.0940 C   0  0  0  0  0  0  0  0  0  0  0  0
   39.6810   32.9000   39.6410 N   0  0  0  0  0  0  0  0  0  0  0  0
   38.5450   31.0750   37.1460 H   0  0  0  0  0  0  0  0  0  0  0  0
   36.4380   32.0490   37.9260 H   0  0  0  0  0  0  0  0  0  0  0  0
   36.4300   33.6200   39.8750 H   0  0  0  0  0  0  0  0  0  0  0  0
   38.5750   34.1230   40.9350 H   0  0  0  0  0  0  0  0  0  0  0  0
   40.6000   29.5520   39.6230 C   0  0  0  0  0  0  0  0  0  0  0  0
   40.8050   29.8040   40.8460 O   0  0  0  0  0  0  0  0  0  0  0  0
   37.1680   27.7410   42.6460 C   0  0  0  0  0  0  0  0  0  0  0  0
   37.7270   26.9110   41.8010 C   0  0  0  0  0  0  0  0  0  0  0  0
   38.5710   27.3830   40.7590 N   0  0  0  0  0  0  0  0  0  0  0  0
   39.7050   27.2240   39.9140 C   0  0  0  0  0  0  0  0  0  0  0  0
   40.5630   26.3100   39.7120 O   0  0  0  0  0  0  0  0  0  0  0  0
   39.5690   28.5430   39.2980 C   0  0  1  0  0  3  0  0  0  0  0  0
   38.3120   28.6640   40.0830 C   0  0  2  0  0  3  0  0  0  0  0  0
   38.2610   29.9170   41.3510 S   0  0  0  0  0  0  0  0  0  0  0  0
   37.3010   29.1940   42.6700 C   0  0  0  0  0  3  0  0  0  0  0  0
   37.8390   29.4550   43.6290 H   0  0  0  0  0  0  0  0  0  0  0  0
   36.3160   27.1420   43.6790 C   0  0  0  0  0  2  0  0  0  0  0  0
   35.4080   26.6190   43.2570 H   0  0  0  0  0  0  0  0  0  0  0  0
   37.5110   25.4710   41.8900 C   0  0  0  0  0  0  0  0  0  0  0  0
   36.5970   24.7860   41.3700 O   0  0  0  0  0  0  0  0  0  0  0  0
   38.3370   24.6150   42.6030 O   0  0  0  0  0  0  0  0  0  0  0  0
   38.0440   23.7940   43.1060 H   0  0  0  0  0  0  0  0  0  0  0  0
  1  7  1  0  0  0  0
  1  2  1  0  0  0  0
  2 19  1  0  0  0  0
  3  9  1  0  0  0  0
  3  2  2  0  0  0  0
  4  3  1  0  0  0  0
  5  4  2  0  0  0  0
  5  6  1  0  0  0  0
  6  1  2  0  0  0  0
  8  5  1  0  0  0  0
  9 14  1  0  0  0  0
 10 11  1  0  0  0  0
 10  9  2  0  0  0  0
 11 12  2  0  0  0  0
 12 17  1  0  0  0  0
 12 13  1  0  0  0  0
 13 18  1  0  0  0  0
 14 13  2  0  0  0  0
 15 10  1  0  0  0  0
 16 11  1  0  0  0  0
 19 20  2  0  0  0  0
 21 29  1  0  0  0  0
 21 31  1  0  0  0  0
 22 33  1  0  0  0  0
 22 21  2  0  0  0  0
 23 22  1  0  0  0  0
 24 23  1  0  0  0  0
 25 24  2  0  0  0  0
 26 19  1  1  0  0  0
 26 24  1  0  0  0  0
 26 27  1  0  0  0  0
 27 23  1  0  0  0  0
 27 28  1  1  0  0  0
 28 29  1  0  0  0  0
 29 30  1  0  0  0  0
 32 31  1  0  0  0  0
 33 35  1  0  0  0  0
 34 33  2  0  0  0  0
 35 36  1  0  0  0  0
M  END
>  <minimizedAffinity>
-5.49657202

$$$$

 OpenBabel03252507173D

 36 39  0  0  1  0  0  0  0  0999 V2000
   38.6320   28.4740   42.5080 C   0  0  0  0  0  0  0  0  0  0  0  0
   38.5510   27.3200   41.6950 C   0  0  0  0  0  0  0  0  0  0  0  0
   37.5220   26.4330   41.9190 C   0  0  0  0  0  0  0  0  0  0  0  0
   36.6230   26.6840   42.9010 N   0  0  0  0  0  0  0  0  0  0  0  0
   36.7140   27.8060   43.6800 C   0  0  0  0  0  0  0  0  0  0  0  0
   37.7010   28.6600   43.4680 N   0  0  0  0  0  0  0  0  0  0  0  0
   39.4260   29.1960   42.3620 H   0  0  0  0  0  0  0  0  0  0  0  0
   35.9720   27.9610   44.4500 H   0  0  0  0  0  0  0  0  0  0  0  0
   37.4330   25.2420   41.0850 C   0  0  0  0  0  0  0  0  0  0  0  0
   38.0060   24.0640   41.4980 C   0  0  0  0  0  0  0  0  0  0  0  0
   37.9030   22.9590   40.6850 C   0  0  0  0  0  0  0  0  0  0  0  0
   37.2480   22.9690   39.4620 C   0  0  0  0  0  0  0  0  0  0  0  0
   36.6980   24.1780   39.1090 C   0  0  0  0  0  0  0  0  0  0  0  0
   36.8030   25.2590   39.9130 N   0  0  0  0  0  0  0  0  0  0  0  0
   38.5200   23.9980   42.4240 H   0  0  0  0  0  0  0  0  0  0  0  0
   38.3590   22.0090   41.0050 H   0  0  0  0  0  0  0  0  0  0  0  0
   37.1540   22.1270   38.8130 H   0  0  0  0  0  0  0  0  0  0  0  0
   36.1710   24.2730   38.1740 H   0  0  0  0  0  0  0  0  0  0  0  0
   39.5320   27.1110   40.6730 C   0  0  0  0  0  0  0  0  0  0  0  0
   40.5390   26.4070   40.9730 O   0  0  0  0  0  0  0  0  0  0  0  0
   40.5340   31.7090   39.2390 C   0  0  0  0  0  0  0  0  0  0  0  0
   39.5260   31.1020   38.6630 C   0  0  0  0  0  0  0  0  0  0  0  0
   39.2930   29.7140   38.8630 N   0  0  0  0  0  0  0  0  0  0  0  0
   38.4020   28.6150   39.0100 C   0  0  0  0  0  0  0  0  0  0  0  0
   37.1440   28.4530   38.9350 O   0  0  0  0  0  0  0  0  0  0  0  0
   39.4620   27.6500   39.2970 C   0  0  1  0  0  3  0  0  0  0  0  0
   40.4060   28.7650   39.0190 C   0  0  2  0  0  3  0  0  0  0  0  0
   41.3990   29.3510   40.3800 S   0  0  0  0  0  0  0  0  0  0  0  0
   41.5280   31.1120   40.1260 C   0  0  0  0  0  3  0  0  0  0  0  0
   41.3820   31.5870   41.1420 H   0  0  0  0  0  0  0  0  0  0  0  0
   40.6760   33.1410   38.9610 C   0  0  0  0  0  2  0  0  0  0  0  0
   40.8840   33.3630   37.8730 H   0  0  0  0  0  0  0  0  0  0  0  0
   38.5990   31.8200   37.7950 C   0  0  0  0  0  0  0  0  0  0  0  0
   37.4320   32.2060   38.0490 O   0  0  0  0  0  0  0  0  0  0  0  0
   38.9020   32.1970   36.4950 O   0  0  0  0  0  0  0  0  0  0  0  0
   38.2580   32.2280   35.7230 H   0  0  0  0  0  0  0  0  0  0  0  0
  1  6  1  0  0  0  0
  2  3  1  0  0  0  0
  2  1  2  0  0  0  0
  3  4  2  0  0  0  0
  4  5  1  0  0  0  0
  5  8  1  0  0  0  0
  6  5  2  0  0  0  0
  7  1  1  0  0  0  0
  9 10  1  0  0  0  0
  9  3  1  0  0  0  0
 10 15  1  0  0  0  0
 11 16  1  0  0  0  0
 11 10  2  0  0  0  0
 12 11  1  0  0  0  0
 13 12  2  0  0  0  0
 13 14  1  0  0  0  0
 14  9  2  0  0  0  0
 17 12  1  0  0  0  0
 18 13  1  0  0  0  0
 19 20  2  0  0  0  0
 19  2  1  0  0  0  0
 21 29  1  0  0  0  0
 22 23  1  0  0  0  0
 22 21  2  0  0  0  0
 23 24  1  0  0  0  0
 23 27  1  0  0  0  0
 24 26  1  0  0  0  0
 25 24  2  0  0  0  0
 26 19  1  1  0  0  0
 27 26  1  0  0  0  0
 27 28  1  1  0  0  0
 29 28  1  0  0  0  0
 29 30  1  0  0  0  0
 31 21  1  0  0  0  0
 32 31  1  0  0  0  0
 33 34  2  0  0  0  0
 33 22  1  0  0  0  0
 35 33  1  0  0  0  0
 36 35  1  0  0  0  0
M  END
>  <minimizedAffinity>
-5.48470211

$$$$

 OpenBabel03252507173D

 36 39  0  0  1  0  0  0  0  0999 V2000
   35.5370   29.0520   36.4910 C   0  0  0  0  0  0  0  0  0  0  0  0
   36.2150   28.9250   37.7260 C   0  0  0  0  0  0  0  0  0  0  0  0
   35.4640   28.8150   38.8750 C   0  0  0  0  0  0  0  0  0  0  0  0
   34.1120   28.8300   38.7960 N   0  0  0  0  0  0  0  0  0  0  0  0
   33.4700   28.9530   37.5930 C   0  0  0  0  0  0  0  0  0  0  0  0
   34.1870   29.0600   36.4870 N   0  0  0  0  0  0  0  0  0  0  0  0
   36.0920   29.1410   35.5650 H   0  0  0  0  0  0  0  0  0  0  0  0
   32.3900   28.9590   37.5830 H   0  0  0  0  0  0  0  0  0  0  0  0
   36.1560   28.6840   40.1500 C   0  0  0  0  0  0  0  0  0  0  0  0
   36.4760   27.4400   40.6380 C   0  0  0  0  0  0  0  0  0  0  0  0
   37.1300   27.3540   41.8470 C   0  0  0  0  0  0  0  0  0  0  0  0
   37.4860   28.4600   42.6030 C   0  0  0  0  0  0  0  0  0  0  0  0
   37.1380   29.6730   42.0570 C   0  0  0  0  0  0  0  0  0  0  0  0
   36.4960   29.7500   40.8710 N   0  0  0  0  0  0  0  0  0  0  0  0
   36.2270   26.5590   40.1030 H   0  0  0  0  0  0  0  0  0  0  0  0
   37.3900   26.3620   42.2490 H   0  0  0  0  0  0  0  0  0  0  0  0
   37.9930   28.4200   43.5410 H   0  0  0  0  0  0  0  0  0  0  0  0
   37.3780   30.5830   42.5800 H   0  0  0  0  0  0  0  0  0  0  0  0
   37.6470   28.9160   37.7430 C   0  0  0  0  0  0  0  0  0  0  0  0
   38.2160   27.7940   37.8690 O   0  0  0  0  0  0  0  0  0  0  0  0
   40.5890   30.8000   41.2060 C   0  0  0  0  0  0  0  0  0  0  0  0
   39.9400   31.6430   40.4410 C   0  0  0  0  0  0  0  0  0  0  0  0
   39.2340   31.1960   39.2910 N   0  0  0  0  0  0  0  0  0  0  0  0
   38.1300   31.2910   38.3990 C   0  0  0  0  0  0  0  0  0  0  0  0
   37.1430   32.0780   38.2610 O   0  0  0  0  0  0  0  0  0  0  0  0
   38.5100   30.1110   37.6250 C   0  0  1  0  0  3  0  0  0  0  0  0
   39.7330   30.0800   38.4710 C   0  0  2  0  0  3  0  0  0  0  0  0
   39.9310   28.6840   39.5630 S   0  0  0  0  0  0  0  0  0  0  0  0
   40.6970   29.3560   41.0290 C   0  0  0  0  0  3  0  0  0  0  0  0
   40.1660   28.8810   41.9060 H   0  0  0  0  0  0  0  0  0  0  0  0
   41.2810   31.3740   42.3640 C   0  0  0  0  0  2  0  0  0  0  0  0
   42.1090   32.0880   42.0780 H   0  0  0  0  0  0  0  0  0  0  0  0
   39.9100   33.0710   40.7340 C   0  0  0  0  0  0  0  0  0  0  0  0
   40.7540   33.9480   40.4260 O   0  0  0  0  0  0  0  0  0  0  0  0
   38.8840   33.6900   41.4320 O   0  0  0  0  0  0  0  0  0  0  0  0
   38.9830   34.4650   42.0660 H   0  0  0  0  0  0  0  0  0  0  0  0
  1  2  1  0  0  0  0
  2 19  1  0  0  0  0
  2  3  2  0  0  0  0
  3  9  1  0  0  0  0
  4  3  1  0  0  0  0
  5  4  2  0  0  0  0
  6  1  2  0  0  0  0
  6  5  1  0  0  0  0
  7  1  1  0  0  0  0
  8  5  1  0  0  0  0
  9 10  2  0  0  0  0
  9 14  1  0  0  0  0
 10 11  1  0  0  0  0
 11 16  1  0  0  0  0
 11 12  2  0  0  0  0
 12 17  1  0  0  0  0
 13 18  1  0  0  0  0
 13 12  1  0  0  0  0
 14 13  2  0  0  0  0
 15 10  1  0  0  0  0
 19 20  2  0  0  0  0
 21 31  1  0  0  0  0
 22 33  1  0  0  0  0
 22 21  2  0  0  0  0
 23 22  1  0  0  0  0
 24 23  1  0  0  0  0
 25 24  2  0  0  0  0
 26 19  1  1  0  0  0
 26 24  1  0  0  0  0
 26 27  1  0  0  0  0
 27 23  1  0  0  0  0
 27 28  1  1  0  0  0
 28 29  1  0  0  0  0
 29 21  1  0  0  0  0
 29 30  1  0  0  0  0
 32 31  1  0  0  0  0
 33 35  1  0  0  0  0
 34 33  2  0  0  0  0
 35 36  1  0  0  0  0
M  END
>  <minimizedAffinity>
-5.44354486

$$$$

 OpenBabel03252507173D

 36 39  0  0  1  0  0  0  0  0999 V2000
   36.8210   24.3690   38.1780 C   0  0  0  0  0  0  0  0  0  0  0  0
   37.4410   25.0940   39.2220 C   0  0  0  0  0  0  0  0  0  0  0  0
   37.0820   24.8080   40.5200 C   0  0  0  0  0  0  0  0  0  0  0  0
   36.1560   23.8500   40.7630 N   0  0  0  0  0  0  0  0  0  0  0  0
   35.5640   23.1560   39.7420 C   0  0  0  0  0  0  0  0  0  0  0  0
   35.9050   23.4280   38.4940 N   0  0  0  0  0  0  0  0  0  0  0  0
   37.0760   24.5650   37.1440 H   0  0  0  0  0  0  0  0  0  0  0  0
   34.8310   22.4010   39.9880 H   0  0  0  0  0  0  0  0  0  0  0  0
   37.7180   25.5510   41.5990 C   0  0  0  0  0  0  0  0  0  0  0  0
   37.1380   26.6990   42.0820 C   0  0  0  0  0  0  0  0  0  0  0  0
   37.7660   27.3770   43.1030 C   0  0  0  0  0  0  0  0  0  0  0  0
   38.9600   26.9620   43.6730 C   0  0  0  0  0  0  0  0  0  0  0  0
   39.4850   25.8070   43.1440 C   0  0  0  0  0  0  0  0  0  0  0  0
   38.8630   25.1470   42.1430 N   0  0  0  0  0  0  0  0  0  0  0  0
   36.2250   27.0640   41.6840 H   0  0  0  0  0  0  0  0  0  0  0  0
   37.3120   28.2990   43.4980 H   0  0  0  0  0  0  0  0  0  0  0  0
   39.4660   27.4680   44.4650 H   0  0  0  0  0  0  0  0  0  0  0  0
   40.4110   25.4150   43.5310 H   0  0  0  0  0  0  0  0  0  0  0  0
   38.4140   26.0950   38.8990 C   0  0  0  0  0  0  0  0  0  0  0  0
   39.6310   25.7930   39.0640 O   0  0  0  0  0  0  0  0  0  0  0  0
   39.1260   30.3660   41.2330 C   0  0  0  0  0  0  0  0  0  0  0  0
   38.0400   30.2470   40.5110 C   0  0  0  0  0  0  0  0  0  0  0  0
   37.8540   29.1350   39.6440 N   0  0  0  0  0  0  0  0  0  0  0  0
   37.0090   28.1720   39.0270 C   0  0  0  0  0  0  0  0  0  0  0  0
   35.7580   27.9550   38.9920 O   0  0  0  0  0  0  0  0  0  0  0  0
   38.1090   27.4500   38.3900 C   0  0  1  0  0  3  0  0  0  0  0  0
   38.9850   28.5260   38.9260 C   0  0  2  0  0  3  0  0  0  0  0  0
   40.1880   28.0590   40.1570 S   0  0  0  0  0  0  0  0  0  0  0  0
   40.2590   29.4480   41.2760 C   0  0  0  0  0  3  0  0  0  0  0  0
   40.2830   29.0100   42.3170 H   0  0  0  0  0  0  0  0  0  0  0  0
   39.2090   31.5530   42.0900 C   0  0  0  0  0  2  0  0  0  0  0  0
   39.2300   32.5200   41.5070 H   0  0  0  0  0  0  0  0  0  0  0  0
   36.9760   31.2430   40.5630 C   0  0  0  0  0  0  0  0  0  0  0  0
   36.9020   32.3380   39.9550 O   0  0  0  0  0  0  0  0  0  0  0  0
   35.8340   31.1040   41.3370 O   0  0  0  0  0  0  0  0  0  0  0  0
   35.3410   31.8470   41.8020 H   0  0  0  0  0  0  0  0  0  0  0  0
  1  6  2  0  0  0  0
  1  2  1  0  0  0  0
  2  3  2  0  0  0  0
  3  4  1  0  0  0  0
  3  9  1  0  0  0  0
  5  8  1  0  0  0  0
  5  4  2  0  0  0  0
  6  5  1  0  0  0  0
  7  1  1  0  0  0  0
  9 10  2  0  0  0  0
  9 14  1  0  0  0  0
 10 11  1  0  0  0  0
 11 16  1  0  0  0  0
 11 12  2  0  0  0  0
 12 17  1  0  0  0  0
 13 18  1  0  0  0  0
 13 12  1  0  0  0  0
 14 13  2  0  0  0  0
 15 10  1  0  0  0  0
 19 20  2  0  0  0  0
 19  2  1  0  0  0  0
 21 29  1  0  0  0  0
 21 31  1  0  0  0  0
 22 33  1  0  0  0  0
 22 21  2  0  0  0  0
 23 22  1  0  0  0  0
 24 23  1  0  0  0  0
 25 24  2  0  0  0  0
 26 19  1  1  0  0  0
 26 27  1  0  0  0  0
 26 24  1  0  0  0  0
 27 23  1  0  0  0  0
 27 28  1  1  0  0  0
 28 29  1  0  0  0  0
 29 30  1  0  0  0  0
 32 31  1  0  0  0  0
 33 35  1  0  0  0  0
 34 33  2  0  0  0  0
 35 36  1  0  0  0  0
M  END
>  <minimizedAffinity>
-5.43249893

$$$$
