
 OpenBabel03242514333D

 33 36  0  0  1  0  0  0  0  0999 V2000
   47.8540   33.6040   39.8510 C   0  0  2  0  0  3  0  0  0  0  0  0
   46.5940   33.8330   39.9830 O   0  0  0  0  0  0  0  0  0  0  0  0
   50.3800   31.2440   37.0680 C   0  0  0  0  0  0  0  0  0  0  0  0
   49.1690   31.4580   36.5830 C   0  0  0  0  0  0  0  0  0  0  0  0
   48.1240   31.9210   37.4300 N   0  0  0  0  0  0  0  0  0  0  0  0
   47.0660   32.9000   37.5690 C   0  0  0  0  0  0  0  0  0  0  0  0
   46.3920   33.6540   36.7850 O   0  0  0  0  0  0  0  0  0  0  0  0
   47.1160   32.6370   39.0050 C   0  0  1  0  0  0  0  0  0  0  0  0
   47.8000   31.3320   38.7150 C   0  0  2  0  0  3  0  0  0  0  0  0
   49.3270   31.0220   39.5950 S   0  0  0  0  0  0  0  0  0  0  0  0
   50.6900   31.4970   38.4990 C   0  0  0  0  0  3  0  0  0  0  0  0
   50.8190   32.6060   38.6580 H   0  0  0  0  0  0  0  0  0  0  0  0
   51.4070   30.7580   36.1550 C   0  0  0  0  0  2  0  0  0  0  0  0
   52.3660   30.6410   36.7360 H   0  0  0  0  0  0  0  0  0  0  0  0
   48.8920   31.2070   35.1600 C   0  0  0  0  0  0  0  0  0  0  0  0
   48.9450   32.0660   34.2470 O   0  0  0  0  0  0  0  0  0  0  0  0
   48.5340   30.0260   34.5790 O   0  0  0  0  0  0  0  0  0  0  0  0
   47.7010   29.9540   34.0110 H   0  0  0  0  0  0  0  0  0  0  0  0
   48.5890   34.4610   40.6050 O   0  0  0  0  0  0  0  0  0  0  0  0
   49.4850   35.3940   42.8230 O   0  0  0  0  0  0  0  0  0  0  0  0
   49.2390   34.1020   42.1010 P   0  0  2  0  0  0  0  0  0  0  0  0
   50.7330   33.3600   41.9000 O   0  0  0  0  0  0  0  0  0  0  0  0
   50.6480   32.4180   41.5970 H   0  0  0  0  0  0  0  0  0  0  0  0
   48.1750   33.1030   42.9920 O   0  0  0  0  0  0  0  0  0  0  0  0
   46.3930   34.7080   43.1490 C   0  0  0  0  0  0  0  0  0  0  0  0
   47.1220   33.6560   43.7300 C   0  0  0  0  0  0  0  0  0  0  0  0
   46.7620   33.2230   45.0010 C   0  0  0  0  0  0  0  0  0  0  0  0
   45.7230   33.8260   45.6320 N   0  0  0  0  0  0  0  0  0  0  0  0
   45.0420   34.8360   45.0450 C   0  0  0  0  0  0  0  0  0  0  0  0
   45.3820   35.2600   43.8220 N   0  0  0  0  0  0  0  0  0  0  0  0
   46.5970   35.1160   42.1660 H   0  0  0  0  0  0  0  0  0  0  0  0
   47.3610   32.4150   45.3850 H   0  0  0  0  0  0  0  0  0  0  0  0
   44.2430   35.2100   45.6760 H   0  0  0  0  0  0  0  0  0  0  0  0
  1  2  1  0  0  0  0
  1 19  1  1  0  0  0
  3 11  1  0  0  0  0
  4  3  2  0  0  0  0
  4  5  1  0  0  0  0
  5  6  1  0  0  0  0
  5  9  1  0  0  0  0
  7  6  2  0  0  0  0
  8  6  1  6  0  0  0
  8  1  1  0  0  0  0
  8  2  1  0  0  0  0
  9  8  1  0  0  0  0
  9 10  1  1  0  0  0
 11 12  1  0  0  0  0
 11 10  1  0  0  0  0
 13 14  1  0  0  0  0
 13  3  1  0  0  0  0
 15  4  1  0  0  0  0
 16 15  2  0  0  0  0
 17 15  1  0  0  0  0
 18 17  1  0  0  0  0
 19 21  1  0  0  0  0
 21 20  2  1  0  0  0
 21 24  1  0  0  0  0
 22 21  1  0  0  0  0
 23 22  1  0  0  0  0
 24 26  1  0  0  0  0
 25 26  2  0  0  0  0
 25 30  1  0  0  0  0
 26 27  1  0  0  0  0
 27 32  1  0  0  0  0
 27 28  2  0  0  0  0
 29 28  1  0  0  0  0
 29 33  1  0  0  0  0
 30 29  2  0  0  0  0
 31 25  1  0  0  0  0
M  END
>  <minimizedAffinity>
-4.62852287

>  <minimizedRMSD>
3.26743603

$$$$
