
 OpenBabel03242514333D

 33 36  0  0  1  0  0  0  0  0999 V2000
   48.4590   33.7030   39.9880 C   0  0  1  0  0  3  0  0  0  0  0  0
   47.2220   34.0470   39.8980 O   0  0  0  0  0  0  0  0  0  0  0  0
   51.1730   31.1690   37.5550 C   0  0  0  0  0  0  0  0  0  0  0  0
   50.0360   31.4250   36.9320 C   0  0  0  0  0  0  0  0  0  0  0  0
   48.9250   31.9540   37.6430 N   0  0  0  0  0  0  0  0  0  0  0  0
   47.9050   32.9820   37.6420 C   0  0  0  0  0  0  0  0  0  0  0  0
   47.3600   33.7480   36.7740 O   0  0  0  0  0  0  0  0  0  0  0  0
   47.7780   32.7500   39.0790 C   0  0  1  0  0  0  0  0  0  0  0  0
   48.4300   31.4100   38.8930 C   0  0  2  0  0  3  0  0  0  0  0  0
   49.8290   31.0530   39.9480 S   0  0  0  0  0  0  0  0  0  0  0  0
   51.3300   31.4410   39.0080 C   0  0  0  0  0  3  0  0  0  0  0  0
   51.4920   32.5470   39.1610 H   0  0  0  0  0  0  0  0  0  0  0  0
   52.2730   30.6170   36.7760 C   0  0  0  0  0  2  0  0  0  0  0  0
   53.1540   30.4720   37.4650 H   0  0  0  0  0  0  0  0  0  0  0  0
   49.9130   31.1560   35.4910 C   0  0  0  0  0  0  0  0  0  0  0  0
   49.5180   30.0780   34.9850 O   0  0  0  0  0  0  0  0  0  0  0  0
   50.1960   32.0020   34.4590 O   0  0  0  0  0  0  0  0  0  0  0  0
   50.8320   31.7330   33.7210 H   0  0  0  0  0  0  0  0  0  0  0  0
   49.1410   34.5400   40.8100 O   0  0  0  0  0  0  0  0  0  0  0  0
   49.6120   35.5120   43.1390 O   0  0  0  0  0  0  0  0  0  0  0  0
   49.5350   34.2090   42.3990 P   0  0  2  0  0  0  0  0  0  0  0  0
   51.0630   33.5160   42.4650 O   0  0  0  0  0  0  0  0  0  0  0  0
   51.0620   32.5700   42.1620 H   0  0  0  0  0  0  0  0  0  0  0  0
   48.3650   33.1810   43.1040 O   0  0  0  0  0  0  0  0  0  0  0  0
   46.5260   34.7270   43.0790 C   0  0  0  0  0  0  0  0  0  0  0  0
   47.2360   33.7090   43.7390 C   0  0  0  0  0  0  0  0  0  0  0  0
   46.7810   33.2820   44.9810 C   0  0  0  0  0  0  0  0  0  0  0  0
   45.6730   33.8600   45.5110 N   0  0  0  0  0  0  0  0  0  0  0  0
   45.0120   34.8380   44.8510 C   0  0  0  0  0  0  0  0  0  0  0  0
   45.4430   35.2550   43.6540 N   0  0  0  0  0  0  0  0  0  0  0  0
   46.8010   35.1270   42.1110 H   0  0  0  0  0  0  0  0  0  0  0  0
   47.3700   32.5010   45.4300 H   0  0  0  0  0  0  0  0  0  0  0  0
   44.1510   35.1940   45.4030 H   0  0  0  0  0  0  0  0  0  0  0  0
  1 19  1  6  0  0  0
  2  1  1  0  0  0  0
  3 11  1  0  0  0  0
  4  3  2  0  0  0  0
  4  5  1  0  0  0  0
  5  9  1  0  0  0  0
  6  5  1  0  0  0  0
  7  6  2  0  0  0  0
  8  6  1  6  0  0  0
  8  2  1  0  0  0  0
  8  1  1  0  0  0  0
  9  8  1  0  0  0  0
  9 10  1  1  0  0  0
 11 12  1  0  0  0  0
 11 10  1  0  0  0  0
 13 14  1  0  0  0  0
 13  3  1  0  0  0  0
 15  4  1  0  0  0  0
 16 15  2  0  0  0  0
 17 15  1  0  0  0  0
 18 17  1  0  0  0  0
 19 21  1  0  0  0  0
 21 22  1  0  0  0  0
 21 24  1  0  0  0  0
 21 20  2  1  0  0  0
 23 22  1  0  0  0  0
 24 26  1  0  0  0  0
 25 30  2  0  0  0  0
 25 26  1  0  0  0  0
 26 27  2  0  0  0  0
 27 32  1  0  0  0  0
 27 28  1  0  0  0  0
 29 33  1  0  0  0  0
 29 28  2  0  0  0  0
 30 29  1  0  0  0  0
 31 25  1  0  0  0  0
M  END
>  <minimizedAffinity>
-4.6799016

>  <minimizedRMSD>
1.41579759

$$$$
