
 OpenBabel03242510103D

 35 38  0  0  1  0  0  0  0  0999 V2000
   38.1470   30.5580   41.6580 Br  0  0  0  0  0  0  0  0  0  0  0  0
   37.4490   30.3620   39.8920 C   0  0  0  0  0  0  0  0  0  0  0  0
   37.8700   31.2020   38.8760 C   0  0  0  0  0  0  0  0  0  0  0  0
   37.3690   31.0870   37.5830 C   0  0  0  0  0  0  0  0  0  0  0  0
   36.4410   30.1080   37.3530 C   0  0  0  0  0  0  0  0  0  0  0  0
   36.0450   29.2910   38.3870 C   0  0  0  0  0  0  0  0  0  0  0  0
   36.5210   29.3860   39.6500 C   0  0  0  0  0  0  0  0  0  0  0  0
   37.7140   31.7600   36.7990 H   0  0  0  0  0  0  0  0  0  0  0  0
   36.0360   30.0060   36.3380 H   0  0  0  0  0  0  0  0  0  0  0  0
   35.3080   28.5600   38.1040 H   0  0  0  0  0  0  0  0  0  0  0  0
   41.0730   32.9320   39.1990 C   0  0  0  0  0  0  0  0  0  0  0  0
   40.7460   34.1600   39.7980 C   0  0  0  0  0  0  0  0  0  0  0  0
   39.4000   34.3730   40.0840 C   0  0  0  0  0  0  0  0  0  0  0  0
   38.5080   33.4010   39.7750 N   0  0  0  0  0  0  0  0  0  0  0  0
   38.8680   32.2270   39.1950 C   0  0  0  0  0  0  0  0  0  0  0  0
   40.1630   32.0000   38.9100 N   0  0  0  0  0  0  0  0  0  0  0  0
   42.1390   32.8460   39.0100 H   0  0  0  0  0  0  0  0  0  0  0  0
   41.4060   34.9500   40.0590 H   0  0  0  0  0  0  0  0  0  0  0  0
   38.9500   35.2560   40.5450 H   0  0  0  0  0  0  0  0  0  0  0  0
   36.0720   28.4970   40.7560 C   0  0  0  0  0  2  0  0  0  0  0  0
   36.6730   27.1650   40.7600 C   0  0  0  0  0  0  0  0  0  0  0  0
   37.0660   26.6590   41.9000 C   0  0  0  0  0  0  0  0  0  0  0  0
   37.6430   25.3610   41.9160 N   0  0  0  0  0  0  0  0  0  0  0  0
   38.7040   24.5140   42.4130 C   0  0  0  0  0  0  0  0  0  0  0  0
   39.5440   24.5510   43.3750 O   0  0  0  0  0  0  0  0  0  0  0  0
   38.4380   23.5250   41.3250 C   0  0  0  0  0  3  0  0  0  0  0  0
   38.3480   22.5080   41.7870 H   0  0  0  0  0  0  0  0  0  0  0  0
   37.0990   24.2130   41.1820 C   0  0  2  0  0  3  0  0  0  0  0  0
   36.6240   24.7610   39.5600 S   0  0  0  0  0  0  0  0  0  0  0  0
   36.7970   26.5450   39.4240 C   0  0  0  0  0  3  0  0  0  0  0  0
   37.7620   26.8350   38.9250 H   0  0  0  0  0  0  0  0  0  0  0  0
   36.9580   27.3210   43.2030 C   0  0  0  0  0  0  0  0  0  0  0  0
   37.8980   27.7320   43.9230 O   0  0  0  0  0  0  0  0  0  0  0  0
   36.1230   27.7820   44.1780 O   0  0  0  0  0  0  0  0  0  0  0  0
   35.6530   28.6950   44.1020 H   0  0  0  0  0  0  0  0  0  0  0  0
  2  1  1  0  0  0  0
  3 15  1  0  0  0  0
  3  2  2  0  0  0  0
  4  3  1  0  0  0  0
  5  4  2  0  0  0  0
  5  6  1  0  0  0  0
  6  7  2  0  0  0  0
  7  2  1  0  0  0  0
  7 20  1  0  0  0  0
  8  4  1  0  0  0  0
  9  5  1  0  0  0  0
 10  6  1  0  0  0  0
 11 12  1  0  0  0  0
 12 18  1  0  0  0  0
 12 13  2  0  0  0  0
 13 19  1  0  0  0  0
 14 13  1  0  0  0  0
 15 14  2  0  0  0  0
 16 15  1  0  0  0  0
 16 11  2  0  0  0  0
 17 11  1  0  0  0  0
 20 21  1  0  0  0  0
 21 22  2  0  0  0  0
 22 23  1  0  0  0  0
 22 32  1  0  0  0  0
 23 24  1  0  0  0  0
 24 25  2  0  0  0  0
 26 27  1  0  0  0  0
 26 24  1  0  0  0  0
 28 29  1  6  0  0  0
 28 26  1  0  0  0  0
 28 23  1  0  0  0  0
 30 29  1  0  0  0  0
 30 21  1  0  0  0  0
 31 30  1  0  0  0  0
 32 33  2  0  0  0  0
 32 34  1  0  0  0  0
 35 34  1  0  0  0  0
M  END
>  <minimizedAffinity>
-6.41331434

$$$$

 OpenBabel03242510103D

 35 38  0  0  1  0  0  0  0  0999 V2000
   37.2590   26.8530   40.4300 Br  0  0  0  0  0  0  0  0  0  0  0  0
   38.4380   26.4310   41.8700 C   0  0  0  0  0  0  0  0  0  0  0  0
   39.0050   25.1720   41.9660 C   0  0  0  0  0  0  0  0  0  0  0  0
   39.8590   24.8370   43.0110 C   0  0  0  0  0  0  0  0  0  0  0  0
   40.1190   25.8020   43.9460 C   0  0  0  0  0  0  0  0  0  0  0  0
   39.5370   27.0420   43.8200 C   0  0  0  0  0  0  0  0  0  0  0  0
   38.7050   27.3890   42.8110 C   0  0  0  0  0  0  0  0  0  0  0  0
   40.2940   23.8390   43.0660 H   0  0  0  0  0  0  0  0  0  0  0  0
   40.7900   25.5510   44.7770 H   0  0  0  0  0  0  0  0  0  0  0  0
   39.7990   27.7260   44.6090 H   0  0  0  0  0  0  0  0  0  0  0  0
   37.3200   22.4930   40.1390 C   0  0  0  0  0  0  0  0  0  0  0  0
   38.0800   22.3400   38.9670 C   0  0  0  0  0  0  0  0  0  0  0  0
   39.1810   23.1810   38.8260 C   0  0  0  0  0  0  0  0  0  0  0  0
   39.4460   24.0750   39.8090 N   0  0  0  0  0  0  0  0  0  0  0  0
   38.6840   24.1900   40.9270 C   0  0  0  0  0  0  0  0  0  0  0  0
   37.6150   23.3870   41.0840 N   0  0  0  0  0  0  0  0  0  0  0  0
   36.4830   21.8020   40.1700 H   0  0  0  0  0  0  0  0  0  0  0  0
   37.9140   21.6570   38.1710 H   0  0  0  0  0  0  0  0  0  0  0  0
   39.8890   23.2150   37.9940 H   0  0  0  0  0  0  0  0  0  0  0  0
   38.0790   28.7350   42.7000 C   0  0  0  0  0  2  0  0  0  0  0  0
   38.8550   29.7150   41.9430 C   0  0  0  0  0  0  0  0  0  0  0  0
   38.2180   30.5490   41.1630 C   0  0  0  0  0  0  0  0  0  0  0  0
   38.9620   31.5130   40.4300 N   0  0  0  0  0  0  0  0  0  0  0  0
   39.1660   32.1760   39.1620 C   0  0  0  0  0  0  0  0  0  0  0  0
   38.4930   32.3480   38.0890 O   0  0  0  0  0  0  0  0  0  0  0  0
   40.5290   32.6080   39.5950 C   0  0  0  0  0  3  0  0  0  0  0  0
   40.6290   33.7070   39.4000 H   0  0  0  0  0  0  0  0  0  0  0  0
   40.0520   32.3140   41.0000 C   0  0  2  0  0  3  0  0  0  0  0  0
   41.0600   31.2500   42.0050 S   0  0  0  0  0  0  0  0  0  0  0  0
   40.3170   29.6180   42.1330 C   0  0  0  0  0  3  0  0  0  0  0  0
   40.7780   28.8910   41.4100 H   0  0  0  0  0  0  0  0  0  0  0  0
   36.7660   30.5920   40.9740 C   0  0  0  0  0  0  0  0  0  0  0  0
   36.1260   30.2520   39.9510 O   0  0  0  0  0  0  0  0  0  0  0  0
   35.5550   30.8980   41.5240 O   0  0  0  0  0  0  0  0  0  0  0  0
   35.0710   30.2500   42.1610 H   0  0  0  0  0  0  0  0  0  0  0  0
  1  2  1  0  0  0  0
  2  3  2  0  0  0  0
  2  7  1  0  0  0  0
  3  4  1  0  0  0  0
  4  8  1  0  0  0  0
  4  5  2  0  0  0  0
  5  9  1  0  0  0  0
  6  5  1  0  0  0  0
  6 10  1  0  0  0  0
  7  6  2  0  0  0  0
 11 17  1  0  0  0  0
 11 16  1  0  0  0  0
 12 11  2  0  0  0  0
 13 12  1  0  0  0  0
 13 14  2  0  0  0  0
 14 15  1  0  0  0  0
 15 16  2  0  0  0  0
 15  3  1  0  0  0  0
 18 12  1  0  0  0  0
 19 13  1  0  0  0  0
 20  7  1  0  0  0  0
 21 30  1  0  0  0  0
 21 20  1  0  0  0  0
 22 21  2  0  0  0  0
 23 28  1  0  0  0  0
 23 22  1  0  0  0  0
 24 26  1  0  0  0  0
 24 23  1  0  0  0  0
 25 24  2  0  0  0  0
 27 26  1  0  0  0  0
 28 26  1  6  0  0  0
 28 29  1  0  0  0  0
 29 30  1  0  0  0  0
 31 30  1  0  0  0  0
 32 22  1  0  0  0  0
 32 34  1  0  0  0  0
 33 32  2  0  0  0  0
 34 35  1  0  0  0  0
M  END
>  <minimizedAffinity>
-6.26411104

$$$$

 OpenBabel03242510103D

 35 38  0  0  1  0  0  0  0  0999 V2000
   40.4070   30.9990   42.1750 Br  0  0  0  0  0  0  0  0  0  0  0  0
   38.9850   31.4970   41.0040 C   0  0  0  0  0  0  0  0  0  0  0  0
   37.9060   30.6510   40.8140 C   0  0  0  0  0  0  0  0  0  0  0  0
   36.8620   30.9850   39.9580 C   0  0  0  0  0  0  0  0  0  0  0  0
   36.9410   32.1870   39.3080 C   0  0  0  0  0  0  0  0  0  0  0  0
   38.0290   33.0020   39.5200 C   0  0  0  0  0  0  0  0  0  0  0  0
   39.0540   32.6960   40.3480 C   0  0  0  0  0  0  0  0  0  0  0  0
   36.0220   30.3040   39.8240 H   0  0  0  0  0  0  0  0  0  0  0  0
   36.1260   32.4640   38.6280 H   0  0  0  0  0  0  0  0  0  0  0  0
   38.0000   33.9190   38.9570 H   0  0  0  0  0  0  0  0  0  0  0  0
   38.3590   27.1160   41.6240 C   0  0  0  0  0  0  0  0  0  0  0  0
   37.8490   26.9900   42.9280 C   0  0  0  0  0  0  0  0  0  0  0  0
   37.3500   28.1500   43.5140 C   0  0  0  0  0  0  0  0  0  0  0  0
   37.3840   29.3040   42.8050 N   0  0  0  0  0  0  0  0  0  0  0  0
   37.8860   29.3810   41.5460 C   0  0  0  0  0  0  0  0  0  0  0  0
   38.3750   28.2720   40.9590 N   0  0  0  0  0  0  0  0  0  0  0  0
   38.7270   26.1690   41.2410 H   0  0  0  0  0  0  0  0  0  0  0  0
   37.8000   26.1120   43.5230 H   0  0  0  0  0  0  0  0  0  0  0  0
   36.9150   28.2560   44.5120 H   0  0  0  0  0  0  0  0  0  0  0  0
   40.2260   33.5890   40.5560 C   0  0  0  0  0  2  0  0  0  0  0  0
   41.3280   33.3880   39.6170 C   0  0  0  0  0  0  0  0  0  0  0  0
   42.5540   33.5150   40.0550 C   0  0  0  0  0  0  0  0  0  0  0  0
   43.6320   33.3120   39.1520 N   0  0  0  0  0  0  0  0  0  0  0  0
   44.9090   33.7840   38.6660 C   0  0  0  0  0  0  0  0  0  0  0  0
   45.8270   34.5680   39.0870 O   0  0  0  0  0  0  0  0  0  0  0  0
   44.7480   32.9730   37.4220 C   0  0  0  0  0  3  0  0  0  0  0  0
   45.6870   32.3820   37.2630 H   0  0  0  0  0  0  0  0  0  0  0  0
   43.7050   32.2000   38.1980 C   0  0  2  0  0  3  0  0  0  0  0  0
   42.1050   32.0000   37.4510 S   0  0  0  0  0  0  0  0  0  0  0  0
   40.9060   33.0880   38.2330 C   0  0  0  0  0  3  0  0  0  0  0  0
   40.7470   34.0290   37.6390 H   0  0  0  0  0  0  0  0  0  0  0  0
   42.9320   33.8490   41.4300 C   0  0  0  0  0  0  0  0  0  0  0  0
   43.4600   34.9110   41.8330 O   0  0  0  0  0  0  0  0  0  0  0  0
   42.9750   33.4360   42.7300 O   0  0  0  0  0  0  0  0  0  0  0  0
   42.1520   33.4970   43.3450 H   0  0  0  0  0  0  0  0  0  0  0  0
  2  1  1  0  0  0  0
  3  2  1  0  0  0  0
  3 15  1  0  0  0  0
  4  3  2  0  0  0  0
  5  6  2  0  0  0  0
  5  4  1  0  0  0  0
  6  7  1  0  0  0  0
  7 20  1  0  0  0  0
  7  2  2  0  0  0  0
  8  4  1  0  0  0  0
  9  5  1  0  0  0  0
 10  6  1  0  0  0  0
 11 12  1  0  0  0  0
 12 13  2  0  0  0  0
 12 18  1  0  0  0  0
 13 19  1  0  0  0  0
 14 13  1  0  0  0  0
 15 14  2  0  0  0  0
 16 15  1  0  0  0  0
 16 11  2  0  0  0  0
 17 11  1  0  0  0  0
 21 22  2  0  0  0  0
 21 20  1  0  0  0  0
 22 32  1  0  0  0  0
 23 22  1  0  0  0  0
 24 25  2  0  0  0  0
 24 23  1  0  0  0  0
 26 24  1  0  0  0  0
 27 26  1  0  0  0  0
 28 26  1  6  0  0  0
 28 23  1  0  0  0  0
 29 28  1  0  0  0  0
 29 30  1  0  0  0  0
 30 21  1  0  0  0  0
 31 30  1  0  0  0  0
 32 33  2  0  0  0  0
 32 34  1  0  0  0  0
 34 35  1  0  0  0  0
M  END
>  <minimizedAffinity>
-6.10693598

$$$$

 OpenBabel03242510103D

 35 38  0  0  1  0  0  0  0  0999 V2000
   42.0490   31.1100   40.7840 Br  0  0  0  0  0  0  0  0  0  0  0  0
   40.8600   32.5870   40.5630 C   0  0  0  0  0  0  0  0  0  0  0  0
   41.3040   33.7610   39.9790 C   0  0  0  0  0  0  0  0  0  0  0  0
   40.4610   34.8560   39.8170 C   0  0  0  0  0  0  0  0  0  0  0  0
   39.1710   34.7280   40.2560 C   0  0  0  0  0  0  0  0  0  0  0  0
   38.7650   33.5460   40.8320 C   0  0  0  0  0  0  0  0  0  0  0  0
   39.5680   32.4710   40.9990 C   0  0  0  0  0  0  0  0  0  0  0  0
   40.8320   35.7700   39.3540 H   0  0  0  0  0  0  0  0  0  0  0  0
   38.4950   35.5840   40.1350 H   0  0  0  0  0  0  0  0  0  0  0  0
   37.7370   33.5500   41.1500 H   0  0  0  0  0  0  0  0  0  0  0  0
   44.9280   34.2320   39.9980 C   0  0  0  0  0  0  0  0  0  0  0  0
   45.3220   33.9450   38.6800 C   0  0  0  0  0  0  0  0  0  0  0  0
   44.3110   33.5880   37.7920 C   0  0  0  0  0  0  0  0  0  0  0  0
   43.0350   33.5410   38.2460 N   0  0  0  0  0  0  0  0  0  0  0  0
   42.6970   33.8260   39.5300 C   0  0  0  0  0  0  0  0  0  0  0  0
   43.6590   34.1730   40.4050 N   0  0  0  0  0  0  0  0  0  0  0  0
   45.7740   34.5010   40.6230 H   0  0  0  0  0  0  0  0  0  0  0  0
   46.3050   33.9680   38.2770 H   0  0  0  0  0  0  0  0  0  0  0  0
   44.4150   33.3310   36.7350 H   0  0  0  0  0  0  0  0  0  0  0  0
   39.1100   31.2050   41.6330 C   0  0  0  0  0  2  0  0  0  0  0  0
   38.3360   30.3230   40.7620 C   0  0  0  0  0  0  0  0  0  0  0  0
   37.7160   29.3030   41.2960 C   0  0  0  0  0  0  0  0  0  0  0  0
   36.9530   28.4450   40.4590 N   0  0  0  0  0  0  0  0  0  0  0  0
   36.6120   27.0850   40.1080 C   0  0  0  0  0  0  0  0  0  0  0  0
   36.7060   25.9360   40.6610 O   0  0  0  0  0  0  0  0  0  0  0  0
   36.0810   27.5460   38.7910 C   0  0  0  0  0  3  0  0  0  0  0  0
   35.0600   27.1060   38.6480 H   0  0  0  0  0  0  0  0  0  0  0  0
   36.0330   28.9200   39.4190 C   0  0  2  0  0  3  0  0  0  0  0  0
   36.8190   30.2530   38.5450 S   0  0  0  0  0  0  0  0  0  0  0  0
   38.3760   30.6870   39.3300 C   0  0  0  0  0  3  0  0  0  0  0  0
   39.2530   30.2130   38.8110 H   0  0  0  0  0  0  0  0  0  0  0  0
   37.7280   28.9540   42.7190 C   0  0  0  0  0  0  0  0  0  0  0  0
   38.4210   28.0700   43.2750 O   0  0  0  0  0  0  0  0  0  0  0  0
   37.2200   29.2140   43.9580 O   0  0  0  0  0  0  0  0  0  0  0  0
   37.5720   29.9900   44.5350 H   0  0  0  0  0  0  0  0  0  0  0  0
  2  1  1  0  0  0  0
  2  7  1  0  0  0  0
  3  2  2  0  0  0  0
  4  3  1  0  0  0  0
  4  5  2  0  0  0  0
  5  6  1  0  0  0  0
  6  7  2  0  0  0  0
  6 10  1  0  0  0  0
  7 20  1  0  0  0  0
  8  4  1  0  0  0  0
  9  5  1  0  0  0  0
 11 16  1  0  0  0  0
 11 17  1  0  0  0  0
 12 11  2  0  0  0  0
 13 14  2  0  0  0  0
 13 12  1  0  0  0  0
 14 15  1  0  0  0  0
 15  3  1  0  0  0  0
 15 16  2  0  0  0  0
 18 12  1  0  0  0  0
 19 13  1  0  0  0  0
 21 22  2  0  0  0  0
 21 20  1  0  0  0  0
 22 32  1  0  0  0  0
 23 22  1  0  0  0  0
 24 23  1  0  0  0  0
 24 25  2  0  0  0  0
 26 28  1  0  0  0  0
 26 24  1  0  0  0  0
 27 26  1  0  0  0  0
 28 29  1  6  0  0  0
 28 23  1  0  0  0  0
 29 30  1  0  0  0  0
 30 21  1  0  0  0  0
 31 30  1  0  0  0  0
 32 33  2  0  0  0  0
 32 34  1  0  0  0  0
 34 35  1  0  0  0  0
M  END
>  <minimizedAffinity>
-5.96590233

$$$$

 OpenBabel03242510103D

 35 38  0  0  1  0  0  0  0  0999 V2000
   38.0080   27.6550   39.0860 Br  0  0  0  0  0  0  0  0  0  0  0  0
   37.8990   27.9500   40.9680 C   0  0  0  0  0  0  0  0  0  0  0  0
   37.7610   26.8810   41.8370 C   0  0  0  0  0  0  0  0  0  0  0  0
   37.6690   27.0700   43.2120 C   0  0  0  0  0  0  0  0  0  0  0  0
   37.7190   28.3570   43.6760 C   0  0  0  0  0  0  0  0  0  0  0  0
   37.8560   29.3950   42.7830 C   0  0  0  0  0  0  0  0  0  0  0  0
   37.9480   29.2320   41.4430 C   0  0  0  0  0  0  0  0  0  0  0  0
   37.5610   26.2140   43.8780 H   0  0  0  0  0  0  0  0  0  0  0  0
   37.6460   28.5210   44.7580 H   0  0  0  0  0  0  0  0  0  0  0  0
   37.8770   30.3660   43.2470 H   0  0  0  0  0  0  0  0  0  0  0  0
   38.8300   23.6370   40.5360 C   0  0  0  0  0  0  0  0  0  0  0  0
   37.6300   22.9860   40.2020 C   0  0  0  0  0  0  0  0  0  0  0  0
   36.4530   23.6910   40.4350 C   0  0  0  0  0  0  0  0  0  0  0  0
   36.5360   24.9380   40.9600 N   0  0  0  0  0  0  0  0  0  0  0  0
   37.7170   25.5310   41.2700 C   0  0  0  0  0  0  0  0  0  0  0  0
   38.8680   24.8670   41.0520 N   0  0  0  0  0  0  0  0  0  0  0  0
   39.6980   23.0210   40.3240 H   0  0  0  0  0  0  0  0  0  0  0  0
   37.5140   22.0140   39.7900 H   0  0  0  0  0  0  0  0  0  0  0  0
   35.4300   23.3590   40.2430 H   0  0  0  0  0  0  0  0  0  0  0  0
   38.0860   30.3710   40.4940 C   0  0  0  0  0  2  0  0  0  0  0  0
   39.4140   30.9800   40.4510 C   0  0  0  0  0  0  0  0  0  0  0  0
   39.5010   32.2820   40.3590 C   0  0  0  0  0  0  0  0  0  0  0  0
   40.7870   32.8850   40.3260 N   0  0  0  0  0  0  0  0  0  0  0  0
   41.6480   33.8680   39.7070 C   0  0  0  0  0  0  0  0  0  0  0  0
   41.4920   34.9100   38.9830 O   0  0  0  0  0  0  0  0  0  0  0  0
   42.8520   33.1760   40.2570 C   0  0  0  0  0  3  0  0  0  0  0  0
   43.4990   33.9410   40.7610 H   0  0  0  0  0  0  0  0  0  0  0  0
   41.8910   32.5120   41.2180 C   0  0  2  0  0  3  0  0  0  0  0  0
   41.9390   30.7400   41.3360 S   0  0  0  0  0  0  0  0  0  0  0  0
   40.5320   30.0150   40.4850 C   0  0  0  0  0  3  0  0  0  0  0  0
   40.8040   29.6650   39.4510 H   0  0  0  0  0  0  0  0  0  0  0  0
   38.3660   33.2060   40.2920 C   0  0  0  0  0  0  0  0  0  0  0  0
   38.3910   34.4470   40.4590 O   0  0  0  0  0  0  0  0  0  0  0  0
   37.0240   33.3450   40.0900 O   0  0  0  0  0  0  0  0  0  0  0  0
   36.6200   33.3820   39.1440 H   0  0  0  0  0  0  0  0  0  0  0  0
  1  2  1  0  0  0  0
  2  7  2  0  0  0  0
  2  3  1  0  0  0  0
  3  4  2  0  0  0  0
  4  5  1  0  0  0  0
  4  8  1  0  0  0  0
  5  9  1  0  0  0  0
  6 10  1  0  0  0  0
  6  5  2  0  0  0  0
  7  6  1  0  0  0  0
 11 16  1  0  0  0  0
 12 13  1  0  0  0  0
 12 11  2  0  0  0  0
 13 14  2  0  0  0  0
 14 15  1  0  0  0  0
 15  3  1  0  0  0  0
 16 15  2  0  0  0  0
 17 11  1  0  0  0  0
 18 12  1  0  0  0  0
 19 13  1  0  0  0  0
 20  7  1  0  0  0  0
 21 30  1  0  0  0  0
 21 20  1  0  0  0  0
 22 21  2  0  0  0  0
 23 22  1  0  0  0  0
 23 28  1  0  0  0  0
 24 26  1  0  0  0  0
 24 23  1  0  0  0  0
 25 24  2  0  0  0  0
 26 27  1  0  0  0  0
 28 26  1  6  0  0  0
 28 29  1  0  0  0  0
 30 29  1  0  0  0  0
 31 30  1  0  0  0  0
 32 22  1  0  0  0  0
 32 33  2  0  0  0  0
 34 32  1  0  0  0  0
 35 34  1  0  0  0  0
M  END
>  <minimizedAffinity>
-5.95676136

$$$$

 OpenBabel03242510103D

 35 38  0  0  1  0  0  0  0  0999 V2000
   38.6790   31.8810   38.9520 Br  0  0  0  0  0  0  0  0  0  0  0  0
   39.6720   31.3950   40.5080 C   0  0  0  0  0  0  0  0  0  0  0  0
   40.9570   31.8740   40.6970 C   0  0  0  0  0  0  0  0  0  0  0  0
   41.7050   31.5250   41.8170 C   0  0  0  0  0  0  0  0  0  0  0  0
   41.1220   30.6880   42.7280 C   0  0  0  0  0  0  0  0  0  0  0  0
   39.8430   30.2300   42.5080 C   0  0  0  0  0  0  0  0  0  0  0  0
   39.0980   30.5580   41.4260 C   0  0  0  0  0  0  0  0  0  0  0  0
   42.7150   31.9150   41.9450 H   0  0  0  0  0  0  0  0  0  0  0  0
   41.7000   30.4030   43.6160 H   0  0  0  0  0  0  0  0  0  0  0  0
   39.4790   29.5730   43.2780 H   0  0  0  0  0  0  0  0  0  0  0  0
   41.8170   34.9110   38.8540 C   0  0  0  0  0  0  0  0  0  0  0  0
   42.5740   34.4520   37.7630 C   0  0  0  0  0  0  0  0  0  0  0  0
   42.7780   33.0770   37.6820 C   0  0  0  0  0  0  0  0  0  0  0  0
   42.2430   32.2830   38.6410 N   0  0  0  0  0  0  0  0  0  0  0  0
   41.5170   32.7680   39.6800 C   0  0  0  0  0  0  0  0  0  0  0  0
   41.3070   34.0950   39.7780 N   0  0  0  0  0  0  0  0  0  0  0  0
   41.7050   35.9900   38.8430 H   0  0  0  0  0  0  0  0  0  0  0  0
   43.0130   35.0320   36.9890 H   0  0  0  0  0  0  0  0  0  0  0  0
   43.3340   32.5320   36.9150 H   0  0  0  0  0  0  0  0  0  0  0  0
   37.7200   30.0430   41.2030 C   0  0  0  0  0  2  0  0  0  0  0  0
   37.6450   28.6510   40.7650 C   0  0  0  0  0  0  0  0  0  0  0  0
   37.2570   27.7450   41.6250 C   0  0  0  0  0  0  0  0  0  0  0  0
   37.1710   26.3900   41.2070 N   0  0  0  0  0  0  0  0  0  0  0  0
   37.4530   25.0060   41.5190 C   0  0  0  0  0  0  0  0  0  0  0  0
   37.7260   24.3320   42.5700 O   0  0  0  0  0  0  0  0  0  0  0  0
   37.2980   24.6390   40.0800 C   0  0  0  0  0  3  0  0  0  0  0  0
   36.6030   23.7620   40.0120 H   0  0  0  0  0  0  0  0  0  0  0  0
   36.5740   25.9590   39.9380 C   0  0  2  0  0  3  0  0  0  0  0  0
   37.1220   27.0650   38.6590 S   0  0  0  0  0  0  0  0  0  0  0  0
   38.0620   28.4250   39.3660 C   0  0  0  0  0  3  0  0  0  0  0  0
   39.1700   28.2510   39.2900 H   0  0  0  0  0  0  0  0  0  0  0  0
   36.8840   28.0030   43.0180 C   0  0  0  0  0  0  0  0  0  0  0  0
   36.1940   27.2710   43.7650 O   0  0  0  0  0  0  0  0  0  0  0  0
   36.9700   28.8570   44.0790 O   0  0  0  0  0  0  0  0  0  0  0  0
   37.7950   28.8750   44.6950 H   0  0  0  0  0  0  0  0  0  0  0  0
  1  2  1  0  0  0  0
  2  3  2  0  0  0  0
  2  7  1  0  0  0  0
  3  4  1  0  0  0  0
  4  8  1  0  0  0  0
  4  5  2  0  0  0  0
  5  9  1  0  0  0  0
  6  5  1  0  0  0  0
  6 10  1  0  0  0  0
  7  6  2  0  0  0  0
 11 16  1  0  0  0  0
 12 11  2  0  0  0  0
 13 12  1  0  0  0  0
 13 14  2  0  0  0  0
 14 15  1  0  0  0  0
 15 16  2  0  0  0  0
 15  3  1  0  0  0  0
 17 11  1  0  0  0  0
 18 12  1  0  0  0  0
 19 13  1  0  0  0  0
 20  7  1  0  0  0  0
 21 20  1  0  0  0  0
 21 22  2  0  0  0  0
 22 32  1  0  0  0  0
 23 24  1  0  0  0  0
 23 22  1  0  0  0  0
 24 25  2  0  0  0  0
 26 24  1  0  0  0  0
 27 26  1  0  0  0  0
 28 29  1  6  0  0  0
 28 26  1  0  0  0  0
 28 23  1  0  0  0  0
 29 30  1  0  0  0  0
 30 21  1  0  0  0  0
 31 30  1  0  0  0  0
 32 33  2  0  0  0  0
 32 34  1  0  0  0  0
 34 35  1  0  0  0  0
M  END
>  <minimizedAffinity>
-5.83816195

$$$$

 OpenBabel03242510103D

 35 38  0  0  1  0  0  0  0  0999 V2000
   41.0040   30.5550   37.8580 Br  0  0  0  0  0  0  0  0  0  0  0  0
   40.1010   31.6980   39.0910 C   0  0  0  0  0  0  0  0  0  0  0  0
   40.7220   32.8370   39.5730 C   0  0  0  0  0  0  0  0  0  0  0  0
   40.0890   33.6800   40.4820 C   0  0  0  0  0  0  0  0  0  0  0  0
   38.8260   33.3390   40.8820 C   0  0  0  0  0  0  0  0  0  0  0  0
   38.2400   32.1990   40.3830 C   0  0  0  0  0  0  0  0  0  0  0  0
   38.8370   31.3670   39.4990 C   0  0  0  0  0  0  0  0  0  0  0  0
   40.5970   34.5720   40.8470 H   0  0  0  0  0  0  0  0  0  0  0  0
   38.3150   33.9940   41.5990 H   0  0  0  0  0  0  0  0  0  0  0  0
   37.2510   32.0170   40.7660 H   0  0  0  0  0  0  0  0  0  0  0  0
   44.3680   32.9720   39.3660 C   0  0  0  0  0  0  0  0  0  0  0  0
   44.6220   33.7130   38.1990 C   0  0  0  0  0  0  0  0  0  0  0  0
   43.5090   34.1610   37.4930 C   0  0  0  0  0  0  0  0  0  0  0  0
   42.2750   33.8610   37.9650 N   0  0  0  0  0  0  0  0  0  0  0  0
   42.0740   33.1400   39.0980 C   0  0  0  0  0  0  0  0  0  0  0  0
   43.1360   32.6970   39.7970 N   0  0  0  0  0  0  0  0  0  0  0  0
   45.2860   32.6620   39.8560 H   0  0  0  0  0  0  0  0  0  0  0  0
   45.5670   33.9730   37.7900 H   0  0  0  0  0  0  0  0  0  0  0  0
   43.5000   34.7470   36.5700 H   0  0  0  0  0  0  0  0  0  0  0  0
   38.1880   30.1320   38.9790 C   0  0  0  0  0  2  0  0  0  0  0  0
   38.2200   28.9890   39.8890 C   0  0  0  0  0  0  0  0  0  0  0  0
   37.2020   28.7960   40.6870 C   0  0  0  0  0  0  0  0  0  0  0  0
   37.2190   27.6820   41.5680 N   0  0  0  0  0  0  0  0  0  0  0  0
   36.9730   27.1930   42.9060 C   0  0  0  0  0  0  0  0  0  0  0  0
   36.3150   27.5870   43.9290 O   0  0  0  0  0  0  0  0  0  0  0  0
   37.8170   25.9910   42.6340 C   0  0  0  0  0  3  0  0  0  0  0  0
   37.2420   25.0790   42.9400 H   0  0  0  0  0  0  0  0  0  0  0  0
   37.6270   26.3290   41.1730 C   0  0  2  0  0  3  0  0  0  0  0  0
   39.0830   26.4580   40.1610 S   0  0  0  0  0  0  0  0  0  0  0  0
   39.4560   28.1820   39.8160 C   0  0  0  0  0  3  0  0  0  0  0  0
   40.2500   28.5840   40.5040 H   0  0  0  0  0  0  0  0  0  0  0  0
   36.0060   29.6400   40.7540 C   0  0  0  0  0  0  0  0  0  0  0  0
   34.8980   29.4260   40.2110 O   0  0  0  0  0  0  0  0  0  0  0  0
   35.4490   30.7860   41.2420 O   0  0  0  0  0  0  0  0  0  0  0  0
   35.0790   30.8420   42.2010 H   0  0  0  0  0  0  0  0  0  0  0  0
  1  2  1  0  0  0  0
  2  7  2  0  0  0  0
  2  3  1  0  0  0  0
  3  4  2  0  0  0  0
  4  8  1  0  0  0  0
  4  5  1  0  0  0  0
  5  9  1  0  0  0  0
  6 10  1  0  0  0  0
  6  5  2  0  0  0  0
  7  6  1  0  0  0  0
 11 16  1  0  0  0  0
 11 17  1  0  0  0  0
 12 11  2  0  0  0  0
 13 14  2  0  0  0  0
 13 12  1  0  0  0  0
 14 15  1  0  0  0  0
 15  3  1  0  0  0  0
 15 16  2  0  0  0  0
 18 12  1  0  0  0  0
 19 13  1  0  0  0  0
 20  7  1  0  0  0  0
 20 21  1  0  0  0  0
 21 22  2  0  0  0  0
 22 32  1  0  0  0  0
 22 23  1  0  0  0  0
 23 24  1  0  0  0  0
 24 25  2  0  0  0  0
 26 24  1  0  0  0  0
 26 27  1  0  0  0  0
 28 29  1  6  0  0  0
 28 23  1  0  0  0  0
 28 26  1  0  0  0  0
 30 21  1  0  0  0  0
 30 29  1  0  0  0  0
 30 31  1  0  0  0  0
 32 34  1  0  0  0  0
 33 32  2  0  0  0  0
 34 35  1  0  0  0  0
M  END
>  <minimizedAffinity>
-5.77025366

$$$$

 OpenBabel03242510103D

 35 38  0  0  1  0  0  0  0  0999 V2000
   37.5950   25.7730   38.2420 Br  0  0  0  0  0  0  0  0  0  0  0  0
   37.2710   25.9520   40.1140 C   0  0  0  0  0  0  0  0  0  0  0  0
   37.0770   24.8300   40.9010 C   0  0  0  0  0  0  0  0  0  0  0  0
   36.8290   24.9340   42.2660 C   0  0  0  0  0  0  0  0  0  0  0  0
   36.7830   26.1910   42.8040 C   0  0  0  0  0  0  0  0  0  0  0  0
   36.9800   27.2840   41.9910 C   0  0  0  0  0  0  0  0  0  0  0  0
   37.2230   27.2050   40.6620 C   0  0  0  0  0  0  0  0  0  0  0  0
   36.6800   24.0370   42.8660 H   0  0  0  0  0  0  0  0  0  0  0  0
   36.5870   26.2890   43.8790 H   0  0  0  0  0  0  0  0  0  0  0  0
   36.9160   28.2260   42.5080 H   0  0  0  0  0  0  0  0  0  0  0  0
   38.3500   21.6130   39.7230 C   0  0  0  0  0  0  0  0  0  0  0  0
   37.2630   21.0360   39.0450 C   0  0  0  0  0  0  0  0  0  0  0  0
   36.0880   21.7830   39.0070 C   0  0  0  0  0  0  0  0  0  0  0  0
   36.0680   22.9940   39.6130 N   0  0  0  0  0  0  0  0  0  0  0  0
   37.1430   23.5150   40.2580 C   0  0  0  0  0  0  0  0  0  0  0  0
   38.2890   22.8110   40.3070 N   0  0  0  0  0  0  0  0  0  0  0  0
   39.2240   20.9690   39.7060 H   0  0  0  0  0  0  0  0  0  0  0  0
   37.2290   20.0940   38.5570 H   0  0  0  0  0  0  0  0  0  0  0  0
   35.1420   21.5080   38.5330 H   0  0  0  0  0  0  0  0  0  0  0  0
   37.4230   28.4010   39.8000 C   0  0  0  0  0  2  0  0  0  0  0  0
   38.5540   29.2490   40.1740 C   0  0  0  0  0  0  0  0  0  0  0  0
   38.3120   30.4650   40.5910 C   0  0  0  0  0  0  0  0  0  0  0  0
   39.4030   31.2940   40.9660 N   0  0  0  0  0  0  0  0  0  0  0  0
   40.0120   32.6030   40.8880 C   0  0  0  0  0  0  0  0  0  0  0  0
   39.6280   33.7860   40.5950 O   0  0  0  0  0  0  0  0  0  0  0  0
   41.3270   32.0270   41.3010 C   0  0  0  0  0  3  0  0  0  0  0  0
   41.7370   32.6480   42.1390 H   0  0  0  0  0  0  0  0  0  0  0  0
   40.5260   30.8450   41.7980 C   0  0  2  0  0  3  0  0  0  0  0  0
   41.0170   29.2280   41.2470 S   0  0  0  0  0  0  0  0  0  0  0  0
   39.8780   28.6170   39.9980 C   0  0  0  0  0  3  0  0  0  0  0  0
   40.2740   28.7750   38.9580 H   0  0  0  0  0  0  0  0  0  0  0  0
   36.9840   31.0690   40.7190 C   0  0  0  0  0  0  0  0  0  0  0  0
   36.5250   32.0330   40.0620 O   0  0  0  0  0  0  0  0  0  0  0  0
   35.7810   31.0460   41.3630 O   0  0  0  0  0  0  0  0  0  0  0  0
   35.0370   30.3850   41.0980 H   0  0  0  0  0  0  0  0  0  0  0  0
  1  2  1  0  0  0  0
  2  7  2  0  0  0  0
  2  3  1  0  0  0  0
  3  4  2  0  0  0  0
  4  5  1  0  0  0  0
  4  8  1  0  0  0  0
  5  9  1  0  0  0  0
  6 10  1  0  0  0  0
  6  5  2  0  0  0  0
  7  6  1  0  0  0  0
 11 16  1  0  0  0  0
 12 11  2  0  0  0  0
 13 12  1  0  0  0  0
 13 14  2  0  0  0  0
 14 15  1  0  0  0  0
 15 16  2  0  0  0  0
 15  3  1  0  0  0  0
 17 11  1  0  0  0  0
 18 12  1  0  0  0  0
 19 13  1  0  0  0  0
 20 21  1  0  0  0  0
 20  7  1  0  0  0  0
 21 22  2  0  0  0  0
 22 32  1  0  0  0  0
 22 23  1  0  0  0  0
 23 28  1  0  0  0  0
 24 23  1  0  0  0  0
 24 26  1  0  0  0  0
 25 24  2  0  0  0  0
 26 28  1  0  0  0  0
 26 27  1  0  0  0  0
 28 29  1  6  0  0  0
 30 21  1  0  0  0  0
 30 29  1  0  0  0  0
 31 30  1  0  0  0  0
 32 34  1  0  0  0  0
 33 32  2  0  0  0  0
 35 34  1  0  0  0  0
M  END
>  <minimizedAffinity>
-5.69312906

$$$$

 OpenBabel03242510103D

 35 38  0  0  1  0  0  0  0  0999 V2000
   41.5240   31.0220   41.2580 Br  0  0  0  0  0  0  0  0  0  0  0  0
   39.6790   31.3080   40.8600 C   0  0  0  0  0  0  0  0  0  0  0  0
   39.3030   32.2730   39.9420 C   0  0  0  0  0  0  0  0  0  0  0  0
   37.9650   32.5090   39.6420 C   0  0  0  0  0  0  0  0  0  0  0  0
   37.0310   31.7470   40.2910 C   0  0  0  0  0  0  0  0  0  0  0  0
   37.4410   30.7970   41.1980 C   0  0  0  0  0  0  0  0  0  0  0  0
   38.7370   30.5520   41.5030 C   0  0  0  0  0  0  0  0  0  0  0  0
   37.6920   33.2740   38.9160 H   0  0  0  0  0  0  0  0  0  0  0  0
   35.9720   31.9230   40.0660 H   0  0  0  0  0  0  0  0  0  0  0  0
   36.6310   30.2590   41.6580 H   0  0  0  0  0  0  0  0  0  0  0  0
   41.7330   34.9110   39.2390 C   0  0  0  0  0  0  0  0  0  0  0  0
   42.3460   34.5080   38.0410 C   0  0  0  0  0  0  0  0  0  0  0  0
   41.9010   33.3100   37.4870 C   0  0  0  0  0  0  0  0  0  0  0  0
   40.9230   32.6230   38.1250 N   0  0  0  0  0  0  0  0  0  0  0  0
   40.3570   33.0490   39.2840 C   0  0  0  0  0  0  0  0  0  0  0  0
   40.7720   34.2040   39.8370 N   0  0  0  0  0  0  0  0  0  0  0  0
   42.1360   35.8510   39.6030 H   0  0  0  0  0  0  0  0  0  0  0  0
   43.1130   35.0100   37.5040 H   0  0  0  0  0  0  0  0  0  0  0  0
   42.2510   32.8330   36.5680 H   0  0  0  0  0  0  0  0  0  0  0  0
   39.1580   29.5260   42.4950 C   0  0  0  0  0  2  0  0  0  0  0  0
   39.2870   28.1710   41.9630 C   0  0  0  0  0  0  0  0  0  0  0  0
   38.2740   27.3520   42.0840 C   0  0  0  0  0  0  0  0  0  0  0  0
   38.3860   26.0360   41.5620 N   0  0  0  0  0  0  0  0  0  0  0  0
   38.1590   24.6240   41.7770 C   0  0  0  0  0  0  0  0  0  0  0  0
   37.4370   23.9110   42.5550 O   0  0  0  0  0  0  0  0  0  0  0  0
   39.1320   24.2910   40.6940 C   0  0  0  0  0  3  0  0  0  0  0  0
   38.6490   23.5570   39.9990 H   0  0  0  0  0  0  0  0  0  0  0  0
   38.9450   25.7220   40.2420 C   0  0  2  0  0  3  0  0  0  0  0  0
   40.4050   26.7080   40.0050 S   0  0  0  0  0  0  0  0  0  0  0  0
   40.6030   27.8720   41.3600 C   0  0  0  0  0  3  0  0  0  0  0  0
   41.3310   27.4970   42.1300 H   0  0  0  0  0  0  0  0  0  0  0  0
   36.9950   27.6750   42.7210 C   0  0  0  0  0  0  0  0  0  0  0  0
   35.8910   27.8510   42.1540 O   0  0  0  0  0  0  0  0  0  0  0  0
   36.3360   27.9200   43.8900 O   0  0  0  0  0  0  0  0  0  0  0  0
   36.0120   27.1560   44.5000 H   0  0  0  0  0  0  0  0  0  0  0  0
  2  1  1  0  0  0  0
  2  7  1  0  0  0  0
  3  2  2  0  0  0  0
  4  3  1  0  0  0  0
  4  5  2  0  0  0  0
  5  6  1  0  0  0  0
  6  7  2  0  0  0  0
  6 10  1  0  0  0  0
  7 20  1  0  0  0  0
  8  4  1  0  0  0  0
  9  5  1  0  0  0  0
 11 17  1  0  0  0  0
 11 16  1  0  0  0  0
 12 11  2  0  0  0  0
 13 12  1  0  0  0  0
 13 14  2  0  0  0  0
 14 15  1  0  0  0  0
 15 16  2  0  0  0  0
 15  3  1  0  0  0  0
 18 12  1  0  0  0  0
 19 13  1  0  0  0  0
 21 22  2  0  0  0  0
 21 20  1  0  0  0  0
 22 32  1  0  0  0  0
 23 24  1  0  0  0  0
 23 22  1  0  0  0  0
 24 25  2  0  0  0  0
 26 24  1  0  0  0  0
 27 26  1  0  0  0  0
 28 29  1  1  0  0  0
 28 26  1  0  0  0  0
 28 23  1  0  0  0  0
 29 30  1  0  0  0  0
 30 21  1  0  0  0  0
 30 31  1  0  0  0  0
 32 34  1  0  0  0  0
 33 32  2  0  0  0  0
 34 35  1  0  0  0  0
M  END
>  <minimizedAffinity>
-5.66882086

$$$$
