
 OpenBabel03242514333D

 33 36  0  0  1  0  0  0  0  0999 V2000
   48.0010   33.7820   39.8150 C   0  0  2  0  0  0  0  0  0  0  0  0
   46.7230   33.9080   39.9030 O   0  0  0  0  0  0  0  0  0  0  0  0
   50.8560   31.3050   37.4890 C   0  0  0  0  0  0  0  0  0  0  0  0
   49.7310   31.5200   36.8300 C   0  0  0  0  0  0  0  0  0  0  0  0
   48.5840   32.0230   37.5050 N   0  0  0  0  0  0  0  0  0  0  0  0
   47.5340   33.0190   37.4640 C   0  0  0  0  0  0  0  0  0  0  0  0
   46.9920   33.7590   36.5720 O   0  0  0  0  0  0  0  0  0  0  0  0
   47.3750   32.7990   38.8990 C   0  0  1  0  0  0  0  0  0  0  0  0
   48.0710   31.4780   38.7470 C   0  0  2  0  0  0  0  0  0  0  0  0
   49.4500   31.1740   39.8440 S   0  0  0  0  0  0  0  0  0  0  0  0
   50.9640   31.5970   38.9420 C   0  0  0  0  0  0  0  0  0  0  0  0
   51.0880   32.7090   39.0860 H   0  0  0  0  0  0  0  0  0  0  0  0
   51.9940   30.7790   36.7470 C   0  0  0  0  0  0  0  0  0  0  0  0
   52.8600   30.6680   37.4620 H   0  0  0  0  0  0  0  0  0  0  0  0
   49.6550   31.2310   35.3890 C   0  0  0  0  0  0  0  0  0  0  0  0
   49.2730   30.1470   34.8860 O   0  0  0  0  0  0  0  0  0  0  0  0
   49.9800   32.0610   34.3580 O   0  0  0  0  0  0  0  0  0  0  0  0
   50.6400   31.7780   33.6460 H   0  0  0  0  0  0  0  0  0  0  0  0
   48.6360   34.6590   40.6340 O   0  0  0  0  0  0  0  0  0  0  0  0
   49.4470   35.5960   42.8820 O   0  0  0  0  0  0  0  0  0  0  0  0
   49.1980   34.3020   42.1650 P   0  0  2  0  0  0  0  0  0  0  0  0
   50.6750   33.5110   42.0500 O   0  0  0  0  0  0  0  0  0  0  0  0
   50.5760   32.5680   41.7560 H   0  0  0  0  0  0  0  0  0  0  0  0
   48.0580   33.3500   43.0140 O   0  0  0  0  0  0  0  0  0  0  0  0
   46.3140   35.0030   43.0070 C   0  0  0  0  0  0  0  0  0  0  0  0
   46.9680   33.9440   43.6600 C   0  0  0  0  0  0  0  0  0  0  0  0
   46.4990   33.5430   44.9050 C   0  0  0  0  0  0  0  0  0  0  0  0
   45.4320   34.1840   45.4450 N   0  0  0  0  0  0  0  0  0  0  0  0
   44.8250   35.2000   44.7910 C   0  0  0  0  0  0  0  0  0  0  0  0
   45.2700   35.5940   43.5910 N   0  0  0  0  0  0  0  0  0  0  0  0
   46.6040   35.3880   42.0370 H   0  0  0  0  0  0  0  0  0  0  0  0
   47.0440   32.7270   45.3480 H   0  0  0  0  0  0  0  0  0  0  0  0
   43.9910   35.6070   45.3520 H   0  0  0  0  0  0  0  0  0  0  0  0
  1  2  1  0  0  0  0
  1 19  1  1  0  0  0
  3 11  1  0  0  0  0
  4  3  2  0  0  0  0
  4  5  1  0  0  0  0
  5  9  1  0  0  0  0
  6  5  1  0  0  0  0
  7  6  2  0  0  0  0
  8  6  1  6  0  0  0
  8  1  1  0  0  0  0
  8  2  1  0  0  0  0
  9  8  1  0  0  0  0
  9 10  1  1  0  0  0
 11 12  1  0  0  0  0
 11 10  1  0  0  0  0
 13 14  1  0  0  0  0
 13  3  1  0  0  0  0
 15  4  1  0  0  0  0
 16 15  2  0  0  0  0
 17 15  1  0  0  0  0
 18 17  1  0  0  0  0
 19 21  1  0  0  0  0
 21 20  2  1  0  0  0
 21 24  1  0  0  0  0
 22 21  1  0  0  0  0
 23 22  1  0  0  0  0
 24 26  1  0  0  0  0
 25 30  2  0  0  0  0
 25 26  1  0  0  0  0
 26 27  2  0  0  0  0
 27 32  1  0  0  0  0
 27 28  1  0  0  0  0
 29 33  1  0  0  0  0
 29 28  2  0  0  0  0
 30 29  1  0  0  0  0
 31 25  1  0  0  0  0
M  END
>  <minimizedAffinity>
-4.74737358

>  <minimizedRMSD>
1.11277235

$$$$
