
 OpenBabel03242520003D

 37 40  0  0  1  0  0  0  0  0999 V2000
   44.6590   32.9830   41.2580 Br  0  0  0  0  0  0  0  0  0  0  0  0
   46.2960   33.9240   41.0240 C   0  0  0  0  0  0  0  0  0  0  0  0
   46.8200   34.7460   42.0060 C   0  0  0  0  0  0  0  0  0  0  0  0
   48.0170   35.3980   41.7430 C   0  0  0  0  0  0  0  0  0  0  0  0
   48.6900   35.2510   40.5460 C   0  0  0  0  0  0  0  0  0  0  0  0
   48.1690   34.4290   39.5640 C   0  0  0  0  0  0  0  0  0  0  0  0
   46.9720   33.7850   39.8430 C   0  0  0  0  0  0  0  0  0  0  0  0
   48.4030   36.0260   42.5090 H   0  0  0  0  0  0  0  0  0  0  0  0
   49.6230   35.8110   40.4450 H   0  0  0  0  0  0  0  0  0  0  0  0
   48.7120   34.3250   38.6250 H   0  0  0  0  0  0  0  0  0  0  0  0
   44.4830   35.9370   44.7300 C   0  0  0  0  0  0  0  0  0  0  0  0
   45.1760   35.8640   43.5110 C   0  0  0  0  0  0  0  0  0  0  0  0
   46.0810   34.8620   43.2510 C   0  0  0  0  0  0  0  0  0  0  0  0
   46.2430   33.9560   44.2720 N   0  0  0  0  0  0  0  0  0  0  0  0
   45.5780   34.0350   45.4310 C   0  0  0  0  0  0  0  0  0  0  0  0
   44.7110   35.0070   45.6620 N   0  0  0  0  0  0  0  0  0  0  0  0
   43.7740   36.7190   44.9400 H   0  0  0  0  0  0  0  0  0  0  0  0
   44.9890   36.6090   42.7740 H   0  0  0  0  0  0  0  0  0  0  0  0
   45.8670   33.2160   46.0810 H   0  0  0  0  0  0  0  0  0  0  0  0
   46.4610   32.9120   38.8090 C   0  0  1  0  0  3  0  0  0  0  0  0
   45.4930   33.3100   38.0620 O   0  0  0  0  0  1  0  0  0  0  0  0
   48.6390   27.9810   39.0380 C   0  0  0  0  0  0  0  0  0  0  0  0
   47.4340   28.3300   39.3850 C   0  0  0  0  0  0  0  0  0  0  0  0
   46.9300   29.6160   39.1580 N   0  0  0  0  0  0  0  0  0  0  0  0
   45.8590   30.4930   38.7790 C   0  0  0  0  0  0  0  0  0  0  0  0
   44.5890   30.3580   38.8100 O   0  0  0  0  0  0  0  0  0  0  0  0
   46.8340   31.5390   38.3700 C   0  0  2  0  0  3  0  0  0  0  0  0
   47.7530   30.7970   39.3440 C   0  0  2  0  0  3  0  0  0  0  0  0
   49.3790   30.5850   38.5550 S   0  0  0  0  0  0  0  0  0  0  0  0
   49.6440   28.8220   38.3750 C   0  0  0  0  0  3  0  0  0  0  0  0
   50.6280   28.5960   38.8810 H   0  0  0  0  0  0  0  0  0  0  0  0
   49.0130   26.5790   39.3560 C   0  0  0  0  0  2  0  0  0  0  0  0
   48.6260   26.2870   40.3680 H   0  0  0  0  0  0  0  0  0  0  0  0
   46.6080   27.3210   40.0330 C   0  0  0  0  0  0  0  0  0  0  0  0
   45.9170   27.5420   41.0820 O   0  0  0  0  0  0  0  0  0  0  0  0
   45.9030   26.2360   40.4760 O   0  0  0  0  0  0  0  0  0  0  0  0
   45.8870   25.3300   39.9960 H   0  0  0  0  0  0  0  0  0  0  0  0
  2  1  1  0  0  0  0
  2  3  1  0  0  0  0
  3 13  1  0  0  0  0
  4  3  2  0  0  0  0
  4  8  1  0  0  0  0
  5  4  1  0  0  0  0
  6  7  1  0  0  0  0
  6  5  2  0  0  0  0
  7  2  2  0  0  0  0
  9  5  1  0  0  0  0
 10  6  1  0  0  0  0
 11 17  1  0  0  0  0
 11 16  1  0  0  0  0
 12 11  2  0  0  0  0
 13 12  1  0  0  0  0
 13 14  2  0  0  0  0
 14 15  1  0  0  0  0
 15 16  2  0  0  0  0
 15 19  1  0  0  0  0
 18 12  1  0  0  0  0
 20 21  1  6  0  0  0
 20  7  1  0  0  0  0
 22 32  1  0  0  0  0
 22 23  2  0  0  0  0
 23 34  1  0  0  0  0
 24 28  1  0  0  0  0
 24 23  1  0  0  0  0
 25 26  2  0  0  0  0
 25 24  1  0  0  0  0
 27 25  1  0  0  0  0
 27 20  1  1  0  0  0
 27 28  1  0  0  0  0
 28 29  1  6  0  0  0
 30 29  1  0  0  0  0
 30 31  1  0  0  0  0
 30 22  1  0  0  0  0
 32 33  1  0  0  0  0
 34 36  1  0  0  0  0
 34 35  2  0  0  0  0
 37 36  1  0  0  0  0
M  END
>  <minimizedAffinity>
-4.94897747

>  <minimizedRMSD>
2.93534517

$$$$
