
 OpenBabel03252504413D

 52 56  0  0  1  0  0  0  0  0999 V2000
   45.5550   33.0330   46.8500 C   0  0  0  0  0  0  0  0  0  0  0  0
   44.5480   32.5970   46.6670 H   0  0  0  0  0  0  0  0  0  0  0  0
   45.4190   34.0660   47.2310 H   0  0  0  0  0  0  0  0  0  0  0  0
   46.3150   32.2300   47.8550 C   0  0  0  0  0  0  0  0  0  0  0  0
   45.8570   31.8090   49.0750 C   0  0  0  0  0  0  0  0  0  0  0  0
   46.8560   31.1290   49.6380 N   0  0  0  0  0  0  0  0  0  0  0  0
   47.9330   31.0950   48.8370 C   0  0  0  0  0  0  0  0  0  0  0  0
   47.5830   31.7900   47.7190 N   0  0  0  0  0  0  0  0  0  0  0  0
   49.2090   30.5050   48.9950 N   0  0  0  0  0  0  0  0  0  0  0  0
   50.2520   31.3170   49.6590 C   0  0  0  0  0  0  0  0  0  0  0  0
   50.3720   30.7180   51.0550 C   0  0  0  0  0  0  0  0  0  0  0  0
   50.4730   29.2150   50.9810 C   0  0  0  0  0  0  0  0  0  0  0  0
   50.8330   28.8030   49.5750 C   0  0  0  0  0  0  0  0  0  0  0  0
   49.7280   29.2210   48.6290 C   0  0  0  0  0  0  0  0  0  0  0  0
   44.8760   31.9820   49.5190 H   0  0  0  0  0  0  0  0  0  0  0  0
   46.8550   30.6630   50.5800 H   0  0  0  0  0  0  0  0  0  0  0  0
   51.1920   31.3150   49.1020 H   0  0  0  0  0  0  0  0  0  0  0  0
   49.9090   32.3690   49.8000 H   0  0  0  0  0  0  0  0  0  0  0  0
   49.5710   31.0780   51.7030 H   0  0  0  0  0  0  0  0  0  0  0  0
   51.3400   31.1040   51.4750 H   0  0  0  0  0  0  0  0  0  0  0  0
   49.4740   28.7860   51.2100 H   0  0  0  0  0  0  0  0  0  0  0  0
   51.1660   28.7910   51.7210 H   0  0  0  0  0  0  0  0  0  0  0  0
   51.7630   29.3580   49.2960 H   0  0  0  0  0  0  0  0  0  0  0  0
   51.0570   27.7280   49.5090 H   0  0  0  0  0  0  0  0  0  0  0  0
   48.9450   28.4290   48.7220 H   0  0  0  0  0  0  0  0  0  0  0  0
   50.0540   29.2760   47.5750 H   0  0  0  0  0  0  0  0  0  0  0  0
   45.9630   33.9590   44.6050 C   0  0  0  0  0  3  0  0  0  0  0  0
   46.3180   33.1450   45.5890 C   0  0  0  0  0  3  0  0  0  0  0  0
   46.8080   33.9710   43.4100 C   0  0  0  0  0  0  0  0  0  0  0  0
   46.7420   35.0580   42.4880 C   0  0  0  0  0  0  0  0  0  0  0  0
   47.5900   34.9690   41.3830 C   0  0  0  0  0  0  0  0  0  0  0  0
   48.4170   33.9090   41.2110 N   0  0  0  0  0  0  0  0  0  0  0  0
   48.4500   32.8900   42.1180 C   0  0  0  0  0  0  0  0  0  0  0  0
   47.6510   32.9500   43.1800 N   0  0  0  0  0  0  0  0  0  0  0  0
   46.0600   35.8380   42.7160 H   0  0  0  0  0  0  0  0  0  0  0  0
   47.5320   35.7930   40.6960 H   0  0  0  0  0  0  0  0  0  0  0  0
   49.3530   31.7590   42.0050 C   0  0  0  0  0  2  0  0  0  0  0  0
   50.1480   31.5770   40.8150 C   0  0  0  0  0  0  0  0  0  0  0  0
   49.9200   31.1090   39.6040 C   0  0  0  0  0  0  0  0  0  0  0  0
   50.9400   31.0320   38.6150 N   0  0  0  0  0  0  0  0  0  0  0  0
   51.3650   31.2990   37.2850 C   0  0  0  0  0  0  0  0  0  0  0  0
   50.7220   31.3320   36.1900 O   0  0  0  0  0  0  0  0  0  0  0  0
   52.7350   31.4790   37.8420 C   0  0  0  0  0  3  0  0  0  0  0  0
   53.5530   31.1980   37.1710 H   0  0  0  0  0  0  0  0  0  0  0  0
   52.2820   30.4410   38.8160 C   0  0  1  0  0  3  0  0  0  0  0  0
   52.6760   30.7510   40.5500 S   0  0  0  0  0  0  0  0  0  0  0  0
   51.5220   32.0830   41.0680 C   0  0  0  0  0  3  0  0  0  0  0  0
   51.7070   32.9340   40.3750 H   0  0  0  0  0  0  0  0  0  0  0  0
   48.5720   30.6480   39.3200 C   0  0  0  0  0  0  0  0  0  0  0  0
   48.4020   29.7240   38.4910 O   0  0  0  0  0  0  0  0  0  0  0  0
   47.2720   30.2670   39.1030 O   0  0  0  0  0  0  0  0  0  0  0  0
   46.5470   30.1910   39.8350 H   0  0  0  0  0  0  0  0  0  0  0  0
  1  3  1  0  0  0  0
  1  4  1  0  0  0  0
  2  1  1  0  0  0  0
  4  5  2  0  0  0  0
  5 15  1  0  0  0  0
  5  6  1  0  0  0  0
  6 16  1  0  0  0  0
  7  9  1  0  0  0  0
  7  6  1  0  0  0  0
  8  4  1  0  0  0  0
  8  7  2  0  0  0  0
  9 10  1  0  0  0  0
 10 18  1  0  0  0  0
 10 11  1  0  0  0  0
 11 20  1  0  0  0  0
 11 19  1  0  0  0  0
 12 11  1  0  0  0  0
 12 21  1  0  0  0  0
 12 22  1  0  0  0  0
 13 12  1  0  0  0  0
 14 25  1  0  0  0  0
 14  9  1  0  0  0  0
 14 13  1  0  0  0  0
 17 10  1  0  0  0  0
 23 13  1  0  0  0  0
 24 13  1  0  0  0  0
 26 14  1  0  0  0  0
 27 28  2  0  0  0  0
 28  1  1  0  0  0  0
 29 27  1  0  0  0  0
 30 35  1  0  0  0  0
 30 29  2  0  0  0  0
 31 30  1  0  0  0  0
 32 31  2  0  0  0  0
 32 33  1  0  0  0  0
 33 34  2  0  0  0  0
 34 29  1  0  0  0  0
 36 31  1  0  0  0  0
 37 33  1  0  0  0  0
 38 47  1  0  0  0  0
 38 37  1  0  0  0  0
 39 38  2  0  0  0  0
 40 45  1  0  0  0  0
 40 39  1  0  0  0  0
 41 43  1  0  0  0  0
 41 40  1  0  0  0  0
 42 41  2  0  0  0  0
 44 43  1  0  0  0  0
 45 43  1  6  0  0  0
 45 46  1  0  0  0  0
 46 47  1  0  0  0  0
 48 47  1  0  0  0  0
 49 39  1  0  0  0  0
 50 49  2  0  0  0  0
 51 49  1  0  0  0  0
 51 52  1  0  0  0  0
M  END
>  <minimizedAffinity>
-6.1573863

>  <minimizedRMSD>
1.11302054

$$$$
