
 OpenBabel03252504413D

 52 56  0  0  1  0  0  0  0  0999 V2000
   45.7170   32.9720   46.7570 C   0  0  0  0  0  0  0  0  0  0  0  0
   44.6880   32.5780   46.6120 H   0  0  0  0  0  0  0  0  0  0  0  0
   45.6380   34.0230   47.1030 H   0  0  0  0  0  0  0  0  0  0  0  0
   46.4620   32.1720   47.7750 C   0  0  0  0  0  0  0  0  0  0  0  0
   46.0510   31.8940   49.0520 C   0  0  0  0  0  0  0  0  0  0  0  0
   47.0140   31.1560   49.6050 N   0  0  0  0  0  0  0  0  0  0  0  0
   48.0230   30.9480   48.7440 C   0  0  0  0  0  0  0  0  0  0  0  0
   47.6660   31.5900   47.5960 N   0  0  0  0  0  0  0  0  0  0  0  0
   49.2410   30.2390   48.8690 N   0  0  0  0  0  0  0  0  0  0  0  0
   50.4050   30.9830   49.3960 C   0  0  0  0  0  0  0  0  0  0  0  0
   50.5620   30.4810   50.8270 C   0  0  0  0  0  0  0  0  0  0  0  0
   50.5060   28.9750   50.8700 C   0  0  0  0  0  0  0  0  0  0  0  0
   50.7210   28.4230   49.4830 C   0  0  0  0  0  0  0  0  0  0  0  0
   49.6000   28.8830   48.5770 C   0  0  0  0  0  0  0  0  0  0  0  0
   45.1280   32.2030   49.5410 H   0  0  0  0  0  0  0  0  0  0  0  0
   47.0330   30.7650   50.5800 H   0  0  0  0  0  0  0  0  0  0  0  0
   51.2980   30.8390   48.7840 H   0  0  0  0  0  0  0  0  0  0  0  0
   50.1810   32.0740   49.4720 H   0  0  0  0  0  0  0  0  0  0  0  0
   49.8500   30.9720   51.4920 H   0  0  0  0  0  0  0  0  0  0  0  0
   51.5920   30.7930   51.1520 H   0  0  0  0  0  0  0  0  0  0  0  0
   49.4870   28.6730   51.1960 H   0  0  0  0  0  0  0  0  0  0  0  0
   51.2030   28.5370   51.5980 H   0  0  0  0  0  0  0  0  0  0  0  0
   51.6810   28.8530   49.1020 H   0  0  0  0  0  0  0  0  0  0  0  0
   50.8310   27.3280   49.4920 H   0  0  0  0  0  0  0  0  0  0  0  0
   48.7490   28.1880   48.7840 H   0  0  0  0  0  0  0  0  0  0  0  0
   49.8540   28.8230   47.5040 H   0  0  0  0  0  0  0  0  0  0  0  0
   46.2840   33.9560   44.5710 C   0  0  0  0  0  3  0  0  0  0  0  0
   46.4560   33.0030   45.4770 C   0  0  0  0  0  3  0  0  0  0  0  0
   47.0800   33.8660   43.3470 C   0  0  0  0  0  0  0  0  0  0  0  0
   47.7920   35.0030   42.8620 C   0  0  0  0  0  0  0  0  0  0  0  0
   48.5190   34.8080   41.6860 C   0  0  0  0  0  0  0  0  0  0  0  0
   48.5360   33.6060   41.0580 N   0  0  0  0  0  0  0  0  0  0  0  0
   47.8420   32.5440   41.5570 C   0  0  0  0  0  0  0  0  0  0  0  0
   47.1390   32.7030   42.6760 N   0  0  0  0  0  0  0  0  0  0  0  0
   47.7110   35.8960   43.4290 H   0  0  0  0  0  0  0  0  0  0  0  0
   49.0510   35.6700   41.3300 H   0  0  0  0  0  0  0  0  0  0  0  0
   47.8680   31.2250   40.9500 C   0  0  0  0  0  2  0  0  0  0  0  0
   46.7220   30.7370   40.2190 C   0  0  0  0  0  0  0  0  0  0  0  0
   45.9180   31.2380   39.3050 C   0  0  0  0  0  0  0  0  0  0  0  0
   44.8250   30.5010   38.7660 N   0  0  0  0  0  0  0  0  0  0  0  0
   44.1140   30.0430   37.6240 C   0  0  0  0  0  0  0  0  0  0  0  0
   43.9300   30.5690   36.4840 O   0  0  0  0  0  0  0  0  0  0  0  0
   43.7860   28.8240   38.4170 C   0  0  0  0  0  3  0  0  0  0  0  0
   42.8220   28.3610   38.1830 H   0  0  0  0  0  0  0  0  0  0  0  0
   43.8080   29.7800   39.5640 C   0  0  1  0  0  3  0  0  0  0  0  0
   44.6790   29.2250   41.0450 S   0  0  0  0  0  0  0  0  0  0  0  0
   46.4610   29.3280   40.6140 C   0  0  0  0  0  3  0  0  0  0  0  0
   46.5950   28.6890   39.7120 H   0  0  0  0  0  0  0  0  0  0  0  0
   46.1810   32.6000   38.8710 C   0  0  0  0  0  0  0  0  0  0  0  0
   45.4810   33.1010   37.9600 O   0  0  0  0  0  0  0  0  0  0  0  0
   46.4880   33.8880   38.5150 O   0  0  0  0  0  0  0  0  0  0  0  0
   46.7550   34.6380   39.1750 H   0  0  0  0  0  0  0  0  0  0  0  0
  1  3  1  0  0  0  0
  1  4  1  0  0  0  0
  2  1  1  0  0  0  0
  4  5  2  0  0  0  0
  5 15  1  0  0  0  0
  5  6  1  0  0  0  0
  6 16  1  0  0  0  0
  7  9  1  0  0  0  0
  7  6  1  0  0  0  0
  8  4  1  0  0  0  0
  8  7  2  0  0  0  0
  9 10  1  0  0  0  0
 10 18  1  0  0  0  0
 10 11  1  0  0  0  0
 11 12  1  0  0  0  0
 11 20  1  0  0  0  0
 11 19  1  0  0  0  0
 12 21  1  0  0  0  0
 12 22  1  0  0  0  0
 13 24  1  0  0  0  0
 13 12  1  0  0  0  0
 14 25  1  0  0  0  0
 14  9  1  0  0  0  0
 14 13  1  0  0  0  0
 17 10  1  0  0  0  0
 23 13  1  0  0  0  0
 26 14  1  0  0  0  0
 27 28  2  0  0  0  0
 28  1  1  0  0  0  0
 29 27  1  0  0  0  0
 30 29  1  0  0  0  0
 30 35  1  0  0  0  0
 31 30  2  0  0  0  0
 32 33  2  0  0  0  0
 32 31  1  0  0  0  0
 33 34  1  0  0  0  0
 34 29  2  0  0  0  0
 36 31  1  0  0  0  0
 37 33  1  0  0  0  0
 38 47  1  0  0  0  0
 38 37  1  0  0  0  0
 39 38  2  0  0  0  0
 40 39  1  0  0  0  0
 40 45  1  0  0  0  0
 41 43  1  0  0  0  0
 41 40  1  0  0  0  0
 42 41  2  0  0  0  0
 44 43  1  0  0  0  0
 45 43  1  6  0  0  0
 45 46  1  0  0  0  0
 47 46  1  0  0  0  0
 48 47  1  0  0  0  0
 49 39  1  0  0  0  0
 50 49  2  0  0  0  0
 51 49  1  0  0  0  0
 51 52  1  0  0  0  0
M  END
>  <minimizedAffinity>
-5.22868156

>  <minimizedRMSD>
4.58937788

$$$$
