
 OpenBabel03242519413D

 36 40  0  0  1  0  0  0  0  0999 V2000
   47.2250   33.8920   39.7490 O   0  0  0  0  0  0  0  0  0  0  0  0
   48.1420   32.8880   41.9770 O   0  0  0  0  0  0  0  0  0  0  0  0
   47.2320   33.9810   41.4060 P   0  0  2  0  0  0  0  0  0  0  0  0
   45.6400   33.7380   41.9910 O   0  0  0  0  0  0  0  0  0  0  0  0
   44.3050   35.8330   44.6610 C   0  0  0  0  0  0  0  0  0  0  0  0
   44.6320   35.3610   43.3680 C   0  0  0  0  0  0  0  0  0  0  0  0
   45.3400   34.1610   43.2680 C   0  0  0  0  0  0  0  0  0  0  0  0
   45.6770   33.5090   44.4030 N   0  0  0  0  0  0  0  0  0  0  0  0
   45.3550   33.9790   45.6290 C   0  0  0  0  0  0  0  0  0  0  0  0
   44.6770   35.1250   45.7710 N   0  0  0  0  0  0  0  0  0  0  0  0
   43.7610   36.7540   44.7770 H   0  0  0  0  0  0  0  0  0  0  0  0
   44.3090   35.9680   42.5580 H   0  0  0  0  0  0  0  0  0  0  0  0
   45.6840   33.3610   46.4530 H   0  0  0  0  0  0  0  0  0  0  0  0
   47.7860   35.4300   41.9800 O   0  0  0  0  0  0  0  0  0  0  0  0
   49.0180   35.7880   41.4540 C   0  0  0  0  0  0  0  0  0  0  0  0
   49.4370   37.0450   41.8650 F   0  0  0  0  0  0  0  0  0  0  0  0
   49.9390   34.8220   41.7090 F   0  0  0  0  0  0  0  0  0  0  0  0
   48.8390   35.8790   40.0800 F   0  0  0  0  0  0  0  0  0  0  0  0
   46.2370   33.4260   38.9220 C   0  0  1  0  0  3  0  0  0  0  0  0
   46.4390   33.4430   37.6150 O   0  0  0  0  0  0  0  0  0  0  0  0
   41.9940   30.4510   37.9570 C   0  0  0  0  0  0  0  0  0  0  0  0
   41.9170   31.5770   38.6170 C   0  0  0  0  0  0  0  0  0  0  0  0
   43.0890   32.3260   38.9040 N   0  0  0  0  0  0  0  0  0  0  0  0
   43.7610   33.5660   39.0330 C   0  0  2  0  0  0  0  0  0  0  0  0
   43.2890   34.6630   39.4770 O   0  0  0  0  0  1  0  0  0  0  0  0
   44.9660   32.8560   38.4650 C   0  0  2  0  0  0  0  0  0  0  0  0
   44.3500   31.7500   39.2770 C   0  0  2  0  0  0  0  0  0  0  0  0
   44.6090   30.0900   38.6680 S   0  0  0  0  0  0  0  0  0  0  0  0
   43.2710   29.9210   37.4860 C   0  0  0  0  0  3  0  0  0  0  0  0
   43.5770   30.5260   36.5820 H   0  0  0  0  0  0  0  0  0  0  0  0
   40.7750   29.6970   37.6770 C   0  0  0  0  0  2  0  0  0  0  0  0
   40.9480   28.7840   37.0670 H   0  0  0  0  0  0  0  0  0  0  0  0
   40.6370   32.1010   39.0800 C   0  0  0  0  0  0  0  0  0  0  0  0
   40.1120   31.9320   40.1850 O   0  0  0  0  0  0  0  0  0  0  0  0
   39.7740   32.8960   38.3470 O   0  0  0  0  0  0  0  0  0  0  0  0
   38.7840   32.7790   38.2910 H   0  0  0  0  0  0  0  0  0  0  0  0
  1  3  1  0  0  0  0
  3  2  2  1  0  0  0
  3 14  1  0  0  0  0
  3  4  1  0  0  0  0
  4  7  1  0  0  0  0
  5 11  1  0  0  0  0
  5 10  1  0  0  0  0
  6  5  2  0  0  0  0
  7  6  1  0  0  0  0
  7  8  2  0  0  0  0
  8  9  1  0  0  0  0
  9 10  2  0  0  0  0
  9 13  1  0  0  0  0
 12  6  1  0  0  0  0
 15 17  1  0  0  0  0
 15 16  1  0  0  0  0
 15 14  1  0  0  0  0
 18 15  1  0  0  0  0
 19  1  1  1  0  0  0
 20 19  1  0  0  0  0
 21 22  2  0  0  0  0
 22 23  1  0  0  0  0
 22 33  1  0  0  0  0
 23 24  1  0  0  0  0
 23 27  1  0  0  0  0
 24 27  1  0  0  0  0
 24 25  1  1  0  0  0
 26 20  1  6  0  0  0
 26 19  1  0  0  0  0
 26 24  1  0  0  0  0
 26 27  1  0  0  0  0
 27 28  1  1  0  0  0
 29 21  1  0  0  0  0
 29 28  1  0  0  0  0
 30 29  1  0  0  0  0
 31 21  1  0  0  0  0
 32 31  1  0  0  0  0
 33 34  2  0  0  0  0
 35 33  1  0  0  0  0
 36 35  1  0  0  0  0
M  END
>  <minimizedAffinity>
-5.3982439

>  <minimizedRMSD>
3.59044027

$$$$
