
 OpenBabel03242519543D

 47 50  0  0  1  0  0  0  0  0999 V2000
   47.1190   34.0470   42.4920 C   0  0  2  0  0  0  0  0  0  0  0  0
   48.5260   34.4840   42.6370 C   0  0  0  0  0  0  0  0  0  0  0  0
   48.9120   35.5240   41.6410 C   0  0  0  0  0  0  0  0  0  0  0  0
   48.6470   35.1230   40.2150 C   0  0  0  0  0  0  0  0  0  0  0  0
   47.4050   34.3100   40.0240 C   0  0  2  0  0  0  0  0  0  0  0  0
   46.4700   34.4400   41.2100 C   0  0  0  0  0  0  0  0  0  0  0  0
   47.1530   32.9110   42.5310 H   0  0  0  0  0  0  0  0  0  0  0  0
   49.2720   33.6650   42.6050 H   0  0  0  0  0  0  0  0  0  0  0  0
   48.6320   34.9470   43.6460 H   0  0  0  0  0  0  0  0  0  0  0  0
   50.0260   35.6570   41.7370 H   0  0  0  0  0  0  0  0  0  0  0  0
   48.4820   36.5020   41.9140 H   0  0  0  0  0  0  0  0  0  0  0  0
   48.6230   36.0800   39.6170 H   0  0  0  0  0  0  0  0  0  0  0  0
   49.5430   34.5820   39.8140 H   0  0  0  0  0  0  0  0  0  0  0  0
   46.8680   34.7460   39.1500 H   0  0  0  0  0  0  0  0  0  0  0  0
   46.0010   35.4000   41.1210 H   0  0  0  0  0  0  0  0  0  0  0  0
   45.6410   33.6830   41.0510 H   0  0  0  0  0  0  0  0  0  0  0  0
   46.2570   34.4370   43.6170 C   0  0  0  0  0  0  0  0  0  0  0  0
   45.4940   35.5760   43.3730 C   0  0  0  0  0  0  0  0  0  0  0  0
   44.6150   36.0490   44.3510 C   0  0  0  0  0  0  0  0  0  0  0  0
   44.5700   35.3260   45.5300 N   0  0  0  0  0  0  0  0  0  0  0  0
   45.3280   34.2300   45.7270 C   0  0  0  0  0  0  0  0  0  0  0  0
   46.1580   33.8000   44.7730 N   0  0  0  0  0  0  0  0  0  0  0  0
   45.3740   36.2850   42.5670 H   0  0  0  0  0  0  0  0  0  0  0  0
   43.9500   36.8820   44.3750 H   0  0  0  0  0  0  0  0  0  0  0  0
   45.2570   33.6980   46.6690 H   0  0  0  0  0  0  0  0  0  0  0  0
   47.7610   32.9140   39.7080 C   0  0  0  0  0  0  0  0  0  0  0  0
   48.6680   32.6200   40.2750 H   0  0  0  0  0  0  0  0  0  0  0  0
   48.0860   32.8840   38.6340 H   0  0  0  0  0  0  0  0  0  0  0  0
   46.7320   31.8850   39.9210 C   0  0  0  0  0  0  0  0  0  0  0  0
   47.1830   31.0350   40.4710 H   0  0  0  0  0  0  0  0  0  0  0  0
   45.9260   32.2850   40.5670 H   0  0  0  0  0  0  0  0  0  0  0  0
   42.3050   30.3740   40.2510 C   0  0  0  0  0  0  0  0  0  0  0  0
   42.6240   31.1320   39.2240 C   0  0  0  0  0  0  0  0  0  0  0  0
   43.9520   31.3420   38.8480 N   0  0  0  0  0  0  0  0  0  0  0  0
   44.9350   32.2000   38.3380 C   0  0  0  0  0  0  0  0  0  0  0  0
   44.9600   33.3360   37.7580 O   0  0  0  0  0  0  0  0  0  0  0  0
   46.0770   31.3130   38.7060 C   0  0  2  0  0  3  0  0  0  0  0  0
   44.9650   30.3250   38.9510 C   0  0  1  0  0  3  0  0  0  0  0  0
   44.9300   29.6220   40.6020 S   0  0  0  0  0  0  0  0  0  0  0  0
   43.2270   29.6460   41.1510 C   0  0  0  0  0  3  0  0  0  0  0  0
   42.8800   28.5710   41.1440 H   0  0  0  0  0  0  0  0  0  0  0  0
   40.8870   30.1700   40.6220 C   0  0  0  0  0  2  0  0  0  0  0  0
   40.1770   30.3640   39.7890 H   0  0  0  0  0  0  0  0  0  0  0  0
   41.5600   31.7680   38.4600 C   0  0  0  0  0  0  0  0  0  0  0  0
   41.5090   33.0040   38.2370 O   0  0  0  0  0  0  0  0  0  0  0  0
   40.4500   32.0520   37.7210 O   0  0  0  0  0  0  0  0  0  0  0  0
   39.6150   31.4900   37.8270 H   0  0  0  0  0  0  0  0  0  0  0  0
  1  7  1  1  0  0  0
  1  2  1  0  0  0  0
  1 17  1  0  0  0  0
  2  9  1  0  0  0  0
  3 10  1  0  0  0  0
  3 11  1  0  0  0  0
  3  2  1  0  0  0  0
  4  3  1  0  0  0  0
  5 14  1  6  0  0  0
  5  4  1  0  0  0  0
  5  6  1  0  0  0  0
  6  1  1  0  0  0  0
  8  2  1  0  0  0  0
 12  4  1  0  0  0  0
 13  4  1  0  0  0  0
 15  6  1  0  0  0  0
 16  6  1  0  0  0  0
 17 22  1  0  0  0  0
 18 17  2  0  0  0  0
 18 19  1  0  0  0  0
 19 24  1  0  0  0  0
 19 20  2  0  0  0  0
 20 21  1  0  0  0  0
 21 25  1  0  0  0  0
 22 21  2  0  0  0  0
 23 18  1  0  0  0  0
 26 29  1  0  0  0  0
 26  5  1  0  0  0  0
 26 27  1  0  0  0  0
 28 26  1  0  0  0  0
 29 30  1  0  0  0  0
 29 31  1  0  0  0  0
 32 42  1  0  0  0  0
 32 40  1  0  0  0  0
 33 32  2  0  0  0  0
 34 38  1  0  0  0  0
 34 33  1  0  0  0  0
 35 37  1  0  0  0  0
 35 34  1  0  0  0  0
 36 35  2  0  0  0  0
 37 38  1  0  0  0  0
 37 29  1  1  0  0  0
 38 39  1  1  0  0  0
 39 40  1  0  0  0  0
 41 40  1  0  0  0  0
 43 42  1  0  0  0  0
 44 33  1  0  0  0  0
 45 44  2  0  0  0  0
 46 47  1  0  0  0  0
 46 44  1  0  0  0  0
M  END
>  <minimizedAffinity>
-5.42480278

>  <minimizedRMSD>
1.34445012

$$$$
