
 OpenBabel03242519203D

 41 44  0  0  1  0  0  0  0  0999 V2000
   48.1740   31.6450   42.9780 C   0  0  0  0  0  0  0  0  0  0  0  0
   49.1950   31.7690   41.9950 C   0  0  0  0  0  0  0  0  0  0  0  0
   50.3440   30.9860   42.1010 C   0  0  0  0  0  0  0  0  0  0  0  0
   50.3980   30.1330   43.1820 N   0  0  0  0  0  0  0  0  0  0  0  0
   49.4280   30.0300   44.0970 C   0  0  0  0  0  0  0  0  0  0  0  0
   48.3180   30.7860   43.9920 N   0  0  0  0  0  0  0  0  0  0  0  0
   49.2250   32.3970   41.1410 H   0  0  0  0  0  0  0  0  0  0  0  0
   51.1620   31.0060   41.4190 H   0  0  0  0  0  0  0  0  0  0  0  0
   46.9980   32.5180   42.7970 C   0  0  0  0  0  0  0  0  0  0  0  0
   47.0430   33.2940   41.5420 C   0  0  0  0  0  0  0  0  0  0  0  0
   47.2560   34.7660   41.7530 C   0  0  0  0  0  0  0  0  0  0  0  0
   46.1990   35.3620   42.6660 C   0  0  0  0  0  0  0  0  0  0  0  0
   45.8880   34.5020   43.8550 C   0  0  0  0  0  0  0  0  0  0  0  0
   46.8920   33.3960   44.0370 C   0  0  0  0  0  0  0  0  0  0  0  0
   46.1020   31.8330   42.8890 H   0  0  0  0  0  0  0  0  0  0  0  0
   46.0150   33.2110   41.0780 H   0  0  0  0  0  0  0  0  0  0  0  0
   47.7250   32.9260   40.7750 H   0  0  0  0  0  0  0  0  0  0  0  0
   47.1780   35.2670   40.7680 H   0  0  0  0  0  0  0  0  0  0  0  0
   48.2200   35.0570   42.1700 H   0  0  0  0  0  0  0  0  0  0  0  0
   45.2690   35.6210   42.1030 H   0  0  0  0  0  0  0  0  0  0  0  0
   46.5790   36.3360   43.0340 H   0  0  0  0  0  0  0  0  0  0  0  0
   44.8770   34.0380   43.6580 H   0  0  0  0  0  0  0  0  0  0  0  0
   45.8140   35.0640   44.7850 H   0  0  0  0  0  0  0  0  0  0  0  0
   47.8650   33.8500   44.2460 H   0  0  0  0  0  0  0  0  0  0  0  0
   46.5590   32.7690   44.8930 H   0  0  0  0  0  0  0  0  0  0  0  0
   49.5560   29.0780   45.2460 C   0  0  0  0  0  2  0  0  0  0  0  0
   48.2780   28.7660   45.8780 C   0  0  0  0  0  0  0  0  0  0  0  0
   47.8240   29.2790   47.0080 C   0  0  0  0  0  0  0  0  0  0  0  0
   46.5540   28.8380   47.4640 N   0  0  0  0  0  0  0  0  0  0  0  0
   45.2910   29.1580   48.0870 C   0  0  0  0  0  0  0  0  0  0  0  0
   44.8100   30.1850   48.6800 O   0  0  0  0  0  0  0  0  0  0  0  0
   44.7080   27.8340   47.7950 C   0  0  0  0  0  3  0  0  0  0  0  0
   44.3050   27.2790   48.6690 H   0  0  0  0  0  0  0  0  0  0  0  0
   46.0800   27.4480   47.3670 C   0  0  1  0  0  3  0  0  0  0  0  0
   46.1070   27.1030   45.5880 S   0  0  0  0  0  0  0  0  0  0  0  0
   47.6450   27.7830   44.9670 C   0  0  0  0  0  3  0  0  0  0  0  0
   47.4290   28.2960   44.0040 H   0  0  0  0  0  0  0  0  0  0  0  0
   48.5600   30.2630   47.8080 C   0  0  0  0  0  0  0  0  0  0  0  0
   49.6360   30.2690   48.4180 O   0  0  0  0  0  0  0  0  0  0  0  0
   48.0760   31.5250   48.0290 O   0  0  0  0  0  0  0  0  0  0  0  0
   48.6480   32.3440   47.9310 H   0  0  0  0  0  0  0  0  0  0  0  0
  1  6  1  0  0  0  0
  2  3  1  0  0  0  0
  2  1  2  0  0  0  0
  3  4  2  0  0  0  0
  4  5  1  0  0  0  0
  5 26  1  0  0  0  0
  6  5  2  0  0  0  0
  7  2  1  0  0  0  0
  8  3  1  0  0  0  0
  9 15  1  0  0  0  0
  9  1  1  0  0  0  0
  9 14  1  0  0  0  0
 10 11  1  0  0  0  0
 10  9  1  0  0  0  0
 11 19  1  0  0  0  0
 11 12  1  0  0  0  0
 12 21  1  0  0  0  0
 12 13  1  0  0  0  0
 13 14  1  0  0  0  0
 13 23  1  0  0  0  0
 14 24  1  0  0  0  0
 14 25  1  0  0  0  0
 16 10  1  0  0  0  0
 17 10  1  0  0  0  0
 18 11  1  0  0  0  0
 20 12  1  0  0  0  0
 22 13  1  0  0  0  0
 26 27  1  0  0  0  0
 27 28  2  0  0  0  0
 28 29  1  0  0  0  0
 28 38  1  0  0  0  0
 29 30  1  0  0  0  0
 30 31  2  0  0  0  0
 32 30  1  0  0  0  0
 32 33  1  0  0  0  0
 34 35  1  6  0  0  0
 34 29  1  0  0  0  0
 34 32  1  0  0  0  0
 36 35  1  0  0  0  0
 36 27  1  0  0  0  0
 37 36  1  0  0  0  0
 38 40  1  0  0  0  0
 38 39  2  0  0  0  0
 41 40  1  0  0  0  0
M  END
>  <minimizedAffinity>
-4.21781063

>  <minimizedRMSD>
2.20480347

$$$$
