
 OpenBabel03242514343D

 33 36  0  0  1  0  0  0  0  0999 V2000
   37.7900   31.0860   40.5160 C   0  0  2  0  0  3  0  0  0  0  0  0
   36.7590   31.8320   40.7070 O   0  0  0  0  0  0  0  0  0  0  0  0
   41.1930   31.0050   37.6670 C   0  0  0  0  0  0  0  0  0  0  0  0
   40.9260   32.2280   38.0910 C   0  0  0  0  0  0  0  0  0  0  0  0
   39.7020   32.5100   38.7590 N   0  0  0  0  0  0  0  0  0  0  0  0
   39.1100   33.1420   39.9190 C   0  0  0  0  0  0  0  0  0  0  0  0
   39.4580   34.0340   40.7670 O   0  0  0  0  0  0  0  0  0  0  0  0
   37.9380   32.3030   39.6830 C   0  0  1  0  0  0  0  0  0  0  0  0
   38.3990   32.1020   38.2680 C   0  0  2  0  0  3  0  0  0  0  0  0
   38.5120   30.4100   37.7010 S   0  0  0  0  0  0  0  0  0  0  0  0
   40.2380   29.8890   37.8900 C   0  0  0  0  0  3  0  0  0  0  0  0
   40.3220   29.5410   38.9600 H   0  0  0  0  0  0  0  0  0  0  0  0
   42.4580   30.7800   36.9800 C   0  0  0  0  0  2  0  0  0  0  0  0
   42.5180   29.6880   36.7020 H   0  0  0  0  0  0  0  0  0  0  0  0
   41.8950   33.3130   37.8640 C   0  0  0  0  0  0  0  0  0  0  0  0
   42.6580   33.7970   38.7340 O   0  0  0  0  0  0  0  0  0  0  0  0
   42.1370   33.9790   36.7000 O   0  0  0  0  0  0  0  0  0  0  0  0
   42.0890   34.9880   36.6540 H   0  0  0  0  0  0  0  0  0  0  0  0
   37.7160   29.9490   41.2540 O   0  0  0  0  0  0  0  0  0  0  0  0
   36.7900   27.9980   39.8650 O   0  0  0  0  0  0  0  0  0  0  0  0
   36.5200   28.7920   41.1100 P   0  0  2  0  0  0  0  0  0  0  0  0
   35.0340   29.5460   40.8990 O   0  0  0  0  0  0  0  0  0  0  0  0
   34.6900   29.9430   41.7420 H   0  0  0  0  0  0  0  0  0  0  0  0
   36.5020   27.7750   42.4840 O   0  0  0  0  0  0  0  0  0  0  0  0
   38.5820   27.4120   43.6310 C   0  0  0  0  0  0  0  0  0  0  0  0
   37.5820   26.9320   42.7670 C   0  0  0  0  0  0  0  0  0  0  0  0
   37.7190   25.6530   42.2410 C   0  0  0  0  0  0  0  0  0  0  0  0
   38.8060   24.9150   42.5800 N   0  0  0  0  0  0  0  0  0  0  0  0
   39.7510   25.4060   43.4140 C   0  0  0  0  0  0  0  0  0  0  0  0
   39.6270   26.6370   43.9250 N   0  0  0  0  0  0  0  0  0  0  0  0
   38.5660   28.3930   44.0900 H   0  0  0  0  0  0  0  0  0  0  0  0
   36.9190   25.3490   41.5880 H   0  0  0  0  0  0  0  0  0  0  0  0
   40.5530   24.6970   43.5850 H   0  0  0  0  0  0  0  0  0  0  0  0
  1  2  1  0  0  0  0
  1 19  1  6  0  0  0
  3 11  1  0  0  0  0
  3  4  2  0  0  0  0
  4  5  1  0  0  0  0
  5  6  1  0  0  0  0
  6  7  2  0  0  0  0
  8  6  1  1  0  0  0
  8  1  1  0  0  0  0
  8  2  1  0  0  0  0
  9 10  1  1  0  0  0
  9  5  1  0  0  0  0
  9  8  1  0  0  0  0
 10 11  1  0  0  0  0
 11 12  1  0  0  0  0
 13  3  1  0  0  0  0
 14 13  1  0  0  0  0
 15  4  1  0  0  0  0
 15 16  2  0  0  0  0
 17 15  1  0  0  0  0
 18 17  1  0  0  0  0
 21 20  2  6  0  0  0
 21 19  1  0  0  0  0
 21 24  1  0  0  0  0
 22 21  1  0  0  0  0
 22 23  1  0  0  0  0
 24 26  1  0  0  0  0
 25 30  1  0  0  0  0
 25 31  1  0  0  0  0
 26 25  2  0  0  0  0
 27 28  2  0  0  0  0
 27 26  1  0  0  0  0
 28 29  1  0  0  0  0
 29 33  1  0  0  0  0
 29 30  2  0  0  0  0
 32 27  1  0  0  0  0
M  END
>  <minimizedAffinity>
-5.98358154

$$$$

 OpenBabel03242514343D

 33 36  0  0  1  0  0  0  0  0999 V2000
   37.2100   29.7170   41.4040 C   0  0  2  0  0  3  0  0  0  0  0  0
   36.0170   30.0750   41.0850 O   0  0  0  0  0  0  0  0  0  0  0  0
   39.1430   25.9930   42.8540 C   0  0  0  0  0  0  0  0  0  0  0  0
   38.2790   25.7610   41.8800 C   0  0  0  0  0  0  0  0  0  0  0  0
   37.3450   26.7600   41.4910 N   0  0  0  0  0  0  0  0  0  0  0  0
   36.7780   27.4680   40.3630 C   0  0  0  0  0  0  0  0  0  0  0  0
   36.6800   27.2770   39.1020 O   0  0  0  0  0  0  0  0  0  0  0  0
   36.3700   28.4990   41.3140 C   0  0  1  0  0  0  0  0  0  0  0  0
   36.5110   27.4960   42.4220 C   0  0  2  0  0  3  0  0  0  0  0  0
   37.5170   27.9870   43.8160 S   0  0  0  0  0  0  0  0  0  0  0  0
   39.1750   27.3030   43.5560 C   0  0  0  0  0  3  0  0  0  0  0  0
   39.7030   28.0570   42.9030 H   0  0  0  0  0  0  0  0  0  0  0  0
   40.0680   24.9290   43.2160 C   0  0  0  0  0  2  0  0  0  0  0  0
   40.7280   25.3050   44.0510 H   0  0  0  0  0  0  0  0  0  0  0  0
   38.2760   24.4580   41.1970 C   0  0  0  0  0  0  0  0  0  0  0  0
   38.7600   24.2320   40.0620 O   0  0  0  0  0  0  0  0  0  0  0  0
   37.7570   23.2820   41.6540 O   0  0  0  0  0  0  0  0  0  0  0  0
   37.0860   22.7590   41.1080 H   0  0  0  0  0  0  0  0  0  0  0  0
   38.0340   30.7910   41.5040 O   0  0  0  0  0  0  0  0  0  0  0  0
   39.2820   32.9150   40.7800 O   0  0  0  0  0  0  0  0  0  0  0  0
   38.1610   32.0070   40.3670 P   0  0  2  0  0  0  0  0  0  0  0  0
   36.7560   32.9290   40.3720 O   0  0  0  0  0  0  0  0  0  0  0  0
   35.9960   32.4610   39.9370 H   0  0  0  0  0  0  0  0  0  0  0  0
   38.4550   31.3490   38.8160 O   0  0  0  0  0  0  0  0  0  0  0  0
   40.5110   30.1090   38.7550 C   0  0  0  0  0  0  0  0  0  0  0  0
   39.7600   31.2170   38.3290 C   0  0  0  0  0  0  0  0  0  0  0  0
   40.3490   32.1190   37.4510 C   0  0  0  0  0  0  0  0  0  0  0  0
   41.6220   31.8990   37.0370 N   0  0  0  0  0  0  0  0  0  0  0  0
   42.3190   30.8220   37.4660 C   0  0  0  0  0  0  0  0  0  0  0  0
   41.7600   29.9490   38.3120 N   0  0  0  0  0  0  0  0  0  0  0  0
   40.1420   29.3520   39.4370 H   0  0  0  0  0  0  0  0  0  0  0  0
   39.7180   32.9430   37.1650 H   0  0  0  0  0  0  0  0  0  0  0  0
   43.3180   30.7880   37.0460 H   0  0  0  0  0  0  0  0  0  0  0  0
  1 19  1  1  0  0  0
  2  8  1  0  0  0  0
  2  1  1  0  0  0  0
  3 13  1  0  0  0  0
  3 11  1  0  0  0  0
  4  3  2  0  0  0  0
  5  4  1  0  0  0  0
  5  9  1  0  0  0  0
  6  5  1  0  0  0  0
  7  6  2  0  0  0  0
  8  6  1  6  0  0  0
  8  1  1  0  0  0  0
  8  9  1  0  0  0  0
  9 10  1  1  0  0  0
 11 10  1  0  0  0  0
 12 11  1  0  0  0  0
 13 14  1  0  0  0  0
 15 17  1  0  0  0  0
 15  4  1  0  0  0  0
 16 15  2  0  0  0  0
 18 17  1  0  0  0  0
 21 22  1  0  0  0  0
 21 20  2  1  0  0  0
 21 19  1  0  0  0  0
 23 22  1  0  0  0  0
 24 21  1  0  0  0  0
 25 31  1  0  0  0  0
 26 25  1  0  0  0  0
 26 24  1  0  0  0  0
 27 26  2  0  0  0  0
 28 27  1  0  0  0  0
 28 29  2  0  0  0  0
 29 30  1  0  0  0  0
 30 25  2  0  0  0  0
 32 27  1  0  0  0  0
 33 29  1  0  0  0  0
M  END
>  <minimizedAffinity>
-5.77646112

$$$$

 OpenBabel03242514343D

 33 36  0  0  1  0  0  0  0  0999 V2000
   37.5670   27.0530   41.3650 C   0  0  1  0  0  3  0  0  0  0  0  0
   36.8780   26.6600   42.3780 O   0  0  0  0  0  0  0  0  0  0  0  0
   37.3910   30.5830   38.6800 C   0  0  0  0  0  0  0  0  0  0  0  0
   37.4110   30.9270   39.9570 C   0  0  0  0  0  0  0  0  0  0  0  0
   37.1630   29.9600   40.9690 N   0  0  0  0  0  0  0  0  0  0  0  0
   37.6410   29.4160   42.2230 C   0  0  0  0  0  0  0  0  0  0  0  0
   38.4090   29.8040   43.1690 O   0  0  0  0  0  0  0  0  0  0  0  0
   36.8510   28.2250   41.9200 C   0  0  1  0  0  0  0  0  0  0  0  0
   36.0400   29.0410   40.9540 C   0  0  2  0  0  3  0  0  0  0  0  0
   35.8710   28.3810   39.3020 S   0  0  0  0  0  0  0  0  0  0  0  0
   37.1270   29.1800   38.2670 C   0  0  0  0  0  3  0  0  0  0  0  0
   38.0620   28.5690   38.4200 H   0  0  0  0  0  0  0  0  0  0  0  0
   37.6410   31.6200   37.6890 C   0  0  0  0  0  2  0  0  0  0  0  0
   37.5930   31.1460   36.6650 H   0  0  0  0  0  0  0  0  0  0  0  0
   37.6850   32.3220   40.3380 C   0  0  0  0  0  0  0  0  0  0  0  0
   38.7430   32.7350   40.8700 O   0  0  0  0  0  0  0  0  0  0  0  0
   36.8620   33.3990   40.1910 O   0  0  0  0  0  0  0  0  0  0  0  0
   36.6250   33.9890   40.9770 H   0  0  0  0  0  0  0  0  0  0  0  0
   38.2510   26.0200   40.8080 O   0  0  0  0  0  0  0  0  0  0  0  0
   38.8270   23.5710   40.2960 O   0  0  0  0  0  0  0  0  0  0  0  0
   38.2040   24.4410   41.3480 P   0  0  2  0  0  0  0  0  0  0  0  0
   36.6050   23.9500   41.5070 O   0  0  0  0  0  0  0  0  0  0  0  0
   36.1670   24.3440   42.3070 H   0  0  0  0  0  0  0  0  0  0  0  0
   39.0410   24.2900   42.8320 O   0  0  0  0  0  0  0  0  0  0  0  0
   41.3520   24.8810   42.5450 C   0  0  0  0  0  0  0  0  0  0  0  0
   40.1070   25.1410   43.1430 C   0  0  0  0  0  0  0  0  0  0  0  0
   40.0000   26.2240   44.0070 C   0  0  0  0  0  0  0  0  0  0  0  0
   41.0960   26.9900   44.2420 N   0  0  0  0  0  0  0  0  0  0  0  0
   42.2800   26.7120   43.6510 C   0  0  0  0  0  0  0  0  0  0  0  0
   42.3920   25.6710   42.8180 N   0  0  0  0  0  0  0  0  0  0  0  0
   41.5360   24.0620   41.8600 H   0  0  0  0  0  0  0  0  0  0  0  0
   39.0200   26.3660   44.4290 H   0  0  0  0  0  0  0  0  0  0  0  0
   43.0550   27.4130   43.9400 H   0  0  0  0  0  0  0  0  0  0  0  0
  1 19  1  1  0  0  0
  1  8  1  0  0  0  0
  1  2  1  0  0  0  0
  3  4  2  0  0  0  0
  4 15  1  0  0  0  0
  4  5  1  0  0  0  0
  5  6  1  0  0  0  0
  6  7  2  0  0  0  0
  8  6  1  1  0  0  0
  8  2  1  0  0  0  0
  9 10  1  6  0  0  0
  9  5  1  0  0  0  0
  9  8  1  0  0  0  0
 11 12  1  0  0  0  0
 11  3  1  0  0  0  0
 11 10  1  0  0  0  0
 13  3  1  0  0  0  0
 14 13  1  0  0  0  0
 15 16  2  0  0  0  0
 17 15  1  0  0  0  0
 17 18  1  0  0  0  0
 19 21  1  0  0  0  0
 21 20  2  6  0  0  0
 21 22  1  0  0  0  0
 21 24  1  0  0  0  0
 22 23  1  0  0  0  0
 24 26  1  0  0  0  0
 25 30  2  0  0  0  0
 25 26  1  0  0  0  0
 26 27  2  0  0  0  0
 27 28  1  0  0  0  0
 27 32  1  0  0  0  0
 29 33  1  0  0  0  0
 29 28  2  0  0  0  0
 30 29  1  0  0  0  0
 31 25  1  0  0  0  0
M  END
>  <minimizedAffinity>
-5.76578093

$$$$

 OpenBabel03242514343D

 33 36  0  0  1  0  0  0  0  0999 V2000
   37.3380   30.0060   41.3520 C   0  0  1  0  0  3  0  0  0  0  0  0
   36.1520   30.5060   41.3630 O   0  0  0  0  0  0  0  0  0  0  0  0
   38.9410   26.1000   42.7210 C   0  0  0  0  0  0  0  0  0  0  0  0
   37.9920   25.9590   41.8120 C   0  0  0  0  0  0  0  0  0  0  0  0
   37.1490   27.0530   41.4720 N   0  0  0  0  0  0  0  0  0  0  0  0
   36.5880   27.8130   40.3750 C   0  0  0  0  0  0  0  0  0  0  0  0
   36.3820   27.6250   39.1260 O   0  0  0  0  0  0  0  0  0  0  0  0
   36.3630   28.8890   41.3360 C   0  0  1  0  0  0  0  0  0  0  0  0
   36.4690   27.8840   42.4470 C   0  0  2  0  0  3  0  0  0  0  0  0
   37.6170   28.2700   43.7620 S   0  0  0  0  0  0  0  0  0  0  0  0
   39.1670   27.4030   43.4000 C   0  0  0  0  0  3  0  0  0  0  0  0
   39.7290   28.0890   42.7020 H   0  0  0  0  0  0  0  0  0  0  0  0
   39.7660   24.9420   43.0350 C   0  0  0  0  0  2  0  0  0  0  0  0
   40.5200   25.2480   43.8180 H   0  0  0  0  0  0  0  0  0  0  0  0
   37.7970   24.6600   41.1490 C   0  0  0  0  0  0  0  0  0  0  0  0
   36.9510   23.7950   41.4810 O   0  0  0  0  0  0  0  0  0  0  0  0
   38.4810   24.1620   40.0800 O   0  0  0  0  0  0  0  0  0  0  0  0
   38.9330   23.2590   40.1210 H   0  0  0  0  0  0  0  0  0  0  0  0
   38.2810   30.9820   41.3650 O   0  0  0  0  0  0  0  0  0  0  0  0
   38.9710   33.4430   41.1290 O   0  0  0  0  0  0  0  0  0  0  0  0
   38.2640   32.3410   40.3960 P   0  0  2  0  0  0  0  0  0  0  0  0
   36.6780   32.8440   40.1630 O   0  0  0  0  0  0  0  0  0  0  0  0
   36.1870   32.2600   39.5280 H   0  0  0  0  0  0  0  0  0  0  0  0
   39.0300   32.0210   38.9010 O   0  0  0  0  0  0  0  0  0  0  0  0
   39.4050   29.8270   37.9950 C   0  0  0  0  0  0  0  0  0  0  0  0
   38.5950   30.9720   38.0830 C   0  0  0  0  0  0  0  0  0  0  0  0
   37.4090   31.0020   37.3580 C   0  0  0  0  0  0  0  0  0  0  0  0
   37.0770   29.9310   36.5940 N   0  0  0  0  0  0  0  0  0  0  0  0
   37.8800   28.8440   36.5300 C   0  0  0  0  0  0  0  0  0  0  0  0
   39.0230   28.8060   37.2250 N   0  0  0  0  0  0  0  0  0  0  0  0
   40.3450   29.7090   38.5200 H   0  0  0  0  0  0  0  0  0  0  0  0
   36.8370   31.9070   37.4710 H   0  0  0  0  0  0  0  0  0  0  0  0
   37.4770   28.0760   35.8800 H   0  0  0  0  0  0  0  0  0  0  0  0
  1  2  1  0  0  0  0
  1 19  1  6  0  0  0
  3 13  1  0  0  0  0
  3 11  1  0  0  0  0
  4  3  2  0  0  0  0
  5  4  1  0  0  0  0
  5  9  1  0  0  0  0
  6  5  1  0  0  0  0
  7  6  2  0  0  0  0
  8  6  1  6  0  0  0
  8  1  1  0  0  0  0
  8  2  1  0  0  0  0
  8  9  1  0  0  0  0
  9 10  1  1  0  0  0
 11 10  1  0  0  0  0
 12 11  1  0  0  0  0
 13 14  1  0  0  0  0
 15 16  2  0  0  0  0
 15  4  1  0  0  0  0
 17 18  1  0  0  0  0
 17 15  1  0  0  0  0
 21 20  2  1  0  0  0
 21 19  1  0  0  0  0
 22 21  1  0  0  0  0
 23 22  1  0  0  0  0
 24 21  1  0  0  0  0
 25 26  1  0  0  0  0
 25 31  1  0  0  0  0
 26 24  1  0  0  0  0
 27 32  1  0  0  0  0
 27 26  2  0  0  0  0
 28 27  1  0  0  0  0
 29 28  2  0  0  0  0
 29 30  1  0  0  0  0
 30 25  2  0  0  0  0
 33 29  1  0  0  0  0
M  END
>  <minimizedAffinity>
-5.65724802

$$$$

 OpenBabel03242514343D

 33 36  0  0  1  0  0  0  0  0999 V2000
   37.0850   29.8560   41.0990 C   0  0  2  0  0  3  0  0  0  0  0  0
   35.8430   30.1640   40.9590 O   0  0  0  0  0  0  0  0  0  0  0  0
   39.2280   26.3910   42.8600 C   0  0  0  0  0  0  0  0  0  0  0  0
   38.3180   26.0180   41.9770 C   0  0  0  0  0  0  0  0  0  0  0  0
   37.3280   26.9360   41.5300 N   0  0  0  0  0  0  0  0  0  0  0  0
   36.6710   27.4870   40.3630 C   0  0  0  0  0  0  0  0  0  0  0  0
   36.5060   27.1410   39.1420 O   0  0  0  0  0  0  0  0  0  0  0  0
   36.2840   28.6130   41.2070 C   0  0  1  0  0  0  0  0  0  0  0  0
   36.5250   27.7560   42.4160 C   0  0  2  0  0  3  0  0  0  0  0  0
   37.5930   28.4410   43.6760 S   0  0  0  0  0  0  0  0  0  0  0  0
   39.2560   27.7770   43.3970 C   0  0  0  0  0  3  0  0  0  0  0  0
   39.7170   28.4600   42.6270 H   0  0  0  0  0  0  0  0  0  0  0  0
   40.2100   25.4040   43.2880 C   0  0  0  0  0  2  0  0  0  0  0  0
   40.9040   25.8970   44.0300 H   0  0  0  0  0  0  0  0  0  0  0  0
   38.3200   24.6420   41.4550 C   0  0  0  0  0  0  0  0  0  0  0  0
   38.8000   24.2840   40.3530 O   0  0  0  0  0  0  0  0  0  0  0  0
   37.8140   23.5270   42.0540 O   0  0  0  0  0  0  0  0  0  0  0  0
   37.1430   22.9370   41.5800 H   0  0  0  0  0  0  0  0  0  0  0  0
   37.8750   30.9550   41.0100 O   0  0  0  0  0  0  0  0  0  0  0  0
   37.6720   33.3470   40.0990 O   0  0  0  0  0  0  0  0  0  0  0  0
   37.9900   31.9450   39.6700 P   0  0  2  0  0  0  0  0  0  0  0  0
   36.8260   31.4990   38.5440 O   0  0  0  0  0  0  0  0  0  0  0  0
   37.0610   30.6590   38.0700 H   0  0  0  0  0  0  0  0  0  0  0  0
   39.5590   31.8600   38.9950 O   0  0  0  0  0  0  0  0  0  0  0  0
   41.0960   32.4190   40.7550 C   0  0  0  0  0  0  0  0  0  0  0  0
   40.5890   32.6780   39.4700 C   0  0  0  0  0  0  0  0  0  0  0  0
   41.1350   33.7290   38.7420 C   0  0  0  0  0  0  0  0  0  0  0  0
   42.1340   34.4640   39.2940 N   0  0  0  0  0  0  0  0  0  0  0  0
   42.5990   34.1880   40.5340 C   0  0  0  0  0  0  0  0  0  0  0  0
   42.0790   33.1780   41.2420 N   0  0  0  0  0  0  0  0  0  0  0  0
   40.7370   31.6250   41.3990 H   0  0  0  0  0  0  0  0  0  0  0  0
   40.7010   33.8720   37.7670 H   0  0  0  0  0  0  0  0  0  0  0  0
   43.3940   34.8620   40.8310 H   0  0  0  0  0  0  0  0  0  0  0  0
  1 19  1  1  0  0  0
  1  8  1  0  0  0  0
  2  1  1  0  0  0  0
  2  8  1  0  0  0  0
  3 13  1  0  0  0  0
  3 11  1  0  0  0  0
  4  3  2  0  0  0  0
  5  4  1  0  0  0  0
  5  9  1  0  0  0  0
  6  5  1  0  0  0  0
  7  6  2  0  0  0  0
  8  6  1  6  0  0  0
  8  9  1  0  0  0  0
  9 10  1  1  0  0  0
 11 10  1  0  0  0  0
 12 11  1  0  0  0  0
 13 14  1  0  0  0  0
 15  4  1  0  0  0  0
 15 17  1  0  0  0  0
 16 15  2  0  0  0  0
 18 17  1  0  0  0  0
 21 20  2  1  0  0  0
 21 19  1  0  0  0  0
 22 21  1  0  0  0  0
 23 22  1  0  0  0  0
 24 26  1  0  0  0  0
 24 21  1  0  0  0  0
 25 30  1  0  0  0  0
 25 31  1  0  0  0  0
 26 25  2  0  0  0  0
 27 28  2  0  0  0  0
 27 26  1  0  0  0  0
 28 29  1  0  0  0  0
 29 33  1  0  0  0  0
 29 30  2  0  0  0  0
 32 27  1  0  0  0  0
M  END
>  <minimizedAffinity>
-5.51284742

$$$$

 OpenBabel03242514343D

 33 36  0  0  1  0  0  0  0  0999 V2000
   38.5890   29.9010   41.7950 C   0  0  2  0  0  3  0  0  0  0  0  0
   38.9540   30.6080   42.8060 O   0  0  0  0  0  0  0  0  0  0  0  0
   39.9400   25.8190   40.6930 C   0  0  0  0  0  0  0  0  0  0  0  0
   39.2170   25.8240   41.8000 C   0  0  0  0  0  0  0  0  0  0  0  0
   38.9480   27.0430   42.4820 N   0  0  0  0  0  0  0  0  0  0  0  0
   37.9110   27.8520   43.0860 C   0  0  0  0  0  0  0  0  0  0  0  0
   36.7320   27.6590   43.5430 O   0  0  0  0  0  0  0  0  0  0  0  0
   38.8180   28.9880   42.9390 C   0  0  1  0  0  0  0  0  0  0  0  0
   39.9630   28.0240   42.8170 C   0  0  2  0  0  3  0  0  0  0  0  0
   41.0340   28.2370   41.4010 S   0  0  0  0  0  0  0  0  0  0  0  0
   40.4770   27.0820   40.1210 C   0  0  0  0  0  3  0  0  0  0  0  0
   39.6470   27.6230   39.5810 H   0  0  0  0  0  0  0  0  0  0  0  0
   40.1910   24.5390   40.0460 C   0  0  0  0  0  2  0  0  0  0  0  0
   40.8110   24.7280   39.1210 H   0  0  0  0  0  0  0  0  0  0  0  0
   38.6900   24.5600   42.3390 C   0  0  0  0  0  0  0  0  0  0  0  0
   37.5640   24.0720   42.0780 O   0  0  0  0  0  0  0  0  0  0  0  0
   39.3080   23.7050   43.2030 O   0  0  0  0  0  0  0  0  0  0  0  0
   38.8640   23.4210   44.0660 H   0  0  0  0  0  0  0  0  0  0  0  0
   38.3630   30.6830   40.7080 O   0  0  0  0  0  0  0  0  0  0  0  0
   36.9370   32.6170   39.8040 O   0  0  0  0  0  0  0  0  0  0  0  0
   36.8560   31.1650   40.1740 P   0  0  2  0  0  0  0  0  0  0  0  0
   35.7500   31.0400   41.4320 O   0  0  0  0  0  0  0  0  0  0  0  0
   35.4950   30.0980   41.6180 H   0  0  0  0  0  0  0  0  0  0  0  0
   36.3670   30.2250   38.8320 O   0  0  0  0  0  0  0  0  0  0  0  0
   37.2850   28.3040   37.7180 C   0  0  0  0  0  0  0  0  0  0  0  0
   36.5820   28.8420   38.8090 C   0  0  0  0  0  0  0  0  0  0  0  0
   36.1410   27.9770   39.8040 C   0  0  0  0  0  0  0  0  0  0  0  0
   36.4020   26.6510   39.6870 N   0  0  0  0  0  0  0  0  0  0  0  0
   37.0810   26.1650   38.6230 C   0  0  0  0  0  0  0  0  0  0  0  0
   37.5100   26.9900   37.6610 N   0  0  0  0  0  0  0  0  0  0  0  0
   37.6680   28.8950   36.8940 H   0  0  0  0  0  0  0  0  0  0  0  0
   35.6100   28.4550   40.6100 H   0  0  0  0  0  0  0  0  0  0  0  0
   37.2090   25.0900   38.6770 H   0  0  0  0  0  0  0  0  0  0  0  0
  1 19  1  6  0  0  0
  1  2  1  0  0  0  0
  1  8  1  0  0  0  0
  3  4  2  0  0  0  0
  4 15  1  0  0  0  0
  4  5  1  0  0  0  0
  5  9  1  0  0  0  0
  5  6  1  0  0  0  0
  6  7  2  0  0  0  0
  8  2  1  1  0  0  0
  8  6  1  0  0  0  0
  9 10  1  6  0  0  0
  9  8  1  0  0  0  0
 11  3  1  0  0  0  0
 11 10  1  0  0  0  0
 12 11  1  0  0  0  0
 13  3  1  0  0  0  0
 14 13  1  0  0  0  0
 15 17  1  0  0  0  0
 16 15  2  0  0  0  0
 17 18  1  0  0  0  0
 21 20  2  6  0  0  0
 21 19  1  0  0  0  0
 21 22  1  0  0  0  0
 22 23  1  0  0  0  0
 24 21  1  0  0  0  0
 25 26  1  0  0  0  0
 26 24  1  0  0  0  0
 26 27  2  0  0  0  0
 27 32  1  0  0  0  0
 28 27  1  0  0  0  0
 29 33  1  0  0  0  0
 29 28  2  0  0  0  0
 30 25  2  0  0  0  0
 30 29  1  0  0  0  0
 31 25  1  0  0  0  0
M  END
>  <minimizedAffinity>
-5.50551891

$$$$

 OpenBabel03242514343D

 33 36  0  0  1  0  0  0  0  0999 V2000
   38.2030   29.9250   38.5920 C   0  0  2  0  0  3  0  0  0  0  0  0
   38.7090   29.5640   37.4650 O   0  0  0  0  0  0  0  0  0  0  0  0
   36.9100   27.7590   42.2440 C   0  0  0  0  0  0  0  0  0  0  0  0
   38.1400   27.4380   41.8820 C   0  0  0  0  0  0  0  0  0  0  0  0
   38.6260   27.7810   40.5900 N   0  0  0  0  0  0  0  0  0  0  0  0
   39.7260   28.3800   39.8650 C   0  0  0  0  0  0  0  0  0  0  0  0
   40.9600   28.6280   40.0910 O   0  0  0  0  0  0  0  0  0  0  0  0
   38.7910   28.5750   38.7600 C   0  0  1  0  0  0  0  0  0  0  0  0
   37.9040   27.5210   39.3590 C   0  0  2  0  0  3  0  0  0  0  0  0
   36.1900   27.9680   39.6010 S   0  0  0  0  0  0  0  0  0  0  0  0
   36.0080   28.5000   41.3240 C   0  0  0  0  0  3  0  0  0  0  0  0
   36.2970   29.5910   41.3250 H   0  0  0  0  0  0  0  0  0  0  0  0
   36.4650   27.3720   43.5750 C   0  0  0  0  0  2  0  0  0  0  0  0
   35.4040   27.7320   43.7110 H   0  0  0  0  0  0  0  0  0  0  0  0
   39.0150   26.7110   42.8160 C   0  0  0  0  0  0  0  0  0  0  0  0
   39.0590   25.4650   42.9500 O   0  0  0  0  0  0  0  0  0  0  0  0
   39.9170   27.2410   43.6910 O   0  0  0  0  0  0  0  0  0  0  0  0
   39.8870   27.0150   44.6760 H   0  0  0  0  0  0  0  0  0  0  0  0
   37.6450   31.1600   38.5050 O   0  0  0  0  0  0  0  0  0  0  0  0
   36.8520   31.8800   40.8380 O   0  0  0  0  0  0  0  0  0  0  0  0
   37.7170   32.3270   39.6970 P   0  0  2  0  0  0  0  0  0  0  0  0
   37.0610   33.7610   39.1170 O   0  0  0  0  0  0  0  0  0  0  0  0
   37.6690   34.2250   38.4830 H   0  0  0  0  0  0  0  0  0  0  0  0
   39.3300   32.5570   40.2140 O   0  0  0  0  0  0  0  0  0  0  0  0
   40.8280   34.3590   39.6790 C   0  0  0  0  0  0  0  0  0  0  0  0
   40.2880   33.1030   39.3530 C   0  0  0  0  0  0  0  0  0  0  0  0
   40.7330   32.4710   38.1970 C   0  0  0  0  0  0  0  0  0  0  0  0
   41.6680   33.0860   37.4290 N   0  0  0  0  0  0  0  0  0  0  0  0
   42.1670   34.2960   37.7710 C   0  0  0  0  0  0  0  0  0  0  0  0
   41.7440   34.9110   38.8820 N   0  0  0  0  0  0  0  0  0  0  0  0
   40.5450   34.9300   40.5560 H   0  0  0  0  0  0  0  0  0  0  0  0
   40.2800   31.5140   38.0070 H   0  0  0  0  0  0  0  0  0  0  0  0
   42.9020   34.6510   37.0580 H   0  0  0  0  0  0  0  0  0  0  0  0
  1 19  1  6  0  0  0
  1  8  1  0  0  0  0
  2  1  1  0  0  0  0
  3 13  1  0  0  0  0
  4  3  2  0  0  0  0
  4 15  1  0  0  0  0
  5  4  1  0  0  0  0
  6  7  2  0  0  0  0
  6  5  1  0  0  0  0
  8  2  1  6  0  0  0
  8  9  1  0  0  0  0
  8  6  1  0  0  0  0
  9 10  1  1  0  0  0
  9  5  1  0  0  0  0
 10 11  1  0  0  0  0
 11 12  1  0  0  0  0
 11  3  1  0  0  0  0
 13 14  1  0  0  0  0
 15 16  2  0  0  0  0
 15 17  1  0  0  0  0
 17 18  1  0  0  0  0
 19 21  1  0  0  0  0
 21 24  1  0  0  0  0
 21 20  2  1  0  0  0
 22 21  1  0  0  0  0
 23 22  1  0  0  0  0
 25 31  1  0  0  0  0
 26 25  1  0  0  0  0
 26 24  1  0  0  0  0
 27 26  2  0  0  0  0
 28 29  2  0  0  0  0
 28 27  1  0  0  0  0
 29 30  1  0  0  0  0
 30 25  2  0  0  0  0
 32 27  1  0  0  0  0
 33 29  1  0  0  0  0
M  END
>  <minimizedAffinity>
-5.45048952

$$$$

 OpenBabel03242514343D

 33 36  0  0  1  0  0  0  0  0999 V2000
   39.9280   28.6510   41.5480 C   0  0  1  0  0  3  0  0  0  0  0  0
   41.0330   28.0060   41.4160 O   0  0  0  0  0  0  0  0  0  0  0  0
   38.0940   32.2230   39.6560 C   0  0  0  0  0  0  0  0  0  0  0  0
   38.6240   31.4030   38.7650 C   0  0  0  0  0  0  0  0  0  0  0  0
   39.5140   30.3700   39.1730 N   0  0  0  0  0  0  0  0  0  0  0  0
   39.8160   28.9600   39.0540 C   0  0  0  0  0  0  0  0  0  0  0  0
   39.5400   28.0180   38.2330 O   0  0  0  0  0  0  0  0  0  0  0  0
   40.5780   29.0970   40.2930 C   0  0  1  0  0  0  0  0  0  0  0  0
   40.6450   30.5780   40.0560 C   0  0  2  0  0  3  0  0  0  0  0  0
   40.1220   31.6240   41.4090 S   0  0  0  0  0  0  0  0  0  0  0  0
   38.3950   32.0810   41.1050 C   0  0  0  0  0  3  0  0  0  0  0  0
   37.7890   31.2270   41.5250 H   0  0  0  0  0  0  0  0  0  0  0  0
   37.1990   33.2670   39.1770 C   0  0  0  0  0  2  0  0  0  0  0  0
   36.8400   33.8590   40.0690 H   0  0  0  0  0  0  0  0  0  0  0  0
   38.3020   31.5600   37.3370 C   0  0  0  0  0  0  0  0  0  0  0  0
   37.3580   30.9910   36.7390 O   0  0  0  0  0  0  0  0  0  0  0  0
   38.9510   32.3320   36.4200 O   0  0  0  0  0  0  0  0  0  0  0  0
   39.2990   31.9380   35.5570 H   0  0  0  0  0  0  0  0  0  0  0  0
   39.2800   28.2860   42.6840 O   0  0  0  0  0  0  0  0  0  0  0  0
   37.0020   28.4770   41.5160 O   0  0  0  0  0  0  0  0  0  0  0  0
   37.6300   28.0670   42.8160 P   0  0  2  0  0  0  0  0  0  0  0  0
   37.0220   29.0920   44.0000 O   0  0  0  0  0  0  0  0  0  0  0  0
   37.2390   28.7790   44.9170 H   0  0  0  0  0  0  0  0  0  0  0  0
   37.2690   26.4350   43.1740 O   0  0  0  0  0  0  0  0  0  0  0  0
   36.6650   24.6700   41.6590 C   0  0  0  0  0  0  0  0  0  0  0  0
   37.6670   25.4060   42.3130 C   0  0  0  0  0  0  0  0  0  0  0  0
   38.9960   25.0770   42.0710 C   0  0  0  0  0  0  0  0  0  0  0  0
   39.2770   24.0610   41.2160 N   0  0  0  0  0  0  0  0  0  0  0  0
   38.2880   23.3710   40.6030 C   0  0  0  0  0  0  0  0  0  0  0  0
   37.0060   23.6820   40.8300 N   0  0  0  0  0  0  0  0  0  0  0  0
   35.6030   24.8500   41.7820 H   0  0  0  0  0  0  0  0  0  0  0  0
   39.7110   25.6800   42.6030 H   0  0  0  0  0  0  0  0  0  0  0  0
   38.6740   22.5950   39.9530 H   0  0  0  0  0  0  0  0  0  0  0  0
  1 19  1  6  0  0  0
  2  1  1  0  0  0  0
  3 11  1  0  0  0  0
  4  5  1  0  0  0  0
  4  3  2  0  0  0  0
  5  9  1  0  0  0  0
  6  5  1  0  0  0  0
  7  6  2  0  0  0  0
  8  6  1  6  0  0  0
  8  2  1  0  0  0  0
  8  1  1  0  0  0  0
  9  8  1  0  0  0  0
  9 10  1  1  0  0  0
 11 10  1  0  0  0  0
 11 12  1  0  0  0  0
 13  3  1  0  0  0  0
 13 14  1  0  0  0  0
 15  4  1  0  0  0  0
 16 15  2  0  0  0  0
 17 15  1  0  0  0  0
 18 17  1  0  0  0  0
 19 21  1  0  0  0  0
 21 20  2  6  0  0  0
 21 24  1  0  0  0  0
 21 22  1  0  0  0  0
 22 23  1  0  0  0  0
 25 31  1  0  0  0  0
 25 26  1  0  0  0  0
 26 24  1  0  0  0  0
 27 26  2  0  0  0  0
 27 32  1  0  0  0  0
 28 27  1  0  0  0  0
 29 30  1  0  0  0  0
 29 28  2  0  0  0  0
 30 25  2  0  0  0  0
 33 29  1  0  0  0  0
M  END
>  <minimizedAffinity>
-5.36089802

$$$$

 OpenBabel03242514343D

 33 36  0  0  1  0  0  0  0  0999 V2000
   38.9350   30.2800   41.4110 C   0  0  2  0  0  3  0  0  0  0  0  0
   38.7360   30.3560   42.6800 O   0  0  0  0  0  0  0  0  0  0  0  0
   41.2000   32.5640   38.3520 C   0  0  0  0  0  0  0  0  0  0  0  0
   41.7370   32.6720   39.5550 C   0  0  0  0  0  0  0  0  0  0  0  0
   41.0070   32.2760   40.7100 N   0  0  0  0  0  0  0  0  0  0  0  0
   41.0660   31.5080   41.9360 C   0  0  0  0  0  0  0  0  0  0  0  0
   41.9850   31.0430   42.6960 O   0  0  0  0  0  0  0  0  0  0  0  0
   39.6060   31.5030   41.9130 C   0  0  1  0  0  0  0  0  0  0  0  0
   39.6430   32.6830   40.9850 C   0  0  2  0  0  3  0  0  0  0  0  0
   38.6940   32.5390   39.4770 S   0  0  0  0  0  0  0  0  0  0  0  0
   39.8320   32.0110   38.1690 C   0  0  0  0  0  3  0  0  0  0  0  0
   39.8750   30.8870   38.2550 H   0  0  0  0  0  0  0  0  0  0  0  0
   41.9900   32.9950   37.2080 C   0  0  0  0  0  2  0  0  0  0  0  0
   41.3810   32.8230   36.2740 H   0  0  0  0  0  0  0  0  0  0  0  0
   43.0970   33.2140   39.7070 C   0  0  0  0  0  0  0  0  0  0  0  0
   44.1500   32.5340   39.7380 O   0  0  0  0  0  0  0  0  0  0  0  0
   43.4590   34.5220   39.8400 O   0  0  0  0  0  0  0  0  0  0  0  0
   44.0270   34.8310   40.6170 H   0  0  0  0  0  0  0  0  0  0  0  0
   38.3420   29.1770   40.8880 O   0  0  0  0  0  0  0  0  0  0  0  0
   36.2460   27.9990   39.9880 O   0  0  0  0  0  0  0  0  0  0  0  0
   36.7780   28.6880   41.2100 P   0  0  2  0  0  0  0  0  0  0  0  0
   35.8120   30.0380   41.4720 O   0  0  0  0  0  0  0  0  0  0  0  0
   35.9740   30.4510   42.3600 H   0  0  0  0  0  0  0  0  0  0  0  0
   36.7430   27.6390   42.5590 O   0  0  0  0  0  0  0  0  0  0  0  0
   38.8170   27.0150   43.6000 C   0  0  0  0  0  0  0  0  0  0  0  0
   37.7470   26.6840   42.7510 C   0  0  0  0  0  0  0  0  0  0  0  0
   37.7420   25.4310   42.1490 C   0  0  0  0  0  0  0  0  0  0  0  0
   38.7640   24.5750   42.4020 N   0  0  0  0  0  0  0  0  0  0  0  0
   39.7800   24.9240   43.2230 C   0  0  0  0  0  0  0  0  0  0  0  0
   39.7930   26.1290   43.8070 N   0  0  0  0  0  0  0  0  0  0  0  0
   38.9110   27.9640   44.1130 H   0  0  0  0  0  0  0  0  0  0  0  0
   36.8940   25.2430   41.5130 H   0  0  0  0  0  0  0  0  0  0  0  0
   40.5160   24.1350   43.3220 H   0  0  0  0  0  0  0  0  0  0  0  0
  1 19  1  6  0  0  0
  1  8  1  0  0  0  0
  1  2  1  0  0  0  0
  3  4  2  0  0  0  0
  4 15  1  0  0  0  0
  4  5  1  0  0  0  0
  5  9  1  0  0  0  0
  5  6  1  0  0  0  0
  6  7  2  0  0  0  0
  8  6  1  1  0  0  0
  8  2  1  0  0  0  0
  9 10  1  6  0  0  0
  9  8  1  0  0  0  0
 11 12  1  0  0  0  0
 11  3  1  0  0  0  0
 11 10  1  0  0  0  0
 13  3  1  0  0  0  0
 14 13  1  0  0  0  0
 15 16  2  0  0  0  0
 15 17  1  0  0  0  0
 17 18  1  0  0  0  0
 19 21  1  0  0  0  0
 21 20  2  6  0  0  0
 21 22  1  0  0  0  0
 21 24  1  0  0  0  0
 22 23  1  0  0  0  0
 24 26  1  0  0  0  0
 25 30  1  0  0  0  0
 25 31  1  0  0  0  0
 26 25  2  0  0  0  0
 27 28  2  0  0  0  0
 27 26  1  0  0  0  0
 28 29  1  0  0  0  0
 29 33  1  0  0  0  0
 29 30  2  0  0  0  0
 32 27  1  0  0  0  0
M  END
>  <minimizedAffinity>
-5.35515594

$$$$
