
 OpenBabel03242520003D

 37 40  0  0  1  0  0  0  0  0999 V2000
   44.6870   33.0870   41.2010 Br  0  0  0  0  0  0  0  0  0  0  0  0
   46.3390   34.0150   41.0280 C   0  0  0  0  0  0  0  0  0  0  0  0
   46.8800   34.7560   42.0630 C   0  0  0  0  0  0  0  0  0  0  0  0
   48.0860   35.4060   41.8420 C   0  0  0  0  0  0  0  0  0  0  0  0
   48.7540   35.3330   40.6340 C   0  0  0  0  0  0  0  0  0  0  0  0
   48.2150   34.5920   39.5990 C   0  0  0  0  0  0  0  0  0  0  0  0
   47.0090   33.9490   39.8360 C   0  0  0  0  0  0  0  0  0  0  0  0
   48.4860   35.9700   42.6490 H   0  0  0  0  0  0  0  0  0  0  0  0
   49.6950   35.8830   40.5690 H   0  0  0  0  0  0  0  0  0  0  0  0
   48.7530   34.5450   38.6520 H   0  0  0  0  0  0  0  0  0  0  0  0
   44.5190   35.7500   44.8450 C   0  0  0  0  0  0  0  0  0  0  0  0
   45.2040   35.7500   43.6200 C   0  0  0  0  0  0  0  0  0  0  0  0
   46.1470   34.7960   43.3160 C   0  0  0  0  0  0  0  0  0  0  0  0
   46.3530   33.8600   44.3010 N   0  0  0  0  0  0  0  0  0  0  0  0
   45.6950   33.8680   45.4660 C   0  0  0  0  0  0  0  0  0  0  0  0
   44.7920   34.7950   45.7400 N   0  0  0  0  0  0  0  0  0  0  0  0
   43.7810   36.4940   45.0890 H   0  0  0  0  0  0  0  0  0  0  0  0
   44.9810   36.5130   42.9130 H   0  0  0  0  0  0  0  0  0  0  0  0
   46.0220   33.0390   46.0840 H   0  0  0  0  0  0  0  0  0  0  0  0
   46.4790   33.1610   38.7450 C   0  0  1  0  0  3  0  0  0  0  0  0
   45.2620   33.3320   38.3680 O   0  0  0  0  0  1  0  0  0  0  0  0
   46.8050   29.4830   34.8110 C   0  0  0  0  0  0  0  0  0  0  0  0
   47.1280   30.7420   34.7450 C   0  0  0  0  0  0  0  0  0  0  0  0
   47.1280   31.5770   35.8690 N   0  0  0  0  0  0  0  0  0  0  0  0
   47.7150   32.6300   36.6450 C   0  0  0  0  0  0  0  0  0  0  0  0
   48.4790   33.6050   36.3310 O   0  0  0  0  0  0  0  0  0  0  0  0
   47.0740   32.1040   37.8800 C   0  0  2  0  0  3  0  0  0  0  0  0
   46.0920   31.4860   36.8810 C   0  0  2  0  0  3  0  0  0  0  0  0
   45.7990   29.7540   37.3550 S   0  0  0  0  0  0  0  0  0  0  0  0
   46.4060   28.7370   36.0110 C   0  0  0  0  0  3  0  0  0  0  0  0
   45.5430   28.0760   35.7010 H   0  0  0  0  0  0  0  0  0  0  0  0
   46.8570   28.7430   33.5250 C   0  0  0  0  0  2  0  0  0  0  0  0
   46.4460   29.3710   32.6900 H   0  0  0  0  0  0  0  0  0  0  0  0
   47.4960   31.2680   33.4390 C   0  0  0  0  0  0  0  0  0  0  0  0
   47.7310   32.5010   33.2150 O   0  0  0  0  0  0  0  0  0  0  0  0
   47.8240   31.5480   32.1400 O   0  0  0  0  0  0  0  0  0  0  0  0
   47.9180   30.8360   31.4080 H   0  0  0  0  0  0  0  0  0  0  0  0
  2  1  1  0  0  0  0
  2  3  1  0  0  0  0
  3 13  1  0  0  0  0
  4  3  2  0  0  0  0
  4  8  1  0  0  0  0
  5  4  1  0  0  0  0
  6  7  1  0  0  0  0
  6  5  2  0  0  0  0
  7  2  2  0  0  0  0
  9  5  1  0  0  0  0
 10  6  1  0  0  0  0
 11 17  1  0  0  0  0
 11 16  1  0  0  0  0
 12 11  2  0  0  0  0
 13 12  1  0  0  0  0
 13 14  2  0  0  0  0
 14 15  1  0  0  0  0
 15 16  2  0  0  0  0
 15 19  1  0  0  0  0
 18 12  1  0  0  0  0
 20 21  1  6  0  0  0
 20  7  1  0  0  0  0
 22 30  1  0  0  0  0
 23 22  2  0  0  0  0
 23 24  1  0  0  0  0
 24 25  1  0  0  0  0
 24 28  1  0  0  0  0
 25 27  1  0  0  0  0
 26 25  2  0  0  0  0
 27 20  1  1  0  0  0
 28 29  1  1  0  0  0
 28 27  1  0  0  0  0
 30 29  1  0  0  0  0
 31 30  1  0  0  0  0
 32 22  1  0  0  0  0
 33 32  1  0  0  0  0
 34 23  1  0  0  0  0
 35 34  2  0  0  0  0
 36 34  1  0  0  0  0
 37 36  1  0  0  0  0
M  END
>  <minimizedAffinity>
-6.6204772

>  <minimizedRMSD>
2.81075478

$$$$
