
 OpenBabel03242512343D

 27 29  0  0  1  0  0  0  0  0999 V2000
   46.7760   30.0910   41.1380 C   0  0  0  0  0  0  0  0  0  0  0  0
   45.8370   30.8470   40.6340 C   0  0  0  0  0  0  0  0  0  0  0  0
   45.9590   32.2630   40.6850 N   0  0  0  0  0  0  0  0  0  0  0  0
   45.2910   33.5250   40.9000 C   0  0  0  0  0  0  0  0  0  0  0  0
   44.0990   33.9290   41.1240 O   0  0  0  0  0  0  0  0  0  0  0  0
   46.5740   34.2240   40.7570 C   0  0  2  0  0  3  0  0  0  0  0  0
   47.2460   32.9380   40.4410 C   0  0  1  0  0  3  0  0  0  0  0  0
   48.3780   32.2820   41.6560 S   0  0  0  0  0  0  0  0  0  0  0  0
   48.0210   30.5290   41.8050 C   0  0  0  0  0  3  0  0  0  0  0  0
   48.8570   29.9890   41.2710 H   0  0  0  0  0  0  0  0  0  0  0  0
   47.0600   34.9530   41.9700 C   0  0  0  0  0  0  0  0  0  0  0  0
   48.1580   35.5650   41.7940 O   0  0  0  0  0  0  0  0  0  0  0  0
   46.2870   34.9040   43.1680 C   0  0  0  0  0  0  0  0  0  0  0  0
   45.4170   35.9820   43.3160 C   0  0  0  0  0  0  0  0  0  0  0  0
   44.6120   36.0200   44.4700 C   0  0  0  0  0  0  0  0  0  0  0  0
   44.7440   34.9920   45.3610 N   0  0  0  0  0  0  0  0  0  0  0  0
   45.5960   33.9740   45.1760 C   0  0  0  0  0  0  0  0  0  0  0  0
   46.3690   33.9320   44.0740 N   0  0  0  0  0  0  0  0  0  0  0  0
   45.3180   36.7930   42.6040 H   0  0  0  0  0  0  0  0  0  0  0  0
   43.9170   36.8320   44.6380 H   0  0  0  0  0  0  0  0  0  0  0  0
   45.6010   33.2260   45.9610 H   0  0  0  0  0  0  0  0  0  0  0  0
   46.5330   28.6310   41.0160 C   0  0  0  0  0  2  0  0  0  0  0  0
   47.3880   28.0840   41.4620 H   0  0  0  0  0  0  0  0  0  0  0  0
   44.6360   30.2870   39.9970 C   0  0  0  0  0  0  0  0  0  0  0  0
   44.4590   30.0000   38.7880 O   0  0  0  0  0  0  0  0  0  0  0  0
   43.4750   29.9840   40.6830 O   0  0  0  0  0  0  0  0  0  0  0  0
   42.9400   29.1480   40.5030 H   0  0  0  0  0  0  0  0  0  0  0  0
  1  9  1  0  0  0  0
  2  3  1  0  0  0  0
  2  1  2  0  0  0  0
  3  4  1  0  0  0  0
  4  5  2  0  0  0  0
  6  4  1  0  0  0  0
  6 11  1  1  0  0  0
  7  3  1  0  0  0  0
  7  6  1  0  0  0  0
  7  8  1  1  0  0  0
  8  9  1  0  0  0  0
 10  9  1  0  0  0  0
 11 13  1  0  0  0  0
 12 11  2  0  0  0  0
 13 14  2  0  0  0  0
 13 18  1  0  0  0  0
 14 15  1  0  0  0  0
 15 20  1  0  0  0  0
 15 16  2  0  0  0  0
 17 16  1  0  0  0  0
 17 21  1  0  0  0  0
 18 17  2  0  0  0  0
 19 14  1  0  0  0  0
 22  1  1  0  0  0  0
 22 23  1  0  0  0  0
 24  2  1  0  0  0  0
 24 26  1  0  0  0  0
 25 24  2  0  0  0  0
 27 26  1  0  0  0  0
M  END
>  <minimizedAffinity>
-4.06073332

>  <minimizedRMSD>
0.893878281

$$$$
