
 OpenBabel03252500053D

 52 56  0  0  1  0  0  0  0  0999 V2000
   44.7480   34.6510   45.6180 C   0  0  0  0  0  0  0  0  0  0  0  0
   45.4360   34.5040   44.4180 C   0  0  0  0  0  0  0  0  0  0  0  0
   46.5400   33.6510   44.3570 C   0  0  0  0  0  0  0  0  0  0  0  0
   46.8310   33.0340   45.5270 N   0  0  0  0  0  0  0  0  0  0  0  0
   46.1750   33.1770   46.6640 C   0  0  0  0  0  0  0  0  0  0  0  0
   45.1370   33.9900   46.6900 N   0  0  0  0  0  0  0  0  0  0  0  0
   43.9010   35.3220   45.6170 H   0  0  0  0  0  0  0  0  0  0  0  0
   47.3360   33.3950   43.2140 C   0  0  0  0  0  0  0  0  0  0  0  0
   48.3430   34.3060   42.9320 C   0  0  0  0  0  0  0  0  0  0  0  0
   49.2120   34.2160   41.8670 C   0  0  0  0  0  0  0  0  0  0  0  0
   49.1150   33.1740   40.9940 C   0  0  0  0  0  0  0  0  0  0  0  0
   48.1390   32.2340   41.2130 C   0  0  0  0  0  0  0  0  0  0  0  0
   47.9810   31.1630   40.3820 C   0  0  0  0  0  0  0  0  0  0  0  0
   47.0230   30.2010   40.5570 C   0  0  0  0  0  0  0  0  0  0  0  0
   46.1710   30.3550   41.6640 C   0  0  0  0  0  0  0  0  0  0  0  0
   46.3600   31.4480   42.4830 C   0  0  0  0  0  0  0  0  0  0  0  0
   47.3000   32.3820   42.3020 C   0  0  0  0  0  0  0  0  0  0  0  0
   48.5150   35.1860   43.5660 H   0  0  0  0  0  0  0  0  0  0  0  0
   49.9840   34.9510   41.6840 H   0  0  0  0  0  0  0  0  0  0  0  0
   49.7780   33.0950   40.1700 H   0  0  0  0  0  0  0  0  0  0  0  0
   48.6760   31.1080   39.5430 H   0  0  0  0  0  0  0  0  0  0  0  0
   46.9320   29.3690   39.8740 H   0  0  0  0  0  0  0  0  0  0  0  0
   45.4360   29.5850   41.7690 H   0  0  0  0  0  0  0  0  0  0  0  0
   45.3990   31.4500   43.5460 N   0  0  0  0  0  0  0  0  0  0  0  0
   45.3410   30.9890   44.4790 H   0  0  0  0  0  0  0  0  0  0  0  0
   44.4730   31.9000   43.6980 H   0  0  0  0  0  0  0  0  0  0  0  0
   46.7210   32.3660   47.8030 C   0  0  0  0  0  0  0  0  0  0  0  0
   45.8850   32.4000   48.8830 F   0  0  0  0  0  0  0  0  0  0  0  0
   47.9910   32.8090   48.1350 F   0  0  0  0  0  0  0  0  0  0  0  0
   46.9300   31.0420   47.3590 F   0  0  0  0  0  0  0  0  0  0  0  0
   45.0810   35.1900   43.1680 C   0  0  0  0  0  0  0  0  0  0  0  0
   45.9920   35.4130   42.5750 H   0  0  0  0  0  0  0  0  0  0  0  0
   44.6760   36.2010   43.4640 H   0  0  0  0  0  0  0  0  0  0  0  0
   44.0560   34.5090   42.3390 C   0  0  0  0  0  0  0  0  0  0  0  0
   43.2020   34.1880   42.9700 H   0  0  0  0  0  0  0  0  0  0  0  0
   44.4810   33.7350   41.7150 H   0  0  0  0  0  0  0  0  0  0  0  0
   42.1750   32.5920   38.8150 C   0  0  0  0  0  0  0  0  0  0  0  0
   41.6210   33.7590   39.0980 C   0  0  0  0  0  0  0  0  0  0  0  0
   42.2510   34.6420   40.0200 N   0  0  0  0  0  0  0  0  0  0  0  0
   42.0330   35.4790   41.1800 C   0  0  0  0  0  0  0  0  0  0  0  0
   41.0360   35.9750   41.8120 O   0  0  0  0  0  0  0  0  0  0  0  0
   43.4920   35.5160   41.3360 C   0  0  2  0  0  3  0  0  0  0  0  0
   43.6740   34.9820   39.9450 C   0  0  1  0  0  3  0  0  0  0  0  0
   44.5930   33.4400   39.8080 S   0  0  0  0  0  0  0  0  0  0  0  0
   43.4360   32.1060   39.4260 C   0  0  0  0  0  3  0  0  0  0  0  0
   43.9100   31.3700   38.7200 H   0  0  0  0  0  0  0  0  0  0  0  0
   41.4790   31.7270   37.8420 C   0  0  0  0  0  2  0  0  0  0  0  0
   40.4870   31.3960   38.2150 H   0  0  0  0  0  0  0  0  0  0  0  0
   40.3510   34.1770   38.4620 C   0  0  0  0  0  0  0  0  0  0  0  0
   39.2050   33.9460   38.9150 O   0  0  0  0  0  0  0  0  0  0  0  0
   40.2200   34.8680   37.3010 O   0  0  0  0  0  0  0  0  0  0  0  0
   39.6460   35.6990   37.2630 H   0  0  0  0  0  0  0  0  0  0  0  0
  1  6  1  0  0  0  0
  2  1  2  0  0  0  0
  3  2  1  0  0  0  0
  3  4  2  0  0  0  0
  4  5  1  0  0  0  0
  5  6  2  0  0  0  0
  5 27  1  0  0  0  0
  7  1  1  0  0  0  0
  8  3  1  0  0  0  0
  9  8  1  0  0  0  0
  9 18  1  0  0  0  0
 10  9  2  0  0  0  0
 11 12  2  0  0  0  0
 11 10  1  0  0  0  0
 12 17  1  0  0  0  0
 13 14  2  0  0  0  0
 13 12  1  0  0  0  0
 14 15  1  0  0  0  0
 15 23  1  0  0  0  0
 15 16  2  0  0  0  0
 16 24  1  0  0  0  0
 17 16  1  0  0  0  0
 17  8  2  0  0  0  0
 19 10  1  0  0  0  0
 20 11  1  0  0  0  0
 21 13  1  0  0  0  0
 22 14  1  0  0  0  0
 24 26  1  0  0  0  0
 24 25  1  0  0  0  0
 27 29  1  0  0  0  0
 27 28  1  0  0  0  0
 30 27  1  0  0  0  0
 31 33  1  0  0  0  0
 31  2  1  0  0  0  0
 32 31  1  0  0  0  0
 34 35  1  0  0  0  0
 34 31  1  0  0  0  0
 36 34  1  0  0  0  0
 37 38  2  0  0  0  0
 37 45  1  0  0  0  0
 38 39  1  0  0  0  0
 39 40  1  0  0  0  0
 40 42  1  0  0  0  0
 40 41  2  0  0  0  0
 42 34  1  1  0  0  0
 43 44  1  1  0  0  0
 43 39  1  0  0  0  0
 43 42  1  0  0  0  0
 45 44  1  0  0  0  0
 46 45  1  0  0  0  0
 47 48  1  0  0  0  0
 47 37  1  0  0  0  0
 49 50  2  0  0  0  0
 49 38  1  0  0  0  0
 51 49  1  0  0  0  0
 52 51  1  0  0  0  0
M  END
>  <minimizedAffinity>
-6.76114893

>  <minimizedRMSD>
2.28239155

$$$$
