
 OpenBabel03252503193D

 46 50  0  0  1  0  0  0  0  0999 V2000
   46.2820   34.1680   40.6390 C   0  0  0  0  0  0  0  0  0  0  0  0
   44.9470   34.0320   40.3760 C   0  0  0  0  0  0  0  0  0  0  0  0
   44.8770   33.3730   39.2000 N   0  0  0  0  0  0  0  0  0  0  0  0
   46.1280   33.1190   38.7690 C   0  0  0  0  0  0  0  0  0  0  0  0
   47.0000   33.6130   39.6640 N   0  0  0  0  0  0  0  0  0  0  0  0
   46.6000   32.4580   37.5980 N   0  0  0  0  0  0  0  0  0  0  0  0
   44.1110   34.3620   40.9490 H   0  0  0  0  0  0  0  0  0  0  0  0
   46.2020   32.6800   36.6450 H   0  0  0  0  0  0  0  0  0  0  0  0
   47.3440   31.7440   37.6520 H   0  0  0  0  0  0  0  0  0  0  0  0
   43.7250   32.9550   38.4340 C   0  0  0  0  0  0  0  0  0  0  0  0
   43.6520   33.6610   37.5720 H   0  0  0  0  0  0  0  0  0  0  0  0
   43.8430   31.9570   38.0050 H   0  0  0  0  0  0  0  0  0  0  0  0
   41.1010   29.5440   37.7150 C   0  0  0  0  0  0  0  0  0  0  0  0
   40.4140   30.6370   37.9530 C   0  0  0  0  0  0  0  0  0  0  0  0
   41.0510   31.7760   38.5150 N   0  0  0  0  0  0  0  0  0  0  0  0
   41.2160   33.2090   38.3930 C   0  0  0  0  0  0  0  0  0  0  0  0
   40.6020   34.1870   37.8430 O   0  0  0  0  0  0  0  0  0  0  0  0
   42.4300   33.0630   39.1970 C   0  0  1  0  0  3  0  0  0  0  0  0
   41.9230   31.7210   39.6730 C   0  0  2  0  0  3  0  0  0  0  0  0
   43.0170   30.3200   39.4830 S   0  0  0  0  0  0  0  0  0  0  0  0
   42.5550   29.4160   37.9840 C   0  0  0  0  0  3  0  0  0  0  0  0
   42.8240   28.3410   38.0640 H   0  0  0  0  0  0  0  0  0  0  0  0
   40.3960   28.3930   37.1440 C   0  0  0  0  0  2  0  0  0  0  0  0
   39.9480   28.5690   36.1500 H   0  0  0  0  0  0  0  0  0  0  0  0
   38.9710   30.7000   37.6510 C   0  0  0  0  0  0  0  0  0  0  0  0
   38.0280   30.4550   38.4370 O   0  0  0  0  0  0  0  0  0  0  0  0
   38.3680   31.0300   36.4760 O   0  0  0  0  0  0  0  0  0  0  0  0
   37.7200   31.7760   36.3780 H   0  0  0  0  0  0  0  0  0  0  0  0
   46.8770   34.8410   41.8480 C   0  0  0  0  0  0  0  0  0  0  0  0
   48.0620   35.2870   41.8990 O   0  0  0  0  0  0  0  0  0  0  0  0
   45.4510   36.2320   43.2800 C   0  0  0  0  0  0  0  0  0  0  0  0
   46.0980   35.0100   43.0260 C   0  0  0  0  0  0  0  0  0  0  0  0
   45.9050   34.0430   43.9950 C   0  0  0  0  0  0  0  0  0  0  0  0
   45.1650   34.2470   45.0850 N   0  0  0  0  0  0  0  0  0  0  0  0
   44.5570   35.4510   45.2880 C   0  0  0  0  0  0  0  0  0  0  0  0
   44.7080   36.4280   44.3800 N   0  0  0  0  0  0  0  0  0  0  0  0
   45.5860   37.0060   42.5350 H   0  0  0  0  0  0  0  0  0  0  0  0
   43.9540   35.6170   46.1760 H   0  0  0  0  0  0  0  0  0  0  0  0
   46.5290   32.7720   43.8150 C   0  0  0  0  0  0  0  0  0  0  0  0
   47.7720   32.2710   44.0320 C   0  0  0  0  0  0  0  0  0  0  0  0
   48.0710   31.0140   43.7630 C   0  0  0  0  0  0  0  0  0  0  0  0
   47.0930   30.2440   43.2640 C   0  0  0  0  0  0  0  0  0  0  0  0
   45.6610   31.3660   43.1680 S   0  0  0  0  0  0  0  0  0  0  0  0
   48.4880   33.0090   44.4470 H   0  0  0  0  0  0  0  0  0  0  0  0
   49.0390   30.5470   43.9100 H   0  0  0  0  0  0  0  0  0  0  0  0
   47.0590   29.1840   42.9550 H   0  0  0  0  0  0  0  0  0  0  0  0
  1 29  1  0  0  0  0
  2  1  2  0  0  0  0
  2  7  1  0  0  0  0
  3  2  1  0  0  0  0
  4  3  1  0  0  0  0
  4  5  2  0  0  0  0
  5  1  1  0  0  0  0
  6  9  1  0  0  0  0
  6  4  1  0  0  0  0
  8  6  1  0  0  0  0
 10  3  1  0  0  0  0
 11 10  1  0  0  0  0
 12 10  1  0  0  0  0
 13 14  2  0  0  0  0
 13 21  1  0  0  0  0
 14 15  1  0  0  0  0
 15 19  1  0  0  0  0
 16 15  1  0  0  0  0
 16 18  1  0  0  0  0
 17 16  2  0  0  0  0
 18 10  1  6  0  0  0
 18 19  1  0  0  0  0
 19 20  1  6  0  0  0
 21 22  1  0  0  0  0
 21 20  1  0  0  0  0
 23 13  1  0  0  0  0
 24 23  1  0  0  0  0
 25 14  1  0  0  0  0
 25 26  2  0  0  0  0
 27 25  1  0  0  0  0
 28 27  1  0  0  0  0
 29 30  2  0  0  0  0
 29 32  1  0  0  0  0
 31 36  1  0  0  0  0
 32 31  2  0  0  0  0
 32 33  1  0  0  0  0
 33 34  2  0  0  0  0
 34 35  1  0  0  0  0
 35 38  1  0  0  0  0
 36 35  2  0  0  0  0
 37 31  1  0  0  0  0
 39 33  1  0  0  0  0
 39 40  2  0  0  0  0
 40 44  1  0  0  0  0
 41 45  1  0  0  0  0
 41 40  1  0  0  0  0
 42 41  2  0  0  0  0
 43 42  1  0  0  0  0
 43 39  1  0  0  0  0
 46 42  1  0  0  0  0
M  END
>  <minimizedAffinity>
-5.32022476

>  <minimizedRMSD>
1.51640069

$$$$
