
 OpenBabel03242519323D

 55 60  0  0  1  0  0  0  0  0999 V2000
   50.5510   31.3420   42.5110 C   0  0  0  0  0  0  0  0  0  0  0  0
   51.4930   31.2060   41.5680 N   0  0  0  0  0  0  0  0  0  0  0  0
   52.0920   29.9970   41.7050 C   0  0  0  0  0  0  0  0  0  0  0  0
   51.4990   29.3890   42.7520 N   0  0  0  0  0  0  0  0  0  0  0  0
   50.5600   30.1970   43.2500 N   0  0  0  0  0  0  0  0  0  0  0  0
   52.8990   29.5980   41.0800 H   0  0  0  0  0  0  0  0  0  0  0  0
   47.8330   33.7910   42.8970 C   0  0  0  0  0  0  0  0  0  0  0  0
   48.5460   34.9920   42.6100 C   0  0  0  0  0  0  0  0  0  0  0  0
   49.9130   34.9380   42.2940 C   0  0  0  0  0  0  0  0  0  0  0  0
   50.4870   33.6970   42.2820 N   0  0  0  0  0  0  0  0  0  0  0  0
   49.7640   32.5680   42.5650 C   0  0  0  0  0  0  0  0  0  0  0  0
   48.4740   32.6310   42.8620 N   0  0  0  0  0  0  0  0  0  0  0  0
   48.1490   35.9980   42.6040 H   0  0  0  0  0  0  0  0  0  0  0  0
   50.4820   35.8070   42.0730 H   0  0  0  0  0  0  0  0  0  0  0  0
   46.4200   33.9890   43.2140 C   0  0  0  0  0  0  0  0  0  0  0  0
   45.7650   35.0310   42.4650 C   0  0  0  0  0  0  0  0  0  0  0  0
   45.3430   36.2000   43.2480 C   0  0  0  0  0  0  0  0  0  0  0  0
   44.4670   35.7900   44.4350 C   0  0  0  0  0  0  0  0  0  0  0  0
   44.9410   34.5630   45.1430 C   0  0  0  0  0  0  0  0  0  0  0  0
   46.3740   34.2250   44.7600 C   0  0  0  0  0  0  0  0  0  0  0  0
   45.9060   32.9900   43.1310 H   0  0  0  0  0  0  0  0  0  0  0  0
   46.4130   35.3970   41.6260 H   0  0  0  0  0  0  0  0  0  0  0  0
   44.8620   34.6220   41.9390 H   0  0  0  0  0  0  0  0  0  0  0  0
   44.6460   36.8130   42.6040 H   0  0  0  0  0  0  0  0  0  0  0  0
   46.1130   36.9070   43.5730 H   0  0  0  0  0  0  0  0  0  0  0  0
   44.5390   36.6370   45.1670 H   0  0  0  0  0  0  0  0  0  0  0  0
   43.3950   35.7530   44.1560 H   0  0  0  0  0  0  0  0  0  0  0  0
   44.3180   33.6990   44.8070 H   0  0  0  0  0  0  0  0  0  0  0  0
   44.9040   34.6130   46.2370 H   0  0  0  0  0  0  0  0  0  0  0  0
   47.0660   35.0550   45.0160 H   0  0  0  0  0  0  0  0  0  0  0  0
   46.6720   33.2860   45.2220 H   0  0  0  0  0  0  0  0  0  0  0  0
   51.7970   28.0910   43.3040 C   0  0  0  0  0  0  0  0  0  0  0  0
   52.7180   27.7110   42.8990 H   0  0  0  0  0  0  0  0  0  0  0  0
   50.9960   27.3710   42.9620 H   0  0  0  0  0  0  0  0  0  0  0  0
   51.8480   28.1650   44.7640 C   0  0  0  0  0  3  0  0  0  0  0  0
   51.0340   27.7880   45.7370 C   0  0  0  0  0  3  0  0  0  0  0  0
   51.2930   27.8760   47.2520 C   0  0  0  0  0  0  0  0  0  0  0  0
   50.3790   27.4680   47.7180 H   0  0  0  0  0  0  0  0  0  0  0  0
   52.1800   27.2650   47.4680 H   0  0  0  0  0  0  0  0  0  0  0  0
   51.2650   32.4380   49.8600 C   0  0  0  0  0  0  0  0  0  0  0  0
   52.3800   31.8970   49.4450 C   0  0  0  0  0  0  0  0  0  0  0  0
   52.4160   30.6800   48.7610 N   0  0  0  0  0  0  0  0  0  0  0  0
   52.8810   29.7680   47.7650 C   0  0  2  0  0  0  0  0  0  0  0  0
   54.0400   29.6150   47.3050 O   0  0  0  0  0  1  0  0  0  0  0  0
   51.4900   29.2810   47.6750 C   0  0  2  0  0  3  0  0  0  0  0  0
   51.5420   29.5680   49.1350 C   0  0  2  0  0  0  0  0  0  0  0  0
   50.0390   30.0690   49.9540 S   0  0  0  0  0  0  0  0  0  0  0  0
   49.9490   31.8310   49.6470 C   0  0  0  0  0  3  0  0  0  0  0  0
   49.5790   31.9670   48.6070 H   0  0  0  0  0  0  0  0  0  0  0  0
   51.3720   33.7160   50.5650 C   0  0  0  0  0  2  0  0  0  0  0  0
   52.2500   33.7160   51.2710 H   0  0  0  0  0  0  0  0  0  0  0  0
   53.6470   32.5750   49.6990 C   0  0  0  0  0  0  0  0  0  0  0  0
   54.7120   32.0280   50.1320 O   0  0  0  0  0  0  0  0  0  0  0  0
   54.6870   33.4700   49.8420 O   0  0  0  0  0  0  0  0  0  0  0  0
   54.7240   34.3980   49.4390 H   0  0  0  0  0  0  0  0  0  0  0  0
  1 11  1  0  0  0  0
  1  5  2  0  0  0  0
  2  3  2  0  0  0  0
  2  1  1  0  0  0  0
  3  4  1  0  0  0  0
  4  5  1  0  0  0  0
  4 32  1  0  0  0  0
  6  3  1  0  0  0  0
  7 15  1  0  0  0  0
  8  7  2  0  0  0  0
  9  8  1  0  0  0  0
 10  9  2  0  0  0  0
 10 11  1  0  0  0  0
 11 12  2  0  0  0  0
 12  7  1  0  0  0  0
 13  8  1  0  0  0  0
 14  9  1  0  0  0  0
 15 20  1  0  0  0  0
 16 15  1  0  0  0  0
 16 17  1  0  0  0  0
 17 25  1  0  0  0  0
 17 18  1  0  0  0  0
 18 19  1  0  0  0  0
 18 26  1  0  0  0  0
 19 29  1  0  0  0  0
 20 30  1  0  0  0  0
 20 19  1  0  0  0  0
 20 31  1  0  0  0  0
 21 15  1  0  0  0  0
 22 16  1  0  0  0  0
 23 16  1  0  0  0  0
 24 17  1  0  0  0  0
 27 18  1  0  0  0  0
 28 19  1  0  0  0  0
 32 35  1  0  0  0  0
 33 32  1  0  0  0  0
 34 32  1  0  0  0  0
 35 36  2  0  0  0  0
 36 37  1  0  0  0  0
 37 39  1  0  0  0  0
 37 38  1  0  0  0  0
 40 50  1  0  0  0  0
 41 52  1  0  0  0  0
 41 40  2  0  0  0  0
 42 46  1  0  0  0  0
 42 41  1  0  0  0  0
 43 44  1  6  0  0  0
 43 42  1  0  0  0  0
 43 46  1  0  0  0  0
 45 37  1  1  0  0  0
 45 43  1  0  0  0  0
 45 46  1  0  0  0  0
 46 47  1  1  0  0  0
 48 40  1  0  0  0  0
 48 47  1  0  0  0  0
 49 48  1  0  0  0  0
 50 51  1  0  0  0  0
 52 54  1  0  0  0  0
 52 53  2  0  0  0  0
 55 54  1  0  0  0  0
M  END
>  <minimizedAffinity>
-5.41651964

>  <minimizedRMSD>
4.23392057

$$$$
