
 OpenBabel03242514173D

 48 51  0  0  1  0  0  0  0  0999 V2000
   46.1430   34.5690   43.5650 C   0  0  0  0  0  0  0  0  0  0  0  0
   46.2010   33.7930   44.7160 C   0  0  0  0  0  0  0  0  0  0  0  0
   45.3750   34.1950   45.7550 C   0  0  0  0  0  0  0  0  0  0  0  0
   44.5750   35.2980   45.5920 N   0  0  0  0  0  0  0  0  0  0  0  0
   44.5430   36.0180   44.4770 C   0  0  0  0  0  0  0  0  0  0  0  0
   45.3290   35.6370   43.4870 N   0  0  0  0  0  0  0  0  0  0  0  0
   45.2470   33.7600   46.7320 H   0  0  0  0  0  0  0  0  0  0  0  0
   43.8950   36.8790   44.3960 H   0  0  0  0  0  0  0  0  0  0  0  0
   47.0560   34.1560   42.4990 C   0  0  0  0  0  0  0  0  0  0  0  0
   48.4010   34.7040   42.5540 C   0  0  0  0  0  0  0  0  0  0  0  0
   48.7120   35.6040   41.4360 C   0  0  0  0  0  0  0  0  0  0  0  0
   48.5270   34.9070   40.0940 C   0  0  0  0  0  0  0  0  0  0  0  0
   47.2840   34.1040   40.0220 C   0  0  0  0  0  0  0  0  0  0  0  0
   46.3500   34.4040   41.1740 C   0  0  0  0  0  0  0  0  0  0  0  0
   47.1450   33.0280   42.4720 H   0  0  0  0  0  0  0  0  0  0  0  0
   49.2360   33.9560   42.6230 H   0  0  0  0  0  0  0  0  0  0  0  0
   48.5100   35.2870   43.5060 H   0  0  0  0  0  0  0  0  0  0  0  0
   48.0690   36.5110   41.3890 H   0  0  0  0  0  0  0  0  0  0  0  0
   49.7870   35.9070   41.4930 H   0  0  0  0  0  0  0  0  0  0  0  0
   48.6060   35.6940   39.3050 H   0  0  0  0  0  0  0  0  0  0  0  0
   49.3920   34.2290   39.8990 H   0  0  0  0  0  0  0  0  0  0  0  0
   47.4430   33.0200   39.9260 H   0  0  0  0  0  0  0  0  0  0  0  0
   46.7260   34.4270   39.1030 H   0  0  0  0  0  0  0  0  0  0  0  0
   45.4950   33.7030   41.0770 H   0  0  0  0  0  0  0  0  0  0  0  0
   46.0430   35.4570   41.1300 H   0  0  0  0  0  0  0  0  0  0  0  0
   46.8730   32.7370   45.0680 O   0  0  0  0  0  0  0  0  0  0  0  0
   46.9090   31.8890   46.1450 C   0  0  0  0  0  0  0  0  0  0  0  0
   48.0090   31.7700   46.4010 H   0  0  0  0  0  0  0  0  0  0  0  0
   46.4600   32.2040   47.0830 H   0  0  0  0  0  0  0  0  0  0  0  0
   46.4470   30.4940   45.8490 C   0  0  0  0  0  0  0  0  0  0  0  0
   47.2700   29.8700   45.4620 H   0  0  0  0  0  0  0  0  0  0  0  0
   45.7370   30.5910   44.9750 H   0  0  0  0  0  0  0  0  0  0  0  0
   47.7430   26.8000   45.4440 C   0  0  0  0  0  0  0  0  0  0  0  0
   46.4420   26.8830   45.5290 C   0  0  0  0  0  0  0  0  0  0  0  0
   45.7850   27.9250   46.1900 N   0  0  0  0  0  0  0  0  0  0  0  0
   44.7150   28.8620   46.3060 C   0  0  0  0  0  0  0  0  0  0  0  0
   43.4900   28.7590   45.9570 O   0  0  0  0  0  0  0  0  0  0  0  0
   45.7110   29.8030   46.9420 C   0  0  1  0  0  3  0  0  0  0  0  0
   46.2980   28.4940   47.4200 C   0  0  2  0  0  3  0  0  0  0  0  0
   48.0900   28.5830   47.4850 S   0  0  0  0  0  0  0  0  0  0  0  0
   48.7060   27.7540   46.0070 C   0  0  0  0  0  3  0  0  0  0  0  0
   49.0830   28.4820   45.2400 H   0  0  0  0  0  0  0  0  0  0  0  0
   48.2810   25.6430   44.7180 C   0  0  0  0  0  2  0  0  0  0  0  0
   48.3150   25.9000   43.6230 H   0  0  0  0  0  0  0  0  0  0  0  0
   45.6640   25.8250   44.8960 C   0  0  0  0  0  0  0  0  0  0  0  0
   44.6050   25.3310   45.3950 O   0  0  0  0  0  0  0  0  0  0  0  0
   45.0920   24.8410   44.1360 O   0  0  0  0  0  0  0  0  0  0  0  0
   45.4280   24.5800   43.1970 H   0  0  0  0  0  0  0  0  0  0  0  0
  1  2  1  0  0  0  0
  2 26  1  0  0  0  0
  2  3  2  0  0  0  0
  3  7  1  0  0  0  0
  4  3  1  0  0  0  0
  5  4  2  0  0  0  0
  6  1  2  0  0  0  0
  6  5  1  0  0  0  0
  8  5  1  0  0  0  0
  9 10  1  0  0  0  0
  9  1  1  0  0  0  0
 10 16  1  0  0  0  0
 10 17  1  0  0  0  0
 11 19  1  0  0  0  0
 11 10  1  0  0  0  0
 12 11  1  0  0  0  0
 13 12  1  0  0  0  0
 13 14  1  0  0  0  0
 14  9  1  0  0  0  0
 15  9  1  0  0  0  0
 18 11  1  0  0  0  0
 20 12  1  0  0  0  0
 21 12  1  0  0  0  0
 22 13  1  0  0  0  0
 23 13  1  0  0  0  0
 24 14  1  0  0  0  0
 25 14  1  0  0  0  0
 26 27  1  0  0  0  0
 27 28  1  0  0  0  0
 27 29  1  0  0  0  0
 30 27  1  0  0  0  0
 31 30  1  0  0  0  0
 32 30  1  0  0  0  0
 33 34  2  0  0  0  0
 33 41  1  0  0  0  0
 34 35  1  0  0  0  0
 35 36  1  0  0  0  0
 35 39  1  0  0  0  0
 36 38  1  0  0  0  0
 37 36  2  0  0  0  0
 38 30  1  6  0  0  0
 38 39  1  0  0  0  0
 39 40  1  6  0  0  0
 41 40  1  0  0  0  0
 42 41  1  0  0  0  0
 43 33  1  0  0  0  0
 44 43  1  0  0  0  0
 45 46  2  0  0  0  0
 45 34  1  0  0  0  0
 47 45  1  0  0  0  0
 48 47  1  0  0  0  0
M  END
>  <minimizedAffinity>
-5.50965405

>  <minimizedRMSD>
2.58945584

$$$$
