
 OpenBabel03242519323D

 55 60  0  0  1  0  0  0  0  0999 V2000
   50.5590   31.3420   42.4900 C   0  0  0  0  0  0  0  0  0  0  0  0
   51.4850   31.2050   41.5320 N   0  0  0  0  0  0  0  0  0  0  0  0
   52.0870   29.9960   41.6610 C   0  0  0  0  0  0  0  0  0  0  0  0
   51.5120   29.3910   42.7210 N   0  0  0  0  0  0  0  0  0  0  0  0
   50.5820   30.2000   43.2320 N   0  0  0  0  0  0  0  0  0  0  0  0
   52.8840   29.5960   41.0250 H   0  0  0  0  0  0  0  0  0  0  0  0
   47.8410   33.7880   42.8960 C   0  0  0  0  0  0  0  0  0  0  0  0
   48.5540   34.9920   42.6200 C   0  0  0  0  0  0  0  0  0  0  0  0
   49.9210   34.9400   42.3050 C   0  0  0  0  0  0  0  0  0  0  0  0
   50.4950   33.7000   42.2830 N   0  0  0  0  0  0  0  0  0  0  0  0
   49.7720   32.5680   42.5550 C   0  0  0  0  0  0  0  0  0  0  0  0
   48.4810   32.6290   42.8510 N   0  0  0  0  0  0  0  0  0  0  0  0
   48.1570   35.9980   42.6230 H   0  0  0  0  0  0  0  0  0  0  0  0
   50.4910   35.8110   42.0920 H   0  0  0  0  0  0  0  0  0  0  0  0
   46.4270   33.9840   43.2130 C   0  0  0  0  0  0  0  0  0  0  0  0
   45.7710   35.0270   42.4660 C   0  0  0  0  0  0  0  0  0  0  0  0
   45.3480   36.1930   43.2520 C   0  0  0  0  0  0  0  0  0  0  0  0
   44.4720   35.7790   44.4380 C   0  0  0  0  0  0  0  0  0  0  0  0
   44.9480   34.5510   45.1430 C   0  0  0  0  0  0  0  0  0  0  0  0
   46.3810   34.2160   44.7600 C   0  0  0  0  0  0  0  0  0  0  0  0
   45.9150   32.9840   43.1280 H   0  0  0  0  0  0  0  0  0  0  0  0
   46.4180   35.3950   41.6290 H   0  0  0  0  0  0  0  0  0  0  0  0
   44.8680   34.6180   41.9390 H   0  0  0  0  0  0  0  0  0  0  0  0
   44.6490   36.8060   42.6100 H   0  0  0  0  0  0  0  0  0  0  0  0
   46.1160   36.9010   43.5790 H   0  0  0  0  0  0  0  0  0  0  0  0
   44.5430   36.6250   45.1720 H   0  0  0  0  0  0  0  0  0  0  0  0
   43.4000   35.7410   44.1590 H   0  0  0  0  0  0  0  0  0  0  0  0
   44.3260   33.6870   44.8050 H   0  0  0  0  0  0  0  0  0  0  0  0
   44.9110   34.5990   46.2380 H   0  0  0  0  0  0  0  0  0  0  0  0
   47.0720   35.0470   45.0180 H   0  0  0  0  0  0  0  0  0  0  0  0
   46.6810   33.2770   45.2190 H   0  0  0  0  0  0  0  0  0  0  0  0
   51.8200   28.0950   43.2710 C   0  0  0  0  0  0  0  0  0  0  0  0
   52.7470   27.7240   42.8680 H   0  0  0  0  0  0  0  0  0  0  0  0
   51.0270   27.3680   42.9240 H   0  0  0  0  0  0  0  0  0  0  0  0
   51.8660   28.1660   44.7310 C   0  0  0  0  0  3  0  0  0  0  0  0
   51.0260   27.8350   45.6980 C   0  0  0  0  0  3  0  0  0  0  0  0
   51.2800   27.9090   47.2150 C   0  0  0  0  0  0  0  0  0  0  0  0
   50.3620   27.5000   47.6740 H   0  0  0  0  0  0  0  0  0  0  0  0
   52.1630   27.2920   47.4290 H   0  0  0  0  0  0  0  0  0  0  0  0
   51.2670   32.4460   49.8660 C   0  0  0  0  0  0  0  0  0  0  0  0
   52.3790   31.9060   49.4440 C   0  0  0  0  0  0  0  0  0  0  0  0
   52.4120   30.6960   48.7470 N   0  0  0  0  0  0  0  0  0  0  0  0
   52.8720   29.7940   47.7420 C   0  0  2  0  0  0  0  0  0  0  0  0
   54.0290   29.6430   47.2780 O   0  0  0  0  0  1  0  0  0  0  0  0
   51.4800   29.3100   47.6510 C   0  0  2  0  0  3  0  0  0  0  0  0
   51.5360   29.5820   49.1140 C   0  0  2  0  0  0  0  0  0  0  0  0
   50.0360   30.0780   49.9420 S   0  0  0  0  0  0  0  0  0  0  0  0
   49.9500   31.8440   49.6510 C   0  0  0  0  0  3  0  0  0  0  0  0
   49.5760   31.9890   48.6140 H   0  0  0  0  0  0  0  0  0  0  0  0
   51.3780   33.7170   50.5850 C   0  0  0  0  0  2  0  0  0  0  0  0
   52.2570   33.7080   51.2870 H   0  0  0  0  0  0  0  0  0  0  0  0
   53.6480   32.5790   49.7010 C   0  0  0  0  0  0  0  0  0  0  0  0
   54.7100   32.0290   50.1380 O   0  0  0  0  0  0  0  0  0  0  0  0
   54.6910   33.4700   49.8450 O   0  0  0  0  0  0  0  0  0  0  0  0
   54.7350   34.3980   49.4410 H   0  0  0  0  0  0  0  0  0  0  0  0
  1 11  1  0  0  0  0
  1  5  2  0  0  0  0
  2  3  2  0  0  0  0
  2  1  1  0  0  0  0
  3  4  1  0  0  0  0
  4  5  1  0  0  0  0
  4 32  1  0  0  0  0
  6  3  1  0  0  0  0
  7 15  1  0  0  0  0
  8 13  1  0  0  0  0
  8  7  2  0  0  0  0
  9  8  1  0  0  0  0
 10  9  2  0  0  0  0
 10 11  1  0  0  0  0
 11 12  2  0  0  0  0
 12  7  1  0  0  0  0
 14  9  1  0  0  0  0
 15 20  1  0  0  0  0
 16 15  1  0  0  0  0
 16 17  1  0  0  0  0
 17 25  1  0  0  0  0
 17 18  1  0  0  0  0
 18 19  1  0  0  0  0
 18 26  1  0  0  0  0
 19 29  1  0  0  0  0
 20 30  1  0  0  0  0
 20 19  1  0  0  0  0
 20 31  1  0  0  0  0
 21 15  1  0  0  0  0
 22 16  1  0  0  0  0
 23 16  1  0  0  0  0
 24 17  1  0  0  0  0
 27 18  1  0  0  0  0
 28 19  1  0  0  0  0
 32 35  1  0  0  0  0
 33 32  1  0  0  0  0
 34 32  1  0  0  0  0
 35 36  2  0  0  0  0
 36 37  1  0  0  0  0
 37 39  1  0  0  0  0
 37 38  1  0  0  0  0
 40 50  1  0  0  0  0
 41 52  1  0  0  0  0
 41 40  2  0  0  0  0
 42 46  1  0  0  0  0
 42 41  1  0  0  0  0
 43 44  1  6  0  0  0
 43 42  1  0  0  0  0
 43 46  1  0  0  0  0
 45 37  1  1  0  0  0
 45 43  1  0  0  0  0
 45 46  1  0  0  0  0
 46 47  1  1  0  0  0
 48 40  1  0  0  0  0
 48 47  1  0  0  0  0
 49 48  1  0  0  0  0
 50 51  1  0  0  0  0
 52 54  1  0  0  0  0
 52 53  2  0  0  0  0
 55 54  1  0  0  0  0
M  END
>  <minimizedAffinity>
-5.42674589

>  <minimizedRMSD>
4.38056803

$$$$
