
 OpenBabel03252503213D

 46 50  0  0  1  0  0  0  0  0999 V2000
   36.8790   30.0480   38.7310 C   0  0  0  0  0  0  0  0  0  0  0  0
   38.0720   30.4510   39.2650 C   0  0  0  0  0  0  0  0  0  0  0  0
   38.6070   31.2960   38.3580 N   0  0  0  0  0  0  0  0  0  0  0  0
   37.7650   31.3990   37.3120 C   0  0  0  0  0  0  0  0  0  0  0  0
   36.6920   30.6240   37.5450 N   0  0  0  0  0  0  0  0  0  0  0  0
   37.8570   32.1520   36.1050 N   0  0  0  0  0  0  0  0  0  0  0  0
   38.5190   30.1800   40.1950 H   0  0  0  0  0  0  0  0  0  0  0  0
   38.7430   32.1590   35.5300 H   0  0  0  0  0  0  0  0  0  0  0  0
   37.0580   32.7100   35.7630 H   0  0  0  0  0  0  0  0  0  0  0  0
   39.8560   32.0230   38.3850 C   0  0  0  0  0  0  0  0  0  0  0  0
   40.6360   31.2890   38.7000 H   0  0  0  0  0  0  0  0  0  0  0  0
   40.1530   32.3850   37.3990 H   0  0  0  0  0  0  0  0  0  0  0  0
   43.8800   32.8470   39.8520 C   0  0  0  0  0  0  0  0  0  0  0  0
   42.9750   33.0990   40.7690 C   0  0  0  0  0  0  0  0  0  0  0  0
   41.6020   33.2010   40.4110 N   0  0  0  0  0  0  0  0  0  0  0  0
   40.2630   32.7730   40.7580 C   0  0  0  0  0  0  0  0  0  0  0  0
   39.6610   32.2900   41.7770 O   0  0  0  0  0  0  0  0  0  0  0  0
   39.8740   33.1400   39.3960 C   0  0  1  0  0  3  0  0  0  0  0  0
   41.1180   33.9930   39.2970 C   0  0  2  0  0  3  0  0  0  0  0  0
   42.1940   33.7070   37.8980 S   0  0  0  0  0  0  0  0  0  0  0  0
   43.5590   32.6370   38.4190 C   0  0  0  0  0  3  0  0  0  0  0  0
   44.4680   32.8180   37.8040 H   0  0  0  0  0  0  0  0  0  0  0  0
   45.2820   32.7620   40.2690 C   0  0  0  0  0  2  0  0  0  0  0  0
   45.5030   31.9590   40.9940 H   0  0  0  0  0  0  0  0  0  0  0  0
   43.3630   33.2870   42.1800 C   0  0  0  0  0  0  0  0  0  0  0  0
   44.1390   34.1590   42.6350 O   0  0  0  0  0  0  0  0  0  0  0  0
   42.9710   32.5680   43.2660 O   0  0  0  0  0  0  0  0  0  0  0  0
   42.5170   32.9630   44.0570 H   0  0  0  0  0  0  0  0  0  0  0  0
   35.9050   29.0960   39.3720 C   0  0  0  0  0  0  0  0  0  0  0  0
   34.9280   29.4600   40.0930 O   0  0  0  0  0  0  0  0  0  0  0  0
   35.5790   27.0830   38.0070 C   0  0  0  0  0  0  0  0  0  0  0  0
   36.0480   27.6930   39.1830 C   0  0  0  0  0  0  0  0  0  0  0  0
   36.6340   26.8280   40.0890 C   0  0  0  0  0  0  0  0  0  0  0  0
   36.7470   25.5170   39.8690 N   0  0  0  0  0  0  0  0  0  0  0  0
   36.2750   24.9710   38.7110 C   0  0  0  0  0  0  0  0  0  0  0  0
   35.6970   25.7630   37.7950 N   0  0  0  0  0  0  0  0  0  0  0  0
   35.1170   27.7400   37.2820 H   0  0  0  0  0  0  0  0  0  0  0  0
   36.3680   23.9030   38.5320 H   0  0  0  0  0  0  0  0  0  0  0  0
   37.1360   27.3660   41.3110 C   0  0  0  0  0  0  0  0  0  0  0  0
   36.5980   27.6870   42.5140 C   0  0  0  0  0  0  0  0  0  0  0  0
   37.3300   28.1840   43.4930 C   0  0  0  0  0  0  0  0  0  0  0  0
   38.6370   28.3610   43.2530 C   0  0  0  0  0  0  0  0  0  0  0  0
   38.8460   27.7890   41.5350 S   0  0  0  0  0  0  0  0  0  0  0  0
   35.5080   27.4940   42.5850 H   0  0  0  0  0  0  0  0  0  0  0  0
   36.9680   28.4630   44.4770 H   0  0  0  0  0  0  0  0  0  0  0  0
   39.4670   28.7490   43.8710 H   0  0  0  0  0  0  0  0  0  0  0  0
  1  2  2  0  0  0  0
  1 29  1  0  0  0  0
  2  7  1  0  0  0  0
  3 10  1  0  0  0  0
  3  2  1  0  0  0  0
  4  5  2  0  0  0  0
  4  3  1  0  0  0  0
  5  1  1  0  0  0  0
  6  4  1  0  0  0  0
  8  6  1  0  0  0  0
  9  6  1  0  0  0  0
 10 11  1  0  0  0  0
 12 10  1  0  0  0  0
 13 23  1  0  0  0  0
 13 14  2  0  0  0  0
 14 25  1  0  0  0  0
 15 16  1  0  0  0  0
 15 14  1  0  0  0  0
 16 17  2  0  0  0  0
 18 10  1  6  0  0  0
 18 16  1  0  0  0  0
 19 20  1  6  0  0  0
 19 18  1  0  0  0  0
 19 15  1  0  0  0  0
 20 21  1  0  0  0  0
 21 13  1  0  0  0  0
 22 21  1  0  0  0  0
 23 24  1  0  0  0  0
 25 26  2  0  0  0  0
 25 27  1  0  0  0  0
 27 28  1  0  0  0  0
 29 30  2  0  0  0  0
 31 32  1  0  0  0  0
 32 29  1  0  0  0  0
 32 33  2  0  0  0  0
 33 39  1  0  0  0  0
 34 33  1  0  0  0  0
 35 34  2  0  0  0  0
 36 31  2  0  0  0  0
 36 35  1  0  0  0  0
 37 31  1  0  0  0  0
 38 35  1  0  0  0  0
 39 43  1  0  0  0  0
 39 40  2  0  0  0  0
 40 44  1  0  0  0  0
 40 41  1  0  0  0  0
 41 45  1  0  0  0  0
 42 41  2  0  0  0  0
 42 46  1  0  0  0  0
 43 42  1  0  0  0  0
M  END
>  <minimizedAffinity>
-6.63493919

$$$$

 OpenBabel03252503213D

 46 50  0  0  1  0  0  0  0  0999 V2000
   37.8470   29.0210   38.2220 C   0  0  0  0  0  0  0  0  0  0  0  0
   36.6320   28.4360   37.9930 C   0  0  0  0  0  0  0  0  0  0  0  0
   36.1440   29.0420   36.8890 N   0  0  0  0  0  0  0  0  0  0  0  0
   37.0350   29.9600   36.4680 C   0  0  0  0  0  0  0  0  0  0  0  0
   38.0920   29.9460   37.2960 N   0  0  0  0  0  0  0  0  0  0  0  0
   37.0020   30.8590   35.3630 N   0  0  0  0  0  0  0  0  0  0  0  0
   36.1420   27.6650   38.5420 H   0  0  0  0  0  0  0  0  0  0  0  0
   36.1440   31.4380   35.1520 H   0  0  0  0  0  0  0  0  0  0  0  0
   37.8180   30.9670   34.7390 H   0  0  0  0  0  0  0  0  0  0  0  0
   34.8990   28.8330   36.1860 C   0  0  0  0  0  0  0  0  0  0  0  0
   34.5140   29.8480   35.9260 H   0  0  0  0  0  0  0  0  0  0  0  0
   35.0320   28.3020   35.2410 H   0  0  0  0  0  0  0  0  0  0  0  0
   30.9980   30.7290   35.7240 C   0  0  0  0  0  0  0  0  0  0  0  0
   31.1470   30.2260   36.9270 C   0  0  0  0  0  0  0  0  0  0  0  0
   32.1960   29.3040   37.1940 N   0  0  0  0  0  0  0  0  0  0  0  0
   33.2710   28.9800   38.1070 C   0  0  0  0  0  0  0  0  0  0  0  0
   33.6030   29.2570   39.3100 O   0  0  0  0  0  0  0  0  0  0  0  0
   33.8410   28.1700   37.0310 C   0  0  1  0  0  3  0  0  0  0  0  0
   32.4870   28.1540   36.3580 C   0  0  2  0  0  3  0  0  0  0  0  0
   32.4180   28.6730   34.6500 S   0  0  0  0  0  0  0  0  0  0  0  0
   31.8890   30.4040   34.5840 C   0  0  0  0  0  3  0  0  0  0  0  0
   31.3670   30.6280   33.6280 H   0  0  0  0  0  0  0  0  0  0  0  0
   29.8960   31.6670   35.4970 C   0  0  0  0  0  2  0  0  0  0  0  0
   29.9440   32.5940   36.0970 H   0  0  0  0  0  0  0  0  0  0  0  0
   30.2280   30.6020   38.0200 C   0  0  0  0  0  0  0  0  0  0  0  0
   29.5420   29.8260   38.7240 O   0  0  0  0  0  0  0  0  0  0  0  0
   29.9360   31.8460   38.4860 O   0  0  0  0  0  0  0  0  0  0  0  0
   30.0700   32.1300   39.4290 H   0  0  0  0  0  0  0  0  0  0  0  0
   38.7870   28.6830   39.3500 C   0  0  0  0  0  0  0  0  0  0  0  0
   40.0340   28.5080   39.2040 O   0  0  0  0  0  0  0  0  0  0  0  0
   38.1750   27.2710   41.2610 C   0  0  0  0  0  0  0  0  0  0  0  0
   38.2910   28.5440   40.6760 C   0  0  0  0  0  0  0  0  0  0  0  0
   37.8920   29.5910   41.4860 C   0  0  0  0  0  0  0  0  0  0  0  0
   37.4330   29.4130   42.7260 N   0  0  0  0  0  0  0  0  0  0  0  0
   37.3390   28.1570   43.2500 C   0  0  0  0  0  0  0  0  0  0  0  0
   37.7120   27.1020   42.5090 N   0  0  0  0  0  0  0  0  0  0  0  0
   38.4820   26.4350   40.6460 H   0  0  0  0  0  0  0  0  0  0  0  0
   36.9650   28.0120   44.2600 H   0  0  0  0  0  0  0  0  0  0  0  0
   37.9760   30.9180   40.9680 C   0  0  0  0  0  0  0  0  0  0  0  0
   37.1210   31.7570   40.3310 C   0  0  0  0  0  0  0  0  0  0  0  0
   37.4870   32.9690   39.9570 C   0  0  0  0  0  0  0  0  0  0  0  0
   38.7450   33.3430   40.2320 C   0  0  0  0  0  0  0  0  0  0  0  0
   39.4570   31.8900   41.0720 S   0  0  0  0  0  0  0  0  0  0  0  0
   36.1120   31.3300   40.1630 H   0  0  0  0  0  0  0  0  0  0  0  0
   36.8600   33.6920   39.4460 H   0  0  0  0  0  0  0  0  0  0  0  0
   39.3090   34.2730   40.0410 H   0  0  0  0  0  0  0  0  0  0  0  0
  1 29  1  0  0  0  0
  2  1  2  0  0  0  0
  2  7  1  0  0  0  0
  3  2  1  0  0  0  0
  4  3  1  0  0  0  0
  4  5  2  0  0  0  0
  5  1  1  0  0  0  0
  6  4  1  0  0  0  0
  8  6  1  0  0  0  0
  9  6  1  0  0  0  0
 10  3  1  0  0  0  0
 11 10  1  0  0  0  0
 12 10  1  0  0  0  0
 13 14  2  0  0  0  0
 14 15  1  0  0  0  0
 14 25  1  0  0  0  0
 15 16  1  0  0  0  0
 16 17  2  0  0  0  0
 18 10  1  6  0  0  0
 18 16  1  0  0  0  0
 19 20  1  6  0  0  0
 19 18  1  0  0  0  0
 19 15  1  0  0  0  0
 21 20  1  0  0  0  0
 21 13  1  0  0  0  0
 22 21  1  0  0  0  0
 23 13  1  0  0  0  0
 23 24  1  0  0  0  0
 25 27  1  0  0  0  0
 25 26  2  0  0  0  0
 27 28  1  0  0  0  0
 29 32  1  0  0  0  0
 30 29  2  0  0  0  0
 31 36  1  0  0  0  0
 32 31  2  0  0  0  0
 32 33  1  0  0  0  0
 33 34  2  0  0  0  0
 34 35  1  0  0  0  0
 35 38  1  0  0  0  0
 36 35  2  0  0  0  0
 37 31  1  0  0  0  0
 39 43  1  0  0  0  0
 39 33  1  0  0  0  0
 40 39  2  0  0  0  0
 41 42  2  0  0  0  0
 41 40  1  0  0  0  0
 42 43  1  0  0  0  0
 44 40  1  0  0  0  0
 45 41  1  0  0  0  0
 46 42  1  0  0  0  0
M  END
>  <minimizedAffinity>
-6.4267354

$$$$

 OpenBabel03252503213D

 46 50  0  0  1  0  0  0  0  0999 V2000
   36.3570   28.5340   39.2240 C   0  0  0  0  0  0  0  0  0  0  0  0
   37.5600   28.5030   39.8750 C   0  0  0  0  0  0  0  0  0  0  0  0
   37.4760   29.4520   40.8310 N   0  0  0  0  0  0  0  0  0  0  0  0
   36.2650   30.0360   40.7590 C   0  0  0  0  0  0  0  0  0  0  0  0
   35.5700   29.4650   39.7610 N   0  0  0  0  0  0  0  0  0  0  0  0
   35.6810   31.0820   41.5310 N   0  0  0  0  0  0  0  0  0  0  0  0
   38.4050   27.8780   39.6960 H   0  0  0  0  0  0  0  0  0  0  0  0
   36.2150   31.9690   41.7450 H   0  0  0  0  0  0  0  0  0  0  0  0
   34.7210   30.9990   41.9020 H   0  0  0  0  0  0  0  0  0  0  0  0
   38.4470   29.8660   41.8180 C   0  0  0  0  0  0  0  0  0  0  0  0
   39.4460   29.7810   41.3280 H   0  0  0  0  0  0  0  0  0  0  0  0
   38.3330   30.9140   42.1070 H   0  0  0  0  0  0  0  0  0  0  0  0
   40.5500   26.1220   41.0530 C   0  0  0  0  0  0  0  0  0  0  0  0
   39.5990   25.9640   41.9450 C   0  0  0  0  0  0  0  0  0  0  0  0
   39.0060   27.0970   42.5680 N   0  0  0  0  0  0  0  0  0  0  0  0
   37.7470   27.7130   42.9290 C   0  0  0  0  0  0  0  0  0  0  0  0
   36.5320   27.3520   43.0930 O   0  0  0  0  0  0  0  0  0  0  0  0
   38.4800   28.9750   43.0330 C   0  0  1  0  0  3  0  0  0  0  0  0
   39.7680   28.1900   43.1420 C   0  0  2  0  0  3  0  0  0  0  0  0
   41.0810   28.6140   42.0070 S   0  0  0  0  0  0  0  0  0  0  0  0
   41.0560   27.4480   40.6210 C   0  0  0  0  0  3  0  0  0  0  0  0
   42.0690   27.3310   40.1760 H   0  0  0  0  0  0  0  0  0  0  0  0
   41.1360   24.9240   40.4480 C   0  0  0  0  0  2  0  0  0  0  0  0
   40.4280   24.2980   39.8760 H   0  0  0  0  0  0  0  0  0  0  0  0
   39.1350   24.6150   42.3210 C   0  0  0  0  0  0  0  0  0  0  0  0
   38.1100   24.0300   41.9020 O   0  0  0  0  0  0  0  0  0  0  0  0
   39.7100   23.7350   43.1860 O   0  0  0  0  0  0  0  0  0  0  0  0
   39.9940   22.8170   42.9340 H   0  0  0  0  0  0  0  0  0  0  0  0
   35.9590   27.6550   38.0680 C   0  0  0  0  0  0  0  0  0  0  0  0
   35.6630   26.4280   38.1810 O   0  0  0  0  0  0  0  0  0  0  0  0
   34.7220   28.8130   36.2930 C   0  0  0  0  0  0  0  0  0  0  0  0
   35.8960   28.1900   36.7520 C   0  0  0  0  0  0  0  0  0  0  0  0
   36.9290   28.1580   35.8330 C   0  0  0  0  0  0  0  0  0  0  0  0
   36.8240   28.6740   34.6080 N   0  0  0  0  0  0  0  0  0  0  0  0
   35.6630   29.2680   34.2080 C   0  0  0  0  0  0  0  0  0  0  0  0
   34.6260   29.3290   35.0580 N   0  0  0  0  0  0  0  0  0  0  0  0
   33.8990   28.8510   36.9950 H   0  0  0  0  0  0  0  0  0  0  0  0
   35.5780   29.6880   33.2100 H   0  0  0  0  0  0  0  0  0  0  0  0
   38.1570   27.5420   36.2170 C   0  0  0  0  0  0  0  0  0  0  0  0
   39.3450   27.9850   36.7010 C   0  0  0  0  0  0  0  0  0  0  0  0
   40.3360   27.1570   36.9760 C   0  0  0  0  0  0  0  0  0  0  0  0
   40.1230   25.8510   36.7590 C   0  0  0  0  0  0  0  0  0  0  0  0
   38.4150   25.7880   36.1250 S   0  0  0  0  0  0  0  0  0  0  0  0
   39.3950   29.0850   36.8360 H   0  0  0  0  0  0  0  0  0  0  0  0
   41.3090   27.4380   37.3630 H   0  0  0  0  0  0  0  0  0  0  0  0
   40.7550   24.9550   36.8950 H   0  0  0  0  0  0  0  0  0  0  0  0
  1  5  1  0  0  0  0
  1  2  2  0  0  0  0
  2  3  1  0  0  0  0
  3 10  1  0  0  0  0
  4  3  1  0  0  0  0
  4  6  1  0  0  0  0
  5  4  2  0  0  0  0
  6  8  1  0  0  0  0
  6  9  1  0  0  0  0
  7  2  1  0  0  0  0
 10 12  1  0  0  0  0
 11 10  1  0  0  0  0
 13 14  2  0  0  0  0
 14 25  1  0  0  0  0
 14 15  1  0  0  0  0
 15 16  1  0  0  0  0
 15 19  1  0  0  0  0
 16 18  1  0  0  0  0
 16 17  2  0  0  0  0
 18 10  1  6  0  0  0
 18 19  1  0  0  0  0
 19 20  1  6  0  0  0
 21 13  1  0  0  0  0
 21 20  1  0  0  0  0
 22 21  1  0  0  0  0
 23 13  1  0  0  0  0
 24 23  1  0  0  0  0
 25 27  1  0  0  0  0
 26 25  2  0  0  0  0
 28 27  1  0  0  0  0
 29 30  2  0  0  0  0
 29  1  1  0  0  0  0
 31 32  1  0  0  0  0
 31 37  1  0  0  0  0
 32 29  1  0  0  0  0
 33 39  1  0  0  0  0
 33 32  2  0  0  0  0
 34 33  1  0  0  0  0
 35 34  2  0  0  0  0
 35 36  1  0  0  0  0
 36 31  2  0  0  0  0
 38 35  1  0  0  0  0
 39 40  2  0  0  0  0
 40 44  1  0  0  0  0
 40 41  1  0  0  0  0
 41 45  1  0  0  0  0
 42 46  1  0  0  0  0
 42 41  2  0  0  0  0
 43 39  1  0  0  0  0
 43 42  1  0  0  0  0
M  END
>  <minimizedAffinity>
-6.22570229

$$$$

 OpenBabel03252503213D

 46 50  0  0  1  0  0  0  0  0999 V2000
   37.8210   30.8000   39.3200 C   0  0  0  0  0  0  0  0  0  0  0  0
   39.1840   30.7370   39.2240 C   0  0  0  0  0  0  0  0  0  0  0  0
   39.4880   31.3050   38.0380 N   0  0  0  0  0  0  0  0  0  0  0  0
   38.3480   31.6980   37.4390 C   0  0  0  0  0  0  0  0  0  0  0  0
   37.3130   31.3850   38.2360 N   0  0  0  0  0  0  0  0  0  0  0  0
   38.1200   32.3420   36.1880 N   0  0  0  0  0  0  0  0  0  0  0  0
   39.8890   30.3340   39.9150 H   0  0  0  0  0  0  0  0  0  0  0  0
   38.5940   32.0080   35.3050 H   0  0  0  0  0  0  0  0  0  0  0  0
   37.4840   33.1520   36.1140 H   0  0  0  0  0  0  0  0  0  0  0  0
   40.7720   31.5140   37.4080 C   0  0  0  0  0  0  0  0  0  0  0  0
   41.4640   30.7610   37.8550 H   0  0  0  0  0  0  0  0  0  0  0  0
   40.7510   31.3140   36.3340 H   0  0  0  0  0  0  0  0  0  0  0  0
   44.0980   31.3050   40.2220 C   0  0  0  0  0  0  0  0  0  0  0  0
   43.4510   32.4420   40.3280 C   0  0  0  0  0  0  0  0  0  0  0  0
   42.5440   32.8480   39.3100 N   0  0  0  0  0  0  0  0  0  0  0  0
   41.2160   33.3670   39.0590 C   0  0  0  0  0  0  0  0  0  0  0  0
   40.3040   33.9820   39.7110 O   0  0  0  0  0  0  0  0  0  0  0  0
   41.3630   32.8710   37.6910 C   0  0  1  0  0  3  0  0  0  0  0  0
   42.8600   32.8210   37.8950 C   0  0  2  0  0  3  0  0  0  0  0  0
   43.6820   31.2760   37.5340 S   0  0  0  0  0  0  0  0  0  0  0  0
   43.9310   30.3700   39.0830 C   0  0  0  0  0  3  0  0  0  0  0  0
   44.8170   29.7000   39.0190 H   0  0  0  0  0  0  0  0  0  0  0  0
   45.0280   30.9360   41.2920 C   0  0  0  0  0  2  0  0  0  0  0  0
   44.5660   30.8120   42.2880 H   0  0  0  0  0  0  0  0  0  0  0  0
   43.6570   33.3200   41.4960 C   0  0  0  0  0  0  0  0  0  0  0  0
   44.5840   34.1480   41.6590 O   0  0  0  0  0  0  0  0  0  0  0  0
   42.9010   33.4170   42.6230 O   0  0  0  0  0  0  0  0  0  0  0  0
   42.4740   34.2600   42.9320 H   0  0  0  0  0  0  0  0  0  0  0  0
   36.9950   30.2920   40.4720 C   0  0  0  0  0  0  0  0  0  0  0  0
   36.2020   31.0130   41.1480 O   0  0  0  0  0  0  0  0  0  0  0  0
   37.7870   28.5560   42.0150 C   0  0  0  0  0  0  0  0  0  0  0  0
   37.0760   28.9260   40.8600 C   0  0  0  0  0  0  0  0  0  0  0  0
   36.4930   27.8730   40.1800 C   0  0  0  0  0  0  0  0  0  0  0  0
   36.5950   26.6050   40.5830 N   0  0  0  0  0  0  0  0  0  0  0  0
   37.2970   26.2970   41.7110 C   0  0  0  0  0  0  0  0  0  0  0  0
   37.8850   27.2790   42.4120 N   0  0  0  0  0  0  0  0  0  0  0  0
   38.2530   29.3640   42.5660 H   0  0  0  0  0  0  0  0  0  0  0  0
   37.3800   25.2640   42.0380 H   0  0  0  0  0  0  0  0  0  0  0  0
   35.7530   28.1600   38.9940 C   0  0  0  0  0  0  0  0  0  0  0  0
   34.5300   28.6840   38.7270 C   0  0  0  0  0  0  0  0  0  0  0  0
   34.0950   28.8380   37.4900 C   0  0  0  0  0  0  0  0  0  0  0  0
   34.9140   28.4550   36.5000 C   0  0  0  0  0  0  0  0  0  0  0  0
   36.3910   27.8380   37.3700 S   0  0  0  0  0  0  0  0  0  0  0  0
   33.9510   28.9600   39.6320 H   0  0  0  0  0  0  0  0  0  0  0  0
   33.1330   29.2470   37.2030 H   0  0  0  0  0  0  0  0  0  0  0  0
   34.8150   28.4660   35.3990 H   0  0  0  0  0  0  0  0  0  0  0  0
  1 29  1  0  0  0  0
  2  1  2  0  0  0  0
  2  7  1  0  0  0  0
  3  2  1  0  0  0  0
  4  3  1  0  0  0  0
  4  5  2  0  0  0  0
  5  1  1  0  0  0  0
  6  4  1  0  0  0  0
  8  6  1  0  0  0  0
  9  6  1  0  0  0  0
 10 11  1  0  0  0  0
 10  3  1  0  0  0  0
 12 10  1  0  0  0  0
 13 14  2  0  0  0  0
 13 23  1  0  0  0  0
 14 25  1  0  0  0  0
 15 14  1  0  0  0  0
 16 15  1  0  0  0  0
 16 17  2  0  0  0  0
 18 10  1  1  0  0  0
 18 19  1  0  0  0  0
 18 16  1  0  0  0  0
 19 20  1  1  0  0  0
 19 15  1  0  0  0  0
 20 21  1  0  0  0  0
 21 13  1  0  0  0  0
 22 21  1  0  0  0  0
 23 24  1  0  0  0  0
 25 26  2  0  0  0  0
 25 27  1  0  0  0  0
 27 28  1  0  0  0  0
 29 32  1  0  0  0  0
 29 30  2  0  0  0  0
 31 36  1  0  0  0  0
 31 37  1  0  0  0  0
 32 31  2  0  0  0  0
 33 34  2  0  0  0  0
 33 32  1  0  0  0  0
 34 35  1  0  0  0  0
 35 38  1  0  0  0  0
 35 36  2  0  0  0  0
 39 33  1  0  0  0  0
 40 39  2  0  0  0  0
 40 44  1  0  0  0  0
 41 40  1  0  0  0  0
 42 43  1  0  0  0  0
 42 41  2  0  0  0  0
 43 39  1  0  0  0  0
 45 41  1  0  0  0  0
 46 42  1  0  0  0  0
M  END
>  <minimizedAffinity>
-6.19725227

$$$$

 OpenBabel03252503213D

 46 50  0  0  1  0  0  0  0  0999 V2000
   37.3530   30.0820   38.8300 C   0  0  0  0  0  0  0  0  0  0  0  0
   38.3670   29.7860   39.6990 C   0  0  0  0  0  0  0  0  0  0  0  0
   37.9270   30.1800   40.9130 N   0  0  0  0  0  0  0  0  0  0  0  0
   36.6900   30.6970   40.7810 C   0  0  0  0  0  0  0  0  0  0  0  0
   36.3350   30.6350   39.4860 N   0  0  0  0  0  0  0  0  0  0  0  0
   35.7970   31.2480   41.7440 N   0  0  0  0  0  0  0  0  0  0  0  0
   39.3140   29.3390   39.5010 H   0  0  0  0  0  0  0  0  0  0  0  0
   36.1280   31.9480   42.4620 H   0  0  0  0  0  0  0  0  0  0  0  0
   34.8010   30.9750   41.7640 H   0  0  0  0  0  0  0  0  0  0  0  0
   38.5740   30.1160   42.2040 C   0  0  0  0  0  0  0  0  0  0  0  0
   39.6500   29.8970   42.0020 H   0  0  0  0  0  0  0  0  0  0  0  0
   38.5480   31.0690   42.7360 H   0  0  0  0  0  0  0  0  0  0  0  0
   40.2390   26.2450   41.0750 C   0  0  0  0  0  0  0  0  0  0  0  0
   39.0290   26.1210   41.5680 C   0  0  0  0  0  0  0  0  0  0  0  0
   38.4310   27.1980   42.2790 N   0  0  0  0  0  0  0  0  0  0  0  0
   37.2290   27.9930   42.4120 C   0  0  0  0  0  0  0  0  0  0  0  0
   35.9920   27.8940   42.1050 O   0  0  0  0  0  0  0  0  0  0  0  0
   38.0580   29.0000   43.0750 C   0  0  1  0  0  3  0  0  0  0  0  0
   39.1010   27.9350   43.3330 C   0  0  2  0  0  3  0  0  0  0  0  0
   40.7710   28.2820   42.7980 S   0  0  0  0  0  0  0  0  0  0  0  0
   41.0520   27.4800   41.1990 C   0  0  0  0  0  3  0  0  0  0  0  0
   42.1270   27.2340   41.0560 H   0  0  0  0  0  0  0  0  0  0  0  0
   40.8160   25.1040   40.3590 C   0  0  0  0  0  2  0  0  0  0  0  0
   40.2620   24.7960   39.4540 H   0  0  0  0  0  0  0  0  0  0  0  0
   38.2720   24.8660   41.3980 C   0  0  0  0  0  0  0  0  0  0  0  0
   37.4720   24.5900   40.4740 O   0  0  0  0  0  0  0  0  0  0  0  0
   38.2800   23.7610   42.1930 O   0  0  0  0  0  0  0  0  0  0  0  0
   38.5220   22.8510   41.8740 H   0  0  0  0  0  0  0  0  0  0  0  0
   37.3650   29.8290   37.3460 C   0  0  0  0  0  0  0  0  0  0  0  0
   37.2920   30.7430   36.4710 O   0  0  0  0  0  0  0  0  0  0  0  0
   38.7220   27.8950   36.6810 C   0  0  0  0  0  0  0  0  0  0  0  0
   37.4640   28.5000   36.8480 C   0  0  0  0  0  0  0  0  0  0  0  0
   36.3900   27.7040   36.4960 C   0  0  0  0  0  0  0  0  0  0  0  0
   36.5300   26.4610   36.0330 N   0  0  0  0  0  0  0  0  0  0  0  0
   37.7730   25.9180   35.8880 C   0  0  0  0  0  0  0  0  0  0  0  0
   38.8540   26.6440   36.2150 N   0  0  0  0  0  0  0  0  0  0  0  0
   39.5790   28.4990   36.9510 H   0  0  0  0  0  0  0  0  0  0  0  0
   37.8880   24.9050   35.5110 H   0  0  0  0  0  0  0  0  0  0  0  0
   35.0750   28.2420   36.6340 C   0  0  0  0  0  0  0  0  0  0  0  0
   34.1850   28.3570   37.6510 C   0  0  0  0  0  0  0  0  0  0  0  0
   33.0030   28.9200   37.4800 C   0  0  0  0  0  0  0  0  0  0  0  0
   32.7140   29.3790   36.2540 C   0  0  0  0  0  0  0  0  0  0  0  0
   34.2040   28.9900   35.2800 S   0  0  0  0  0  0  0  0  0  0  0  0
   34.5440   27.9380   38.6130 H   0  0  0  0  0  0  0  0  0  0  0  0
   32.2440   29.0460   38.2440 H   0  0  0  0  0  0  0  0  0  0  0  0
   31.8250   29.8820   35.8330 H   0  0  0  0  0  0  0  0  0  0  0  0
  1  5  1  0  0  0  0
  1  2  2  0  0  0  0
  2  3  1  0  0  0  0
  3 10  1  0  0  0  0
  4  3  1  0  0  0  0
  4  6  1  0  0  0  0
  5  4  2  0  0  0  0
  6  9  1  0  0  0  0
  6  8  1  0  0  0  0
  7  2  1  0  0  0  0
 10 12  1  0  0  0  0
 11 10  1  0  0  0  0
 13 21  1  0  0  0  0
 13 14  2  0  0  0  0
 14 15  1  0  0  0  0
 15 16  1  0  0  0  0
 15 19  1  0  0  0  0
 16 18  1  0  0  0  0
 17 16  2  0  0  0  0
 18 10  1  6  0  0  0
 18 19  1  0  0  0  0
 19 20  1  6  0  0  0
 21 20  1  0  0  0  0
 22 21  1  0  0  0  0
 23 13  1  0  0  0  0
 24 23  1  0  0  0  0
 25 14  1  0  0  0  0
 25 27  1  0  0  0  0
 26 25  2  0  0  0  0
 28 27  1  0  0  0  0
 29  1  1  0  0  0  0
 30 29  2  0  0  0  0
 31 32  1  0  0  0  0
 31 37  1  0  0  0  0
 32 29  1  0  0  0  0
 33 39  1  0  0  0  0
 33 32  2  0  0  0  0
 34 33  1  0  0  0  0
 35 34  2  0  0  0  0
 35 36  1  0  0  0  0
 36 31  2  0  0  0  0
 38 35  1  0  0  0  0
 39 40  2  0  0  0  0
 40 44  1  0  0  0  0
 41 40  1  0  0  0  0
 41 45  1  0  0  0  0
 42 41  2  0  0  0  0
 43 42  1  0  0  0  0
 43 39  1  0  0  0  0
 46 42  1  0  0  0  0
M  END
>  <minimizedAffinity>
-6.16966629

$$$$

 OpenBabel03252503213D

 46 50  0  0  1  0  0  0  0  0999 V2000
   37.9180   28.8450   41.7970 C   0  0  0  0  0  0  0  0  0  0  0  0
   38.9200   29.1540   40.9190 C   0  0  0  0  0  0  0  0  0  0  0  0
   38.5710   30.3410   40.3780 N   0  0  0  0  0  0  0  0  0  0  0  0
   37.3980   30.7340   40.9110 C   0  0  0  0  0  0  0  0  0  0  0  0
   36.9940   29.8040   41.7930 N   0  0  0  0  0  0  0  0  0  0  0  0
   36.6070   31.8960   40.6820 N   0  0  0  0  0  0  0  0  0  0  0  0
   39.8030   28.6040   40.6840 H   0  0  0  0  0  0  0  0  0  0  0  0
   36.3970   32.2320   39.7030 H   0  0  0  0  0  0  0  0  0  0  0  0
   36.2200   32.4410   41.4700 H   0  0  0  0  0  0  0  0  0  0  0  0
   39.2490   31.1490   39.3900 C   0  0  0  0  0  0  0  0  0  0  0  0
   39.9960   30.4800   38.9000 H   0  0  0  0  0  0  0  0  0  0  0  0
   38.5800   31.4960   38.5990 H   0  0  0  0  0  0  0  0  0  0  0  0
   43.3590   31.3040   37.9380 C   0  0  0  0  0  0  0  0  0  0  0  0
   43.2650   31.7690   39.1620 C   0  0  0  0  0  0  0  0  0  0  0  0
   41.9940   32.1000   39.7080 N   0  0  0  0  0  0  0  0  0  0  0  0
   41.1350   31.9440   40.8620 C   0  0  0  0  0  0  0  0  0  0  0  0
   41.2600   31.6390   42.0970 O   0  0  0  0  0  0  0  0  0  0  0  0
   40.0190   32.2990   39.9860 C   0  0  1  0  0  3  0  0  0  0  0  0
   41.0060   32.9030   39.0130 C   0  0  2  0  0  3  0  0  0  0  0  0
   40.9250   32.3470   37.3170 S   0  0  0  0  0  0  0  0  0  0  0  0
   42.1890   31.0760   37.0560 C   0  0  0  0  0  3  0  0  0  0  0  0
   42.5210   31.0520   35.9950 H   0  0  0  0  0  0  0  0  0  0  0  0
   44.6920   30.9870   37.4180 C   0  0  0  0  0  2  0  0  0  0  0  0
   45.2320   30.1990   37.9730 H   0  0  0  0  0  0  0  0  0  0  0  0
   44.4720   31.9620   39.9890 C   0  0  0  0  0  0  0  0  0  0  0  0
   45.1670   33.0000   40.0730 O   0  0  0  0  0  0  0  0  0  0  0  0
   45.0770   31.0700   40.8210 O   0  0  0  0  0  0  0  0  0  0  0  0
   45.2260   31.2310   41.7900 H   0  0  0  0  0  0  0  0  0  0  0  0
   37.8490   27.6080   42.6520 C   0  0  0  0  0  0  0  0  0  0  0  0
   36.8280   27.2660   43.3220 O   0  0  0  0  0  0  0  0  0  0  0  0
   40.0620   27.0720   43.5670 C   0  0  0  0  0  0  0  0  0  0  0  0
   38.9710   26.7390   42.7450 C   0  0  0  0  0  0  0  0  0  0  0  0
   39.1020   25.5380   42.0720 C   0  0  0  0  0  0  0  0  0  0  0  0
   40.1750   24.7550   42.1890 N   0  0  0  0  0  0  0  0  0  0  0  0
   41.2080   25.1220   43.0000 C   0  0  0  0  0  0  0  0  0  0  0  0
   41.1370   26.2780   43.6790 N   0  0  0  0  0  0  0  0  0  0  0  0
   39.9830   28.0080   44.1050 H   0  0  0  0  0  0  0  0  0  0  0  0
   42.0820   24.4840   43.0960 H   0  0  0  0  0  0  0  0  0  0  0  0
   38.0390   25.1250   41.2130 C   0  0  0  0  0  0  0  0  0  0  0  0
   36.9610   24.3120   41.3400 C   0  0  0  0  0  0  0  0  0  0  0  0
   36.1200   24.1110   40.3420 C   0  0  0  0  0  0  0  0  0  0  0  0
   36.3730   24.7470   39.1900 C   0  0  0  0  0  0  0  0  0  0  0  0
   37.8950   25.6880   39.5360 S   0  0  0  0  0  0  0  0  0  0  0  0
   36.8640   23.8460   42.3420 H   0  0  0  0  0  0  0  0  0  0  0  0
   35.2410   23.4760   40.3720 H   0  0  0  0  0  0  0  0  0  0  0  0
   35.8540   24.7650   38.2150 H   0  0  0  0  0  0  0  0  0  0  0  0
  1 29  1  0  0  0  0
  2  1  2  0  0  0  0
  3  4  1  0  0  0  0
  3  2  1  0  0  0  0
  4  5  2  0  0  0  0
  5  1  1  0  0  0  0
  6  4  1  0  0  0  0
  6  9  1  0  0  0  0
  7  2  1  0  0  0  0
  8  6  1  0  0  0  0
 10  3  1  0  0  0  0
 11 10  1  0  0  0  0
 12 10  1  0  0  0  0
 13 14  2  0  0  0  0
 14 15  1  0  0  0  0
 14 25  1  0  0  0  0
 15 16  1  0  0  0  0
 16 17  2  0  0  0  0
 18 10  1  6  0  0  0
 18 16  1  0  0  0  0
 19 20  1  6  0  0  0
 19 15  1  0  0  0  0
 19 18  1  0  0  0  0
 21 20  1  0  0  0  0
 21 13  1  0  0  0  0
 22 21  1  0  0  0  0
 23 13  1  0  0  0  0
 23 24  1  0  0  0  0
 25 26  2  0  0  0  0
 25 27  1  0  0  0  0
 27 28  1  0  0  0  0
 29 32  1  0  0  0  0
 29 30  2  0  0  0  0
 31 36  1  0  0  0  0
 31 37  1  0  0  0  0
 32 31  2  0  0  0  0
 33 34  2  0  0  0  0
 33 32  1  0  0  0  0
 34 35  1  0  0  0  0
 35 38  1  0  0  0  0
 35 36  2  0  0  0  0
 39 40  2  0  0  0  0
 39 33  1  0  0  0  0
 40 44  1  0  0  0  0
 41 45  1  0  0  0  0
 41 40  1  0  0  0  0
 42 43  1  0  0  0  0
 42 41  2  0  0  0  0
 43 39  1  0  0  0  0
 46 42  1  0  0  0  0
M  END
>  <minimizedAffinity>
-6.03535795

$$$$

 OpenBabel03252503213D

 46 50  0  0  1  0  0  0  0  0999 V2000
   35.9370   28.5070   39.4500 C   0  0  0  0  0  0  0  0  0  0  0  0
   37.2180   28.4670   39.9260 C   0  0  0  0  0  0  0  0  0  0  0  0
   37.3110   29.4970   40.7950 N   0  0  0  0  0  0  0  0  0  0  0  0
   36.1260   30.1360   40.8400 C   0  0  0  0  0  0  0  0  0  0  0  0
   35.2730   29.5200   40.0050 N   0  0  0  0  0  0  0  0  0  0  0  0
   35.7020   31.2720   41.5880 N   0  0  0  0  0  0  0  0  0  0  0  0
   38.0030   27.7870   39.6890 H   0  0  0  0  0  0  0  0  0  0  0  0
   36.2960   32.1440   41.6440 H   0  0  0  0  0  0  0  0  0  0  0  0
   34.8020   31.2710   42.0950 H   0  0  0  0  0  0  0  0  0  0  0  0
   38.4290   29.9410   41.5960 C   0  0  0  0  0  0  0  0  0  0  0  0
   39.3410   29.7850   40.9710 H   0  0  0  0  0  0  0  0  0  0  0  0
   38.3880   31.0090   41.8200 H   0  0  0  0  0  0  0  0  0  0  0  0
   40.0380   25.9700   40.7770 C   0  0  0  0  0  0  0  0  0  0  0  0
   39.2640   25.9640   41.8370 C   0  0  0  0  0  0  0  0  0  0  0  0
   38.8930   27.1880   42.4600 N   0  0  0  0  0  0  0  0  0  0  0  0
   37.7800   27.9440   42.9930 C   0  0  0  0  0  0  0  0  0  0  0  0
   36.5930   27.7120   43.4060 O   0  0  0  0  0  0  0  0  0  0  0  0
   38.6190   29.1350   42.8540 C   0  0  1  0  0  3  0  0  0  0  0  0
   39.8360   28.2390   42.7920 C   0  0  2  0  0  3  0  0  0  0  0  0
   40.9400   28.4580   41.4040 S   0  0  0  0  0  0  0  0  0  0  0  0
   40.5590   27.2090   40.1490 C   0  0  0  0  0  3  0  0  0  0  0  0
   41.4560   26.9670   39.5380 H   0  0  0  0  0  0  0  0  0  0  0  0
   40.4000   24.6830   40.1770 C   0  0  0  0  0  2  0  0  0  0  0  0
   39.5480   24.0910   39.7990 H   0  0  0  0  0  0  0  0  0  0  0  0
   38.7720   24.6940   42.4040 C   0  0  0  0  0  0  0  0  0  0  0  0
   37.6620   24.1560   42.1880 O   0  0  0  0  0  0  0  0  0  0  0  0
   39.4050   23.8520   43.2650 O   0  0  0  0  0  0  0  0  0  0  0  0
   39.5900   22.8950   43.0680 H   0  0  0  0  0  0  0  0  0  0  0  0
   35.3420   27.5560   38.4450 C   0  0  0  0  0  0  0  0  0  0  0  0
   34.2120   27.7220   37.8960 O   0  0  0  0  0  0  0  0  0  0  0  0
   36.1860   25.3070   38.9470 C   0  0  0  0  0  0  0  0  0  0  0  0
   36.0550   26.3880   38.0570 C   0  0  0  0  0  0  0  0  0  0  0  0
   36.6630   26.2020   36.8290 C   0  0  0  0  0  0  0  0  0  0  0  0
   37.3220   25.0880   36.5090 N   0  0  0  0  0  0  0  0  0  0  0  0
   37.4220   24.0660   37.4070 C   0  0  0  0  0  0  0  0  0  0  0  0
   36.8510   24.1900   38.6160 N   0  0  0  0  0  0  0  0  0  0  0  0
   35.7180   25.4290   39.9150 H   0  0  0  0  0  0  0  0  0  0  0  0
   37.9590   23.1580   37.1460 H   0  0  0  0  0  0  0  0  0  0  0  0
   36.5790   27.2520   35.8670 C   0  0  0  0  0  0  0  0  0  0  0  0
   37.2250   28.4290   35.6690 C   0  0  0  0  0  0  0  0  0  0  0  0
   36.9260   29.2250   34.6590 C   0  0  0  0  0  0  0  0  0  0  0  0
   35.9530   28.8230   33.8290 C   0  0  0  0  0  0  0  0  0  0  0  0
   35.4260   27.2200   34.5190 S   0  0  0  0  0  0  0  0  0  0  0  0
   38.0080   28.6460   36.4240 H   0  0  0  0  0  0  0  0  0  0  0  0
   37.3980   30.1760   34.4390 H   0  0  0  0  0  0  0  0  0  0  0  0
   35.5050   29.2740   32.9250 H   0  0  0  0  0  0  0  0  0  0  0  0
  1  2  2  0  0  0  0
  1  5  1  0  0  0  0
  2  3  1  0  0  0  0
  3  4  1  0  0  0  0
  3 10  1  0  0  0  0
  4  6  1  0  0  0  0
  5  4  2  0  0  0  0
  6  8  1  0  0  0  0
  6  9  1  0  0  0  0
  7  2  1  0  0  0  0
 10 12  1  0  0  0  0
 11 10  1  0  0  0  0
 13 14  2  0  0  0  0
 14 25  1  0  0  0  0
 14 15  1  0  0  0  0
 15 19  1  0  0  0  0
 15 16  1  0  0  0  0
 16 17  2  0  0  0  0
 18 10  1  6  0  0  0
 18 16  1  0  0  0  0
 19 20  1  6  0  0  0
 19 18  1  0  0  0  0
 21 13  1  0  0  0  0
 21 20  1  0  0  0  0
 22 21  1  0  0  0  0
 23 13  1  0  0  0  0
 24 23  1  0  0  0  0
 25 27  1  0  0  0  0
 26 25  2  0  0  0  0
 28 27  1  0  0  0  0
 29  1  1  0  0  0  0
 30 29  2  0  0  0  0
 31 37  1  0  0  0  0
 32 29  1  0  0  0  0
 32 31  2  0  0  0  0
 33 32  1  0  0  0  0
 34 33  2  0  0  0  0
 34 35  1  0  0  0  0
 35 36  2  0  0  0  0
 36 31  1  0  0  0  0
 38 35  1  0  0  0  0
 39 33  1  0  0  0  0
 40 39  2  0  0  0  0
 40 44  1  0  0  0  0
 41 40  1  0  0  0  0
 42 43  1  0  0  0  0
 42 41  2  0  0  0  0
 43 39  1  0  0  0  0
 45 41  1  0  0  0  0
 46 42  1  0  0  0  0
M  END
>  <minimizedAffinity>
-5.96865463

$$$$

 OpenBabel03252503213D

 46 50  0  0  1  0  0  0  0  0999 V2000
   39.9630   27.6190   42.0860 C   0  0  0  0  0  0  0  0  0  0  0  0
   39.9550   28.9780   41.9340 C   0  0  0  0  0  0  0  0  0  0  0  0
   41.1930   29.2990   41.4980 N   0  0  0  0  0  0  0  0  0  0  0  0
   41.9220   28.1710   41.3920 C   0  0  0  0  0  0  0  0  0  0  0  0
   41.1570   27.1290   41.7570 N   0  0  0  0  0  0  0  0  0  0  0  0
   43.2700   27.9630   40.9820 N   0  0  0  0  0  0  0  0  0  0  0  0
   39.1640   29.6700   42.1090 H   0  0  0  0  0  0  0  0  0  0  0  0
   44.0560   28.5630   41.3550 H   0  0  0  0  0  0  0  0  0  0  0  0
   43.5130   27.2180   40.3090 H   0  0  0  0  0  0  0  0  0  0  0  0
   41.7590   30.5870   41.1710 C   0  0  0  0  0  0  0  0  0  0  0  0
   41.0250   31.3500   41.5260 H   0  0  0  0  0  0  0  0  0  0  0  0
   42.6920   30.7850   41.7030 H   0  0  0  0  0  0  0  0  0  0  0  0
   38.4800   32.9000   39.4590 C   0  0  0  0  0  0  0  0  0  0  0  0
   38.9750   32.0520   38.5870 C   0  0  0  0  0  0  0  0  0  0  0  0
   40.2330   31.4320   38.8260 N   0  0  0  0  0  0  0  0  0  0  0  0
   40.9370   30.1670   38.8240 C   0  0  0  0  0  0  0  0  0  0  0  0
   40.7900   29.0050   38.3120 O   0  0  0  0  0  0  0  0  0  0  0  0
   41.9300   30.8050   39.6890 C   0  0  1  0  0  3  0  0  0  0  0  0
   41.4200   32.1550   39.2380 C   0  0  2  0  0  3  0  0  0  0  0  0
   40.9530   33.3180   40.5120 S   0  0  0  0  0  0  0  0  0  0  0  0
   39.1560   33.2570   40.7300 C   0  0  0  0  0  3  0  0  0  0  0  0
   38.7630   34.2290   41.1000 H   0  0  0  0  0  0  0  0  0  0  0  0
   37.1860   33.5200   39.1630 C   0  0  0  0  0  2  0  0  0  0  0  0
   36.3420   32.8130   39.0700 H   0  0  0  0  0  0  0  0  0  0  0  0
   38.2430   31.7340   37.3460 C   0  0  0  0  0  0  0  0  0  0  0  0
   37.4330   30.7950   37.1720 O   0  0  0  0  0  0  0  0  0  0  0  0
   38.2900   32.3790   36.1490 O   0  0  0  0  0  0  0  0  0  0  0  0
   37.4950   32.7730   35.7010 H   0  0  0  0  0  0  0  0  0  0  0  0
   38.8050   26.7790   42.5550 C   0  0  0  0  0  0  0  0  0  0  0  0
   38.2330   26.9250   43.6770 O   0  0  0  0  0  0  0  0  0  0  0  0
   38.7850   24.4390   41.8170 C   0  0  0  0  0  0  0  0  0  0  0  0
   38.2850   25.7500   41.7230 C   0  0  0  0  0  0  0  0  0  0  0  0
   37.2850   25.9200   40.7830 C   0  0  0  0  0  0  0  0  0  0  0  0
   36.8280   24.9230   40.0230 N   0  0  0  0  0  0  0  0  0  0  0  0
   37.3460   23.6680   40.1520 C   0  0  0  0  0  0  0  0  0  0  0  0
   38.3190   23.4430   41.0490 N   0  0  0  0  0  0  0  0  0  0  0  0
   39.5690   24.2810   42.5470 H   0  0  0  0  0  0  0  0  0  0  0  0
   36.9740   22.8560   39.5330 H   0  0  0  0  0  0  0  0  0  0  0  0
   36.7230   27.2210   40.6220 C   0  0  0  0  0  0  0  0  0  0  0  0
   36.2060   28.1560   41.4580 C   0  0  0  0  0  0  0  0  0  0  0  0
   35.7440   29.3100   41.0110 C   0  0  0  0  0  0  0  0  0  0  0  0
   35.8050   29.5240   39.6890 C   0  0  0  0  0  0  0  0  0  0  0  0
   36.5630   28.0010   39.0350 S   0  0  0  0  0  0  0  0  0  0  0  0
   36.2130   27.8580   42.5260 H   0  0  0  0  0  0  0  0  0  0  0  0
   35.3180   30.1010   41.6190 H   0  0  0  0  0  0  0  0  0  0  0  0
   35.5000   30.3740   39.0530 H   0  0  0  0  0  0  0  0  0  0  0  0
  1 29  1  0  0  0  0
  2  1  2  0  0  0  0
  2  7  1  0  0  0  0
  3  2  1  0  0  0  0
  4  3  1  0  0  0  0
  4  5  2  0  0  0  0
  5  1  1  0  0  0  0
  6  8  1  0  0  0  0
  6  4  1  0  0  0  0
  9  6  1  0  0  0  0
 10  3  1  0  0  0  0
 10 11  1  0  0  0  0
 10 12  1  0  0  0  0
 13 21  1  0  0  0  0
 14 15  1  0  0  0  0
 14 13  2  0  0  0  0
 15 19  1  0  0  0  0
 16 15  1  0  0  0  0
 16 18  1  0  0  0  0
 17 16  2  0  0  0  0
 18 10  1  1  0  0  0
 19 18  1  0  0  0  0
 19 20  1  1  0  0  0
 20 21  1  0  0  0  0
 21 22  1  0  0  0  0
 23 13  1  0  0  0  0
 24 23  1  0  0  0  0
 25 14  1  0  0  0  0
 26 25  2  0  0  0  0
 27 25  1  0  0  0  0
 28 27  1  0  0  0  0
 29 30  2  0  0  0  0
 31 37  1  0  0  0  0
 32 31  1  0  0  0  0
 32 29  1  0  0  0  0
 33 32  2  0  0  0  0
 34 35  2  0  0  0  0
 34 33  1  0  0  0  0
 35 36  1  0  0  0  0
 36 31  2  0  0  0  0
 38 35  1  0  0  0  0
 39 33  1  0  0  0  0
 39 40  2  0  0  0  0
 40 44  1  0  0  0  0
 41 40  1  0  0  0  0
 41 45  1  0  0  0  0
 42 41  2  0  0  0  0
 43 42  1  0  0  0  0
 43 39  1  0  0  0  0
 46 42  1  0  0  0  0
M  END
>  <minimizedAffinity>
-5.95135689

$$$$

 OpenBabel03252503213D

 46 50  0  0  1  0  0  0  0  0999 V2000
   36.9370   30.1860   39.0190 C   0  0  0  0  0  0  0  0  0  0  0  0
   37.9470   30.7140   39.7750 C   0  0  0  0  0  0  0  0  0  0  0  0
   38.6430   31.5130   38.9370 N   0  0  0  0  0  0  0  0  0  0  0  0
   38.0720   31.4670   37.7180 C   0  0  0  0  0  0  0  0  0  0  0  0
   37.0120   30.6430   37.7700 N   0  0  0  0  0  0  0  0  0  0  0  0
   38.4150   32.1180   36.4980 N   0  0  0  0  0  0  0  0  0  0  0  0
   38.1700   30.5560   40.8050 H   0  0  0  0  0  0  0  0  0  0  0  0
   39.4120   32.1370   36.1480 H   0  0  0  0  0  0  0  0  0  0  0  0
   37.6970   32.5880   35.9240 H   0  0  0  0  0  0  0  0  0  0  0  0
   39.8140   32.3240   39.1830 C   0  0  0  0  0  0  0  0  0  0  0  0
   40.3270   32.4370   38.1980 H   0  0  0  0  0  0  0  0  0  0  0  0
   39.5640   33.3330   39.5180 H   0  0  0  0  0  0  0  0  0  0  0  0
   43.9410   33.0940   37.9990 C   0  0  0  0  0  0  0  0  0  0  0  0
   43.8220   31.9300   38.5940 C   0  0  0  0  0  0  0  0  0  0  0  0
   42.6460   31.6180   39.3310 N   0  0  0  0  0  0  0  0  0  0  0  0
   41.6290   30.6110   39.5480 C   0  0  0  0  0  0  0  0  0  0  0  0
   41.4840   29.3570   39.3480 O   0  0  0  0  0  0  0  0  0  0  0  0
   40.8030   31.6770   40.1180 C   0  0  1  0  0  3  0  0  0  0  0  0
   42.0510   32.5090   40.3090 C   0  0  2  0  0  3  0  0  0  0  0  0
   42.0420   34.1610   39.6290 S   0  0  0  0  0  0  0  0  0  0  0  0
   42.8900   34.1400   38.0280 C   0  0  0  0  0  3  0  0  0  0  0  0
   43.3440   35.1290   37.8010 H   0  0  0  0  0  0  0  0  0  0  0  0
   45.1760   33.3710   37.2610 C   0  0  0  0  0  2  0  0  0  0  0  0
   45.3720   32.6920   36.4120 H   0  0  0  0  0  0  0  0  0  0  0  0
   44.9040   30.9290   38.5150 C   0  0  0  0  0  0  0  0  0  0  0  0
   45.8390   30.7690   39.3330 O   0  0  0  0  0  0  0  0  0  0  0  0
   45.1140   29.9870   37.5560 O   0  0  0  0  0  0  0  0  0  0  0  0
   45.1620   29.0120   37.7400 H   0  0  0  0  0  0  0  0  0  0  0  0
   35.8830   29.2270   39.5060 C   0  0  0  0  0  0  0  0  0  0  0  0
   34.8640   29.5750   40.1750 O   0  0  0  0  0  0  0  0  0  0  0  0
   35.4670   27.3130   38.0280 C   0  0  0  0  0  0  0  0  0  0  0  0
   35.9940   27.8380   39.2210 C   0  0  0  0  0  0  0  0  0  0  0  0
   36.6000   26.9070   40.0430 C   0  0  0  0  0  0  0  0  0  0  0  0
   36.6820   25.6120   39.7340 N   0  0  0  0  0  0  0  0  0  0  0  0
   36.1550   25.1500   38.5640 C   0  0  0  0  0  0  0  0  0  0  0  0
   35.5540   26.0090   37.7260 N   0  0  0  0  0  0  0  0  0  0  0  0
   34.9870   28.0240   37.3670 H   0  0  0  0  0  0  0  0  0  0  0  0
   36.2210   24.0950   38.3120 H   0  0  0  0  0  0  0  0  0  0  0  0
   37.1610   27.3560   41.2760 C   0  0  0  0  0  0  0  0  0  0  0  0
   36.6630   27.7000   42.4900 C   0  0  0  0  0  0  0  0  0  0  0  0
   37.4470   28.0910   43.4780 C   0  0  0  0  0  0  0  0  0  0  0  0
   38.7650   28.1350   43.2350 C   0  0  0  0  0  0  0  0  0  0  0  0
   38.9060   27.5900   41.5010 S   0  0  0  0  0  0  0  0  0  0  0  0
   35.5590   27.6220   42.5630 H   0  0  0  0  0  0  0  0  0  0  0  0
   37.1200   28.3800   44.4710 H   0  0  0  0  0  0  0  0  0  0  0  0
   39.6330   28.4160   43.8580 H   0  0  0  0  0  0  0  0  0  0  0  0
  1 29  1  0  0  0  0
  1  2  2  0  0  0  0
  2  7  1  0  0  0  0
  3 10  1  0  0  0  0
  3  2  1  0  0  0  0
  4  5  2  0  0  0  0
  4  3  1  0  0  0  0
  5  1  1  0  0  0  0
  6  4  1  0  0  0  0
  8  6  1  0  0  0  0
  9  6  1  0  0  0  0
 10 12  1  0  0  0  0
 11 10  1  0  0  0  0
 13 21  1  0  0  0  0
 13 14  2  0  0  0  0
 14 15  1  0  0  0  0
 15 16  1  0  0  0  0
 15 19  1  0  0  0  0
 16 18  1  0  0  0  0
 17 16  2  0  0  0  0
 18 10  1  6  0  0  0
 18 19  1  0  0  0  0
 19 20  1  6  0  0  0
 21 20  1  0  0  0  0
 22 21  1  0  0  0  0
 23 13  1  0  0  0  0
 24 23  1  0  0  0  0
 25 14  1  0  0  0  0
 25 26  2  0  0  0  0
 27 28  1  0  0  0  0
 27 25  1  0  0  0  0
 29 30  2  0  0  0  0
 31 32  1  0  0  0  0
 32 29  1  0  0  0  0
 32 33  2  0  0  0  0
 33 39  1  0  0  0  0
 34 33  1  0  0  0  0
 35 34  2  0  0  0  0
 36 31  2  0  0  0  0
 36 35  1  0  0  0  0
 37 31  1  0  0  0  0
 38 35  1  0  0  0  0
 39 43  1  0  0  0  0
 39 40  2  0  0  0  0
 40 44  1  0  0  0  0
 40 41  1  0  0  0  0
 41 45  1  0  0  0  0
 42 41  2  0  0  0  0
 42 46  1  0  0  0  0
 43 42  1  0  0  0  0
M  END
>  <minimizedAffinity>
-5.92994308

$$$$
