
 OpenBabel03242514173D

 48 51  0  0  1  0  0  0  0  0999 V2000
   46.5160   34.3360   43.7710 C   0  0  0  0  0  0  0  0  0  0  0  0
   46.0610   34.0440   45.0510 C   0  0  0  0  0  0  0  0  0  0  0  0
   44.9740   34.7880   45.4870 C   0  0  0  0  0  0  0  0  0  0  0  0
   44.4300   35.7370   44.6580 N   0  0  0  0  0  0  0  0  0  0  0  0
   44.8900   35.9910   43.4390 C   0  0  0  0  0  0  0  0  0  0  0  0
   45.9250   35.2840   43.0220 N   0  0  0  0  0  0  0  0  0  0  0  0
   44.4510   34.7440   46.4280 H   0  0  0  0  0  0  0  0  0  0  0  0
   44.4280   36.7480   42.8230 H   0  0  0  0  0  0  0  0  0  0  0  0
   47.6910   33.5740   43.3490 C   0  0  0  0  0  0  0  0  0  0  0  0
   48.8050   34.3440   42.8210 C   0  0  0  0  0  0  0  0  0  0  0  0
   49.0680   34.0910   41.3980 C   0  0  0  0  0  0  0  0  0  0  0  0
   49.3340   32.6140   41.1380 C   0  0  0  0  0  0  0  0  0  0  0  0
   48.3890   31.7180   41.8450 C   0  0  0  0  0  0  0  0  0  0  0  0
   47.2080   32.4770   42.4110 C   0  0  0  0  0  0  0  0  0  0  0  0
   48.0830   32.9470   44.2060 H   0  0  0  0  0  0  0  0  0  0  0  0
   49.7810   34.2380   43.3660 H   0  0  0  0  0  0  0  0  0  0  0  0
   48.5710   35.4340   42.9390 H   0  0  0  0  0  0  0  0  0  0  0  0
   48.2270   34.3640   40.7230 H   0  0  0  0  0  0  0  0  0  0  0  0
   49.9920   34.6410   41.0900 H   0  0  0  0  0  0  0  0  0  0  0  0
   49.3470   32.4770   40.0290 H   0  0  0  0  0  0  0  0  0  0  0  0
   50.3700   32.3540   41.4620 H   0  0  0  0  0  0  0  0  0  0  0  0
   48.8480   31.0860   42.6180 H   0  0  0  0  0  0  0  0  0  0  0  0
   47.9490   31.0220   41.0820 H   0  0  0  0  0  0  0  0  0  0  0  0
   46.6070   31.7420   42.9840 H   0  0  0  0  0  0  0  0  0  0  0  0
   46.6440   32.9390   41.5900 H   0  0  0  0  0  0  0  0  0  0  0  0
   46.4230   33.2060   45.9770 O   0  0  0  0  0  0  0  0  0  0  0  0
   45.8110   32.4970   46.9780 C   0  0  0  0  0  0  0  0  0  0  0  0
   46.3920   32.7430   47.9230 H   0  0  0  0  0  0  0  0  0  0  0  0
   44.7830   32.7310   47.2410 H   0  0  0  0  0  0  0  0  0  0  0  0
   45.9360   31.0090   46.8470 C   0  0  0  0  0  0  0  0  0  0  0  0
   45.1310   30.4860   47.3890 H   0  0  0  0  0  0  0  0  0  0  0  0
   46.8750   30.7350   47.4120 H   0  0  0  0  0  0  0  0  0  0  0  0
   46.0680   27.1290   47.4930 C   0  0  0  0  0  0  0  0  0  0  0  0
   47.0300   27.5550   46.7190 C   0  0  0  0  0  0  0  0  0  0  0  0
   46.9190   28.7000   45.9220 N   0  0  0  0  0  0  0  0  0  0  0  0
   47.4640   29.8820   45.3410 C   0  0  0  0  0  0  0  0  0  0  0  0
   48.6550   30.1310   44.9470 O   0  0  0  0  0  0  0  0  0  0  0  0
   46.0850   30.4860   45.4620 C   0  0  1  0  0  3  0  0  0  0  0  0
   45.6840   29.0430   45.2450 C   0  0  2  0  0  3  0  0  0  0  0  0
   44.2070   28.6430   46.1850 S   0  0  0  0  0  0  0  0  0  0  0  0
   44.7520   27.7580   47.6590 C   0  0  0  0  0  3  0  0  0  0  0  0
   44.6960   28.3970   48.5800 H   0  0  0  0  0  0  0  0  0  0  0  0
   46.3380   25.9100   48.2670 C   0  0  0  0  0  2  0  0  0  0  0  0
   46.8560   26.2060   49.2210 H   0  0  0  0  0  0  0  0  0  0  0  0
   48.2640   26.7800   46.7030 C   0  0  0  0  0  0  0  0  0  0  0  0
   48.9600   26.5790   45.6570 O   0  0  0  0  0  0  0  0  0  0  0  0
   49.3850   26.0250   46.9110 O   0  0  0  0  0  0  0  0  0  0  0  0
   49.6990   25.7190   47.8460 H   0  0  0  0  0  0  0  0  0  0  0  0
  1  2  1  0  0  0  0
  2  3  2  0  0  0  0
  2 26  1  0  0  0  0
  3  7  1  0  0  0  0
  4  3  1  0  0  0  0
  5  4  2  0  0  0  0
  6  5  1  0  0  0  0
  6  1  2  0  0  0  0
  8  5  1  0  0  0  0
  9  1  1  0  0  0  0
  9 15  1  0  0  0  0
 10 17  1  0  0  0  0
 10  9  1  0  0  0  0
 10 16  1  0  0  0  0
 11 10  1  0  0  0  0
 12 11  1  0  0  0  0
 12 21  1  0  0  0  0
 12 13  1  0  0  0  0
 13 14  1  0  0  0  0
 13 22  1  0  0  0  0
 14 24  1  0  0  0  0
 14  9  1  0  0  0  0
 18 11  1  0  0  0  0
 19 11  1  0  0  0  0
 20 12  1  0  0  0  0
 23 13  1  0  0  0  0
 25 14  1  0  0  0  0
 26 27  1  0  0  0  0
 27 29  1  0  0  0  0
 27 28  1  0  0  0  0
 30 27  1  0  0  0  0
 30 31  1  0  0  0  0
 30 32  1  0  0  0  0
 33 41  1  0  0  0  0
 33 43  1  0  0  0  0
 34 33  2  0  0  0  0
 35 34  1  0  0  0  0
 36 38  1  0  0  0  0
 36 35  1  0  0  0  0
 37 36  2  0  0  0  0
 38 30  1  1  0  0  0
 39 38  1  0  0  0  0
 39 35  1  0  0  0  0
 39 40  1  1  0  0  0
 40 41  1  0  0  0  0
 41 42  1  0  0  0  0
 43 44  1  0  0  0  0
 45 34  1  0  0  0  0
 45 47  1  0  0  0  0
 46 45  2  0  0  0  0
 47 48  1  0  0  0  0
M  END
>  <minimizedAffinity>
-4.86572266

>  <minimizedRMSD>
1.34716713

$$$$
