
 OpenBabel03252503193D

 46 50  0  0  1  0  0  0  0  0999 V2000
   46.2830   33.9270   40.6710 C   0  0  0  0  0  0  0  0  0  0  0  0
   44.9700   33.8370   40.3000 C   0  0  0  0  0  0  0  0  0  0  0  0
   44.9430   32.9450   39.2860 N   0  0  0  0  0  0  0  0  0  0  0  0
   46.1970   32.5120   39.0550 C   0  0  0  0  0  0  0  0  0  0  0  0
   47.0290   33.1220   39.9160 N   0  0  0  0  0  0  0  0  0  0  0  0
   46.7070   31.5800   38.1050 N   0  0  0  0  0  0  0  0  0  0  0  0
   44.1220   34.3430   40.6990 H   0  0  0  0  0  0  0  0  0  0  0  0
   46.4180   31.6190   37.0900 H   0  0  0  0  0  0  0  0  0  0  0  0
   47.3710   30.8410   38.3870 H   0  0  0  0  0  0  0  0  0  0  0  0
   43.8300   32.4570   38.5050 C   0  0  0  0  0  0  0  0  0  0  0  0
   43.0590   33.2650   38.5230 H   0  0  0  0  0  0  0  0  0  0  0  0
   44.0880   32.3010   37.4550 H   0  0  0  0  0  0  0  0  0  0  0  0
   39.6160   33.0930   39.4370 C   0  0  0  0  0  0  0  0  0  0  0  0
   40.1630   32.2280   40.2580 C   0  0  0  0  0  0  0  0  0  0  0  0
   41.4220   31.6430   39.9480 N   0  0  0  0  0  0  0  0  0  0  0  0
   42.7330   31.3290   40.4750 C   0  0  0  0  0  0  0  0  0  0  0  0
   43.2820   31.1940   41.6230 O   0  0  0  0  0  0  0  0  0  0  0  0
   43.1840   31.2270   39.0880 C   0  0  1  0  0  3  0  0  0  0  0  0
   41.7440   31.0660   38.6570 C   0  0  2  0  0  3  0  0  0  0  0  0
   41.1450   32.1700   37.3850 S   0  0  0  0  0  0  0  0  0  0  0  0
   40.2480   33.5340   38.1700 C   0  0  0  0  0  3  0  0  0  0  0  0
   39.4720   33.9480   37.4910 H   0  0  0  0  0  0  0  0  0  0  0  0
   38.3140   33.6600   39.7970 C   0  0  0  0  0  2  0  0  0  0  0  0
   38.3020   34.2410   40.7360 H   0  0  0  0  0  0  0  0  0  0  0  0
   39.4820   31.8410   41.5080 C   0  0  0  0  0  0  0  0  0  0  0  0
   39.7330   32.2630   42.6620 O   0  0  0  0  0  0  0  0  0  0  0  0
   38.4570   30.9620   41.6750 O   0  0  0  0  0  0  0  0  0  0  0  0
   37.5830   31.2030   42.0830 H   0  0  0  0  0  0  0  0  0  0  0  0
   46.8290   34.8000   41.7700 C   0  0  0  0  0  0  0  0  0  0  0  0
   47.9340   35.4180   41.7020 O   0  0  0  0  0  0  0  0  0  0  0  0
   45.3690   36.1570   43.2010 C   0  0  0  0  0  0  0  0  0  0  0  0
   46.0940   34.9740   42.9760 C   0  0  0  0  0  0  0  0  0  0  0  0
   46.0190   34.0470   43.9990 C   0  0  0  0  0  0  0  0  0  0  0  0
   45.3160   34.2530   45.1130 N   0  0  0  0  0  0  0  0  0  0  0  0
   44.6280   35.4190   45.2860 C   0  0  0  0  0  0  0  0  0  0  0  0
   44.6650   36.3560   44.3260 N   0  0  0  0  0  0  0  0  0  0  0  0
   45.4110   36.8990   42.4140 H   0  0  0  0  0  0  0  0  0  0  0  0
   44.0560   35.5870   46.1940 H   0  0  0  0  0  0  0  0  0  0  0  0
   46.7290   32.8170   43.8510 C   0  0  0  0  0  0  0  0  0  0  0  0
   48.0170   32.4750   43.6000 C   0  0  0  0  0  0  0  0  0  0  0  0
   48.3970   31.2130   43.5160 C   0  0  0  0  0  0  0  0  0  0  0  0
   47.4540   30.2750   43.6890 C   0  0  0  0  0  0  0  0  0  0  0  0
   45.9350   31.2360   43.9900 S   0  0  0  0  0  0  0  0  0  0  0  0
   48.6980   33.3410   43.4760 H   0  0  0  0  0  0  0  0  0  0  0  0
   49.4050   30.8660   43.3180 H   0  0  0  0  0  0  0  0  0  0  0  0
   47.4840   29.1710   43.6730 H   0  0  0  0  0  0  0  0  0  0  0  0
  1 29  1  0  0  0  0
  2  1  2  0  0  0  0
  2  7  1  0  0  0  0
  3  2  1  0  0  0  0
  4  3  1  0  0  0  0
  4  5  2  0  0  0  0
  5  1  1  0  0  0  0
  6  9  1  0  0  0  0
  6  4  1  0  0  0  0
  8  6  1  0  0  0  0
 10 11  1  0  0  0  0
 10  3  1  0  0  0  0
 12 10  1  0  0  0  0
 13 23  1  0  0  0  0
 13 14  2  0  0  0  0
 14 25  1  0  0  0  0
 15 14  1  0  0  0  0
 15 16  1  0  0  0  0
 16 17  2  0  0  0  0
 18 10  1  6  0  0  0
 18 16  1  0  0  0  0
 19 20  1  6  0  0  0
 19 18  1  0  0  0  0
 19 15  1  0  0  0  0
 20 21  1  0  0  0  0
 21 13  1  0  0  0  0
 22 21  1  0  0  0  0
 23 24  1  0  0  0  0
 25 27  1  0  0  0  0
 25 26  2  0  0  0  0
 27 28  1  0  0  0  0
 29 32  1  0  0  0  0
 30 29  2  0  0  0  0
 31 36  1  0  0  0  0
 32 31  2  0  0  0  0
 32 33  1  0  0  0  0
 33 34  2  0  0  0  0
 34 35  1  0  0  0  0
 35 38  1  0  0  0  0
 36 35  2  0  0  0  0
 37 31  1  0  0  0  0
 39 43  1  0  0  0  0
 39 33  1  0  0  0  0
 40 39  2  0  0  0  0
 41 40  1  0  0  0  0
 41 42  2  0  0  0  0
 42 43  1  0  0  0  0
 44 40  1  0  0  0  0
 45 41  1  0  0  0  0
 46 42  1  0  0  0  0
M  END
>  <minimizedAffinity>
-5.39472246

>  <minimizedRMSD>
1.19564295

$$$$
