
 OpenBabel03242519323D

 55 60  0  0  1  0  0  0  0  0999 V2000
   51.1450   31.3150   42.3680 C   0  0  0  0  0  0  0  0  0  0  0  0
   51.7790   31.0810   41.2110 N   0  0  0  0  0  0  0  0  0  0  0  0
   52.5320   29.9590   41.3330 C   0  0  0  0  0  0  0  0  0  0  0  0
   52.3480   29.5060   42.5890 N   0  0  0  0  0  0  0  0  0  0  0  0
   51.5070   30.3220   43.2270 N   0  0  0  0  0  0  0  0  0  0  0  0
   53.1630   29.5130   40.5560 H   0  0  0  0  0  0  0  0  0  0  0  0
   48.2370   33.5250   42.8080 C   0  0  0  0  0  0  0  0  0  0  0  0
   48.8720   34.7940   42.6620 C   0  0  0  0  0  0  0  0  0  0  0  0
   50.2520   34.8630   42.4180 C   0  0  0  0  0  0  0  0  0  0  0  0
   50.9170   33.6710   42.3340 N   0  0  0  0  0  0  0  0  0  0  0  0
   50.2670   32.4730   42.4810 C   0  0  0  0  0  0  0  0  0  0  0  0
   48.9630   32.4200   42.7110 N   0  0  0  0  0  0  0  0  0  0  0  0
   48.4010   35.7660   42.7180 H   0  0  0  0  0  0  0  0  0  0  0  0
   50.7660   35.7850   42.3020 H   0  0  0  0  0  0  0  0  0  0  0  0
   46.7990   33.5950   43.0620 C   0  0  0  0  0  0  0  0  0  0  0  0
   46.0810   34.5530   42.2590 C   0  0  0  0  0  0  0  0  0  0  0  0
   45.5190   35.6940   42.9930 C   0  0  0  0  0  0  0  0  0  0  0  0
   44.6360   35.2300   44.1540 C   0  0  0  0  0  0  0  0  0  0  0  0
   45.1920   34.0710   44.9140 C   0  0  0  0  0  0  0  0  0  0  0  0
   46.6650   33.8620   44.5990 C   0  0  0  0  0  0  0  0  0  0  0  0
   46.3850   32.5500   42.9860 H   0  0  0  0  0  0  0  0  0  0  0  0
   46.7270   34.9590   41.4380 H   0  0  0  0  0  0  0  0  0  0  0  0
   45.2440   34.0480   41.7090 H   0  0  0  0  0  0  0  0  0  0  0  0
   44.7950   36.2230   42.3050 H   0  0  0  0  0  0  0  0  0  0  0  0
   46.2040   36.4790   43.3290 H   0  0  0  0  0  0  0  0  0  0  0  0
   44.5970   36.0980   44.8650 H   0  0  0  0  0  0  0  0  0  0  0  0
   43.5850   35.0850   43.8340 H   0  0  0  0  0  0  0  0  0  0  0  0
   44.6680   33.1440   44.5770 H   0  0  0  0  0  0  0  0  0  0  0  0
   45.1040   34.1430   46.0040 H   0  0  0  0  0  0  0  0  0  0  0  0
   47.2650   34.7600   44.8590 H   0  0  0  0  0  0  0  0  0  0  0  0
   47.0300   32.9660   45.0970 H   0  0  0  0  0  0  0  0  0  0  0  0
   52.9480   28.3500   43.2070 C   0  0  0  0  0  0  0  0  0  0  0  0
   52.9420   27.5140   42.5290 H   0  0  0  0  0  0  0  0  0  0  0  0
   52.2970   28.0390   44.0770 H   0  0  0  0  0  0  0  0  0  0  0  0
   54.3050   28.6630   43.6520 C   0  0  0  0  0  3  0  0  0  0  0  0
   54.8520   29.6750   44.3050 C   0  0  0  0  0  3  0  0  0  0  0  0
   56.3160   29.8010   44.7670 C   0  0  0  0  0  0  0  0  0  0  0  0
   56.2680   30.3950   45.6960 H   0  0  0  0  0  0  0  0  0  0  0  0
   56.6930   28.7850   44.9400 H   0  0  0  0  0  0  0  0  0  0  0  0
   59.8110   32.8610   42.3090 C   0  0  0  0  0  0  0  0  0  0  0  0
   59.7130   31.5860   42.0410 C   0  0  0  0  0  0  0  0  0  0  0  0
   58.8020   30.7490   42.6870 N   0  0  0  0  0  0  0  0  0  0  0  0
   57.8490   29.6880   42.7660 C   0  0  2  0  0  0  0  0  0  0  0  0
   57.8270   28.5900   42.1550 O   0  0  0  0  0  1  0  0  0  0  0  0
   57.1300   30.5150   43.7560 C   0  0  2  0  0  3  0  0  0  0  0  0
   58.5250   30.8830   44.1180 C   0  0  2  0  0  0  0  0  0  0  0  0
   58.8310   32.5150   44.7690 S   0  0  0  0  0  0  0  0  0  0  0  0
   58.9780   33.5390   43.3050 C   0  0  0  0  0  3  0  0  0  0  0  0
   57.9470   33.7390   42.9370 H   0  0  0  0  0  0  0  0  0  0  0  0
   60.8100   33.6210   41.5570 C   0  0  0  0  0  2  0  0  0  0  0  0
   61.7650   33.0350   41.4430 H   0  0  0  0  0  0  0  0  0  0  0  0
   60.5840   30.9960   41.0290 C   0  0  0  0  0  0  0  0  0  0  0  0
   61.2890   29.9460   41.1730 O   0  0  0  0  0  0  0  0  0  0  0  0
   61.3070   30.6780   39.8980 O   0  0  0  0  0  0  0  0  0  0  0  0
   61.1470   31.0560   38.9720 H   0  0  0  0  0  0  0  0  0  0  0  0
  1 11  1  0  0  0  0
  1  5  2  0  0  0  0
  2  3  2  0  0  0  0
  2  1  1  0  0  0  0
  3  4  1  0  0  0  0
  4 32  1  0  0  0  0
  4  5  1  0  0  0  0
  6  3  1  0  0  0  0
  7 15  1  0  0  0  0
  8 13  1  0  0  0  0
  8  7  2  0  0  0  0
  9  8  1  0  0  0  0
 10  9  2  0  0  0  0
 10 11  1  0  0  0  0
 11 12  2  0  0  0  0
 12  7  1  0  0  0  0
 14  9  1  0  0  0  0
 15 20  1  0  0  0  0
 16 17  1  0  0  0  0
 16 15  1  0  0  0  0
 17 25  1  0  0  0  0
 17 18  1  0  0  0  0
 18 26  1  0  0  0  0
 18 19  1  0  0  0  0
 19 29  1  0  0  0  0
 20 30  1  0  0  0  0
 20 19  1  0  0  0  0
 20 31  1  0  0  0  0
 21 15  1  0  0  0  0
 22 16  1  0  0  0  0
 23 16  1  0  0  0  0
 24 17  1  0  0  0  0
 27 18  1  0  0  0  0
 28 19  1  0  0  0  0
 32 35  1  0  0  0  0
 32 34  1  0  0  0  0
 33 32  1  0  0  0  0
 35 36  2  0  0  0  0
 36 37  1  0  0  0  0
 37 39  1  0  0  0  0
 37 38  1  0  0  0  0
 40 48  1  0  0  0  0
 41 40  2  0  0  0  0
 41 42  1  0  0  0  0
 42 43  1  0  0  0  0
 42 46  1  0  0  0  0
 43 44  1  6  0  0  0
 43 45  1  0  0  0  0
 43 46  1  0  0  0  0
 45 46  1  0  0  0  0
 45 37  1  1  0  0  0
 46 47  1  1  0  0  0
 48 47  1  0  0  0  0
 49 48  1  0  0  0  0
 50 40  1  0  0  0  0
 51 50  1  0  0  0  0
 52 53  2  0  0  0  0
 52 41  1  0  0  0  0
 54 52  1  0  0  0  0
 55 54  1  0  0  0  0
M  END
>  <minimizedAffinity>
-4.74810553

>  <minimizedRMSD>
2.49286127

$$$$
