
 OpenBabel03242514173D

 48 51  0  0  1  0  0  0  0  0999 V2000
   46.1890   34.4420   43.7030 C   0  0  0  0  0  0  0  0  0  0  0  0
   46.2660   33.6120   44.8150 C   0  0  0  0  0  0  0  0  0  0  0  0
   45.4500   33.9580   45.8810 C   0  0  0  0  0  0  0  0  0  0  0  0
   44.6410   35.0620   45.7820 N   0  0  0  0  0  0  0  0  0  0  0  0
   44.5910   35.8350   44.7040 C   0  0  0  0  0  0  0  0  0  0  0  0
   45.3680   35.5070   43.6870 N   0  0  0  0  0  0  0  0  0  0  0  0
   45.3370   33.4750   46.8380 H   0  0  0  0  0  0  0  0  0  0  0  0
   43.9380   36.6940   44.6730 H   0  0  0  0  0  0  0  0  0  0  0  0
   47.0910   34.0870   42.6080 C   0  0  0  0  0  0  0  0  0  0  0  0
   48.4350   34.6360   42.6750 C   0  0  0  0  0  0  0  0  0  0  0  0
   48.7300   35.5930   41.6010 C   0  0  0  0  0  0  0  0  0  0  0  0
   48.5330   34.9650   40.2280 C   0  0  0  0  0  0  0  0  0  0  0  0
   47.2910   34.1620   40.1280 C   0  0  0  0  0  0  0  0  0  0  0  0
   46.3690   34.3990   41.3050 C   0  0  0  0  0  0  0  0  0  0  0  0
   47.1830   32.9630   42.5220 H   0  0  0  0  0  0  0  0  0  0  0  0
   49.2730   33.8890   42.6970 H   0  0  0  0  0  0  0  0  0  0  0  0
   48.5530   35.1710   43.6540 H   0  0  0  0  0  0  0  0  0  0  0  0
   48.0840   36.4990   41.6070 H   0  0  0  0  0  0  0  0  0  0  0  0
   49.8050   35.8970   41.6610 H   0  0  0  0  0  0  0  0  0  0  0  0
   48.6000   35.7910   39.4790 H   0  0  0  0  0  0  0  0  0  0  0  0
   49.3970   34.3010   39.9880 H   0  0  0  0  0  0  0  0  0  0  0  0
   47.4530   33.0850   39.9760 H   0  0  0  0  0  0  0  0  0  0  0  0
   46.7220   34.5290   39.2330 H   0  0  0  0  0  0  0  0  0  0  0  0
   45.5160   33.7010   41.1820 H   0  0  0  0  0  0  0  0  0  0  0  0
   46.0580   35.4520   41.3180 H   0  0  0  0  0  0  0  0  0  0  0  0
   46.9480   32.5440   45.1070 O   0  0  0  0  0  0  0  0  0  0  0  0
   47.1830   31.7830   46.2230 C   0  0  0  0  0  0  0  0  0  0  0  0
   48.3100   31.6560   46.2720 H   0  0  0  0  0  0  0  0  0  0  0  0
   46.9270   32.1820   47.2000 H   0  0  0  0  0  0  0  0  0  0  0  0
   46.6590   30.3810   46.1360 C   0  0  0  0  0  0  0  0  0  0  0  0
   46.9650   29.7800   47.0080 H   0  0  0  0  0  0  0  0  0  0  0  0
   47.2060   29.9090   45.2670 H   0  0  0  0  0  0  0  0  0  0  0  0
   46.2420   26.4680   46.1030 C   0  0  0  0  0  0  0  0  0  0  0  0
   45.6960   27.0520   45.0700 C   0  0  0  0  0  0  0  0  0  0  0  0
   45.2320   28.3710   45.0970 N   0  0  0  0  0  0  0  0  0  0  0  0
   45.0410   29.6470   44.4880 C   0  0  0  0  0  0  0  0  0  0  0  0
   44.8310   29.9520   43.2650 O   0  0  0  0  0  0  0  0  0  0  0  0
   45.2020   30.2430   45.8670 C   0  0  1  0  0  3  0  0  0  0  0  0
   44.5710   28.9270   46.2610 C   0  0  2  0  0  3  0  0  0  0  0  0
   45.2380   28.3400   47.8220 S   0  0  0  0  0  0  0  0  0  0  0  0
   46.4590   27.0730   47.4220 C   0  0  0  0  0  3  0  0  0  0  0  0
   47.5100   27.4440   47.5550 H   0  0  0  0  0  0  0  0  0  0  0  0
   46.6760   25.0770   45.9170 C   0  0  0  0  0  2  0  0  0  0  0  0
   47.7150   25.0880   45.4850 H   0  0  0  0  0  0  0  0  0  0  0  0
   45.5740   26.2680   43.8470 C   0  0  0  0  0  0  0  0  0  0  0  0
   44.5440   26.2710   43.1040 O   0  0  0  0  0  0  0  0  0  0  0  0
   45.6730   25.4610   42.7470 O   0  0  0  0  0  0  0  0  0  0  0  0
   46.5380   24.9630   42.4840 H   0  0  0  0  0  0  0  0  0  0  0  0
  1  2  1  0  0  0  0
  2 26  1  0  0  0  0
  2  3  2  0  0  0  0
  3  7  1  0  0  0  0
  4  3  1  0  0  0  0
  5  4  2  0  0  0  0
  6  1  2  0  0  0  0
  6  5  1  0  0  0  0
  8  5  1  0  0  0  0
  9 10  1  0  0  0  0
  9  1  1  0  0  0  0
 10 16  1  0  0  0  0
 10 17  1  0  0  0  0
 11 18  1  0  0  0  0
 11 19  1  0  0  0  0
 11 10  1  0  0  0  0
 12 11  1  0  0  0  0
 13 12  1  0  0  0  0
 13 14  1  0  0  0  0
 14 25  1  0  0  0  0
 14  9  1  0  0  0  0
 15  9  1  0  0  0  0
 20 12  1  0  0  0  0
 21 12  1  0  0  0  0
 22 13  1  0  0  0  0
 23 13  1  0  0  0  0
 24 14  1  0  0  0  0
 26 27  1  0  0  0  0
 27 28  1  0  0  0  0
 27 29  1  0  0  0  0
 30 27  1  0  0  0  0
 30 31  1  0  0  0  0
 32 30  1  0  0  0  0
 33 41  1  0  0  0  0
 34 35  1  0  0  0  0
 34 33  2  0  0  0  0
 35 39  1  0  0  0  0
 36 35  1  0  0  0  0
 36 38  1  0  0  0  0
 37 36  2  0  0  0  0
 38 30  1  1  0  0  0
 38 39  1  0  0  0  0
 39 40  1  1  0  0  0
 41 42  1  0  0  0  0
 41 40  1  0  0  0  0
 43 33  1  0  0  0  0
 44 43  1  0  0  0  0
 45 34  1  0  0  0  0
 46 45  2  0  0  0  0
 47 45  1  0  0  0  0
 48 47  1  0  0  0  0
M  END
>  <minimizedAffinity>
-5.2379365

>  <minimizedRMSD>
2.06753182

$$$$
