
 OpenBabel03252500053D

 52 56  0  0  1  0  0  0  0  0999 V2000
   44.6520   34.7950   45.6530 C   0  0  0  0  0  0  0  0  0  0  0  0
   45.3220   34.5850   44.4520 C   0  0  0  0  0  0  0  0  0  0  0  0
   46.3830   33.6780   44.4040 C   0  0  0  0  0  0  0  0  0  0  0  0
   46.6530   33.0770   45.5870 N   0  0  0  0  0  0  0  0  0  0  0  0
   46.0150   33.2790   46.7250 C   0  0  0  0  0  0  0  0  0  0  0  0
   45.0180   34.1420   46.7380 N   0  0  0  0  0  0  0  0  0  0  0  0
   43.8390   35.5070   45.6410 H   0  0  0  0  0  0  0  0  0  0  0  0
   47.1550   33.3560   43.2620 C   0  0  0  0  0  0  0  0  0  0  0  0
   48.2050   34.2080   42.9520 C   0  0  0  0  0  0  0  0  0  0  0  0
   49.0590   34.0500   41.8820 C   0  0  0  0  0  0  0  0  0  0  0  0
   48.9020   32.9940   41.0350 C   0  0  0  0  0  0  0  0  0  0  0  0
   47.8820   32.1100   41.2820 C   0  0  0  0  0  0  0  0  0  0  0  0
   47.6640   31.0300   40.4770 C   0  0  0  0  0  0  0  0  0  0  0  0
   46.6590   30.1210   40.6820 C   0  0  0  0  0  0  0  0  0  0  0  0
   45.8260   30.3440   41.7910 C   0  0  0  0  0  0  0  0  0  0  0  0
   46.0760   31.4450   42.5830 C   0  0  0  0  0  0  0  0  0  0  0  0
   47.0610   32.3260   42.3740 C   0  0  0  0  0  0  0  0  0  0  0  0
   48.4260   35.0930   43.5630 H   0  0  0  0  0  0  0  0  0  0  0  0
   49.8650   34.7400   41.6760 H   0  0  0  0  0  0  0  0  0  0  0  0
   49.5540   32.8630   40.2080 H   0  0  0  0  0  0  0  0  0  0  0  0
   48.3480   30.9200   39.6360 H   0  0  0  0  0  0  0  0  0  0  0  0
   46.5210   29.2800   40.0190 H   0  0  0  0  0  0  0  0  0  0  0  0
   45.0530   29.6140   41.9200 H   0  0  0  0  0  0  0  0  0  0  0  0
   45.1250   31.5200   43.6530 N   0  0  0  0  0  0  0  0  0  0  0  0
   45.0520   31.0830   44.5970 H   0  0  0  0  0  0  0  0  0  0  0  0
   44.2250   32.0200   43.8010 H   0  0  0  0  0  0  0  0  0  0  0  0
   46.5310   32.4700   47.8790 C   0  0  0  0  0  0  0  0  0  0  0  0
   45.7920   32.6870   49.0080 F   0  0  0  0  0  0  0  0  0  0  0  0
   47.8710   32.7490   48.0930 F   0  0  0  0  0  0  0  0  0  0  0  0
   46.5230   31.1050   47.5170 F   0  0  0  0  0  0  0  0  0  0  0  0
   44.9890   35.2570   43.1880 C   0  0  0  0  0  0  0  0  0  0  0  0
   45.9100   35.4630   42.6040 H   0  0  0  0  0  0  0  0  0  0  0  0
   44.5900   36.2760   43.4650 H   0  0  0  0  0  0  0  0  0  0  0  0
   43.9680   34.5740   42.3550 C   0  0  0  0  0  0  0  0  0  0  0  0
   43.1100   34.2570   42.9820 H   0  0  0  0  0  0  0  0  0  0  0  0
   44.3960   33.7980   41.7370 H   0  0  0  0  0  0  0  0  0  0  0  0
   42.1450   32.6470   38.8060 C   0  0  0  0  0  0  0  0  0  0  0  0
   41.5810   33.8120   39.0810 C   0  0  0  0  0  0  0  0  0  0  0  0
   42.1950   34.6980   40.0110 N   0  0  0  0  0  0  0  0  0  0  0  0
   41.9550   35.5320   41.1690 C   0  0  0  0  0  0  0  0  0  0  0  0
   40.9470   36.0240   41.7860 O   0  0  0  0  0  0  0  0  0  0  0  0
   43.4120   35.5780   41.3440 C   0  0  2  0  0  3  0  0  0  0  0  0
   43.6160   35.0450   39.9550 C   0  0  1  0  0  3  0  0  0  0  0  0
   44.5470   33.5080   39.8310 S   0  0  0  0  0  0  0  0  0  0  0  0
   43.4010   32.1680   39.4340 C   0  0  0  0  0  3  0  0  0  0  0  0
   43.8900   31.4350   38.7340 H   0  0  0  0  0  0  0  0  0  0  0  0
   41.4680   31.7780   37.8240 C   0  0  0  0  0  2  0  0  0  0  0  0
   40.4730   31.4420   38.1840 H   0  0  0  0  0  0  0  0  0  0  0  0
   40.3190   34.2230   38.4290 C   0  0  0  0  0  0  0  0  0  0  0  0
   39.1680   33.9850   38.8670 O   0  0  0  0  0  0  0  0  0  0  0  0
   40.1990   34.9140   37.2660 O   0  0  0  0  0  0  0  0  0  0  0  0
   39.6210   35.7400   37.2210 H   0  0  0  0  0  0  0  0  0  0  0  0
  1  6  1  0  0  0  0
  2  1  2  0  0  0  0
  3  2  1  0  0  0  0
  3  4  2  0  0  0  0
  4  5  1  0  0  0  0
  5  6  2  0  0  0  0
  5 27  1  0  0  0  0
  7  1  1  0  0  0  0
  8  3  1  0  0  0  0
  9  8  1  0  0  0  0
  9 18  1  0  0  0  0
 10  9  2  0  0  0  0
 11 12  2  0  0  0  0
 11 10  1  0  0  0  0
 12 17  1  0  0  0  0
 13 14  2  0  0  0  0
 13 12  1  0  0  0  0
 14 15  1  0  0  0  0
 15 23  1  0  0  0  0
 15 16  2  0  0  0  0
 16 24  1  0  0  0  0
 17 16  1  0  0  0  0
 17  8  2  0  0  0  0
 19 10  1  0  0  0  0
 20 11  1  0  0  0  0
 21 13  1  0  0  0  0
 22 14  1  0  0  0  0
 24 26  1  0  0  0  0
 24 25  1  0  0  0  0
 27 29  1  0  0  0  0
 27 28  1  0  0  0  0
 30 27  1  0  0  0  0
 31 33  1  0  0  0  0
 31  2  1  0  0  0  0
 32 31  1  0  0  0  0
 34 35  1  0  0  0  0
 34 31  1  0  0  0  0
 36 34  1  0  0  0  0
 37 38  2  0  0  0  0
 37 45  1  0  0  0  0
 38 39  1  0  0  0  0
 39 40  1  0  0  0  0
 40 42  1  0  0  0  0
 40 41  2  0  0  0  0
 42 34  1  1  0  0  0
 43 44  1  1  0  0  0
 43 39  1  0  0  0  0
 43 42  1  0  0  0  0
 45 44  1  0  0  0  0
 46 45  1  0  0  0  0
 47 48  1  0  0  0  0
 47 37  1  0  0  0  0
 49 50  2  0  0  0  0
 49 38  1  0  0  0  0
 51 49  1  0  0  0  0
 52 51  1  0  0  0  0
M  END
>  <minimizedAffinity>
-6.81771231

>  <minimizedRMSD>
1.99874043

$$$$
