
 OpenBabel03242519313D

 55 60  0  0  1  0  0  0  0  0999 V2000
   51.1430   31.3150   42.3660 C   0  0  0  0  0  0  0  0  0  0  0  0
   51.7770   31.0810   41.2090 N   0  0  0  0  0  0  0  0  0  0  0  0
   52.5300   29.9590   41.3300 C   0  0  0  0  0  0  0  0  0  0  0  0
   52.3470   29.5060   42.5870 N   0  0  0  0  0  0  0  0  0  0  0  0
   51.5060   30.3220   43.2260 N   0  0  0  0  0  0  0  0  0  0  0  0
   53.1610   29.5130   40.5530 H   0  0  0  0  0  0  0  0  0  0  0  0
   48.2360   33.5250   42.8080 C   0  0  0  0  0  0  0  0  0  0  0  0
   48.8710   34.7940   42.6620 C   0  0  0  0  0  0  0  0  0  0  0  0
   50.2520   34.8630   42.4180 C   0  0  0  0  0  0  0  0  0  0  0  0
   50.9160   33.6710   42.3340 N   0  0  0  0  0  0  0  0  0  0  0  0
   50.2660   32.4740   42.4800 C   0  0  0  0  0  0  0  0  0  0  0  0
   48.9620   32.4210   42.7100 N   0  0  0  0  0  0  0  0  0  0  0  0
   48.4010   35.7660   42.7190 H   0  0  0  0  0  0  0  0  0  0  0  0
   50.7650   35.7850   42.3020 H   0  0  0  0  0  0  0  0  0  0  0  0
   46.7980   33.5960   43.0620 C   0  0  0  0  0  0  0  0  0  0  0  0
   46.0810   34.5540   42.2590 C   0  0  0  0  0  0  0  0  0  0  0  0
   45.5190   35.6950   42.9930 C   0  0  0  0  0  0  0  0  0  0  0  0
   44.6350   35.2310   44.1540 C   0  0  0  0  0  0  0  0  0  0  0  0
   45.1920   34.0720   44.9140 C   0  0  0  0  0  0  0  0  0  0  0  0
   46.6640   33.8630   44.5990 C   0  0  0  0  0  0  0  0  0  0  0  0
   46.3840   32.5510   42.9860 H   0  0  0  0  0  0  0  0  0  0  0  0
   46.7270   34.9590   41.4380 H   0  0  0  0  0  0  0  0  0  0  0  0
   45.2430   34.0490   41.7090 H   0  0  0  0  0  0  0  0  0  0  0  0
   44.7950   36.2240   42.3050 H   0  0  0  0  0  0  0  0  0  0  0  0
   46.2040   36.4790   43.3290 H   0  0  0  0  0  0  0  0  0  0  0  0
   44.5970   36.0990   44.8650 H   0  0  0  0  0  0  0  0  0  0  0  0
   43.5840   35.0860   43.8340 H   0  0  0  0  0  0  0  0  0  0  0  0
   44.6670   33.1450   44.5770 H   0  0  0  0  0  0  0  0  0  0  0  0
   45.1040   34.1440   46.0040 H   0  0  0  0  0  0  0  0  0  0  0  0
   47.2650   34.7600   44.8590 H   0  0  0  0  0  0  0  0  0  0  0  0
   47.0300   32.9670   45.0970 H   0  0  0  0  0  0  0  0  0  0  0  0
   52.9470   28.3500   43.2040 C   0  0  0  0  0  0  0  0  0  0  0  0
   52.9430   27.5140   42.5260 H   0  0  0  0  0  0  0  0  0  0  0  0
   52.2950   28.0370   44.0730 H   0  0  0  0  0  0  0  0  0  0  0  0
   54.3030   28.6640   43.6520 C   0  0  0  0  0  3  0  0  0  0  0  0
   54.8490   29.6780   44.3030 C   0  0  0  0  0  3  0  0  0  0  0  0
   56.3110   29.8050   44.7680 C   0  0  0  0  0  0  0  0  0  0  0  0
   56.2610   30.4040   45.6950 H   0  0  0  0  0  0  0  0  0  0  0  0
   56.6870   28.7890   44.9480 H   0  0  0  0  0  0  0  0  0  0  0  0
   59.8150   32.8510   42.3060 C   0  0  0  0  0  0  0  0  0  0  0  0
   59.7190   31.5740   42.0450 C   0  0  0  0  0  0  0  0  0  0  0  0
   58.8050   30.7400   42.6930 N   0  0  0  0  0  0  0  0  0  0  0  0
   57.8530   29.6800   42.7750 C   0  0  2  0  0  0  0  0  0  0  0  0
   57.8340   28.5790   42.1710 O   0  0  0  0  0  1  0  0  0  0  0  0
   57.1290   30.5120   43.7560 C   0  0  2  0  0  3  0  0  0  0  0  0
   58.5230   30.8830   44.1220 C   0  0  2  0  0  0  0  0  0  0  0  0
   58.8260   32.5190   44.7630 S   0  0  0  0  0  0  0  0  0  0  0  0
   58.9780   33.5340   43.2950 C   0  0  0  0  0  3  0  0  0  0  0  0
   57.9490   33.7320   42.9210 H   0  0  0  0  0  0  0  0  0  0  0  0
   60.8180   33.6060   41.5540 C   0  0  0  0  0  2  0  0  0  0  0  0
   61.7720   33.0190   41.4480 H   0  0  0  0  0  0  0  0  0  0  0  0
   60.5940   30.9770   41.0410 C   0  0  0  0  0  0  0  0  0  0  0  0
   61.3040   29.9320   41.1970 O   0  0  0  0  0  0  0  0  0  0  0  0
   61.3180   30.6520   39.9140 O   0  0  0  0  0  0  0  0  0  0  0  0
   61.1570   31.0180   38.9830 H   0  0  0  0  0  0  0  0  0  0  0  0
  1 11  1  0  0  0  0
  1  5  2  0  0  0  0
  2  3  2  0  0  0  0
  2  1  1  0  0  0  0
  3  4  1  0  0  0  0
  4 32  1  0  0  0  0
  4  5  1  0  0  0  0
  6  3  1  0  0  0  0
  7 15  1  0  0  0  0
  8 13  1  0  0  0  0
  8  7  2  0  0  0  0
  9  8  1  0  0  0  0
 10  9  2  0  0  0  0
 10 11  1  0  0  0  0
 11 12  2  0  0  0  0
 12  7  1  0  0  0  0
 14  9  1  0  0  0  0
 15 20  1  0  0  0  0
 16 17  1  0  0  0  0
 16 15  1  0  0  0  0
 17 25  1  0  0  0  0
 17 18  1  0  0  0  0
 18 26  1  0  0  0  0
 18 19  1  0  0  0  0
 19 29  1  0  0  0  0
 20 30  1  0  0  0  0
 20 19  1  0  0  0  0
 20 31  1  0  0  0  0
 21 15  1  0  0  0  0
 22 16  1  0  0  0  0
 23 16  1  0  0  0  0
 24 17  1  0  0  0  0
 27 18  1  0  0  0  0
 28 19  1  0  0  0  0
 32 35  1  0  0  0  0
 32 34  1  0  0  0  0
 33 32  1  0  0  0  0
 35 36  2  0  0  0  0
 36 37  1  0  0  0  0
 37 39  1  0  0  0  0
 37 38  1  0  0  0  0
 40 48  1  0  0  0  0
 41 40  2  0  0  0  0
 41 42  1  0  0  0  0
 42 43  1  0  0  0  0
 42 46  1  0  0  0  0
 43 44  1  6  0  0  0
 43 45  1  0  0  0  0
 43 46  1  0  0  0  0
 45 46  1  0  0  0  0
 45 37  1  1  0  0  0
 46 47  1  1  0  0  0
 48 47  1  0  0  0  0
 49 48  1  0  0  0  0
 50 40  1  0  0  0  0
 51 50  1  0  0  0  0
 52 53  2  0  0  0  0
 52 41  1  0  0  0  0
 54 52  1  0  0  0  0
 55 54  1  0  0  0  0
M  END
>  <minimizedAffinity>
-4.74693203

>  <minimizedRMSD>
2.66370344

$$$$
