
 OpenBabel03242523293D

 29 31  0  0  1  0  0  0  0  0999 V2000
   46.1750   29.3770   46.2000 C   0  0  0  0  0  0  0  0  0  0  0  0
   47.2180   28.5520   46.1620 C   0  0  0  0  0  0  0  0  0  0  0  0
   47.2150   27.3570   46.9320 N   0  0  0  0  0  0  0  0  0  0  0  0
   47.9930   26.5710   47.8670 C   0  0  0  0  0  0  0  0  0  0  0  0
   49.1990   26.4760   48.2800 O   0  0  0  0  0  0  0  0  0  0  0  0
   46.7250   25.8450   48.1950 C   0  0  0  0  0  3  0  0  0  0  0  0
   46.9420   24.7410   48.0770 H   0  0  0  0  0  0  0  0  0  0  0  0
   46.0930   26.4010   46.9360 C   0  0  1  0  0  3  0  0  0  0  0  0
   44.5840   27.3380   47.1400 S   0  0  0  0  0  0  0  0  0  0  0  0
   44.9950   29.0980   47.0490 C   0  0  0  0  0  3  0  0  0  0  0  0
   45.1240   29.5310   48.0810 H   0  0  0  0  0  0  0  0  0  0  0  0
   48.4160   28.8020   45.3320 C   0  0  0  0  0  0  0  0  0  0  0  0
   48.7760   28.1780   44.3010 O   0  0  0  0  0  0  0  0  0  0  0  0
   49.5800   29.4580   44.9880 O   0  0  0  0  0  0  0  0  0  0  0  0
   49.5960   30.4430   44.6750 H   0  0  0  0  0  0  0  0  0  0  0  0
   46.2500   30.5820   45.3650 C   0  0  0  0  0  2  0  0  0  0  0  0
   46.8560   32.0500   46.1880 S   0  0  0  0  0  0  0  0  0  0  0  0
   45.5690   33.2340   46.6330 C   0  0  0  0  0  0  0  0  0  0  0  0
   44.6060   32.8010   46.8930 H   0  0  0  0  0  0  0  0  0  0  0  0
   45.9960   33.8570   47.4720 H   0  0  0  0  0  0  0  0  0  0  0  0
   44.5450   36.0860   44.4480 C   0  0  0  0  0  0  0  0  0  0  0  0
   45.3100   35.8420   43.3180 C   0  0  0  0  0  0  0  0  0  0  0  0
   46.1510   34.7360   43.3020 C   0  0  0  0  0  0  0  0  0  0  0  0
   46.2030   33.9250   44.3890 N   0  0  0  0  0  0  0  0  0  0  0  0
   45.4340   34.1910   45.4940 C   0  0  0  0  0  0  0  0  0  0  0  0
   44.6360   35.2550   45.4890 N   0  0  0  0  0  0  0  0  0  0  0  0
   43.9120   36.9500   44.4130 H   0  0  0  0  0  0  0  0  0  0  0  0
   45.3350   36.4360   42.4000 H   0  0  0  0  0  0  0  0  0  0  0  0
   46.7930   34.4590   42.4600 H   0  0  0  0  0  0  0  0  0  0  0  0
  1 10  1  0  0  0  0
  2  1  2  0  0  0  0
  2  3  1  0  0  0  0
  3  8  1  0  0  0  0
  3  4  1  0  0  0  0
  4  6  1  0  0  0  0
  4  5  2  0  0  0  0
  7  6  1  0  0  0  0
  8  9  1  1  0  0  0
  8  6  1  0  0  0  0
 10  9  1  0  0  0  0
 10 11  1  0  0  0  0
 12  2  1  0  0  0  0
 13 12  2  0  0  0  0
 14 12  1  0  0  0  0
 15 14  1  0  0  0  0
 16 17  1  0  0  0  0
 16  1  1  0  0  0  0
 17 18  1  0  0  0  0
 18 19  1  0  0  0  0
 18 20  1  0  0  0  0
 21 26  1  0  0  0  0
 22 21  2  0  0  0  0
 23 22  1  0  0  0  0
 23 24  2  0  0  0  0
 24 25  1  0  0  0  0
 25 18  1  0  0  0  0
 26 25  2  0  0  0  0
 27 21  1  0  0  0  0
 28 22  1  0  0  0  0
 29 23  1  0  0  0  0
M  END
>  <minimizedAffinity>
-3.81132507

>  <minimizedRMSD>
2.64103842

$$$$
