
 OpenBabel03242512163D

 40 43  0  0  1  0  0  0  0  0999 V2000
   46.2340   32.5540   41.9270 C   0  0  0  0  0  0  0  0  0  0  0  0
   46.2420   33.6780   41.1160 C   0  0  0  0  0  0  0  0  0  0  0  0
   47.0640   34.7420   41.4330 C   0  0  0  0  0  0  0  0  0  0  0  0
   47.8590   34.6420   42.5670 C   0  0  0  0  0  0  0  0  0  0  0  0
   47.8180   33.5050   43.3420 C   0  0  0  0  0  0  0  0  0  0  0  0
   47.0110   32.4240   43.0570 C   0  0  0  0  0  0  0  0  0  0  0  0
   47.0130   35.5630   40.7640 H   0  0  0  0  0  0  0  0  0  0  0  0
   48.4570   35.5230   42.7220 H   0  0  0  0  0  0  0  0  0  0  0  0
   48.4940   33.6140   44.1580 H   0  0  0  0  0  0  0  0  0  0  0  0
   45.3410   33.6150   39.9410 C   0  0  0  0  0  0  0  0  0  0  0  0
   45.3970   32.6860   39.4060 H   0  0  0  0  0  0  0  0  0  0  0  0
   45.7230   34.4080   39.2410 H   0  0  0  0  0  0  0  0  0  0  0  0
   43.9530   34.0310   40.3440 C   0  0  0  0  0  0  0  0  0  0  0  0
   42.9110   33.1970   39.9530 C   0  0  0  0  0  0  0  0  0  0  0  0
   41.6090   33.5500   40.3200 C   0  0  0  0  0  0  0  0  0  0  0  0
   41.4470   34.6870   41.0350 N   0  0  0  0  0  0  0  0  0  0  0  0
   42.4950   35.4870   41.4060 C   0  0  0  0  0  0  0  0  0  0  0  0
   43.7490   35.1560   41.0580 N   0  0  0  0  0  0  0  0  0  0  0  0
   43.1180   32.3020   39.3790 H   0  0  0  0  0  0  0  0  0  0  0  0
   40.7760   32.9470   40.0450 H   0  0  0  0  0  0  0  0  0  0  0  0
   42.2920   36.3680   41.9700 H   0  0  0  0  0  0  0  0  0  0  0  0
   45.4240   31.4220   41.6740 O   0  0  0  0  0  0  0  0  0  0  0  0
   45.5850   30.9880   40.7880 H   0  0  0  0  0  0  0  0  0  0  0  0
   47.0340   31.3390   43.8740 O   0  0  0  0  0  0  0  0  0  0  0  0
   47.6890   31.0240   45.0370 C   0  0  0  0  0  2  0  0  0  0  0  0
   48.2460   29.6460   45.0970 C   0  0  0  0  0  0  0  0  0  0  0  0
   49.2450   29.1730   44.3640 C   0  0  0  0  0  0  0  0  0  0  0  0
   49.6630   27.8490   44.5240 N   0  0  0  0  0  0  0  0  0  0  0  0
   50.7000   26.8920   44.5210 C   0  0  0  0  0  0  0  0  0  0  0  0
   51.9140   26.7940   44.1310 O   0  0  0  0  0  0  0  0  0  0  0  0
   49.8920   25.8500   45.2020 C   0  0  0  0  0  3  0  0  0  0  0  0
   50.1860   25.8400   46.2800 H   0  0  0  0  0  0  0  0  0  0  0  0
   48.7460   26.7770   44.8570 C   0  0  1  0  0  3  0  0  0  0  0  0
   47.8500   27.2200   46.3710 S   0  0  0  0  0  0  0  0  0  0  0  0
   47.4660   28.9570   46.1190 C   0  0  0  0  0  3  0  0  0  0  0  0
   47.5070   29.5220   47.0840 H   0  0  0  0  0  0  0  0  0  0  0  0
   49.9440   29.9960   43.3620 C   0  0  0  0  0  0  0  0  0  0  0  0
   51.0240   30.6260   43.2620 O   0  0  0  0  0  0  0  0  0  0  0  0
   49.4360   30.2690   42.1230 O   0  0  0  0  0  0  0  0  0  0  0  0
   49.9290   30.1340   41.2320 H   0  0  0  0  0  0  0  0  0  0  0  0
  1  6  1  0  0  0  0
  2  3  1  0  0  0  0
  2  1  2  0  0  0  0
  3  4  2  0  0  0  0
  4  8  1  0  0  0  0
  4  5  1  0  0  0  0
  5  9  1  0  0  0  0
  6  5  2  0  0  0  0
  6 24  1  0  0  0  0
  7  3  1  0  0  0  0
 10 13  1  0  0  0  0
 10  2  1  0  0  0  0
 11 10  1  0  0  0  0
 12 10  1  0  0  0  0
 13 18  1  0  0  0  0
 14 15  1  0  0  0  0
 14 13  2  0  0  0  0
 15 16  2  0  0  0  0
 16 17  1  0  0  0  0
 17 21  1  0  0  0  0
 18 17  2  0  0  0  0
 19 14  1  0  0  0  0
 20 15  1  0  0  0  0
 22  1  1  0  0  0  0
 23 22  1  0  0  0  0
 24 25  1  0  0  0  0
 25 26  1  0  0  0  0
 26 35  1  0  0  0  0
 27 28  1  0  0  0  0
 27 26  2  0  0  0  0
 28 33  1  0  0  0  0
 29 28  1  0  0  0  0
 29 31  1  0  0  0  0
 30 29  2  0  0  0  0
 31 32  1  0  0  0  0
 33 31  1  1  0  0  0
 33 34  1  0  0  0  0
 35 34  1  0  0  0  0
 35 36  1  0  0  0  0
 37 27  1  0  0  0  0
 38 37  2  0  0  0  0
 39 37  1  0  0  0  0
 40 39  1  0  0  0  0
M  END
>  <minimizedAffinity>
-3.50278401

>  <minimizedRMSD>
3.90448093

$$$$
