
 OpenBabel03242512163D

 40 43  0  0  1  0  0  0  0  0999 V2000
   48.3650   33.0780   41.3580 C   0  0  0  0  0  0  0  0  0  0  0  0
   48.1200   34.3350   41.8890 C   0  0  0  0  0  0  0  0  0  0  0  0
   49.1410   35.0190   42.5180 C   0  0  0  0  0  0  0  0  0  0  0  0
   50.3880   34.4140   42.5940 C   0  0  0  0  0  0  0  0  0  0  0  0
   50.5840   33.1640   42.0510 C   0  0  0  0  0  0  0  0  0  0  0  0
   49.5900   32.4500   41.4160 C   0  0  0  0  0  0  0  0  0  0  0  0
   48.8750   35.9740   42.8970 H   0  0  0  0  0  0  0  0  0  0  0  0
   51.1090   35.0310   43.1020 H   0  0  0  0  0  0  0  0  0  0  0  0
   51.5970   32.8720   42.2050 H   0  0  0  0  0  0  0  0  0  0  0  0
   46.7370   34.8370   41.7110 C   0  0  0  0  0  0  0  0  0  0  0  0
   46.1900   34.3270   40.9410 H   0  0  0  0  0  0  0  0  0  0  0  0
   46.8580   35.9000   41.3650 H   0  0  0  0  0  0  0  0  0  0  0  0
   46.0440   34.8970   43.0450 C   0  0  0  0  0  0  0  0  0  0  0  0
   46.2680   33.8350   43.9150 C   0  0  0  0  0  0  0  0  0  0  0  0
   45.6470   33.8650   45.1670 C   0  0  0  0  0  0  0  0  0  0  0  0
   44.8630   34.9300   45.4520 N   0  0  0  0  0  0  0  0  0  0  0  0
   44.6630   35.9610   44.5730 C   0  0  0  0  0  0  0  0  0  0  0  0
   45.2560   35.9420   43.3680 N   0  0  0  0  0  0  0  0  0  0  0  0
   46.9090   33.0140   43.6160 H   0  0  0  0  0  0  0  0  0  0  0  0
   45.7840   33.0770   45.8700 H   0  0  0  0  0  0  0  0  0  0  0  0
   44.0320   36.7690   44.8650 H   0  0  0  0  0  0  0  0  0  0  0  0
   47.3760   32.3100   40.6980 O   0  0  0  0  0  0  0  0  0  0  0  0
   46.9720   32.7540   39.8990 H   0  0  0  0  0  0  0  0  0  0  0  0
   49.8690   31.2240   40.9050 O   0  0  0  0  0  0  0  0  0  0  0  0
   50.4690   30.0920   41.3950 C   0  0  0  0  0  2  0  0  0  0  0  0
   49.9940   29.6530   42.7340 C   0  0  0  0  0  0  0  0  0  0  0  0
   50.7470   29.4750   43.8130 C   0  0  0  0  0  0  0  0  0  0  0  0
   50.1630   29.0520   45.0100 N   0  0  0  0  0  0  0  0  0  0  0  0
   50.1300   29.0750   46.4200 C   0  0  0  0  0  0  0  0  0  0  0  0
   50.8770   29.4380   47.3920 O   0  0  0  0  0  0  0  0  0  0  0  0
   48.7800   28.4660   46.5090 C   0  0  0  0  0  3  0  0  0  0  0  0
   48.0470   29.2870   46.6990 H   0  0  0  0  0  0  0  0  0  0  0  0
   49.0280   28.1530   45.0490 C   0  0  1  0  0  3  0  0  0  0  0  0
   47.6900   28.8530   44.0440 S   0  0  0  0  0  0  0  0  0  0  0  0
   48.5550   29.4710   42.5950 C   0  0  0  0  0  3  0  0  0  0  0  0
   48.0790   30.4090   42.2140 H   0  0  0  0  0  0  0  0  0  0  0  0
   52.2030   29.7030   43.8010 C   0  0  0  0  0  0  0  0  0  0  0  0
   53.2170   29.2250   43.2390 O   0  0  0  0  0  0  0  0  0  0  0  0
   52.8210   30.6630   44.5500 O   0  0  0  0  0  0  0  0  0  0  0  0
   53.4820   31.3650   44.1940 H   0  0  0  0  0  0  0  0  0  0  0  0
  1  6  2  0  0  0  0
  1  2  1  0  0  0  0
  2  3  2  0  0  0  0
  3  4  1  0  0  0  0
  3  7  1  0  0  0  0
  4  8  1  0  0  0  0
  5  9  1  0  0  0  0
  5  4  2  0  0  0  0
  6  5  1  0  0  0  0
 10  2  1  0  0  0  0
 10 13  1  0  0  0  0
 11 10  1  0  0  0  0
 12 10  1  0  0  0  0
 13 18  2  0  0  0  0
 13 14  1  0  0  0  0
 14 15  2  0  0  0  0
 15 16  1  0  0  0  0
 15 20  1  0  0  0  0
 17 21  1  0  0  0  0
 17 16  2  0  0  0  0
 18 17  1  0  0  0  0
 19 14  1  0  0  0  0
 22  1  1  0  0  0  0
 23 22  1  0  0  0  0
 24 25  1  0  0  0  0
 24  6  1  0  0  0  0
 25 26  1  0  0  0  0
 26 27  2  0  0  0  0
 27 28  1  0  0  0  0
 28 33  1  0  0  0  0
 28 29  1  0  0  0  0
 29 31  1  0  0  0  0
 29 30  2  0  0  0  0
 31 32  1  0  0  0  0
 33 34  1  6  0  0  0
 33 31  1  0  0  0  0
 35 26  1  0  0  0  0
 35 34  1  0  0  0  0
 36 35  1  0  0  0  0
 37 27  1  0  0  0  0
 37 39  1  0  0  0  0
 38 37  2  0  0  0  0
 40 39  1  0  0  0  0
M  END
>  <minimizedAffinity>
-5.10368776

>  <minimizedRMSD>
1.65996671

$$$$
