
 OpenBabel03242512163D

 40 43  0  0  1  0  0  0  0  0999 V2000
   48.4030   33.0710   41.3420 C   0  0  0  0  0  0  0  0  0  0  0  0
   48.0000   34.3040   41.8290 C   0  0  0  0  0  0  0  0  0  0  0  0
   48.9180   35.1200   42.4610 C   0  0  0  0  0  0  0  0  0  0  0  0
   50.2240   34.6670   42.5850 C   0  0  0  0  0  0  0  0  0  0  0  0
   50.5780   33.4340   42.0850 C   0  0  0  0  0  0  0  0  0  0  0  0
   49.6910   32.5920   41.4480 C   0  0  0  0  0  0  0  0  0  0  0  0
   48.5320   36.0470   42.8050 H   0  0  0  0  0  0  0  0  0  0  0  0
   50.8540   35.3770   43.0920 H   0  0  0  0  0  0  0  0  0  0  0  0
   51.6140   33.2660   42.2710 H   0  0  0  0  0  0  0  0  0  0  0  0
   46.5730   34.6360   41.6040 C   0  0  0  0  0  0  0  0  0  0  0  0
   46.0650   33.9380   40.9670 H   0  0  0  0  0  0  0  0  0  0  0  0
   46.5890   35.6160   41.0530 H   0  0  0  0  0  0  0  0  0  0  0  0
   45.8990   34.8970   42.9230 C   0  0  0  0  0  0  0  0  0  0  0  0
   45.9650   33.8810   43.8710 C   0  0  0  0  0  0  0  0  0  0  0  0
   45.3570   34.0950   45.1120 C   0  0  0  0  0  0  0  0  0  0  0  0
   44.7400   35.2830   45.3100 N   0  0  0  0  0  0  0  0  0  0  0  0
   44.6930   36.2640   44.3550 C   0  0  0  0  0  0  0  0  0  0  0  0
   45.2740   36.0680   43.1610 N   0  0  0  0  0  0  0  0  0  0  0  0
   46.4770   32.9540   43.6400 H   0  0  0  0  0  0  0  0  0  0  0  0
   45.3770   33.3500   45.8720 H   0  0  0  0  0  0  0  0  0  0  0  0
   44.1890   37.1750   44.5810 H   0  0  0  0  0  0  0  0  0  0  0  0
   47.5290   32.1740   40.6820 O   0  0  0  0  0  0  0  0  0  0  0  0
   47.0980   32.5470   39.8610 H   0  0  0  0  0  0  0  0  0  0  0  0
   50.1240   31.3930   40.9810 O   0  0  0  0  0  0  0  0  0  0  0  0
   51.2860   30.6750   41.1070 C   0  0  0  0  0  2  0  0  0  0  0  0
   51.1060   29.2170   41.3340 C   0  0  0  0  0  0  0  0  0  0  0  0
   51.1490   28.5950   42.5060 C   0  0  0  0  0  0  0  0  0  0  0  0
   50.9680   27.2120   42.5700 N   0  0  0  0  0  0  0  0  0  0  0  0
   50.4860   26.0790   43.2610 C   0  0  0  0  0  0  0  0  0  0  0  0
   50.0760   25.7730   44.4330 O   0  0  0  0  0  0  0  0  0  0  0  0
   50.5920   25.1790   42.0870 C   0  0  0  0  0  3  0  0  0  0  0  0
   49.5710   25.0700   41.6460 H   0  0  0  0  0  0  0  0  0  0  0  0
   51.4170   26.3170   41.5230 C   0  0  1  0  0  3  0  0  0  0  0  0
   50.7030   26.8560   39.9450 S   0  0  0  0  0  0  0  0  0  0  0  0
   50.8770   28.6440   40.0140 C   0  0  0  0  0  3  0  0  0  0  0  0
   50.0120   29.1500   39.5160 H   0  0  0  0  0  0  0  0  0  0  0  0
   51.3910   29.3140   43.7690 C   0  0  0  0  0  0  0  0  0  0  0  0
   52.3110   29.9830   44.2990 O   0  0  0  0  0  0  0  0  0  0  0  0
   50.4770   29.3920   44.7800 O   0  0  0  0  0  0  0  0  0  0  0  0
   50.1650   30.2570   45.2390 H   0  0  0  0  0  0  0  0  0  0  0  0
  1  6  2  0  0  0  0
  1  2  1  0  0  0  0
  2  3  2  0  0  0  0
  3  4  1  0  0  0  0
  3  7  1  0  0  0  0
  4  8  1  0  0  0  0
  5  9  1  0  0  0  0
  5  4  2  0  0  0  0
  6  5  1  0  0  0  0
 10  2  1  0  0  0  0
 10 13  1  0  0  0  0
 11 10  1  0  0  0  0
 12 10  1  0  0  0  0
 13 18  2  0  0  0  0
 13 14  1  0  0  0  0
 14 15  2  0  0  0  0
 15 16  1  0  0  0  0
 15 20  1  0  0  0  0
 17 21  1  0  0  0  0
 17 16  2  0  0  0  0
 18 17  1  0  0  0  0
 19 14  1  0  0  0  0
 22  1  1  0  0  0  0
 23 22  1  0  0  0  0
 24 25  1  0  0  0  0
 24  6  1  0  0  0  0
 25 26  1  0  0  0  0
 26 27  2  0  0  0  0
 27 28  1  0  0  0  0
 27 37  1  0  0  0  0
 28 29  1  0  0  0  0
 29 30  2  0  0  0  0
 31 29  1  0  0  0  0
 32 31  1  0  0  0  0
 33 34  1  6  0  0  0
 33 31  1  0  0  0  0
 33 28  1  0  0  0  0
 34 35  1  0  0  0  0
 35 26  1  0  0  0  0
 36 35  1  0  0  0  0
 37 38  2  0  0  0  0
 37 39  1  0  0  0  0
 39 40  1  0  0  0  0
M  END
>  <minimizedAffinity>
-4.44718218

>  <minimizedRMSD>
0.648494065

$$$$
