
 OpenBabel03242522413D

 54 58  0  0  1  0  0  0  0  0999 V2000
   46.8390   34.4220   43.0110 C   0  0  0  0  0  0  0  0  0  0  0  0
   46.2340   33.8080   44.0780 C   0  0  0  0  0  0  0  0  0  0  0  0
   45.1920   34.2890   44.7710 C   0  0  0  0  0  0  0  0  0  0  0  0
   44.6680   35.4950   44.4030 C   0  0  0  0  0  0  0  0  0  0  0  0
   45.1800   36.1990   43.3570 C   0  0  0  0  0  0  0  0  0  0  0  0
   46.2570   35.6460   42.6800 C   0  0  0  0  0  0  0  0  0  0  0  0
   44.6530   33.8940   45.5850 H   0  0  0  0  0  0  0  0  0  0  0  0
   43.8320   36.0030   44.8730 H   0  0  0  0  0  0  0  0  0  0  0  0
   44.8060   37.1740   43.0060 H   0  0  0  0  0  0  0  0  0  0  0  0
   46.6610   36.2270   41.8330 H   0  0  0  0  0  0  0  0  0  0  0  0
   46.7730   32.4880   44.4700 C   0  0  0  0  0  0  0  0  0  0  0  0
   47.8270   32.6190   44.6770 H   0  0  0  0  0  0  0  0  0  0  0  0
   46.5000   31.8440   43.6090 H   0  0  0  0  0  0  0  0  0  0  0  0
   46.0540   31.7970   45.5810 C   0  0  0  0  0  0  0  0  0  0  0  0
   45.1060   32.3010   45.9120 H   0  0  0  0  0  0  0  0  0  0  0  0
   45.6510   30.7750   45.3200 H   0  0  0  0  0  0  0  0  0  0  0  0
   47.2030   32.5680   47.6260 C   0  0  0  0  0  0  0  0  0  0  0  0
   47.0000   31.5550   46.6610 C   0  0  0  0  0  0  0  0  0  0  0  0
   47.6950   30.3710   46.8160 C   0  0  0  0  0  0  0  0  0  0  0  0
   48.5260   30.2400   47.8750 N   0  0  0  0  0  0  0  0  0  0  0  0
   48.6950   31.2110   48.7690 C   0  0  0  0  0  0  0  0  0  0  0  0
   48.0410   32.3910   48.6660 N   0  0  0  0  0  0  0  0  0  0  0  0
   46.7770   33.5520   47.6940 H   0  0  0  0  0  0  0  0  0  0  0  0
   47.5410   29.5960   46.0770 H   0  0  0  0  0  0  0  0  0  0  0  0
   49.6320   30.9760   49.9220 C   0  0  0  0  0  0  0  0  0  0  0  0
   49.7720   29.8820   50.0770 H   0  0  0  0  0  0  0  0  0  0  0  0
   49.0970   31.3940   50.8170 H   0  0  0  0  0  0  0  0  0  0  0  0
   50.9050   31.6680   49.7860 C   0  0  0  0  0  0  0  0  0  0  0  0
   52.0540   31.1300   49.2230 C   0  0  0  0  0  0  0  0  0  0  0  0
   53.0480   32.0690   49.2710 C   0  0  0  0  0  0  0  0  0  0  0  0
   52.4680   33.1590   49.8650 N   0  0  0  0  0  0  0  0  0  0  0  0
   51.1930   32.9250   50.1730 N   0  0  0  0  0  0  0  0  0  0  0  0
   52.2430   30.1420   48.7900 H   0  0  0  0  0  0  0  0  0  0  0  0
   54.0780   32.0420   48.9400 H   0  0  0  0  0  0  0  0  0  0  0  0
   52.9670   34.0600   50.0520 H   0  0  0  0  0  0  0  0  0  0  0  0
   48.2280   33.9640   42.1390 S   0  0  0  0  0  0  0  0  0  0  0  0
   49.5120   34.3450   42.8220 O   0  0  0  0  0  0  0  0  0  0  0  0
   48.2410   34.8130   40.8420 O   0  0  0  0  0  0  0  0  0  0  0  0
   48.4710   32.3790   41.5200 C   0  0  0  0  0  2  0  0  0  0  0  0
   48.2000   32.4100   40.0300 C   0  0  0  0  0  0  0  0  0  0  0  0
   47.0220   32.4390   39.4700 C   0  0  0  0  0  0  0  0  0  0  0  0
   46.9340   32.4530   38.0570 N   0  0  0  0  0  0  0  0  0  0  0  0
   46.3650   33.0330   36.8630 C   0  0  0  0  0  0  0  0  0  0  0  0
   45.2190   33.5340   36.6020 O   0  0  0  0  0  0  0  0  0  0  0  0
   47.6990   32.7380   36.2310 C   0  0  0  0  0  3  0  0  0  0  0  0
   47.6350   32.4470   35.1620 H   0  0  0  0  0  0  0  0  0  0  0  0
   47.6670   31.5540   37.1880 C   0  0  1  0  0  3  0  0  0  0  0  0
   49.3320   31.2300   37.8130 S   0  0  0  0  0  0  0  0  0  0  0  0
   49.4840   32.3790   39.2500 C   0  0  0  0  0  3  0  0  0  0  0  0
   50.3250   31.9530   39.8090 H   0  0  0  0  0  0  0  0  0  0  0  0
   45.7630   32.4470   40.2550 C   0  0  0  0  0  0  0  0  0  0  0  0
   45.0900   31.7710   41.0720 O   0  0  0  0  0  0  0  0  0  0  0  0
   44.8200   33.4360   40.2710 O   0  0  0  0  0  0  0  0  0  0  0  0
   44.5780   34.0200   41.0450 H   0  0  0  0  0  0  0  0  0  0  0  0
  1  2  1  0  0  0  0
  2 11  1  0  0  0  0
  2  3  2  0  0  0  0
  3  7  1  0  0  0  0
  4  3  1  0  0  0  0
  4  8  1  0  0  0  0
  5  4  2  0  0  0  0
  6  1  2  0  0  0  0
  6  5  1  0  0  0  0
  9  5  1  0  0  0  0
 10  6  1  0  0  0  0
 11 12  1  0  0  0  0
 11 14  1  0  0  0  0
 13 11  1  0  0  0  0
 14 15  1  0  0  0  0
 14 18  1  0  0  0  0
 16 14  1  0  0  0  0
 17 23  1  0  0  0  0
 17 22  1  0  0  0  0
 18 19  1  0  0  0  0
 18 17  2  0  0  0  0
 19 20  2  0  0  0  0
 20 21  1  0  0  0  0
 21 25  1  0  0  0  0
 22 21  2  0  0  0  0
 24 19  1  0  0  0  0
 25 26  1  0  0  0  0
 25 27  1  0  0  0  0
 28 25  1  0  0  0  0
 28 32  2  0  0  0  0
 29 30  2  0  0  0  0
 29 28  1  0  0  0  0
 30 31  1  0  0  0  0
 31 35  1  0  0  0  0
 31 32  1  0  0  0  0
 33 29  1  0  0  0  0
 34 30  1  0  0  0  0
 36 37  2  0  0  0  0
 36  1  1  0  0  0  0
 38 36  2  0  0  0  0
 39 36  1  0  0  0  0
 40 39  1  0  0  0  0
 41 40  2  0  0  0  0
 41 51  1  0  0  0  0
 42 41  1  0  0  0  0
 43 42  1  0  0  0  0
 44 43  2  0  0  0  0
 45 43  1  0  0  0  0
 46 45  1  0  0  0  0
 47 45  1  6  0  0  0
 47 48  1  0  0  0  0
 47 42  1  0  0  0  0
 48 49  1  0  0  0  0
 49 50  1  0  0  0  0
 49 40  1  0  0  0  0
 51 53  1  0  0  0  0
 51 52  2  0  0  0  0
 53 54  1  0  0  0  0
M  END
>  <minimizedAffinity>
-6.17786694

>  <minimizedRMSD>
1.62581575

$$$$
