
 OpenBabel03252507033D

 54 59  0  0  1  0  0  0  0  0999 V2000
   40.9330   33.1620   40.5640 N   0  0  0  0  0  0  0  0  0  0  0  0
   40.2280   31.9300   40.5140 C   0  0  0  0  0  0  0  0  0  0  0  0
   38.8350   32.4360   40.8990 C   0  0  0  0  0  0  0  0  0  0  0  0
   38.2990   33.4250   39.9760 C   0  0  0  0  0  0  0  0  0  0  0  0
   39.2020   34.2260   39.1810 C   0  0  0  0  0  0  0  0  0  0  0  0
   40.6810   34.1240   39.4680 C   0  0  0  0  0  0  0  0  0  0  0  0
   40.5260   31.2790   41.3750 H   0  0  0  0  0  0  0  0  0  0  0  0
   40.2490   31.3410   39.6110 H   0  0  0  0  0  0  0  0  0  0  0  0
   38.1710   31.5320   40.9300 H   0  0  0  0  0  0  0  0  0  0  0  0
   38.9110   32.7860   41.9410 H   0  0  0  0  0  0  0  0  0  0  0  0
   37.6020   34.1050   40.5520 H   0  0  0  0  0  0  0  0  0  0  0  0
   37.5890   32.9240   39.2520 H   0  0  0  0  0  0  0  0  0  0  0  0
   38.9570   34.8990   38.4030 H   0  0  0  0  0  0  0  0  0  0  0  0
   41.7890   33.5850   41.4860 C   0  0  0  0  0  0  0  0  0  0  0  0
   41.4320   33.3840   42.5320 H   0  0  0  0  0  0  0  0  0  0  0  0
   41.9670   34.7000   41.5060 H   0  0  0  0  0  0  0  0  0  0  0  0
   43.1350   32.9650   41.3930 C   0  0  0  0  0  0  0  0  0  0  0  0
   43.2200   32.0490   42.0410 H   0  0  0  0  0  0  0  0  0  0  0  0
   43.3780   32.6490   40.3510 H   0  0  0  0  0  0  0  0  0  0  0  0
   44.1350   33.9210   41.8950 C   0  0  0  0  0  0  0  0  0  0  0  0
   43.7380   35.1570   42.3690 C   0  0  0  0  0  0  0  0  0  0  0  0
   44.7180   36.0320   42.8160 C   0  0  0  0  0  0  0  0  0  0  0  0
   46.0220   35.6240   42.7700 N   0  0  0  0  0  0  0  0  0  0  0  0
   46.3640   34.4320   42.3120 C   0  0  0  0  0  0  0  0  0  0  0  0
   45.4090   33.5780   41.8720 N   0  0  0  0  0  0  0  0  0  0  0  0
   42.8040   35.6690   42.5090 H   0  0  0  0  0  0  0  0  0  0  0  0
   44.6190   37.0390   43.2250 H   0  0  0  0  0  0  0  0  0  0  0  0
   47.7780   34.0600   42.3300 C   0  0  0  0  0  0  0  0  0  0  0  0
   48.1730   32.7310   42.2820 C   0  0  0  0  0  0  0  0  0  0  0  0
   49.5010   32.3880   42.3060 C   0  0  0  0  0  0  0  0  0  0  0  0
   50.3590   33.4680   42.3810 C   0  0  0  0  0  0  0  0  0  0  0  0
   50.0170   34.8150   42.4310 C   0  0  0  0  0  0  0  0  0  0  0  0
   48.6800   35.0480   42.4010 N   0  0  0  0  0  0  0  0  0  0  0  0
   47.4420   31.9130   42.2260 H   0  0  0  0  0  0  0  0  0  0  0  0
   49.9100   31.3910   42.2730 H   0  0  0  0  0  0  0  0  0  0  0  0
   51.4470   33.2900   42.4030 H   0  0  0  0  0  0  0  0  0  0  0  0
   50.7730   35.5850   42.4930 H   0  0  0  0  0  0  0  0  0  0  0  0
   41.8820   35.0430   38.5790 S   0  0  0  0  0  0  0  0  0  0  0  0
   41.3920   35.6860   37.0140 C   0  0  0  0  0  2  0  0  0  0  0  0
   40.8420   37.0130   36.9910 C   0  0  0  0  0  0  0  0  0  0  0  0
   40.5030   37.9430   37.8640 C   0  0  0  0  0  0  0  0  0  0  0  0
   40.0070   39.2560   37.6410 N   0  0  0  0  0  0  0  0  0  0  0  0
   39.4160   40.5020   37.9920 C   0  0  1  0  0  0  0  0  0  0  0  0
   38.4600   40.6120   38.8090 O   0  0  0  0  0  1  0  0  0  0  0  0
   40.4230   41.1160   37.0340 C   0  0  0  0  0  3  0  0  0  0  0  0
   40.1040   42.0680   36.5710 H   0  0  0  0  0  0  0  0  0  0  0  0
   40.0820   39.8650   36.3210 C   0  0  1  0  0  0  0  0  0  0  0  0
   41.2900   39.0390   35.2990 S   0  0  0  0  0  0  0  0  0  0  0  0
   40.6400   37.3300   35.5430 C   0  0  0  0  0  3  0  0  0  0  0  0
   39.5670   37.2630   35.2900 H   0  0  0  0  0  0  0  0  0  0  0  0
   40.6930   37.6620   39.2850 C   0  0  0  0  0  0  0  0  0  0  0  0
   41.4290   37.5110   40.2940 O   0  0  0  0  0  0  0  0  0  0  0  0
   39.8760   37.3710   40.3420 O   0  0  0  0  0  0  0  0  0  0  0  0
   39.5800   36.4360   40.6500 H   0  0  0  0  0  0  0  0  0  0  0  0
  1 14  1  0  0  0  0
  2  1  1  0  0  0  0
  2  3  1  0  0  0  0
  2  7  1  0  0  0  0
  3  9  1  0  0  0  0
  3 10  1  0  0  0  0
  4 11  1  0  0  0  0
  4  3  1  0  0  0  0
  5  6  2  0  0  0  0
  5  4  1  0  0  0  0
  6  1  1  0  0  0  0
  8  2  1  0  0  0  0
 12  4  1  0  0  0  0
 13  5  1  0  0  0  0
 14 16  1  0  0  0  0
 14 15  1  0  0  0  0
 17 14  1  0  0  0  0
 17 20  1  0  0  0  0
 17 18  1  0  0  0  0
 19 17  1  0  0  0  0
 20 21  1  0  0  0  0
 21 26  1  0  0  0  0
 21 22  2  0  0  0  0
 22 27  1  0  0  0  0
 23 22  1  0  0  0  0
 24 28  1  0  0  0  0
 24 23  2  0  0  0  0
 25 20  2  0  0  0  0
 25 24  1  0  0  0  0
 28 33  1  0  0  0  0
 29 30  1  0  0  0  0
 29 28  2  0  0  0  0
 30 31  2  0  0  0  0
 31 36  1  0  0  0  0
 31 32  1  0  0  0  0
 32 37  1  0  0  0  0
 33 32  2  0  0  0  0
 34 29  1  0  0  0  0
 35 30  1  0  0  0  0
 38  6  1  0  0  0  0
 39 38  1  0  0  0  0
 40 39  1  0  0  0  0
 40 41  2  0  0  0  0
 41 51  1  0  0  0  0
 42 41  1  0  0  0  0
 42 43  1  0  0  0  0
 43 44  1  1  0  0  0
 45 43  1  0  0  0  0
 46 45  1  0  0  0  0
 47 48  1  6  0  0  0
 47 45  1  0  0  0  0
 47 42  1  0  0  0  0
 47 43  1  0  0  0  0
 48 49  1  0  0  0  0
 49 40  1  0  0  0  0
 50 49  1  0  0  0  0
 51 52  2  0  0  0  0
 51 53  1  0  0  0  0
 53 54  1  0  0  0  0
M  END
>  <minimizedAffinity>
3.89612913

>  <minimizedRMSD>
1.11109495

$$$$
