
 OpenBabel03242517023D

 40 43  0  0  1  0  0  0  0  0999 V2000
   44.1980   31.2200   36.2610 C   0  0  0  0  0  0  0  0  0  0  0  0
   43.6370   30.9800   35.2050 O   0  0  0  0  0  0  0  0  0  0  0  0
   45.5630   31.0320   36.5440 N   0  0  0  0  0  0  0  0  0  0  0  0
   45.9900   31.3090   37.4820 H   0  0  0  0  0  0  0  0  0  0  0  0
   47.8550   31.1460   36.0390 C   0  0  0  0  0  0  0  0  0  0  0  0
   49.0170   30.7250   35.4080 C   0  0  0  0  0  0  0  0  0  0  0  0
   48.9270   29.6300   34.5620 C   0  0  0  0  0  0  0  0  0  0  0  0
   47.7330   28.9990   34.3660 C   0  0  0  0  0  0  0  0  0  0  0  0
   46.5680   29.3990   34.9810 C   0  0  0  0  0  0  0  0  0  0  0  0
   46.6670   30.5100   35.8370 C   0  0  0  0  0  0  0  0  0  0  0  0
   49.9670   31.2050   35.5450 H   0  0  0  0  0  0  0  0  0  0  0  0
   49.7670   29.2200   34.0220 H   0  0  0  0  0  0  0  0  0  0  0  0
   47.6280   28.1400   33.7110 H   0  0  0  0  0  0  0  0  0  0  0  0
   45.5990   28.9240   34.8520 H   0  0  0  0  0  0  0  0  0  0  0  0
   48.5190   34.5730   37.4710 C   0  0  0  0  0  0  0  0  0  0  0  0
   48.4250   33.5360   36.5090 C   0  0  0  0  0  0  0  0  0  0  0  0
   47.9980   32.3040   36.9240 C   0  0  0  0  0  0  0  0  0  0  0  0
   47.6890   32.1590   38.2450 N   0  0  0  0  0  0  0  0  0  0  0  0
   47.7790   33.1490   39.1540 C   0  0  0  0  0  0  0  0  0  0  0  0
   48.1990   34.3670   38.7600 N   0  0  0  0  0  0  0  0  0  0  0  0
   48.8610   35.5010   37.0560 H   0  0  0  0  0  0  0  0  0  0  0  0
   48.6790   33.6840   35.4660 H   0  0  0  0  0  0  0  0  0  0  0  0
   47.5010   32.8890   40.1660 H   0  0  0  0  0  0  0  0  0  0  0  0
   43.3910   31.7330   37.2800 O   0  0  0  0  0  0  0  0  0  0  0  0
   43.9170   32.7750   38.0840 C   0  0  0  0  0  2  0  0  0  0  0  0
   42.9230   32.9970   39.1620 C   0  0  0  0  0  0  0  0  0  0  0  0
   42.1730   34.0570   39.2020 C   0  0  0  0  0  0  0  0  0  0  0  0
   41.2220   34.2630   40.2330 N   0  0  0  0  0  0  0  0  0  0  0  0
   40.5870   35.1460   41.1460 C   0  0  0  0  0  0  0  0  0  0  0  0
   40.5960   36.4060   41.3690 O   0  0  0  0  0  0  0  0  0  0  0  0
   39.8550   34.0370   41.8040 C   0  0  0  0  0  3  0  0  0  0  0  0
   40.2460   33.7670   42.8100 H   0  0  0  0  0  0  0  0  0  0  0  0
   40.4090   33.1390   40.7290 C   0  0  2  0  0  3  0  0  0  0  0  0
   41.6090   31.9160   41.3270 S   0  0  0  0  0  0  0  0  0  0  0  0
   42.9430   31.8680   40.1210 C   0  0  0  0  0  3  0  0  0  0  0  0
   42.7920   30.9210   39.5280 H   0  0  0  0  0  0  0  0  0  0  0  0
   42.2840   35.0790   38.1730 C   0  0  0  0  0  0  0  0  0  0  0  0
   41.3430   35.7530   37.7170 O   0  0  0  0  0  0  0  0  0  0  0  0
   42.7510   35.9520   37.2130 O   0  0  0  0  0  0  0  0  0  0  0  0
   43.5280   35.7800   36.5830 H   0  0  0  0  0  0  0  0  0  0  0  0
  1  3  1  0  0  0  0
  1 24  1  0  0  0  0
  2  1  2  0  0  0  0
  3  4  1  0  0  0  0
  5 17  1  0  0  0  0
  6 11  1  0  0  0  0
  6  5  2  0  0  0  0
  7  6  1  0  0  0  0
  8  7  2  0  0  0  0
  8  9  1  0  0  0  0
  9 10  2  0  0  0  0
 10  5  1  0  0  0  0
 10  3  1  0  0  0  0
 12  7  1  0  0  0  0
 13  8  1  0  0  0  0
 14  9  1  0  0  0  0
 15 20  1  0  0  0  0
 16 17  1  0  0  0  0
 16 15  2  0  0  0  0
 17 18  2  0  0  0  0
 18 19  1  0  0  0  0
 19 23  1  0  0  0  0
 20 19  2  0  0  0  0
 21 15  1  0  0  0  0
 22 16  1  0  0  0  0
 24 25  1  0  0  0  0
 25 26  1  0  0  0  0
 26 27  2  0  0  0  0
 26 35  1  0  0  0  0
 27 28  1  0  0  0  0
 28 33  1  0  0  0  0
 28 29  1  0  0  0  0
 29 30  2  0  0  0  0
 29 31  1  0  0  0  0
 31 32  1  0  0  0  0
 33 34  1  1  0  0  0
 33 31  1  0  0  0  0
 35 34  1  0  0  0  0
 36 35  1  0  0  0  0
 37 27  1  0  0  0  0
 38 37  2  0  0  0  0
 39 37  1  0  0  0  0
 40 39  1  0  0  0  0
M  END
>  <minimizedAffinity>
-5.00416327

>  <minimizedRMSD>
6.0967679

$$$$
