
 OpenBabel03252503363D

 49 53  0  0  1  0  0  0  0  0999 V2000
   48.8010   30.3170   39.8060 C   0  0  0  0  0  0  0  0  0  0  0  0
   49.4400   31.4850   39.8530 C   0  0  0  0  0  0  0  0  0  0  0  0
   48.7130   32.6930   39.9940 N   0  0  0  0  0  0  0  0  0  0  0  0
   48.6070   34.0000   40.5230 C   0  0  0  0  0  0  0  0  0  0  0  0
   49.3690   34.7750   41.1790 O   0  0  0  0  0  0  0  0  0  0  0  0
   47.2490   34.2260   40.0570 C   0  0  1  0  0  0  0  0  0  0  0  0
   47.4200   32.8890   39.3710 C   0  0  2  0  0  0  0  0  0  0  0  0
   46.3460   31.5680   39.9380 S   0  0  0  0  0  0  0  0  0  0  0  0
   47.3310   30.0730   39.8890 C   0  0  0  0  0  0  0  0  0  0  0  0
   47.1410   35.0480   39.3120 H   0  0  0  0  0  0  0  0  0  0  0  0
   47.5100   32.9890   38.2670 H   0  0  0  0  0  0  0  0  0  0  0  0
   47.1640   29.4910   40.8190 H   0  0  0  0  0  0  0  0  0  0  0  0
   47.0020   29.4320   39.0470 H   0  0  0  0  0  0  0  0  0  0  0  0
   46.2710   34.2960   41.1320 C   0  0  0  0  0  0  0  0  0  0  0  0
   45.0460   34.0920   41.1890 O   0  0  0  0  0  0  0  0  0  0  0  0
   46.8470   34.6800   42.4000 N   0  0  0  0  0  0  0  0  0  0  0  0
   47.8140   34.9100   42.7210 H   0  0  0  0  0  0  0  0  0  0  0  0
   44.4340   35.9850   44.8990 C   0  0  0  0  0  0  0  0  0  0  0  0
   45.1830   35.8760   43.7280 C   0  0  0  0  0  0  0  0  0  0  0  0
   46.0500   34.8160   43.5630 C   0  0  0  0  0  0  0  0  0  0  0  0
   46.1480   33.9070   44.5460 N   0  0  0  0  0  0  0  0  0  0  0  0
   45.4120   34.0170   45.6920 C   0  0  0  0  0  0  0  0  0  0  0  0
   44.5710   35.0510   45.8470 N   0  0  0  0  0  0  0  0  0  0  0  0
   43.7480   36.8040   45.0540 H   0  0  0  0  0  0  0  0  0  0  0  0
   45.0740   36.6240   42.9670 H   0  0  0  0  0  0  0  0  0  0  0  0
   45.5590   33.2380   46.4260 H   0  0  0  0  0  0  0  0  0  0  0  0
   49.6710   29.1260   39.6510 C   0  0  0  0  0  0  0  0  0  0  0  0
   49.8070   28.6170   40.6480 H   0  0  0  0  0  0  0  0  0  0  0  0
   49.1200   28.3840   39.0150 H   0  0  0  0  0  0  0  0  0  0  0  0
   50.6530   29.3420   39.2310 H   0  0  0  0  0  0  0  0  0  0  0  0
   50.8860   31.5600   39.7600 C   0  0  0  0  0  0  0  0  0  0  0  0
   51.5050   31.6650   38.6790 O   0  0  0  0  0  0  0  0  0  0  0  0
   51.8920   31.5400   40.7090 O   0  0  0  0  0  0  0  0  0  0  0  0
   53.1470   30.9210   40.4730 C   0  0  0  0  0  2  0  0  0  0  0  0
   52.9820   29.4820   40.7720 C   0  0  0  0  0  0  0  0  0  0  0  0
   52.5450   28.9820   41.8920 C   0  0  0  0  0  0  0  0  0  0  0  0
   52.4540   27.5880   42.0130 N   0  0  0  0  0  0  0  0  0  0  0  0
   51.7430   26.4520   42.5490 C   0  0  0  0  0  0  0  0  0  0  0  0
   50.8280   26.2630   43.4200 O   0  0  0  0  0  0  0  0  0  0  0  0
   52.4550   25.4840   41.7130 C   0  0  0  0  0  3  0  0  0  0  0  0
   51.8150   25.1460   40.8670 H   0  0  0  0  0  0  0  0  0  0  0  0
   53.3710   26.6400   41.4240 C   0  0  1  0  0  3  0  0  0  0  0  0
   53.3640   26.9980   39.6320 S   0  0  0  0  0  0  0  0  0  0  0  0
   53.4150   28.7830   39.5550 C   0  0  0  0  0  3  0  0  0  0  0  0
   54.4640   29.0640   39.2420 H   0  0  0  0  0  0  0  0  0  0  0  0
   52.1500   29.8060   43.0300 C   0  0  0  0  0  0  0  0  0  0  0  0
   52.6590   30.2140   44.1010 O   0  0  0  0  0  0  0  0  0  0  0  0
   50.9140   30.3970   43.1610 O   0  0  0  0  0  0  0  0  0  0  0  0
   50.7400   31.3970   43.3480 H   0  0  0  0  0  0  0  0  0  0  0  0
  1  2  2  0  0  0  0
  1  9  1  0  0  0  0
  2  3  1  0  0  0  0
  3  4  1  0  0  0  0
  4  5  2  0  0  0  0
  6 10  1  6  0  0  0
  6  4  1  0  0  0  0
  6 14  1  0  0  0  0
  7 11  1  6  0  0  0
  7  8  1  0  0  0  0
  7  3  1  0  0  0  0
  7  6  1  0  0  0  0
  9  8  1  0  0  0  0
  9 12  1  0  0  0  0
 13  9  1  0  0  0  0
 14 15  2  0  0  0  0
 14 16  1  0  0  0  0
 16 17  1  0  0  0  0
 16 20  1  0  0  0  0
 18 24  1  0  0  0  0
 18 23  1  0  0  0  0
 19 18  2  0  0  0  0
 20 19  1  0  0  0  0
 20 21  2  0  0  0  0
 21 22  1  0  0  0  0
 22 23  2  0  0  0  0
 22 26  1  0  0  0  0
 25 19  1  0  0  0  0
 27  1  1  0  0  0  0
 27 28  1  0  0  0  0
 29 27  1  0  0  0  0
 30 27  1  0  0  0  0
 31  2  1  0  0  0  0
 31 33  1  0  0  0  0
 32 31  2  0  0  0  0
 34 33  1  0  0  0  0
 34 35  1  0  0  0  0
 35 36  2  0  0  0  0
 36 37  1  0  0  0  0
 36 46  1  0  0  0  0
 37 38  1  0  0  0  0
 38 39  2  0  0  0  0
 40 38  1  0  0  0  0
 41 40  1  0  0  0  0
 42 43  1  6  0  0  0
 42 40  1  0  0  0  0
 42 37  1  0  0  0  0
 44 43  1  0  0  0  0
 44 35  1  0  0  0  0
 45 44  1  0  0  0  0
 46 48  1  0  0  0  0
 46 47  2  0  0  0  0
 48 49  1  0  0  0  0
M  END
>  <minimizedAffinity>
-4.50350952

>  <minimizedRMSD>
2.20946527

$$$$
