
 OpenBabel03242517433D

 26 28  0  0  1  0  0  0  0  0999 V2000
   38.8170   30.8650   41.5790 C   0  0  0  0  0  0  0  0  0  0  0  0
   37.8180   30.0000   41.6190 C   0  0  0  0  0  0  0  0  0  0  0  0
   38.0260   28.7420   42.2570 N   0  0  0  0  0  0  0  0  0  0  0  0
   37.5180   27.7890   43.1850 C   0  0  0  0  0  0  0  0  0  0  0  0
   36.3840   27.4670   43.6800 O   0  0  0  0  0  0  0  0  0  0  0  0
   38.8970   27.2710   43.3790 C   0  0  0  0  0  3  0  0  0  0  0  0
   39.3640   27.7660   44.2470 H   0  0  0  0  0  0  0  0  0  0  0  0
   39.1700   27.8590   42.0270 C   0  0  2  0  0  3  0  0  0  0  0  0
   40.6460   28.8600   41.8820 S   0  0  0  0  0  0  0  0  0  0  0  0
   40.1250   30.5950   42.1880 C   0  0  0  0  0  3  0  0  0  0  0  0
   40.9030   31.2780   41.8210 H   0  0  0  0  0  0  0  0  0  0  0  0
   36.4880   30.2510   41.0220 C   0  0  0  0  0  0  0  0  0  0  0  0
   35.7640   29.8430   40.0830 O   0  0  0  0  0  0  0  0  0  0  0  0
   35.5580   31.1520   41.4160 O   0  0  0  0  0  0  0  0  0  0  0  0
   35.2250   31.9780   40.9020 H   0  0  0  0  0  0  0  0  0  0  0  0
   38.7410   32.1870   40.9380 C   0  0  0  0  0  2  0  0  0  0  0  0
   38.8260   32.0650   39.1240 S   0  0  0  0  0  0  0  0  0  0  0  0
   41.0780   33.6500   39.4050 C   0  0  0  0  0  0  0  0  0  0  0  0
   40.4110   32.7170   38.5970 C   0  0  0  0  0  0  0  0  0  0  0  0
   40.9920   32.3150   37.4030 C   0  0  0  0  0  0  0  0  0  0  0  0
   42.1940   32.8550   37.0720 N   0  0  0  0  0  0  0  0  0  0  0  0
   42.8190   33.7480   37.8590 C   0  0  0  0  0  0  0  0  0  0  0  0
   42.2860   34.1590   39.0210 N   0  0  0  0  0  0  0  0  0  0  0  0
   40.6180   33.9540   40.3290 H   0  0  0  0  0  0  0  0  0  0  0  0
   40.5160   31.6100   36.7650 H   0  0  0  0  0  0  0  0  0  0  0  0
   43.7830   34.1340   37.5230 H   0  0  0  0  0  0  0  0  0  0  0  0
  1  2  2  0  0  0  0
  1 10  1  0  0  0  0
  2  3  1  0  0  0  0
  3  4  1  0  0  0  0
  4  6  1  0  0  0  0
  4  5  2  0  0  0  0
  6  7  1  0  0  0  0
  8  9  1  1  0  0  0
  8  3  1  0  0  0  0
  8  6  1  0  0  0  0
  9 10  1  0  0  0  0
 11 10  1  0  0  0  0
 12 14  1  0  0  0  0
 12  2  1  0  0  0  0
 13 12  2  0  0  0  0
 15 14  1  0  0  0  0
 16  1  1  0  0  0  0
 17 16  1  0  0  0  0
 18 24  1  0  0  0  0
 19 17  1  0  0  0  0
 19 18  2  0  0  0  0
 20 19  1  0  0  0  0
 21 20  2  0  0  0  0
 21 22  1  0  0  0  0
 22 23  2  0  0  0  0
 23 18  1  0  0  0  0
 25 20  1  0  0  0  0
 26 22  1  0  0  0  0
M  END
>  <minimizedAffinity>
-5.25001335

$$$$

 OpenBabel03242517433D

 26 28  0  0  1  0  0  0  0  0999 V2000
   38.6180   29.4170   42.3500 C   0  0  0  0  0  0  0  0  0  0  0  0
   37.9630   30.0990   41.4270 C   0  0  0  0  0  0  0  0  0  0  0  0
   38.6990   30.9560   40.5570 N   0  0  0  0  0  0  0  0  0  0  0  0
   38.9270   31.3590   39.2110 C   0  0  0  0  0  0  0  0  0  0  0  0
   38.2910   31.3470   38.1020 O   0  0  0  0  0  0  0  0  0  0  0  0
   40.2780   31.8360   39.6030 C   0  0  0  0  0  3  0  0  0  0  0  0
   41.0230   31.0430   39.4190 H   0  0  0  0  0  0  0  0  0  0  0  0
   39.7050   31.9300   40.9840 C   0  0  2  0  0  3  0  0  0  0  0  0
   40.6800   31.2050   42.2980 S   0  0  0  0  0  0  0  0  0  0  0  0
   40.0770   29.4820   42.5000 C   0  0  0  0  0  3  0  0  0  0  0  0
   40.4130   29.0900   43.4690 H   0  0  0  0  0  0  0  0  0  0  0  0
   36.4950   30.0430   41.2500 C   0  0  0  0  0  0  0  0  0  0  0  0
   35.5970   29.2290   40.9270 O   0  0  0  0  0  0  0  0  0  0  0  0
   35.5990   31.0430   41.4230 O   0  0  0  0  0  0  0  0  0  0  0  0
   35.0150   31.4950   40.7080 H   0  0  0  0  0  0  0  0  0  0  0  0
   37.9790   28.5130   43.3200 C   0  0  0  0  0  2  0  0  0  0  0  0
   38.9460   26.9920   43.5660 S   0  0  0  0  0  0  0  0  0  0  0  0
   37.2550   26.0580   41.5840 C   0  0  0  0  0  0  0  0  0  0  0  0
   38.3570   25.7630   42.3990 C   0  0  0  0  0  0  0  0  0  0  0  0
   38.9730   24.5260   42.2870 C   0  0  0  0  0  0  0  0  0  0  0  0
   38.4690   23.6490   41.3800 N   0  0  0  0  0  0  0  0  0  0  0  0
   37.4110   23.9490   40.6070 C   0  0  0  0  0  0  0  0  0  0  0  0
   36.7910   25.1370   40.6890 N   0  0  0  0  0  0  0  0  0  0  0  0
   36.7850   27.0220   41.6800 H   0  0  0  0  0  0  0  0  0  0  0  0
   39.8110   24.2680   42.8880 H   0  0  0  0  0  0  0  0  0  0  0  0
   37.0670   23.1890   39.9020 H   0  0  0  0  0  0  0  0  0  0  0  0
  1 10  1  0  0  0  0
  1 16  1  0  0  0  0
  2  1  2  0  0  0  0
  3  8  1  0  0  0  0
  3  2  1  0  0  0  0
  4  6  1  0  0  0  0
  4  3  1  0  0  0  0
  5  4  2  0  0  0  0
  7  6  1  0  0  0  0
  8  6  1  6  0  0  0
  8  9  1  0  0  0  0
  9 10  1  0  0  0  0
 10 11  1  0  0  0  0
 12 14  1  0  0  0  0
 12  2  1  0  0  0  0
 13 12  2  0  0  0  0
 15 14  1  0  0  0  0
 16 17  1  0  0  0  0
 18 24  1  0  0  0  0
 18 19  1  0  0  0  0
 19 17  1  0  0  0  0
 20 19  2  0  0  0  0
 20 25  1  0  0  0  0
 21 20  1  0  0  0  0
 22 23  1  0  0  0  0
 22 21  2  0  0  0  0
 23 18  2  0  0  0  0
 26 22  1  0  0  0  0
M  END
>  <minimizedAffinity>
-5.04529953

$$$$

 OpenBabel03242517433D

 26 28  0  0  1  0  0  0  0  0999 V2000
   37.4280   28.2350   39.1400 C   0  0  0  0  0  0  0  0  0  0  0  0
   36.6020   28.2130   40.1730 C   0  0  0  0  0  0  0  0  0  0  0  0
   36.8140   27.2470   41.1990 N   0  0  0  0  0  0  0  0  0  0  0  0
   36.9140   27.0130   42.6000 C   0  0  0  0  0  0  0  0  0  0  0  0
   36.5150   27.5690   43.6790 O   0  0  0  0  0  0  0  0  0  0  0  0
   37.7130   25.7920   42.3210 C   0  0  0  0  0  3  0  0  0  0  0  0
   38.7880   26.0330   42.3530 H   0  0  0  0  0  0  0  0  0  0  0  0
   37.0460   25.8180   40.9780 C   0  0  2  0  0  3  0  0  0  0  0  0
   38.1170   25.6260   39.5580 S   0  0  0  0  0  0  0  0  0  0  0  0
   38.5720   27.3220   39.0200 C   0  0  0  0  0  3  0  0  0  0  0  0
   38.9680   27.2860   37.9960 H   0  0  0  0  0  0  0  0  0  0  0  0
   35.4490   29.1270   40.3220 C   0  0  0  0  0  0  0  0  0  0  0  0
   34.2630   29.2470   39.9360 O   0  0  0  0  0  0  0  0  0  0  0  0
   35.3840   30.2690   41.0460 O   0  0  0  0  0  0  0  0  0  0  0  0
   35.2690   31.2290   40.6970 H   0  0  0  0  0  0  0  0  0  0  0  0
   37.3120   29.1670   38.0080 C   0  0  0  0  0  2  0  0  0  0  0  0
   38.8070   30.1870   37.8160 S   0  0  0  0  0  0  0  0  0  0  0  0
   39.6510   32.3660   39.2980 C   0  0  0  0  0  0  0  0  0  0  0  0
   38.5530   31.7190   38.7130 C   0  0  0  0  0  0  0  0  0  0  0  0
   37.2900   32.2780   38.8380 C   0  0  0  0  0  0  0  0  0  0  0  0
   37.1790   33.4410   39.5330 N   0  0  0  0  0  0  0  0  0  0  0  0
   38.2430   34.0460   40.0870 C   0  0  0  0  0  0  0  0  0  0  0  0
   39.4800   33.5340   39.9860 N   0  0  0  0  0  0  0  0  0  0  0  0
   40.6260   31.9230   39.1950 H   0  0  0  0  0  0  0  0  0  0  0  0
   36.4350   31.8160   38.4070 H   0  0  0  0  0  0  0  0  0  0  0  0
   38.0700   34.9790   40.6290 H   0  0  0  0  0  0  0  0  0  0  0  0
  1  2  2  0  0  0  0
  2 12  1  0  0  0  0
  2  3  1  0  0  0  0
  3  4  1  0  0  0  0
  4  5  2  0  0  0  0
  6  7  1  0  0  0  0
  6  4  1  0  0  0  0
  8  9  1  6  0  0  0
  8  3  1  0  0  0  0
  8  6  1  0  0  0  0
 10  1  1  0  0  0  0
 10  9  1  0  0  0  0
 11 10  1  0  0  0  0
 12 14  1  0  0  0  0
 13 12  2  0  0  0  0
 15 14  1  0  0  0  0
 16  1  1  0  0  0  0
 17 16  1  0  0  0  0
 17 19  1  0  0  0  0
 18 23  1  0  0  0  0
 19 20  1  0  0  0  0
 19 18  2  0  0  0  0
 20 21  2  0  0  0  0
 21 22  1  0  0  0  0
 22 26  1  0  0  0  0
 23 22  2  0  0  0  0
 24 18  1  0  0  0  0
 25 20  1  0  0  0  0
M  END
>  <minimizedAffinity>
-4.99009085

$$$$

 OpenBabel03242517433D

 26 28  0  0  1  0  0  0  0  0999 V2000
   36.6780   28.0870   40.3970 C   0  0  0  0  0  0  0  0  0  0  0  0
   37.1510   29.0380   41.1840 C   0  0  0  0  0  0  0  0  0  0  0  0
   38.0920   28.6860   42.1950 N   0  0  0  0  0  0  0  0  0  0  0  0
   39.3380   28.9960   42.8110 C   0  0  0  0  0  0  0  0  0  0  0  0
   40.0970   30.0160   42.9400 O   0  0  0  0  0  0  0  0  0  0  0  0
   39.4340   27.5900   43.2800 C   0  0  0  0  0  3  0  0  0  0  0  0
   40.0170   26.9930   42.5590 H   0  0  0  0  0  0  0  0  0  0  0  0
   37.9420   27.5730   43.1350 C   0  0  2  0  0  3  0  0  0  0  0  0
   37.2460   26.1760   42.2620 S   0  0  0  0  0  0  0  0  0  0  0  0
   37.1020   26.6850   40.5030 C   0  0  0  0  0  3  0  0  0  0  0  0
   36.4150   26.0040   39.9820 H   0  0  0  0  0  0  0  0  0  0  0  0
   36.7480   30.4590   41.0910 C   0  0  0  0  0  0  0  0  0  0  0  0
   37.2120   31.5670   40.7310 O   0  0  0  0  0  0  0  0  0  0  0  0
   35.5610   31.0090   41.4380 O   0  0  0  0  0  0  0  0  0  0  0  0
   35.3760   31.6810   42.1940 H   0  0  0  0  0  0  0  0  0  0  0  0
   35.6920   28.3120   39.3280 C   0  0  0  0  0  2  0  0  0  0  0  0
   36.4660   28.3010   37.6810 S   0  0  0  0  0  0  0  0  0  0  0  0
   39.0490   29.2690   37.9130 C   0  0  0  0  0  0  0  0  0  0  0  0
   37.7110   29.5920   37.6430 C   0  0  0  0  0  0  0  0  0  0  0  0
   37.3750   30.9050   37.3500 C   0  0  0  0  0  0  0  0  0  0  0  0
   38.3740   31.8270   37.3400 N   0  0  0  0  0  0  0  0  0  0  0  0
   39.6510   31.4990   37.6010 C   0  0  0  0  0  0  0  0  0  0  0  0
   40.0120   30.2380   37.8890 N   0  0  0  0  0  0  0  0  0  0  0  0
   39.2970   28.2470   38.1380 H   0  0  0  0  0  0  0  0  0  0  0  0
   36.3710   31.1870   37.1400 H   0  0  0  0  0  0  0  0  0  0  0  0
   40.3960   32.2970   37.5730 H   0  0  0  0  0  0  0  0  0  0  0  0
  1 10  1  0  0  0  0
  1  2  2  0  0  0  0
  2  3  1  0  0  0  0
  3  4  1  0  0  0  0
  3  8  1  0  0  0  0
  4  5  2  0  0  0  0
  4  6  1  0  0  0  0
  7  6  1  0  0  0  0
  8  9  1  6  0  0  0
  8  6  1  0  0  0  0
 10  9  1  0  0  0  0
 11 10  1  0  0  0  0
 12  2  1  0  0  0  0
 12 14  1  0  0  0  0
 13 12  2  0  0  0  0
 14 15  1  0  0  0  0
 16  1  1  0  0  0  0
 17 16  1  0  0  0  0
 18 24  1  0  0  0  0
 19 17  1  0  0  0  0
 19 18  2  0  0  0  0
 20 19  1  0  0  0  0
 21 20  2  0  0  0  0
 21 22  1  0  0  0  0
 22 23  2  0  0  0  0
 23 18  1  0  0  0  0
 25 20  1  0  0  0  0
 26 22  1  0  0  0  0
M  END
>  <minimizedAffinity>
-4.85396433

$$$$

 OpenBabel03242517433D

 26 28  0  0  1  0  0  0  0  0999 V2000
   37.8640   29.8730   42.0040 C   0  0  0  0  0  0  0  0  0  0  0  0
   38.7800   30.7520   41.6340 C   0  0  0  0  0  0  0  0  0  0  0  0
   38.4250   31.7530   40.6830 N   0  0  0  0  0  0  0  0  0  0  0  0
   38.4590   33.1380   40.3560 C   0  0  0  0  0  0  0  0  0  0  0  0
   39.1630   34.1610   40.6590 O   0  0  0  0  0  0  0  0  0  0  0  0
   37.2860   32.9370   39.4670 C   0  0  0  0  0  3  0  0  0  0  0  0
   36.3570   33.1590   40.0170 H   0  0  0  0  0  0  0  0  0  0  0  0
   37.7280   31.5060   39.4200 C   0  0  2  0  0  3  0  0  0  0  0  0
   36.4590   30.2750   39.6980 S   0  0  0  0  0  0  0  0  0  0  0  0
   36.4870   29.9010   41.4960 C   0  0  0  0  0  3  0  0  0  0  0  0
   35.9580   28.9560   41.6800 H   0  0  0  0  0  0  0  0  0  0  0  0
   40.1710   30.7520   42.1390 C   0  0  0  0  0  0  0  0  0  0  0  0
   41.2570   30.1510   41.9600 O   0  0  0  0  0  0  0  0  0  0  0  0
   40.7080   31.5460   43.0940 O   0  0  0  0  0  0  0  0  0  0  0  0
   41.0620   31.2670   44.0180 H   0  0  0  0  0  0  0  0  0  0  0  0
   38.1040   28.7830   42.9630 C   0  0  0  0  0  2  0  0  0  0  0  0
   36.8530   27.4690   42.8180 S   0  0  0  0  0  0  0  0  0  0  0  0
   36.9860   24.8000   42.0990 C   0  0  0  0  0  0  0  0  0  0  0  0
   37.6260   26.0470   42.0460 C   0  0  0  0  0  0  0  0  0  0  0  0
   38.8460   26.1570   41.3950 C   0  0  0  0  0  0  0  0  0  0  0  0
   39.3680   25.0350   40.8350 N   0  0  0  0  0  0  0  0  0  0  0  0
   38.7400   23.8470   40.8960 C   0  0  0  0  0  0  0  0  0  0  0  0
   37.5590   23.7040   41.5180 N   0  0  0  0  0  0  0  0  0  0  0  0
   36.0410   24.7260   42.6070 H   0  0  0  0  0  0  0  0  0  0  0  0
   39.3590   27.0870   41.3350 H   0  0  0  0  0  0  0  0  0  0  0  0
   39.2250   22.9930   40.4210 H   0  0  0  0  0  0  0  0  0  0  0  0
  1 16  1  0  0  0  0
  2  1  2  0  0  0  0
  2 12  1  0  0  0  0
  3  2  1  0  0  0  0
  4  5  2  0  0  0  0
  4  3  1  0  0  0  0
  6  7  1  0  0  0  0
  6  4  1  0  0  0  0
  8  6  1  1  0  0  0
  8  9  1  0  0  0  0
  8  3  1  0  0  0  0
  9 10  1  0  0  0  0
 10 11  1  0  0  0  0
 10  1  1  0  0  0  0
 12 14  1  0  0  0  0
 13 12  2  0  0  0  0
 14 15  1  0  0  0  0
 17 16  1  0  0  0  0
 18 24  1  0  0  0  0
 19 18  1  0  0  0  0
 19 17  1  0  0  0  0
 20 19  2  0  0  0  0
 21 22  2  0  0  0  0
 21 20  1  0  0  0  0
 22 23  1  0  0  0  0
 23 18  2  0  0  0  0
 25 20  1  0  0  0  0
 26 22  1  0  0  0  0
M  END
>  <minimizedAffinity>
-4.81798077

$$$$

 OpenBabel03242517433D

 26 28  0  0  1  0  0  0  0  0999 V2000
   36.8580   27.0100   40.5910 C   0  0  0  0  0  0  0  0  0  0  0  0
   37.4140   27.0390   41.7900 C   0  0  0  0  0  0  0  0  0  0  0  0
   38.1080   25.8820   42.2510 N   0  0  0  0  0  0  0  0  0  0  0  0
   39.2950   25.3780   42.8540 C   0  0  0  0  0  0  0  0  0  0  0  0
   40.2330   25.8190   43.6020 O   0  0  0  0  0  0  0  0  0  0  0  0
   39.0190   24.0520   42.2440 C   0  0  0  0  0  3  0  0  0  0  0  0
   39.5510   23.9630   41.2830 H   0  0  0  0  0  0  0  0  0  0  0  0
   37.5930   24.5130   42.1980 C   0  0  2  0  0  3  0  0  0  0  0  0
   36.7370   24.2830   40.6440 S   0  0  0  0  0  0  0  0  0  0  0  0
   36.9480   25.8460   39.7020 C   0  0  0  0  0  3  0  0  0  0  0  0
   36.2080   25.8850   38.8900 H   0  0  0  0  0  0  0  0  0  0  0  0
   37.3460   28.2030   42.7010 C   0  0  0  0  0  0  0  0  0  0  0  0
   37.9550   29.2720   42.9400 O   0  0  0  0  0  0  0  0  0  0  0  0
   36.4410   28.4390   43.6790 O   0  0  0  0  0  0  0  0  0  0  0  0
   36.6070   28.4790   44.6930 H   0  0  0  0  0  0  0  0  0  0  0  0
   36.1000   28.1270   40.0040 C   0  0  0  0  0  2  0  0  0  0  0  0
   37.0800   29.0310   38.7650 S   0  0  0  0  0  0  0  0  0  0  0  0
   37.0800   31.5330   39.9500 C   0  0  0  0  0  0  0  0  0  0  0  0
   37.8580   30.4250   39.5810 C   0  0  0  0  0  0  0  0  0  0  0  0
   39.2170   30.4290   39.8580 C   0  0  0  0  0  0  0  0  0  0  0  0
   39.7340   31.5220   40.4780 N   0  0  0  0  0  0  0  0  0  0  0  0
   38.9720   32.5740   40.8240 C   0  0  0  0  0  0  0  0  0  0  0  0
   37.6530   32.6050   40.5720 N   0  0  0  0  0  0  0  0  0  0  0  0
   36.0270   31.5180   39.7310 H   0  0  0  0  0  0  0  0  0  0  0  0
   39.8380   29.6070   39.5930 H   0  0  0  0  0  0  0  0  0  0  0  0
   39.4630   33.4140   41.3200 H   0  0  0  0  0  0  0  0  0  0  0  0
  1  2  2  0  0  0  0
  2  3  1  0  0  0  0
  2 12  1  0  0  0  0
  3  4  1  0  0  0  0
  4  5  2  0  0  0  0
  6  4  1  0  0  0  0
  7  6  1  0  0  0  0
  8  9  1  6  0  0  0
  8  6  1  0  0  0  0
  8  3  1  0  0  0  0
 10  1  1  0  0  0  0
 10  9  1  0  0  0  0
 11 10  1  0  0  0  0
 12 13  2  0  0  0  0
 12 14  1  0  0  0  0
 14 15  1  0  0  0  0
 16  1  1  0  0  0  0
 17 19  1  0  0  0  0
 17 16  1  0  0  0  0
 18 23  1  0  0  0  0
 19 20  1  0  0  0  0
 19 18  2  0  0  0  0
 20 21  2  0  0  0  0
 21 22  1  0  0  0  0
 22 26  1  0  0  0  0
 23 22  2  0  0  0  0
 24 18  1  0  0  0  0
 25 20  1  0  0  0  0
M  END
>  <minimizedAffinity>
-4.66295815

$$$$

 OpenBabel03242517433D

 26 28  0  0  1  0  0  0  0  0999 V2000
   39.1790   26.4500   40.9400 C   0  0  0  0  0  0  0  0  0  0  0  0
   39.0570   25.2270   41.4280 C   0  0  0  0  0  0  0  0  0  0  0  0
   38.1260   24.3360   40.8190 N   0  0  0  0  0  0  0  0  0  0  0  0
   37.9090   23.0300   40.2970 C   0  0  0  0  0  0  0  0  0  0  0  0
   38.4130   21.8630   40.4360 O   0  0  0  0  0  0  0  0  0  0  0  0
   36.7960   23.5650   39.4710 C   0  0  0  0  0  3  0  0  0  0  0  0
   37.1680   23.8300   38.4680 H   0  0  0  0  0  0  0  0  0  0  0  0
   36.7370   24.6620   40.4910 C   0  0  2  0  0  3  0  0  0  0  0  0
   36.6770   26.3330   39.8550 S   0  0  0  0  0  0  0  0  0  0  0  0
   38.4150   26.9200   39.7770 C   0  0  0  0  0  3  0  0  0  0  0  0
   38.4270   28.0150   39.6890 H   0  0  0  0  0  0  0  0  0  0  0  0
   39.8220   24.7270   42.5910 C   0  0  0  0  0  0  0  0  0  0  0  0
   40.8210   25.0290   43.2860 O   0  0  0  0  0  0  0  0  0  0  0  0
   39.5850   23.6130   43.3230 O   0  0  0  0  0  0  0  0  0  0  0  0
   40.1740   22.7730   43.3990 H   0  0  0  0  0  0  0  0  0  0  0  0
   40.0880   27.4710   41.4840 C   0  0  0  0  0  2  0  0  0  0  0  0
   39.2640   28.5160   42.7260 S   0  0  0  0  0  0  0  0  0  0  0  0
   37.0210   29.8110   41.7510 C   0  0  0  0  0  0  0  0  0  0  0  0
   38.4180   29.8420   41.8650 C   0  0  0  0  0  0  0  0  0  0  0  0
   39.1210   30.9010   41.3090 C   0  0  0  0  0  0  0  0  0  0  0  0
   38.4090   31.8680   40.6730 N   0  0  0  0  0  0  0  0  0  0  0  0
   37.0690   31.8200   40.5740 C   0  0  0  0  0  0  0  0  0  0  0  0
   36.3570   30.8110   41.0990 N   0  0  0  0  0  0  0  0  0  0  0  0
   36.4870   28.9840   42.1860 H   0  0  0  0  0  0  0  0  0  0  0  0
   40.1810   30.9580   41.3760 H   0  0  0  0  0  0  0  0  0  0  0  0
   36.5710   32.6370   40.0470 H   0  0  0  0  0  0  0  0  0  0  0  0
  1  2  2  0  0  0  0
  1 16  1  0  0  0  0
  2 12  1  0  0  0  0
  3  2  1  0  0  0  0
  4  5  2  0  0  0  0
  4  3  1  0  0  0  0
  6  4  1  0  0  0  0
  7  6  1  0  0  0  0
  8  6  1  6  0  0  0
  8  3  1  0  0  0  0
  9  8  1  0  0  0  0
 10  9  1  0  0  0  0
 10  1  1  0  0  0  0
 11 10  1  0  0  0  0
 12 13  2  0  0  0  0
 12 14  1  0  0  0  0
 14 15  1  0  0  0  0
 16 17  1  0  0  0  0
 18 19  1  0  0  0  0
 18 24  1  0  0  0  0
 19 17  1  0  0  0  0
 20 25  1  0  0  0  0
 20 19  2  0  0  0  0
 21 20  1  0  0  0  0
 22 21  2  0  0  0  0
 22 23  1  0  0  0  0
 23 18  2  0  0  0  0
 26 22  1  0  0  0  0
M  END
>  <minimizedAffinity>
-4.53147078

$$$$

 OpenBabel03242517433D

 26 28  0  0  1  0  0  0  0  0999 V2000
   37.1220   29.1430   38.9190 C   0  0  0  0  0  0  0  0  0  0  0  0
   37.4050   30.1410   39.7390 C   0  0  0  0  0  0  0  0  0  0  0  0
   38.3900   31.0930   39.3450 N   0  0  0  0  0  0  0  0  0  0  0  0
   38.7170   32.4730   39.2210 C   0  0  0  0  0  0  0  0  0  0  0  0
   38.3510   33.5790   39.7470 O   0  0  0  0  0  0  0  0  0  0  0  0
   39.7140   32.1240   38.1770 C   0  0  0  0  0  3  0  0  0  0  0  0
   39.2570   32.2130   37.1780 H   0  0  0  0  0  0  0  0  0  0  0  0
   39.7140   30.7660   38.8110 C   0  0  2  0  0  3  0  0  0  0  0  0
   39.5550   29.3730   37.7000 S   0  0  0  0  0  0  0  0  0  0  0  0
   37.7610   28.9890   37.6060 C   0  0  0  0  0  3  0  0  0  0  0  0
   37.6260   27.9790   37.1950 H   0  0  0  0  0  0  0  0  0  0  0  0
   36.7690   30.3230   41.0620 C   0  0  0  0  0  0  0  0  0  0  0  0
   36.9310   29.9890   42.2590 O   0  0  0  0  0  0  0  0  0  0  0  0
   35.6500   31.0250   41.3550 O   0  0  0  0  0  0  0  0  0  0  0  0
   34.7510   30.6620   41.6980 H   0  0  0  0  0  0  0  0  0  0  0  0
   36.1420   28.0850   39.2110 C   0  0  0  0  0  2  0  0  0  0  0  0
   36.9510   26.5090   39.6240 S   0  0  0  0  0  0  0  0  0  0  0  0
   39.3220   27.1070   40.9210 C   0  0  0  0  0  0  0  0  0  0  0  0
   37.9690   26.7700   41.0780 C   0  0  0  0  0  0  0  0  0  0  0  0
   37.4430   26.6460   42.3550 C   0  0  0  0  0  0  0  0  0  0  0  0
   38.2780   26.8600   43.4060 N   0  0  0  0  0  0  0  0  0  0  0  0
   39.5720   27.1820   43.2370 C   0  0  0  0  0  0  0  0  0  0  0  0
   40.1140   27.3110   42.0150 N   0  0  0  0  0  0  0  0  0  0  0  0
   39.7180   27.2000   39.9260 H   0  0  0  0  0  0  0  0  0  0  0  0
   36.4230   26.3920   42.5110 H   0  0  0  0  0  0  0  0  0  0  0  0
   40.1770   27.3390   44.1320 H   0  0  0  0  0  0  0  0  0  0  0  0
  1 16  1  0  0  0  0
  1  2  2  0  0  0  0
  2 12  1  0  0  0  0
  3  2  1  0  0  0  0
  4  3  1  0  0  0  0
  4  5  2  0  0  0  0
  6  8  1  0  0  0  0
  6  4  1  0  0  0  0
  7  6  1  0  0  0  0
  8  9  1  6  0  0  0
  8  3  1  0  0  0  0
 10  9  1  0  0  0  0
 10  1  1  0  0  0  0
 11 10  1  0  0  0  0
 12 14  1  0  0  0  0
 12 13  2  0  0  0  0
 14 15  1  0  0  0  0
 16 17  1  0  0  0  0
 17 19  1  0  0  0  0
 18 19  2  0  0  0  0
 18 23  1  0  0  0  0
 19 20  1  0  0  0  0
 20 25  1  0  0  0  0
 20 21  2  0  0  0  0
 22 21  1  0  0  0  0
 22 26  1  0  0  0  0
 23 22  2  0  0  0  0
 24 18  1  0  0  0  0
M  END
>  <minimizedAffinity>
-4.49746227

$$$$

 OpenBabel03242517433D

 26 28  0  0  1  0  0  0  0  0999 V2000
   37.0040   28.0430   41.5940 C   0  0  0  0  0  0  0  0  0  0  0  0
   36.5470   28.8480   40.6500 C   0  0  0  0  0  0  0  0  0  0  0  0
   36.1060   28.2790   39.4200 N   0  0  0  0  0  0  0  0  0  0  0  0
   35.0770   28.2420   38.4360 C   0  0  0  0  0  0  0  0  0  0  0  0
   34.1380   29.0050   38.0250 O   0  0  0  0  0  0  0  0  0  0  0  0
   35.5350   26.8870   38.0360 C   0  0  0  0  0  3  0  0  0  0  0  0
   34.9540   26.1200   38.5740 H   0  0  0  0  0  0  0  0  0  0  0  0
   36.8490   27.2940   38.6320 C   0  0  2  0  0  3  0  0  0  0  0  0
   37.6090   26.1220   39.7510 S   0  0  0  0  0  0  0  0  0  0  0  0
   37.0510   26.5840   41.4390 C   0  0  0  0  0  3  0  0  0  0  0  0
   37.7070   26.1090   42.1810 H   0  0  0  0  0  0  0  0  0  0  0  0
   36.4790   30.3190   40.7860 C   0  0  0  0  0  0  0  0  0  0  0  0
   37.0980   31.3470   40.4200 O   0  0  0  0  0  0  0  0  0  0  0  0
   35.5640   31.0490   41.4650 O   0  0  0  0  0  0  0  0  0  0  0  0
   35.7170   31.6300   42.2990 H   0  0  0  0  0  0  0  0  0  0  0  0
   37.5040   28.5000   42.9000 C   0  0  0  0  0  2  0  0  0  0  0  0
   38.5950   27.2680   43.6760 S   0  0  0  0  0  0  0  0  0  0  0  0
   40.5570   28.8950   42.5970 C   0  0  0  0  0  0  0  0  0  0  0  0
   40.2920   27.7080   43.2950 C   0  0  0  0  0  0  0  0  0  0  0  0
   41.3480   26.8960   43.6800 C   0  0  0  0  0  0  0  0  0  0  0  0
   42.6050   27.2980   43.3540 N   0  0  0  0  0  0  0  0  0  0  0  0
   42.8400   28.4390   42.6850 C   0  0  0  0  0  0  0  0  0  0  0  0
   41.8410   29.2490   42.2970 N   0  0  0  0  0  0  0  0  0  0  0  0
   39.7290   29.5170   42.3040 H   0  0  0  0  0  0  0  0  0  0  0  0
   41.1850   25.9890   44.2100 H   0  0  0  0  0  0  0  0  0  0  0  0
   43.8790   28.6920   42.4620 H   0  0  0  0  0  0  0  0  0  0  0  0
  1 16  1  0  0  0  0
  2 12  1  0  0  0  0
  2  1  2  0  0  0  0
  3  2  1  0  0  0  0
  4  3  1  0  0  0  0
  5  4  2  0  0  0  0
  6  4  1  0  0  0  0
  6  7  1  0  0  0  0
  8  6  1  6  0  0  0
  8  3  1  0  0  0  0
  8  9  1  0  0  0  0
  9 10  1  0  0  0  0
 10  1  1  0  0  0  0
 10 11  1  0  0  0  0
 12 14  1  0  0  0  0
 13 12  2  0  0  0  0
 14 15  1  0  0  0  0
 16 17  1  0  0  0  0
 18 19  1  0  0  0  0
 19 17  1  0  0  0  0
 19 20  2  0  0  0  0
 20 25  1  0  0  0  0
 21 20  1  0  0  0  0
 22 21  2  0  0  0  0
 23 18  2  0  0  0  0
 23 22  1  0  0  0  0
 24 18  1  0  0  0  0
 26 22  1  0  0  0  0
M  END
>  <minimizedAffinity>
-4.43878746

$$$$
