
 OpenBabel03242511163D

 26 28  0  0  1  0  0  0  0  0999 V2000
   48.2590   32.6200   40.4790 C   0  0  0  0  0  0  0  0  0  0  0  0
   49.4810   32.3090   40.1660 C   0  0  0  0  0  0  0  0  0  0  0  0
   49.8180   31.9140   38.8580 N   0  0  0  0  0  0  0  0  0  0  0  0
   50.5180   30.9710   38.0170 C   0  0  0  0  0  0  0  0  0  0  0  0
   51.5410   30.2350   38.1490 O   0  0  0  0  0  0  0  0  0  0  0  0
   49.4730   31.3000   36.9830 C   0  0  0  0  0  0  0  0  0  0  0  0
   49.9720   31.3070   36.0060 H   0  0  0  0  0  0  0  0  0  0  0  0
   49.3580   32.6450   37.6630 C   0  0  1  0  0  0  0  0  0  0  0  0
   47.6970   33.2610   37.9510 S   0  0  0  0  0  0  0  0  0  0  0  0
   47.1200   32.5810   39.5280 C   0  0  0  0  0  0  0  0  0  0  0  0
   46.2700   33.1970   39.8590 H   0  0  0  0  0  0  0  0  0  0  0  0
   50.5280   32.3730   41.1860 C   0  0  0  0  0  0  0  0  0  0  0  0
   51.7320   32.0000   41.0220 O   0  0  0  0  0  0  0  0  0  0  0  0
   51.2630   32.5570   42.3170 O   0  0  0  0  0  0  0  0  0  0  0  0
   50.9140   32.4700   43.2830 H   0  0  0  0  0  0  0  0  0  0  0  0
   47.9320   33.0320   41.8390 C   0  0  0  0  0  0  0  0  0  0  0  0
   47.1040   34.6690   41.8290 S   0  0  0  0  0  0  0  0  0  0  0  0
   44.5120   35.9090   44.6920 C   0  0  0  0  0  0  0  0  0  0  0  0
   45.2420   35.8510   43.4730 C   0  0  0  0  0  0  0  0  0  0  0  0
   46.1660   34.7860   43.3360 C   0  0  0  0  0  0  0  0  0  0  0  0
   46.2980   33.9080   44.3520 N   0  0  0  0  0  0  0  0  0  0  0  0
   45.5880   34.0010   45.4850 C   0  0  0  0  0  0  0  0  0  0  0  0
   44.6970   34.9970   45.6600 N   0  0  0  0  0  0  0  0  0  0  0  0
   43.7870   36.6800   44.8890 H   0  0  0  0  0  0  0  0  0  0  0  0
   45.0700   36.5930   42.7230 H   0  0  0  0  0  0  0  0  0  0  0  0
   45.8270   33.2060   46.1900 H   0  0  0  0  0  0  0  0  0  0  0  0
  1 16  1  0  0  0  0
  2  1  2  0  0  0  0
  2 12  1  0  0  0  0
  3  2  1  0  0  0  0
  4  5  2  0  0  0  0
  4  3  1  0  0  0  0
  6  4  1  0  0  0  0
  7  6  1  0  0  0  0
  8  6  1  6  0  0  0
  8  9  1  0  0  0  0
  8  3  1  0  0  0  0
  9 10  1  0  0  0  0
 10 11  1  0  0  0  0
 10  1  1  0  0  0  0
 12 14  1  0  0  0  0
 13 12  2  0  0  0  0
 14 15  1  0  0  0  0
 17 16  1  0  0  0  0
 17 20  1  0  0  0  0
 18 24  1  0  0  0  0
 18 23  1  0  0  0  0
 19 18  2  0  0  0  0
 20 19  1  0  0  0  0
 20 21  2  0  0  0  0
 21 22  1  0  0  0  0
 22 23  2  0  0  0  0
 22 26  1  0  0  0  0
 25 19  1  0  0  0  0
M  END
>  <minimizedAffinity>
-4.51749086

>  <minimizedRMSD>
1.02262783

$$$$
