
 OpenBabel03242518283D

 28 30  0  0  1  0  0  0  0  0999 V2000
   47.8450   32.8500   39.1230 C   0  0  0  0  0  0  0  0  0  0  0  0
   47.0090   32.2810   38.2800 C   0  0  0  0  0  0  0  0  0  0  0  0
   47.2730   30.9450   37.8690 N   0  0  0  0  0  0  0  0  0  0  0  0
   46.6800   29.6870   37.5690 C   0  0  0  0  0  0  0  0  0  0  0  0
   45.5450   29.1290   37.4440 O   0  0  0  0  0  0  0  0  0  0  0  0
   48.0220   29.1070   37.4150 C   0  0  0  0  0  3  0  0  0  0  0  0
   48.3170   28.3010   38.1060 H   0  0  0  0  0  0  0  0  0  0  0  0
   48.6360   30.4540   37.5940 C   0  0  2  0  0  3  0  0  0  0  0  0
   49.5170   30.6790   39.1770 S   0  0  0  0  0  0  0  0  0  0  0  0
   49.0680   32.3260   39.7730 C   0  0  0  0  0  3  0  0  0  0  0  0
   49.9560   32.9960   39.5530 H   0  0  0  0  0  0  0  0  0  0  0  0
   45.8270   32.9380   37.7370 C   0  0  0  0  0  0  0  0  0  0  0  0
   45.5160   33.5410   36.6820 O   0  0  0  0  0  0  0  0  0  0  0  0
   44.6400   33.0280   38.4030 O   0  0  0  0  0  0  0  0  0  0  0  0
   44.0700   33.8530   38.5330 H   0  0  0  0  0  0  0  0  0  0  0  0
   47.6970   34.2200   39.6260 C   0  0  0  0  0  2  0  0  0  0  0  0
   46.8790   34.2550   40.8110 O   0  0  0  0  0  0  0  0  0  0  0  0
   47.3320   34.9640   41.9320 C   0  0  0  0  0  0  0  0  0  0  0  0
   48.4030   35.6240   41.8110 O   0  0  0  0  0  0  0  0  0  0  0  0
   46.5140   34.8510   43.0910 C   0  0  0  0  0  0  0  0  0  0  0  0
   45.5110   35.8100   43.1560 C   0  0  0  0  0  0  0  0  0  0  0  0
   44.6460   35.7830   44.2670 C   0  0  0  0  0  0  0  0  0  0  0  0
   44.8440   34.8210   45.2100 N   0  0  0  0  0  0  0  0  0  0  0  0
   45.8390   33.9150   45.0890 C   0  0  0  0  0  0  0  0  0  0  0  0
   46.6710   33.9300   44.0330 N   0  0  0  0  0  0  0  0  0  0  0  0
   45.3300   36.5770   42.4320 H   0  0  0  0  0  0  0  0  0  0  0  0
   43.8450   36.4910   44.3910 H   0  0  0  0  0  0  0  0  0  0  0  0
   45.9270   33.1820   45.8850 H   0  0  0  0  0  0  0  0  0  0  0  0
  1 16  1  0  0  0  0
  1 10  1  0  0  0  0
  2  1  2  0  0  0  0
  3  2  1  0  0  0  0
  4  3  1  0  0  0  0
  5  4  2  0  0  0  0
  6  4  1  0  0  0  0
  6  7  1  0  0  0  0
  8  6  1  1  0  0  0
  8  3  1  0  0  0  0
  8  9  1  0  0  0  0
  9 10  1  0  0  0  0
 11 10  1  0  0  0  0
 12  2  1  0  0  0  0
 12 14  1  0  0  0  0
 13 12  2  0  0  0  0
 14 15  1  0  0  0  0
 16 17  1  0  0  0  0
 17 18  1  0  0  0  0
 18 20  1  0  0  0  0
 19 18  2  0  0  0  0
 20 21  2  0  0  0  0
 20 25  1  0  0  0  0
 21 22  1  0  0  0  0
 22 27  1  0  0  0  0
 22 23  2  0  0  0  0
 24 23  1  0  0  0  0
 24 28  1  0  0  0  0
 25 24  2  0  0  0  0
 26 21  1  0  0  0  0
M  END
>  <minimizedAffinity>
-4.16370106

>  <minimizedRMSD>
1.93192434

$$$$
