
 OpenBabel03252501343D

 32 34  0  0  1  0  0  0  0  0999 V2000
   43.5520   35.4840   41.1620 O   0  0  0  0  0  0  0  0  0  0  0  0
   44.2340   34.8100   42.1820 C   0  0  0  0  0  0  0  0  0  0  0  0
   44.1040   33.5870   42.5050 O   0  0  0  0  0  0  0  0  0  0  0  0
   45.1960   35.4920   42.9940 N   0  0  0  0  0  0  0  0  0  0  0  0
   45.4280   36.4790   42.8450 H   0  0  0  0  0  0  0  0  0  0  0  0
   45.7200   34.5550   43.9870 C   0  0  0  0  0  0  0  0  0  0  0  0
   45.2780   34.4600   45.2820 C   0  0  0  0  0  0  0  0  0  0  0  0
   45.9000   33.5040   46.0630 C   0  0  0  0  0  0  0  0  0  0  0  0
   46.8660   32.7580   45.5140 N   0  0  0  0  0  0  0  0  0  0  0  0
   47.2760   32.8780   44.2340 C   0  0  0  0  0  0  0  0  0  0  0  0
   46.6860   33.8110   43.4300 N   0  0  0  0  0  0  0  0  0  0  0  0
   45.5590   33.4210   47.0870 H   0  0  0  0  0  0  0  0  0  0  0  0
   48.0670   32.2350   43.8620 H   0  0  0  0  0  0  0  0  0  0  0  0
   44.2470   35.3340   45.6830 N   0  0  0  0  0  0  0  0  0  0  0  0
   43.2430   35.0800   45.4570 H   0  0  0  0  0  0  0  0  0  0  0  0
   44.5290   36.2130   46.1990 H   0  0  0  0  0  0  0  0  0  0  0  0
   42.1290   35.2540   41.0680 C   0  0  0  0  0  0  0  0  0  0  0  0
   41.8300   34.1580   40.1410 C   0  0  0  0  0  0  0  0  0  0  0  0
   40.7570   33.3870   40.2040 C   0  0  0  0  0  0  0  0  0  0  0  0
   40.6050   32.3660   39.2270 N   0  0  0  0  0  0  0  0  0  0  0  0
   39.6750   31.6670   38.4070 C   0  0  0  0  0  0  0  0  0  0  0  0
   38.4240   31.5740   38.2020 O   0  0  0  0  0  0  0  0  0  0  0  0
   40.7620   30.9400   37.7270 C   0  0  0  0  0  0  0  0  0  0  0  0
   40.6020   29.8440   37.8790 H   0  0  0  0  0  0  0  0  0  0  0  0
   41.7130   31.5720   38.6910 C   0  0  1  0  0  0  0  0  0  0  0  0
   42.8760   32.7730   37.9920 S   0  0  0  0  0  0  0  0  0  0  0  0
   42.9530   34.1260   39.1730 C   0  0  0  0  0  0  0  0  0  0  0  0
   43.0150   35.1200   38.6540 H   0  0  0  0  0  0  0  0  0  0  0  0
   39.7110   33.5270   41.2210 C   0  0  0  0  0  0  0  0  0  0  0  0
   39.7250   33.8130   42.4390 O   0  0  0  0  0  0  0  0  0  0  0  0
   38.3850   33.3380   40.9420 O   0  0  0  0  0  0  0  0  0  0  0  0
   37.7780   32.8300   41.5430 H   0  0  0  0  0  0  0  0  0  0  0  0
  1  2  1  0  0  0  0
  2  3  2  0  0  0  0
  2  4  1  0  0  0  0
  4  6  1  0  0  0  0
  5  4  1  0  0  0  0
  6  7  1  0  0  0  0
  7 14  1  0  0  0  0
  7  8  2  0  0  0  0
  8 12  1  0  0  0  0
  9  8  1  0  0  0  0
 10  9  2  0  0  0  0
 11  6  2  0  0  0  0
 11 10  1  0  0  0  0
 13 10  1  0  0  0  0
 14 16  1  0  0  0  0
 15 14  1  0  0  0  0
 17  1  1  0  0  0  0
 18 19  2  0  0  0  0
 18 17  1  0  0  0  0
 19 29  1  0  0  0  0
 20 19  1  0  0  0  0
 21 20  1  0  0  0  0
 22 21  2  0  0  0  0
 23 24  1  0  0  0  0
 23 21  1  0  0  0  0
 25 23  1  6  0  0  0
 25 20  1  0  0  0  0
 26 25  1  0  0  0  0
 26 27  1  0  0  0  0
 27 18  1  0  0  0  0
 28 27  1  0  0  0  0
 29 30  2  0  0  0  0
 31 29  1  0  0  0  0
 31 32  1  0  0  0  0
M  END
>  <minimizedAffinity>
-5.57155085

>  <minimizedRMSD>
2.39580584

$$$$
