
 OpenBabel03252506333D

 40 44  0  0  1  0  0  0  0  0999 V2000
   44.4030   35.8340   45.0540 C   0  0  0  0  0  0  0  0  0  0  0  0
   45.0650   35.8480   43.7970 C   0  0  0  0  0  0  0  0  0  0  0  0
   45.9910   34.8860   43.5220 C   0  0  0  0  0  0  0  0  0  0  0  0
   46.2160   33.9640   44.4920 N   0  0  0  0  0  0  0  0  0  0  0  0
   45.5970   33.9500   45.6640 C   0  0  0  0  0  0  0  0  0  0  0  0
   44.6930   34.8790   45.9510 N   0  0  0  0  0  0  0  0  0  0  0  0
   45.9420   32.9180   46.5780 N   0  0  0  0  0  0  0  0  0  0  0  0
   45.1470   32.5910   47.7740 C   0  0  0  0  0  0  0  0  0  0  0  0
   46.2430   32.2800   48.7800 C   0  0  0  0  0  0  0  0  0  0  0  0
   47.5250   32.1600   48.0150 C   0  0  0  0  0  0  0  0  0  0  0  0
   47.0410   32.0050   46.5920 C   0  0  1  0  0  0  0  0  0  0  0  0
   43.6550   36.5480   45.3740 H   0  0  0  0  0  0  0  0  0  0  0  0
   46.4850   34.9110   42.5640 H   0  0  0  0  0  0  0  0  0  0  0  0
   44.5390   31.6940   47.5540 H   0  0  0  0  0  0  0  0  0  0  0  0
   44.5420   33.4670   48.0560 H   0  0  0  0  0  0  0  0  0  0  0  0
   46.0580   31.3030   49.2890 H   0  0  0  0  0  0  0  0  0  0  0  0
   46.2900   33.1210   49.5060 H   0  0  0  0  0  0  0  0  0  0  0  0
   48.1320   33.0790   48.1340 H   0  0  0  0  0  0  0  0  0  0  0  0
   48.1460   31.3000   48.3530 H   0  0  0  0  0  0  0  0  0  0  0  0
   47.8560   32.3210   45.9020 H   0  0  0  0  0  0  0  0  0  0  0  0
   44.6860   36.9110   42.9050 N   0  0  0  0  0  0  0  0  0  0  0  0
   43.6370   36.9910   42.7760 H   0  0  0  0  0  0  0  0  0  0  0  0
   45.3370   37.5740   42.4040 H   0  0  0  0  0  0  0  0  0  0  0  0
   46.5390   30.3040   46.3020 S   0  0  0  0  0  0  0  0  0  0  0  0
   47.2030   29.6960   44.7320 C   0  0  0  0  0  2  0  0  0  0  0  0
   46.7190   30.5210   43.6050 C   0  0  0  0  0  0  0  0  0  0  0  0
   47.5040   31.1420   42.7540 C   0  0  0  0  0  0  0  0  0  0  0  0
   46.9920   31.9120   41.6910 N   0  0  0  0  0  0  0  0  0  0  0  0
   47.1840   32.8590   40.6200 C   0  0  1  0  0  0  0  0  0  0  0  0
   47.8960   33.9020   40.5830 O   0  0  0  0  0  1  0  0  0  0  0  0
   46.2260   31.9580   39.8680 C   0  0  0  0  0  3  0  0  0  0  0  0
   45.6910   32.4370   39.0490 H   0  0  0  0  0  0  0  0  0  0  0  0
   45.6170   31.9570   41.2260 C   0  0  1  0  0  0  0  0  0  0  0  0
   44.7730   30.4970   41.8070 S   0  0  0  0  0  0  0  0  0  0  0  0
   45.2550   30.5460   43.5870 C   0  0  0  0  0  3  0  0  0  0  0  0
   44.7540   29.7540   44.1300 H   0  0  0  0  0  0  0  0  0  0  0  0
   48.9830   31.0930   42.8160 C   0  0  0  0  0  0  0  0  0  0  0  0
   49.8360   30.2020   43.0240 O   0  0  0  0  0  0  0  0  0  0  0  0
   49.7850   32.1910   42.6260 O   0  0  0  0  0  0  0  0  0  0  0  0
   50.6150   32.4200   43.1480 H   0  0  0  0  0  0  0  0  0  0  0  0
  1 12  1  0  0  0  0
  1  6  1  0  0  0  0
  2  1  2  0  0  0  0
  3  2  1  0  0  0  0
  3  4  2  0  0  0  0
  4  5  1  0  0  0  0
  5  6  2  0  0  0  0
  5  7  1  0  0  0  0
  7 11  1  0  0  0  0
  7  8  1  0  0  0  0
  8 15  1  0  0  0  0
  8  9  1  0  0  0  0
  9 16  1  0  0  0  0
  9 17  1  0  0  0  0
 10 18  1  0  0  0  0
 10 19  1  0  0  0  0
 10  9  1  0  0  0  0
 11 20  1  6  0  0  0
 11 10  1  0  0  0  0
 13  3  1  0  0  0  0
 14  8  1  0  0  0  0
 21  2  1  0  0  0  0
 22 21  1  0  0  0  0
 23 21  1  0  0  0  0
 24 11  1  0  0  0  0
 25 24  1  0  0  0  0
 26 25  1  0  0  0  0
 27 37  1  0  0  0  0
 27 26  2  0  0  0  0
 28 27  1  0  0  0  0
 29 30  1  6  0  0  0
 29 33  1  0  0  0  0
 29 28  1  0  0  0  0
 31 29  1  0  0  0  0
 32 31  1  0  0  0  0
 33 31  1  6  0  0  0
 33 28  1  0  0  0  0
 33 34  1  0  0  0  0
 34 35  1  0  0  0  0
 35 26  1  0  0  0  0
 35 36  1  0  0  0  0
 37 38  2  0  0  0  0
 39 37  1  0  0  0  0
 39 40  1  0  0  0  0
M  END
>  <minimizedAffinity>
-5.33829498

>  <minimizedRMSD>
5.11256981

$$$$
