
 OpenBabel03252506343D

 40 44  0  0  1  0  0  0  0  0999 V2000
   44.4650   35.7410   45.0360 C   0  0  0  0  0  0  0  0  0  0  0  0
   45.1070   35.7040   43.7690 C   0  0  0  0  0  0  0  0  0  0  0  0
   46.0030   34.7110   43.5050 C   0  0  0  0  0  0  0  0  0  0  0  0
   46.2200   33.8090   44.4960 N   0  0  0  0  0  0  0  0  0  0  0  0
   45.6210   33.8420   45.6780 C   0  0  0  0  0  0  0  0  0  0  0  0
   44.7460   34.8020   45.9530 N   0  0  0  0  0  0  0  0  0  0  0  0
   45.9540   32.8270   46.6140 N   0  0  0  0  0  0  0  0  0  0  0  0
   45.1710   32.5530   47.8310 C   0  0  0  0  0  0  0  0  0  0  0  0
   46.2760   32.2410   48.8280 C   0  0  0  0  0  0  0  0  0  0  0  0
   47.5410   32.0670   48.0460 C   0  0  0  0  0  0  0  0  0  0  0  0
   47.0300   31.8860   46.6350 C   0  0  1  0  0  0  0  0  0  0  0  0
   43.7420   36.4820   45.3480 H   0  0  0  0  0  0  0  0  0  0  0  0
   46.4820   34.6970   42.5390 H   0  0  0  0  0  0  0  0  0  0  0  0
   44.5360   31.6670   47.6450 H   0  0  0  0  0  0  0  0  0  0  0  0
   44.5940   33.4520   48.0990 H   0  0  0  0  0  0  0  0  0  0  0  0
   46.0730   31.2830   49.3650 H   0  0  0  0  0  0  0  0  0  0  0  0
   46.3560   33.0990   49.5300 H   0  0  0  0  0  0  0  0  0  0  0  0
   48.1730   32.9720   48.1300 H   0  0  0  0  0  0  0  0  0  0  0  0
   48.1450   31.2000   48.3970 H   0  0  0  0  0  0  0  0  0  0  0  0
   47.8410   32.1620   45.9250 H   0  0  0  0  0  0  0  0  0  0  0  0
   44.7410   36.7520   42.8550 N   0  0  0  0  0  0  0  0  0  0  0  0
   43.6920   36.8560   42.7390 H   0  0  0  0  0  0  0  0  0  0  0  0
   45.4010   37.3840   42.3250 H   0  0  0  0  0  0  0  0  0  0  0  0
   46.4790   30.1920   46.4000 S   0  0  0  0  0  0  0  0  0  0  0  0
   47.8560   29.1330   45.8930 C   0  0  0  0  0  2  0  0  0  0  0  0
   48.2600   28.2360   46.9970 C   0  0  0  0  0  0  0  0  0  0  0  0
   47.7450   27.0460   47.2080 C   0  0  0  0  0  0  0  0  0  0  0  0
   48.1700   26.2270   48.2720 N   0  0  0  0  0  0  0  0  0  0  0  0
   48.0000   25.0610   49.1040 C   0  0  1  0  0  0  0  0  0  0  0  0
   46.9460   24.5640   49.5910 O   0  0  0  0  0  1  0  0  0  0  0  0
   49.5060   24.9500   48.9790 C   0  0  0  0  0  3  0  0  0  0  0  0
   49.9950   24.3980   49.7800 H   0  0  0  0  0  0  0  0  0  0  0  0
   49.3340   26.4240   49.1170 C   0  0  1  0  0  0  0  0  0  0  0  0
   50.4650   27.5190   48.2790 S   0  0  0  0  0  0  0  0  0  0  0  0
   49.3010   28.8700   47.8100 C   0  0  0  0  0  3  0  0  0  0  0  0
   49.8430   29.6850   47.3470 H   0  0  0  0  0  0  0  0  0  0  0  0
   46.6880   26.4490   46.3600 C   0  0  0  0  0  0  0  0  0  0  0  0
   46.1800   26.7160   45.2490 O   0  0  0  0  0  0  0  0  0  0  0  0
   45.9790   25.3250   46.7120 O   0  0  0  0  0  0  0  0  0  0  0  0
   44.9940   25.1750   46.5740 H   0  0  0  0  0  0  0  0  0  0  0  0
  1 12  1  0  0  0  0
  1  6  1  0  0  0  0
  2  1  2  0  0  0  0
  3  2  1  0  0  0  0
  3  4  2  0  0  0  0
  4  5  1  0  0  0  0
  5  6  2  0  0  0  0
  5  7  1  0  0  0  0
  7 11  1  0  0  0  0
  7  8  1  0  0  0  0
  8 15  1  0  0  0  0
  8  9  1  0  0  0  0
  9 16  1  0  0  0  0
  9 17  1  0  0  0  0
 10 18  1  0  0  0  0
 10 19  1  0  0  0  0
 10  9  1  0  0  0  0
 11 20  1  6  0  0  0
 11 10  1  0  0  0  0
 13  3  1  0  0  0  0
 14  8  1  0  0  0  0
 21  2  1  0  0  0  0
 22 21  1  0  0  0  0
 23 21  1  0  0  0  0
 24 11  1  0  0  0  0
 25 24  1  0  0  0  0
 25 26  1  0  0  0  0
 26 27  2  0  0  0  0
 26 35  1  0  0  0  0
 27 28  1  0  0  0  0
 28 29  1  0  0  0  0
 28 33  1  0  0  0  0
 29 33  1  0  0  0  0
 29 30  1  1  0  0  0
 31 29  1  0  0  0  0
 31 33  1  0  0  0  0
 31 32  1  0  0  0  0
 33 34  1  1  0  0  0
 35 34  1  0  0  0  0
 36 35  1  0  0  0  0
 37 39  1  0  0  0  0
 37 27  1  0  0  0  0
 38 37  2  0  0  0  0
 40 39  1  0  0  0  0
M  END
>  <minimizedAffinity>
-5.50813103

>  <minimizedRMSD>
1.33307278

$$$$
