
 OpenBabel03252506343D

 40 44  0  0  1  0  0  0  0  0999 V2000
   44.4540   35.7300   44.9950 C   0  0  0  0  0  0  0  0  0  0  0  0
   45.1330   35.6970   43.7470 C   0  0  0  0  0  0  0  0  0  0  0  0
   46.0560   34.7210   43.5170 C   0  0  0  0  0  0  0  0  0  0  0  0
   46.2630   33.8310   44.5210 N   0  0  0  0  0  0  0  0  0  0  0  0
   45.6290   33.8600   45.6850 C   0  0  0  0  0  0  0  0  0  0  0  0
   44.7270   34.8040   45.9270 N   0  0  0  0  0  0  0  0  0  0  0  0
   45.9560   32.8590   46.6380 N   0  0  0  0  0  0  0  0  0  0  0  0
   45.1430   32.5770   47.8330 C   0  0  0  0  0  0  0  0  0  0  0  0
   46.2250   32.2950   48.8640 C   0  0  0  0  0  0  0  0  0  0  0  0
   47.5150   32.1420   48.1200 C   0  0  0  0  0  0  0  0  0  0  0  0
   47.0490   31.9410   46.6970 C   0  0  1  0  0  0  0  0  0  0  0  0
   43.7070   36.4580   45.2800 H   0  0  0  0  0  0  0  0  0  0  0  0
   46.5630   34.7110   42.5650 H   0  0  0  0  0  0  0  0  0  0  0  0
   44.5320   31.6770   47.6360 H   0  0  0  0  0  0  0  0  0  0  0  0
   44.5400   33.4660   48.0780 H   0  0  0  0  0  0  0  0  0  0  0  0
   46.0260   31.3370   49.4030 H   0  0  0  0  0  0  0  0  0  0  0  0
   46.2670   33.1600   49.5620 H   0  0  0  0  0  0  0  0  0  0  0  0
   48.1260   33.0600   48.2160 H   0  0  0  0  0  0  0  0  0  0  0  0
   48.1270   31.2900   48.4960 H   0  0  0  0  0  0  0  0  0  0  0  0
   47.8750   32.2280   46.0080 H   0  0  0  0  0  0  0  0  0  0  0  0
   44.7730   36.7310   42.8150 N   0  0  0  0  0  0  0  0  0  0  0  0
   43.7260   36.8120   42.6680 H   0  0  0  0  0  0  0  0  0  0  0  0
   45.4340   37.3730   42.3000 H   0  0  0  0  0  0  0  0  0  0  0  0
   46.5400   30.2340   46.4590 S   0  0  0  0  0  0  0  0  0  0  0  0
   47.6480   29.1040   47.3390 C   0  0  0  0  0  2  0  0  0  0  0  0
   49.0010   29.1290   46.7430 C   0  0  0  0  0  0  0  0  0  0  0  0
   50.1080   29.2890   47.4310 C   0  0  0  0  0  0  0  0  0  0  0  0
   51.3760   29.2980   46.8150 N   0  0  0  0  0  0  0  0  0  0  0  0
   52.7970   29.5380   46.8700 C   0  0  1  0  0  0  0  0  0  0  0  0
   53.4350   30.4780   47.4230 O   0  0  0  0  0  1  0  0  0  0  0  0
   52.8810   28.2640   46.0550 C   0  0  0  0  0  3  0  0  0  0  0  0
   53.7860   28.1580   45.4580 H   0  0  0  0  0  0  0  0  0  0  0  0
   51.6870   28.9160   45.4490 C   0  0  1  0  0  0  0  0  0  0  0  0
   50.3570   27.9040   44.8250 S   0  0  0  0  0  0  0  0  0  0  0  0
   48.9170   28.9580   45.2910 C   0  0  0  0  0  3  0  0  0  0  0  0
   48.0000   28.5250   44.9090 H   0  0  0  0  0  0  0  0  0  0  0  0
   50.1410   29.4640   48.9010 C   0  0  0  0  0  0  0  0  0  0  0  0
   50.0000   28.7140   49.8910 O   0  0  0  0  0  0  0  0  0  0  0  0
   50.3660   30.6750   49.5140 O   0  0  0  0  0  0  0  0  0  0  0  0
   49.8950   31.0240   50.3310 H   0  0  0  0  0  0  0  0  0  0  0  0
  1 12  1  0  0  0  0
  1  6  1  0  0  0  0
  2  1  2  0  0  0  0
  3  2  1  0  0  0  0
  3  4  2  0  0  0  0
  4  5  1  0  0  0  0
  5  6  2  0  0  0  0
  5  7  1  0  0  0  0
  7 11  1  0  0  0  0
  7  8  1  0  0  0  0
  8 15  1  0  0  0  0
  8  9  1  0  0  0  0
  9 16  1  0  0  0  0
  9 17  1  0  0  0  0
 10 18  1  0  0  0  0
 10 19  1  0  0  0  0
 10  9  1  0  0  0  0
 11 20  1  6  0  0  0
 11 10  1  0  0  0  0
 13  3  1  0  0  0  0
 14  8  1  0  0  0  0
 21  2  1  0  0  0  0
 22 21  1  0  0  0  0
 23 21  1  0  0  0  0
 24 11  1  0  0  0  0
 24 25  1  0  0  0  0
 26 25  1  0  0  0  0
 26 27  2  0  0  0  0
 27 37  1  0  0  0  0
 28 29  1  0  0  0  0
 28 27  1  0  0  0  0
 29 30  1  1  0  0  0
 31 29  1  0  0  0  0
 32 31  1  0  0  0  0
 33 34  1  6  0  0  0
 33 31  1  0  0  0  0
 33 28  1  0  0  0  0
 33 29  1  0  0  0  0
 34 35  1  0  0  0  0
 35 26  1  0  0  0  0
 36 35  1  0  0  0  0
 37 39  1  0  0  0  0
 37 38  2  0  0  0  0
 39 40  1  0  0  0  0
M  END
>  <minimizedAffinity>
-5.38075018

>  <minimizedRMSD>
1.43169212

$$$$
