
 OpenBabel03252506333D

 40 44  0  0  1  0  0  0  0  0999 V2000
   44.4580   35.7920   45.1030 C   0  0  0  0  0  0  0  0  0  0  0  0
   45.0580   35.7650   43.8150 C   0  0  0  0  0  0  0  0  0  0  0  0
   45.9180   34.7560   43.5020 C   0  0  0  0  0  0  0  0  0  0  0  0
   46.1440   33.8280   44.4670 N   0  0  0  0  0  0  0  0  0  0  0  0
   45.5840   33.8520   45.6680 C   0  0  0  0  0  0  0  0  0  0  0  0
   44.7440   34.8280   45.9920 N   0  0  0  0  0  0  0  0  0  0  0  0
   45.9210   32.8090   46.5720 N   0  0  0  0  0  0  0  0  0  0  0  0
   45.1710   32.5290   47.8080 C   0  0  0  0  0  0  0  0  0  0  0  0
   46.2990   32.1680   48.7610 C   0  0  0  0  0  0  0  0  0  0  0  0
   47.5330   31.9790   47.9350 C   0  0  0  0  0  0  0  0  0  0  0  0
   46.9720   31.8410   46.5380 C   0  0  1  0  0  0  0  0  0  0  0  0
   43.7650   36.5450   45.4540 H   0  0  0  0  0  0  0  0  0  0  0  0
   46.3650   34.7500   42.5200 H   0  0  0  0  0  0  0  0  0  0  0  0
   44.5080   31.6640   47.6260 H   0  0  0  0  0  0  0  0  0  0  0  0
   44.6260   33.4370   48.1130 H   0  0  0  0  0  0  0  0  0  0  0  0
   46.0890   31.2050   49.2860 H   0  0  0  0  0  0  0  0  0  0  0  0
   46.4250   33.0090   49.4780 H   0  0  0  0  0  0  0  0  0  0  0  0
   48.1910   32.8650   48.0160 H   0  0  0  0  0  0  0  0  0  0  0  0
   48.1260   31.0890   48.2480 H   0  0  0  0  0  0  0  0  0  0  0  0
   47.7670   32.1110   45.8070 H   0  0  0  0  0  0  0  0  0  0  0  0
   44.6890   36.8420   42.9350 N   0  0  0  0  0  0  0  0  0  0  0  0
   43.6410   36.9750   42.8560 H   0  0  0  0  0  0  0  0  0  0  0  0
   45.3480   37.4680   42.3960 H   0  0  0  0  0  0  0  0  0  0  0  0
   46.3690   30.1660   46.2880 S   0  0  0  0  0  0  0  0  0  0  0  0
   47.6510   28.9550   46.6950 C   0  0  0  0  0  2  0  0  0  0  0  0
   47.0460   27.7060   47.2080 C   0  0  0  0  0  0  0  0  0  0  0  0
   47.6910   26.8140   47.9240 C   0  0  0  0  0  0  0  0  0  0  0  0
   47.0670   25.6430   48.3960 N   0  0  0  0  0  0  0  0  0  0  0  0
   47.1430   24.3370   49.0040 C   0  0  1  0  0  0  0  0  0  0  0  0
   47.9810   23.4100   48.8220 O   0  0  0  0  0  1  0  0  0  0  0  0
   45.9020   24.7880   49.7460 C   0  0  0  0  0  3  0  0  0  0  0  0
   45.2670   23.9820   50.1150 H   0  0  0  0  0  0  0  0  0  0  0  0
   45.6460   25.3460   48.3890 C   0  0  1  0  0  0  0  0  0  0  0  0
   44.7460   26.8770   48.2260 S   0  0  0  0  0  0  0  0  0  0  0  0
   45.6440   27.6160   46.7950 C   0  0  0  0  0  3  0  0  0  0  0  0
   45.1700   28.5440   46.4970 H   0  0  0  0  0  0  0  0  0  0  0  0
   49.1150   26.9480   48.3120 C   0  0  0  0  0  0  0  0  0  0  0  0
   49.7330   27.4720   49.2630 O   0  0  0  0  0  0  0  0  0  0  0  0
   50.1510   26.4350   47.5690 O   0  0  0  0  0  0  0  0  0  0  0  0
   51.0350   26.8840   47.3930 H   0  0  0  0  0  0  0  0  0  0  0  0
  1 12  1  0  0  0  0
  1  6  1  0  0  0  0
  2  1  2  0  0  0  0
  3  2  1  0  0  0  0
  3  4  2  0  0  0  0
  4  5  1  0  0  0  0
  5  6  2  0  0  0  0
  5  7  1  0  0  0  0
  7  8  1  0  0  0  0
  8 15  1  0  0  0  0
  8  9  1  0  0  0  0
  9 16  1  0  0  0  0
  9 17  1  0  0  0  0
 10 18  1  0  0  0  0
 10 19  1  0  0  0  0
 10  9  1  0  0  0  0
 11 20  1  6  0  0  0
 11  7  1  0  0  0  0
 11 10  1  0  0  0  0
 13  3  1  0  0  0  0
 14  8  1  0  0  0  0
 21  2  1  0  0  0  0
 22 21  1  0  0  0  0
 23 21  1  0  0  0  0
 24 11  1  0  0  0  0
 24 25  1  0  0  0  0
 25 26  1  0  0  0  0
 26 27  2  0  0  0  0
 27 37  1  0  0  0  0
 27 28  1  0  0  0  0
 28 29  1  0  0  0  0
 29 30  1  6  0  0  0
 29 31  1  0  0  0  0
 31 32  1  0  0  0  0
 33 34  1  6  0  0  0
 33 28  1  0  0  0  0
 33 29  1  0  0  0  0
 33 31  1  0  0  0  0
 35 26  1  0  0  0  0
 35 34  1  0  0  0  0
 36 35  1  0  0  0  0
 37 38  2  0  0  0  0
 39 37  1  0  0  0  0
 40 39  1  0  0  0  0
M  END
>  <minimizedAffinity>
-5.73629856

>  <minimizedRMSD>
2.81566525

$$$$
