
 OpenBabel03252506343D

 40 44  0  0  1  0  0  0  0  0999 V2000
   44.5140   35.7290   45.0700 C   0  0  0  0  0  0  0  0  0  0  0  0
   45.1010   35.6420   43.7790 C   0  0  0  0  0  0  0  0  0  0  0  0
   45.9330   34.6010   43.4950 C   0  0  0  0  0  0  0  0  0  0  0  0
   46.1450   33.7020   44.4900 N   0  0  0  0  0  0  0  0  0  0  0  0
   45.5960   33.7820   45.6940 C   0  0  0  0  0  0  0  0  0  0  0  0
   44.7830   34.7890   45.9900 N   0  0  0  0  0  0  0  0  0  0  0  0
   45.9150   32.7620   46.6310 N   0  0  0  0  0  0  0  0  0  0  0  0
   45.1700   32.5450   47.8820 C   0  0  0  0  0  0  0  0  0  0  0  0
   46.2960   32.1890   48.8390 C   0  0  0  0  0  0  0  0  0  0  0  0
   47.5180   31.9400   48.0090 C   0  0  0  0  0  0  0  0  0  0  0  0
   46.9410   31.7680   46.6230 C   0  0  1  0  0  0  0  0  0  0  0  0
   43.8430   36.5100   45.4000 H   0  0  0  0  0  0  0  0  0  0  0  0
   46.3710   34.5500   42.5110 H   0  0  0  0  0  0  0  0  0  0  0  0
   44.4830   31.6910   47.7350 H   0  0  0  0  0  0  0  0  0  0  0  0
   44.6500   33.4760   48.1600 H   0  0  0  0  0  0  0  0  0  0  0  0
   46.0680   31.2500   49.3980 H   0  0  0  0  0  0  0  0  0  0  0  0
   46.4490   33.0510   49.5240 H   0  0  0  0  0  0  0  0  0  0  0  0
   48.1990   32.8130   48.0550 H   0  0  0  0  0  0  0  0  0  0  0  0
   48.0910   31.0480   48.3490 H   0  0  0  0  0  0  0  0  0  0  0  0
   47.7360   31.9920   45.8770 H   0  0  0  0  0  0  0  0  0  0  0  0
   44.7520   36.6960   42.8650 N   0  0  0  0  0  0  0  0  0  0  0  0
   43.7060   36.8520   42.7900 H   0  0  0  0  0  0  0  0  0  0  0  0
   45.4210   37.2860   42.3000 H   0  0  0  0  0  0  0  0  0  0  0  0
   46.2950   30.1010   46.4360 S   0  0  0  0  0  0  0  0  0  0  0  0
   47.5910   28.9700   45.8710 C   0  0  0  0  0  2  0  0  0  0  0  0
   47.9690   28.0310   46.9480 C   0  0  0  0  0  0  0  0  0  0  0  0
   47.3070   26.9330   47.2350 C   0  0  0  0  0  0  0  0  0  0  0  0
   47.7130   26.0660   48.2700 N   0  0  0  0  0  0  0  0  0  0  0  0
   47.4590   24.9440   49.1400 C   0  0  1  0  0  0  0  0  0  0  0  0
   46.3980   24.6140   49.7420 O   0  0  0  0  0  1  0  0  0  0  0  0
   48.9100   24.6070   48.8650 C   0  0  0  0  0  3  0  0  0  0  0  0
   49.3920   23.9930   49.6240 H   0  0  0  0  0  0  0  0  0  0  0  0
   48.9750   26.0900   48.9860 C   0  0  1  0  0  0  0  0  0  0  0  0
   50.1640   26.9990   48.0150 S   0  0  0  0  0  0  0  0  0  0  0  0
   49.1710   28.5070   47.6370 C   0  0  0  0  0  3  0  0  0  0  0  0
   49.7770   29.2280   47.1030 H   0  0  0  0  0  0  0  0  0  0  0  0
   46.0900   26.4950   46.5130 C   0  0  0  0  0  0  0  0  0  0  0  0
   45.8590   25.8910   45.4430 O   0  0  0  0  0  0  0  0  0  0  0  0
   44.8150   26.7170   46.9760 O   0  0  0  0  0  0  0  0  0  0  0  0
   44.0210   26.9890   46.4210 H   0  0  0  0  0  0  0  0  0  0  0  0
  1 12  1  0  0  0  0
  1  6  1  0  0  0  0
  2  1  2  0  0  0  0
  3  2  1  0  0  0  0
  3  4  2  0  0  0  0
  4  5  1  0  0  0  0
  5  6  2  0  0  0  0
  5  7  1  0  0  0  0
  7  8  1  0  0  0  0
  8 15  1  0  0  0  0
  8  9  1  0  0  0  0
  9 16  1  0  0  0  0
  9 17  1  0  0  0  0
 10 18  1  0  0  0  0
 10 19  1  0  0  0  0
 10  9  1  0  0  0  0
 11 20  1  6  0  0  0
 11  7  1  0  0  0  0
 11 10  1  0  0  0  0
 13  3  1  0  0  0  0
 14  8  1  0  0  0  0
 21  2  1  0  0  0  0
 22 21  1  0  0  0  0
 23 21  1  0  0  0  0
 24 11  1  0  0  0  0
 25 24  1  0  0  0  0
 25 26  1  0  0  0  0
 26 27  2  0  0  0  0
 26 35  1  0  0  0  0
 27 28  1  0  0  0  0
 28 33  1  0  0  0  0
 28 29  1  0  0  0  0
 29 30  1  1  0  0  0
 31 33  1  0  0  0  0
 31 29  1  0  0  0  0
 31 32  1  0  0  0  0
 33 34  1  1  0  0  0
 33 29  1  0  0  0  0
 35 34  1  0  0  0  0
 36 35  1  0  0  0  0
 37 39  1  0  0  0  0
 37 27  1  0  0  0  0
 38 37  2  0  0  0  0
 40 39  1  0  0  0  0
M  END
>  <minimizedAffinity>
-5.55899382

>  <minimizedRMSD>
1.73187339

$$$$
