
 OpenBabel03252506343D

 40 44  0  0  1  0  0  0  0  0999 V2000
   44.5390   35.7780   45.0250 C   0  0  0  0  0  0  0  0  0  0  0  0
   45.0590   35.6430   43.7090 C   0  0  0  0  0  0  0  0  0  0  0  0
   45.8270   34.5590   43.4040 C   0  0  0  0  0  0  0  0  0  0  0  0
   46.0440   33.6670   44.4040 N   0  0  0  0  0  0  0  0  0  0  0  0
   45.5590   33.7920   45.6310 C   0  0  0  0  0  0  0  0  0  0  0  0
   44.8090   34.8410   45.9470 N   0  0  0  0  0  0  0  0  0  0  0  0
   45.8750   32.7730   46.5710 N   0  0  0  0  0  0  0  0  0  0  0  0
   45.1810   32.6110   47.8590 C   0  0  0  0  0  0  0  0  0  0  0  0
   46.3350   32.2170   48.7670 C   0  0  0  0  0  0  0  0  0  0  0  0
   47.5020   31.8980   47.8850 C   0  0  0  0  0  0  0  0  0  0  0  0
   46.8520   31.7310   46.5310 C   0  0  1  0  0  0  0  0  0  0  0  0
   43.9220   36.5950   45.3720 H   0  0  0  0  0  0  0  0  0  0  0  0
   46.2140   34.4730   42.4020 H   0  0  0  0  0  0  0  0  0  0  0  0
   44.4490   31.7880   47.7600 H   0  0  0  0  0  0  0  0  0  0  0  0
   44.7200   33.5700   48.1440 H   0  0  0  0  0  0  0  0  0  0  0  0
   46.0900   31.2990   49.3540 H   0  0  0  0  0  0  0  0  0  0  0  0
   46.5600   33.0820   49.4290 H   0  0  0  0  0  0  0  0  0  0  0  0
   48.2240   32.7380   47.8830 H   0  0  0  0  0  0  0  0  0  0  0  0
   48.0490   30.9850   48.2130 H   0  0  0  0  0  0  0  0  0  0  0  0
   47.6190   31.9060   45.7440 H   0  0  0  0  0  0  0  0  0  0  0  0
   44.7150   36.6980   42.7930 N   0  0  0  0  0  0  0  0  0  0  0  0
   43.6750   36.9020   42.7660 H   0  0  0  0  0  0  0  0  0  0  0  0
   45.3830   37.2470   42.1870 H   0  0  0  0  0  0  0  0  0  0  0  0
   46.1210   30.0950   46.4050 S   0  0  0  0  0  0  0  0  0  0  0  0
   46.9700   29.1070   45.1470 C   0  0  0  0  0  2  0  0  0  0  0  0
   48.4360   29.2520   45.2710 C   0  0  0  0  0  0  0  0  0  0  0  0
   49.1390   28.8050   46.2880 C   0  0  0  0  0  0  0  0  0  0  0  0
   50.5370   28.9630   46.3540 N   0  0  0  0  0  0  0  0  0  0  0  0
   51.7740   28.8950   47.0930 C   0  0  1  0  0  0  0  0  0  0  0  0
   52.0210   29.2280   48.2870 O   0  0  0  0  0  1  0  0  0  0  0  0
   52.3270   28.3260   45.8020 C   0  0  0  0  0  3  0  0  0  0  0  0
   53.4020   28.4390   45.6740 H   0  0  0  0  0  0  0  0  0  0  0  0
   51.4220   29.3900   45.2860 C   0  0  1  0  0  0  0  0  0  0  0  0
   50.5870   29.1510   43.7270 S   0  0  0  0  0  0  0  0  0  0  0  0
   48.9750   29.9620   44.1090 C   0  0  0  0  0  3  0  0  0  0  0  0
   48.3500   29.9830   43.2250 H   0  0  0  0  0  0  0  0  0  0  0  0
   48.5460   28.0970   47.4450 C   0  0  0  0  0  0  0  0  0  0  0  0
   47.9700   27.0010   47.6190 O   0  0  0  0  0  0  0  0  0  0  0  0
   48.5290   28.6120   48.7200 O   0  0  0  0  0  0  0  0  0  0  0  0
   47.7670   28.5570   49.3730 H   0  0  0  0  0  0  0  0  0  0  0  0
  1 12  1  0  0  0  0
  1  6  1  0  0  0  0
  2  1  2  0  0  0  0
  3  2  1  0  0  0  0
  3  4  2  0  0  0  0
  4  5  1  0  0  0  0
  5  6  2  0  0  0  0
  5  7  1  0  0  0  0
  7  8  1  0  0  0  0
  8 15  1  0  0  0  0
  8  9  1  0  0  0  0
  9 16  1  0  0  0  0
  9 17  1  0  0  0  0
 10 19  1  0  0  0  0
 10  9  1  0  0  0  0
 11 20  1  6  0  0  0
 11  7  1  0  0  0  0
 11 10  1  0  0  0  0
 13  3  1  0  0  0  0
 14  8  1  0  0  0  0
 18 10  1  0  0  0  0
 21  2  1  0  0  0  0
 22 21  1  0  0  0  0
 23 21  1  0  0  0  0
 24 11  1  0  0  0  0
 25 26  1  0  0  0  0
 25 24  1  0  0  0  0
 26 27  2  0  0  0  0
 27 28  1  0  0  0  0
 27 37  1  0  0  0  0
 28 29  1  0  0  0  0
 29 30  1  1  0  0  0
 31 29  1  0  0  0  0
 32 31  1  0  0  0  0
 33 34  1  6  0  0  0
 33 31  1  0  0  0  0
 33 28  1  0  0  0  0
 33 29  1  0  0  0  0
 34 35  1  0  0  0  0
 35 26  1  0  0  0  0
 36 35  1  0  0  0  0
 37 38  2  0  0  0  0
 37 39  1  0  0  0  0
 39 40  1  0  0  0  0
M  END
>  <minimizedAffinity>
-5.30392551

>  <minimizedRMSD>
1.89101398

$$$$
