
 OpenBabel03252504233D

 39 43  0  0  1  0  0  0  0  0999 V2000
   38.8950   33.6260   40.6220 C   0  0  0  0  0  0  0  0  0  0  0  0
   37.6990   33.4800   39.9210 C   0  0  0  0  0  0  0  0  0  0  0  0
   37.1120   32.2010   39.8400 C   0  0  0  0  0  0  0  0  0  0  0  0
   37.7730   31.1780   40.4690 N   0  0  0  0  0  0  0  0  0  0  0  0
   38.9290   31.3690   41.1370 C   0  0  0  0  0  0  0  0  0  0  0  0
   39.4880   32.5770   41.2150 N   0  0  0  0  0  0  0  0  0  0  0  0
   39.5410   30.2390   41.7590 N   0  0  0  0  0  0  0  0  0  0  0  0
   40.8520   29.9190   41.7320 C   0  0  0  0  0  0  0  0  0  0  0  0
   41.0320   28.7750   42.4410 N   0  0  0  0  0  0  0  0  0  0  0  0
   39.8350   28.4150   42.8880 C   0  0  0  0  0  0  0  0  0  0  0  0
   39.3730   27.3620   43.6520 C   0  0  0  0  0  0  0  0  0  0  0  0
   38.0880   27.2150   43.9770 N   0  0  0  0  0  0  0  0  0  0  0  0
   37.1570   28.0940   43.5740 C   0  0  0  0  0  0  0  0  0  0  0  0
   37.5900   29.1200   42.8320 N   0  0  0  0  0  0  0  0  0  0  0  0
   38.8680   29.3130   42.4790 C   0  0  0  0  0  0  0  0  0  0  0  0
   37.2010   34.3250   39.4300 H   0  0  0  0  0  0  0  0  0  0  0  0
   36.1930   32.0520   39.3080 H   0  0  0  0  0  0  0  0  0  0  0  0
   41.6280   30.5020   41.2160 H   0  0  0  0  0  0  0  0  0  0  0  0
   36.1180   27.9610   43.8470 H   0  0  0  0  0  0  0  0  0  0  0  0
   40.2410   26.3580   44.1470 N   0  0  0  0  0  0  0  0  0  0  0  0
   41.0620   26.5250   44.7910 H   0  0  0  0  0  0  0  0  0  0  0  0
   40.1390   25.3520   43.9140 H   0  0  0  0  0  0  0  0  0  0  0  0
   39.5630   35.3070   40.6650 S   0  0  0  0  0  0  0  0  0  0  0  0
   40.9110   35.4710   39.4660 C   0  0  0  0  0  2  0  0  0  0  0  0
   42.1490   34.8780   40.0000 C   0  0  0  0  0  0  0  0  0  0  0  0
   43.0240   34.2740   39.2600 C   0  0  0  0  0  0  0  0  0  0  0  0
   44.2080   33.7120   39.7880 N   0  0  0  0  0  0  0  0  0  0  0  0
   45.1860   32.6860   39.8000 C   0  0  0  0  0  0  0  0  0  0  0  0
   45.4710   31.7120   39.0250 O   0  0  0  0  0  0  0  0  0  0  0  0
   45.7830   33.1560   41.0750 C   0  0  0  0  0  3  0  0  0  0  0  0
   46.8740   33.2740   40.9480 H   0  0  0  0  0  0  0  0  0  0  0  0
   44.9300   34.3640   40.8640 C   0  0  2  0  0  3  0  0  0  0  0  0
   43.7250   34.5240   42.2320 S   0  0  0  0  0  0  0  0  0  0  0  0
   42.2100   35.0840   41.4430 C   0  0  0  0  0  3  0  0  0  0  0  0
   42.1380   36.1920   41.6460 H   0  0  0  0  0  0  0  0  0  0  0  0
   42.7930   34.1630   37.8250 C   0  0  0  0  0  0  0  0  0  0  0  0
   42.7350   33.0670   37.1860 O   0  0  0  0  0  0  0  0  0  0  0  0
   42.5620   34.3340   36.4770 O   0  0  0  0  0  0  0  0  0  0  0  0
   42.6770   35.2020   35.9610 H   0  0  0  0  0  0  0  0  0  0  0  0
  1 23  1  0  0  0  0
  1  6  1  0  0  0  0
  2  1  2  0  0  0  0
  3  2  1  0  0  0  0
  3  4  2  0  0  0  0
  4  5  1  0  0  0  0
  5  6  2  0  0  0  0
  5  7  1  0  0  0  0
  7 15  1  0  0  0  0
  8  7  1  0  0  0  0
  8  9  2  0  0  0  0
  9 10  1  0  0  0  0
 10 11  1  0  0  0  0
 11 12  2  0  0  0  0
 11 20  1  0  0  0  0
 13 19  1  0  0  0  0
 13 12  1  0  0  0  0
 14 13  2  0  0  0  0
 15 14  1  0  0  0  0
 15 10  2  0  0  0  0
 16  2  1  0  0  0  0
 17  3  1  0  0  0  0
 18  8  1  0  0  0  0
 20 21  1  0  0  0  0
 22 20  1  0  0  0  0
 24 25  1  0  0  0  0
 24 23  1  0  0  0  0
 25 34  1  0  0  0  0
 26 27  1  0  0  0  0
 26 25  2  0  0  0  0
 27 28  1  0  0  0  0
 27 32  1  0  0  0  0
 28 30  1  0  0  0  0
 29 28  2  0  0  0  0
 31 30  1  0  0  0  0
 32 30  1  1  0  0  0
 32 33  1  0  0  0  0
 34 35  1  0  0  0  0
 34 33  1  0  0  0  0
 36 26  1  0  0  0  0
 37 36  2  0  0  0  0
 38 36  1  0  0  0  0
 39 38  1  0  0  0  0
M  END
>  <minimizedAffinity>
-7.37342834

$$$$

 OpenBabel03252504233D

 39 43  0  0  1  0  0  0  0  0999 V2000
   36.4630   29.9740   38.5300 C   0  0  0  0  0  0  0  0  0  0  0  0
   36.4880   29.9290   37.1370 C   0  0  0  0  0  0  0  0  0  0  0  0
   37.2920   30.8570   36.4440 C   0  0  0  0  0  0  0  0  0  0  0  0
   38.0000   31.7510   37.2060 N   0  0  0  0  0  0  0  0  0  0  0  0
   37.9420   31.7530   38.5530 C   0  0  0  0  0  0  0  0  0  0  0  0
   37.1830   30.8770   39.2120 N   0  0  0  0  0  0  0  0  0  0  0  0
   38.7180   32.7240   39.2570 N   0  0  0  0  0  0  0  0  0  0  0  0
   38.3100   33.4720   40.3040 C   0  0  0  0  0  0  0  0  0  0  0  0
   39.3380   34.2710   40.6900 N   0  0  0  0  0  0  0  0  0  0  0  0
   40.3530   34.0010   39.8780 C   0  0  0  0  0  0  0  0  0  0  0  0
   41.6450   34.4760   39.7640 C   0  0  0  0  0  0  0  0  0  0  0  0
   42.4980   34.0340   38.8400 N   0  0  0  0  0  0  0  0  0  0  0  0
   42.1450   33.0900   37.9530 C   0  0  0  0  0  0  0  0  0  0  0  0
   40.8960   32.6200   38.0500 N   0  0  0  0  0  0  0  0  0  0  0  0
   40.0010   33.0300   38.9590 C   0  0  0  0  0  0  0  0  0  0  0  0
   35.9060   29.1990   36.5630 H   0  0  0  0  0  0  0  0  0  0  0  0
   37.3350   30.8530   35.3720 H   0  0  0  0  0  0  0  0  0  0  0  0
   37.3090   33.4260   40.7540 H   0  0  0  0  0  0  0  0  0  0  0  0
   42.8490   32.7420   37.2090 H   0  0  0  0  0  0  0  0  0  0  0  0
   42.1550   35.4730   40.6310 N   0  0  0  0  0  0  0  0  0  0  0  0
   42.2290   35.3880   41.6820 H   0  0  0  0  0  0  0  0  0  0  0  0
   42.5070   36.3900   40.2980 H   0  0  0  0  0  0  0  0  0  0  0  0
   35.4010   28.7400   39.3200 S   0  0  0  0  0  0  0  0  0  0  0  0
   35.8440   28.5670   41.0690 C   0  0  0  0  0  2  0  0  0  0  0  0
   36.7450   27.4190   41.2590 C   0  0  0  0  0  0  0  0  0  0  0  0
   37.3430   27.1630   42.3800 C   0  0  0  0  0  0  0  0  0  0  0  0
   38.2040   26.0550   42.5470 N   0  0  0  0  0  0  0  0  0  0  0  0
   39.3740   25.4770   43.0990 C   0  0  0  0  0  0  0  0  0  0  0  0
   40.2130   25.8350   43.9930 O   0  0  0  0  0  0  0  0  0  0  0  0
   39.2780   24.2670   42.2460 C   0  0  0  0  0  3  0  0  0  0  0  0
   39.3390   23.3640   42.8800 H   0  0  0  0  0  0  0  0  0  0  0  0
   37.9170   24.7830   41.9120 C   0  0  2  0  0  3  0  0  0  0  0  0
   37.8100   25.1460   40.1210 S   0  0  0  0  0  0  0  0  0  0  0  0
   36.8390   26.6560   40.0190 C   0  0  0  0  0  3  0  0  0  0  0  0
   35.7970   26.3430   39.7170 H   0  0  0  0  0  0  0  0  0  0  0  0
   37.1290   28.0430   43.5220 C   0  0  0  0  0  0  0  0  0  0  0  0
   36.8290   27.6490   44.6920 O   0  0  0  0  0  0  0  0  0  0  0  0
   36.9820   29.0780   44.4220 O   0  0  0  0  0  0  0  0  0  0  0  0
   36.8580   30.0580   44.1830 H   0  0  0  0  0  0  0  0  0  0  0  0
  1  6  1  0  0  0  0
  1 23  1  0  0  0  0
  2  1  2  0  0  0  0
  3  2  1  0  0  0  0
  3  4  2  0  0  0  0
  4  5  1  0  0  0  0
  5  6  2  0  0  0  0
  5  7  1  0  0  0  0
  7  8  1  0  0  0  0
  8  9  2  0  0  0  0
  8 18  1  0  0  0  0
 10  9  1  0  0  0  0
 11 10  1  0  0  0  0
 11 20  1  0  0  0  0
 12 11  2  0  0  0  0
 13 14  2  0  0  0  0
 13 12  1  0  0  0  0
 14 15  1  0  0  0  0
 15  7  1  0  0  0  0
 15 10  2  0  0  0  0
 16  2  1  0  0  0  0
 17  3  1  0  0  0  0
 19 13  1  0  0  0  0
 20 21  1  0  0  0  0
 22 20  1  0  0  0  0
 23 24  1  0  0  0  0
 24 25  1  0  0  0  0
 25 26  2  0  0  0  0
 26 27  1  0  0  0  0
 26 36  1  0  0  0  0
 27 28  1  0  0  0  0
 28 29  2  0  0  0  0
 30 31  1  0  0  0  0
 30 28  1  0  0  0  0
 32 33  1  6  0  0  0
 32 30  1  0  0  0  0
 32 27  1  0  0  0  0
 34 33  1  0  0  0  0
 34 25  1  0  0  0  0
 35 34  1  0  0  0  0
 36 38  1  0  0  0  0
 36 37  2  0  0  0  0
 39 38  1  0  0  0  0
M  END
>  <minimizedAffinity>
-7.31743002

$$$$

 OpenBabel03252504233D

 39 43  0  0  1  0  0  0  0  0999 V2000
   36.4770   25.4170   39.6540 C   0  0  0  0  0  0  0  0  0  0  0  0
   35.9730   25.1150   38.3900 C   0  0  0  0  0  0  0  0  0  0  0  0
   35.5620   26.1730   37.5540 C   0  0  0  0  0  0  0  0  0  0  0  0
   35.6900   27.4420   38.0560 N   0  0  0  0  0  0  0  0  0  0  0  0
   36.1850   27.6830   39.2870 C   0  0  0  0  0  0  0  0  0  0  0  0
   36.5750   26.6850   40.0810 N   0  0  0  0  0  0  0  0  0  0  0  0
   36.2800   29.0410   39.7200 N   0  0  0  0  0  0  0  0  0  0  0  0
   35.9320   29.5240   40.9320 C   0  0  0  0  0  0  0  0  0  0  0  0
   36.1730   30.8600   40.9490 N   0  0  0  0  0  0  0  0  0  0  0  0
   36.6610   31.1720   39.7550 C   0  0  0  0  0  0  0  0  0  0  0  0
   37.0890   32.3480   39.1690 C   0  0  0  0  0  0  0  0  0  0  0  0
   37.5510   32.4060   37.9200 N   0  0  0  0  0  0  0  0  0  0  0  0
   37.6270   31.3100   37.1480 C   0  0  0  0  0  0  0  0  0  0  0  0
   37.2150   30.1630   37.7010 N   0  0  0  0  0  0  0  0  0  0  0  0
   36.7440   30.0520   38.9500 C   0  0  0  0  0  0  0  0  0  0  0  0
   35.8850   24.0850   38.0240 H   0  0  0  0  0  0  0  0  0  0  0  0
   35.1690   25.9780   36.5750 H   0  0  0  0  0  0  0  0  0  0  0  0
   35.5240   28.9180   41.7530 H   0  0  0  0  0  0  0  0  0  0  0  0
   38.0040   31.3740   36.1350 H   0  0  0  0  0  0  0  0  0  0  0  0
   37.0660   33.5820   39.8640 N   0  0  0  0  0  0  0  0  0  0  0  0
   37.5850   33.7860   40.7620 H   0  0  0  0  0  0  0  0  0  0  0  0
   36.5260   34.4070   39.5400 H   0  0  0  0  0  0  0  0  0  0  0  0
   36.9760   23.9870   40.6450 S   0  0  0  0  0  0  0  0  0  0  0  0
   37.3350   24.5040   42.3440 C   0  0  0  0  0  2  0  0  0  0  0  0
   38.5370   25.3540   42.3800 C   0  0  0  0  0  0  0  0  0  0  0  0
   38.5470   26.5520   42.8740 C   0  0  0  0  0  0  0  0  0  0  0  0
   39.7090   27.3530   42.9010 N   0  0  0  0  0  0  0  0  0  0  0  0
   40.3360   28.6200   42.7870 C   0  0  0  0  0  0  0  0  0  0  0  0
   39.9150   29.8240   42.7320 O   0  0  0  0  0  0  0  0  0  0  0  0
   41.6990   28.0350   42.7540 C   0  0  0  0  0  3  0  0  0  0  0  0
   42.3320   28.5350   43.5090 H   0  0  0  0  0  0  0  0  0  0  0  0
   41.0130   26.7710   43.1590 C   0  0  2  0  0  3  0  0  0  0  0  0
   41.2410   25.4960   41.8650 S   0  0  0  0  0  0  0  0  0  0  0  0
   39.6630   24.6390   41.7880 C   0  0  0  0  0  3  0  0  0  0  0  0
   39.8010   23.6690   42.3500 H   0  0  0  0  0  0  0  0  0  0  0  0
   37.3170   27.1070   43.4260 C   0  0  0  0  0  0  0  0  0  0  0  0
   37.2660   27.9160   44.4040 O   0  0  0  0  0  0  0  0  0  0  0  0
   36.0310   27.4820   43.7520 O   0  0  0  0  0  0  0  0  0  0  0  0
   35.1820   27.0060   43.4580 H   0  0  0  0  0  0  0  0  0  0  0  0
  1  6  1  0  0  0  0
  1 23  1  0  0  0  0
  2  1  2  0  0  0  0
  3  4  2  0  0  0  0
  3  2  1  0  0  0  0
  4  5  1  0  0  0  0
  5  7  1  0  0  0  0
  5  6  2  0  0  0  0
  7  8  1  0  0  0  0
  8  9  2  0  0  0  0
  8 18  1  0  0  0  0
 10  9  1  0  0  0  0
 11 10  1  0  0  0  0
 11 20  1  0  0  0  0
 12 11  2  0  0  0  0
 13 14  2  0  0  0  0
 13 12  1  0  0  0  0
 14 15  1  0  0  0  0
 15  7  1  0  0  0  0
 15 10  2  0  0  0  0
 16  2  1  0  0  0  0
 17  3  1  0  0  0  0
 19 13  1  0  0  0  0
 20 21  1  0  0  0  0
 22 20  1  0  0  0  0
 23 24  1  0  0  0  0
 24 25  1  0  0  0  0
 25 26  2  0  0  0  0
 26 27  1  0  0  0  0
 26 36  1  0  0  0  0
 27 32  1  0  0  0  0
 28 27  1  0  0  0  0
 29 28  2  0  0  0  0
 30 28  1  0  0  0  0
 30 32  1  0  0  0  0
 30 31  1  0  0  0  0
 32 33  1  6  0  0  0
 34 33  1  0  0  0  0
 34 35  1  0  0  0  0
 34 25  1  0  0  0  0
 36 38  1  0  0  0  0
 36 37  2  0  0  0  0
 39 38  1  0  0  0  0
M  END
>  <minimizedAffinity>
-6.93060637

$$$$

 OpenBabel03252504233D

 39 43  0  0  1  0  0  0  0  0999 V2000
   37.3340   31.0760   39.6630 C   0  0  0  0  0  0  0  0  0  0  0  0
   36.9510   30.5850   38.4160 C   0  0  0  0  0  0  0  0  0  0  0  0
   37.7240   30.9250   37.2870 C   0  0  0  0  0  0  0  0  0  0  0  0
   38.8140   31.7270   37.5040 N   0  0  0  0  0  0  0  0  0  0  0  0
   39.1450   32.1760   38.7320 C   0  0  0  0  0  0  0  0  0  0  0  0
   38.4160   31.8580   39.8020 N   0  0  0  0  0  0  0  0  0  0  0  0
   40.3010   33.0060   38.8550 N   0  0  0  0  0  0  0  0  0  0  0  0
   40.4020   34.1390   39.5830 C   0  0  0  0  0  0  0  0  0  0  0  0
   41.6590   34.6310   39.4400 N   0  0  0  0  0  0  0  0  0  0  0  0
   42.3030   33.7980   38.6330 C   0  0  0  0  0  0  0  0  0  0  0  0
   43.5850   33.7570   38.1190 C   0  0  0  0  0  0  0  0  0  0  0  0
   44.0050   32.7890   37.3040 N   0  0  0  0  0  0  0  0  0  0  0  0
   43.1960   31.7850   36.9310 C   0  0  0  0  0  0  0  0  0  0  0  0
   41.9510   31.8110   37.4210 N   0  0  0  0  0  0  0  0  0  0  0  0
   41.4800   32.7590   38.2410 C   0  0  0  0  0  0  0  0  0  0  0  0
   36.0690   29.9460   38.2820 H   0  0  0  0  0  0  0  0  0  0  0  0
   37.4580   30.5660   36.3120 H   0  0  0  0  0  0  0  0  0  0  0  0
   39.5900   34.5710   40.1850 H   0  0  0  0  0  0  0  0  0  0  0  0
   43.5530   31.0060   36.2690 H   0  0  0  0  0  0  0  0  0  0  0  0
   44.5470   34.7500   38.4260 N   0  0  0  0  0  0  0  0  0  0  0  0
   44.8940   34.9840   39.3970 H   0  0  0  0  0  0  0  0  0  0  0  0
   45.0020   35.3430   37.7060 H   0  0  0  0  0  0  0  0  0  0  0  0
   36.2740   30.5810   41.0440 S   0  0  0  0  0  0  0  0  0  0  0  0
   35.7040   28.8780   40.8100 C   0  0  0  0  0  2  0  0  0  0  0  0
   36.6560   27.9300   41.4120 C   0  0  0  0  0  0  0  0  0  0  0  0
   37.0180   26.8250   40.8390 C   0  0  0  0  0  0  0  0  0  0  0  0
   37.9340   25.9270   41.4300 N   0  0  0  0  0  0  0  0  0  0  0  0
   38.3650   24.6020   41.6940 C   0  0  0  0  0  0  0  0  0  0  0  0
   38.0430   23.4510   41.2450 O   0  0  0  0  0  0  0  0  0  0  0  0
   39.3550   25.0380   42.7080 C   0  0  0  0  0  3  0  0  0  0  0  0
   40.3410   24.5990   42.4720 H   0  0  0  0  0  0  0  0  0  0  0  0
   39.0710   26.4100   42.1910 C   0  0  2  0  0  3  0  0  0  0  0  0
   38.3600   27.4450   43.5230 S   0  0  0  0  0  0  0  0  0  0  0  0
   37.0970   28.4320   42.7090 C   0  0  0  0  0  3  0  0  0  0  0  0
   37.5450   29.4580   42.5570 H   0  0  0  0  0  0  0  0  0  0  0  0
   36.4680   26.4840   39.5320 C   0  0  0  0  0  0  0  0  0  0  0  0
   36.0620   25.3280   39.1990 O   0  0  0  0  0  0  0  0  0  0  0  0
   35.9930   26.4290   38.2390 O   0  0  0  0  0  0  0  0  0  0  0  0
   36.1630   27.1210   37.5140 H   0  0  0  0  0  0  0  0  0  0  0  0
  1  6  1  0  0  0  0
  1 23  1  0  0  0  0
  2  1  2  0  0  0  0
  3  4  2  0  0  0  0
  3  2  1  0  0  0  0
  4  5  1  0  0  0  0
  5  7  1  0  0  0  0
  5  6  2  0  0  0  0
  7  8  1  0  0  0  0
  8 18  1  0  0  0  0
  9  8  2  0  0  0  0
 10  9  1  0  0  0  0
 11 20  1  0  0  0  0
 11 10  2  0  0  0  0
 12 11  1  0  0  0  0
 13 12  2  0  0  0  0
 13 14  1  0  0  0  0
 14 15  2  0  0  0  0
 15 10  1  0  0  0  0
 15  7  1  0  0  0  0
 16  2  1  0  0  0  0
 17  3  1  0  0  0  0
 19 13  1  0  0  0  0
 20 21  1  0  0  0  0
 22 20  1  0  0  0  0
 24 23  1  0  0  0  0
 24 25  1  0  0  0  0
 25 34  1  0  0  0  0
 26 25  2  0  0  0  0
 26 27  1  0  0  0  0
 27 28  1  0  0  0  0
 27 32  1  0  0  0  0
 28 30  1  0  0  0  0
 29 28  2  0  0  0  0
 31 30  1  0  0  0  0
 32 30  1  1  0  0  0
 32 33  1  0  0  0  0
 34 33  1  0  0  0  0
 35 34  1  0  0  0  0
 36 26  1  0  0  0  0
 37 36  2  0  0  0  0
 38 36  1  0  0  0  0
 39 38  1  0  0  0  0
M  END
>  <minimizedAffinity>
-6.85951948

$$$$

 OpenBabel03252504233D

 39 43  0  0  1  0  0  0  0  0999 V2000
   37.4840   30.5760   39.4940 C   0  0  0  0  0  0  0  0  0  0  0  0
   36.8440   31.7830   39.7670 C   0  0  0  0  0  0  0  0  0  0  0  0
   37.6270   32.9410   39.9480 C   0  0  0  0  0  0  0  0  0  0  0  0
   38.9860   32.7890   39.8380 N   0  0  0  0  0  0  0  0  0  0  0  0
   39.5590   31.5980   39.5700 C   0  0  0  0  0  0  0  0  0  0  0  0
   38.8210   30.5010   39.4000 N   0  0  0  0  0  0  0  0  0  0  0  0
   40.9830   31.5440   39.4750 N   0  0  0  0  0  0  0  0  0  0  0  0
   41.7890   30.6040   40.0150 C   0  0  0  0  0  0  0  0  0  0  0  0
   43.0740   30.9060   39.6990 N   0  0  0  0  0  0  0  0  0  0  0  0
   43.0350   32.0180   38.9760 C   0  0  0  0  0  0  0  0  0  0  0  0
   43.9970   32.8060   38.3740 C   0  0  0  0  0  0  0  0  0  0  0  0
   43.7000   33.9060   37.6820 N   0  0  0  0  0  0  0  0  0  0  0  0
   42.4310   34.3180   37.5300 C   0  0  0  0  0  0  0  0  0  0  0  0
   41.4880   33.5650   38.1080 N   0  0  0  0  0  0  0  0  0  0  0  0
   41.7340   32.4530   38.8120 C   0  0  0  0  0  0  0  0  0  0  0  0
   35.7530   31.8630   39.8490 H   0  0  0  0  0  0  0  0  0  0  0  0
   37.1690   33.8860   40.1610 H   0  0  0  0  0  0  0  0  0  0  0  0
   41.4400   29.7460   40.6070 H   0  0  0  0  0  0  0  0  0  0  0  0
   42.2060   35.2140   36.9650 H   0  0  0  0  0  0  0  0  0  0  0  0
   45.3770   32.4940   38.4500 N   0  0  0  0  0  0  0  0  0  0  0  0
   45.8210   31.6010   38.0990 H   0  0  0  0  0  0  0  0  0  0  0  0
   46.0810   33.1310   38.8680 H   0  0  0  0  0  0  0  0  0  0  0  0
   36.3870   29.1530   39.2800 S   0  0  0  0  0  0  0  0  0  0  0  0
   36.0090   28.4120   40.8900 C   0  0  0  0  0  2  0  0  0  0  0  0
   36.9450   27.3130   41.1820 C   0  0  0  0  0  0  0  0  0  0  0  0
   37.4990   27.1410   42.3410 C   0  0  0  0  0  0  0  0  0  0  0  0
   38.3930   26.0800   42.6050 N   0  0  0  0  0  0  0  0  0  0  0  0
   39.5580   25.5800   43.2400 C   0  0  0  0  0  0  0  0  0  0  0  0
   40.3380   26.0180   44.1510 O   0  0  0  0  0  0  0  0  0  0  0  0
   39.5510   24.3250   42.4490 C   0  0  0  0  0  3  0  0  0  0  0  0
   39.6170   23.4600   43.1320 H   0  0  0  0  0  0  0  0  0  0  0  0
   38.1880   24.7660   42.0260 C   0  0  2  0  0  3  0  0  0  0  0  0
   38.1520   25.0320   40.2160 S   0  0  0  0  0  0  0  0  0  0  0  0
   37.1280   26.4930   39.9900 C   0  0  0  0  0  3  0  0  0  0  0  0
   36.1150   26.1220   39.6560 H   0  0  0  0  0  0  0  0  0  0  0  0
   37.1950   28.0680   43.4240 C   0  0  0  0  0  0  0  0  0  0  0  0
   36.5140   27.7760   44.4550 O   0  0  0  0  0  0  0  0  0  0  0  0
   37.0550   29.1250   44.2970 O   0  0  0  0  0  0  0  0  0  0  0  0
   37.2260   30.1030   44.0780 H   0  0  0  0  0  0  0  0  0  0  0  0
  1  2  1  0  0  0  0
  2 16  1  0  0  0  0
  2  3  2  0  0  0  0
  3 17  1  0  0  0  0
  4  3  1  0  0  0  0
  5  4  2  0  0  0  0
  6  1  2  0  0  0  0
  6  5  1  0  0  0  0
  7  5  1  0  0  0  0
  7  8  1  0  0  0  0
  8 18  1  0  0  0  0
  9  8  2  0  0  0  0
 10  9  1  0  0  0  0
 11 20  1  0  0  0  0
 11 10  2  0  0  0  0
 12 11  1  0  0  0  0
 13 12  2  0  0  0  0
 13 14  1  0  0  0  0
 14 15  2  0  0  0  0
 15 10  1  0  0  0  0
 15  7  1  0  0  0  0
 19 13  1  0  0  0  0
 20 22  1  0  0  0  0
 21 20  1  0  0  0  0
 23  1  1  0  0  0  0
 23 24  1  0  0  0  0
 24 25  1  0  0  0  0
 25 26  2  0  0  0  0
 26 27  1  0  0  0  0
 26 36  1  0  0  0  0
 27 28  1  0  0  0  0
 28 29  2  0  0  0  0
 30 31  1  0  0  0  0
 30 28  1  0  0  0  0
 32 33  1  6  0  0  0
 32 30  1  0  0  0  0
 32 27  1  0  0  0  0
 34 33  1  0  0  0  0
 34 25  1  0  0  0  0
 35 34  1  0  0  0  0
 36 38  1  0  0  0  0
 36 37  2  0  0  0  0
 39 38  1  0  0  0  0
M  END
>  <minimizedAffinity>
-6.83957195

$$$$

 OpenBabel03252504233D

 39 43  0  0  1  0  0  0  0  0999 V2000
   37.7170   30.1300   39.3730 C   0  0  0  0  0  0  0  0  0  0  0  0
   37.0410   31.2660   38.9340 C   0  0  0  0  0  0  0  0  0  0  0  0
   37.4970   32.5320   39.3550 C   0  0  0  0  0  0  0  0  0  0  0  0
   38.5920   32.5500   40.1810 N   0  0  0  0  0  0  0  0  0  0  0  0
   39.2130   31.4210   40.5780 C   0  0  0  0  0  0  0  0  0  0  0  0
   38.7840   30.2220   40.1820 N   0  0  0  0  0  0  0  0  0  0  0  0
   40.3460   31.5440   41.4380 N   0  0  0  0  0  0  0  0  0  0  0  0
   40.6070   30.8020   42.5350 C   0  0  0  0  0  0  0  0  0  0  0  0
   41.7780   31.2270   43.0760 N   0  0  0  0  0  0  0  0  0  0  0  0
   42.2130   32.2170   42.3060 C   0  0  0  0  0  0  0  0  0  0  0  0
   43.3230   33.0380   42.3330 C   0  0  0  0  0  0  0  0  0  0  0  0
   43.5430   33.9860   41.4220 N   0  0  0  0  0  0  0  0  0  0  0  0
   42.6850   34.2010   40.4120 C   0  0  0  0  0  0  0  0  0  0  0  0
   41.6040   33.4130   40.3720 N   0  0  0  0  0  0  0  0  0  0  0  0
   41.3370   32.4480   41.2620 C   0  0  0  0  0  0  0  0  0  0  0  0
   36.1670   31.2100   38.2740 H   0  0  0  0  0  0  0  0  0  0  0  0
   37.0000   33.4280   39.0370 H   0  0  0  0  0  0  0  0  0  0  0  0
   39.9650   29.9920   42.9100 H   0  0  0  0  0  0  0  0  0  0  0  0
   42.8780   34.9740   39.6800 H   0  0  0  0  0  0  0  0  0  0  0  0
   44.3130   32.9260   43.3410 N   0  0  0  0  0  0  0  0  0  0  0  0
   44.8890   32.0620   43.5360 H   0  0  0  0  0  0  0  0  0  0  0  0
   44.5590   33.7020   43.9840 H   0  0  0  0  0  0  0  0  0  0  0  0
   37.0510   28.5570   38.7750 S   0  0  0  0  0  0  0  0  0  0  0  0
   36.2290   27.6750   40.1270 C   0  0  0  0  0  2  0  0  0  0  0  0
   37.1670   26.7470   40.7810 C   0  0  0  0  0  0  0  0  0  0  0  0
   37.6730   26.9580   41.9550 C   0  0  0  0  0  0  0  0  0  0  0  0
   38.5710   26.0570   42.5680 N   0  0  0  0  0  0  0  0  0  0  0  0
   39.7150   25.8100   43.3700 C   0  0  0  0  0  0  0  0  0  0  0  0
   40.4490   26.5310   44.1270 O   0  0  0  0  0  0  0  0  0  0  0  0
   39.7600   24.3720   43.0080 C   0  0  0  0  0  3  0  0  0  0  0  0
   39.8100   23.7630   43.9280 H   0  0  0  0  0  0  0  0  0  0  0  0
   38.4100   24.6220   42.4200 C   0  0  2  0  0  3  0  0  0  0  0  0
   38.4480   24.3130   40.6160 S   0  0  0  0  0  0  0  0  0  0  0  0
   37.4140   25.6030   39.9100 C   0  0  0  0  0  3  0  0  0  0  0  0
   36.4220   25.1190   39.6730 H   0  0  0  0  0  0  0  0  0  0  0  0
   37.3100   28.1670   42.6840 C   0  0  0  0  0  0  0  0  0  0  0  0
   37.1100   28.2230   43.9370 O   0  0  0  0  0  0  0  0  0  0  0  0
   36.9790   29.4310   43.1250 O   0  0  0  0  0  0  0  0  0  0  0  0
   36.6640   30.2000   42.5390 H   0  0  0  0  0  0  0  0  0  0  0  0
  1  6  1  0  0  0  0
  2  3  1  0  0  0  0
  2  1  2  0  0  0  0
  3  4  2  0  0  0  0
  4  5  1  0  0  0  0
  5  7  1  0  0  0  0
  6  5  2  0  0  0  0
  7  8  1  0  0  0  0
  8 18  1  0  0  0  0
  8  9  2  0  0  0  0
 10 11  1  0  0  0  0
 10  9  1  0  0  0  0
 11 20  1  0  0  0  0
 12 11  2  0  0  0  0
 13 12  1  0  0  0  0
 14 13  2  0  0  0  0
 14 15  1  0  0  0  0
 15  7  1  0  0  0  0
 15 10  2  0  0  0  0
 16  2  1  0  0  0  0
 17  3  1  0  0  0  0
 19 13  1  0  0  0  0
 20 21  1  0  0  0  0
 20 22  1  0  0  0  0
 23  1  1  0  0  0  0
 23 24  1  0  0  0  0
 24 25  1  0  0  0  0
 25 26  2  0  0  0  0
 26 27  1  0  0  0  0
 26 36  1  0  0  0  0
 27 28  1  0  0  0  0
 28 29  2  0  0  0  0
 30 28  1  0  0  0  0
 30 31  1  0  0  0  0
 32 33  1  6  0  0  0
 32 27  1  0  0  0  0
 32 30  1  0  0  0  0
 34 33  1  0  0  0  0
 34 25  1  0  0  0  0
 35 34  1  0  0  0  0
 36 38  1  0  0  0  0
 36 37  2  0  0  0  0
 39 38  1  0  0  0  0
M  END
>  <minimizedAffinity>
-6.80346107

$$$$

 OpenBabel03252504233D

 39 43  0  0  1  0  0  0  0  0999 V2000
   38.9710   33.4470   40.4780 C   0  0  0  0  0  0  0  0  0  0  0  0
   37.9790   33.2350   39.5230 C   0  0  0  0  0  0  0  0  0  0  0  0
   37.5000   31.9240   39.3210 C   0  0  0  0  0  0  0  0  0  0  0  0
   38.0580   30.9380   40.0950 N   0  0  0  0  0  0  0  0  0  0  0  0
   39.0170   31.1940   41.0080 C   0  0  0  0  0  0  0  0  0  0  0  0
   39.4720   32.4330   41.2000 N   0  0  0  0  0  0  0  0  0  0  0  0
   39.5340   30.0990   41.7640 N   0  0  0  0  0  0  0  0  0  0  0  0
   40.8330   29.8570   42.0410 C   0  0  0  0  0  0  0  0  0  0  0  0
   40.9120   28.7220   42.7830 N   0  0  0  0  0  0  0  0  0  0  0  0
   39.6670   28.2910   42.9480 C   0  0  0  0  0  0  0  0  0  0  0  0
   39.1040   27.2090   43.5960 C   0  0  0  0  0  0  0  0  0  0  0  0
   37.7900   26.9860   43.6200 N   0  0  0  0  0  0  0  0  0  0  0  0
   36.9260   27.8120   43.0060 C   0  0  0  0  0  0  0  0  0  0  0  0
   37.4570   28.8640   42.3730 N   0  0  0  0  0  0  0  0  0  0  0  0
   38.7690   29.1320   42.3200 C   0  0  0  0  0  0  0  0  0  0  0  0
   37.5580   34.0500   38.9230 H   0  0  0  0  0  0  0  0  0  0  0  0
   36.7380   31.7240   38.5950 H   0  0  0  0  0  0  0  0  0  0  0  0
   41.6720   30.4860   41.7110 H   0  0  0  0  0  0  0  0  0  0  0  0
   35.8620   27.6160   43.0340 H   0  0  0  0  0  0  0  0  0  0  0  0
   39.8920   26.2560   44.2860 N   0  0  0  0  0  0  0  0  0  0  0  0
   40.5330   26.4680   45.0990 H   0  0  0  0  0  0  0  0  0  0  0  0
   39.9040   25.2470   44.0450 H   0  0  0  0  0  0  0  0  0  0  0  0
   39.5140   35.1640   40.6570 S   0  0  0  0  0  0  0  0  0  0  0  0
   40.9560   35.4730   39.6040 C   0  0  0  0  0  2  0  0  0  0  0  0
   41.7290   34.2350   39.4160 C   0  0  0  0  0  0  0  0  0  0  0  0
   42.5730   33.7840   40.2900 C   0  0  0  0  0  0  0  0  0  0  0  0
   43.3070   32.5930   40.0950 N   0  0  0  0  0  0  0  0  0  0  0  0
   44.5050   31.8470   40.2330 C   0  0  0  0  0  0  0  0  0  0  0  0
   45.5910   32.0110   40.8840 O   0  0  0  0  0  0  0  0  0  0  0  0
   44.0360   30.7710   39.3250 C   0  0  0  0  0  3  0  0  0  0  0  0
   44.1570   29.7920   39.8220 H   0  0  0  0  0  0  0  0  0  0  0  0
   42.7080   31.4440   39.4440 C   0  0  2  0  0  3  0  0  0  0  0  0
   42.1640   32.0440   37.8020 S   0  0  0  0  0  0  0  0  0  0  0  0
   41.3920   33.6340   38.1300 C   0  0  0  0  0  3  0  0  0  0  0  0
   40.2770   33.4560   38.1050 H   0  0  0  0  0  0  0  0  0  0  0  0
   42.7840   34.5240   41.5290 C   0  0  0  0  0  0  0  0  0  0  0  0
   43.5090   34.1280   42.4930 O   0  0  0  0  0  0  0  0  0  0  0  0
   42.8160   35.4120   42.5830 O   0  0  0  0  0  0  0  0  0  0  0  0
   42.1610   36.1740   42.7370 H   0  0  0  0  0  0  0  0  0  0  0  0
  1 23  1  0  0  0  0
  1  6  1  0  0  0  0
  2  1  2  0  0  0  0
  3  2  1  0  0  0  0
  3  4  2  0  0  0  0
  4  5  1  0  0  0  0
  5  6  2  0  0  0  0
  5  7  1  0  0  0  0
  7  8  1  0  0  0  0
  7 15  1  0  0  0  0
  8  9  2  0  0  0  0
  9 10  1  0  0  0  0
 10 11  1  0  0  0  0
 11 12  2  0  0  0  0
 11 20  1  0  0  0  0
 13 19  1  0  0  0  0
 13 12  1  0  0  0  0
 14 13  2  0  0  0  0
 15 14  1  0  0  0  0
 15 10  2  0  0  0  0
 16  2  1  0  0  0  0
 17  3  1  0  0  0  0
 18  8  1  0  0  0  0
 20 21  1  0  0  0  0
 22 20  1  0  0  0  0
 24 23  1  0  0  0  0
 25 24  1  0  0  0  0
 25 26  2  0  0  0  0
 26 36  1  0  0  0  0
 27 28  1  0  0  0  0
 27 26  1  0  0  0  0
 28 29  2  0  0  0  0
 30 32  1  0  0  0  0
 30 31  1  0  0  0  0
 30 28  1  0  0  0  0
 32 33  1  6  0  0  0
 32 27  1  0  0  0  0
 33 34  1  0  0  0  0
 34 25  1  0  0  0  0
 35 34  1  0  0  0  0
 36 37  2  0  0  0  0
 36 38  1  0  0  0  0
 38 39  1  0  0  0  0
M  END
>  <minimizedAffinity>
-6.60801077

$$$$

 OpenBabel03252504233D

 39 43  0  0  1  0  0  0  0  0999 V2000
   37.8350   29.3990   37.6680 C   0  0  0  0  0  0  0  0  0  0  0  0
   37.1790   30.3280   36.8620 C   0  0  0  0  0  0  0  0  0  0  0  0
   37.3960   31.7010   37.0960 C   0  0  0  0  0  0  0  0  0  0  0  0
   38.2510   32.0260   38.1170 N   0  0  0  0  0  0  0  0  0  0  0  0
   38.8630   31.0890   38.8700 C   0  0  0  0  0  0  0  0  0  0  0  0
   38.6600   29.7890   38.6520 N   0  0  0  0  0  0  0  0  0  0  0  0
   39.7370   31.5280   39.9110 N   0  0  0  0  0  0  0  0  0  0  0  0
   39.7940   31.0440   41.1700 C   0  0  0  0  0  0  0  0  0  0  0  0
   40.7520   31.7240   41.8510 N   0  0  0  0  0  0  0  0  0  0  0  0
   41.2630   32.6080   41.0030 C   0  0  0  0  0  0  0  0  0  0  0  0
   42.2490   33.5700   41.0980 C   0  0  0  0  0  0  0  0  0  0  0  0
   42.5910   34.3570   40.0780 N   0  0  0  0  0  0  0  0  0  0  0  0
   41.9870   34.2590   38.8830 C   0  0  0  0  0  0  0  0  0  0  0  0
   41.0290   33.3310   38.7750 N   0  0  0  0  0  0  0  0  0  0  0  0
   40.6490   32.5170   39.7690 C   0  0  0  0  0  0  0  0  0  0  0  0
   36.5010   30.0280   36.0550 H   0  0  0  0  0  0  0  0  0  0  0  0
   36.9070   32.4440   36.4960 H   0  0  0  0  0  0  0  0  0  0  0  0
   39.1610   30.2330   41.5570 H   0  0  0  0  0  0  0  0  0  0  0  0
   42.2760   34.9050   38.0640 H   0  0  0  0  0  0  0  0  0  0  0  0
   42.9710   33.7870   42.2980 N   0  0  0  0  0  0  0  0  0  0  0  0
   43.5630   33.0640   42.7920 H   0  0  0  0  0  0  0  0  0  0  0  0
   42.9780   34.6940   42.8010 H   0  0  0  0  0  0  0  0  0  0  0  0
   37.4880   27.6650   37.2850 S   0  0  0  0  0  0  0  0  0  0  0  0
   36.3880   26.9590   38.5390 C   0  0  0  0  0  2  0  0  0  0  0  0
   37.0760   26.8750   39.8380 C   0  0  0  0  0  0  0  0  0  0  0  0
   36.8220   27.6690   40.8300 C   0  0  0  0  0  0  0  0  0  0  0  0
   37.4910   27.5730   42.0700 N   0  0  0  0  0  0  0  0  0  0  0  0
   38.0750   28.1900   43.2060 C   0  0  0  0  0  0  0  0  0  0  0  0
   38.0740   29.3750   43.6800 O   0  0  0  0  0  0  0  0  0  0  0  0
   38.7080   26.9290   43.6670 C   0  0  0  0  0  3  0  0  0  0  0  0
   38.4500   26.7540   44.7260 H   0  0  0  0  0  0  0  0  0  0  0  0
   37.8470   26.2840   42.6310 C   0  0  2  0  0  3  0  0  0  0  0  0
   38.8920   25.4740   41.3660 S   0  0  0  0  0  0  0  0  0  0  0  0
   38.0500   25.7890   39.8090 C   0  0  0  0  0  3  0  0  0  0  0  0
   37.5070   24.8340   39.5440 H   0  0  0  0  0  0  0  0  0  0  0  0
   35.8080   28.7050   40.6750 C   0  0  0  0  0  0  0  0  0  0  0  0
   36.0060   29.9440   40.8710 O   0  0  0  0  0  0  0  0  0  0  0  0
   34.6850   29.4740   40.4580 O   0  0  0  0  0  0  0  0  0  0  0  0
   33.7300   29.1270   40.4040 H   0  0  0  0  0  0  0  0  0  0  0  0
  1  6  1  0  0  0  0
  2  3  1  0  0  0  0
  2  1  2  0  0  0  0
  3  4  2  0  0  0  0
  4  5  1  0  0  0  0
  5  7  1  0  0  0  0
  6  5  2  0  0  0  0
  7  8  1  0  0  0  0
  8 18  1  0  0  0  0
  8  9  2  0  0  0  0
 10 11  1  0  0  0  0
 10  9  1  0  0  0  0
 11 20  1  0  0  0  0
 12 11  2  0  0  0  0
 13 12  1  0  0  0  0
 14 13  2  0  0  0  0
 14 15  1  0  0  0  0
 15  7  1  0  0  0  0
 15 10  2  0  0  0  0
 16  2  1  0  0  0  0
 17  3  1  0  0  0  0
 19 13  1  0  0  0  0
 20 21  1  0  0  0  0
 20 22  1  0  0  0  0
 23  1  1  0  0  0  0
 23 24  1  0  0  0  0
 24 25  1  0  0  0  0
 25 26  2  0  0  0  0
 26 27  1  0  0  0  0
 27 32  1  0  0  0  0
 27 28  1  0  0  0  0
 28 30  1  0  0  0  0
 28 29  2  0  0  0  0
 30 31  1  0  0  0  0
 32 33  1  6  0  0  0
 32 30  1  0  0  0  0
 34 25  1  0  0  0  0
 34 33  1  0  0  0  0
 35 34  1  0  0  0  0
 36 26  1  0  0  0  0
 36 37  2  0  0  0  0
 38 36  1  0  0  0  0
 39 38  1  0  0  0  0
M  END
>  <minimizedAffinity>
-6.49487972

$$$$

 OpenBabel03252504233D

 39 43  0  0  1  0  0  0  0  0999 V2000
   37.7840   27.2070   39.5870 C   0  0  0  0  0  0  0  0  0  0  0  0
   38.5790   26.8200   38.5090 C   0  0  0  0  0  0  0  0  0  0  0  0
   39.2160   27.8190   37.7440 C   0  0  0  0  0  0  0  0  0  0  0  0
   39.0010   29.1180   38.1250 N   0  0  0  0  0  0  0  0  0  0  0  0
   38.2230   29.4420   39.1770 C   0  0  0  0  0  0  0  0  0  0  0  0
   37.6180   28.5010   39.9030 N   0  0  0  0  0  0  0  0  0  0  0  0
   38.0620   30.8250   39.4940 N   0  0  0  0  0  0  0  0  0  0  0  0
   36.9060   31.4470   39.8130 C   0  0  0  0  0  0  0  0  0  0  0  0
   37.1720   32.7580   40.0460 N   0  0  0  0  0  0  0  0  0  0  0  0
   38.4780   32.9170   39.8670 C   0  0  0  0  0  0  0  0  0  0  0  0
   39.3340   33.9970   39.9540 C   0  0  0  0  0  0  0  0  0  0  0  0
   40.6430   33.9010   39.7210 N   0  0  0  0  0  0  0  0  0  0  0  0
   41.2120   32.7330   39.3820 C   0  0  0  0  0  0  0  0  0  0  0  0
   40.3950   31.6770   39.2940 N   0  0  0  0  0  0  0  0  0  0  0  0
   39.0750   31.7210   39.5180 C   0  0  0  0  0  0  0  0  0  0  0  0
   38.7250   25.7690   38.2350 H   0  0  0  0  0  0  0  0  0  0  0  0
   39.8340   27.5580   36.9080 H   0  0  0  0  0  0  0  0  0  0  0  0
   35.9260   30.9540   39.8700 H   0  0  0  0  0  0  0  0  0  0  0  0
   42.2770   32.6710   39.1960 H   0  0  0  0  0  0  0  0  0  0  0  0
   38.8750   35.2910   40.3010 N   0  0  0  0  0  0  0  0  0  0  0  0
   38.3890   35.5440   41.2060 H   0  0  0  0  0  0  0  0  0  0  0  0
   38.9800   36.1170   39.6820 H   0  0  0  0  0  0  0  0  0  0  0  0
   37.0140   25.8490   40.5010 S   0  0  0  0  0  0  0  0  0  0  0  0
   37.2350   26.0940   42.2820 C   0  0  0  0  0  2  0  0  0  0  0  0
   38.6600   26.2740   42.6040 C   0  0  0  0  0  0  0  0  0  0  0  0
   39.1510   27.3810   43.0650 C   0  0  0  0  0  0  0  0  0  0  0  0
   40.5210   27.5360   43.3700 N   0  0  0  0  0  0  0  0  0  0  0  0
   41.6960   28.3300   43.3960 C   0  0  0  0  0  0  0  0  0  0  0  0
   41.9410   29.5710   43.2180 O   0  0  0  0  0  0  0  0  0  0  0  0
   42.5700   27.1740   43.7140 C   0  0  0  0  0  3  0  0  0  0  0  0
   43.1910   27.4140   44.5940 H   0  0  0  0  0  0  0  0  0  0  0  0
   41.2860   26.4500   43.9540 C   0  0  2  0  0  3  0  0  0  0  0  0
   41.1260   25.0560   42.7790 S   0  0  0  0  0  0  0  0  0  0  0  0
   39.3870   25.0400   42.3230 C   0  0  0  0  0  3  0  0  0  0  0  0
   38.9110   24.2060   42.9170 H   0  0  0  0  0  0  0  0  0  0  0  0
   38.2660   28.5190   43.2840 C   0  0  0  0  0  0  0  0  0  0  0  0
   38.5430   29.7180   42.9730 O   0  0  0  0  0  0  0  0  0  0  0  0
   37.2580   29.4050   43.5970 O   0  0  0  0  0  0  0  0  0  0  0  0
   36.4840   29.2240   44.2310 H   0  0  0  0  0  0  0  0  0  0  0  0
  1  6  1  0  0  0  0
  1 23  1  0  0  0  0
  2  1  2  0  0  0  0
  3  4  2  0  0  0  0
  3  2  1  0  0  0  0
  4  5  1  0  0  0  0
  5  7  1  0  0  0  0
  5  6  2  0  0  0  0
  7 15  1  0  0  0  0
  7  8  1  0  0  0  0
  8 18  1  0  0  0  0
  8  9  2  0  0  0  0
 10 11  1  0  0  0  0
 10  9  1  0  0  0  0
 11 20  1  0  0  0  0
 12 11  2  0  0  0  0
 13 12  1  0  0  0  0
 14 13  2  0  0  0  0
 14 15  1  0  0  0  0
 15 10  2  0  0  0  0
 16  2  1  0  0  0  0
 17  3  1  0  0  0  0
 19 13  1  0  0  0  0
 20 21  1  0  0  0  0
 22 20  1  0  0  0  0
 23 24  1  0  0  0  0
 24 25  1  0  0  0  0
 25 26  2  0  0  0  0
 26 36  1  0  0  0  0
 26 27  1  0  0  0  0
 27 28  1  0  0  0  0
 27 32  1  0  0  0  0
 28 30  1  0  0  0  0
 29 28  2  0  0  0  0
 30 32  1  0  0  0  0
 30 31  1  0  0  0  0
 32 33  1  6  0  0  0
 34 25  1  0  0  0  0
 34 33  1  0  0  0  0
 34 35  1  0  0  0  0
 36 38  1  0  0  0  0
 37 36  2  0  0  0  0
 38 39  1  0  0  0  0
M  END
>  <minimizedAffinity>
-6.47590876

$$$$
