
 OpenBabel03252506343D

 40 44  0  0  1  0  0  0  0  0999 V2000
   44.4290   35.8140   45.0370 C   0  0  0  0  0  0  0  0  0  0  0  0
   45.0620   35.8080   43.7640 C   0  0  0  0  0  0  0  0  0  0  0  0
   45.9640   34.8290   43.4740 C   0  0  0  0  0  0  0  0  0  0  0  0
   46.1980   33.9100   44.4450 N   0  0  0  0  0  0  0  0  0  0  0  0
   45.6070   33.9140   45.6320 C   0  0  0  0  0  0  0  0  0  0  0  0
   44.7250   34.8590   45.9330 N   0  0  0  0  0  0  0  0  0  0  0  0
   45.9570   32.8830   46.5450 N   0  0  0  0  0  0  0  0  0  0  0  0
   45.1860   32.5770   47.7610 C   0  0  0  0  0  0  0  0  0  0  0  0
   46.3010   32.2550   48.7430 C   0  0  0  0  0  0  0  0  0  0  0  0
   47.5620   32.1090   47.9480 C   0  0  0  0  0  0  0  0  0  0  0  0
   47.0410   31.9520   46.5380 C   0  0  1  0  0  0  0  0  0  0  0  0
   43.7020   36.5410   45.3690 H   0  0  0  0  0  0  0  0  0  0  0  0
   46.4360   34.8390   42.5040 H   0  0  0  0  0  0  0  0  0  0  0  0
   44.5580   31.6890   47.5630 H   0  0  0  0  0  0  0  0  0  0  0  0
   44.6030   33.4650   48.0520 H   0  0  0  0  0  0  0  0  0  0  0  0
   46.1120   31.2850   49.2630 H   0  0  0  0  0  0  0  0  0  0  0  0
   46.3790   33.1000   49.4620 H   0  0  0  0  0  0  0  0  0  0  0  0
   48.1860   33.0180   48.0460 H   0  0  0  0  0  0  0  0  0  0  0  0
   48.1770   31.2410   48.2780 H   0  0  0  0  0  0  0  0  0  0  0  0
   47.8450   32.2490   45.8270 H   0  0  0  0  0  0  0  0  0  0  0  0
   44.6790   36.8710   42.8740 N   0  0  0  0  0  0  0  0  0  0  0  0
   43.6280   36.9670   42.7690 H   0  0  0  0  0  0  0  0  0  0  0  0
   45.3280   37.5190   42.3520 H   0  0  0  0  0  0  0  0  0  0  0  0
   46.5040   30.2570   46.2740 S   0  0  0  0  0  0  0  0  0  0  0  0
   46.7400   29.7710   44.5460 C   0  0  0  0  0  2  0  0  0  0  0  0
   48.1700   29.5260   44.2630 C   0  0  0  0  0  0  0  0  0  0  0  0
   48.9120   30.2880   43.4920 C   0  0  0  0  0  0  0  0  0  0  0  0
   50.2740   30.0140   43.2600 N   0  0  0  0  0  0  0  0  0  0  0  0
   51.4970   30.2550   42.5340 C   0  0  1  0  0  0  0  0  0  0  0  0
   51.6780   30.4550   41.2990 O   0  0  0  0  0  1  0  0  0  0  0  0
   52.1430   30.1280   43.8980 C   0  0  0  0  0  3  0  0  0  0  0  0
   53.1950   29.8460   43.8850 H   0  0  0  0  0  0  0  0  0  0  0  0
   51.1080   29.0590   43.9680 C   0  0  1  0  0  0  0  0  0  0  0  0
   50.3390   28.6840   45.5320 S   0  0  0  0  0  0  0  0  0  0  0  0
   48.6250   28.3180   44.9580 C   0  0  0  0  0  3  0  0  0  0  0  0
   48.0160   27.9850   45.7890 H   0  0  0  0  0  0  0  0  0  0  0  0
   48.4050   31.4970   42.8040 C   0  0  0  0  0  0  0  0  0  0  0  0
   47.6560   31.7170   41.8270 O   0  0  0  0  0  0  0  0  0  0  0  0
   48.7250   32.7770   43.1880 O   0  0  0  0  0  0  0  0  0  0  0  0
   48.9320   33.5480   42.5760 H   0  0  0  0  0  0  0  0  0  0  0  0
  1 12  1  0  0  0  0
  1  6  1  0  0  0  0
  2  1  2  0  0  0  0
  3  2  1  0  0  0  0
  3  4  2  0  0  0  0
  4  5  1  0  0  0  0
  5  6  2  0  0  0  0
  5  7  1  0  0  0  0
  7  8  1  0  0  0  0
  8 15  1  0  0  0  0
  8  9  1  0  0  0  0
  9 16  1  0  0  0  0
  9 17  1  0  0  0  0
 10 18  1  0  0  0  0
 10 19  1  0  0  0  0
 10  9  1  0  0  0  0
 11 20  1  6  0  0  0
 11  7  1  0  0  0  0
 11 10  1  0  0  0  0
 13  3  1  0  0  0  0
 14  8  1  0  0  0  0
 21  2  1  0  0  0  0
 22 21  1  0  0  0  0
 23 21  1  0  0  0  0
 24 11  1  0  0  0  0
 25 24  1  0  0  0  0
 26 25  1  0  0  0  0
 26 35  1  0  0  0  0
 27 26  2  0  0  0  0
 28 27  1  0  0  0  0
 28 33  1  0  0  0  0
 29 30  1  6  0  0  0
 29 28  1  0  0  0  0
 29 31  1  0  0  0  0
 29 33  1  0  0  0  0
 32 31  1  0  0  0  0
 33 31  1  1  0  0  0
 33 34  1  0  0  0  0
 35 34  1  0  0  0  0
 35 36  1  0  0  0  0
 37 39  1  0  0  0  0
 37 27  1  0  0  0  0
 38 37  2  0  0  0  0
 40 39  1  0  0  0  0
M  END
>  <minimizedAffinity>
-5.30705786

>  <minimizedRMSD>
4.63883686

$$$$
