
 OpenBabel03252506333D

 40 44  0  0  1  0  0  0  0  0999 V2000
   44.4240   35.6840   44.9300 C   0  0  0  0  0  0  0  0  0  0  0  0
   45.1540   35.6670   43.7110 C   0  0  0  0  0  0  0  0  0  0  0  0
   46.1270   34.7290   43.5310 C   0  0  0  0  0  0  0  0  0  0  0  0
   46.3310   33.8610   44.5530 N   0  0  0  0  0  0  0  0  0  0  0  0
   45.6500   33.8760   45.6900 C   0  0  0  0  0  0  0  0  0  0  0  0
   44.6990   34.7820   45.8840 N   0  0  0  0  0  0  0  0  0  0  0  0
   45.9810   32.9000   46.6690 N   0  0  0  0  0  0  0  0  0  0  0  0
   45.1340   32.5970   47.8340 C   0  0  0  0  0  0  0  0  0  0  0  0
   46.1830   32.3740   48.9110 C   0  0  0  0  0  0  0  0  0  0  0  0
   47.5080   32.2680   48.2210 C   0  0  0  0  0  0  0  0  0  0  0  0
   47.1090   32.0310   46.7830 C   0  0  1  0  0  0  0  0  0  0  0  0
   43.6360   36.3820   45.1760 H   0  0  0  0  0  0  0  0  0  0  0  0
   46.6720   34.7300   42.6000 H   0  0  0  0  0  0  0  0  0  0  0  0
   44.5700   31.6690   47.6250 H   0  0  0  0  0  0  0  0  0  0  0  0
   44.4830   33.4610   48.0430 H   0  0  0  0  0  0  0  0  0  0  0  0
   46.0050   31.4140   49.4540 H   0  0  0  0  0  0  0  0  0  0  0  0
   46.1600   33.2470   49.5980 H   0  0  0  0  0  0  0  0  0  0  0  0
   48.0750   33.2140   48.3300 H   0  0  0  0  0  0  0  0  0  0  0  0
   48.1400   31.4490   48.6320 H   0  0  0  0  0  0  0  0  0  0  0  0
   47.9490   32.3460   46.1240 H   0  0  0  0  0  0  0  0  0  0  0  0
   44.7870   36.6740   42.7510 N   0  0  0  0  0  0  0  0  0  0  0  0
   43.7440   36.7070   42.5620 H   0  0  0  0  0  0  0  0  0  0  0  0
   45.4410   37.3380   42.2550 H   0  0  0  0  0  0  0  0  0  0  0  0
   46.6840   30.3010   46.5480 S   0  0  0  0  0  0  0  0  0  0  0  0
   47.6760   29.2430   47.6310 C   0  0  0  0  0  2  0  0  0  0  0  0
   49.0660   29.1440   47.1360 C   0  0  0  0  0  0  0  0  0  0  0  0
   50.1180   29.5510   47.8080 C   0  0  0  0  0  0  0  0  0  0  0  0
   51.4240   29.4290   47.2940 N   0  0  0  0  0  0  0  0  0  0  0  0
   52.8320   29.7350   47.3590 C   0  0  1  0  0  0  0  0  0  0  0  0
   53.4100   30.8250   47.6350 O   0  0  0  0  0  1  0  0  0  0  0  0
   53.0020   28.2790   46.9760 C   0  0  0  0  0  3  0  0  0  0  0  0
   53.9490   28.0370   46.4940 H   0  0  0  0  0  0  0  0  0  0  0  0
   51.8390   28.6660   46.1310 C   0  0  1  0  0  0  0  0  0  0  0  0
   50.5800   27.4570   45.7670 S   0  0  0  0  0  0  0  0  0  0  0  0
   49.0860   28.5390   45.8030 C   0  0  0  0  0  3  0  0  0  0  0  0
   48.2090   27.9730   45.5170 H   0  0  0  0  0  0  0  0  0  0  0  0
   50.0450   30.1640   49.1540 C   0  0  0  0  0  0  0  0  0  0  0  0
   49.4740   29.8840   50.2310 O   0  0  0  0  0  0  0  0  0  0  0  0
   50.6960   31.3260   49.4930 O   0  0  0  0  0  0  0  0  0  0  0  0
   50.3280   32.0700   50.0630 H   0  0  0  0  0  0  0  0  0  0  0  0
  1 12  1  0  0  0  0
  1  6  1  0  0  0  0
  2  1  2  0  0  0  0
  3  2  1  0  0  0  0
  3  4  2  0  0  0  0
  4  5  1  0  0  0  0
  5  6  2  0  0  0  0
  5  7  1  0  0  0  0
  7 11  1  0  0  0  0
  7  8  1  0  0  0  0
  8 15  1  0  0  0  0
  8  9  1  0  0  0  0
  9 16  1  0  0  0  0
  9 17  1  0  0  0  0
 10 18  1  0  0  0  0
 10 19  1  0  0  0  0
 10  9  1  0  0  0  0
 11 20  1  6  0  0  0
 11 10  1  0  0  0  0
 13  3  1  0  0  0  0
 14  8  1  0  0  0  0
 21  2  1  0  0  0  0
 22 21  1  0  0  0  0
 23 21  1  0  0  0  0
 24 11  1  0  0  0  0
 24 25  1  0  0  0  0
 26 25  1  0  0  0  0
 26 27  2  0  0  0  0
 27 37  1  0  0  0  0
 28 29  1  0  0  0  0
 28 27  1  0  0  0  0
 29 30  1  6  0  0  0
 31 29  1  0  0  0  0
 32 31  1  0  0  0  0
 33 34  1  6  0  0  0
 33 31  1  0  0  0  0
 33 28  1  0  0  0  0
 33 29  1  0  0  0  0
 34 35  1  0  0  0  0
 35 26  1  0  0  0  0
 36 35  1  0  0  0  0
 37 39  1  0  0  0  0
 37 38  2  0  0  0  0
 39 40  1  0  0  0  0
M  END
>  <minimizedAffinity>
-5.45671797

>  <minimizedRMSD>
2.95207739

$$$$
