
 OpenBabel03252506333D

 40 44  0  0  1  0  0  0  0  0999 V2000
   44.4760   35.7560   45.0140 C   0  0  0  0  0  0  0  0  0  0  0  0
   45.1190   35.7010   43.7480 C   0  0  0  0  0  0  0  0  0  0  0  0
   46.0050   34.6970   43.4940 C   0  0  0  0  0  0  0  0  0  0  0  0
   46.2130   33.8020   44.4930 N   0  0  0  0  0  0  0  0  0  0  0  0
   45.6120   33.8510   45.6740 C   0  0  0  0  0  0  0  0  0  0  0  0
   44.7460   34.8220   45.9400 N   0  0  0  0  0  0  0  0  0  0  0  0
   45.9350   32.8400   46.6190 N   0  0  0  0  0  0  0  0  0  0  0  0
   45.1470   32.5850   47.8360 C   0  0  0  0  0  0  0  0  0  0  0  0
   46.2480   32.2700   48.8370 C   0  0  0  0  0  0  0  0  0  0  0  0
   47.5120   32.0770   48.0580 C   0  0  0  0  0  0  0  0  0  0  0  0
   47.0010   31.8890   46.6490 C   0  0  1  0  0  0  0  0  0  0  0  0
   43.7600   36.5060   45.3190 H   0  0  0  0  0  0  0  0  0  0  0  0
   46.4850   34.6710   42.5290 H   0  0  0  0  0  0  0  0  0  0  0  0
   44.5040   31.7030   47.6570 H   0  0  0  0  0  0  0  0  0  0  0  0
   44.5790   33.4910   48.0970 H   0  0  0  0  0  0  0  0  0  0  0  0
   46.0350   31.3180   49.3830 H   0  0  0  0  0  0  0  0  0  0  0  0
   46.3360   33.1330   49.5320 H   0  0  0  0  0  0  0  0  0  0  0  0
   48.1530   32.9760   48.1360 H   0  0  0  0  0  0  0  0  0  0  0  0
   48.1070   31.2070   48.4180 H   0  0  0  0  0  0  0  0  0  0  0  0
   47.8150   32.1510   45.9370 H   0  0  0  0  0  0  0  0  0  0  0  0
   44.7650   36.7460   42.8250 N   0  0  0  0  0  0  0  0  0  0  0  0
   43.7170   36.8590   42.7070 H   0  0  0  0  0  0  0  0  0  0  0  0
   45.4310   37.3670   42.2910 H   0  0  0  0  0  0  0  0  0  0  0  0
   46.4330   30.1990   46.4270 S   0  0  0  0  0  0  0  0  0  0  0  0
   47.7900   29.1310   45.8840 C   0  0  0  0  0  2  0  0  0  0  0  0
   48.2130   28.2280   46.9760 C   0  0  0  0  0  0  0  0  0  0  0  0
   47.6760   27.0520   47.2110 C   0  0  0  0  0  0  0  0  0  0  0  0
   48.1180   26.2250   48.2610 N   0  0  0  0  0  0  0  0  0  0  0  0
   47.9500   25.0660   49.1030 C   0  0  1  0  0  0  0  0  0  0  0  0
   46.9020   24.5970   49.6310 O   0  0  0  0  0  1  0  0  0  0  0  0
   49.4470   24.9160   48.9220 C   0  0  0  0  0  3  0  0  0  0  0  0
   49.9510   24.3530   49.7060 H   0  0  0  0  0  0  0  0  0  0  0  0
   49.3180   26.3940   49.0610 C   0  0  1  0  0  0  0  0  0  0  0  0
   50.4450   27.4580   48.1770 S   0  0  0  0  0  0  0  0  0  0  0  0
   49.2990   28.8370   47.7470 C   0  0  0  0  0  3  0  0  0  0  0  0
   49.8430   29.6360   47.2610 H   0  0  0  0  0  0  0  0  0  0  0  0
   46.5720   26.4800   46.4050 C   0  0  0  0  0  0  0  0  0  0  0  0
   46.4920   25.8150   45.3490 O   0  0  0  0  0  0  0  0  0  0  0  0
   45.2450   26.6080   46.7400 O   0  0  0  0  0  0  0  0  0  0  0  0
   44.4860   26.7860   46.1040 H   0  0  0  0  0  0  0  0  0  0  0  0
  1 12  1  0  0  0  0
  1  6  1  0  0  0  0
  2  1  2  0  0  0  0
  3  2  1  0  0  0  0
  3  4  2  0  0  0  0
  4  5  1  0  0  0  0
  5  6  2  0  0  0  0
  5  7  1  0  0  0  0
  7 11  1  0  0  0  0
  7  8  1  0  0  0  0
  8 15  1  0  0  0  0
  8  9  1  0  0  0  0
  9 16  1  0  0  0  0
  9 17  1  0  0  0  0
 10 18  1  0  0  0  0
 10 19  1  0  0  0  0
 10  9  1  0  0  0  0
 11 20  1  6  0  0  0
 11 10  1  0  0  0  0
 13  3  1  0  0  0  0
 14  8  1  0  0  0  0
 21  2  1  0  0  0  0
 22 21  1  0  0  0  0
 23 21  1  0  0  0  0
 24 11  1  0  0  0  0
 25 24  1  0  0  0  0
 25 26  1  0  0  0  0
 26 27  2  0  0  0  0
 26 35  1  0  0  0  0
 27 28  1  0  0  0  0
 28 33  1  0  0  0  0
 28 29  1  0  0  0  0
 29 30  1  1  0  0  0
 31 33  1  0  0  0  0
 31 29  1  0  0  0  0
 31 32  1  0  0  0  0
 33 34  1  1  0  0  0
 33 29  1  0  0  0  0
 35 34  1  0  0  0  0
 36 35  1  0  0  0  0
 37 39  1  0  0  0  0
 37 27  1  0  0  0  0
 38 37  2  0  0  0  0
 40 39  1  0  0  0  0
M  END
>  <minimizedAffinity>
-5.54494667

>  <minimizedRMSD>
1.11098039

$$$$
