
 OpenBabel03242521553D

 55 60  0  0  1  0  0  0  0  0999 V2000
   44.6600   30.2820   43.6970 C   0  0  0  0  0  0  0  0  0  0  0  0
   45.9500   30.7790   43.2660 C   0  0  0  0  0  0  0  0  0  0  0  0
   45.9210   31.0830   41.9700 C   0  0  0  0  0  0  0  0  0  0  0  0
   44.8350   30.9500   41.1310 C   0  0  0  0  0  0  0  0  0  0  0  0
   43.6290   30.4750   41.5620 C   0  0  0  0  0  0  0  0  0  0  0  0
   43.5500   30.1320   42.8890 C   0  0  0  0  0  0  0  0  0  0  0  0
   46.9330   31.4530   41.7350 H   0  0  0  0  0  0  0  0  0  0  0  0
   45.0700   31.2680   40.1140 H   0  0  0  0  0  0  0  0  0  0  0  0
   42.9120   30.4420   40.7600 H   0  0  0  0  0  0  0  0  0  0  0  0
   46.6720   32.4200   45.7510 C   0  0  0  0  0  0  0  0  0  0  0  0
   46.8840   32.8770   47.0510 C   0  0  0  0  0  0  0  0  0  0  0  0
   47.5090   32.1080   48.0380 C   0  0  0  0  0  0  0  0  0  0  0  0
   47.9500   30.8450   47.7560 C   0  0  0  0  0  0  0  0  0  0  0  0
   47.7420   30.3540   46.4540 C   0  0  0  0  0  0  0  0  0  0  0  0
   48.1440   29.0750   46.2300 C   0  0  0  0  0  0  0  0  0  0  0  0
   47.8860   28.5320   44.9700 C   0  0  0  0  0  0  0  0  0  0  0  0
   47.2080   29.3470   43.9930 C   0  0  0  0  0  0  0  0  0  0  0  0
   46.8660   30.6230   44.3770 C   0  0  0  0  0  0  0  0  0  0  0  0
   47.1020   31.1990   45.5440 C   0  0  0  0  0  0  0  0  0  0  0  0
   46.5330   33.8950   47.2890 H   0  0  0  0  0  0  0  0  0  0  0  0
   47.6110   32.5870   49.0100 H   0  0  0  0  0  0  0  0  0  0  0  0
   48.4350   30.2680   48.5200 H   0  0  0  0  0  0  0  0  0  0  0  0
   48.6440   28.5050   46.9990 H   0  0  0  0  0  0  0  0  0  0  0  0
   48.2370   27.5170   44.8620 H   0  0  0  0  0  0  0  0  0  0  0  0
   47.1490   28.6810   43.1460 H   0  0  0  0  0  0  0  0  0  0  0  0
   44.9910   34.7560   43.3760 C   0  0  0  0  0  0  0  0  0  0  0  0
   46.1110   35.1830   42.6240 C   0  0  0  0  0  0  0  0  0  0  0  0
   47.3220   34.6270   42.9680 C   0  0  0  0  0  0  0  0  0  0  0  0
   47.2850   33.7550   43.9730 N   0  0  0  0  0  0  0  0  0  0  0  0
   46.2550   33.3330   44.6990 C   0  0  0  0  0  0  0  0  0  0  0  0
   45.1180   33.8630   44.3610 N   0  0  0  0  0  0  0  0  0  0  0  0
   44.0520   35.1790   43.1170 H   0  0  0  0  0  0  0  0  0  0  0  0
   46.0390   35.8990   41.8290 H   0  0  0  0  0  0  0  0  0  0  0  0
   48.5170   34.9150   42.2620 N   0  0  0  0  0  0  0  0  0  0  0  0
   49.0210   35.5320   42.9510 H   0  0  0  0  0  0  0  0  0  0  0  0
   48.8060   34.5920   41.3110 H   0  0  0  0  0  0  0  0  0  0  0  0
   44.3130   29.8680   45.0120 O   0  0  0  0  0  0  0  0  0  0  0  0
   43.7450   30.5050   45.5440 H   0  0  0  0  0  0  0  0  0  0  0  0
   42.3140   29.6550   43.2620 O   0  0  0  0  0  0  0  0  0  0  0  0
   41.1660   30.3590   42.8350 C   0  0  0  0  0  2  0  0  0  0  0  0
   40.1890   29.4650   42.1650 C   0  0  0  0  0  0  0  0  0  0  0  0
   39.2290   29.8490   41.3470 C   0  0  0  0  0  0  0  0  0  0  0  0
   38.3120   28.9590   40.7240 N   0  0  0  0  0  0  0  0  0  0  0  0
   36.9230   28.7260   40.4030 C   0  0  0  0  0  0  0  0  0  0  0  0
   35.9410   29.4960   40.2390 O   0  0  0  0  0  0  0  0  0  0  0  0
   37.2370   27.2520   40.3720 C   0  0  0  0  0  3  0  0  0  0  0  0
   37.1170   26.7210   41.3210 H   0  0  0  0  0  0  0  0  0  0  0  0
   38.6460   27.6850   40.0630 C   0  0  2  0  0  3  0  0  0  0  0  0
   39.9420   26.9420   41.0870 S   0  0  0  0  0  0  0  0  0  0  0  0
   40.3500   28.0220   42.4800 C   0  0  0  0  0  3  0  0  0  0  0  0
   39.5590   27.8160   43.2570 H   0  0  0  0  0  0  0  0  0  0  0  0
   39.0310   31.2780   41.0070 C   0  0  0  0  0  0  0  0  0  0  0  0
   39.6260   32.2510   40.5350 O   0  0  0  0  0  0  0  0  0  0  0  0
   37.8700   31.9600   41.1950 O   0  0  0  0  0  0  0  0  0  0  0  0
   37.2090   32.2550   40.5050 H   0  0  0  0  0  0  0  0  0  0  0  0
  1 37  1  0  0  0  0
  2  1  1  0  0  0  0
  2 18  1  0  0  0  0
  3  2  2  0  0  0  0
  4  5  2  0  0  0  0
  4  3  1  0  0  0  0
  5  6  1  0  0  0  0
  6 39  1  0  0  0  0
  6  1  2  0  0  0  0
  7  3  1  0  0  0  0
  8  4  1  0  0  0  0
  9  5  1  0  0  0  0
 10 11  1  0  0  0  0
 11 20  1  0  0  0  0
 11 12  2  0  0  0  0
 12 21  1  0  0  0  0
 13 12  1  0  0  0  0
 13 22  1  0  0  0  0
 14 13  2  0  0  0  0
 15 14  1  0  0  0  0
 15 23  1  0  0  0  0
 16 15  2  0  0  0  0
 17 18  2  0  0  0  0
 17 16  1  0  0  0  0
 18 19  1  0  0  0  0
 19 10  2  0  0  0  0
 19 14  1  0  0  0  0
 24 16  1  0  0  0  0
 25 17  1  0  0  0  0
 26 31  1  0  0  0  0
 27 28  1  0  0  0  0
 27 26  2  0  0  0  0
 28 29  2  0  0  0  0
 29 30  1  0  0  0  0
 30 10  1  0  0  0  0
 31 30  2  0  0  0  0
 32 26  1  0  0  0  0
 33 27  1  0  0  0  0
 34 35  1  0  0  0  0
 34 28  1  0  0  0  0
 36 34  1  0  0  0  0
 37 38  1  0  0  0  0
 40 39  1  0  0  0  0
 41 50  1  0  0  0  0
 41 40  1  0  0  0  0
 42 41  2  0  0  0  0
 43 42  1  0  0  0  0
 44 43  1  0  0  0  0
 45 44  2  0  0  0  0
 46 44  1  0  0  0  0
 46 47  1  0  0  0  0
 48 46  1  1  0  0  0
 48 43  1  0  0  0  0
 48 49  1  0  0  0  0
 49 50  1  0  0  0  0
 50 51  1  0  0  0  0
 52 54  1  0  0  0  0
 52 42  1  0  0  0  0
 53 52  2  0  0  0  0
 55 54  1  0  0  0  0
M  END
>  <minimizedAffinity>
-6.08703136

>  <minimizedRMSD>
1.57254124

$$$$
