
 OpenBabel03242521553D

 55 60  0  0  1  0  0  0  0  0999 V2000
   44.8830   30.4080   42.8870 C   0  0  0  0  0  0  0  0  0  0  0  0
   46.2610   30.7490   43.1740 C   0  0  0  0  0  0  0  0  0  0  0  0
   47.0050   30.6420   42.0760 C   0  0  0  0  0  0  0  0  0  0  0  0
   46.5590   30.2590   40.8290 C   0  0  0  0  0  0  0  0  0  0  0  0
   45.2530   29.9390   40.5840 C   0  0  0  0  0  0  0  0  0  0  0  0
   44.3970   30.0190   41.6540 C   0  0  0  0  0  0  0  0  0  0  0  0
   48.0250   30.9220   42.3870 H   0  0  0  0  0  0  0  0  0  0  0  0
   47.3670   30.2510   40.0960 H   0  0  0  0  0  0  0  0  0  0  0  0
   45.1040   29.6630   39.5550 H   0  0  0  0  0  0  0  0  0  0  0  0
   45.8260   33.0880   45.1070 C   0  0  0  0  0  0  0  0  0  0  0  0
   45.3820   33.9340   46.1220 C   0  0  0  0  0  0  0  0  0  0  0  0
   45.1960   33.5110   47.4420 C   0  0  0  0  0  0  0  0  0  0  0  0
   45.4520   32.2160   47.7960 C   0  0  0  0  0  0  0  0  0  0  0  0
   45.8940   31.3370   46.7900 C   0  0  0  0  0  0  0  0  0  0  0  0
   46.0840   30.0450   47.1720 C   0  0  0  0  0  0  0  0  0  0  0  0
   46.4510   29.1320   46.1820 C   0  0  0  0  0  0  0  0  0  0  0  0
   46.5980   29.6020   44.8270 C   0  0  0  0  0  0  0  0  0  0  0  0
   46.3690   30.9400   44.6060 C   0  0  0  0  0  0  0  0  0  0  0  0
   46.0400   31.8570   45.5020 C   0  0  0  0  0  0  0  0  0  0  0  0
   45.1730   34.9820   45.8470 H   0  0  0  0  0  0  0  0  0  0  0  0
   44.8460   34.2760   48.1330 H   0  0  0  0  0  0  0  0  0  0  0  0
   45.3130   31.9050   48.8140 H   0  0  0  0  0  0  0  0  0  0  0  0
   45.9560   29.7430   48.2010 H   0  0  0  0  0  0  0  0  0  0  0  0
   46.5900   28.1280   46.5570 H   0  0  0  0  0  0  0  0  0  0  0  0
   46.8770   28.7010   44.3050 H   0  0  0  0  0  0  0  0  0  0  0  0
   46.2250   34.4860   41.6700 C   0  0  0  0  0  0  0  0  0  0  0  0
   47.6080   34.7870   41.6910 C   0  0  0  0  0  0  0  0  0  0  0  0
   48.2820   34.4680   42.8480 C   0  0  0  0  0  0  0  0  0  0  0  0
   47.5410   33.9170   43.8060 N   0  0  0  0  0  0  0  0  0  0  0  0
   46.2460   33.6220   43.8210 C   0  0  0  0  0  0  0  0  0  0  0  0
   45.6220   33.9240   42.7220 N   0  0  0  0  0  0  0  0  0  0  0  0
   45.6970   34.7270   40.7810 H   0  0  0  0  0  0  0  0  0  0  0  0
   48.1170   35.2390   40.8630 H   0  0  0  0  0  0  0  0  0  0  0  0
   49.6800   34.6570   42.9880 N   0  0  0  0  0  0  0  0  0  0  0  0
   49.7130   35.4880   43.6330 H   0  0  0  0  0  0  0  0  0  0  0  0
   50.4580   34.1060   42.5590 H   0  0  0  0  0  0  0  0  0  0  0  0
   43.8020   30.4170   43.8100 O   0  0  0  0  0  0  0  0  0  0  0  0
   43.1590   31.1860   43.7360 H   0  0  0  0  0  0  0  0  0  0  0  0
   43.0990   29.6800   41.3480 O   0  0  0  0  0  0  0  0  0  0  0  0
   42.5560   30.1380   40.1270 C   0  0  0  0  0  2  0  0  0  0  0  0
   41.8320   31.4240   40.2960 C   0  0  0  0  0  0  0  0  0  0  0  0
   41.7360   32.3770   39.3900 C   0  0  0  0  0  0  0  0  0  0  0  0
   41.0310   33.5960   39.5910 N   0  0  0  0  0  0  0  0  0  0  0  0
   41.0820   35.0300   39.4330 C   0  0  0  0  0  0  0  0  0  0  0  0
   41.7100   35.7840   38.6440 O   0  0  0  0  0  0  0  0  0  0  0  0
   40.1030   35.1330   40.5750 C   0  0  0  0  0  3  0  0  0  0  0  0
   40.5450   35.2170   41.5710 H   0  0  0  0  0  0  0  0  0  0  0  0
   39.6900   33.7390   40.1820 C   0  0  2  0  0  3  0  0  0  0  0  0
   39.6270   32.5260   41.5250 S   0  0  0  0  0  0  0  0  0  0  0  0
   41.1790   31.5990   41.6180 C   0  0  0  0  0  3  0  0  0  0  0  0
   41.8870   32.2630   42.1920 H   0  0  0  0  0  0  0  0  0  0  0  0
   42.3730   32.2440   38.0580 C   0  0  0  0  0  0  0  0  0  0  0  0
   42.4080   31.5000   37.0750 O   0  0  0  0  0  0  0  0  0  0  0  0
   43.2600   33.1330   37.5370 O   0  0  0  0  0  0  0  0  0  0  0  0
   43.1090   33.7990   36.8070 H   0  0  0  0  0  0  0  0  0  0  0  0
  1  2  1  0  0  0  0
  1 37  1  0  0  0  0
  2 18  1  0  0  0  0
  3  7  1  0  0  0  0
  3  2  2  0  0  0  0
  4  3  1  0  0  0  0
  5  4  2  0  0  0  0
  5  6  1  0  0  0  0
  6  1  2  0  0  0  0
  8  4  1  0  0  0  0
  9  5  1  0  0  0  0
 10 19  2  0  0  0  0
 10 11  1  0  0  0  0
 11 12  2  0  0  0  0
 12 13  1  0  0  0  0
 12 21  1  0  0  0  0
 13 22  1  0  0  0  0
 14 15  1  0  0  0  0
 14 13  2  0  0  0  0
 15 23  1  0  0  0  0
 16 24  1  0  0  0  0
 16 15  2  0  0  0  0
 17 16  1  0  0  0  0
 18 17  2  0  0  0  0
 18 19  1  0  0  0  0
 19 14  1  0  0  0  0
 20 11  1  0  0  0  0
 25 17  1  0  0  0  0
 26 27  2  0  0  0  0
 26 31  1  0  0  0  0
 27 28  1  0  0  0  0
 28 34  1  0  0  0  0
 28 29  2  0  0  0  0
 29 30  1  0  0  0  0
 30 10  1  0  0  0  0
 31 30  2  0  0  0  0
 32 26  1  0  0  0  0
 33 27  1  0  0  0  0
 34 35  1  0  0  0  0
 36 34  1  0  0  0  0
 38 37  1  0  0  0  0
 39  6  1  0  0  0  0
 40 41  1  0  0  0  0
 40 39  1  0  0  0  0
 41 50  1  0  0  0  0
 42 43  1  0  0  0  0
 42 41  2  0  0  0  0
 43 48  1  0  0  0  0
 44 43  1  0  0  0  0
 44 46  1  0  0  0  0
 45 44  2  0  0  0  0
 46 47  1  0  0  0  0
 48 46  1  1  0  0  0
 48 49  1  0  0  0  0
 49 50  1  0  0  0  0
 50 51  1  0  0  0  0
 52 42  1  0  0  0  0
 53 52  2  0  0  0  0
 54 52  1  0  0  0  0
 55 54  1  0  0  0  0
M  END
>  <minimizedAffinity>
-6.62119102

>  <minimizedRMSD>
3.53884387

$$$$
