
 OpenBabel03242521543D

 55 60  0  0  1  0  0  0  0  0999 V2000
   44.8950   29.7550   43.7500 C   0  0  0  0  0  0  0  0  0  0  0  0
   46.2360   30.3010   43.7940 C   0  0  0  0  0  0  0  0  0  0  0  0
   46.7300   30.4180   42.5640 C   0  0  0  0  0  0  0  0  0  0  0  0
   46.0850   30.0740   41.3950 C   0  0  0  0  0  0  0  0  0  0  0  0
   44.8200   29.5570   41.3810 C   0  0  0  0  0  0  0  0  0  0  0  0
   44.2150   29.3950   42.6030 C   0  0  0  0  0  0  0  0  0  0  0  0
   47.7400   30.8410   42.6950 H   0  0  0  0  0  0  0  0  0  0  0  0
   46.7060   30.2670   40.5190 H   0  0  0  0  0  0  0  0  0  0  0  0
   44.4930   29.3490   40.3770 H   0  0  0  0  0  0  0  0  0  0  0  0
   45.8770   32.3480   46.0460 C   0  0  0  0  0  0  0  0  0  0  0  0
   45.5400   33.0110   47.2260 C   0  0  0  0  0  0  0  0  0  0  0  0
   45.7160   32.4490   48.4940 C   0  0  0  0  0  0  0  0  0  0  0  0
   46.2410   31.1940   48.6290 C   0  0  0  0  0  0  0  0  0  0  0  0
   46.5820   30.4970   47.4540 C   0  0  0  0  0  0  0  0  0  0  0  0
   47.0490   29.2320   47.6290 C   0  0  0  0  0  0  0  0  0  0  0  0
   47.3280   28.4870   46.4810 C   0  0  0  0  0  0  0  0  0  0  0  0
   47.1000   29.0920   45.1920 C   0  0  0  0  0  0  0  0  0  0  0  0
   46.6240   30.3820   45.1880 C   0  0  0  0  0  0  0  0  0  0  0  0
   46.3610   31.1450   46.2370 C   0  0  0  0  0  0  0  0  0  0  0  0
   45.1160   34.0240   47.1290 H   0  0  0  0  0  0  0  0  0  0  0  0
   45.4110   33.0750   49.3300 H   0  0  0  0  0  0  0  0  0  0  0  0
   46.3770   30.7760   49.6080 H   0  0  0  0  0  0  0  0  0  0  0  0
   47.1980   28.8240   48.6180 H   0  0  0  0  0  0  0  0  0  0  0  0
   47.6990   27.4960   46.6950 H   0  0  0  0  0  0  0  0  0  0  0  0
   47.3940   28.3040   44.5180 H   0  0  0  0  0  0  0  0  0  0  0  0
   45.2890   34.1700   42.8430 C   0  0  0  0  0  0  0  0  0  0  0  0
   46.6170   34.5540   42.5370 C   0  0  0  0  0  0  0  0  0  0  0  0
   47.5880   34.1420   43.4210 C   0  0  0  0  0  0  0  0  0  0  0  0
   47.1510   33.4340   44.4590 N   0  0  0  0  0  0  0  0  0  0  0  0
   45.9170   33.0580   44.7780 C   0  0  0  0  0  0  0  0  0  0  0  0
   45.0110   33.4490   43.9330 N   0  0  0  0  0  0  0  0  0  0  0  0
   44.5330   34.4820   42.1660 H   0  0  0  0  0  0  0  0  0  0  0  0
   46.8700   35.1320   41.6700 H   0  0  0  0  0  0  0  0  0  0  0  0
   48.9650   34.4000   43.2090 N   0  0  0  0  0  0  0  0  0  0  0  0
   49.1480   35.1490   43.9270 H   0  0  0  0  0  0  0  0  0  0  0  0
   49.6140   33.9560   42.5200 H   0  0  0  0  0  0  0  0  0  0  0  0
   44.0530   29.4980   44.8670 O   0  0  0  0  0  0  0  0  0  0  0  0
   43.3010   30.1500   45.0160 H   0  0  0  0  0  0  0  0  0  0  0  0
   42.9470   28.8670   42.5250 O   0  0  0  0  0  0  0  0  0  0  0  0
   42.7680   27.6540   41.8240 C   0  0  0  0  0  2  0  0  0  0  0  0
   42.6740   26.4940   42.7460 C   0  0  0  0  0  0  0  0  0  0  0  0
   41.5580   25.9120   43.1400 C   0  0  0  0  0  0  0  0  0  0  0  0
   41.5110   24.8020   44.0260 N   0  0  0  0  0  0  0  0  0  0  0  0
   40.8620   24.2440   45.1880 C   0  0  0  0  0  0  0  0  0  0  0  0
   39.7240   24.4130   45.6990 O   0  0  0  0  0  0  0  0  0  0  0  0
   42.1190   23.4490   45.4370 C   0  0  0  0  0  3  0  0  0  0  0  0
   42.8660   23.9310   46.0730 H   0  0  0  0  0  0  0  0  0  0  0  0
   42.3560   23.5970   43.9580 C   0  0  2  0  0  3  0  0  0  0  0  0
   43.9970   24.1920   43.4770 S   0  0  0  0  0  0  0  0  0  0  0  0
   43.9800   25.9860   43.2390 C   0  0  0  0  0  3  0  0  0  0  0  0
   44.0770   26.4240   44.2740 H   0  0  0  0  0  0  0  0  0  0  0  0
   40.2340   26.3880   42.6740 C   0  0  0  0  0  0  0  0  0  0  0  0
   39.6850   27.3670   42.1610 O   0  0  0  0  0  0  0  0  0  0  0  0
   39.0880   25.6600   42.7390 O   0  0  0  0  0  0  0  0  0  0  0  0
   38.5970   25.2150   41.9900 H   0  0  0  0  0  0  0  0  0  0  0  0
  1  2  1  0  0  0  0
  1 37  1  0  0  0  0
  2 18  1  0  0  0  0
  3  7  1  0  0  0  0
  3  2  2  0  0  0  0
  4  3  1  0  0  0  0
  5  4  2  0  0  0  0
  5  6  1  0  0  0  0
  6  1  2  0  0  0  0
  8  4  1  0  0  0  0
  9  5  1  0  0  0  0
 10 19  2  0  0  0  0
 10 11  1  0  0  0  0
 11 12  2  0  0  0  0
 12 13  1  0  0  0  0
 12 21  1  0  0  0  0
 13 22  1  0  0  0  0
 14 15  1  0  0  0  0
 14 13  2  0  0  0  0
 15 23  1  0  0  0  0
 16 24  1  0  0  0  0
 16 15  2  0  0  0  0
 17 16  1  0  0  0  0
 18 17  2  0  0  0  0
 18 19  1  0  0  0  0
 19 14  1  0  0  0  0
 20 11  1  0  0  0  0
 25 17  1  0  0  0  0
 26 31  1  0  0  0  0
 27 26  2  0  0  0  0
 27 28  1  0  0  0  0
 28 29  2  0  0  0  0
 29 30  1  0  0  0  0
 30 10  1  0  0  0  0
 31 30  2  0  0  0  0
 32 26  1  0  0  0  0
 33 27  1  0  0  0  0
 34 28  1  0  0  0  0
 34 35  1  0  0  0  0
 36 34  1  0  0  0  0
 37 38  1  0  0  0  0
 39  6  1  0  0  0  0
 40 39  1  0  0  0  0
 40 41  1  0  0  0  0
 41 42  2  0  0  0  0
 41 50  1  0  0  0  0
 42 43  1  0  0  0  0
 43 44  1  0  0  0  0
 44 46  1  0  0  0  0
 44 45  2  0  0  0  0
 46 47  1  0  0  0  0
 48 49  1  1  0  0  0
 48 43  1  0  0  0  0
 48 46  1  0  0  0  0
 50 49  1  0  0  0  0
 50 51  1  0  0  0  0
 52 54  1  0  0  0  0
 52 42  1  0  0  0  0
 53 52  2  0  0  0  0
 55 54  1  0  0  0  0
M  END
>  <minimizedAffinity>
-5.38783121

>  <minimizedRMSD>
2.36378002

$$$$
