
 OpenBabel03242521543D

 55 60  0  0  1  0  0  0  0  0999 V2000
   44.8820   30.4100   42.8860 C   0  0  0  0  0  0  0  0  0  0  0  0
   46.2600   30.7520   43.1730 C   0  0  0  0  0  0  0  0  0  0  0  0
   47.0030   30.6470   42.0740 C   0  0  0  0  0  0  0  0  0  0  0  0
   46.5560   30.2650   40.8270 C   0  0  0  0  0  0  0  0  0  0  0  0
   45.2510   29.9420   40.5830 C   0  0  0  0  0  0  0  0  0  0  0  0
   44.3950   30.0200   41.6540 C   0  0  0  0  0  0  0  0  0  0  0  0
   48.0230   30.9290   42.3840 H   0  0  0  0  0  0  0  0  0  0  0  0
   47.3640   30.2580   40.0940 H   0  0  0  0  0  0  0  0  0  0  0  0
   45.1010   29.6670   39.5530 H   0  0  0  0  0  0  0  0  0  0  0  0
   45.8240   33.0900   45.1070 C   0  0  0  0  0  0  0  0  0  0  0  0
   45.3800   33.9350   46.1230 C   0  0  0  0  0  0  0  0  0  0  0  0
   45.1960   33.5110   47.4430 C   0  0  0  0  0  0  0  0  0  0  0  0
   45.4520   32.2160   47.7970 C   0  0  0  0  0  0  0  0  0  0  0  0
   45.8940   31.3370   46.7900 C   0  0  0  0  0  0  0  0  0  0  0  0
   46.0840   30.0460   47.1710 C   0  0  0  0  0  0  0  0  0  0  0  0
   46.4510   29.1330   46.1800 C   0  0  0  0  0  0  0  0  0  0  0  0
   46.5970   29.6040   44.8250 C   0  0  0  0  0  0  0  0  0  0  0  0
   46.3680   30.9420   44.6050 C   0  0  0  0  0  0  0  0  0  0  0  0
   46.0390   31.8580   45.5020 C   0  0  0  0  0  0  0  0  0  0  0  0
   45.1710   34.9820   45.8490 H   0  0  0  0  0  0  0  0  0  0  0  0
   44.8450   34.2750   48.1350 H   0  0  0  0  0  0  0  0  0  0  0  0
   45.3130   31.9040   48.8140 H   0  0  0  0  0  0  0  0  0  0  0  0
   45.9570   29.7430   48.1990 H   0  0  0  0  0  0  0  0  0  0  0  0
   46.5900   28.1290   46.5540 H   0  0  0  0  0  0  0  0  0  0  0  0
   46.8760   28.7030   44.3020 H   0  0  0  0  0  0  0  0  0  0  0  0
   46.2210   34.4910   41.6720 C   0  0  0  0  0  0  0  0  0  0  0  0
   47.6040   34.7910   41.6920 C   0  0  0  0  0  0  0  0  0  0  0  0
   48.2790   34.4700   42.8480 C   0  0  0  0  0  0  0  0  0  0  0  0
   47.5390   33.9180   43.8060 N   0  0  0  0  0  0  0  0  0  0  0  0
   46.2430   33.6250   43.8220 C   0  0  0  0  0  0  0  0  0  0  0  0
   45.6190   33.9290   42.7230 N   0  0  0  0  0  0  0  0  0  0  0  0
   45.6920   34.7340   40.7840 H   0  0  0  0  0  0  0  0  0  0  0  0
   48.1130   35.2430   40.8630 H   0  0  0  0  0  0  0  0  0  0  0  0
   49.6770   34.6570   42.9860 N   0  0  0  0  0  0  0  0  0  0  0  0
   49.7120   35.4870   43.6320 H   0  0  0  0  0  0  0  0  0  0  0  0
   50.4540   34.1060   42.5550 H   0  0  0  0  0  0  0  0  0  0  0  0
   43.8010   30.4160   43.8110 O   0  0  0  0  0  0  0  0  0  0  0  0
   43.1570   31.1850   43.7370 H   0  0  0  0  0  0  0  0  0  0  0  0
   43.0970   29.6800   41.3480 O   0  0  0  0  0  0  0  0  0  0  0  0
   42.5530   30.1380   40.1270 C   0  0  0  0  0  2  0  0  0  0  0  0
   41.8310   31.4240   40.2950 C   0  0  0  0  0  0  0  0  0  0  0  0
   41.7350   32.3780   39.3900 C   0  0  0  0  0  0  0  0  0  0  0  0
   41.0320   33.5970   39.5910 N   0  0  0  0  0  0  0  0  0  0  0  0
   41.0830   35.0320   39.4330 C   0  0  0  0  0  0  0  0  0  0  0  0
   41.7110   35.7840   38.6430 O   0  0  0  0  0  0  0  0  0  0  0  0
   40.1050   35.1350   40.5750 C   0  0  0  0  0  3  0  0  0  0  0  0
   40.5470   35.2190   41.5710 H   0  0  0  0  0  0  0  0  0  0  0  0
   39.6900   33.7410   40.1820 C   0  0  2  0  0  3  0  0  0  0  0  0
   39.6280   32.5290   41.5250 S   0  0  0  0  0  0  0  0  0  0  0  0
   41.1790   31.6010   41.6190 C   0  0  0  0  0  3  0  0  0  0  0  0
   41.8870   32.2640   42.1920 H   0  0  0  0  0  0  0  0  0  0  0  0
   42.3720   32.2440   38.0580 C   0  0  0  0  0  0  0  0  0  0  0  0
   42.4050   31.4990   37.0750 O   0  0  0  0  0  0  0  0  0  0  0  0
   43.2590   33.1310   37.5360 O   0  0  0  0  0  0  0  0  0  0  0  0
   43.1090   33.7970   36.8060 H   0  0  0  0  0  0  0  0  0  0  0  0
  1  2  1  0  0  0  0
  1 37  1  0  0  0  0
  2 18  1  0  0  0  0
  3  7  1  0  0  0  0
  3  2  2  0  0  0  0
  4  3  1  0  0  0  0
  5  4  2  0  0  0  0
  5  6  1  0  0  0  0
  6  1  2  0  0  0  0
  8  4  1  0  0  0  0
  9  5  1  0  0  0  0
 10 19  2  0  0  0  0
 10 11  1  0  0  0  0
 11 12  2  0  0  0  0
 12 13  1  0  0  0  0
 12 21  1  0  0  0  0
 13 22  1  0  0  0  0
 14 15  1  0  0  0  0
 14 13  2  0  0  0  0
 15 23  1  0  0  0  0
 16 24  1  0  0  0  0
 16 15  2  0  0  0  0
 17 16  1  0  0  0  0
 18 17  2  0  0  0  0
 18 19  1  0  0  0  0
 19 14  1  0  0  0  0
 20 11  1  0  0  0  0
 25 17  1  0  0  0  0
 26 27  2  0  0  0  0
 26 31  1  0  0  0  0
 27 28  1  0  0  0  0
 28 34  1  0  0  0  0
 28 29  2  0  0  0  0
 29 30  1  0  0  0  0
 30 10  1  0  0  0  0
 31 30  2  0  0  0  0
 32 26  1  0  0  0  0
 33 27  1  0  0  0  0
 34 35  1  0  0  0  0
 36 34  1  0  0  0  0
 38 37  1  0  0  0  0
 39  6  1  0  0  0  0
 40 41  1  0  0  0  0
 40 39  1  0  0  0  0
 41 50  1  0  0  0  0
 42 43  1  0  0  0  0
 42 41  2  0  0  0  0
 43 48  1  0  0  0  0
 44 43  1  0  0  0  0
 44 46  1  0  0  0  0
 45 44  2  0  0  0  0
 46 47  1  0  0  0  0
 48 46  1  1  0  0  0
 48 49  1  0  0  0  0
 49 50  1  0  0  0  0
 50 51  1  0  0  0  0
 52 42  1  0  0  0  0
 53 52  2  0  0  0  0
 54 52  1  0  0  0  0
 55 54  1  0  0  0  0
M  END
>  <minimizedAffinity>
-6.61990023

>  <minimizedRMSD>
1.71005452

$$$$
