
 OpenBabel03242516533D

 46 49  0  0  1  0  0  0  0  0999 V2000
   47.8760   32.9310   41.8970 C   0  0  1  0  0  0  0  0  0  0  0  0
   47.5960   32.2890   40.6140 C   0  0  0  0  0  0  0  0  0  0  0  0
   48.6270   32.8360   39.6330 C   0  0  0  0  0  0  0  0  0  0  0  0
   48.2790   34.2970   39.4000 C   0  0  0  0  0  0  0  0  0  0  0  0
   48.1710   35.1110   40.6530 C   0  0  0  0  0  0  0  0  0  0  0  0
   47.6560   34.4480   41.8510 C   0  0  1  0  0  0  0  0  0  0  0  0
   48.9890   32.8610   42.0970 H   0  0  0  0  0  0  0  0  0  0  0  0
   46.5630   32.5120   40.2560 H   0  0  0  0  0  0  0  0  0  0  0  0
   47.6710   31.2050   40.7020 H   0  0  0  0  0  0  0  0  0  0  0  0
   49.6200   32.7270   40.1020 H   0  0  0  0  0  0  0  0  0  0  0  0
   48.5110   32.3230   38.6680 H   0  0  0  0  0  0  0  0  0  0  0  0
   47.3360   34.3250   38.8190 H   0  0  0  0  0  0  0  0  0  0  0  0
   49.0660   34.7090   38.7350 H   0  0  0  0  0  0  0  0  0  0  0  0
   49.1900   35.5450   40.8340 H   0  0  0  0  0  0  0  0  0  0  0  0
   47.5380   35.9990   40.4150 H   0  0  0  0  0  0  0  0  0  0  0  0
   48.2250   34.8360   42.7490 H   0  0  0  0  0  0  0  0  0  0  0  0
   45.4400   30.9340   43.9930 C   0  0  0  0  0  0  0  0  0  0  0  0
   46.1390   31.5060   42.9220 C   0  0  0  0  0  0  0  0  0  0  0  0
   47.2180   32.3820   43.0650 C   0  0  0  0  0  0  0  0  0  0  0  0
   47.5650   32.6580   44.3230 N   0  0  0  0  0  0  0  0  0  0  0  0
   46.9000   32.1120   45.3750 C   0  0  0  0  0  0  0  0  0  0  0  0
   45.8690   31.2760   45.2280 N   0  0  0  0  0  0  0  0  0  0  0  0
   44.6270   30.2750   43.7400 H   0  0  0  0  0  0  0  0  0  0  0  0
   45.8430   31.2700   41.9080 H   0  0  0  0  0  0  0  0  0  0  0  0
   47.2490   32.3900   46.3740 H   0  0  0  0  0  0  0  0  0  0  0  0
   46.2600   34.7950   42.1360 C   0  0  0  0  0  0  0  0  0  0  0  0
   45.7770   35.3790   43.3160 C   0  0  0  0  0  0  0  0  0  0  0  0
   44.4060   35.6340   43.3560 C   0  0  0  0  0  0  0  0  0  0  0  0
   43.6510   35.2960   42.2530 C   0  0  0  0  0  0  0  0  0  0  0  0
   44.1430   34.7190   41.0940 C   0  0  0  0  0  0  0  0  0  0  0  0
   45.4850   34.4760   41.0690 N   0  0  0  0  0  0  0  0  0  0  0  0
   46.4860   35.5750   44.0650 H   0  0  0  0  0  0  0  0  0  0  0  0
   44.0210   36.0770   44.2420 H   0  0  0  0  0  0  0  0  0  0  0  0
   42.5800   35.4990   42.2960 H   0  0  0  0  0  0  0  0  0  0  0  0
   43.2650   34.4030   39.9740 C   0  0  0  0  0  0  0  0  0  0  0  0
   42.6340   35.3500   39.4270 O   0  0  0  0  0  0  0  0  0  0  0  0
   43.0990   32.9960   39.4710 C   0  0  0  0  0  3  0  0  0  0  0  0
   44.3870   32.5070   38.8390 C   0  0  0  0  0  3  0  0  0  0  0  0
   44.7390   31.5610   39.3020 H   0  0  0  0  0  0  0  0  0  0  0  0
   44.2290   32.2380   37.3550 C   0  0  0  0  0  3  0  0  0  0  0  0
   45.2200   31.8090   37.0370 H   0  0  0  0  0  0  0  0  0  0  0  0
   43.2120   31.3470   37.0610 O   0  0  0  0  0  0  0  0  0  0  0  0
   42.0880   31.5200   37.8540 C   0  0  0  0  0  3  0  0  0  0  0  0
   41.1600   31.2000   37.3760 H   0  0  0  0  0  0  0  0  0  0  0  0
   42.0540   32.9450   38.3710 C   0  0  0  0  0  3  0  0  0  0  0  0
   41.0490   33.2030   38.7080 H   0  0  0  0  0  0  0  0  0  0  0  0
  1  7  1  1  0  0  0
  1 19  1  0  0  0  0
  2  9  1  0  0  0  0
  2  1  1  0  0  0  0
  3 10  1  0  0  0  0
  3  2  1  0  0  0  0
  4  3  1  0  0  0  0
  4  5  1  0  0  0  0
  5 14  1  0  0  0  0
  5  6  1  0  0  0  0
  6  1  1  0  0  0  0
  6 26  1  0  0  0  0
  6 16  1  1  0  0  0
  8  2  1  0  0  0  0
 11  3  1  0  0  0  0
 12  4  1  0  0  0  0
 13  4  1  0  0  0  0
 15  5  1  0  0  0  0
 17 22  1  0  0  0  0
 18 19  1  0  0  0  0
 18 17  2  0  0  0  0
 19 20  2  0  0  0  0
 20 21  1  0  0  0  0
 21 25  1  0  0  0  0
 22 21  2  0  0  0  0
 23 17  1  0  0  0  0
 24 18  1  0  0  0  0
 26 27  1  0  0  0  0
 27 28  2  0  0  0  0
 27 32  1  0  0  0  0
 28 33  1  0  0  0  0
 29 34  1  0  0  0  0
 29 28  1  0  0  0  0
 30 29  2  0  0  0  0
 31 30  1  0  0  0  0
 31 26  2  0  0  0  0
 35 30  1  0  0  0  0
 36 35  2  0  0  0  0
 37 35  1  0  0  0  0
 38 39  1  0  0  0  0
 38 37  1  0  0  0  0
 40 38  1  0  0  0  0
 41 40  1  0  0  0  0
 42 40  1  0  0  0  0
 42 43  1  0  0  0  0
 43 45  1  0  0  0  0
 44 43  1  0  0  0  0
 45 46  1  0  0  0  0
 45 37  1  0  0  0  0
M  END
>  <minimizedAffinity>
-5.36155605

>  <minimizedRMSD>
0.35239172

$$$$
