
 OpenBabel03242516163D

 44 48  0  0  1  0  0  0  0  0999 V2000
   47.3920   33.9740   41.2460 C   0  0  0  0  0  0  0  0  0  0  0  0
   48.2790   35.1380   40.7850 C   0  0  0  0  0  0  0  0  0  0  0  0
   48.8280   33.9260   41.3910 C   0  0  0  0  0  0  0  0  0  0  0  0
   48.2010   36.0750   41.3720 H   0  0  0  0  0  0  0  0  0  0  0  0
   48.3860   35.3370   39.7050 H   0  0  0  0  0  0  0  0  0  0  0  0
   49.4080   33.2950   40.6830 H   0  0  0  0  0  0  0  0  0  0  0  0
   49.4120   34.1120   42.3010 H   0  0  0  0  0  0  0  0  0  0  0  0
   46.7300   33.2620   40.1230 C   0  0  0  0  0  0  0  0  0  0  0  0
   47.2990   33.5650   38.7480 C   0  0  0  0  0  0  0  0  0  0  0  0
   46.5620   32.5990   37.8030 C   0  0  0  0  0  0  0  0  0  0  0  0
   45.2780   33.1350   37.6310 O   0  0  0  0  0  0  0  0  0  0  0  0
   44.6460   32.8370   38.8680 C   0  0  0  0  0  0  0  0  0  0  0  0
   45.2530   33.7060   39.9650 C   0  0  0  0  0  0  0  0  0  0  0  0
   46.6650   32.1710   40.2320 H   0  0  0  0  0  0  0  0  0  0  0  0
   48.3620   33.2940   38.6420 H   0  0  0  0  0  0  0  0  0  0  0  0
   47.0460   34.5950   38.4540 H   0  0  0  0  0  0  0  0  0  0  0  0
   46.5540   31.5820   38.2060 H   0  0  0  0  0  0  0  0  0  0  0  0
   47.1240   32.5890   36.8500 H   0  0  0  0  0  0  0  0  0  0  0  0
   43.5650   32.9800   38.8360 H   0  0  0  0  0  0  0  0  0  0  0  0
   44.8590   31.7820   39.1250 H   0  0  0  0  0  0  0  0  0  0  0  0
   44.6820   33.5340   40.8770 H   0  0  0  0  0  0  0  0  0  0  0  0
   45.3100   34.7600   39.6460 H   0  0  0  0  0  0  0  0  0  0  0  0
   46.1430   35.5860   42.7390 C   0  0  0  0  0  0  0  0  0  0  0  0
   46.5270   34.2900   42.4380 C   0  0  0  0  0  0  0  0  0  0  0  0
   46.0930   33.2900   43.2990 C   0  0  0  0  0  0  0  0  0  0  0  0
   45.3220   33.5980   44.3870 N   0  0  0  0  0  0  0  0  0  0  0  0
   44.9950   34.8710   44.6090 C   0  0  0  0  0  0  0  0  0  0  0  0
   45.3830   35.8480   43.8210 N   0  0  0  0  0  0  0  0  0  0  0  0
   44.1950   35.2520   45.7280 N   0  0  0  0  0  0  0  0  0  0  0  0
   46.4680   36.3770   42.0860 H   0  0  0  0  0  0  0  0  0  0  0  0
   44.7910   35.5720   46.5310 H   0  0  0  0  0  0  0  0  0  0  0  0
   43.1720   35.1550   45.5830 H   0  0  0  0  0  0  0  0  0  0  0  0
   46.4930   31.9050   43.1510 C   0  0  2  0  0  3  0  0  0  0  0  0
   45.8290   30.9100   42.7770 O   0  0  0  0  0  0  0  0  0  0  0  0
   47.4140   30.7460   43.1960 C   0  0  0  0  0  0  0  0  0  0  0  0
   47.5040   30.0070   41.8620 C   0  0  0  0  0  3  0  0  0  0  0  0
   46.5850   30.1950   41.2800 H   0  0  0  0  0  0  0  0  0  0  0  0
   48.7000   30.3410   41.0460 C   0  0  0  0  0  3  0  0  0  0  0  0
   48.6710   29.6480   40.1550 H   0  0  0  0  0  0  0  0  0  0  0  0
   49.9000   30.0270   41.6930 O   0  0  0  0  0  0  0  0  0  0  0  0
   49.6980   29.9420   43.0740 C   0  0  0  0  0  3  0  0  0  0  0  0
   50.6210   29.8440   43.6370 H   0  0  0  0  0  0  0  0  0  0  0  0
   48.8470   31.1180   43.5380 C   0  0  0  0  0  3  0  0  0  0  0  0
   49.0040   31.1980   44.6040 H   0  0  0  0  0  0  0  0  0  0  0  0
  1  3  1  0  0  0  0
  1 24  1  0  0  0  0
  2  1  1  0  0  0  0
  2  4  1  0  0  0  0
  2  3  1  0  0  0  0
  3  7  1  0  0  0  0
  5  2  1  0  0  0  0
  6  3  1  0  0  0  0
  8 14  1  0  0  0  0
  8  1  1  0  0  0  0
  9  8  1  0  0  0  0
 10 17  1  0  0  0  0
 10  9  1  0  0  0  0
 11 10  1  0  0  0  0
 11 12  1  0  0  0  0
 12 20  1  0  0  0  0
 12 13  1  0  0  0  0
 13  8  1  0  0  0  0
 13 21  1  0  0  0  0
 15  9  1  0  0  0  0
 16  9  1  0  0  0  0
 18 10  1  0  0  0  0
 19 12  1  0  0  0  0
 22 13  1  0  0  0  0
 23 28  1  0  0  0  0
 24 23  2  0  0  0  0
 24 25  1  0  0  0  0
 25 26  2  0  0  0  0
 26 27  1  0  0  0  0
 27 29  1  0  0  0  0
 28 27  2  0  0  0  0
 29 31  1  0  0  0  0
 30 23  1  0  0  0  0
 32 29  1  0  0  0  0
 33 35  1  0  0  0  0
 33 25  1  1  0  0  0
 34 33  1  0  0  0  0
 34 35  1  0  0  0  0
 35 43  1  0  0  0  0
 36 35  1  0  0  0  0
 37 36  1  0  0  0  0
 38 40  1  0  0  0  0
 38 36  1  0  0  0  0
 39 38  1  0  0  0  0
 40 41  1  0  0  0  0
 41 43  1  0  0  0  0
 41 42  1  0  0  0  0
 43 44  1  0  0  0  0
M  END
>  <minimizedAffinity>
-4.5907321

>  <minimizedRMSD>
1.33915925

$$$$
