
 OpenBabel03242519103D

 48 51  0  0  1  0  0  0  0  0999 V2000
   48.5050   32.2410   36.9040 C   0  0  0  0  0  0  0  0  0  0  0  0
   47.8710   32.9600   37.9410 C   0  0  0  0  0  0  0  0  0  0  0  0
   46.5580   33.2650   37.6560 C   0  0  0  0  0  0  0  0  0  0  0  0
   45.8770   32.9410   36.5140 C   0  0  0  0  0  0  0  0  0  0  0  0
   46.5370   32.2430   35.5370 C   0  0  0  0  0  0  0  0  0  0  0  0
   47.8550   31.9000   35.7500 C   0  0  0  0  0  0  0  0  0  0  0  0
   46.0330   33.8220   38.4340 H   0  0  0  0  0  0  0  0  0  0  0  0
   44.8350   33.2540   36.4330 H   0  0  0  0  0  0  0  0  0  0  0  0
   45.9980   31.9890   34.6390 H   0  0  0  0  0  0  0  0  0  0  0  0
   49.0600   31.8870   33.6250 C   0  0  0  0  0  0  0  0  0  0  0  0
   48.9930   33.1690   33.5820 O   0  0  0  0  0  0  0  0  0  0  0  0
   48.5130   31.1740   34.7150 N   0  0  0  0  0  0  0  0  0  0  0  0
   48.5740   30.1280   34.7900 H   0  0  0  0  0  0  0  0  0  0  0  0
   49.7080   31.1460   32.5360 C   0  0  0  0  0  0  0  0  0  0  0  0
   49.0480   29.8330   32.2380 C   0  0  0  0  0  0  0  0  0  0  0  0
   48.5320   29.4860   33.1810 H   0  0  0  0  0  0  0  0  0  0  0  0
   47.9360   29.9470   31.2180 C   0  0  0  0  0  0  0  0  0  0  0  0
   47.7410   28.9080   30.8460 H   0  0  0  0  0  0  0  0  0  0  0  0
   48.2610   30.7140   30.1210 O   0  0  0  0  0  0  0  0  0  0  0  0
   48.5610   32.0320   30.5290 C   0  0  0  0  0  0  0  0  0  0  0  0
   47.7180   32.3850   31.1310 H   0  0  0  0  0  0  0  0  0  0  0  0
   49.8640   31.9440   31.2790 C   0  0  0  0  0  0  0  0  0  0  0  0
   50.5550   31.3510   30.6160 H   0  0  0  0  0  0  0  0  0  0  0  0
   48.4920   33.3360   39.1490 N   0  0  0  0  0  0  0  0  0  0  0  0
   49.4690   33.6560   38.9190 H   0  0  0  0  0  0  0  0  0  0  0  0
   47.4630   34.4580   42.3650 N   0  0  0  0  0  0  0  0  0  0  0  0
   47.4100   34.6440   40.9210 C   0  0  0  0  0  0  0  0  0  0  0  0
   48.0340   33.3470   40.5010 C   0  0  2  0  0  0  0  0  0  0  0  0
   49.2740   33.2940   41.3880 C   0  0  0  0  0  0  0  0  0  0  0  0
   48.7820   33.9420   42.6570 C   0  0  0  0  0  0  0  0  0  0  0  0
   46.3790   34.7710   40.5390 H   0  0  0  0  0  0  0  0  0  0  0  0
   48.1010   35.4660   40.6630 H   0  0  0  0  0  0  0  0  0  0  0  0
   47.3600   32.4840   40.6820 H   0  0  0  0  0  0  0  0  0  0  0  0
   50.0250   33.9660   40.8930 H   0  0  0  0  0  0  0  0  0  0  0  0
   49.6510   32.2770   41.5110 H   0  0  0  0  0  0  0  0  0  0  0  0
   49.4310   34.8200   42.9000 H   0  0  0  0  0  0  0  0  0  0  0  0
   48.8140   33.2020   43.4680 H   0  0  0  0  0  0  0  0  0  0  0  0
   44.6300   35.8530   44.3430 C   0  0  0  0  0  0  0  0  0  0  0  0
   45.5400   35.7170   43.2930 C   0  0  0  0  0  0  0  0  0  0  0  0
   46.4980   34.6950   43.3530 C   0  0  0  0  0  0  0  0  0  0  0  0
   46.4640   33.9040   44.4460 N   0  0  0  0  0  0  0  0  0  0  0  0
   45.5970   34.0280   45.4530 C   0  0  0  0  0  0  0  0  0  0  0  0
   44.6680   35.0220   45.3900 N   0  0  0  0  0  0  0  0  0  0  0  0
   43.9660   36.6720   44.1550 H   0  0  0  0  0  0  0  0  0  0  0  0
   45.5790   36.3480   42.4040 H   0  0  0  0  0  0  0  0  0  0  0  0
   45.5860   33.3850   46.3170 H   0  0  0  0  0  0  0  0  0  0  0  0
   50.9980   31.5940   37.2910 N   0  0  0  0  0  0  0  0  0  0  0  0
   49.8950   31.8790   37.1270 C   0  0  0  0  0  0  0  0  0  0  0  0
  1 48  1  0  0  0  0
  1  2  1  0  0  0  0
  2 24  1  0  0  0  0
  3  2  2  0  0  0  0
  3  7  1  0  0  0  0
  4  3  1  0  0  0  0
  5  6  1  0  0  0  0
  5  4  2  0  0  0  0
  6  1  2  0  0  0  0
  8  4  1  0  0  0  0
  9  5  1  0  0  0  0
 10 12  1  0  0  0  0
 11 10  2  0  0  0  0
 12 13  1  0  0  0  0
 12  6  1  0  0  0  0
 14 10  1  0  0  0  0
 15 14  1  0  0  0  0
 15 16  1  0  0  0  0
 17 15  1  0  0  0  0
 18 17  1  0  0  0  0
 19 20  1  0  0  0  0
 19 17  1  0  0  0  0
 20 21  1  0  0  0  0
 20 22  1  0  0  0  0
 22 14  1  0  0  0  0
 23 22  1  0  0  0  0
 24 28  1  0  0  0  0
 25 24  1  0  0  0  0
 26 30  1  0  0  0  0
 26 40  1  0  0  0  0
 27 26  1  0  0  0  0
 28 33  1  1  0  0  0
 28 27  1  0  0  0  0
 28 29  1  0  0  0  0
 29 35  1  0  0  0  0
 29 30  1  0  0  0  0
 30 36  1  0  0  0  0
 30 37  1  0  0  0  0
 31 27  1  0  0  0  0
 32 27  1  0  0  0  0
 34 29  1  0  0  0  0
 38 43  1  0  0  0  0
 39 40  1  0  0  0  0
 39 38  2  0  0  0  0
 40 41  2  0  0  0  0
 41 42  1  0  0  0  0
 42 46  1  0  0  0  0
 43 42  2  0  0  0  0
 44 38  1  0  0  0  0
 45 39  1  0  0  0  0
 48 47  3  0  0  0  0
M  END
>  <minimizedAffinity>
-6.02134323

>  <minimizedRMSD>
1.22263503

$$$$
