
 OpenBabel03252503353D

 23 24  0  0  0  0  0  0  0  0999 V2000
   45.9390   34.0300   40.9250 C   0  0  0  0  0  0  0  0  0  0  0  0
   44.8060   33.5100   41.2170 O   0  0  0  0  0  0  0  0  0  0  0  0
   46.5220   34.7420   42.0020 N   0  0  0  0  0  0  0  0  0  0  0  0
   47.4470   35.1890   41.8600 H   0  0  0  0  0  0  0  0  0  0  0  0
   46.5400   33.8830   39.5950 C   0  0  0  0  0  3  0  0  0  0  0  0
   46.3040   32.5140   38.9800 C   0  0  0  0  0  3  0  0  0  0  0  0
   47.0180   31.8210   39.4220 H   0  0  0  0  0  0  0  0  0  0  0  0
   46.6190   32.6670   37.4960 C   0  0  0  0  0  3  0  0  0  0  0  0
   45.7650   33.1450   36.9480 H   0  0  0  0  0  0  0  0  0  0  0  0
   47.7180   33.4700   37.2600 O   0  0  0  0  0  0  0  0  0  0  0  0
   48.5820   33.4410   38.3380 C   0  0  0  0  0  3  0  0  0  0  0  0
   49.5560   33.9110   38.1050 H   0  0  0  0  0  0  0  0  0  0  0  0
   48.0180   34.1490   39.5580 C   0  0  0  0  0  3  0  0  0  0  0  0
   48.5540   33.7200   40.4300 H   0  0  0  0  0  0  0  0  0  0  0  0
   44.4750   35.9790   44.8530 C   0  0  0  0  0  0  0  0  0  0  0  0
   45.0500   35.9410   43.5700 C   0  0  0  0  0  0  0  0  0  0  0  0
   45.8970   34.8690   43.2620 C   0  0  0  0  0  0  0  0  0  0  0  0
   46.1270   33.9230   44.2000 N   0  0  0  0  0  0  0  0  0  0  0  0
   45.5550   33.9840   45.4390 C   0  0  0  0  0  0  0  0  0  0  0  0
   44.7400   35.0080   45.7480 N   0  0  0  0  0  0  0  0  0  0  0  0
   43.8160   36.8210   45.0810 H   0  0  0  0  0  0  0  0  0  0  0  0
   44.8590   36.7030   42.8310 H   0  0  0  0  0  0  0  0  0  0  0  0
   45.7240   33.2400   46.2040 H   0  0  0  0  0  0  0  0  0  0  0  0
  1  2  2  0  0  0  0
  1  3  1  0  0  0  0
  3 17  1  0  0  0  0
  4  3  1  0  0  0  0
  5  1  1  0  0  0  0
  6  7  1  0  0  0  0
  6  5  1  0  0  0  0
  8  6  1  0  0  0  0
  9  8  1  0  0  0  0
 10  8  1  0  0  0  0
 10 11  1  0  0  0  0
 11 13  1  0  0  0  0
 12 11  1  0  0  0  0
 13  5  1  0  0  0  0
 13 14  1  0  0  0  0
 15 21  1  0  0  0  0
 15 20  1  0  0  0  0
 16 15  2  0  0  0  0
 17 16  1  0  0  0  0
 17 18  2  0  0  0  0
 18 19  1  0  0  0  0
 19 20  2  0  0  0  0
 19 23  1  0  0  0  0
 22 16  1  0  0  0  0
M  END
>  <minimizedAffinity>
-4.11706972

>  <minimizedRMSD>
1.01512754

$$$$
