
 OpenBabel03252503353D

 23 24  0  0  0  0  0  0  0  0999 V2000
   47.6740   32.4750   42.3380 C   0  0  0  0  0  0  0  0  0  0  0  0
   46.4640   32.1400   42.0920 O   0  0  0  0  0  0  0  0  0  0  0  0
   47.7790   33.6290   43.1550 N   0  0  0  0  0  0  0  0  0  0  0  0
   48.7240   33.9690   43.4160 H   0  0  0  0  0  0  0  0  0  0  0  0
   48.8130   31.7180   41.8090 C   0  0  0  0  0  3  0  0  0  0  0  0
   49.5280   30.8970   42.8690 C   0  0  0  0  0  3  0  0  0  0  0  0
   50.1840   31.5680   43.4250 H   0  0  0  0  0  0  0  0  0  0  0  0
   50.3860   29.8940   42.1050 C   0  0  0  0  0  3  0  0  0  0  0  0
   49.7710   29.0290   41.7430 H   0  0  0  0  0  0  0  0  0  0  0  0
   50.9760   30.4350   40.9810 O   0  0  0  0  0  0  0  0  0  0  0  0
   51.1540   31.7970   41.1330 C   0  0  0  0  0  3  0  0  0  0  0  0
   51.7960   32.2250   40.3410 H   0  0  0  0  0  0  0  0  0  0  0  0
   49.8420   32.5630   41.1160 C   0  0  0  0  0  3  0  0  0  0  0  0
   50.0430   33.5170   41.6460 H   0  0  0  0  0  0  0  0  0  0  0  0
   44.9410   36.0160   43.4560 C   0  0  0  0  0  0  0  0  0  0  0  0
   46.0600   35.3730   42.8990 C   0  0  0  0  0  0  0  0  0  0  0  0
   46.6520   34.3350   43.6300 C   0  0  0  0  0  0  0  0  0  0  0  0
   46.1310   33.9960   44.8300 N   0  0  0  0  0  0  0  0  0  0  0  0
   45.0420   34.6380   45.3490 C   0  0  0  0  0  0  0  0  0  0  0  0
   44.4640   35.6360   44.6570 N   0  0  0  0  0  0  0  0  0  0  0  0
   44.4880   36.8240   42.8760 H   0  0  0  0  0  0  0  0  0  0  0  0
   46.4660   35.6530   41.9410 H   0  0  0  0  0  0  0  0  0  0  0  0
   44.6080   34.3840   46.3050 H   0  0  0  0  0  0  0  0  0  0  0  0
  1  3  1  0  0  0  0
  2  1  2  0  0  0  0
  3  4  1  0  0  0  0
  3 17  1  0  0  0  0
  5  1  1  0  0  0  0
  5  6  1  0  0  0  0
  6  7  1  0  0  0  0
  8  6  1  0  0  0  0
  9  8  1  0  0  0  0
 10 11  1  0  0  0  0
 10  8  1  0  0  0  0
 12 11  1  0  0  0  0
 13 11  1  0  0  0  0
 13 14  1  0  0  0  0
 13  5  1  0  0  0  0
 15 20  1  0  0  0  0
 16 15  2  0  0  0  0
 16 17  1  0  0  0  0
 17 18  2  0  0  0  0
 18 19  1  0  0  0  0
 19 23  1  0  0  0  0
 20 19  2  0  0  0  0
 21 15  1  0  0  0  0
 22 16  1  0  0  0  0
M  END
>  <minimizedAffinity>
-3.59955692

>  <minimizedRMSD>
3.61265349

$$$$
