
 OpenBabel03242522473D

 42 45  0  0  0  0  0  0  0  0999 V2000
   45.4550   35.3100   43.6000 C   0  0  0  0  0  0  0  0  0  0  0  0
   46.5310   34.4810   43.1900 C   0  0  0  0  0  0  0  0  0  0  0  0
   47.0240   33.5110   44.0850 C   0  0  0  0  0  0  0  0  0  0  0  0
   46.4320   33.4260   45.3050 N   0  0  0  0  0  0  0  0  0  0  0  0
   45.4130   34.2230   45.6740 C   0  0  0  0  0  0  0  0  0  0  0  0
   44.9370   35.1500   44.8260 N   0  0  0  0  0  0  0  0  0  0  0  0
   44.9610   36.2750   42.7130 N   0  0  0  0  0  0  0  0  0  0  0  0
   47.8430   32.8620   43.8040 H   0  0  0  0  0  0  0  0  0  0  0  0
   44.7410   35.9010   41.7520 H   0  0  0  0  0  0  0  0  0  0  0  0
   44.8650   37.2550   43.0970 H   0  0  0  0  0  0  0  0  0  0  0  0
   47.1410   34.5950   41.8830 C   0  0  0  0  0  0  0  0  0  0  0  0
   48.2350   35.3530   41.5200 C   0  0  0  0  0  0  0  0  0  0  0  0
   48.6920   35.3470   40.2160 C   0  0  0  0  0  0  0  0  0  0  0  0
   48.0690   34.5810   39.2230 C   0  0  0  0  0  0  0  0  0  0  0  0
   48.5830   34.6420   37.9950 N   0  0  0  0  0  0  0  0  0  0  0  0
   47.9870   33.8970   37.0060 C   0  0  0  0  0  0  0  0  0  0  0  0
   46.8990   33.1400   37.3580 C   0  0  0  0  0  0  0  0  0  0  0  0
   46.3610   33.0700   38.6210 C   0  0  0  0  0  0  0  0  0  0  0  0
   46.9670   33.8220   39.6030 C   0  0  0  0  0  0  0  0  0  0  0  0
   46.5070   33.8250   40.9070 C   0  0  0  0  0  0  0  0  0  0  0  0
   48.6770   35.9240   42.3180 H   0  0  0  0  0  0  0  0  0  0  0  0
   49.5610   35.9650   39.9820 H   0  0  0  0  0  0  0  0  0  0  0  0
   48.3320   33.8850   35.9960 H   0  0  0  0  0  0  0  0  0  0  0  0
   46.4190   32.5450   36.5790 H   0  0  0  0  0  0  0  0  0  0  0  0
   45.4970   32.4550   38.8460 H   0  0  0  0  0  0  0  0  0  0  0  0
   45.6570   33.2050   41.0860 H   0  0  0  0  0  0  0  0  0  0  0  0
   44.8310   34.0480   47.0460 C   0  0  0  0  0  0  0  0  0  0  0  0
   43.8110   34.4330   47.1130 H   0  0  0  0  0  0  0  0  0  0  0  0
   45.5410   34.6220   47.7110 H   0  0  0  0  0  0  0  0  0  0  0  0
   44.9180   32.5760   47.4300 C   0  0  0  0  0  0  0  0  0  0  0  0
   43.9300   32.1430   47.5650 H   0  0  0  0  0  0  0  0  0  0  0  0
   45.4950   32.0730   46.6250 H   0  0  0  0  0  0  0  0  0  0  0  0
   45.7480   32.4930   48.7120 C   0  0  0  0  0  3  0  0  0  0  0  0
   45.2630   31.3320   49.5680 C   0  0  0  0  0  3  0  0  0  0  0  0
   45.3330   31.6080   50.6340 H   0  0  0  0  0  0  0  0  0  0  0  0
   46.1590   30.1150   49.3630 C   0  0  0  0  0  3  0  0  0  0  0  0
   45.5860   29.2360   49.6960 H   0  0  0  0  0  0  0  0  0  0  0  0
   46.4730   29.9520   48.0110 O   0  0  0  0  0  0  0  0  0  0  0  0
   47.3260   30.9560   47.5590 C   0  0  0  0  0  3  0  0  0  0  0  0
   48.3670   30.6080   47.6730 H   0  0  0  0  0  0  0  0  0  0  0  0
   47.1960   32.2120   48.3850 C   0  0  0  0  0  3  0  0  0  0  0  0
   47.6850   33.0270   47.8520 H   0  0  0  0  0  0  0  0  0  0  0  0
  1  6  1  0  0  0  0
  2  1  2  0  0  0  0
  2  3  1  0  0  0  0
  3  4  2  0  0  0  0
  4  5  1  0  0  0  0
  5 27  1  0  0  0  0
  6  5  2  0  0  0  0
  7 10  1  0  0  0  0
  7  1  1  0  0  0  0
  8  3  1  0  0  0  0
  9  7  1  0  0  0  0
 11  2  1  0  0  0  0
 12 11  1  0  0  0  0
 12 21  1  0  0  0  0
 13 12  2  0  0  0  0
 14 19  1  0  0  0  0
 14 13  1  0  0  0  0
 15 14  2  0  0  0  0
 16 17  2  0  0  0  0
 16 15  1  0  0  0  0
 17 18  1  0  0  0  0
 18 25  1  0  0  0  0
 18 19  2  0  0  0  0
 19 20  1  0  0  0  0
 20 26  1  0  0  0  0
 20 11  2  0  0  0  0
 22 13  1  0  0  0  0
 23 16  1  0  0  0  0
 24 17  1  0  0  0  0
 27 28  1  0  0  0  0
 27 30  1  0  0  0  0
 27 29  1  0  0  0  0
 30 31  1  0  0  0  0
 30 33  1  0  0  0  0
 32 30  1  0  0  0  0
 33 34  1  0  0  0  0
 34 35  1  0  0  0  0
 36 34  1  0  0  0  0
 36 37  1  0  0  0  0
 38 36  1  0  0  0  0
 39 40  1  0  0  0  0
 39 38  1  0  0  0  0
 39 41  1  0  0  0  0
 41 33  1  0  0  0  0
 42 41  1  0  0  0  0
M  END
>  <minimizedAffinity>
-6.02107811

>  <minimizedRMSD>
1.07192659

$$$$
