
 OpenBabel03252503353D

 23 24  0  0  0  0  0  0  0  0999 V2000
   45.9490   34.0640   40.9230 C   0  0  0  0  0  0  0  0  0  0  0  0
   44.8270   33.5210   41.2150 O   0  0  0  0  0  0  0  0  0  0  0  0
   46.5230   34.7780   42.0050 N   0  0  0  0  0  0  0  0  0  0  0  0
   47.4390   35.2430   41.8630 H   0  0  0  0  0  0  0  0  0  0  0  0
   46.5490   33.9390   39.5910 C   0  0  0  0  0  3  0  0  0  0  0  0
   46.2210   32.6210   38.9090 C   0  0  0  0  0  3  0  0  0  0  0  0
   46.8810   31.8590   39.3200 H   0  0  0  0  0  0  0  0  0  0  0  0
   46.5580   32.8230   37.4360 C   0  0  0  0  0  3  0  0  0  0  0  0
   45.7440   33.3850   36.9070 H   0  0  0  0  0  0  0  0  0  0  0  0
   47.7120   33.5550   37.2430 O   0  0  0  0  0  0  0  0  0  0  0  0
   48.5630   33.4130   38.3230 C   0  0  0  0  0  3  0  0  0  0  0  0
   49.5710   33.8230   38.1160 H   0  0  0  0  0  0  0  0  0  0  0  0
   48.0420   34.1000   39.5730 C   0  0  0  0  0  3  0  0  0  0  0  0
   48.5390   33.5940   40.4260 H   0  0  0  0  0  0  0  0  0  0  0  0
   44.4700   35.9590   44.8750 C   0  0  0  0  0  0  0  0  0  0  0  0
   45.0430   35.9420   43.5910 C   0  0  0  0  0  0  0  0  0  0  0  0
   45.9000   34.8830   43.2680 C   0  0  0  0  0  0  0  0  0  0  0  0
   46.1420   33.9280   44.1930 N   0  0  0  0  0  0  0  0  0  0  0  0
   45.5720   33.9680   45.4350 C   0  0  0  0  0  0  0  0  0  0  0  0
   44.7480   34.9800   45.7580 N   0  0  0  0  0  0  0  0  0  0  0  0
   43.8030   36.7910   45.1150 H   0  0  0  0  0  0  0  0  0  0  0  0
   44.8410   36.7110   42.8620 H   0  0  0  0  0  0  0  0  0  0  0  0
   45.7510   33.2160   46.1900 H   0  0  0  0  0  0  0  0  0  0  0  0
  1  2  2  0  0  0  0
  1  3  1  0  0  0  0
  3 17  1  0  0  0  0
  4  3  1  0  0  0  0
  5  1  1  0  0  0  0
  6  7  1  0  0  0  0
  6  5  1  0  0  0  0
  8  6  1  0  0  0  0
  9  8  1  0  0  0  0
 10  8  1  0  0  0  0
 10 11  1  0  0  0  0
 11 13  1  0  0  0  0
 12 11  1  0  0  0  0
 13  5  1  0  0  0  0
 13 14  1  0  0  0  0
 15 21  1  0  0  0  0
 15 20  1  0  0  0  0
 16 15  2  0  0  0  0
 17 16  1  0  0  0  0
 17 18  2  0  0  0  0
 18 19  1  0  0  0  0
 19 20  2  0  0  0  0
 19 23  1  0  0  0  0
 22 16  1  0  0  0  0
M  END
>  <minimizedAffinity>
-4.11740685

>  <minimizedRMSD>
0.919228256

$$$$
