
 OpenBabel03242522473D

 42 45  0  0  0  0  0  0  0  0999 V2000
   45.4460   35.1900   43.7500 C   0  0  0  0  0  0  0  0  0  0  0  0
   46.5310   34.3840   43.3180 C   0  0  0  0  0  0  0  0  0  0  0  0
   47.0230   33.3840   44.1800 C   0  0  0  0  0  0  0  0  0  0  0  0
   46.4210   33.2480   45.3900 N   0  0  0  0  0  0  0  0  0  0  0  0
   45.3920   34.0240   45.7800 C   0  0  0  0  0  0  0  0  0  0  0  0
   44.9180   34.9790   44.9640 N   0  0  0  0  0  0  0  0  0  0  0  0
   44.9540   36.1840   42.8950 N   0  0  0  0  0  0  0  0  0  0  0  0
   47.8490   32.7510   43.8830 H   0  0  0  0  0  0  0  0  0  0  0  0
   44.7460   35.8460   41.9190 H   0  0  0  0  0  0  0  0  0  0  0  0
   44.8470   37.1490   43.3150 H   0  0  0  0  0  0  0  0  0  0  0  0
   47.1530   34.5520   42.0220 C   0  0  0  0  0  0  0  0  0  0  0  0
   48.2350   35.3420   41.6960 C   0  0  0  0  0  0  0  0  0  0  0  0
   48.7060   35.3880   40.3980 C   0  0  0  0  0  0  0  0  0  0  0  0
   48.1090   34.6410   39.3740 C   0  0  0  0  0  0  0  0  0  0  0  0
   48.6340   34.7520   38.1550 N   0  0  0  0  0  0  0  0  0  0  0  0
   48.0640   34.0280   37.1360 C   0  0  0  0  0  0  0  0  0  0  0  0
   46.9880   33.2390   37.4510 C   0  0  0  0  0  0  0  0  0  0  0  0
   46.4380   33.1180   38.7050 C   0  0  0  0  0  0  0  0  0  0  0  0
   47.0190   33.8490   39.7170 C   0  0  0  0  0  0  0  0  0  0  0  0
   46.5450   33.8010   41.0160 C   0  0  0  0  0  0  0  0  0  0  0  0
   48.6570   35.8960   42.5170 H   0  0  0  0  0  0  0  0  0  0  0  0
   49.5650   36.0290   40.1930 H   0  0  0  0  0  0  0  0  0  0  0  0
   48.4200   34.0550   36.1300 H   0  0  0  0  0  0  0  0  0  0  0  0
   46.5270   32.6600   36.6480 H   0  0  0  0  0  0  0  0  0  0  0  0
   45.5840   32.4790   38.9010 H   0  0  0  0  0  0  0  0  0  0  0  0
   45.7050   33.1600   41.1650 H   0  0  0  0  0  0  0  0  0  0  0  0
   44.7990   33.7930   47.1390 C   0  0  0  0  0  0  0  0  0  0  0  0
   43.7940   33.3700   47.0830 H   0  0  0  0  0  0  0  0  0  0  0  0
   44.7960   34.8220   47.6050 H   0  0  0  0  0  0  0  0  0  0  0  0
   45.7500   32.9170   47.9450 C   0  0  0  0  0  0  0  0  0  0  0  0
   46.6450   32.6750   47.3750 H   0  0  0  0  0  0  0  0  0  0  0  0
   45.9820   33.4760   48.8770 H   0  0  0  0  0  0  0  0  0  0  0  0
   44.9780   31.6580   48.3410 C   0  0  0  0  0  0  0  0  0  0  0  0
   45.0330   30.6400   47.2120 C   0  0  0  0  0  0  0  0  0  0  0  0
   44.0730   30.0990   47.1590 H   0  0  0  0  0  0  0  0  0  0  0  0
   46.1160   29.6010   47.4910 C   0  0  0  0  0  0  0  0  0  0  0  0
   46.3600   29.1280   46.5260 H   0  0  0  0  0  0  0  0  0  0  0  0
   47.2700   30.2100   47.9900 O   0  0  0  0  0  0  0  0  0  0  0  0
   47.0730   30.7010   49.2780 C   0  0  0  0  0  0  0  0  0  0  0  0
   47.3720   29.9200   50.0000 H   0  0  0  0  0  0  0  0  0  0  0  0
   45.6190   31.0040   49.5430 C   0  0  0  0  0  0  0  0  0  0  0  0
   45.5510   31.6060   50.4490 H   0  0  0  0  0  0  0  0  0  0  0  0
  1  6  1  0  0  0  0
  2  1  2  0  0  0  0
  2  3  1  0  0  0  0
  3  4  2  0  0  0  0
  4  5  1  0  0  0  0
  5 27  1  0  0  0  0
  6  5  2  0  0  0  0
  7 10  1  0  0  0  0
  7  1  1  0  0  0  0
  8  3  1  0  0  0  0
  9  7  1  0  0  0  0
 11  2  1  0  0  0  0
 12 11  1  0  0  0  0
 12 21  1  0  0  0  0
 13 12  2  0  0  0  0
 14 19  1  0  0  0  0
 14 13  1  0  0  0  0
 15 14  2  0  0  0  0
 16 17  2  0  0  0  0
 16 15  1  0  0  0  0
 17 18  1  0  0  0  0
 18 25  1  0  0  0  0
 18 19  2  0  0  0  0
 19 20  1  0  0  0  0
 20 26  1  0  0  0  0
 20 11  2  0  0  0  0
 22 13  1  0  0  0  0
 23 16  1  0  0  0  0
 24 17  1  0  0  0  0
 27 29  1  0  0  0  0
 27 30  1  0  0  0  0
 28 27  1  0  0  0  0
 30 33  1  0  0  0  0
 30 32  1  0  0  0  0
 31 30  1  0  0  0  0
 33 41  1  0  0  0  0
 34 36  1  0  0  0  0
 34 33  1  0  0  0  0
 35 34  1  0  0  0  0
 36 38  1  0  0  0  0
 37 36  1  0  0  0  0
 38 39  1  0  0  0  0
 39 41  1  0  0  0  0
 39 40  1  0  0  0  0
 41 42  1  0  0  0  0
M  END
>  <minimizedAffinity>
-6.50226498

>  <minimizedRMSD>
1.05217862

$$$$
