
 OpenBabel03242523543D

 46 49  0  0  1  0  0  0  0  0999 V2000
   42.8110   34.5180   38.7390 C   0  0  1  0  0  0  0  0  0  0  0  0
   42.9600   35.1810   40.1010 C   0  0  1  0  0  0  0  0  0  0  0  0
   41.6680   35.3970   40.6260 O   0  0  0  0  0  0  0  0  0  0  0  0
   40.7430   35.7490   39.6390 C   0  0  0  0  0  0  0  0  0  0  0  0
   40.4320   34.5890   38.7150 C   0  0  2  0  0  0  0  0  0  0  0  0
   41.6390   33.5950   38.8430 C   0  0  1  0  0  0  0  0  0  0  0  0
   43.7390   33.9530   38.4820 H   0  0  0  0  0  0  0  0  0  0  0  0
   43.5500   36.1000   40.0830 H   0  0  0  0  0  0  0  0  0  0  0  0
   41.0420   36.6670   39.0790 H   0  0  0  0  0  0  0  0  0  0  0  0
   39.8340   36.0480   40.2000 H   0  0  0  0  0  0  0  0  0  0  0  0
   39.5030   34.0620   38.9890 H   0  0  0  0  0  0  0  0  0  0  0  0
   41.4150   33.3040   39.9190 H   0  0  0  0  0  0  0  0  0  0  0  0
   42.5990   35.4790   37.7400 O   0  0  0  0  0  0  0  0  0  0  0  0
   42.9470   35.1670   36.8720 H   0  0  0  0  0  0  0  0  0  0  0  0
   40.4460   35.0260   37.4000 O   0  0  0  0  0  0  0  0  0  0  0  0
   40.5110   34.2770   36.7550 H   0  0  0  0  0  0  0  0  0  0  0  0
   43.4920   34.1740   40.9340 O   0  0  0  0  0  0  0  0  0  0  0  0
   44.5950   34.3100   41.6760 C   0  0  0  0  0  0  0  0  0  0  0  0
   45.8610   34.4240   41.0810 C   0  0  0  0  0  0  0  0  0  0  0  0
   46.9670   34.5640   41.9010 C   0  0  0  0  0  0  0  0  0  0  0  0
   46.7980   34.5860   43.2760 N   0  0  0  0  0  0  0  0  0  0  0  0
   45.5620   34.4710   43.8120 C   0  0  0  0  0  0  0  0  0  0  0  0
   44.4690   34.3340   43.0210 N   0  0  0  0  0  0  0  0  0  0  0  0
   45.9800   34.4060   40.0160 H   0  0  0  0  0  0  0  0  0  0  0  0
   45.4470   34.4900   44.8900 H   0  0  0  0  0  0  0  0  0  0  0  0
   48.3500   34.6710   41.3390 C   0  0  0  0  0  0  0  0  0  0  0  0
   49.0630   36.0120   41.5170 C   0  0  0  0  0  0  0  0  0  0  0  0
   49.4930   34.6980   42.1950 C   0  0  0  0  0  0  0  0  0  0  0  0
   48.4140   34.2210   40.3150 H   0  0  0  0  0  0  0  0  0  0  0  0
   48.4940   36.7540   42.0960 H   0  0  0  0  0  0  0  0  0  0  0  0
   49.6260   36.3510   40.6510 H   0  0  0  0  0  0  0  0  0  0  0  0
   50.4510   34.3260   41.8340 H   0  0  0  0  0  0  0  0  0  0  0  0
   49.3280   34.7440   43.3040 H   0  0  0  0  0  0  0  0  0  0  0  0
   41.5070   32.6750   37.8700 O   0  0  0  0  0  0  0  0  0  0  0  0
   40.8420   31.5030   37.8870 C   0  0  0  0  0  0  0  0  0  0  0  0
   39.6050   31.4010   37.4760 O   0  0  0  0  0  0  0  0  0  0  0  0
   40.7960   30.0470   38.1780 C   0  0  0  0  0  3  0  0  0  0  0  0
   39.8890   29.2940   37.2490 C   0  0  0  0  0  3  0  0  0  0  0  0
   40.3180   29.1980   36.2310 H   0  0  0  0  0  0  0  0  0  0  0  0
   39.7870   27.9040   37.8480 C   0  0  0  0  0  3  0  0  0  0  0  0
   39.3660   28.0690   38.8820 H   0  0  0  0  0  0  0  0  0  0  0  0
   41.0210   27.3000   37.8710 O   0  0  0  0  0  0  0  0  0  0  0  0
   41.9560   27.9810   38.6310 C   0  0  0  0  0  3  0  0  0  0  0  0
   41.5210   28.1410   39.6540 H   0  0  0  0  0  0  0  0  0  0  0  0
   42.1540   29.3900   38.0800 C   0  0  0  0  0  3  0  0  0  0  0  0
   42.5240   29.3650   37.0390 H   0  0  0  0  0  0  0  0  0  0  0  0
  1  7  1  6  0  0  0
  1  6  1  0  0  0  0
  1  2  1  0  0  0  0
  2  8  1  6  0  0  0
  2  3  1  0  0  0  0
  2 17  1  0  0  0  0
  4 10  1  0  0  0  0
  4  3  1  0  0  0  0
  5  6  1  0  0  0  0
  5 11  1  1  0  0  0
  5  4  1  0  0  0  0
  6 12  1  1  0  0  0
  9  4  1  0  0  0  0
 13  1  1  0  0  0  0
 14 13  1  0  0  0  0
 15  5  1  0  0  0  0
 16 15  1  0  0  0  0
 17 18  1  0  0  0  0
 18 23  1  0  0  0  0
 19 18  2  0  0  0  0
 19 20  1  0  0  0  0
 20 21  2  0  0  0  0
 21 22  1  0  0  0  0
 22 25  1  0  0  0  0
 23 22  2  0  0  0  0
 24 19  1  0  0  0  0
 26 27  1  0  0  0  0
 26 20  1  0  0  0  0
 26 28  1  0  0  0  0
 27 30  1  0  0  0  0
 27 28  1  0  0  0  0
 28 33  1  0  0  0  0
 29 26  1  0  0  0  0
 31 27  1  0  0  0  0
 32 28  1  0  0  0  0
 34 35  1  0  0  0  0
 34  6  1  0  0  0  0
 35 37  1  0  0  0  0
 36 35  2  0  0  0  0
 38 40  1  0  0  0  0
 38 37  1  0  0  0  0
 39 38  1  0  0  0  0
 40 42  1  0  0  0  0
 40 41  1  0  0  0  0
 42 43  1  0  0  0  0
 43 44  1  0  0  0  0
 45 37  1  0  0  0  0
 45 43  1  0  0  0  0
 46 45  1  0  0  0  0
M  END
>  <minimizedAffinity>
-5.65818977

>  <minimizedRMSD>
0.105003685

$$$$
