
 OpenBabel03242523543D

 46 49  0  0  1  0  0  0  0  0999 V2000
   42.7720   34.3850   39.0350 C   0  0  1  0  0  0  0  0  0  0  0  0
   43.1380   35.1450   40.3010 C   0  0  1  0  0  0  0  0  0  0  0  0
   41.9430   35.5880   40.9050 O   0  0  0  0  0  0  0  0  0  0  0  0
   40.9800   35.9710   39.9670 C   0  0  0  0  0  0  0  0  0  0  0  0
   40.4320   34.7840   39.2010 C   0  0  2  0  0  0  0  0  0  0  0  0
   41.5060   33.6480   39.3340 C   0  0  1  0  0  0  0  0  0  0  0  0
   43.5890   33.6730   38.7630 H   0  0  0  0  0  0  0  0  0  0  0  0
   43.8390   35.9670   40.1360 H   0  0  0  0  0  0  0  0  0  0  0  0
   41.3400   36.7820   39.2900 H   0  0  0  0  0  0  0  0  0  0  0  0
   40.1760   36.4460   40.5670 H   0  0  0  0  0  0  0  0  0  0  0  0
   39.4740   34.4210   39.6070 H   0  0  0  0  0  0  0  0  0  0  0  0
   41.3510   33.4940   40.4490 H   0  0  0  0  0  0  0  0  0  0  0  0
   42.5920   35.2660   37.9600 O   0  0  0  0  0  0  0  0  0  0  0  0
   42.8100   34.8280   37.1040 H   0  0  0  0  0  0  0  0  0  0  0  0
   40.3750   35.0890   37.8510 O   0  0  0  0  0  0  0  0  0  0  0  0
   40.2790   34.2800   37.2870 H   0  0  0  0  0  0  0  0  0  0  0  0
   43.6120   34.1570   41.1890 O   0  0  0  0  0  0  0  0  0  0  0  0
   44.7480   34.2490   41.8870 C   0  0  0  0  0  0  0  0  0  0  0  0
   45.9810   34.4460   41.2460 C   0  0  0  0  0  0  0  0  0  0  0  0
   47.1230   34.5340   42.0220 C   0  0  0  0  0  0  0  0  0  0  0  0
   47.0210   34.4270   43.4000 N   0  0  0  0  0  0  0  0  0  0  0  0
   45.8150   34.2370   43.9820 C   0  0  0  0  0  0  0  0  0  0  0  0
   44.6880   34.1480   43.2330 N   0  0  0  0  0  0  0  0  0  0  0  0
   46.0480   34.5270   40.1800 H   0  0  0  0  0  0  0  0  0  0  0  0
   45.7530   34.1550   45.0610 H   0  0  0  0  0  0  0  0  0  0  0  0
   48.4750   34.7230   41.4080 C   0  0  0  0  0  0  0  0  0  0  0  0
   49.1110   36.1050   41.5570 C   0  0  0  0  0  0  0  0  0  0  0  0
   49.6460   34.8220   42.2200 C   0  0  0  0  0  0  0  0  0  0  0  0
   48.5270   34.2730   40.3830 H   0  0  0  0  0  0  0  0  0  0  0  0
   48.5210   36.8130   42.1550 H   0  0  0  0  0  0  0  0  0  0  0  0
   49.6200   36.4740   40.6680 H   0  0  0  0  0  0  0  0  0  0  0  0
   50.6100   34.5080   41.8230 H   0  0  0  0  0  0  0  0  0  0  0  0
   49.5210   34.8640   43.3340 H   0  0  0  0  0  0  0  0  0  0  0  0
   41.1600   32.6670   38.4800 O   0  0  0  0  0  0  0  0  0  0  0  0
   40.1520   31.7780   38.5620 C   0  0  0  0  0  0  0  0  0  0  0  0
   39.5500   31.3120   37.4990 O   0  0  0  0  0  0  0  0  0  0  0  0
   39.2400   30.9290   39.3700 C   0  0  0  0  0  3  0  0  0  0  0  0
   38.3690   31.7240   40.2980 C   0  0  0  0  0  3  0  0  0  0  0  0
   37.5700   32.2700   39.7560 H   0  0  0  0  0  0  0  0  0  0  0  0
   37.7070   30.6890   41.1900 C   0  0  0  0  0  3  0  0  0  0  0  0
   38.5630   30.1570   41.6940 H   0  0  0  0  0  0  0  0  0  0  0  0
   36.9250   29.8410   40.4410 O   0  0  0  0  0  0  0  0  0  0  0  0
   37.6350   29.1320   39.4880 C   0  0  0  0  0  3  0  0  0  0  0  0
   38.4840   28.6130   40.0050 H   0  0  0  0  0  0  0  0  0  0  0  0
   38.3150   30.0940   38.5180 C   0  0  0  0  0  3  0  0  0  0  0  0
   37.5710   30.7170   37.9850 H   0  0  0  0  0  0  0  0  0  0  0  0
  1  7  1  6  0  0  0
  1  6  1  0  0  0  0
  1  2  1  0  0  0  0
  2  8  1  6  0  0  0
  2  3  1  0  0  0  0
  2 17  1  0  0  0  0
  4 10  1  0  0  0  0
  4  3  1  0  0  0  0
  5  6  1  0  0  0  0
  5 11  1  1  0  0  0
  5  4  1  0  0  0  0
  6 12  1  1  0  0  0
  9  4  1  0  0  0  0
 13  1  1  0  0  0  0
 14 13  1  0  0  0  0
 15  5  1  0  0  0  0
 16 15  1  0  0  0  0
 17 18  1  0  0  0  0
 18 23  1  0  0  0  0
 19 18  2  0  0  0  0
 19 20  1  0  0  0  0
 20 21  2  0  0  0  0
 21 22  1  0  0  0  0
 22 25  1  0  0  0  0
 23 22  2  0  0  0  0
 24 19  1  0  0  0  0
 26 27  1  0  0  0  0
 26 20  1  0  0  0  0
 26 28  1  0  0  0  0
 27 30  1  0  0  0  0
 27 28  1  0  0  0  0
 28 33  1  0  0  0  0
 29 26  1  0  0  0  0
 31 27  1  0  0  0  0
 32 28  1  0  0  0  0
 34 35  1  0  0  0  0
 34  6  1  0  0  0  0
 35 37  1  0  0  0  0
 36 35  2  0  0  0  0
 37 38  1  0  0  0  0
 38 40  1  0  0  0  0
 39 38  1  0  0  0  0
 40 41  1  0  0  0  0
 42 40  1  0  0  0  0
 43 44  1  0  0  0  0
 43 42  1  0  0  0  0
 45 37  1  0  0  0  0
 45 43  1  0  0  0  0
 46 45  1  0  0  0  0
M  END
>  <minimizedAffinity>
-6.37919044

>  <minimizedRMSD>
1.64541256

$$$$
