
 OpenBabel03252502283D

 36 38  0  0  0  0  0  0  0  0999 V2000
   45.1410   34.3690   41.1060 C   0  0  0  0  0  0  0  0  0  0  0  0
   45.5570   34.9910   42.2810 C   0  0  0  0  0  0  0  0  0  0  0  0
   46.9160   35.2260   42.4610 C   0  0  0  0  0  0  0  0  0  0  0  0
   47.8130   34.8440   41.4920 C   0  0  0  0  0  0  0  0  0  0  0  0
   47.4180   34.2300   40.3320 C   0  0  0  0  0  0  0  0  0  0  0  0
   46.0490   34.0010   40.1630 C   0  0  0  0  0  0  0  0  0  0  0  0
   44.8600   35.2950   43.0480 H   0  0  0  0  0  0  0  0  0  0  0  0
   47.3280   35.7020   43.3410 H   0  0  0  0  0  0  0  0  0  0  0  0
   48.8730   35.0230   41.6260 H   0  0  0  0  0  0  0  0  0  0  0  0
   48.0930   33.9140   39.5440 H   0  0  0  0  0  0  0  0  0  0  0  0
   41.4380   34.7800   40.5130 C   0  0  0  0  0  0  0  0  0  0  0  0
   42.7990   35.1050   40.5990 C   0  0  0  0  0  0  0  0  0  0  0  0
   43.7170   34.1580   40.9810 C   0  0  0  0  0  0  0  0  0  0  0  0
   43.2180   32.9260   41.2580 N   0  0  0  0  0  0  0  0  0  0  0  0
   41.9100   32.6100   41.1780 C   0  0  0  0  0  0  0  0  0  0  0  0
   41.0070   33.5470   40.8000 N   0  0  0  0  0  0  0  0  0  0  0  0
   43.1680   36.0960   40.3710 H   0  0  0  0  0  0  0  0  0  0  0  0
   41.6720   31.5950   41.4280 H   0  0  0  0  0  0  0  0  0  0  0  0
   40.4530   35.8040   40.1020 C   0  0  0  0  0  0  0  0  0  0  0  0
   39.2510   35.1430   39.8290 F   0  0  0  0  0  0  0  0  0  0  0  0
   40.8730   36.2850   38.8570 F   0  0  0  0  0  0  0  0  0  0  0  0
   40.2740   36.7980   41.0120 F   0  0  0  0  0  0  0  0  0  0  0  0
   45.6370   32.1140   38.4210 C   0  0  0  0  0  0  0  0  0  0  0  0
   46.3050   31.1800   38.8430 O   0  0  0  0  0  0  0  0  0  0  0  0
   45.5110   33.3870   39.0140 N   0  0  0  0  0  0  0  0  0  0  0  0
   44.8860   34.1250   38.5620 H   0  0  0  0  0  0  0  0  0  0  0  0
   44.8700   31.8870   37.1430 C   0  0  0  0  0  3  0  0  0  0  0  0
   44.7950   30.4290   36.8780 C   0  0  0  0  0  3  0  0  0  0  0  0
   44.4560   29.8340   37.7390 H   0  0  0  0  0  0  0  0  0  0  0  0
   43.8510   30.2530   35.6810 C   0  0  0  0  0  3  0  0  0  0  0  0
   43.9630   29.2770   35.1940 H   0  0  0  0  0  0  0  0  0  0  0  0
   43.9690   31.3250   34.8140 O   0  0  0  0  0  0  0  0  0  0  0  0
   45.2580   31.8460   34.7480 C   0  0  0  0  0  3  0  0  0  0  0  0
   46.0310   31.0710   34.5890 H   0  0  0  0  0  0  0  0  0  0  0  0
   45.6330   32.5670   36.0250 C   0  0  0  0  0  3  0  0  0  0  0  0
   46.7110   32.4900   36.2760 H   0  0  0  0  0  0  0  0  0  0  0  0
  1  2  1  0  0  0  0
  2  3  2  0  0  0  0
  2  7  1  0  0  0  0
  3  8  1  0  0  0  0
  4  9  1  0  0  0  0
  4  3  1  0  0  0  0
  5  4  2  0  0  0  0
  6  5  1  0  0  0  0
  6  1  2  0  0  0  0
 10  5  1  0  0  0  0
 11 12  2  0  0  0  0
 11 16  1  0  0  0  0
 12 13  1  0  0  0  0
 13  1  1  0  0  0  0
 13 14  2  0  0  0  0
 15 14  1  0  0  0  0
 15 18  1  0  0  0  0
 16 15  2  0  0  0  0
 17 12  1  0  0  0  0
 19 11  1  0  0  0  0
 19 22  1  0  0  0  0
 20 19  1  0  0  0  0
 21 19  1  0  0  0  0
 23 24  2  0  0  0  0
 23 25  1  0  0  0  0
 25  6  1  0  0  0  0
 26 25  1  0  0  0  0
 27 23  1  0  0  0  0
 28 27  1  0  0  0  0
 28 29  1  0  0  0  0
 30 28  1  0  0  0  0
 31 30  1  0  0  0  0
 32 30  1  0  0  0  0
 33 32  1  0  0  0  0
 33 35  1  0  0  0  0
 34 33  1  0  0  0  0
 35 36  1  0  0  0  0
 35 27  1  0  0  0  0
M  END
>  <minimizedAffinity>
-6.00366211

>  <minimizedRMSD>
0.413793087

$$$$
