
 OpenBabel03252507463D

 38 40  0  0  0  0  0  0  0  0999 V2000
   47.4050   34.6270   40.9580 C   0  0  0  0  0  0  0  0  0  0  0  0
   46.8140   33.9830   40.2850 H   0  0  0  0  0  0  0  0  0  0  0  0
   47.6850   35.5360   40.3660 H   0  0  0  0  0  0  0  0  0  0  0  0
   48.6720   33.9870   41.3650 C   0  0  0  0  0  0  0  0  0  0  0  0
   48.8950   32.6960   40.8930 C   0  0  0  0  0  0  0  0  0  0  0  0
   50.0610   32.0340   41.2290 C   0  0  0  0  0  0  0  0  0  0  0  0
   50.9630   32.6790   42.0220 N   0  0  0  0  0  0  0  0  0  0  0  0
   50.7120   33.9350   42.4630 C   0  0  0  0  0  0  0  0  0  0  0  0
   49.5930   34.5500   42.1300 N   0  0  0  0  0  0  0  0  0  0  0  0
   50.2400   31.0180   40.8600 H   0  0  0  0  0  0  0  0  0  0  0  0
   51.4770   34.3850   43.0920 H   0  0  0  0  0  0  0  0  0  0  0  0
   47.6690   31.8920   39.8450 S   0  0  0  0  0  0  0  0  0  0  0  0
   46.6700   30.7050   40.7980 C   0  0  0  0  0  3  0  0  0  0  0  0
   46.4950   31.2630   42.1860 C   0  0  0  0  0  3  0  0  0  0  0  0
   47.2340   32.0690   42.3760 H   0  0  0  0  0  0  0  0  0  0  0  0
   46.7610   30.1920   43.2000 C   0  0  0  0  0  3  0  0  0  0  0  0
   47.8550   30.0210   43.2450 H   0  0  0  0  0  0  0  0  0  0  0  0
   46.0650   29.0590   42.7820 O   0  0  0  0  0  0  0  0  0  0  0  0
   46.7280   28.4350   41.7400 C   0  0  0  0  0  3  0  0  0  0  0  0
   46.0060   27.8840   41.1010 H   0  0  0  0  0  0  0  0  0  0  0  0
   47.4570   29.4170   40.8610 C   0  0  0  0  0  3  0  0  0  0  0  0
   47.5030   29.0450   39.8040 H   0  0  0  0  0  0  0  0  0  0  0  0
   46.5680   35.0560   42.1110 C   0  0  0  0  0  0  0  0  0  0  0  0
   46.7670   34.3670   42.9650 H   0  0  0  0  0  0  0  0  0  0  0  0
   46.8410   36.0750   42.4040 H   0  0  0  0  0  0  0  0  0  0  0  0
   45.0990   34.9850   41.8530 C   0  0  0  0  0  0  0  0  0  0  0  0
   44.1770   35.5210   42.8010 C   0  0  0  0  0  0  0  0  0  0  0  0
   42.5490   35.1850   42.0290 S   0  0  0  0  0  0  0  0  0  0  0  0
   43.3950   34.3680   40.5350 C   0  0  0  0  0  0  0  0  0  0  0  0
   44.4990   34.4650   40.8100 N   0  0  0  0  0  0  0  0  0  0  0  0
   44.4220   36.0000   43.7370 H   0  0  0  0  0  0  0  0  0  0  0  0
   42.6830   33.8380   39.4640 O   0  0  0  0  0  0  0  0  0  0  0  0
   40.6930   34.1340   37.7520 O   0  0  0  0  0  0  0  0  0  0  0  0
   41.7440   34.9070   38.5390 P   0  0  0  0  0  0  0  0  0  0  0  0
   40.9810   35.9800   39.6050 O   0  0  0  0  0  0  0  0  0  0  0  0
   40.3860   35.5010   40.2190 H   0  0  0  0  0  0  0  0  0  0  0  0
   42.7330   35.8020   37.5050 O   0  0  0  0  0  0  0  0  0  0  0  0
   42.3540   35.7510   36.5780 H   0  0  0  0  0  0  0  0  0  0  0  0
  1  4  1  0  0  0  0
  1 23  1  0  0  0  0
  2  1  1  0  0  0  0
  3  1  1  0  0  0  0
  4  9  1  0  0  0  0
  5  6  1  0  0  0  0
  5  4  2  0  0  0  0
  6  7  2  0  0  0  0
  7  8  1  0  0  0  0
  8 11  1  0  0  0  0
  9  8  2  0  0  0  0
 10  6  1  0  0  0  0
 12 13  1  0  0  0  0
 12  5  1  0  0  0  0
 13 21  1  0  0  0  0
 13 14  1  0  0  0  0
 14 15  1  0  0  0  0
 14 16  1  0  0  0  0
 16 17  1  0  0  0  0
 18 16  1  0  0  0  0
 19 18  1  0  0  0  0
 20 19  1  0  0  0  0
 21 19  1  0  0  0  0
 22 21  1  0  0  0  0
 23 25  1  0  0  0  0
 23 24  1  0  0  0  0
 26 23  1  0  0  0  0
 26 27  2  0  0  0  0
 27 31  1  0  0  0  0
 28 27  1  0  0  0  0
 29 30  2  0  0  0  0
 29 28  1  0  0  0  0
 30 26  1  0  0  0  0
 32 29  1  0  0  0  0
 33 34  2  0  0  0  0
 34 32  1  0  0  0  0
 34 35  1  0  0  0  0
 35 36  1  0  0  0  0
 37 34  1  0  0  0  0
 38 37  1  0  0  0  0
M  END
>  <minimizedAffinity>
-4.32451105

>  <minimizedRMSD>
0.31253916

$$$$
