
 OpenBabel03242519343D

 41 43  0  0  0  0  0  0  0  0999 V2000
   46.2850   33.2770   44.7330 C   0  0  0  0  0  0  0  0  0  0  0  0
   46.6950   33.1400   43.4180 C   0  0  0  0  0  0  0  0  0  0  0  0
   46.1520   33.9410   42.4300 C   0  0  0  0  0  0  0  0  0  0  0  0
   45.2030   34.8480   42.8380 N   0  0  0  0  0  0  0  0  0  0  0  0
   44.8090   34.9630   44.1380 C   0  0  0  0  0  0  0  0  0  0  0  0
   45.3440   34.1900   45.0730 N   0  0  0  0  0  0  0  0  0  0  0  0
   43.7850   35.9130   44.4360 N   0  0  0  0  0  0  0  0  0  0  0  0
   47.9090   33.2960   41.0340 C   0  0  0  0  0  0  0  0  0  0  0  0
   48.5050   32.9880   42.0880 O   0  0  0  0  0  0  0  0  0  0  0  0
   46.5700   33.8520   41.0830 N   0  0  0  0  0  0  0  0  0  0  0  0
   47.3910   32.3240   43.3750 H   0  0  0  0  0  0  0  0  0  0  0  0
   43.9550   36.7800   44.9610 H   0  0  0  0  0  0  0  0  0  0  0  0
   42.8280   35.6580   44.0720 H   0  0  0  0  0  0  0  0  0  0  0  0
   45.9470   34.1560   40.3330 H   0  0  0  0  0  0  0  0  0  0  0  0
   46.9790   32.4510   45.7680 C   0  0  0  0  0  0  0  0  0  0  0  0
   46.9050   31.0100   45.4380 C   0  0  0  0  0  0  0  0  0  0  0  0
   46.0070   30.2840   46.3980 C   0  0  0  0  0  0  0  0  0  0  0  0
   46.4670   30.4540   47.8330 C   0  0  0  0  0  0  0  0  0  0  0  0
   46.8210   31.8560   48.1800 C   0  0  0  0  0  0  0  0  0  0  0  0
   46.4330   32.8350   47.1020 C   0  0  0  0  0  0  0  0  0  0  0  0
   48.0540   32.7900   45.7050 H   0  0  0  0  0  0  0  0  0  0  0  0
   46.5480   30.7540   44.4340 H   0  0  0  0  0  0  0  0  0  0  0  0
   47.9080   30.5530   45.5620 H   0  0  0  0  0  0  0  0  0  0  0  0
   46.0110   29.2180   46.1450 H   0  0  0  0  0  0  0  0  0  0  0  0
   44.9760   30.7140   46.2850 H   0  0  0  0  0  0  0  0  0  0  0  0
   45.7720   29.9540   48.5090 H   0  0  0  0  0  0  0  0  0  0  0  0
   47.4140   29.8430   47.8950 H   0  0  0  0  0  0  0  0  0  0  0  0
   46.2700   32.1350   49.0990 H   0  0  0  0  0  0  0  0  0  0  0  0
   47.9080   31.9970   48.3990 H   0  0  0  0  0  0  0  0  0  0  0  0
   46.7790   33.8460   47.3780 H   0  0  0  0  0  0  0  0  0  0  0  0
   45.3190   32.8400   47.0830 H   0  0  0  0  0  0  0  0  0  0  0  0
   48.4380   33.1560   39.5820 C   0  0  0  0  0  3  0  0  0  0  0  0
   47.6350   32.1130   38.8730 C   0  0  0  0  0  3  0  0  0  0  0  0
   46.9800   31.5650   39.5530 H   0  0  0  0  0  0  0  0  0  0  0  0
   46.8690   32.7920   37.7450 C   0  0  0  0  0  3  0  0  0  0  0  0
   46.3830   32.0120   37.1170 H   0  0  0  0  0  0  0  0  0  0  0  0
   47.7950   33.4170   36.9120 O   0  0  0  0  0  0  0  0  0  0  0  0
   48.4740   34.4510   37.5170 C   0  0  0  0  0  3  0  0  0  0  0  0
   48.2420   35.3890   37.0010 H   0  0  0  0  0  0  0  0  0  0  0  0
   48.1860   34.5460   38.9940 C   0  0  0  0  0  3  0  0  0  0  0  0
   48.9510   35.2140   39.4590 H   0  0  0  0  0  0  0  0  0  0  0  0
  1  6  1  0  0  0  0
  1 15  1  0  0  0  0
  2  1  2  0  0  0  0
  3  4  2  0  0  0  0
  3  2  1  0  0  0  0
  4  5  1  0  0  0  0
  5  7  1  0  0  0  0
  5  6  2  0  0  0  0
  7 12  1  0  0  0  0
  8 10  1  0  0  0  0
  8  9  2  0  0  0  0
 10  3  1  0  0  0  0
 11  2  1  0  0  0  0
 13  7  1  0  0  0  0
 14 10  1  0  0  0  0
 15 20  1  0  0  0  0
 16 23  1  0  0  0  0
 16 15  1  0  0  0  0
 16 17  1  0  0  0  0
 17 18  1  0  0  0  0
 18 27  1  0  0  0  0
 18 19  1  0  0  0  0
 18 26  1  0  0  0  0
 19 29  1  0  0  0  0
 19 28  1  0  0  0  0
 20 30  1  0  0  0  0
 20 19  1  0  0  0  0
 21 15  1  0  0  0  0
 22 16  1  0  0  0  0
 24 17  1  0  0  0  0
 25 17  1  0  0  0  0
 31 20  1  0  0  0  0
 32  8  1  0  0  0  0
 33 34  1  0  0  0  0
 33 32  1  0  0  0  0
 35 33  1  0  0  0  0
 36 35  1  0  0  0  0
 37 38  1  0  0  0  0
 37 35  1  0  0  0  0
 38 40  1  0  0  0  0
 39 38  1  0  0  0  0
 40 41  1  0  0  0  0
 40 32  1  0  0  0  0
M  END
>  <minimizedAffinity>
-5.7909255

>  <minimizedRMSD>
1.79456031

$$$$
