
 OpenBabel03242523543D

 46 49  0  0  1  0  0  0  0  0999 V2000
   42.8160   34.5520   38.7420 C   0  0  1  0  0  0  0  0  0  0  0  0
   42.9490   35.1930   40.1150 C   0  0  1  0  0  0  0  0  0  0  0  0
   41.6520   35.3860   40.6360 O   0  0  0  0  0  0  0  0  0  0  0  0
   40.7290   35.7440   39.6490 C   0  0  0  0  0  0  0  0  0  0  0  0
   40.4360   34.5970   38.7040 C   0  0  2  0  0  0  0  0  0  0  0  0
   41.6540   33.6140   38.8230 C   0  0  1  0  0  0  0  0  0  0  0  0
   43.7510   34.0010   38.4810 H   0  0  0  0  0  0  0  0  0  0  0  0
   43.5290   36.1190   40.1160 H   0  0  0  0  0  0  0  0  0  0  0  0
   41.0200   36.6750   39.1070 H   0  0  0  0  0  0  0  0  0  0  0  0
   39.8130   36.0230   40.2100 H   0  0  0  0  0  0  0  0  0  0  0  0
   39.5120   34.0550   38.9640 H   0  0  0  0  0  0  0  0  0  0  0  0
   41.4270   33.3030   39.8920 H   0  0  0  0  0  0  0  0  0  0  0  0
   42.5980   35.5270   37.7580 O   0  0  0  0  0  0  0  0  0  0  0  0
   42.9550   35.2330   36.8860 H   0  0  0  0  0  0  0  0  0  0  0  0
   40.4520   35.0560   37.3970 O   0  0  0  0  0  0  0  0  0  0  0  0
   40.5300   34.3180   36.7410 H   0  0  0  0  0  0  0  0  0  0  0  0
   43.4880   34.1790   40.9340 O   0  0  0  0  0  0  0  0  0  0  0  0
   44.5920   34.3110   41.6760 C   0  0  0  0  0  0  0  0  0  0  0  0
   45.8570   34.4270   41.0810 C   0  0  0  0  0  0  0  0  0  0  0  0
   46.9640   34.5620   41.9000 C   0  0  0  0  0  0  0  0  0  0  0  0
   46.7950   34.5790   43.2760 N   0  0  0  0  0  0  0  0  0  0  0  0
   45.5590   34.4640   43.8120 C   0  0  0  0  0  0  0  0  0  0  0  0
   44.4670   34.3300   43.0210 N   0  0  0  0  0  0  0  0  0  0  0  0
   45.9760   34.4120   40.0160 H   0  0  0  0  0  0  0  0  0  0  0  0
   45.4450   34.4790   44.8900 H   0  0  0  0  0  0  0  0  0  0  0  0
   48.3470   34.6700   41.3390 C   0  0  0  0  0  0  0  0  0  0  0  0
   49.0600   36.0100   41.5210 C   0  0  0  0  0  0  0  0  0  0  0  0
   49.4900   34.6940   42.1940 C   0  0  0  0  0  0  0  0  0  0  0  0
   48.4100   34.2230   40.3130 H   0  0  0  0  0  0  0  0  0  0  0  0
   48.4920   36.7500   42.1010 H   0  0  0  0  0  0  0  0  0  0  0  0
   49.6240   36.3520   40.6550 H   0  0  0  0  0  0  0  0  0  0  0  0
   50.4470   34.3230   41.8310 H   0  0  0  0  0  0  0  0  0  0  0  0
   49.3260   34.7370   43.3030 H   0  0  0  0  0  0  0  0  0  0  0  0
   41.5370   32.7090   37.8350 O   0  0  0  0  0  0  0  0  0  0  0  0
   40.8740   31.5370   37.8230 C   0  0  0  0  0  0  0  0  0  0  0  0
   39.5940   31.4660   37.5610 O   0  0  0  0  0  0  0  0  0  0  0  0
   40.8560   30.0590   37.9780 C   0  0  0  0  0  3  0  0  0  0  0  0
   41.1500   29.3340   36.6960 C   0  0  0  0  0  3  0  0  0  0  0  0
   42.2180   29.4100   36.4100 H   0  0  0  0  0  0  0  0  0  0  0  0
   40.8480   27.8780   36.9970 C   0  0  0  0  0  3  0  0  0  0  0  0
   39.7610   27.8690   37.3020 H   0  0  0  0  0  0  0  0  0  0  0  0
   41.6770   27.4100   37.9880 O   0  0  0  0  0  0  0  0  0  0  0  0
   41.5430   28.0890   39.1870 C   0  0  0  0  0  3  0  0  0  0  0  0
   40.4590   28.0740   39.4740 H   0  0  0  0  0  0  0  0  0  0  0  0
   41.8630   29.5680   38.9910 C   0  0  0  0  0  3  0  0  0  0  0  0
   42.9020   29.7100   38.6420 H   0  0  0  0  0  0  0  0  0  0  0  0
  1  7  1  6  0  0  0
  1  6  1  0  0  0  0
  1  2  1  0  0  0  0
  2  8  1  6  0  0  0
  2  3  1  0  0  0  0
  2 17  1  0  0  0  0
  4 10  1  0  0  0  0
  4  3  1  0  0  0  0
  5  6  1  0  0  0  0
  5 11  1  1  0  0  0
  5  4  1  0  0  0  0
  6 12  1  1  0  0  0
  9  4  1  0  0  0  0
 13  1  1  0  0  0  0
 14 13  1  0  0  0  0
 15  5  1  0  0  0  0
 16 15  1  0  0  0  0
 17 18  1  0  0  0  0
 18 23  1  0  0  0  0
 19 18  2  0  0  0  0
 19 20  1  0  0  0  0
 20 21  2  0  0  0  0
 21 22  1  0  0  0  0
 22 25  1  0  0  0  0
 23 22  2  0  0  0  0
 24 19  1  0  0  0  0
 26 27  1  0  0  0  0
 26 20  1  0  0  0  0
 26 28  1  0  0  0  0
 27 30  1  0  0  0  0
 27 28  1  0  0  0  0
 28 33  1  0  0  0  0
 29 26  1  0  0  0  0
 31 27  1  0  0  0  0
 32 28  1  0  0  0  0
 34  6  1  0  0  0  0
 35 34  1  0  0  0  0
 35 37  1  0  0  0  0
 36 35  2  0  0  0  0
 37 45  1  0  0  0  0
 38 40  1  0  0  0  0
 38 37  1  0  0  0  0
 39 38  1  0  0  0  0
 40 41  1  0  0  0  0
 40 42  1  0  0  0  0
 42 43  1  0  0  0  0
 43 44  1  0  0  0  0
 45 43  1  0  0  0  0
 46 45  1  0  0  0  0
M  END
>  <minimizedAffinity>
-5.68183756

>  <minimizedRMSD>
0.252471268

$$$$
