
 OpenBabel03252507463D

 38 40  0  0  0  0  0  0  0  0999 V2000
   47.7400   34.8130   41.0060 C   0  0  0  0  0  0  0  0  0  0  0  0
   47.1120   34.3620   40.2200 H   0  0  0  0  0  0  0  0  0  0  0  0
   48.1650   35.7560   40.5760 H   0  0  0  0  0  0  0  0  0  0  0  0
   48.8910   33.9560   41.3540 C   0  0  0  0  0  0  0  0  0  0  0  0
   48.9030   32.6780   40.8010 C   0  0  0  0  0  0  0  0  0  0  0  0
   49.9510   31.8210   41.0780 C   0  0  0  0  0  0  0  0  0  0  0  0
   50.9490   32.2630   41.8950 N   0  0  0  0  0  0  0  0  0  0  0  0
   50.9040   33.5140   42.4150 C   0  0  0  0  0  0  0  0  0  0  0  0
   49.8950   34.3170   42.1370 N   0  0  0  0  0  0  0  0  0  0  0  0
   49.9640   30.8140   40.6460 H   0  0  0  0  0  0  0  0  0  0  0  0
   51.7350   33.7970   43.0570 H   0  0  0  0  0  0  0  0  0  0  0  0
   47.5590   32.1450   39.7260 S   0  0  0  0  0  0  0  0  0  0  0  0
   46.4080   31.0460   40.6120 C   0  0  0  0  0  3  0  0  0  0  0  0
   46.4470   31.4210   42.0710 C   0  0  0  0  0  3  0  0  0  0  0  0
   47.3450   32.0350   42.2900 H   0  0  0  0  0  0  0  0  0  0  0  0
   46.5610   30.1830   42.9090 C   0  0  0  0  0  3  0  0  0  0  0  0
   47.5960   29.8020   42.8250 H   0  0  0  0  0  0  0  0  0  0  0  0
   45.6220   29.2770   42.4190 O   0  0  0  0  0  0  0  0  0  0  0  0
   46.0700   28.6960   41.2470 C   0  0  0  0  0  3  0  0  0  0  0  0
   45.2080   28.3920   40.6150 H   0  0  0  0  0  0  0  0  0  0  0  0
   46.9210   29.6360   40.4330 C   0  0  0  0  0  3  0  0  0  0  0  0
   46.8170   29.4190   39.3370 H   0  0  0  0  0  0  0  0  0  0  0  0
   46.8990   35.1700   42.1810 C   0  0  0  0  0  0  0  0  0  0  0  0
   47.1320   34.4600   43.0090 H   0  0  0  0  0  0  0  0  0  0  0  0
   47.1370   36.1880   42.5070 H   0  0  0  0  0  0  0  0  0  0  0  0
   45.4310   35.0530   41.9340 C   0  0  0  0  0  0  0  0  0  0  0  0
   44.5010   35.6370   42.8450 C   0  0  0  0  0  0  0  0  0  0  0  0
   42.8780   35.2160   42.1030 S   0  0  0  0  0  0  0  0  0  0  0  0
   43.7370   34.3100   40.6680 C   0  0  0  0  0  0  0  0  0  0  0  0
   44.8400   34.4480   40.9320 N   0  0  0  0  0  0  0  0  0  0  0  0
   44.7390   36.1860   43.7430 H   0  0  0  0  0  0  0  0  0  0  0  0
   43.0340   33.6920   39.6400 O   0  0  0  0  0  0  0  0  0  0  0  0
   41.0300   33.7990   37.9220 O   0  0  0  0  0  0  0  0  0  0  0  0
   42.0280   34.6650   38.6810 P   0  0  0  0  0  0  0  0  0  0  0  0
   41.1950   35.7220   39.7100 O   0  0  0  0  0  0  0  0  0  0  0  0
   40.6320   35.2260   40.3420 H   0  0  0  0  0  0  0  0  0  0  0  0
   42.9570   35.5880   37.6150 O   0  0  0  0  0  0  0  0  0  0  0  0
   42.5830   35.4800   36.6910 H   0  0  0  0  0  0  0  0  0  0  0  0
  1  4  1  0  0  0  0
  1 23  1  0  0  0  0
  2  1  1  0  0  0  0
  3  1  1  0  0  0  0
  4  9  1  0  0  0  0
  5  6  1  0  0  0  0
  5  4  2  0  0  0  0
  6  7  2  0  0  0  0
  7  8  1  0  0  0  0
  8 11  1  0  0  0  0
  9  8  2  0  0  0  0
 10  6  1  0  0  0  0
 12 13  1  0  0  0  0
 12  5  1  0  0  0  0
 13 14  1  0  0  0  0
 14 15  1  0  0  0  0
 14 16  1  0  0  0  0
 17 16  1  0  0  0  0
 18 16  1  0  0  0  0
 19 18  1  0  0  0  0
 20 19  1  0  0  0  0
 21 13  1  0  0  0  0
 21 19  1  0  0  0  0
 22 21  1  0  0  0  0
 23 25  1  0  0  0  0
 23 24  1  0  0  0  0
 26 23  1  0  0  0  0
 26 27  2  0  0  0  0
 27 31  1  0  0  0  0
 28 27  1  0  0  0  0
 29 30  2  0  0  0  0
 29 28  1  0  0  0  0
 30 26  1  0  0  0  0
 32 29  1  0  0  0  0
 33 34  2  0  0  0  0
 34 32  1  0  0  0  0
 34 35  1  0  0  0  0
 35 36  1  0  0  0  0
 37 34  1  0  0  0  0
 38 37  1  0  0  0  0
M  END
>  <minimizedAffinity>
-4.29955769

>  <minimizedRMSD>
0.713200808

$$$$
