
 OpenBabel03252507463D

 38 40  0  0  0  0  0  0  0  0999 V2000
   47.3940   34.6410   40.9480 C   0  0  0  0  0  0  0  0  0  0  0  0
   46.8030   34.0030   40.2690 H   0  0  0  0  0  0  0  0  0  0  0  0
   47.6650   35.5600   40.3690 H   0  0  0  0  0  0  0  0  0  0  0  0
   48.6660   34.0010   41.3400 C   0  0  0  0  0  0  0  0  0  0  0  0
   48.9220   32.7450   40.7990 C   0  0  0  0  0  0  0  0  0  0  0  0
   50.0950   32.0860   41.1170 C   0  0  0  0  0  0  0  0  0  0  0  0
   50.9700   32.7000   41.9620 N   0  0  0  0  0  0  0  0  0  0  0  0
   50.6880   33.9250   42.4700 C   0  0  0  0  0  0  0  0  0  0  0  0
   49.5630   34.5360   42.1530 N   0  0  0  0  0  0  0  0  0  0  0  0
   50.3000   31.0970   40.6930 H   0  0  0  0  0  0  0  0  0  0  0  0
   51.4330   34.3510   43.1370 H   0  0  0  0  0  0  0  0  0  0  0  0
   47.7300   31.9800   39.6850 S   0  0  0  0  0  0  0  0  0  0  0  0
   46.2870   31.3530   40.6000 C   0  0  0  0  0  3  0  0  0  0  0  0
   46.6650   30.0220   41.1970 C   0  0  0  0  0  3  0  0  0  0  0  0
   47.5770   29.6230   40.7060 H   0  0  0  0  0  0  0  0  0  0  0  0
   45.5720   29.0270   40.9480 C   0  0  0  0  0  3  0  0  0  0  0  0
   45.6120   28.7290   39.8830 H   0  0  0  0  0  0  0  0  0  0  0  0
   44.3730   29.6540   41.2790 O   0  0  0  0  0  0  0  0  0  0  0  0
   43.9910   30.5340   40.2840 C   0  0  0  0  0  3  0  0  0  0  0  0
   43.3760   31.3540   40.7100 H   0  0  0  0  0  0  0  0  0  0  0  0
   45.1740   31.1660   39.5960 C   0  0  0  0  0  3  0  0  0  0  0  0
   44.9220   32.1970   39.2360 H   0  0  0  0  0  0  0  0  0  0  0  0
   46.5590   35.0470   42.1110 C   0  0  0  0  0  0  0  0  0  0  0  0
   46.7560   34.3390   42.9500 H   0  0  0  0  0  0  0  0  0  0  0  0
   46.8360   36.0590   42.4260 H   0  0  0  0  0  0  0  0  0  0  0  0
   45.0890   34.9870   41.8530 C   0  0  0  0  0  0  0  0  0  0  0  0
   44.1720   35.5330   42.8000 C   0  0  0  0  0  0  0  0  0  0  0  0
   42.5410   35.2080   42.0280 S   0  0  0  0  0  0  0  0  0  0  0  0
   43.3810   34.3790   40.5360 C   0  0  0  0  0  0  0  0  0  0  0  0
   44.4860   34.4680   40.8120 N   0  0  0  0  0  0  0  0  0  0  0  0
   44.4210   36.0140   43.7340 H   0  0  0  0  0  0  0  0  0  0  0  0
   42.6650   33.8510   39.4670 O   0  0  0  0  0  0  0  0  0  0  0  0
   40.6840   34.1570   37.7460 O   0  0  0  0  0  0  0  0  0  0  0  0
   41.7340   34.9250   38.5390 P   0  0  0  0  0  0  0  0  0  0  0  0
   40.9700   36.0000   39.6030 O   0  0  0  0  0  0  0  0  0  0  0  0
   40.3700   35.5220   40.2140 H   0  0  0  0  0  0  0  0  0  0  0  0
   42.7310   35.8190   37.5110 O   0  0  0  0  0  0  0  0  0  0  0  0
   42.3560   35.7700   36.5820 H   0  0  0  0  0  0  0  0  0  0  0  0
  1  4  1  0  0  0  0
  1 23  1  0  0  0  0
  2  1  1  0  0  0  0
  3  1  1  0  0  0  0
  4  9  1  0  0  0  0
  5  6  1  0  0  0  0
  5  4  2  0  0  0  0
  6  7  2  0  0  0  0
  7  8  1  0  0  0  0
  8 11  1  0  0  0  0
  9  8  2  0  0  0  0
 10  6  1  0  0  0  0
 12 13  1  0  0  0  0
 12  5  1  0  0  0  0
 13 14  1  0  0  0  0
 15 14  1  0  0  0  0
 16 14  1  0  0  0  0
 16 18  1  0  0  0  0
 17 16  1  0  0  0  0
 19 20  1  0  0  0  0
 19 18  1  0  0  0  0
 21 19  1  0  0  0  0
 21 13  1  0  0  0  0
 22 21  1  0  0  0  0
 23 25  1  0  0  0  0
 23 24  1  0  0  0  0
 26 23  1  0  0  0  0
 26 27  2  0  0  0  0
 27 31  1  0  0  0  0
 28 27  1  0  0  0  0
 29 30  2  0  0  0  0
 29 28  1  0  0  0  0
 30 26  1  0  0  0  0
 32 29  1  0  0  0  0
 33 34  2  0  0  0  0
 34 32  1  0  0  0  0
 34 35  1  0  0  0  0
 35 36  1  0  0  0  0
 37 34  1  0  0  0  0
 38 37  1  0  0  0  0
M  END
>  <minimizedAffinity>
-4.32292414

>  <minimizedRMSD>
0.876273513

$$$$
