
 OpenBabel03252502283D

 36 38  0  0  0  0  0  0  0  0999 V2000
   45.1400   34.3690   41.1060 C   0  0  0  0  0  0  0  0  0  0  0  0
   45.5550   34.9910   42.2810 C   0  0  0  0  0  0  0  0  0  0  0  0
   46.9150   35.2260   42.4610 C   0  0  0  0  0  0  0  0  0  0  0  0
   47.8120   34.8440   41.4930 C   0  0  0  0  0  0  0  0  0  0  0  0
   47.4170   34.2300   40.3330 C   0  0  0  0  0  0  0  0  0  0  0  0
   46.0480   34.0010   40.1630 C   0  0  0  0  0  0  0  0  0  0  0  0
   44.8580   35.2950   43.0480 H   0  0  0  0  0  0  0  0  0  0  0  0
   47.3260   35.7020   43.3410 H   0  0  0  0  0  0  0  0  0  0  0  0
   48.8720   35.0230   41.6270 H   0  0  0  0  0  0  0  0  0  0  0  0
   48.0920   33.9140   39.5450 H   0  0  0  0  0  0  0  0  0  0  0  0
   41.4380   34.7800   40.5130 C   0  0  0  0  0  0  0  0  0  0  0  0
   42.7980   35.1050   40.5980 C   0  0  0  0  0  0  0  0  0  0  0  0
   43.7170   34.1580   40.9810 C   0  0  0  0  0  0  0  0  0  0  0  0
   43.2170   32.9260   41.2570 N   0  0  0  0  0  0  0  0  0  0  0  0
   41.9090   32.6100   41.1760 C   0  0  0  0  0  0  0  0  0  0  0  0
   41.0060   33.5470   40.7990 N   0  0  0  0  0  0  0  0  0  0  0  0
   43.1670   36.0960   40.3710 H   0  0  0  0  0  0  0  0  0  0  0  0
   41.6710   31.5950   41.4260 H   0  0  0  0  0  0  0  0  0  0  0  0
   40.4520   35.8050   40.1010 C   0  0  0  0  0  0  0  0  0  0  0  0
   39.2500   35.1430   39.8280 F   0  0  0  0  0  0  0  0  0  0  0  0
   40.8730   36.2860   38.8570 F   0  0  0  0  0  0  0  0  0  0  0  0
   40.2730   36.7990   41.0110 F   0  0  0  0  0  0  0  0  0  0  0  0
   45.6380   32.1140   38.4210 C   0  0  0  0  0  0  0  0  0  0  0  0
   46.3060   31.1810   38.8420 O   0  0  0  0  0  0  0  0  0  0  0  0
   45.5100   33.3870   39.0150 N   0  0  0  0  0  0  0  0  0  0  0  0
   44.8850   34.1250   38.5620 H   0  0  0  0  0  0  0  0  0  0  0  0
   44.8710   31.8870   37.1430 C   0  0  0  0  0  3  0  0  0  0  0  0
   44.7940   30.4290   36.8780 C   0  0  0  0  0  3  0  0  0  0  0  0
   44.4560   29.8340   37.7400 H   0  0  0  0  0  0  0  0  0  0  0  0
   43.8510   30.2530   35.6810 C   0  0  0  0  0  3  0  0  0  0  0  0
   43.9630   29.2770   35.1940 H   0  0  0  0  0  0  0  0  0  0  0  0
   43.9690   31.3250   34.8130 O   0  0  0  0  0  0  0  0  0  0  0  0
   45.2590   31.8470   34.7490 C   0  0  0  0  0  3  0  0  0  0  0  0
   46.0310   31.0700   34.5890 H   0  0  0  0  0  0  0  0  0  0  0  0
   45.6330   32.5660   36.0260 C   0  0  0  0  0  3  0  0  0  0  0  0
   46.7120   32.4900   36.2760 H   0  0  0  0  0  0  0  0  0  0  0  0
  1  2  1  0  0  0  0
  2  3  2  0  0  0  0
  2  7  1  0  0  0  0
  3  8  1  0  0  0  0
  4  9  1  0  0  0  0
  4  3  1  0  0  0  0
  5  4  2  0  0  0  0
  6  5  1  0  0  0  0
  6  1  2  0  0  0  0
 10  5  1  0  0  0  0
 11 12  2  0  0  0  0
 11 16  1  0  0  0  0
 12 13  1  0  0  0  0
 13  1  1  0  0  0  0
 13 14  2  0  0  0  0
 15 14  1  0  0  0  0
 15 18  1  0  0  0  0
 16 15  2  0  0  0  0
 17 12  1  0  0  0  0
 19 11  1  0  0  0  0
 19 22  1  0  0  0  0
 20 19  1  0  0  0  0
 21 19  1  0  0  0  0
 23 24  2  0  0  0  0
 23 25  1  0  0  0  0
 25  6  1  0  0  0  0
 26 25  1  0  0  0  0
 27 23  1  0  0  0  0
 28 27  1  0  0  0  0
 28 29  1  0  0  0  0
 30 28  1  0  0  0  0
 31 30  1  0  0  0  0
 32 30  1  0  0  0  0
 33 32  1  0  0  0  0
 33 35  1  0  0  0  0
 34 33  1  0  0  0  0
 35 36  1  0  0  0  0
 35 27  1  0  0  0  0
M  END
>  <minimizedAffinity>
-6.00643396

>  <minimizedRMSD>
0.55142653

$$$$
