
 OpenBabel03242510513D

 23 24  0  0  0  0  0  0  0  0999 V2000
   44.4500   36.3780   44.2330 C   0  0  0  0  0  0  0  0  0  0  0  0
   45.0210   36.2360   42.9460 C   0  0  0  0  0  0  0  0  0  0  0  0
   45.8110   35.0930   42.7140 C   0  0  0  0  0  0  0  0  0  0  0  0
   45.9800   34.1990   43.7270 N   0  0  0  0  0  0  0  0  0  0  0  0
   45.4240   34.3680   44.9310 C   0  0  0  0  0  0  0  0  0  0  0  0
   44.6530   35.4630   45.1920 N   0  0  0  0  0  0  0  0  0  0  0  0
   46.7220   32.4830   45.7100 C   0  0  0  0  0  0  0  0  0  0  0  0
   47.4780   32.4800   44.7140 O   0  0  0  0  0  0  0  0  0  0  0  0
   45.6540   33.3860   45.9280 N   0  0  0  0  0  0  0  0  0  0  0  0
   43.8550   37.2690   44.3610 H   0  0  0  0  0  0  0  0  0  0  0  0
   44.8860   36.9410   42.1450 H   0  0  0  0  0  0  0  0  0  0  0  0
   46.2930   34.8840   41.7660 H   0  0  0  0  0  0  0  0  0  0  0  0
   45.0740   33.3160   46.7890 H   0  0  0  0  0  0  0  0  0  0  0  0
   46.9720   31.4390   46.7620 C   0  0  0  0  0  3  0  0  0  0  0  0
   47.5690   32.0030   48.0140 C   0  0  0  0  0  3  0  0  0  0  0  0
   46.8920   32.7960   48.3710 H   0  0  0  0  0  0  0  0  0  0  0  0
   47.5740   30.8800   49.0310 C   0  0  0  0  0  3  0  0  0  0  0  0
   48.6010   30.8020   49.4630 H   0  0  0  0  0  0  0  0  0  0  0  0
   47.3130   29.6330   48.4820 O   0  0  0  0  0  0  0  0  0  0  0  0
   48.1550   29.4110   47.3900 C   0  0  0  0  0  3  0  0  0  0  0  0
   48.0560   28.3630   47.0980 H   0  0  0  0  0  0  0  0  0  0  0  0
   47.7760   30.2880   46.2130 C   0  0  0  0  0  3  0  0  0  0  0  0
   48.6840   30.7320   45.7350 H   0  0  0  0  0  0  0  0  0  0  0  0
  1 10  1  0  0  0  0
  1  6  1  0  0  0  0
  2  1  2  0  0  0  0
  3  2  1  0  0  0  0
  3  4  2  0  0  0  0
  4  5  1  0  0  0  0
  5  6  2  0  0  0  0
  5  9  1  0  0  0  0
  7  9  1  0  0  0  0
  7 14  1  0  0  0  0
  8  7  2  0  0  0  0
  9 13  1  0  0  0  0
 11  2  1  0  0  0  0
 12  3  1  0  0  0  0
 14 15  1  0  0  0  0
 15 16  1  0  0  0  0
 15 17  1  0  0  0  0
 17 18  1  0  0  0  0
 19 17  1  0  0  0  0
 20 19  1  0  0  0  0
 21 20  1  0  0  0  0
 22 14  1  0  0  0  0
 22 20  1  0  0  0  0
 23 22  1  0  0  0  0
M  END
>  <minimizedAffinity>
-4.44654512

>  <minimizedRMSD>
1.69415569

$$$$
