
 OpenBabel03242514333D

 27 29  0  0  1  0  0  0  0  0999 V2000
   49.5300   35.3450   42.8210 O   0  0  0  0  0  0  0  0  0  0  0  0
   48.9520   34.2480   42.0050 P   0  0  1  0  0  0  0  0  0  0  0  0
   50.2160   33.2430   41.5290 O   0  0  0  0  0  0  0  0  0  0  0  0
   50.2030   32.4080   42.0580 H   0  0  0  0  0  0  0  0  0  0  0  0
   47.7940   33.3490   42.9000 O   0  0  0  0  0  0  0  0  0  0  0  0
   46.1710   35.0980   42.9920 C   0  0  0  0  0  0  0  0  0  0  0  0
   46.7750   34.0040   43.5980 C   0  0  0  0  0  0  0  0  0  0  0  0
   46.3320   33.6270   44.8620 C   0  0  0  0  0  0  0  0  0  0  0  0
   45.3360   34.3440   45.4370 N   0  0  0  0  0  0  0  0  0  0  0  0
   44.7710   35.4010   44.8200 C   0  0  0  0  0  0  0  0  0  0  0  0
   45.1860   35.7720   43.6090 N   0  0  0  0  0  0  0  0  0  0  0  0
   46.4730   35.4460   41.9990 H   0  0  0  0  0  0  0  0  0  0  0  0
   46.8150   32.7720   45.3200 H   0  0  0  0  0  0  0  0  0  0  0  0
   43.9790   35.9510   45.3020 H   0  0  0  0  0  0  0  0  0  0  0  0
   48.2330   34.9130   40.6500 O   0  0  0  0  0  0  0  0  0  0  0  0
   47.7000   34.2190   39.6140 C   0  0  1  0  0  3  0  0  0  0  0  0
   46.5270   33.8040   39.8920 O   0  0  0  0  0  0  0  0  0  0  0  0
   47.1910   33.4770   38.4370 C   0  0  0  0  0  0  0  0  0  0  0  0
   47.4460   32.0100   38.4370 C   0  0  0  0  0  3  0  0  0  0  0  0
   46.8870   31.6330   37.5280 H   0  0  0  0  0  0  0  0  0  0  0  0
   48.8630   31.5910   38.2220 C   0  0  0  0  0  3  0  0  0  0  0  0
   49.2400   31.1190   39.1470 H   0  0  0  0  0  0  0  0  0  0  0  0
   49.6660   32.6350   37.7710 O   0  0  0  0  0  0  0  0  0  0  0  0
   48.9990   33.2370   36.6980 C   0  0  0  0  0  3  0  0  0  0  0  0
   48.5980   32.4430   36.0420 H   0  0  0  0  0  0  0  0  0  0  0  0
   47.8780   34.0850   37.2280 C   0  0  0  0  0  3  0  0  0  0  0  0
   48.3280   35.0880   37.4590 H   0  0  0  0  0  0  0  0  0  0  0  0
  2  1  2  1  0  0  0
  2  5  1  0  0  0  0
  3  2  1  0  0  0  0
  3  4  1  0  0  0  0
  5  7  1  0  0  0  0
  6  7  2  0  0  0  0
  6 11  1  0  0  0  0
  7  8  1  0  0  0  0
  8 13  1  0  0  0  0
  8  9  2  0  0  0  0
 10 14  1  0  0  0  0
 10  9  1  0  0  0  0
 11 10  2  0  0  0  0
 12  6  1  0  0  0  0
 15  2  1  0  0  0  0
 16 17  1  0  0  0  0
 16 15  1  6  0  0  0
 18 16  1  0  0  0  0
 18 17  1  0  0  0  0
 19 18  1  0  0  0  0
 20 19  1  0  0  0  0
 21 19  1  0  0  0  0
 21 22  1  0  0  0  0
 23 21  1  0  0  0  0
 24 26  1  0  0  0  0
 24 23  1  0  0  0  0
 25 24  1  0  0  0  0
 26 27  1  0  0  0  0
 26 18  1  0  0  0  0
M  END
>  <minimizedAffinity>
-4.50857735

>  <minimizedRMSD>
0.982157648

$$$$
