
 OpenBabel03252503353D

 23 24  0  0  0  0  0  0  0  0999 V2000
   46.5730   33.3080   41.2350 C   0  0  0  0  0  0  0  0  0  0  0  0
   45.3570   32.9380   41.3860 O   0  0  0  0  0  0  0  0  0  0  0  0
   47.0250   34.1770   42.2590 N   0  0  0  0  0  0  0  0  0  0  0  0
   48.0030   34.5210   42.2250 H   0  0  0  0  0  0  0  0  0  0  0  0
   47.3870   32.8570   40.1010 C   0  0  0  0  0  3  0  0  0  0  0  0
   47.4010   33.8440   38.9450 C   0  0  0  0  0  3  0  0  0  0  0  0
   46.4770   33.7130   38.3830 H   0  0  0  0  0  0  0  0  0  0  0  0
   48.5760   33.4320   38.0650 C   0  0  0  0  0  3  0  0  0  0  0  0
   49.5470   33.7980   38.4870 H   0  0  0  0  0  0  0  0  0  0  0  0
   48.7050   32.0630   37.9460 O   0  0  0  0  0  0  0  0  0  0  0  0
   47.4830   31.4410   38.1190 C   0  0  0  0  0  3  0  0  0  0  0  0
   47.5160   30.3710   37.8380 H   0  0  0  0  0  0  0  0  0  0  0  0
   46.9840   31.5190   39.5510 C   0  0  0  0  0  3  0  0  0  0  0  0
   45.8840   31.3910   39.4960 H   0  0  0  0  0  0  0  0  0  0  0  0
   44.6200   36.0850   44.3630 C   0  0  0  0  0  0  0  0  0  0  0  0
   45.4090   35.7500   43.2490 C   0  0  0  0  0  0  0  0  0  0  0  0
   46.1990   34.5970   43.3260 C   0  0  0  0  0  0  0  0  0  0  0  0
   46.1730   33.8560   44.4570 N   0  0  0  0  0  0  0  0  0  0  0  0
   45.3970   34.2040   45.5260 C   0  0  0  0  0  0  0  0  0  0  0  0
   44.6340   35.3100   45.4650 N   0  0  0  0  0  0  0  0  0  0  0  0
   44.0080   36.9880   44.2910 H   0  0  0  0  0  0  0  0  0  0  0  0
   45.4210   36.3490   42.3520 H   0  0  0  0  0  0  0  0  0  0  0  0
   45.3590   33.6290   46.4400 H   0  0  0  0  0  0  0  0  0  0  0  0
  1  2  2  0  0  0  0
  1  3  1  0  0  0  0
  3 17  1  0  0  0  0
  4  3  1  0  0  0  0
  5  1  1  0  0  0  0
  6  5  1  0  0  0  0
  7  6  1  0  0  0  0
  8  9  1  0  0  0  0
  8  6  1  0  0  0  0
 10  8  1  0  0  0  0
 10 11  1  0  0  0  0
 11 13  1  0  0  0  0
 12 11  1  0  0  0  0
 13  5  1  0  0  0  0
 14 13  1  0  0  0  0
 15 20  1  0  0  0  0
 16 17  1  0  0  0  0
 16 15  2  0  0  0  0
 17 18  2  0  0  0  0
 18 19  1  0  0  0  0
 19 23  1  0  0  0  0
 20 19  2  0  0  0  0
 21 15  1  0  0  0  0
 22 16  1  0  0  0  0
M  END
>  <minimizedAffinity>
-3.70431852

>  <minimizedRMSD>
1.15418589

$$$$
