
 OpenBabel03242516533D

 46 49  0  0  1  0  0  0  0  0999 V2000
   47.8410   32.8720   41.7050 C   0  0  1  0  0  0  0  0  0  0  0  0
   47.4860   32.2070   40.4520 C   0  0  0  0  0  0  0  0  0  0  0  0
   48.5040   32.6790   39.4200 C   0  0  0  0  0  0  0  0  0  0  0  0
   48.2130   34.1480   39.1560 C   0  0  0  0  0  0  0  0  0  0  0  0
   48.1880   35.0000   40.3870 C   0  0  0  0  0  0  0  0  0  0  0  0
   47.6870   34.3950   41.6220 C   0  0  1  0  0  0  0  0  0  0  0  0
   48.9560   32.7570   41.8680 H   0  0  0  0  0  0  0  0  0  0  0  0
   46.4510   32.4670   40.1250 H   0  0  0  0  0  0  0  0  0  0  0  0
   47.5150   31.1240   40.5690 H   0  0  0  0  0  0  0  0  0  0  0  0
   49.5070   32.5390   39.8570 H   0  0  0  0  0  0  0  0  0  0  0  0
   48.3300   32.1460   38.4750 H   0  0  0  0  0  0  0  0  0  0  0  0
   47.2520   34.2020   38.6090 H   0  0  0  0  0  0  0  0  0  0  0  0
   48.9930   34.5050   38.4520 H   0  0  0  0  0  0  0  0  0  0  0  0
   49.2310   35.3920   40.5190 H   0  0  0  0  0  0  0  0  0  0  0  0
   47.5870   35.9100   40.1460 H   0  0  0  0  0  0  0  0  0  0  0  0
   48.3060   34.7820   42.4870 H   0  0  0  0  0  0  0  0  0  0  0  0
   45.4110   31.0290   43.9440 C   0  0  0  0  0  0  0  0  0  0  0  0
   46.0940   31.5400   42.8320 C   0  0  0  0  0  0  0  0  0  0  0  0
   47.2020   32.3860   42.9110 C   0  0  0  0  0  0  0  0  0  0  0  0
   47.5950   32.6970   44.1480 N   0  0  0  0  0  0  0  0  0  0  0  0
   46.9460   32.2110   45.2380 C   0  0  0  0  0  0  0  0  0  0  0  0
   45.8870   31.4020   45.1530 N   0  0  0  0  0  0  0  0  0  0  0  0
   44.5720   30.3860   43.7400 H   0  0  0  0  0  0  0  0  0  0  0  0
   45.7610   31.2750   41.8370 H   0  0  0  0  0  0  0  0  0  0  0  0
   47.3320   32.5150   46.2160 H   0  0  0  0  0  0  0  0  0  0  0  0
   46.3210   34.8140   41.9460 C   0  0  0  0  0  0  0  0  0  0  0  0
   45.9130   35.4840   43.1090 C   0  0  0  0  0  0  0  0  0  0  0  0
   44.5560   35.7950   43.1930 C   0  0  0  0  0  0  0  0  0  0  0  0
   43.7400   35.4250   42.1450 C   0  0  0  0  0  0  0  0  0  0  0  0
   44.1560   34.7630   41.0020 C   0  0  0  0  0  0  0  0  0  0  0  0
   45.4860   34.4650   40.9340 N   0  0  0  0  0  0  0  0  0  0  0  0
   46.6620   35.6940   43.8140 H   0  0  0  0  0  0  0  0  0  0  0  0
   44.2280   36.3030   44.0670 H   0  0  0  0  0  0  0  0  0  0  0  0
   42.6800   35.6730   42.2220 H   0  0  0  0  0  0  0  0  0  0  0  0
   43.2170   34.4180   39.9420 C   0  0  0  0  0  0  0  0  0  0  0  0
   42.3550   35.2790   39.6090 O   0  0  0  0  0  0  0  0  0  0  0  0
   43.2560   33.0820   39.2540 C   0  0  0  0  0  3  0  0  0  0  0  0
   42.0530   32.9210   38.3470 C   0  0  0  0  0  3  0  0  0  0  0  0
   42.3520   32.6900   37.3040 H   0  0  0  0  0  0  0  0  0  0  0  0
   41.1400   31.7980   38.8020 C   0  0  0  0  0  3  0  0  0  0  0  0
   40.3470   31.7350   38.0060 H   0  0  0  0  0  0  0  0  0  0  0  0
   41.7850   30.5790   38.9230 O   0  0  0  0  0  0  0  0  0  0  0  0
   43.0620   30.6870   39.4500 C   0  0  0  0  0  3  0  0  0  0  0  0
   43.3960   29.7920   39.9780 H   0  0  0  0  0  0  0  0  0  0  0  0
   43.1620   31.9580   40.2690 C   0  0  0  0  0  3  0  0  0  0  0  0
   44.0150   31.9070   40.9490 H   0  0  0  0  0  0  0  0  0  0  0  0
  1  7  1  1  0  0  0
  1 19  1  0  0  0  0
  2  9  1  0  0  0  0
  2  1  1  0  0  0  0
  3 10  1  0  0  0  0
  3  2  1  0  0  0  0
  4  3  1  0  0  0  0
  4  5  1  0  0  0  0
  5 14  1  0  0  0  0
  5  6  1  0  0  0  0
  6  1  1  0  0  0  0
  6 26  1  0  0  0  0
  6 16  1  1  0  0  0
  8  2  1  0  0  0  0
 11  3  1  0  0  0  0
 12  4  1  0  0  0  0
 13  4  1  0  0  0  0
 15  5  1  0  0  0  0
 17 22  1  0  0  0  0
 18 19  1  0  0  0  0
 18 17  2  0  0  0  0
 19 20  2  0  0  0  0
 20 21  1  0  0  0  0
 21 25  1  0  0  0  0
 22 21  2  0  0  0  0
 23 17  1  0  0  0  0
 24 18  1  0  0  0  0
 26 27  1  0  0  0  0
 27 28  2  0  0  0  0
 27 32  1  0  0  0  0
 28 33  1  0  0  0  0
 29 34  1  0  0  0  0
 29 28  1  0  0  0  0
 30 29  2  0  0  0  0
 31 30  1  0  0  0  0
 31 26  2  0  0  0  0
 35 30  1  0  0  0  0
 36 35  2  0  0  0  0
 37 35  1  0  0  0  0
 37 45  1  0  0  0  0
 38 40  1  0  0  0  0
 38 37  1  0  0  0  0
 39 38  1  0  0  0  0
 40 42  1  0  0  0  0
 41 40  1  0  0  0  0
 42 43  1  0  0  0  0
 43 44  1  0  0  0  0
 43 45  1  0  0  0  0
 45 46  1  0  0  0  0
M  END
>  <minimizedAffinity>
-5.21592331

>  <minimizedRMSD>
0.203640282

$$$$
