
 OpenBabel03242516533D

 46 49  0  0  1  0  0  0  0  0999 V2000
   47.8370   32.9040   41.8110 C   0  0  1  0  0  0  0  0  0  0  0  0
   47.5320   32.2800   40.5250 C   0  0  0  0  0  0  0  0  0  0  0  0
   48.5610   32.8210   39.5380 C   0  0  0  0  0  0  0  0  0  0  0  0
   48.2340   34.2900   39.3240 C   0  0  0  0  0  0  0  0  0  0  0  0
   48.1540   35.0920   40.5870 C   0  0  0  0  0  0  0  0  0  0  0  0
   47.6420   34.4240   41.7840 C   0  0  1  0  0  0  0  0  0  0  0  0
   48.9510   32.8140   41.9980 H   0  0  0  0  0  0  0  0  0  0  0  0
   46.4990   32.5240   40.1820 H   0  0  0  0  0  0  0  0  0  0  0  0
   47.5900   31.1940   40.6000 H   0  0  0  0  0  0  0  0  0  0  0  0
   49.5570   32.6910   39.9940 H   0  0  0  0  0  0  0  0  0  0  0  0
   48.4260   32.3210   38.5690 H   0  0  0  0  0  0  0  0  0  0  0  0
   47.2860   34.3390   38.7550 H   0  0  0  0  0  0  0  0  0  0  0  0
   49.0210   34.6960   38.6550 H   0  0  0  0  0  0  0  0  0  0  0  0
   49.1820   35.5070   40.7610 H   0  0  0  0  0  0  0  0  0  0  0  0
   47.5340   35.9930   40.3660 H   0  0  0  0  0  0  0  0  0  0  0  0
   48.2280   34.7940   42.6790 H   0  0  0  0  0  0  0  0  0  0  0  0
   45.3920   30.9270   43.9140 C   0  0  0  0  0  0  0  0  0  0  0  0
   46.0870   31.4990   42.8410 C   0  0  0  0  0  0  0  0  0  0  0  0
   47.1840   32.3530   42.9810 C   0  0  0  0  0  0  0  0  0  0  0  0
   47.5520   32.6080   44.2380 N   0  0  0  0  0  0  0  0  0  0  0  0
   46.8890   32.0620   45.2920 C   0  0  0  0  0  0  0  0  0  0  0  0
   45.8420   31.2470   45.1480 N   0  0  0  0  0  0  0  0  0  0  0  0
   44.5640   30.2850   43.6640 H   0  0  0  0  0  0  0  0  0  0  0  0
   45.7750   31.2800   41.8280 H   0  0  0  0  0  0  0  0  0  0  0  0
   47.2550   32.3220   46.2900 H   0  0  0  0  0  0  0  0  0  0  0  0
   46.2560   34.7920   42.0890 C   0  0  0  0  0  0  0  0  0  0  0  0
   45.8000   35.3950   43.2700 C   0  0  0  0  0  0  0  0  0  0  0  0
   44.4320   35.6660   43.3300 C   0  0  0  0  0  0  0  0  0  0  0  0
   43.6550   35.3250   42.2450 C   0  0  0  0  0  0  0  0  0  0  0  0
   44.1200   34.7290   41.0840 C   0  0  0  0  0  0  0  0  0  0  0  0
   45.4580   34.4700   41.0390 N   0  0  0  0  0  0  0  0  0  0  0  0
   46.5230   35.5910   44.0050 H   0  0  0  0  0  0  0  0  0  0  0  0
   44.0680   36.1240   44.2180 H   0  0  0  0  0  0  0  0  0  0  0  0
   42.5870   35.5410   42.3030 H   0  0  0  0  0  0  0  0  0  0  0  0
   43.2190   34.4110   39.9830 C   0  0  0  0  0  0  0  0  0  0  0  0
   42.6050   35.3620   39.4230 O   0  0  0  0  0  0  0  0  0  0  0  0
   43.0110   32.9980   39.5140 C   0  0  0  0  0  3  0  0  0  0  0  0
   41.7970   32.9140   38.6110 C   0  0  0  0  0  3  0  0  0  0  0  0
   42.0470   32.4700   37.6260 H   0  0  0  0  0  0  0  0  0  0  0  0
   40.6960   32.0630   39.2110 C   0  0  0  0  0  3  0  0  0  0  0  0
   39.9030   32.0180   38.4140 H   0  0  0  0  0  0  0  0  0  0  0  0
   41.1070   30.7810   39.5390 O   0  0  0  0  0  0  0  0  0  0  0  0
   42.3830   30.7390   40.0770 C   0  0  0  0  0  3  0  0  0  0  0  0
   42.5490   29.8930   40.7480 H   0  0  0  0  0  0  0  0  0  0  0  0
   42.7150   32.0850   40.6890 C   0  0  0  0  0  3  0  0  0  0  0  0
   43.5460   31.9900   41.3920 H   0  0  0  0  0  0  0  0  0  0  0  0
  1  7  1  1  0  0  0
  1 19  1  0  0  0  0
  2  9  1  0  0  0  0
  2  1  1  0  0  0  0
  3 10  1  0  0  0  0
  3  2  1  0  0  0  0
  4  3  1  0  0  0  0
  4  5  1  0  0  0  0
  5 14  1  0  0  0  0
  5  6  1  0  0  0  0
  6  1  1  0  0  0  0
  6 26  1  0  0  0  0
  6 16  1  1  0  0  0
  8  2  1  0  0  0  0
 11  3  1  0  0  0  0
 12  4  1  0  0  0  0
 13  4  1  0  0  0  0
 15  5  1  0  0  0  0
 17 22  1  0  0  0  0
 18 19  1  0  0  0  0
 18 17  2  0  0  0  0
 19 20  2  0  0  0  0
 20 21  1  0  0  0  0
 21 25  1  0  0  0  0
 22 21  2  0  0  0  0
 23 17  1  0  0  0  0
 24 18  1  0  0  0  0
 26 27  1  0  0  0  0
 27 28  2  0  0  0  0
 27 32  1  0  0  0  0
 28 33  1  0  0  0  0
 29 34  1  0  0  0  0
 29 28  1  0  0  0  0
 30 29  2  0  0  0  0
 31 30  1  0  0  0  0
 31 26  2  0  0  0  0
 35 30  1  0  0  0  0
 36 35  2  0  0  0  0
 37 35  1  0  0  0  0
 37 45  1  0  0  0  0
 38 40  1  0  0  0  0
 38 37  1  0  0  0  0
 39 38  1  0  0  0  0
 40 42  1  0  0  0  0
 41 40  1  0  0  0  0
 42 43  1  0  0  0  0
 43 45  1  0  0  0  0
 43 44  1  0  0  0  0
 45 46  1  0  0  0  0
M  END
>  <minimizedAffinity>
-5.29310131

>  <minimizedRMSD>
0.566237807

$$$$
