
 OpenBabel03242519343D

 41 43  0  0  0  0  0  0  0  0999 V2000
   46.2770   33.2780   44.7190 C   0  0  0  0  0  0  0  0  0  0  0  0
   46.6650   33.1360   43.3980 C   0  0  0  0  0  0  0  0  0  0  0  0
   46.1120   33.9390   42.4170 C   0  0  0  0  0  0  0  0  0  0  0  0
   45.1760   34.8530   42.8390 N   0  0  0  0  0  0  0  0  0  0  0  0
   44.8030   34.9730   44.1450 C   0  0  0  0  0  0  0  0  0  0  0  0
   45.3470   34.1980   45.0730 N   0  0  0  0  0  0  0  0  0  0  0  0
   43.7900   35.9310   44.4570 N   0  0  0  0  0  0  0  0  0  0  0  0
   47.8420   33.2800   40.9950 C   0  0  0  0  0  0  0  0  0  0  0  0
   48.4530   32.9700   42.0400 O   0  0  0  0  0  0  0  0  0  0  0  0
   46.5070   33.8450   41.0650 N   0  0  0  0  0  0  0  0  0  0  0  0
   47.3540   32.3150   43.3460 H   0  0  0  0  0  0  0  0  0  0  0  0
   43.9740   36.7970   44.9780 H   0  0  0  0  0  0  0  0  0  0  0  0
   42.8260   35.6820   44.1090 H   0  0  0  0  0  0  0  0  0  0  0  0
   45.8750   34.1530   40.3230 H   0  0  0  0  0  0  0  0  0  0  0  0
   46.9810   32.4490   45.7450 C   0  0  0  0  0  0  0  0  0  0  0  0
   46.8980   31.0090   45.4150 C   0  0  0  0  0  0  0  0  0  0  0  0
   46.0110   30.2850   46.3860 C   0  0  0  0  0  0  0  0  0  0  0  0
   46.4890   30.4520   47.8150 C   0  0  0  0  0  0  0  0  0  0  0  0
   46.8520   31.8530   48.1580 C   0  0  0  0  0  0  0  0  0  0  0  0
   46.4540   32.8340   47.0860 C   0  0  0  0  0  0  0  0  0  0  0  0
   48.0560   32.7850   45.6680 H   0  0  0  0  0  0  0  0  0  0  0  0
   46.5270   30.7540   44.4150 H   0  0  0  0  0  0  0  0  0  0  0  0
   47.9020   30.5480   45.5250 H   0  0  0  0  0  0  0  0  0  0  0  0
   46.0080   29.2190   46.1320 H   0  0  0  0  0  0  0  0  0  0  0  0
   44.9800   30.7190   46.2870 H   0  0  0  0  0  0  0  0  0  0  0  0
   45.8020   29.9540   48.5000 H   0  0  0  0  0  0  0  0  0  0  0  0
   47.4360   29.8380   47.8640 H   0  0  0  0  0  0  0  0  0  0  0  0
   46.3150   32.1330   49.0850 H   0  0  0  0  0  0  0  0  0  0  0  0
   47.9430   31.9900   48.3630 H   0  0  0  0  0  0  0  0  0  0  0  0
   46.8070   33.8440   47.3580 H   0  0  0  0  0  0  0  0  0  0  0  0
   45.3400   32.8430   47.0820 H   0  0  0  0  0  0  0  0  0  0  0  0
   48.3470   33.1340   39.5350 C   0  0  0  0  0  3  0  0  0  0  0  0
   47.4540   32.1810   38.8080 C   0  0  0  0  0  3  0  0  0  0  0  0
   46.7600   31.6720   39.4800 H   0  0  0  0  0  0  0  0  0  0  0  0
   46.7400   32.9510   37.7040 C   0  0  0  0  0  3  0  0  0  0  0  0
   46.1860   32.2310   37.0610 H   0  0  0  0  0  0  0  0  0  0  0  0
   47.7090   33.5180   36.8780 O   0  0  0  0  0  0  0  0  0  0  0  0
   48.4780   34.4750   37.5040 C   0  0  0  0  0  3  0  0  0  0  0  0
   48.3210   35.4420   37.0140 H   0  0  0  0  0  0  0  0  0  0  0  0
   48.2080   34.5560   38.9860 C   0  0  0  0  0  3  0  0  0  0  0  0
   49.0310   35.1440   39.4610 H   0  0  0  0  0  0  0  0  0  0  0  0
  1  6  1  0  0  0  0
  1 15  1  0  0  0  0
  2  1  2  0  0  0  0
  3  4  2  0  0  0  0
  3  2  1  0  0  0  0
  4  5  1  0  0  0  0
  5  7  1  0  0  0  0
  5  6  2  0  0  0  0
  7 12  1  0  0  0  0
  8 10  1  0  0  0  0
  8  9  2  0  0  0  0
 10  3  1  0  0  0  0
 11  2  1  0  0  0  0
 13  7  1  0  0  0  0
 14 10  1  0  0  0  0
 15 20  1  0  0  0  0
 16 23  1  0  0  0  0
 16 15  1  0  0  0  0
 16 17  1  0  0  0  0
 17 18  1  0  0  0  0
 18 27  1  0  0  0  0
 18 19  1  0  0  0  0
 18 26  1  0  0  0  0
 19 29  1  0  0  0  0
 19 28  1  0  0  0  0
 20 30  1  0  0  0  0
 20 19  1  0  0  0  0
 21 15  1  0  0  0  0
 22 16  1  0  0  0  0
 24 17  1  0  0  0  0
 25 17  1  0  0  0  0
 31 20  1  0  0  0  0
 32  8  1  0  0  0  0
 33 34  1  0  0  0  0
 33 32  1  0  0  0  0
 35 33  1  0  0  0  0
 36 35  1  0  0  0  0
 37 38  1  0  0  0  0
 37 35  1  0  0  0  0
 38 40  1  0  0  0  0
 39 38  1  0  0  0  0
 40 41  1  0  0  0  0
 40 32  1  0  0  0  0
M  END
>  <minimizedAffinity>
-5.7910347

>  <minimizedRMSD>
1.94537497

$$$$
