
 OpenBabel03242523553D

 46 49  0  0  1  0  0  0  0  0999 V2000
   42.8130   34.5120   38.7400 C   0  0  1  0  0  0  0  0  0  0  0  0
   42.9640   35.1760   40.1010 C   0  0  1  0  0  0  0  0  0  0  0  0
   41.6740   35.3950   40.6270 O   0  0  0  0  0  0  0  0  0  0  0  0
   40.7480   35.7470   39.6410 C   0  0  0  0  0  0  0  0  0  0  0  0
   40.4340   34.5870   38.7190 C   0  0  2  0  0  0  0  0  0  0  0  0
   41.6400   33.5910   38.8460 C   0  0  1  0  0  0  0  0  0  0  0  0
   43.7390   33.9450   38.4820 H   0  0  0  0  0  0  0  0  0  0  0  0
   43.5560   36.0940   40.0810 H   0  0  0  0  0  0  0  0  0  0  0  0
   41.0480   36.6640   39.0800 H   0  0  0  0  0  0  0  0  0  0  0  0
   39.8400   36.0480   40.2030 H   0  0  0  0  0  0  0  0  0  0  0  0
   39.5050   34.0620   38.9950 H   0  0  0  0  0  0  0  0  0  0  0  0
   41.4170   33.3020   39.9230 H   0  0  0  0  0  0  0  0  0  0  0  0
   42.6010   35.4720   37.7400 O   0  0  0  0  0  0  0  0  0  0  0  0
   42.9470   35.1580   36.8710 H   0  0  0  0  0  0  0  0  0  0  0  0
   40.4470   35.0220   37.4030 O   0  0  0  0  0  0  0  0  0  0  0  0
   40.5100   34.2710   36.7590 H   0  0  0  0  0  0  0  0  0  0  0  0
   43.4960   34.1690   40.9340 O   0  0  0  0  0  0  0  0  0  0  0  0
   44.5990   34.3050   41.6760 C   0  0  0  0  0  0  0  0  0  0  0  0
   45.8650   34.4240   41.0820 C   0  0  0  0  0  0  0  0  0  0  0  0
   46.9700   34.5630   41.9020 C   0  0  0  0  0  0  0  0  0  0  0  0
   46.8010   34.5820   43.2770 N   0  0  0  0  0  0  0  0  0  0  0  0
   45.5650   34.4640   43.8130 C   0  0  0  0  0  0  0  0  0  0  0  0
   44.4730   34.3260   43.0210 N   0  0  0  0  0  0  0  0  0  0  0  0
   45.9840   34.4080   40.0170 H   0  0  0  0  0  0  0  0  0  0  0  0
   45.4500   34.4790   44.8910 H   0  0  0  0  0  0  0  0  0  0  0  0
   48.3540   34.6740   41.3410 C   0  0  0  0  0  0  0  0  0  0  0  0
   49.0620   36.0170   41.5180 C   0  0  0  0  0  0  0  0  0  0  0  0
   49.4960   34.7050   42.1970 C   0  0  0  0  0  0  0  0  0  0  0  0
   48.4190   34.2230   40.3170 H   0  0  0  0  0  0  0  0  0  0  0  0
   48.4910   36.7580   42.0950 H   0  0  0  0  0  0  0  0  0  0  0  0
   49.6240   36.3570   40.6510 H   0  0  0  0  0  0  0  0  0  0  0  0
   50.4550   34.3360   41.8370 H   0  0  0  0  0  0  0  0  0  0  0  0
   49.3310   34.7530   43.3060 H   0  0  0  0  0  0  0  0  0  0  0  0
   41.5050   32.6690   37.8750 O   0  0  0  0  0  0  0  0  0  0  0  0
   40.7980   31.5230   37.8770 C   0  0  0  0  0  0  0  0  0  0  0  0
   39.5570   31.4710   37.4690 O   0  0  0  0  0  0  0  0  0  0  0  0
   40.7010   30.0650   38.1480 C   0  0  0  0  0  3  0  0  0  0  0  0
   39.4480   29.4510   37.5940 C   0  0  0  0  0  3  0  0  0  0  0  0
   39.4780   29.3640   36.4890 H   0  0  0  0  0  0  0  0  0  0  0  0
   39.4140   28.0490   38.1740 C   0  0  0  0  0  3  0  0  0  0  0  0
   39.4070   28.2020   39.2910 H   0  0  0  0  0  0  0  0  0  0  0  0
   40.5040   27.3280   37.7470 O   0  0  0  0  0  0  0  0  0  0  0  0
   41.7160   27.8770   38.1320 C   0  0  0  0  0  3  0  0  0  0  0  0
   41.6890   28.0260   39.2440 H   0  0  0  0  0  0  0  0  0  0  0  0
   41.8560   29.2860   37.5640 C   0  0  0  0  0  3  0  0  0  0  0  0
   41.8310   29.2770   36.4590 H   0  0  0  0  0  0  0  0  0  0  0  0
  1  7  1  6  0  0  0
  1  6  1  0  0  0  0
  1  2  1  0  0  0  0
  2  8  1  6  0  0  0
  2  3  1  0  0  0  0
  2 17  1  0  0  0  0
  4 10  1  0  0  0  0
  4  3  1  0  0  0  0
  5  6  1  0  0  0  0
  5 11  1  1  0  0  0
  5  4  1  0  0  0  0
  6 12  1  1  0  0  0
  9  4  1  0  0  0  0
 13  1  1  0  0  0  0
 14 13  1  0  0  0  0
 15  5  1  0  0  0  0
 16 15  1  0  0  0  0
 17 18  1  0  0  0  0
 18 23  1  0  0  0  0
 19 18  2  0  0  0  0
 19 20  1  0  0  0  0
 20 21  2  0  0  0  0
 21 22  1  0  0  0  0
 22 25  1  0  0  0  0
 23 22  2  0  0  0  0
 24 19  1  0  0  0  0
 26 27  1  0  0  0  0
 26 20  1  0  0  0  0
 26 28  1  0  0  0  0
 27 30  1  0  0  0  0
 27 28  1  0  0  0  0
 28 33  1  0  0  0  0
 29 26  1  0  0  0  0
 31 27  1  0  0  0  0
 32 28  1  0  0  0  0
 34 35  1  0  0  0  0
 34  6  1  0  0  0  0
 35 37  1  0  0  0  0
 36 35  2  0  0  0  0
 38 37  1  0  0  0  0
 38 40  1  0  0  0  0
 39 38  1  0  0  0  0
 40 41  1  0  0  0  0
 42 43  1  0  0  0  0
 42 40  1  0  0  0  0
 43 44  1  0  0  0  0
 45 43  1  0  0  0  0
 45 37  1  0  0  0  0
 46 45  1  0  0  0  0
M  END
>  <minimizedAffinity>
-5.71459055

>  <minimizedRMSD>
0.194289967

$$$$
