
 OpenBabel03242519493D

 51 54  0  0  1  0  0  0  0  0999 V2000
   45.0770   28.7220   48.8290 C   0  0  0  0  0  0  0  0  0  0  0  0
   45.2470   28.3870   49.8110 H   0  0  0  0  0  0  0  0  0  0  0  0
   43.8410   28.5290   48.8710 H   0  0  0  0  0  0  0  0  0  0  0  0
   45.3920   27.8390   47.6140 C   0  0  0  0  0  0  0  0  0  0  0  0
   46.0820   28.3180   46.9320 H   0  0  0  0  0  0  0  0  0  0  0  0
   45.8630   26.9190   48.0180 H   0  0  0  0  0  0  0  0  0  0  0  0
   43.6670   28.3680   45.9860 C   0  0  0  0  0  0  0  0  0  0  0  0
   44.1430   27.4630   46.9480 C   0  0  0  0  0  0  0  0  0  0  0  0
   43.3360   26.3630   47.1300 C   0  0  0  0  0  0  0  0  0  0  0  0
   42.1680   26.1250   46.4640 C   0  0  0  0  0  0  0  0  0  0  0  0
   41.7180   27.0350   45.5200 C   0  0  0  0  0  0  0  0  0  0  0  0
   42.4930   28.1910   45.2760 C   0  0  0  0  0  0  0  0  0  0  0  0
   43.7330   25.6890   47.8760 H   0  0  0  0  0  0  0  0  0  0  0  0
   41.6540   25.2080   46.7290 H   0  0  0  0  0  0  0  0  0  0  0  0
   40.7940   26.8090   45.0200 H   0  0  0  0  0  0  0  0  0  0  0  0
   44.2700   29.5460   45.5980 O   0  0  0  0  0  0  0  0  0  0  0  0
   44.6260   30.1770   46.2930 H   0  0  0  0  0  0  0  0  0  0  0  0
   41.9630   28.9920   44.3490 O   0  0  0  0  0  0  0  0  0  0  0  0
   41.8530   29.1230   43.0150 C   0  0  0  0  0  0  0  0  0  0  0  0
   41.8460   30.5470   42.4950 C   0  0  0  0  0  0  0  0  0  0  0  0
   42.6140   31.1730   42.9330 H   0  0  0  0  0  0  0  0  0  0  0  0
   40.5130   31.2240   42.6950 C   0  0  0  0  0  0  0  0  0  0  0  0
   40.1620   31.1920   43.7330 H   0  0  0  0  0  0  0  0  0  0  0  0
   39.6270   30.5270   41.8450 O   0  0  0  0  0  0  0  0  0  0  0  0
   39.3890   29.3210   42.4830 C   0  0  0  0  0  0  0  0  0  0  0  0
   38.9270   29.5070   43.4580 H   0  0  0  0  0  0  0  0  0  0  0  0
   40.5920   28.4190   42.5430 C   0  0  0  0  0  0  0  0  0  0  0  0
   40.3430   27.5860   43.2330 H   0  0  0  0  0  0  0  0  0  0  0  0
   45.0280   30.0220   48.5290 O   0  0  0  0  0  0  0  0  0  0  0  0
   45.7870   32.2690   48.3260 C   0  0  2  0  0  0  0  0  0  0  0  0
   46.7850   32.3250   47.2580 C   0  0  1  0  0  0  0  0  0  0  0  0
   46.9670   30.8960   46.8980 O   0  0  0  0  0  0  0  0  0  0  0  0
   47.2820   30.4380   48.1710 C   0  0  0  0  0  0  0  0  0  0  0  0
   45.9270   30.9200   48.9440 C   0  0  2  0  0  0  0  0  0  0  0  0
   45.8700   33.0880   49.0660 H   0  0  0  0  0  0  0  0  0  0  0  0
   47.8060   32.5950   47.6230 H   0  0  0  0  0  0  0  0  0  0  0  0
   47.3230   29.3530   48.2650 H   0  0  0  0  0  0  0  0  0  0  0  0
   48.1040   31.0050   48.6040 H   0  0  0  0  0  0  0  0  0  0  0  0
   46.3180   30.8140   49.9700 H   0  0  0  0  0  0  0  0  0  0  0  0
   45.0410   34.7380   45.1540 C   0  0  0  0  0  0  0  0  0  0  0  0
   45.6460   34.5890   43.9050 C   0  0  0  0  0  0  0  0  0  0  0  0
   46.6680   33.6370   43.7670 C   0  0  0  0  0  0  0  0  0  0  0  0
   47.0300   32.8990   44.8410 N   0  0  0  0  0  0  0  0  0  0  0  0
   46.4300   33.0570   46.0450 C   0  0  0  0  0  0  0  0  0  0  0  0
   45.4350   33.9740   46.2110 N   0  0  0  0  0  0  0  0  0  0  0  0
   45.3020   35.2150   43.0950 H   0  0  0  0  0  0  0  0  0  0  0  0
   47.1290   33.5270   42.8000 H   0  0  0  0  0  0  0  0  0  0  0  0
   44.0210   35.6690   45.3490 O   0  0  0  0  0  0  0  0  0  0  0  0
   43.2430   35.6780   44.7070 H   0  0  0  0  0  0  0  0  0  0  0  0
   44.4640   32.3140   47.7140 O   0  0  0  0  0  0  0  0  0  0  0  0
   43.8740   32.5680   48.4920 H   0  0  0  0  0  0  0  0  0  0  0  0
  1  3  1  0  0  0  0
  1  2  1  0  0  0  0
  4  6  1  0  0  0  0
  4  1  1  0  0  0  0
  5  4  1  0  0  0  0
  7  8  1  0  0  0  0
  8  9  2  0  0  0  0
  8  4  1  0  0  0  0
  9 13  1  0  0  0  0
 10 14  1  0  0  0  0
 10  9  1  0  0  0  0
 11 10  2  0  0  0  0
 12 11  1  0  0  0  0
 12  7  2  0  0  0  0
 15 11  1  0  0  0  0
 16  7  1  0  0  0  0
 16 17  1  0  0  0  0
 18 12  1  0  0  0  0
 19 18  1  0  0  0  0
 20 22  1  0  0  0  0
 20 21  1  0  0  0  0
 20 19  1  0  0  0  0
 22 23  1  0  0  0  0
 24 25  1  0  0  0  0
 24 22  1  0  0  0  0
 25 27  1  0  0  0  0
 25 26  1  0  0  0  0
 27 19  1  0  0  0  0
 27 28  1  0  0  0  0
 29  1  1  0  0  0  0
 29 34  1  0  0  0  0
 30 34  1  0  0  0  0
 30 35  1  1  0  0  0
 31 36  1  1  0  0  0
 31 30  1  0  0  0  0
 32 31  1  0  0  0  0
 32 33  1  0  0  0  0
 33 37  1  0  0  0  0
 33 38  1  0  0  0  0
 33 34  1  0  0  0  0
 34 39  1  1  0  0  0
 40 48  1  0  0  0  0
 40 45  1  0  0  0  0
 41 40  2  0  0  0  0
 42 41  1  0  0  0  0
 42 43  2  0  0  0  0
 43 44  1  0  0  0  0
 44 45  2  0  0  0  0
 44 31  1  0  0  0  0
 46 41  1  0  0  0  0
 47 42  1  0  0  0  0
 49 48  1  0  0  0  0
 50 30  1  0  0  0  0
 50 51  1  0  0  0  0
M  END
>  <minimizedAffinity>
-6.147686

>  <minimizedRMSD>
1.81196594

$$$$
