
 OpenBabel03242521173D

 39 41  0  0  0  0  0  0  0  0999 V2000
   46.4340   32.9730   46.5000 C   0  0  0  0  0  0  0  0  0  0  0  0
   46.8820   32.1100   45.9970 H   0  0  0  0  0  0  0  0  0  0  0  0
   47.2740   33.5010   47.0320 H   0  0  0  0  0  0  0  0  0  0  0  0
   44.5080   35.6830   44.7810 C   0  0  0  0  0  0  0  0  0  0  0  0
   45.1080   35.6470   43.5110 C   0  0  0  0  0  0  0  0  0  0  0  0
   46.1170   34.7140   43.3210 C   0  0  0  0  0  0  0  0  0  0  0  0
   46.4780   33.8840   44.3650 N   0  0  0  0  0  0  0  0  0  0  0  0
   45.8680   33.9670   45.5510 C   0  0  0  0  0  0  0  0  0  0  0  0
   44.8710   34.8670   45.7890 N   0  0  0  0  0  0  0  0  0  0  0  0
   43.7090   36.4010   44.9740 H   0  0  0  0  0  0  0  0  0  0  0  0
   44.7870   36.3150   42.7370 H   0  0  0  0  0  0  0  0  0  0  0  0
   46.7460   34.6540   42.0390 N   0  0  0  0  0  0  0  0  0  0  0  0
   47.9440   35.2360   41.8850 C   0  0  0  0  0  0  0  0  0  0  0  0
   48.5650   35.1860   40.6500 C   0  0  0  0  0  0  0  0  0  0  0  0
   47.9230   34.5410   39.6390 C   0  0  0  0  0  0  0  0  0  0  0  0
   48.5010   34.4980   38.4980 O   0  0  0  0  0  0  0  0  0  0  0  0
   46.7160   33.9470   39.7700 N   0  0  0  0  0  0  0  0  0  0  0  0
   46.1710   34.0340   40.9970 C   0  0  0  0  0  0  0  0  0  0  0  0
   45.0490   33.5150   41.2340 O   0  0  0  0  0  0  0  0  0  0  0  0
   48.4650   35.7550   42.6880 H   0  0  0  0  0  0  0  0  0  0  0  0
   49.5320   35.6450   40.4860 H   0  0  0  0  0  0  0  0  0  0  0  0
   46.2340   33.4540   38.9840 H   0  0  0  0  0  0  0  0  0  0  0  0
   45.4260   32.5940   47.5550 C   0  0  0  0  0  0  0  0  0  0  0  0
   44.5820   33.3020   47.4930 H   0  0  0  0  0  0  0  0  0  0  0  0
   45.8380   32.6630   48.5770 H   0  0  0  0  0  0  0  0  0  0  0  0
   45.4780   30.1550   47.8470 C   0  0  0  0  0  0  0  0  0  0  0  0
   46.4170   30.3800   48.6580 O   0  0  0  0  0  0  0  0  0  0  0  0
   44.9010   31.2730   47.2410 N   0  0  0  0  0  0  0  0  0  0  0  0
   44.1130   31.1940   46.5750 H   0  0  0  0  0  0  0  0  0  0  0  0
   45.0180   28.7690   47.5630 C   0  0  0  0  0  3  0  0  0  0  0  0
   44.1740   28.6980   46.3070 C   0  0  0  0  0  3  0  0  0  0  0  0
   44.8560   28.8010   45.4220 H   0  0  0  0  0  0  0  0  0  0  0  0
   43.6260   27.2800   46.2340 C   0  0  0  0  0  3  0  0  0  0  0  0
   42.9000   27.1530   45.4240 H   0  0  0  0  0  0  0  0  0  0  0  0
   44.7510   26.4570   46.0200 O   0  0  0  0  0  0  0  0  0  0  0  0
   45.5410   26.4380   47.1490 C   0  0  0  0  0  3  0  0  0  0  0  0
   46.3860   25.7400   46.9570 H   0  0  0  0  0  0  0  0  0  0  0  0
   46.1470   27.7820   47.4650 C   0  0  0  0  0  3  0  0  0  0  0  0
   46.9390   28.0380   46.7640 H   0  0  0  0  0  0  0  0  0  0  0  0
  1  3  1  0  0  0  0
  1 23  1  0  0  0  0
  2  1  1  0  0  0  0
  4 10  1  0  0  0  0
  4  9  1  0  0  0  0
  5  4  2  0  0  0  0
  6  5  1  0  0  0  0
  6  7  2  0  0  0  0
  7  8  1  0  0  0  0
  8  9  2  0  0  0  0
  8  1  1  0  0  0  0
 11  5  1  0  0  0  0
 12  6  1  0  0  0  0
 13 12  1  0  0  0  0
 13 20  1  0  0  0  0
 14 13  2  0  0  0  0
 15 17  1  0  0  0  0
 15 14  1  0  0  0  0
 16 15  2  0  0  0  0
 17 18  1  0  0  0  0
 18 19  2  0  0  0  0
 18 12  1  0  0  0  0
 21 14  1  0  0  0  0
 22 17  1  0  0  0  0
 23 25  1  0  0  0  0
 24 23  1  0  0  0  0
 26 27  2  0  0  0  0
 28 23  1  0  0  0  0
 28 26  1  0  0  0  0
 29 28  1  0  0  0  0
 30 26  1  0  0  0  0
 31 30  1  0  0  0  0
 32 31  1  0  0  0  0
 33 31  1  0  0  0  0
 34 33  1  0  0  0  0
 35 33  1  0  0  0  0
 35 36  1  0  0  0  0
 36 38  1  0  0  0  0
 37 36  1  0  0  0  0
 38 30  1  0  0  0  0
 39 38  1  0  0  0  0
M  END
>  <minimizedAffinity>
-6.41077423

>  <minimizedRMSD>
1.1265806

$$$$
