
 OpenBabel03252507473D

 38 40  0  0  0  0  0  0  0  0999 V2000
   36.5310   31.2770   40.3470 C   0  0  0  0  0  0  0  0  0  0  0  0
   36.7610   30.6650   41.2350 H   0  0  0  0  0  0  0  0  0  0  0  0
   35.4410   31.5270   40.4040 H   0  0  0  0  0  0  0  0  0  0  0  0
   36.7230   30.5240   39.0910 C   0  0  0  0  0  0  0  0  0  0  0  0
   36.4100   29.1680   39.1270 C   0  0  0  0  0  0  0  0  0  0  0  0
   36.5610   28.3990   37.9880 C   0  0  0  0  0  0  0  0  0  0  0  0
   37.0180   29.0060   36.8560 N   0  0  0  0  0  0  0  0  0  0  0  0
   37.3130   30.3280   36.8580 C   0  0  0  0  0  0  0  0  0  0  0  0
   37.1610   31.0450   37.9560 N   0  0  0  0  0  0  0  0  0  0  0  0
   36.3160   27.3320   38.0110 H   0  0  0  0  0  0  0  0  0  0  0  0
   37.6710   30.7420   35.9190 H   0  0  0  0  0  0  0  0  0  0  0  0
   35.8080   28.4180   40.6500 S   0  0  0  0  0  0  0  0  0  0  0  0
   37.0920   27.3840   41.4230 C   0  0  0  0  0  3  0  0  0  0  0  0
   36.8150   27.3370   42.9030 C   0  0  0  0  0  3  0  0  0  0  0  0
   36.1140   28.1480   43.1920 H   0  0  0  0  0  0  0  0  0  0  0  0
   38.0830   27.5750   43.6640 C   0  0  0  0  0  3  0  0  0  0  0  0
   38.3320   28.6500   43.5950 H   0  0  0  0  0  0  0  0  0  0  0  0
   39.0590   26.7650   43.0850 O   0  0  0  0  0  0  0  0  0  0  0  0
   39.5040   27.3130   41.8950 C   0  0  0  0  0  3  0  0  0  0  0  0
   39.8650   26.5130   41.2140 H   0  0  0  0  0  0  0  0  0  0  0  0
   38.4170   28.0670   41.1730 C   0  0  0  0  0  3  0  0  0  0  0  0
   38.5710   28.0210   40.0640 H   0  0  0  0  0  0  0  0  0  0  0  0
   37.3070   32.5460   40.3940 C   0  0  0  0  0  0  0  0  0  0  0  0
   37.1460   33.0930   39.4360 H   0  0  0  0  0  0  0  0  0  0  0  0
   36.9480   33.1650   41.2230 H   0  0  0  0  0  0  0  0  0  0  0  0
   38.7830   32.3510   40.5170 C   0  0  0  0  0  0  0  0  0  0  0  0
   39.3120   31.5040   41.5370 C   0  0  0  0  0  0  0  0  0  0  0  0
   41.1210   31.6080   41.2600 S   0  0  0  0  0  0  0  0  0  0  0  0
   40.8580   32.7900   39.7940 C   0  0  0  0  0  0  0  0  0  0  0  0
   39.7200   32.8830   39.7710 N   0  0  0  0  0  0  0  0  0  0  0  0
   38.7470   30.9550   42.2740 H   0  0  0  0  0  0  0  0  0  0  0  0
   41.9100   33.3130   39.0510 O   0  0  0  0  0  0  0  0  0  0  0  0
   42.9130   31.6480   37.2620 O   0  0  0  0  0  0  0  0  0  0  0  0
   42.0140   32.8680   37.4160 P   0  0  0  0  0  0  0  0  0  0  0  0
   40.4500   32.4940   36.8820 O   0  0  0  0  0  0  0  0  0  0  0  0
   40.0790   31.7370   37.3840 H   0  0  0  0  0  0  0  0  0  0  0  0
   42.5910   34.1610   36.4970 O   0  0  0  0  0  0  0  0  0  0  0  0
   43.3470   33.8340   35.9260 H   0  0  0  0  0  0  0  0  0  0  0  0
  1 23  1  0  0  0  0
  1  3  1  0  0  0  0
  1  2  1  0  0  0  0
  4  5  1  0  0  0  0
  4  1  1  0  0  0  0
  5 12  1  0  0  0  0
  6 10  1  0  0  0  0
  6  5  2  0  0  0  0
  7  8  2  0  0  0  0
  7  6  1  0  0  0  0
  8  9  1  0  0  0  0
  9  4  2  0  0  0  0
 11  8  1  0  0  0  0
 12 13  1  0  0  0  0
 13 14  1  0  0  0  0
 14 15  1  0  0  0  0
 14 16  1  0  0  0  0
 17 16  1  0  0  0  0
 18 16  1  0  0  0  0
 19 18  1  0  0  0  0
 20 19  1  0  0  0  0
 21 13  1  0  0  0  0
 21 19  1  0  0  0  0
 22 21  1  0  0  0  0
 23 26  1  0  0  0  0
 23 25  1  0  0  0  0
 24 23  1  0  0  0  0
 26 27  2  0  0  0  0
 27 31  1  0  0  0  0
 28 27  1  0  0  0  0
 29 28  1  0  0  0  0
 30 29  2  0  0  0  0
 30 26  1  0  0  0  0
 32 29  1  0  0  0  0
 33 34  2  0  0  0  0
 34 32  1  0  0  0  0
 35 36  1  0  0  0  0
 35 34  1  0  0  0  0
 37 34  1  0  0  0  0
 38 37  1  0  0  0  0
M  END
>  <minimizedAffinity>
-5.70446444

$$$$

 OpenBabel03252507473D

 38 40  0  0  0  0  0  0  0  0999 V2000
   36.6530   27.3810   42.7820 C   0  0  0  0  0  0  0  0  0  0  0  0
   35.7900   27.1870   43.4410 H   0  0  0  0  0  0  0  0  0  0  0  0
   36.3440   28.1990   42.0820 H   0  0  0  0  0  0  0  0  0  0  0  0
   36.9800   26.2120   41.9410 C   0  0  0  0  0  0  0  0  0  0  0  0
   36.9360   26.4060   40.5630 C   0  0  0  0  0  0  0  0  0  0  0  0
   37.2350   25.3580   39.7130 C   0  0  0  0  0  0  0  0  0  0  0  0
   37.5640   24.1550   40.2620 N   0  0  0  0  0  0  0  0  0  0  0  0
   37.5960   24.0020   41.6090 C   0  0  0  0  0  0  0  0  0  0  0  0
   37.3090   25.0160   42.4030 N   0  0  0  0  0  0  0  0  0  0  0  0
   37.2010   25.5060   38.6280 H   0  0  0  0  0  0  0  0  0  0  0  0
   37.8670   23.0150   41.9730 H   0  0  0  0  0  0  0  0  0  0  0  0
   36.4960   28.0190   39.8910 S   0  0  0  0  0  0  0  0  0  0  0  0
   35.4420   27.8470   38.4160 C   0  0  0  0  0  3  0  0  0  0  0  0
   36.2750   28.2030   37.2120 C   0  0  0  0  0  3  0  0  0  0  0  0
   37.1900   28.7500   37.5220 H   0  0  0  0  0  0  0  0  0  0  0  0
   35.5050   29.1280   36.3190 C   0  0  0  0  0  3  0  0  0  0  0  0
   35.4880   30.1290   36.7880 H   0  0  0  0  0  0  0  0  0  0  0  0
   34.2280   28.5840   36.1810 O   0  0  0  0  0  0  0  0  0  0  0  0
   33.4720   28.8220   37.3140 C   0  0  0  0  0  3  0  0  0  0  0  0
   32.7040   28.0290   37.4370 H   0  0  0  0  0  0  0  0  0  0  0  0
   34.3110   28.8390   38.5660 C   0  0  0  0  0  3  0  0  0  0  0  0
   33.7170   28.4820   39.4470 H   0  0  0  0  0  0  0  0  0  0  0  0
   37.8060   27.8630   43.5890 C   0  0  0  0  0  0  0  0  0  0  0  0
   37.4100   28.4080   44.4780 H   0  0  0  0  0  0  0  0  0  0  0  0
   38.3990   27.0090   43.9300 H   0  0  0  0  0  0  0  0  0  0  0  0
   38.6880   28.8310   42.8700 C   0  0  0  0  0  0  0  0  0  0  0  0
   40.0840   28.5670   42.7360 C   0  0  0  0  0  0  0  0  0  0  0  0
   40.6910   30.0230   41.8010 S   0  0  0  0  0  0  0  0  0  0  0  0
   38.9360   30.7530   41.7440 C   0  0  0  0  0  0  0  0  0  0  0  0
   38.3350   29.9610   42.3080 N   0  0  0  0  0  0  0  0  0  0  0  0
   40.6150   27.7050   43.1120 H   0  0  0  0  0  0  0  0  0  0  0  0
   38.6440   31.9640   41.1260 O   0  0  0  0  0  0  0  0  0  0  0  0
   37.4220   31.2550   38.8930 O   0  0  0  0  0  0  0  0  0  0  0  0
   37.2350   32.0440   40.1830 P   0  0  0  0  0  0  0  0  0  0  0  0
   35.9700   31.3680   41.0840 O   0  0  0  0  0  0  0  0  0  0  0  0
   36.1490   30.4250   41.2890 H   0  0  0  0  0  0  0  0  0  0  0  0
   36.8470   33.6540   39.8530 O   0  0  0  0  0  0  0  0  0  0  0  0
   36.6900   33.7490   38.8680 H   0  0  0  0  0  0  0  0  0  0  0  0
  1  2  1  0  0  0  0
  1 23  1  0  0  0  0
  3  1  1  0  0  0  0
  4  9  1  0  0  0  0
  4  1  1  0  0  0  0
  5  4  2  0  0  0  0
  6  7  2  0  0  0  0
  6  5  1  0  0  0  0
  7  8  1  0  0  0  0
  8 11  1  0  0  0  0
  8  9  2  0  0  0  0
 10  6  1  0  0  0  0
 12  5  1  0  0  0  0
 13 21  1  0  0  0  0
 13 12  1  0  0  0  0
 14 15  1  0  0  0  0
 14 13  1  0  0  0  0
 16 17  1  0  0  0  0
 16 14  1  0  0  0  0
 18 16  1  0  0  0  0
 18 19  1  0  0  0  0
 19 20  1  0  0  0  0
 19 21  1  0  0  0  0
 21 22  1  0  0  0  0
 23 25  1  0  0  0  0
 23 24  1  0  0  0  0
 26 23  1  0  0  0  0
 27 26  2  0  0  0  0
 27 31  1  0  0  0  0
 28 27  1  0  0  0  0
 29 28  1  0  0  0  0
 29 30  2  0  0  0  0
 30 26  1  0  0  0  0
 32 29  1  0  0  0  0
 33 34  2  0  0  0  0
 34 35  1  0  0  0  0
 34 32  1  0  0  0  0
 35 36  1  0  0  0  0
 37 34  1  0  0  0  0
 38 37  1  0  0  0  0
M  END
>  <minimizedAffinity>
-5.65910769

$$$$

 OpenBabel03252507473D

 38 40  0  0  0  0  0  0  0  0999 V2000
   38.3540   29.1950   39.7020 C   0  0  0  0  0  0  0  0  0  0  0  0
   38.1840   28.3830   38.9750 H   0  0  0  0  0  0  0  0  0  0  0  0
   39.4270   29.5000   39.5970 H   0  0  0  0  0  0  0  0  0  0  0  0
   38.1840   28.7340   41.0950 C   0  0  0  0  0  0  0  0  0  0  0  0
   38.7190   27.4870   41.4060 C   0  0  0  0  0  0  0  0  0  0  0  0
   38.6010   26.9920   42.6910 C   0  0  0  0  0  0  0  0  0  0  0  0
   37.9560   27.7530   43.6200 N   0  0  0  0  0  0  0  0  0  0  0  0
   37.4480   28.9630   43.2800 C   0  0  0  0  0  0  0  0  0  0  0  0
   37.5710   29.4180   42.0480 N   0  0  0  0  0  0  0  0  0  0  0  0
   39.0210   26.0110   42.9400 H   0  0  0  0  0  0  0  0  0  0  0  0
   36.9470   29.5120   44.0740 H   0  0  0  0  0  0  0  0  0  0  0  0
   39.5640   26.5240   40.1400 S   0  0  0  0  0  0  0  0  0  0  0  0
   38.6280   25.0170   39.7300 C   0  0  0  0  0  3  0  0  0  0  0  0
   37.1610   25.3450   39.8340 C   0  0  0  0  0  3  0  0  0  0  0  0
   37.0140   26.2870   40.4020 H   0  0  0  0  0  0  0  0  0  0  0  0
   36.4550   24.2680   40.5990 C   0  0  0  0  0  3  0  0  0  0  0  0
   36.7080   24.3810   41.6700 H   0  0  0  0  0  0  0  0  0  0  0  0
   36.8890   23.0500   40.0760 O   0  0  0  0  0  0  0  0  0  0  0  0
   38.1560   22.7440   40.5410 C   0  0  0  0  0  3  0  0  0  0  0  0
   38.6910   22.1050   39.8070 H   0  0  0  0  0  0  0  0  0  0  0  0
   38.9940   23.9770   40.7640 C   0  0  0  0  0  3  0  0  0  0  0  0
   40.0800   23.7560   40.5930 H   0  0  0  0  0  0  0  0  0  0  0  0
   37.4980   30.3640   39.3620 C   0  0  0  0  0  0  0  0  0  0  0  0
   37.2730   30.3290   38.2700 H   0  0  0  0  0  0  0  0  0  0  0  0
   36.5590   30.3060   39.9220 H   0  0  0  0  0  0  0  0  0  0  0  0
   38.1490   31.6850   39.6100 C   0  0  0  0  0  0  0  0  0  0  0  0
   37.4620   32.6970   40.3430 C   0  0  0  0  0  0  0  0  0  0  0  0
   38.6640   34.0810   40.3620 S   0  0  0  0  0  0  0  0  0  0  0  0
   39.9110   33.0490   39.3640 C   0  0  0  0  0  0  0  0  0  0  0  0
   39.3410   32.0690   39.2210 N   0  0  0  0  0  0  0  0  0  0  0  0
   36.4720   32.6250   40.7680 H   0  0  0  0  0  0  0  0  0  0  0  0
   41.1600   33.5320   38.9900 O   0  0  0  0  0  0  0  0  0  0  0  0
   42.8420   31.8150   37.8920 O   0  0  0  0  0  0  0  0  0  0  0  0
   41.8440   32.9190   37.5620 P   0  0  0  0  0  0  0  0  0  0  0  0
   40.5880   32.2860   36.6170 O   0  0  0  0  0  0  0  0  0  0  0  0
   40.1360   31.5500   37.0820 H   0  0  0  0  0  0  0  0  0  0  0  0
   42.5860   34.1610   36.6930 O   0  0  0  0  0  0  0  0  0  0  0  0
   43.5140   33.8710   36.4510 H   0  0  0  0  0  0  0  0  0  0  0  0
  1  4  1  0  0  0  0
  2  1  1  0  0  0  0
  3  1  1  0  0  0  0
  4  5  2  0  0  0  0
  4  9  1  0  0  0  0
  5  6  1  0  0  0  0
  6 10  1  0  0  0  0
  6  7  2  0  0  0  0
  8  7  1  0  0  0  0
  8 11  1  0  0  0  0
  9  8  2  0  0  0  0
 12  5  1  0  0  0  0
 13 14  1  0  0  0  0
 13 12  1  0  0  0  0
 13 21  1  0  0  0  0
 14 15  1  0  0  0  0
 14 16  1  0  0  0  0
 16 17  1  0  0  0  0
 18 19  1  0  0  0  0
 18 16  1  0  0  0  0
 19 21  1  0  0  0  0
 20 19  1  0  0  0  0
 22 21  1  0  0  0  0
 23 26  1  0  0  0  0
 23  1  1  0  0  0  0
 23 25  1  0  0  0  0
 24 23  1  0  0  0  0
 26 27  2  0  0  0  0
 27 28  1  0  0  0  0
 27 31  1  0  0  0  0
 29 28  1  0  0  0  0
 30 29  2  0  0  0  0
 30 26  1  0  0  0  0
 32 29  1  0  0  0  0
 34 33  2  0  0  0  0
 34 32  1  0  0  0  0
 35 36  1  0  0  0  0
 35 34  1  0  0  0  0
 37 34  1  0  0  0  0
 38 37  1  0  0  0  0
M  END
>  <minimizedAffinity>
-5.448102

$$$$

 OpenBabel03252507473D

 38 40  0  0  0  0  0  0  0  0999 V2000
   37.5480   30.4150   38.3040 C   0  0  0  0  0  0  0  0  0  0  0  0
   38.2850   30.0450   37.5720 H   0  0  0  0  0  0  0  0  0  0  0  0
   37.9200   30.1110   39.3160 H   0  0  0  0  0  0  0  0  0  0  0  0
   36.2290   29.7740   38.1340 C   0  0  0  0  0  0  0  0  0  0  0  0
   35.5130   29.5050   39.2970 C   0  0  0  0  0  0  0  0  0  0  0  0
   34.2680   28.9100   39.2150 C   0  0  0  0  0  0  0  0  0  0  0  0
   33.7800   28.6020   37.9810 N   0  0  0  0  0  0  0  0  0  0  0  0
   34.5050   28.8780   36.8690 C   0  0  0  0  0  0  0  0  0  0  0  0
   35.6910   29.4470   36.9690 N   0  0  0  0  0  0  0  0  0  0  0  0
   33.7020   28.6970   40.1290 H   0  0  0  0  0  0  0  0  0  0  0  0
   34.0510   28.6040   35.9200 H   0  0  0  0  0  0  0  0  0  0  0  0
   36.2050   29.9360   40.9040 S   0  0  0  0  0  0  0  0  0  0  0  0
   36.5860   28.4430   41.8740 C   0  0  0  0  0  3  0  0  0  0  0  0
   37.5350   28.8400   42.9750 C   0  0  0  0  0  3  0  0  0  0  0  0
   37.9900   29.8290   42.7570 H   0  0  0  0  0  0  0  0  0  0  0  0
   38.6630   27.8570   43.0500 C   0  0  0  0  0  3  0  0  0  0  0  0
   39.3420   28.0410   42.1970 H   0  0  0  0  0  0  0  0  0  0  0  0
   38.0930   26.5840   43.0100 O   0  0  0  0  0  0  0  0  0  0  0  0
   37.7120   26.2620   41.7200 C   0  0  0  0  0  3  0  0  0  0  0  0
   36.8630   25.5450   41.7380 H   0  0  0  0  0  0  0  0  0  0  0  0
   37.2680   27.4710   40.9380 C   0  0  0  0  0  3  0  0  0  0  0  0
   36.4890   27.1910   40.1810 H   0  0  0  0  0  0  0  0  0  0  0  0
   37.4880   31.9010   38.2520 C   0  0  0  0  0  0  0  0  0  0  0  0
   37.5540   32.2180   37.1850 H   0  0  0  0  0  0  0  0  0  0  0  0
   36.5360   32.2460   38.6690 H   0  0  0  0  0  0  0  0  0  0  0  0
   38.6180   32.5780   38.9560 C   0  0  0  0  0  0  0  0  0  0  0  0
   38.3560   33.4930   40.0200 C   0  0  0  0  0  0  0  0  0  0  0  0
   40.0350   34.0300   40.5250 S   0  0  0  0  0  0  0  0  0  0  0  0
   40.8210   32.9140   39.2000 C   0  0  0  0  0  0  0  0  0  0  0  0
   39.9000   32.4410   38.7180 N   0  0  0  0  0  0  0  0  0  0  0  0
   37.3870   33.7740   40.4030 H   0  0  0  0  0  0  0  0  0  0  0  0
   42.1950   32.8250   39.0100 O   0  0  0  0  0  0  0  0  0  0  0  0
   44.2130   32.2270   37.4130 O   0  0  0  0  0  0  0  0  0  0  0  0
   42.7600   32.6870   37.4160 P   0  0  0  0  0  0  0  0  0  0  0  0
   41.7990   31.5390   36.6240 O   0  0  0  0  0  0  0  0  0  0  0  0
   41.8750   30.6600   37.0540 H   0  0  0  0  0  0  0  0  0  0  0  0
   42.5950   34.1610   36.6110 O   0  0  0  0  0  0  0  0  0  0  0  0
   43.4690   34.3860   36.1750 H   0  0  0  0  0  0  0  0  0  0  0  0
  1  3  1  0  0  0  0
  2  1  1  0  0  0  0
  4  1  1  0  0  0  0
  4  5  1  0  0  0  0
  5 12  1  0  0  0  0
  6  5  2  0  0  0  0
  6 10  1  0  0  0  0
  7  6  1  0  0  0  0
  8  9  1  0  0  0  0
  8  7  2  0  0  0  0
  9  4  2  0  0  0  0
 11  8  1  0  0  0  0
 12 13  1  0  0  0  0
 13 14  1  0  0  0  0
 14 16  1  0  0  0  0
 15 14  1  0  0  0  0
 17 16  1  0  0  0  0
 18 16  1  0  0  0  0
 19 20  1  0  0  0  0
 19 18  1  0  0  0  0
 21 19  1  0  0  0  0
 21 13  1  0  0  0  0
 22 21  1  0  0  0  0
 23  1  1  0  0  0  0
 23 25  1  0  0  0  0
 23 26  1  0  0  0  0
 24 23  1  0  0  0  0
 26 27  2  0  0  0  0
 27 31  1  0  0  0  0
 27 28  1  0  0  0  0
 29 28  1  0  0  0  0
 30 26  1  0  0  0  0
 30 29  2  0  0  0  0
 32 29  1  0  0  0  0
 33 34  2  0  0  0  0
 34 32  1  0  0  0  0
 35 36  1  0  0  0  0
 35 34  1  0  0  0  0
 37 34  1  0  0  0  0
 38 37  1  0  0  0  0
M  END
>  <minimizedAffinity>
-5.42236137

$$$$

 OpenBabel03252507473D

 38 40  0  0  0  0  0  0  0  0999 V2000
   34.4800   28.2310   38.3970 C   0  0  0  0  0  0  0  0  0  0  0  0
   35.0040   27.3250   38.7450 H   0  0  0  0  0  0  0  0  0  0  0  0
   33.4050   27.9480   38.2630 H   0  0  0  0  0  0  0  0  0  0  0  0
   34.9650   28.6770   37.0760 C   0  0  0  0  0  0  0  0  0  0  0  0
   33.9920   28.9590   36.1200 C   0  0  0  0  0  0  0  0  0  0  0  0
   34.3710   29.3860   34.8620 C   0  0  0  0  0  0  0  0  0  0  0  0
   35.7020   29.5160   34.5980 N   0  0  0  0  0  0  0  0  0  0  0  0
   36.6210   29.2330   35.5530 C   0  0  0  0  0  0  0  0  0  0  0  0
   36.2380   28.8270   36.7480 N   0  0  0  0  0  0  0  0  0  0  0  0
   33.6090   29.6090   34.1060 H   0  0  0  0  0  0  0  0  0  0  0  0
   37.6630   29.3600   35.2690 H   0  0  0  0  0  0  0  0  0  0  0  0
   32.2460   28.7710   36.5240 S   0  0  0  0  0  0  0  0  0  0  0  0
   31.5690   30.3070   37.2300 C   0  0  0  0  0  3  0  0  0  0  0  0
   30.6770   29.9280   38.3840 C   0  0  0  0  0  3  0  0  0  0  0  0
   30.4190   28.8490   38.3360 H   0  0  0  0  0  0  0  0  0  0  0  0
   29.3850   30.6820   38.2950 C   0  0  0  0  0  3  0  0  0  0  0  0
   28.7780   30.2350   37.4860 H   0  0  0  0  0  0  0  0  0  0  0  0
   29.7130   32.0140   38.0400 O   0  0  0  0  0  0  0  0  0  0  0  0
   30.0660   32.1830   36.7130 C   0  0  0  0  0  3  0  0  0  0  0  0
   30.7670   33.0380   36.6080 H   0  0  0  0  0  0  0  0  0  0  0  0
   30.7470   30.9650   36.1440 C   0  0  0  0  0  3  0  0  0  0  0  0
   31.4830   31.2560   35.3500 H   0  0  0  0  0  0  0  0  0  0  0  0
   34.5590   29.2900   39.4400 C   0  0  0  0  0  0  0  0  0  0  0  0
   34.5160   30.2840   38.9350 H   0  0  0  0  0  0  0  0  0  0  0  0
   33.7070   29.1990   40.1210 H   0  0  0  0  0  0  0  0  0  0  0  0
   35.8310   29.2780   40.2220 C   0  0  0  0  0  0  0  0  0  0  0  0
   36.3090   28.0610   40.7950 C   0  0  0  0  0  0  0  0  0  0  0  0
   37.8580   28.5790   41.6280 S   0  0  0  0  0  0  0  0  0  0  0  0
   37.6000   30.3740   41.0550 C   0  0  0  0  0  0  0  0  0  0  0  0
   36.6210   30.2940   40.4720 N   0  0  0  0  0  0  0  0  0  0  0  0
   35.8400   27.0910   40.7310 H   0  0  0  0  0  0  0  0  0  0  0  0
   38.4880   31.3980   41.3640 O   0  0  0  0  0  0  0  0  0  0  0  0
   39.1850   32.7360   39.1950 O   0  0  0  0  0  0  0  0  0  0  0  0
   38.3650   32.8390   40.4750 P   0  0  0  0  0  0  0  0  0  0  0  0
   36.7320   33.0700   40.0880 O   0  0  0  0  0  0  0  0  0  0  0  0
   36.3960   32.3360   39.5310 H   0  0  0  0  0  0  0  0  0  0  0  0
   38.8760   34.1460   41.4140 O   0  0  0  0  0  0  0  0  0  0  0  0
   39.5390   34.6790   40.8830 H   0  0  0  0  0  0  0  0  0  0  0  0
  1  2  1  0  0  0  0
  1 23  1  0  0  0  0
  3  1  1  0  0  0  0
  4  1  1  0  0  0  0
  5 12  1  0  0  0  0
  5  4  2  0  0  0  0
  6  5  1  0  0  0  0
  7  6  2  0  0  0  0
  7  8  1  0  0  0  0
  8  9  2  0  0  0  0
  9  4  1  0  0  0  0
 10  6  1  0  0  0  0
 11  8  1  0  0  0  0
 12 13  1  0  0  0  0
 13 14  1  0  0  0  0
 15 14  1  0  0  0  0
 16 14  1  0  0  0  0
 17 16  1  0  0  0  0
 18 16  1  0  0  0  0
 19 18  1  0  0  0  0
 20 19  1  0  0  0  0
 21 19  1  0  0  0  0
 21 13  1  0  0  0  0
 22 21  1  0  0  0  0
 23 25  1  0  0  0  0
 23 26  1  0  0  0  0
 24 23  1  0  0  0  0
 26 30  1  0  0  0  0
 26 27  2  0  0  0  0
 27 28  1  0  0  0  0
 29 32  1  0  0  0  0
 29 28  1  0  0  0  0
 30 29  2  0  0  0  0
 31 27  1  0  0  0  0
 33 34  2  0  0  0  0
 34 32  1  0  0  0  0
 34 37  1  0  0  0  0
 35 34  1  0  0  0  0
 36 35  1  0  0  0  0
 38 37  1  0  0  0  0
M  END
>  <minimizedAffinity>
-5.26528883

$$$$

 OpenBabel03252507473D

 38 40  0  0  0  0  0  0  0  0999 V2000
   36.3540   28.8710   40.8170 C   0  0  0  0  0  0  0  0  0  0  0  0
   37.0480   29.2440   41.5890 H   0  0  0  0  0  0  0  0  0  0  0  0
   35.3230   28.9490   41.2470 H   0  0  0  0  0  0  0  0  0  0  0  0
   36.5750   27.4420   40.5180 C   0  0  0  0  0  0  0  0  0  0  0  0
   37.1110   26.6690   41.5440 C   0  0  0  0  0  0  0  0  0  0  0  0
   37.3420   25.3220   41.3400 C   0  0  0  0  0  0  0  0  0  0  0  0
   37.0330   24.7920   40.1230 N   0  0  0  0  0  0  0  0  0  0  0  0
   36.5130   25.5750   39.1470 C   0  0  0  0  0  0  0  0  0  0  0  0
   36.2990   26.8580   39.3630 N   0  0  0  0  0  0  0  0  0  0  0  0
   37.7650   24.7100   42.1450 H   0  0  0  0  0  0  0  0  0  0  0  0
   36.2920   25.0820   38.2030 H   0  0  0  0  0  0  0  0  0  0  0  0
   37.5000   27.4210   43.1350 S   0  0  0  0  0  0  0  0  0  0  0  0
   39.2700   27.8290   43.2520 C   0  0  0  0  0  3  0  0  0  0  0  0
   39.7380   28.2400   41.8800 C   0  0  0  0  0  3  0  0  0  0  0  0
   39.0070   27.9170   41.1080 H   0  0  0  0  0  0  0  0  0  0  0  0
   41.0310   27.5530   41.5590 C   0  0  0  0  0  3  0  0  0  0  0  0
   40.8130   26.4930   41.3300 H   0  0  0  0  0  0  0  0  0  0  0  0
   41.8520   27.6970   42.6770 O   0  0  0  0  0  0  0  0  0  0  0  0
   41.4720   26.8200   43.6770 C   0  0  0  0  0  3  0  0  0  0  0  0
   41.7430   27.2320   44.6720 H   0  0  0  0  0  0  0  0  0  0  0  0
   39.9860   26.5680   43.6800 C   0  0  0  0  0  3  0  0  0  0  0  0
   39.6200   26.3570   44.7180 H   0  0  0  0  0  0  0  0  0  0  0  0
   36.4270   29.7400   39.6110 C   0  0  0  0  0  0  0  0  0  0  0  0
   36.7730   29.1200   38.7520 H   0  0  0  0  0  0  0  0  0  0  0  0
   35.4320   30.1390   39.3850 H   0  0  0  0  0  0  0  0  0  0  0  0
   37.4020   30.8650   39.7320 C   0  0  0  0  0  0  0  0  0  0  0  0
   37.0050   32.0990   40.3270 C   0  0  0  0  0  0  0  0  0  0  0  0
   38.5290   33.1130   40.2310 S   0  0  0  0  0  0  0  0  0  0  0  0
   39.4620   31.6820   39.3940 C   0  0  0  0  0  0  0  0  0  0  0  0
   38.6540   30.8760   39.3420 N   0  0  0  0  0  0  0  0  0  0  0  0
   36.0300   32.3370   40.7250 H   0  0  0  0  0  0  0  0  0  0  0  0
   40.7940   31.7760   39.0090 O   0  0  0  0  0  0  0  0  0  0  0  0
   42.0570   31.2100   36.7580 O   0  0  0  0  0  0  0  0  0  0  0  0
   41.1190   32.2230   37.4040 P   0  0  0  0  0  0  0  0  0  0  0  0
   39.6470   32.2490   36.5670 O   0  0  0  0  0  0  0  0  0  0  0  0
   39.2300   31.3610   36.5600 H   0  0  0  0  0  0  0  0  0  0  0  0
   41.7820   33.7740   37.3560 O   0  0  0  0  0  0  0  0  0  0  0  0
   42.6130   33.7480   36.7950 H   0  0  0  0  0  0  0  0  0  0  0  0
  1  3  1  0  0  0  0
  1  2  1  0  0  0  0
  4  1  1  0  0  0  0
  4  5  1  0  0  0  0
  5 12  1  0  0  0  0
  6  5  2  0  0  0  0
  6 10  1  0  0  0  0
  7  6  1  0  0  0  0
  8  9  1  0  0  0  0
  8  7  2  0  0  0  0
  9  4  2  0  0  0  0
 11  8  1  0  0  0  0
 12 13  1  0  0  0  0
 13 21  1  0  0  0  0
 14 13  1  0  0  0  0
 15 14  1  0  0  0  0
 16 14  1  0  0  0  0
 16 18  1  0  0  0  0
 17 16  1  0  0  0  0
 18 19  1  0  0  0  0
 19 21  1  0  0  0  0
 19 20  1  0  0  0  0
 21 22  1  0  0  0  0
 23 26  1  0  0  0  0
 23  1  1  0  0  0  0
 24 23  1  0  0  0  0
 25 23  1  0  0  0  0
 26 27  2  0  0  0  0
 27 31  1  0  0  0  0
 28 27  1  0  0  0  0
 29 28  1  0  0  0  0
 30 29  2  0  0  0  0
 30 26  1  0  0  0  0
 32 29  1  0  0  0  0
 33 34  2  0  0  0  0
 34 32  1  0  0  0  0
 35 34  1  0  0  0  0
 36 35  1  0  0  0  0
 37 34  1  0  0  0  0
 38 37  1  0  0  0  0
M  END
>  <minimizedAffinity>
-5.26378202

$$$$

 OpenBabel03252507473D

 38 40  0  0  0  0  0  0  0  0999 V2000
   36.4980   28.0210   42.2600 C   0  0  0  0  0  0  0  0  0  0  0  0
   35.4380   27.9530   42.5570 H   0  0  0  0  0  0  0  0  0  0  0  0
   36.6140   28.9840   41.7020 H   0  0  0  0  0  0  0  0  0  0  0  0
   36.8800   26.9450   41.3230 C   0  0  0  0  0  0  0  0  0  0  0  0
   36.7060   27.2120   39.9680 C   0  0  0  0  0  0  0  0  0  0  0  0
   37.0460   26.2540   39.0310 C   0  0  0  0  0  0  0  0  0  0  0  0
   37.5460   25.0660   39.4750 N   0  0  0  0  0  0  0  0  0  0  0  0
   37.7020   24.8420   40.8030 C   0  0  0  0  0  0  0  0  0  0  0  0
   37.3720   25.7690   41.6800 N   0  0  0  0  0  0  0  0  0  0  0  0
   36.9100   26.4590   37.9640 H   0  0  0  0  0  0  0  0  0  0  0  0
   38.1060   23.8710   41.0810 H   0  0  0  0  0  0  0  0  0  0  0  0
   36.0430   28.8000   39.4360 S   0  0  0  0  0  0  0  0  0  0  0  0
   37.3530   30.0620   39.3530 C   0  0  0  0  0  3  0  0  0  0  0  0
   36.8610   31.2840   40.0830 C   0  0  0  0  0  3  0  0  0  0  0  0
   35.7600   31.2350   40.2230 H   0  0  0  0  0  0  0  0  0  0  0  0
   37.1340   32.5090   39.2640 C   0  0  0  0  0  3  0  0  0  0  0  0
   36.4110   32.5340   38.4280 H   0  0  0  0  0  0  0  0  0  0  0  0
   38.4540   32.4120   38.8220 O   0  0  0  0  0  0  0  0  0  0  0  0
   38.5510   31.5160   37.7730 C   0  0  0  0  0  3  0  0  0  0  0  0
   39.5670   31.0650   37.7460 H   0  0  0  0  0  0  0  0  0  0  0  0
   37.5580   30.3880   37.8910 C   0  0  0  0  0  3  0  0  0  0  0  0
   37.9650   29.4500   37.4310 H   0  0  0  0  0  0  0  0  0  0  0  0
   37.3590   28.0750   43.4730 C   0  0  0  0  0  0  0  0  0  0  0  0
   36.9820   28.8890   44.1350 H   0  0  0  0  0  0  0  0  0  0  0  0
   37.2970   27.1230   44.0100 H   0  0  0  0  0  0  0  0  0  0  0  0
   38.7890   28.3990   43.1890 C   0  0  0  0  0  0  0  0  0  0  0  0
   39.1390   29.6570   42.6150 C   0  0  0  0  0  0  0  0  0  0  0  0
   40.9630   29.5520   42.4720 S   0  0  0  0  0  0  0  0  0  0  0  0
   40.9490   27.8040   43.2220 C   0  0  0  0  0  0  0  0  0  0  0  0
   39.8340   27.6390   43.4070 N   0  0  0  0  0  0  0  0  0  0  0  0
   38.4610   30.4520   42.3440 H   0  0  0  0  0  0  0  0  0  0  0  0
   42.1080   27.0610   43.4210 O   0  0  0  0  0  0  0  0  0  0  0  0
   40.7920   24.7850   43.1580 O   0  0  0  0  0  0  0  0  0  0  0  0
   42.1220   25.4620   42.8520 P   0  0  0  0  0  0  0  0  0  0  0  0
   42.3620   25.5120   41.1760 O   0  0  0  0  0  0  0  0  0  0  0  0
   41.6300   25.9900   40.7300 H   0  0  0  0  0  0  0  0  0  0  0  0
   43.4050   24.6110   43.5440 O   0  0  0  0  0  0  0  0  0  0  0  0
   43.0520   23.7500   43.9180 H   0  0  0  0  0  0  0  0  0  0  0  0
  1  2  1  0  0  0  0
  1 23  1  0  0  0  0
  3  1  1  0  0  0  0
  4  9  1  0  0  0  0
  4  1  1  0  0  0  0
  5  4  2  0  0  0  0
  6  7  2  0  0  0  0
  6  5  1  0  0  0  0
  7  8  1  0  0  0  0
  8 11  1  0  0  0  0
  8  9  2  0  0  0  0
 10  6  1  0  0  0  0
 12  5  1  0  0  0  0
 13 12  1  0  0  0  0
 13 14  1  0  0  0  0
 14 15  1  0  0  0  0
 16 14  1  0  0  0  0
 17 16  1  0  0  0  0
 18 16  1  0  0  0  0
 19 21  1  0  0  0  0
 19 18  1  0  0  0  0
 20 19  1  0  0  0  0
 21 13  1  0  0  0  0
 22 21  1  0  0  0  0
 23 25  1  0  0  0  0
 23 24  1  0  0  0  0
 26 30  1  0  0  0  0
 26 23  1  0  0  0  0
 27 26  2  0  0  0  0
 28 27  1  0  0  0  0
 28 29  1  0  0  0  0
 29 30  2  0  0  0  0
 29 32  1  0  0  0  0
 31 27  1  0  0  0  0
 34 33  2  0  0  0  0
 34 32  1  0  0  0  0
 34 37  1  0  0  0  0
 35 34  1  0  0  0  0
 36 35  1  0  0  0  0
 37 38  1  0  0  0  0
M  END
>  <minimizedAffinity>
-5.2540679

$$$$

 OpenBabel03252507473D

 38 40  0  0  0  0  0  0  0  0999 V2000
   35.2960   29.3830   39.5900 C   0  0  0  0  0  0  0  0  0  0  0  0
   34.3320   29.9210   39.5690 H   0  0  0  0  0  0  0  0  0  0  0  0
   35.3880   28.9310   40.6100 H   0  0  0  0  0  0  0  0  0  0  0  0
   36.4430   30.2980   39.4310 C   0  0  0  0  0  0  0  0  0  0  0  0
   37.3520   30.3440   40.4850 C   0  0  0  0  0  0  0  0  0  0  0  0
   38.4540   31.1740   40.4060 C   0  0  0  0  0  0  0  0  0  0  0  0
   38.6130   31.9300   39.2830 N   0  0  0  0  0  0  0  0  0  0  0  0
   37.7080   31.8600   38.2770 C   0  0  0  0  0  0  0  0  0  0  0  0
   36.6630   31.0610   38.3710 N   0  0  0  0  0  0  0  0  0  0  0  0
   39.1710   31.2130   41.2330 H   0  0  0  0  0  0  0  0  0  0  0  0
   37.9010   32.4930   37.4130 H   0  0  0  0  0  0  0  0  0  0  0  0
   37.0940   29.3200   41.9460 S   0  0  0  0  0  0  0  0  0  0  0  0
   38.0430   27.7700   41.8350 C   0  0  0  0  0  3  0  0  0  0  0  0
   37.0960   26.6830   41.3970 C   0  0  0  0  0  3  0  0  0  0  0  0
   36.0430   27.0060   41.5370 H   0  0  0  0  0  0  0  0  0  0  0  0
   37.2890   25.4680   42.2540 C   0  0  0  0  0  3  0  0  0  0  0  0
   36.8380   25.6670   43.2440 H   0  0  0  0  0  0  0  0  0  0  0  0
   38.6640   25.2440   42.3310 O   0  0  0  0  0  0  0  0  0  0  0  0
   39.2530   26.1320   43.2120 C   0  0  0  0  0  3  0  0  0  0  0  0
   40.3130   26.3080   42.9290 H   0  0  0  0  0  0  0  0  0  0  0  0
   38.5590   27.4700   43.2240 C   0  0  0  0  0  3  0  0  0  0  0  0
   39.2850   28.2930   43.4560 H   0  0  0  0  0  0  0  0  0  0  0  0
   35.2800   28.2830   38.5880 C   0  0  0  0  0  0  0  0  0  0  0  0
   36.1590   28.4090   37.9140 H   0  0  0  0  0  0  0  0  0  0  0  0
   35.3590   27.3190   39.1000 H   0  0  0  0  0  0  0  0  0  0  0  0
   34.0760   28.2840   37.7040 C   0  0  0  0  0  0  0  0  0  0  0  0
   33.8150   27.1750   36.8450 C   0  0  0  0  0  0  0  0  0  0  0  0
   32.2650   27.6650   35.9980 S   0  0  0  0  0  0  0  0  0  0  0  0
   32.2270   29.3070   36.9570 C   0  0  0  0  0  0  0  0  0  0  0  0
   33.1670   29.2230   37.6000 N   0  0  0  0  0  0  0  0  0  0  0  0
   34.4130   26.2810   36.7480 H   0  0  0  0  0  0  0  0  0  0  0  0
   31.2230   30.2540   36.7880 O   0  0  0  0  0  0  0  0  0  0  0  0
   28.7880   29.7790   37.6970 O   0  0  0  0  0  0  0  0  0  0  0  0
   30.1080   30.4510   38.0530 P   0  0  0  0  0  0  0  0  0  0  0  0
   30.7610   29.7230   39.4370 O   0  0  0  0  0  0  0  0  0  0  0  0
   30.9000   28.7620   39.2960 H   0  0  0  0  0  0  0  0  0  0  0  0
   29.8800   32.0920   38.3760 O   0  0  0  0  0  0  0  0  0  0  0  0
   28.8950   32.2790   38.3950 H   0  0  0  0  0  0  0  0  0  0  0  0
  1  3  1  0  0  0  0
  2  1  1  0  0  0  0
  4  1  1  0  0  0  0
  4  5  1  0  0  0  0
  5 12  1  0  0  0  0
  6  5  2  0  0  0  0
  6 10  1  0  0  0  0
  7  6  1  0  0  0  0
  8  9  1  0  0  0  0
  8  7  2  0  0  0  0
  9  4  2  0  0  0  0
 11  8  1  0  0  0  0
 13 12  1  0  0  0  0
 13 21  1  0  0  0  0
 14 15  1  0  0  0  0
 14 13  1  0  0  0  0
 14 16  1  0  0  0  0
 16 18  1  0  0  0  0
 16 17  1  0  0  0  0
 18 19  1  0  0  0  0
 19 21  1  0  0  0  0
 20 19  1  0  0  0  0
 21 22  1  0  0  0  0
 23 25  1  0  0  0  0
 23  1  1  0  0  0  0
 24 23  1  0  0  0  0
 26 23  1  0  0  0  0
 27 26  2  0  0  0  0
 28 27  1  0  0  0  0
 28 29  1  0  0  0  0
 29 30  2  0  0  0  0
 30 26  1  0  0  0  0
 31 27  1  0  0  0  0
 32 29  1  0  0  0  0
 32 34  1  0  0  0  0
 33 34  2  0  0  0  0
 34 37  1  0  0  0  0
 34 35  1  0  0  0  0
 36 35  1  0  0  0  0
 37 38  1  0  0  0  0
M  END
>  <minimizedAffinity>
-5.23214102

$$$$

 OpenBabel03252507473D

 38 40  0  0  0  0  0  0  0  0999 V2000
   38.5800   28.2180   37.4560 C   0  0  0  0  0  0  0  0  0  0  0  0
   38.7150   28.4020   36.3770 H   0  0  0  0  0  0  0  0  0  0  0  0
   37.8800   27.3480   37.5480 H   0  0  0  0  0  0  0  0  0  0  0  0
   37.9260   29.3550   38.1330 C   0  0  0  0  0  0  0  0  0  0  0  0
   37.0850   29.0450   39.1980 C   0  0  0  0  0  0  0  0  0  0  0  0
   36.4410   30.0580   39.8820 C   0  0  0  0  0  0  0  0  0  0  0  0
   36.6560   31.3440   39.4840 N   0  0  0  0  0  0  0  0  0  0  0  0
   37.4830   31.6090   38.4420 C   0  0  0  0  0  0  0  0  0  0  0  0
   38.0880   30.6270   37.8030 N   0  0  0  0  0  0  0  0  0  0  0  0
   35.7780   29.8180   40.7200 H   0  0  0  0  0  0  0  0  0  0  0  0
   37.6050   32.6580   38.1830 H   0  0  0  0  0  0  0  0  0  0  0  0
   36.8380   27.3270   39.6840 S   0  0  0  0  0  0  0  0  0  0  0  0
   37.6940   26.9600   41.2480 C   0  0  0  0  0  3  0  0  0  0  0  0
   36.7290   27.2240   42.3740 C   0  0  0  0  0  3  0  0  0  0  0  0
   35.8760   27.8380   42.0160 H   0  0  0  0  0  0  0  0  0  0  0  0
   37.4080   28.0180   43.4480 C   0  0  0  0  0  3  0  0  0  0  0  0
   37.5130   29.0600   43.0950 H   0  0  0  0  0  0  0  0  0  0  0  0
   38.6420   27.4090   43.6800 O   0  0  0  0  0  0  0  0  0  0  0  0
   39.5390   27.7310   42.6780 C   0  0  0  0  0  3  0  0  0  0  0  0
   40.2940   26.9230   42.5640 H   0  0  0  0  0  0  0  0  0  0  0  0
   38.8640   27.9130   41.3440 C   0  0  0  0  0  3  0  0  0  0  0  0
   39.5520   27.6240   40.5070 H   0  0  0  0  0  0  0  0  0  0  0  0
   39.8820   27.8400   38.0700 C   0  0  0  0  0  0  0  0  0  0  0  0
   39.9200   28.2620   39.1020 H   0  0  0  0  0  0  0  0  0  0  0  0
   39.9580   26.7490   38.1290 H   0  0  0  0  0  0  0  0  0  0  0  0
   41.0730   28.3870   37.3540 C   0  0  0  0  0  0  0  0  0  0  0  0
   41.9200   27.5190   36.6030 C   0  0  0  0  0  0  0  0  0  0  0  0
   43.1960   28.6580   35.9430 S   0  0  0  0  0  0  0  0  0  0  0  0
   42.3610   30.1350   36.8000 C   0  0  0  0  0  0  0  0  0  0  0  0
   41.4730   29.6350   37.3160 N   0  0  0  0  0  0  0  0  0  0  0  0
   41.8020   26.4530   36.4800 H   0  0  0  0  0  0  0  0  0  0  0  0
   42.8520   31.4330   36.7110 O   0  0  0  0  0  0  0  0  0  0  0  0
   41.9460   32.7410   38.8200 O   0  0  0  0  0  0  0  0  0  0  0  0
   41.8700   32.6860   37.2990 P   0  0  0  0  0  0  0  0  0  0  0  0
   42.4420   34.1420   36.6480 O   0  0  0  0  0  0  0  0  0  0  0  0
   43.3650   34.3150   36.9330 H   0  0  0  0  0  0  0  0  0  0  0  0
   40.2770   32.4670   36.7840 O   0  0  0  0  0  0  0  0  0  0  0  0
   39.6710   32.5430   37.5790 H   0  0  0  0  0  0  0  0  0  0  0  0
  1  3  1  0  0  0  0
  1 23  1  0  0  0  0
  1  4  1  0  0  0  0
  2  1  1  0  0  0  0
  4  5  1  0  0  0  0
  5 12  1  0  0  0  0
  5  6  2  0  0  0  0
  6 10  1  0  0  0  0
  7  6  1  0  0  0  0
  8  7  2  0  0  0  0
  9  4  2  0  0  0  0
  9  8  1  0  0  0  0
 11  8  1  0  0  0  0
 12 13  1  0  0  0  0
 13 21  1  0  0  0  0
 13 14  1  0  0  0  0
 14 16  1  0  0  0  0
 15 14  1  0  0  0  0
 16 18  1  0  0  0  0
 17 16  1  0  0  0  0
 19 18  1  0  0  0  0
 20 19  1  0  0  0  0
 21 19  1  0  0  0  0
 22 21  1  0  0  0  0
 23 25  1  0  0  0  0
 23 24  1  0  0  0  0
 26 23  1  0  0  0  0
 27 26  2  0  0  0  0
 28 27  1  0  0  0  0
 28 29  1  0  0  0  0
 29 30  2  0  0  0  0
 30 26  1  0  0  0  0
 31 27  1  0  0  0  0
 32 29  1  0  0  0  0
 32 34  1  0  0  0  0
 34 33  2  0  0  0  0
 35 36  1  0  0  0  0
 35 34  1  0  0  0  0
 37 34  1  0  0  0  0
 37 38  1  0  0  0  0
M  END
>  <minimizedAffinity>
-5.22197962

$$$$
