
 OpenBabel03252507463D

 38 40  0  0  0  0  0  0  0  0999 V2000
   46.9810   34.3740   41.0290 C   0  0  0  0  0  0  0  0  0  0  0  0
   46.4560   33.4610   40.7000 H   0  0  0  0  0  0  0  0  0  0  0  0
   47.1030   35.0180   40.1220 H   0  0  0  0  0  0  0  0  0  0  0  0
   48.3420   34.0820   41.5220 C   0  0  0  0  0  0  0  0  0  0  0  0
   48.8030   32.7820   41.3360 C   0  0  0  0  0  0  0  0  0  0  0  0
   50.0700   32.4350   41.7670 C   0  0  0  0  0  0  0  0  0  0  0  0
   50.8310   33.3930   42.3680 N   0  0  0  0  0  0  0  0  0  0  0  0
   50.3490   34.6490   42.5320 C   0  0  0  0  0  0  0  0  0  0  0  0
   49.1370   34.9590   42.1130 N   0  0  0  0  0  0  0  0  0  0  0  0
   50.4370   31.4130   41.6230 H   0  0  0  0  0  0  0  0  0  0  0  0
   51.0130   35.3580   43.0200 H   0  0  0  0  0  0  0  0  0  0  0  0
   47.7550   31.5560   40.5330 S   0  0  0  0  0  0  0  0  0  0  0  0
   46.6790   30.7210   41.7420 C   0  0  0  0  0  3  0  0  0  0  0  0
   45.2650   31.1670   41.4830 C   0  0  0  0  0  3  0  0  0  0  0  0
   45.2550   32.0820   40.8540 H   0  0  0  0  0  0  0  0  0  0  0  0
   44.6040   31.5310   42.7780 C   0  0  0  0  0  3  0  0  0  0  0  0
   45.0080   32.5060   43.1120 H   0  0  0  0  0  0  0  0  0  0  0  0
   44.8860   30.5050   43.6780 O   0  0  0  0  0  0  0  0  0  0  0  0
   46.1830   30.6100   44.1470 C   0  0  0  0  0  3  0  0  0  0  0  0
   46.5700   29.6090   44.4330 H   0  0  0  0  0  0  0  0  0  0  0  0
   47.1180   31.1810   43.1130 C   0  0  0  0  0  3  0  0  0  0  0  0
   48.1540   30.7730   43.2460 H   0  0  0  0  0  0  0  0  0  0  0  0
   46.1450   35.1080   42.0170 C   0  0  0  0  0  0  0  0  0  0  0  0
   46.3130   34.6580   43.0240 H   0  0  0  0  0  0  0  0  0  0  0  0
   46.4450   36.1610   42.0430 H   0  0  0  0  0  0  0  0  0  0  0  0
   44.6760   35.0130   41.7600 C   0  0  0  0  0  0  0  0  0  0  0  0
   43.7450   35.4180   42.7620 C   0  0  0  0  0  0  0  0  0  0  0  0
   42.1230   35.1050   41.9660 S   0  0  0  0  0  0  0  0  0  0  0  0
   42.9840   34.4730   40.3930 C   0  0  0  0  0  0  0  0  0  0  0  0
   44.0870   34.5800   40.6720 N   0  0  0  0  0  0  0  0  0  0  0  0
   43.9800   35.8080   43.7400 H   0  0  0  0  0  0  0  0  0  0  0  0
   42.2830   34.0300   39.2770 O   0  0  0  0  0  0  0  0  0  0  0  0
   40.3470   34.5240   37.5480 O   0  0  0  0  0  0  0  0  0  0  0  0
   41.4500   35.1910   38.3610 P   0  0  0  0  0  0  0  0  0  0  0  0
   40.7680   36.3070   39.4370 O   0  0  0  0  0  0  0  0  0  0  0  0
   40.1260   35.8700   40.0370 H   0  0  0  0  0  0  0  0  0  0  0  0
   42.5240   36.0170   37.3540 O   0  0  0  0  0  0  0  0  0  0  0  0
   42.1540   36.0140   36.4220 H   0  0  0  0  0  0  0  0  0  0  0  0
  1  4  1  0  0  0  0
  1 23  1  0  0  0  0
  2  1  1  0  0  0  0
  3  1  1  0  0  0  0
  4  9  1  0  0  0  0
  5  4  2  0  0  0  0
  5  6  1  0  0  0  0
  6  7  2  0  0  0  0
  7  8  1  0  0  0  0
  8 11  1  0  0  0  0
  9  8  2  0  0  0  0
 10  6  1  0  0  0  0
 12  5  1  0  0  0  0
 12 13  1  0  0  0  0
 13 21  1  0  0  0  0
 14 13  1  0  0  0  0
 14 16  1  0  0  0  0
 15 14  1  0  0  0  0
 16 17  1  0  0  0  0
 16 18  1  0  0  0  0
 18 19  1  0  0  0  0
 19 20  1  0  0  0  0
 21 22  1  0  0  0  0
 21 19  1  0  0  0  0
 23 25  1  0  0  0  0
 23 24  1  0  0  0  0
 26 23  1  0  0  0  0
 26 27  2  0  0  0  0
 27 31  1  0  0  0  0
 28 27  1  0  0  0  0
 29 30  2  0  0  0  0
 29 28  1  0  0  0  0
 30 26  1  0  0  0  0
 32 29  1  0  0  0  0
 33 34  2  0  0  0  0
 34 32  1  0  0  0  0
 34 35  1  0  0  0  0
 35 36  1  0  0  0  0
 37 34  1  0  0  0  0
 38 37  1  0  0  0  0
M  END
>  <minimizedAffinity>
-4.44385481

>  <minimizedRMSD>
0.890735567

$$$$
