
 OpenBabel03252507463D

 38 40  0  0  0  0  0  0  0  0999 V2000
   47.4320   34.6220   40.9500 C   0  0  0  0  0  0  0  0  0  0  0  0
   46.8390   33.9910   40.2670 H   0  0  0  0  0  0  0  0  0  0  0  0
   47.7040   35.5460   40.3790 H   0  0  0  0  0  0  0  0  0  0  0  0
   48.7030   33.9780   41.3350 C   0  0  0  0  0  0  0  0  0  0  0  0
   48.9570   32.7260   40.7820 C   0  0  0  0  0  0  0  0  0  0  0  0
   50.1300   32.0630   41.0930 C   0  0  0  0  0  0  0  0  0  0  0  0
   51.0070   32.6680   41.9430 N   0  0  0  0  0  0  0  0  0  0  0  0
   50.7260   33.8880   42.4630 C   0  0  0  0  0  0  0  0  0  0  0  0
   49.6020   34.5040   42.1530 N   0  0  0  0  0  0  0  0  0  0  0  0
   50.3340   31.0780   40.6600 H   0  0  0  0  0  0  0  0  0  0  0  0
   51.4730   34.3070   43.1330 H   0  0  0  0  0  0  0  0  0  0  0  0
   47.7640   31.9730   39.6620 S   0  0  0  0  0  0  0  0  0  0  0  0
   46.3350   31.3100   40.5760 C   0  0  0  0  0  3  0  0  0  0  0  0
   46.8290   30.8400   41.9190 C   0  0  0  0  0  3  0  0  0  0  0  0
   47.9340   30.7310   41.9100 H   0  0  0  0  0  0  0  0  0  0  0  0
   46.2690   29.4820   42.2160 C   0  0  0  0  0  3  0  0  0  0  0  0
   46.8050   28.7420   41.5930 H   0  0  0  0  0  0  0  0  0  0  0  0
   44.9070   29.5340   41.9240 O   0  0  0  0  0  0  0  0  0  0  0  0
   44.6990   29.4770   40.5590 C   0  0  0  0  0  3  0  0  0  0  0  0
   43.7530   29.9930   40.2910 H   0  0  0  0  0  0  0  0  0  0  0  0
   45.8100   30.1360   39.7840 C   0  0  0  0  0  3  0  0  0  0  0  0
   45.4230   30.5730   38.8260 H   0  0  0  0  0  0  0  0  0  0  0  0
   46.5990   35.0200   42.1180 C   0  0  0  0  0  0  0  0  0  0  0  0
   46.7960   34.3050   42.9500 H   0  0  0  0  0  0  0  0  0  0  0  0
   46.8770   36.0290   42.4410 H   0  0  0  0  0  0  0  0  0  0  0  0
   45.1290   34.9630   41.8620 C   0  0  0  0  0  0  0  0  0  0  0  0
   44.2160   35.5430   42.7920 C   0  0  0  0  0  0  0  0  0  0  0  0
   42.5820   35.2080   42.0300 S   0  0  0  0  0  0  0  0  0  0  0  0
   43.4160   34.3310   40.5630 C   0  0  0  0  0  0  0  0  0  0  0  0
   44.5220   34.4200   40.8350 N   0  0  0  0  0  0  0  0  0  0  0  0
   44.4680   36.0480   43.7120 H   0  0  0  0  0  0  0  0  0  0  0  0
   42.6960   33.7780   39.5090 O   0  0  0  0  0  0  0  0  0  0  0  0
   40.7300   34.0460   37.7650 O   0  0  0  0  0  0  0  0  0  0  0  0
   41.7720   34.8320   38.5520 P   0  0  0  0  0  0  0  0  0  0  0  0
   40.9970   35.9260   39.5870 O   0  0  0  0  0  0  0  0  0  0  0  0
   40.3920   35.4600   40.2020 H   0  0  0  0  0  0  0  0  0  0  0  0
   42.7760   35.7060   37.5140 O   0  0  0  0  0  0  0  0  0  0  0  0
   42.4090   35.6380   36.5830 H   0  0  0  0  0  0  0  0  0  0  0  0
  1  4  1  0  0  0  0
  1 23  1  0  0  0  0
  2  1  1  0  0  0  0
  3  1  1  0  0  0  0
  4  9  1  0  0  0  0
  5  6  1  0  0  0  0
  5  4  2  0  0  0  0
  6  7  2  0  0  0  0
  7  8  1  0  0  0  0
  8 11  1  0  0  0  0
  9  8  2  0  0  0  0
 10  6  1  0  0  0  0
 12 13  1  0  0  0  0
 12  5  1  0  0  0  0
 13 14  1  0  0  0  0
 14 16  1  0  0  0  0
 15 14  1  0  0  0  0
 17 16  1  0  0  0  0
 18 16  1  0  0  0  0
 19 18  1  0  0  0  0
 20 19  1  0  0  0  0
 21 19  1  0  0  0  0
 21 13  1  0  0  0  0
 22 21  1  0  0  0  0
 23 25  1  0  0  0  0
 23 24  1  0  0  0  0
 26 23  1  0  0  0  0
 26 27  2  0  0  0  0
 27 31  1  0  0  0  0
 28 27  1  0  0  0  0
 29 30  2  0  0  0  0
 29 28  1  0  0  0  0
 30 26  1  0  0  0  0
 32 29  1  0  0  0  0
 33 34  2  0  0  0  0
 34 32  1  0  0  0  0
 34 35  1  0  0  0  0
 35 36  1  0  0  0  0
 37 34  1  0  0  0  0
 38 37  1  0  0  0  0
M  END
>  <minimizedAffinity>
-4.3095746

>  <minimizedRMSD>
0.760087907

$$$$
