
 OpenBabel03252507463D

 38 40  0  0  0  0  0  0  0  0999 V2000
   47.6690   34.6190   40.9600 C   0  0  0  0  0  0  0  0  0  0  0  0
   46.9970   34.0670   40.2800 H   0  0  0  0  0  0  0  0  0  0  0  0
   48.1120   35.4560   40.3620 H   0  0  0  0  0  0  0  0  0  0  0  0
   48.7990   33.7870   41.4170 C   0  0  0  0  0  0  0  0  0  0  0  0
   48.6990   32.4190   41.1800 C   0  0  0  0  0  0  0  0  0  0  0  0
   49.7210   31.5770   41.5760 C   0  0  0  0  0  0  0  0  0  0  0  0
   50.8050   32.1250   42.1950 N   0  0  0  0  0  0  0  0  0  0  0  0
   50.8680   33.4620   42.4090 C   0  0  0  0  0  0  0  0  0  0  0  0
   49.8820   34.2480   42.0220 N   0  0  0  0  0  0  0  0  0  0  0  0
   49.6460   30.5000   41.3920 H   0  0  0  0  0  0  0  0  0  0  0  0
   51.7630   33.8260   42.9080 H   0  0  0  0  0  0  0  0  0  0  0  0
   47.2440   31.7480   40.3560 S   0  0  0  0  0  0  0  0  0  0  0  0
   46.1250   30.9500   41.5500 C   0  0  0  0  0  3  0  0  0  0  0  0
   46.2990   31.6440   42.8760 C   0  0  0  0  0  3  0  0  0  0  0  0
   47.2370   32.2380   42.8830 H   0  0  0  0  0  0  0  0  0  0  0  0
   46.4280   30.6260   43.9680 C   0  0  0  0  0  3  0  0  0  0  0  0
   47.4360   30.1740   43.9030 H   0  0  0  0  0  0  0  0  0  0  0  0
   45.4140   29.6900   43.7680 O   0  0  0  0  0  0  0  0  0  0  0  0
   45.7400   28.8320   42.7350 C   0  0  0  0  0  3  0  0  0  0  0  0
   44.8180   28.4430   42.2520 H   0  0  0  0  0  0  0  0  0  0  0  0
   46.5600   29.5080   41.6670 C   0  0  0  0  0  3  0  0  0  0  0  0
   46.3580   29.0540   40.6630 H   0  0  0  0  0  0  0  0  0  0  0  0
   46.8820   35.2060   42.0780 C   0  0  0  0  0  0  0  0  0  0  0  0
   47.1380   34.6570   43.0140 H   0  0  0  0  0  0  0  0  0  0  0  0
   47.1470   36.2610   42.2000 H   0  0  0  0  0  0  0  0  0  0  0  0
   45.4030   35.0770   41.9130 C   0  0  0  0  0  0  0  0  0  0  0  0
   44.5200   35.7110   42.8370 C   0  0  0  0  0  0  0  0  0  0  0  0
   42.8620   35.2520   42.2030 S   0  0  0  0  0  0  0  0  0  0  0  0
   43.6480   34.2690   40.7780 C   0  0  0  0  0  0  0  0  0  0  0  0
   44.7630   34.4200   40.9770 N   0  0  0  0  0  0  0  0  0  0  0  0
   44.8020   36.3080   43.6910 H   0  0  0  0  0  0  0  0  0  0  0  0
   42.8940   33.5960   39.8220 O   0  0  0  0  0  0  0  0  0  0  0  0
   41.0350   33.6470   37.9460 O   0  0  0  0  0  0  0  0  0  0  0  0
   41.9960   34.5330   38.7280 P   0  0  0  0  0  0  0  0  0  0  0  0
   41.1190   35.6740   39.6220 O   0  0  0  0  0  0  0  0  0  0  0  0
   40.4930   35.2330   40.2350 H   0  0  0  0  0  0  0  0  0  0  0  0
   43.0330   35.3630   37.6860 O   0  0  0  0  0  0  0  0  0  0  0  0
   42.7300   35.2070   36.7440 H   0  0  0  0  0  0  0  0  0  0  0  0
  1  4  1  0  0  0  0
  1 23  1  0  0  0  0
  2  1  1  0  0  0  0
  3  1  1  0  0  0  0
  4  9  1  0  0  0  0
  5  4  2  0  0  0  0
  5  6  1  0  0  0  0
  6  7  2  0  0  0  0
  7  8  1  0  0  0  0
  8 11  1  0  0  0  0
  9  8  2  0  0  0  0
 10  6  1  0  0  0  0
 12  5  1  0  0  0  0
 12 13  1  0  0  0  0
 13 21  1  0  0  0  0
 13 14  1  0  0  0  0
 14 15  1  0  0  0  0
 14 16  1  0  0  0  0
 17 16  1  0  0  0  0
 18 16  1  0  0  0  0
 19 18  1  0  0  0  0
 20 19  1  0  0  0  0
 21 19  1  0  0  0  0
 22 21  1  0  0  0  0
 23 25  1  0  0  0  0
 23 24  1  0  0  0  0
 26 23  1  0  0  0  0
 26 27  2  0  0  0  0
 27 31  1  0  0  0  0
 28 27  1  0  0  0  0
 29 30  2  0  0  0  0
 29 28  1  0  0  0  0
 30 26  1  0  0  0  0
 32 29  1  0  0  0  0
 33 34  2  0  0  0  0
 34 35  1  0  0  0  0
 34 32  1  0  0  0  0
 35 36  1  0  0  0  0
 37 34  1  0  0  0  0
 38 37  1  0  0  0  0
M  END
>  <minimizedAffinity>
-4.12825346

>  <minimizedRMSD>
1.14572239

$$$$
