
 OpenBabel03242516533D

 46 49  0  0  1  0  0  0  0  0999 V2000
   47.7970   32.8290   41.6820 C   0  0  1  0  0  0  0  0  0  0  0  0
   47.4120   32.1440   40.4490 C   0  0  0  0  0  0  0  0  0  0  0  0
   48.4140   32.5860   39.3890 C   0  0  0  0  0  0  0  0  0  0  0  0
   48.1320   34.0510   39.1020 C   0  0  0  0  0  0  0  0  0  0  0  0
   48.1370   34.9280   40.3160 C   0  0  0  0  0  0  0  0  0  0  0  0
   47.6550   34.3520   41.5710 C   0  0  1  0  0  0  0  0  0  0  0  0
   48.9140   32.7070   41.8260 H   0  0  0  0  0  0  0  0  0  0  0  0
   46.3740   32.4070   40.1360 H   0  0  0  0  0  0  0  0  0  0  0  0
   47.4340   31.0630   40.5870 H   0  0  0  0  0  0  0  0  0  0  0  0
   49.4250   32.4440   39.8090 H   0  0  0  0  0  0  0  0  0  0  0  0
   48.2180   32.0350   38.4580 H   0  0  0  0  0  0  0  0  0  0  0  0
   47.1610   34.1040   38.5710 H   0  0  0  0  0  0  0  0  0  0  0  0
   48.9010   34.3870   38.3760 H   0  0  0  0  0  0  0  0  0  0  0  0
   49.1860   35.3130   40.4200 H   0  0  0  0  0  0  0  0  0  0  0  0
   47.5400   35.8380   40.0680 H   0  0  0  0  0  0  0  0  0  0  0  0
   48.2940   34.7500   42.4170 H   0  0  0  0  0  0  0  0  0  0  0  0
   45.4000   31.0450   44.0020 C   0  0  0  0  0  0  0  0  0  0  0  0
   46.0650   31.5280   42.8680 C   0  0  0  0  0  0  0  0  0  0  0  0
   47.1770   32.3740   42.9090 C   0  0  0  0  0  0  0  0  0  0  0  0
   47.5910   32.7120   44.1310 N   0  0  0  0  0  0  0  0  0  0  0  0
   46.9580   32.2530   45.2440 C   0  0  0  0  0  0  0  0  0  0  0  0
   45.8960   31.4450   45.1940 N   0  0  0  0  0  0  0  0  0  0  0  0
   44.5560   30.4000   43.8270 H   0  0  0  0  0  0  0  0  0  0  0  0
   45.7150   31.2420   41.8850 H   0  0  0  0  0  0  0  0  0  0  0  0
   47.3610   32.5770   46.2080 H   0  0  0  0  0  0  0  0  0  0  0  0
   46.2990   34.7900   41.9130 C   0  0  0  0  0  0  0  0  0  0  0  0
   45.9200   35.4880   43.0680 C   0  0  0  0  0  0  0  0  0  0  0  0
   44.5670   35.8130   43.1720 C   0  0  0  0  0  0  0  0  0  0  0  0
   43.7280   35.4280   42.1490 C   0  0  0  0  0  0  0  0  0  0  0  0
   44.1160   34.7370   41.0130 C   0  0  0  0  0  0  0  0  0  0  0  0
   45.4410   34.4270   40.9250 N   0  0  0  0  0  0  0  0  0  0  0  0
   46.6840   35.7070   43.7550 H   0  0  0  0  0  0  0  0  0  0  0  0
   44.2610   36.3430   44.0410 H   0  0  0  0  0  0  0  0  0  0  0  0
   42.6710   35.6870   42.2410 H   0  0  0  0  0  0  0  0  0  0  0  0
   43.1530   34.3780   39.9790 C   0  0  0  0  0  0  0  0  0  0  0  0
   42.5930   35.3120   39.3380 O   0  0  0  0  0  0  0  0  0  0  0  0
   42.8220   32.9450   39.6690 C   0  0  0  0  0  3  0  0  0  0  0  0
   41.8010   32.8690   38.5520 C   0  0  0  0  0  3  0  0  0  0  0  0
   42.1610   32.2430   37.7090 H   0  0  0  0  0  0  0  0  0  0  0  0
   40.4890   32.2700   39.0150 C   0  0  0  0  0  3  0  0  0  0  0  0
   39.8640   32.1970   38.0800 H   0  0  0  0  0  0  0  0  0  0  0  0
   40.6260   31.0180   39.5910 O   0  0  0  0  0  0  0  0  0  0  0  0
   41.7550   30.9040   40.3850 C   0  0  0  0  0  3  0  0  0  0  0  0
   41.6590   30.1650   41.1820 H   0  0  0  0  0  0  0  0  0  0  0  0
   42.1700   32.2790   40.8680 C   0  0  0  0  0  3  0  0  0  0  0  0
   42.8280   32.1960   41.7350 H   0  0  0  0  0  0  0  0  0  0  0  0
  1  7  1  1  0  0  0
  1 19  1  0  0  0  0
  2  9  1  0  0  0  0
  2  1  1  0  0  0  0
  3 10  1  0  0  0  0
  3  2  1  0  0  0  0
  4  3  1  0  0  0  0
  4  5  1  0  0  0  0
  5 14  1  0  0  0  0
  5  6  1  0  0  0  0
  6  1  1  0  0  0  0
  6 26  1  0  0  0  0
  6 16  1  1  0  0  0
  8  2  1  0  0  0  0
 11  3  1  0  0  0  0
 12  4  1  0  0  0  0
 13  4  1  0  0  0  0
 15  5  1  0  0  0  0
 17 22  1  0  0  0  0
 18 19  1  0  0  0  0
 18 17  2  0  0  0  0
 19 20  2  0  0  0  0
 20 21  1  0  0  0  0
 21 25  1  0  0  0  0
 22 21  2  0  0  0  0
 23 17  1  0  0  0  0
 24 18  1  0  0  0  0
 26 27  1  0  0  0  0
 27 28  2  0  0  0  0
 27 32  1  0  0  0  0
 28 33  1  0  0  0  0
 29 34  1  0  0  0  0
 29 28  1  0  0  0  0
 30 29  2  0  0  0  0
 31 30  1  0  0  0  0
 31 26  2  0  0  0  0
 35 30  1  0  0  0  0
 36 35  2  0  0  0  0
 37 35  1  0  0  0  0
 37 45  1  0  0  0  0
 38 40  1  0  0  0  0
 38 37  1  0  0  0  0
 39 38  1  0  0  0  0
 40 42  1  0  0  0  0
 41 40  1  0  0  0  0
 42 43  1  0  0  0  0
 43 45  1  0  0  0  0
 43 44  1  0  0  0  0
 45 46  1  0  0  0  0
M  END
>  <minimizedAffinity>
-5.37605906

>  <minimizedRMSD>
0.649286747

$$$$
