
 OpenBabel03242510513D

 23 24  0  0  0  0  0  0  0  0999 V2000
   44.4820   36.4820   44.2540 C   0  0  0  0  0  0  0  0  0  0  0  0
   45.0920   36.3850   42.9810 C   0  0  0  0  0  0  0  0  0  0  0  0
   45.8840   35.2470   42.7320 C   0  0  0  0  0  0  0  0  0  0  0  0
   46.0180   34.3160   43.7160 N   0  0  0  0  0  0  0  0  0  0  0  0
   45.4250   34.4430   44.9070 C   0  0  0  0  0  0  0  0  0  0  0  0
   44.6510   35.5310   45.1850 N   0  0  0  0  0  0  0  0  0  0  0  0
   46.6910   32.5240   45.6560 C   0  0  0  0  0  0  0  0  0  0  0  0
   47.4770   32.5540   44.6850 O   0  0  0  0  0  0  0  0  0  0  0  0
   45.6200   33.4230   45.8740 N   0  0  0  0  0  0  0  0  0  0  0  0
   43.8860   37.3710   44.3960 H   0  0  0  0  0  0  0  0  0  0  0  0
   44.9850   37.1190   42.2030 H   0  0  0  0  0  0  0  0  0  0  0  0
   46.3950   35.0710   41.7920 H   0  0  0  0  0  0  0  0  0  0  0  0
   45.0130   33.3250   46.7130 H   0  0  0  0  0  0  0  0  0  0  0  0
   46.9030   31.4410   46.6770 C   0  0  0  0  0  3  0  0  0  0  0  0
   45.6720   30.6270   46.9300 C   0  0  0  0  0  3  0  0  0  0  0  0
   45.3420   30.2220   45.9600 H   0  0  0  0  0  0  0  0  0  0  0  0
   46.0940   29.4740   47.8160 C   0  0  0  0  0  3  0  0  0  0  0  0
   45.4010   29.4300   48.6910 H   0  0  0  0  0  0  0  0  0  0  0  0
   47.3610   29.6280   48.3600 O   0  0  0  0  0  0  0  0  0  0  0  0
   47.4640   30.8800   48.9740 C   0  0  0  0  0  3  0  0  0  0  0  0
   48.3950   30.8950   49.5460 H   0  0  0  0  0  0  0  0  0  0  0  0
   47.4940   31.9940   47.9490 C   0  0  0  0  0  3  0  0  0  0  0  0
   46.8400   32.8450   48.2610 H   0  0  0  0  0  0  0  0  0  0  0  0
  1 10  1  0  0  0  0
  1  6  1  0  0  0  0
  2  1  2  0  0  0  0
  3  2  1  0  0  0  0
  3  4  2  0  0  0  0
  4  5  1  0  0  0  0
  5  6  2  0  0  0  0
  5  9  1  0  0  0  0
  7  9  1  0  0  0  0
  7 14  1  0  0  0  0
  8  7  2  0  0  0  0
  9 13  1  0  0  0  0
 11  2  1  0  0  0  0
 12  3  1  0  0  0  0
 14 15  1  0  0  0  0
 14 22  1  0  0  0  0
 15 17  1  0  0  0  0
 16 15  1  0  0  0  0
 17 19  1  0  0  0  0
 17 18  1  0  0  0  0
 19 20  1  0  0  0  0
 20 21  1  0  0  0  0
 22 23  1  0  0  0  0
 22 20  1  0  0  0  0
M  END
>  <minimizedAffinity>
-4.59234762

>  <minimizedRMSD>
1.72694373

$$$$
