
 OpenBabel03252503363D

 23 24  0  0  0  0  0  0  0  0999 V2000
   38.0350   29.3610   41.5680 C   0  0  0  0  0  0  0  0  0  0  0  0
   37.1130   30.0150   42.1690 O   0  0  0  0  0  0  0  0  0  0  0  0
   38.7330   30.1340   40.6070 N   0  0  0  0  0  0  0  0  0  0  0  0
   39.5050   29.6900   40.0770 H   0  0  0  0  0  0  0  0  0  0  0  0
   38.3120   27.9530   41.8700 C   0  0  0  0  0  3  0  0  0  0  0  0
   37.0930   27.1990   42.3750 C   0  0  0  0  0  3  0  0  0  0  0  0
   36.9650   27.4410   43.4300 H   0  0  0  0  0  0  0  0  0  0  0  0
   37.4390   25.7200   42.2460 C   0  0  0  0  0  3  0  0  0  0  0  0
   37.3140   25.3650   41.1900 H   0  0  0  0  0  0  0  0  0  0  0  0
   38.7470   25.4420   42.5880 O   0  0  0  0  0  0  0  0  0  0  0  0
   39.2240   26.3760   43.4890 C   0  0  0  0  0  3  0  0  0  0  0  0
   40.1930   26.0720   43.9290 H   0  0  0  0  0  0  0  0  0  0  0  0
   39.4190   27.7450   42.8640 C   0  0  0  0  0  3  0  0  0  0  0  0
   39.3830   28.4690   43.7040 H   0  0  0  0  0  0  0  0  0  0  0  0
   37.2020   33.2260   39.2130 C   0  0  0  0  0  0  0  0  0  0  0  0
   37.4410   31.8550   39.4090 C   0  0  0  0  0  0  0  0  0  0  0  0
   38.4210   31.4860   40.3390 C   0  0  0  0  0  0  0  0  0  0  0  0
   39.0920   32.4520   41.0050 N   0  0  0  0  0  0  0  0  0  0  0  0
   38.8410   33.7780   40.7950 C   0  0  0  0  0  0  0  0  0  0  0  0
   37.9030   34.1460   39.9050 N   0  0  0  0  0  0  0  0  0  0  0  0
   36.4350   33.5020   38.4840 H   0  0  0  0  0  0  0  0  0  0  0  0
   36.8980   31.0940   38.8720 H   0  0  0  0  0  0  0  0  0  0  0  0
   39.3640   34.5670   41.3150 H   0  0  0  0  0  0  0  0  0  0  0  0
  1  5  1  0  0  0  0
  1  2  2  0  0  0  0
  3  1  1  0  0  0  0
  4  3  1  0  0  0  0
  5  6  1  0  0  0  0
  5 13  1  0  0  0  0
  6  7  1  0  0  0  0
  8  6  1  0  0  0  0
  8 10  1  0  0  0  0
  9  8  1  0  0  0  0
 10 11  1  0  0  0  0
 11 12  1  0  0  0  0
 13 11  1  0  0  0  0
 13 14  1  0  0  0  0
 15 16  2  0  0  0  0
 15 20  1  0  0  0  0
 16 17  1  0  0  0  0
 17  3  1  0  0  0  0
 17 18  2  0  0  0  0
 19 18  1  0  0  0  0
 19 23  1  0  0  0  0
 20 19  2  0  0  0  0
 21 15  1  0  0  0  0
 22 16  1  0  0  0  0
M  END
>  <minimizedAffinity>
-4.20492744

$$$$

 OpenBabel03252503363D

 23 24  0  0  0  0  0  0  0  0999 V2000
   38.8910   29.8600   42.0540 C   0  0  0  0  0  0  0  0  0  0  0  0
   39.5320   30.5240   42.9420 O   0  0  0  0  0  0  0  0  0  0  0  0
   38.8540   30.5060   40.7930 N   0  0  0  0  0  0  0  0  0  0  0  0
   38.3640   30.0360   40.0080 H   0  0  0  0  0  0  0  0  0  0  0  0
   38.2700   28.5650   42.3510 C   0  0  0  0  0  3  0  0  0  0  0  0
   37.3700   28.0650   41.2340 C   0  0  0  0  0  3  0  0  0  0  0  0
   36.4160   28.5850   41.3150 H   0  0  0  0  0  0  0  0  0  0  0  0
   37.1490   26.5830   41.5140 C   0  0  0  0  0  3  0  0  0  0  0  0
   38.0280   25.9710   41.1810 H   0  0  0  0  0  0  0  0  0  0  0  0
   36.9820   26.3080   42.8570 O   0  0  0  0  0  0  0  0  0  0  0  0
   36.4710   27.4080   43.5180 C   0  0  0  0  0  3  0  0  0  0  0  0
   36.1430   27.1610   44.5460 H   0  0  0  0  0  0  0  0  0  0  0  0
   37.4700   28.5460   43.6220 C   0  0  0  0  0  3  0  0  0  0  0  0
   36.8680   29.4660   43.7650 H   0  0  0  0  0  0  0  0  0  0  0  0
   39.4220   34.1600   40.3820 C   0  0  0  0  0  0  0  0  0  0  0  0
   38.7340   32.9600   40.6320 C   0  0  0  0  0  0  0  0  0  0  0  0
   39.4550   31.7620   40.5580 C   0  0  0  0  0  0  0  0  0  0  0  0
   40.7710   31.8040   40.2510 N   0  0  0  0  0  0  0  0  0  0  0  0
   41.4160   32.9850   40.0120 C   0  0  0  0  0  0  0  0  0  0  0  0
   40.7350   34.1430   40.0800 N   0  0  0  0  0  0  0  0  0  0  0  0
   38.8490   35.0880   40.4430 H   0  0  0  0  0  0  0  0  0  0  0  0
   37.6840   32.9390   40.8760 H   0  0  0  0  0  0  0  0  0  0  0  0
   42.4660   33.0440   39.7650 H   0  0  0  0  0  0  0  0  0  0  0  0
  1  5  1  0  0  0  0
  1  2  2  0  0  0  0
  3  1  1  0  0  0  0
  4  3  1  0  0  0  0
  5 13  1  0  0  0  0
  6  7  1  0  0  0  0
  6  8  1  0  0  0  0
  6  5  1  0  0  0  0
  8 10  1  0  0  0  0
  9  8  1  0  0  0  0
 10 11  1  0  0  0  0
 11 13  1  0  0  0  0
 11 12  1  0  0  0  0
 13 14  1  0  0  0  0
 15 21  1  0  0  0  0
 15 16  1  0  0  0  0
 16 22  1  0  0  0  0
 17 16  2  0  0  0  0
 17  3  1  0  0  0  0
 18 17  1  0  0  0  0
 19 20  1  0  0  0  0
 19 18  2  0  0  0  0
 20 15  2  0  0  0  0
 23 19  1  0  0  0  0
M  END
>  <minimizedAffinity>
-4.04665518

$$$$

 OpenBabel03252503363D

 23 24  0  0  0  0  0  0  0  0999 V2000
   38.4720   28.5990   42.4340 C   0  0  0  0  0  0  0  0  0  0  0  0
   37.5620   29.2680   43.0370 O   0  0  0  0  0  0  0  0  0  0  0  0
   39.0020   29.2690   41.3030 N   0  0  0  0  0  0  0  0  0  0  0  0
   39.7530   28.8070   40.7580 H   0  0  0  0  0  0  0  0  0  0  0  0
   38.8960   27.2730   42.8960 C   0  0  0  0  0  3  0  0  0  0  0  0
   40.3980   27.0620   42.8070 C   0  0  0  0  0  3  0  0  0  0  0  0
   40.6400   26.8220   41.7720 H   0  0  0  0  0  0  0  0  0  0  0  0
   40.6960   25.8470   43.6780 C   0  0  0  0  0  3  0  0  0  0  0  0
   40.7240   26.1230   44.7640 H   0  0  0  0  0  0  0  0  0  0  0  0
   39.7420   24.8550   43.5630 O   0  0  0  0  0  0  0  0  0  0  0  0
   39.1250   24.9140   42.3280 C   0  0  0  0  0  3  0  0  0  0  0  0
   38.5020   24.0210   42.1310 H   0  0  0  0  0  0  0  0  0  0  0  0
   38.2320   26.1330   42.1780 C   0  0  0  0  0  3  0  0  0  0  0  0
   38.1410   26.3080   41.0860 H   0  0  0  0  0  0  0  0  0  0  0  0
   38.6600   32.9430   40.8190 C   0  0  0  0  0  0  0  0  0  0  0  0
   39.1830   31.7240   41.2870 C   0  0  0  0  0  0  0  0  0  0  0  0
   38.5510   30.5410   40.8870 C   0  0  0  0  0  0  0  0  0  0  0  0
   37.4720   30.6150   40.0760 N   0  0  0  0  0  0  0  0  0  0  0  0
   36.9830   31.8120   39.6360 C   0  0  0  0  0  0  0  0  0  0  0  0
   37.5810   32.9560   40.0130 N   0  0  0  0  0  0  0  0  0  0  0  0
   39.1620   33.8590   41.1390 H   0  0  0  0  0  0  0  0  0  0  0  0
   40.0450   31.6800   41.9340 H   0  0  0  0  0  0  0  0  0  0  0  0
   36.1230   31.8960   38.9870 H   0  0  0  0  0  0  0  0  0  0  0  0
  1  5  1  0  0  0  0
  1  2  2  0  0  0  0
  3  1  1  0  0  0  0
  4  3  1  0  0  0  0
  6  5  1  0  0  0  0
  6  8  1  0  0  0  0
  7  6  1  0  0  0  0
  8  9  1  0  0  0  0
 10  8  1  0  0  0  0
 11 10  1  0  0  0  0
 12 11  1  0  0  0  0
 13 11  1  0  0  0  0
 13  5  1  0  0  0  0
 14 13  1  0  0  0  0
 15 21  1  0  0  0  0
 15 16  1  0  0  0  0
 16 22  1  0  0  0  0
 17 16  2  0  0  0  0
 17  3  1  0  0  0  0
 18 17  1  0  0  0  0
 19 20  1  0  0  0  0
 19 18  2  0  0  0  0
 20 15  2  0  0  0  0
 23 19  1  0  0  0  0
M  END
>  <minimizedAffinity>
-3.96587276

$$$$

 OpenBabel03252503363D

 23 24  0  0  0  0  0  0  0  0999 V2000
   36.8300   29.1380   40.9740 C   0  0  0  0  0  0  0  0  0  0  0  0
   35.6100   28.7820   41.1310 O   0  0  0  0  0  0  0  0  0  0  0  0
   37.7240   28.0420   40.8830 N   0  0  0  0  0  0  0  0  0  0  0  0
   38.7340   28.2350   40.7440 H   0  0  0  0  0  0  0  0  0  0  0  0
   37.2240   30.5490   40.9030 C   0  0  0  0  0  3  0  0  0  0  0  0
   37.1050   31.1320   39.5050 C   0  0  0  0  0  3  0  0  0  0  0  0
   37.9800   30.8180   38.9370 H   0  0  0  0  0  0  0  0  0  0  0  0
   37.1500   32.6460   39.6840 C   0  0  0  0  0  3  0  0  0  0  0  0
   36.1560   33.0440   40.0160 H   0  0  0  0  0  0  0  0  0  0  0  0
   38.0600   33.0480   40.6410 O   0  0  0  0  0  0  0  0  0  0  0  0
   39.0800   32.1230   40.7620 C   0  0  0  0  0  3  0  0  0  0  0  0
   39.9190   32.5060   41.3720 H   0  0  0  0  0  0  0  0  0  0  0  0
   38.6180   30.8210   41.3920 C   0  0  0  0  0  3  0  0  0  0  0  0
   39.3460   30.0510   41.0640 H   0  0  0  0  0  0  0  0  0  0  0  0
   36.8780   24.6540   42.1670 C   0  0  0  0  0  0  0  0  0  0  0  0
   37.3220   25.9880   42.1790 C   0  0  0  0  0  0  0  0  0  0  0  0
   37.2990   26.6980   40.9730 C   0  0  0  0  0  0  0  0  0  0  0  0
   36.8570   26.0810   39.8540 N   0  0  0  0  0  0  0  0  0  0  0  0
   36.4310   24.7830   39.8700 C   0  0  0  0  0  0  0  0  0  0  0  0
   36.4480   24.0890   41.0220 N   0  0  0  0  0  0  0  0  0  0  0  0
   36.9010   24.1090   43.1140 H   0  0  0  0  0  0  0  0  0  0  0  0
   37.6720   26.4690   43.0780 H   0  0  0  0  0  0  0  0  0  0  0  0
   36.0740   24.2690   38.9890 H   0  0  0  0  0  0  0  0  0  0  0  0
  1  2  2  0  0  0  0
  3 17  1  0  0  0  0
  3  1  1  0  0  0  0
  4  3  1  0  0  0  0
  5  1  1  0  0  0  0
  5 13  1  0  0  0  0
  6  8  1  0  0  0  0
  6  5  1  0  0  0  0
  7  6  1  0  0  0  0
  8  9  1  0  0  0  0
  8 10  1  0  0  0  0
 10 11  1  0  0  0  0
 11 12  1  0  0  0  0
 11 13  1  0  0  0  0
 14 13  1  0  0  0  0
 15 16  1  0  0  0  0
 15 21  1  0  0  0  0
 16 22  1  0  0  0  0
 17 16  2  0  0  0  0
 18 19  2  0  0  0  0
 18 17  1  0  0  0  0
 19 20  1  0  0  0  0
 20 15  2  0  0  0  0
 23 19  1  0  0  0  0
M  END
>  <minimizedAffinity>
-3.95837593

$$$$

 OpenBabel03252503363D

 23 24  0  0  0  0  0  0  0  0999 V2000
   36.3380   29.0380   40.0090 C   0  0  0  0  0  0  0  0  0  0  0  0
   35.2540   28.6650   40.5780 O   0  0  0  0  0  0  0  0  0  0  0  0
   37.2750   27.9870   39.8480 N   0  0  0  0  0  0  0  0  0  0  0  0
   38.1800   28.1940   39.3850 H   0  0  0  0  0  0  0  0  0  0  0  0
   36.5530   30.4240   39.5800 C   0  0  0  0  0  3  0  0  0  0  0  0
   37.7130   30.5770   38.6110 C   0  0  0  0  0  3  0  0  0  0  0  0
   38.6350   30.5720   39.1920 H   0  0  0  0  0  0  0  0  0  0  0  0
   37.5400   31.9510   37.9720 C   0  0  0  0  0  3  0  0  0  0  0  0
   36.7670   31.9250   37.1600 H   0  0  0  0  0  0  0  0  0  0  0  0
   37.1170   32.9120   38.8690 O   0  0  0  0  0  0  0  0  0  0  0  0
   37.5160   32.5890   40.1520 C   0  0  0  0  0  3  0  0  0  0  0  0
   37.3660   33.4280   40.8580 H   0  0  0  0  0  0  0  0  0  0  0  0
   36.7750   31.3880   40.7110 C   0  0  0  0  0  3  0  0  0  0  0  0
   37.4270   30.9730   41.5070 H   0  0  0  0  0  0  0  0  0  0  0  0
   36.3010   24.3980   39.9760 C   0  0  0  0  0  0  0  0  0  0  0  0
   36.5100   25.6820   39.4430 C   0  0  0  0  0  0  0  0  0  0  0  0
   37.0300   26.6690   40.2900 C   0  0  0  0  0  0  0  0  0  0  0  0
   37.3060   26.3520   41.5750 N   0  0  0  0  0  0  0  0  0  0  0  0
   37.0920   25.0960   42.0690 C   0  0  0  0  0  0  0  0  0  0  0  0
   36.5940   24.1400   41.2650 N   0  0  0  0  0  0  0  0  0  0  0  0
   35.8950   23.6370   39.3050 H   0  0  0  0  0  0  0  0  0  0  0  0
   36.2860   25.9220   38.4160 H   0  0  0  0  0  0  0  0  0  0  0  0
   37.3050   24.8200   43.0910 H   0  0  0  0  0  0  0  0  0  0  0  0
  1  2  2  0  0  0  0
  3  1  1  0  0  0  0
  3 17  1  0  0  0  0
  4  3  1  0  0  0  0
  5  1  1  0  0  0  0
  5 13  1  0  0  0  0
  6  7  1  0  0  0  0
  6  5  1  0  0  0  0
  8  6  1  0  0  0  0
  8 10  1  0  0  0  0
  9  8  1  0  0  0  0
 10 11  1  0  0  0  0
 11 13  1  0  0  0  0
 11 12  1  0  0  0  0
 13 14  1  0  0  0  0
 15 20  1  0  0  0  0
 16 15  2  0  0  0  0
 16 17  1  0  0  0  0
 17 18  2  0  0  0  0
 18 19  1  0  0  0  0
 19 23  1  0  0  0  0
 20 19  2  0  0  0  0
 21 15  1  0  0  0  0
 22 16  1  0  0  0  0
M  END
>  <minimizedAffinity>
-3.95312285

$$$$

 OpenBabel03252503363D

 23 24  0  0  0  0  0  0  0  0999 V2000
   38.6670   30.2370   41.1020 C   0  0  0  0  0  0  0  0  0  0  0  0
   39.4300   29.5200   40.3650 O   0  0  0  0  0  0  0  0  0  0  0  0
   38.1440   29.5350   42.2160 N   0  0  0  0  0  0  0  0  0  0  0  0
   37.5240   30.0400   42.8760 H   0  0  0  0  0  0  0  0  0  0  0  0
   38.3840   31.6430   40.7910 C   0  0  0  0  0  3  0  0  0  0  0  0
   37.7970   31.8410   39.4040 C   0  0  0  0  0  3  0  0  0  0  0  0
   38.6160   31.8070   38.6870 H   0  0  0  0  0  0  0  0  0  0  0  0
   37.2000   33.2440   39.4050 C   0  0  0  0  0  3  0  0  0  0  0  0
   36.2010   33.2600   39.9120 H   0  0  0  0  0  0  0  0  0  0  0  0
   37.9830   34.1610   40.0790 O   0  0  0  0  0  0  0  0  0  0  0  0
   39.3090   33.7750   40.0600 C   0  0  0  0  0  3  0  0  0  0  0  0
   39.9810   34.5790   40.4160 H   0  0  0  0  0  0  0  0  0  0  0  0
   39.5750   32.5490   40.9150 C   0  0  0  0  0  3  0  0  0  0  0  0
   40.5040   32.0950   40.5120 H   0  0  0  0  0  0  0  0  0  0  0  0
   39.7070   26.4000   43.4730 C   0  0  0  0  0  0  0  0  0  0  0  0
   39.5000   27.7780   43.2830 C   0  0  0  0  0  0  0  0  0  0  0  0
   38.4340   28.1750   42.4680 C   0  0  0  0  0  0  0  0  0  0  0  0
   37.6520   27.2290   41.9000 N   0  0  0  0  0  0  0  0  0  0  0  0
   37.8760   25.8960   42.1000 C   0  0  0  0  0  0  0  0  0  0  0  0
   38.8970   25.5010   42.8810 N   0  0  0  0  0  0  0  0  0  0  0  0
   40.5430   26.1020   44.1110 H   0  0  0  0  0  0  0  0  0  0  0  0
   40.1310   28.5220   43.7420 H   0  0  0  0  0  0  0  0  0  0  0  0
   37.2650   25.1230   41.6580 H   0  0  0  0  0  0  0  0  0  0  0  0
  1  3  1  0  0  0  0
  2  1  2  0  0  0  0
  3 17  1  0  0  0  0
  3  4  1  0  0  0  0
  5 13  1  0  0  0  0
  5  1  1  0  0  0  0
  6  8  1  0  0  0  0
  6  5  1  0  0  0  0
  7  6  1  0  0  0  0
  8  9  1  0  0  0  0
  8 10  1  0  0  0  0
 11 10  1  0  0  0  0
 11 12  1  0  0  0  0
 11 13  1  0  0  0  0
 14 13  1  0  0  0  0
 15 21  1  0  0  0  0
 16 15  1  0  0  0  0
 16 22  1  0  0  0  0
 17 16  2  0  0  0  0
 18 19  2  0  0  0  0
 18 17  1  0  0  0  0
 19 20  1  0  0  0  0
 20 15  2  0  0  0  0
 23 19  1  0  0  0  0
M  END
>  <minimizedAffinity>
-3.95294333

$$$$

 OpenBabel03252503363D

 23 24  0  0  0  0  0  0  0  0999 V2000
   37.2890   28.0020   40.4390 C   0  0  0  0  0  0  0  0  0  0  0  0
   37.8730   28.3440   39.3520 O   0  0  0  0  0  0  0  0  0  0  0  0
   37.1190   29.0790   41.3450 N   0  0  0  0  0  0  0  0  0  0  0  0
   36.6450   28.8970   42.2490 H   0  0  0  0  0  0  0  0  0  0  0  0
   36.8570   26.6230   40.6870 C   0  0  0  0  0  3  0  0  0  0  0  0
   37.7980   25.8570   41.6010 C   0  0  0  0  0  3  0  0  0  0  0  0
   38.6460   25.5240   41.0030 H   0  0  0  0  0  0  0  0  0  0  0  0
   37.0160   24.6350   42.0700 C   0  0  0  0  0  3  0  0  0  0  0  0
   36.3080   24.9000   42.8970 H   0  0  0  0  0  0  0  0  0  0  0  0
   36.2420   24.0760   41.0720 O   0  0  0  0  0  0  0  0  0  0  0  0
   36.7830   24.3430   39.8290 C   0  0  0  0  0  3  0  0  0  0  0  0
   36.3020   23.7500   39.0290 H   0  0  0  0  0  0  0  0  0  0  0  0
   36.6670   25.8060   39.4410 C   0  0  0  0  0  3  0  0  0  0  0  0
   37.4610   25.9840   38.6870 H   0  0  0  0  0  0  0  0  0  0  0  0
   37.3180   32.5900   40.1300 C   0  0  0  0  0  0  0  0  0  0  0  0
   36.7860   31.3090   40.3550 C   0  0  0  0  0  0  0  0  0  0  0  0
   37.5660   30.3900   41.0680 C   0  0  0  0  0  0  0  0  0  0  0  0
   38.7880   30.7650   41.5060 N   0  0  0  0  0  0  0  0  0  0  0  0
   39.2830   32.0180   41.2730 C   0  0  0  0  0  0  0  0  0  0  0  0
   38.5440   32.9100   40.5900 N   0  0  0  0  0  0  0  0  0  0  0  0
   36.7010   33.2990   39.5720 H   0  0  0  0  0  0  0  0  0  0  0  0
   35.8100   31.0210   40.0000 H   0  0  0  0  0  0  0  0  0  0  0  0
   40.2560   32.3410   41.6140 H   0  0  0  0  0  0  0  0  0  0  0  0
  1  5  1  0  0  0  0
  1  3  1  0  0  0  0
  2  1  2  0  0  0  0
  3  4  1  0  0  0  0
  5  6  1  0  0  0  0
  6  8  1  0  0  0  0
  7  6  1  0  0  0  0
  8  9  1  0  0  0  0
 10  8  1  0  0  0  0
 11 10  1  0  0  0  0
 12 11  1  0  0  0  0
 13 11  1  0  0  0  0
 13  5  1  0  0  0  0
 14 13  1  0  0  0  0
 15 16  2  0  0  0  0
 15 20  1  0  0  0  0
 16 17  1  0  0  0  0
 17  3  1  0  0  0  0
 17 18  2  0  0  0  0
 19 18  1  0  0  0  0
 19 23  1  0  0  0  0
 20 19  2  0  0  0  0
 21 15  1  0  0  0  0
 22 16  1  0  0  0  0
M  END
>  <minimizedAffinity>
-3.88812137

$$$$

 OpenBabel03252503363D

 23 24  0  0  0  0  0  0  0  0999 V2000
   37.8680   28.6850   41.3570 C   0  0  0  0  0  0  0  0  0  0  0  0
   37.0510   29.3520   42.0820 O   0  0  0  0  0  0  0  0  0  0  0  0
   38.5630   29.4860   40.4170 N   0  0  0  0  0  0  0  0  0  0  0  0
   39.2550   29.0320   39.7910 H   0  0  0  0  0  0  0  0  0  0  0  0
   38.0390   27.2360   41.5110 C   0  0  0  0  0  3  0  0  0  0  0  0
   37.8780   26.4730   40.2070 C   0  0  0  0  0  3  0  0  0  0  0  0
   36.8110   26.3660   40.0140 H   0  0  0  0  0  0  0  0  0  0  0  0
   38.4750   25.0930   40.4590 C   0  0  0  0  0  3  0  0  0  0  0  0
   39.5940   25.1180   40.3930 H   0  0  0  0  0  0  0  0  0  0  0  0
   38.1790   24.6000   41.7140 O   0  0  0  0  0  0  0  0  0  0  0  0
   36.9960   25.1390   42.1820 C   0  0  0  0  0  3  0  0  0  0  0  0
   36.6330   24.6210   43.0900 H   0  0  0  0  0  0  0  0  0  0  0  0
   37.1170   26.6140   42.5200 C   0  0  0  0  0  3  0  0  0  0  0  0
   36.0870   27.0220   42.4690 H   0  0  0  0  0  0  0  0  0  0  0  0
   38.7990   33.1740   40.8530 C   0  0  0  0  0  0  0  0  0  0  0  0
   39.0790   31.8090   41.0460 C   0  0  0  0  0  0  0  0  0  0  0  0
   38.3540   30.8770   40.2940 C   0  0  0  0  0  0  0  0  0  0  0  0
   37.4200   31.3200   39.4220 N   0  0  0  0  0  0  0  0  0  0  0  0
   37.1670   32.6520   39.2540 C   0  0  0  0  0  0  0  0  0  0  0  0
   37.8570   33.5570   39.9690 N   0  0  0  0  0  0  0  0  0  0  0  0
   39.3720   33.8920   41.4450 H   0  0  0  0  0  0  0  0  0  0  0  0
   39.8260   31.4700   41.7450 H   0  0  0  0  0  0  0  0  0  0  0  0
   36.4270   33.0290   38.5630 H   0  0  0  0  0  0  0  0  0  0  0  0
  1  5  1  0  0  0  0
  1  2  2  0  0  0  0
  3  1  1  0  0  0  0
  4  3  1  0  0  0  0
  5 13  1  0  0  0  0
  6  8  1  0  0  0  0
  6  5  1  0  0  0  0
  7  6  1  0  0  0  0
  8 10  1  0  0  0  0
  9  8  1  0  0  0  0
 10 11  1  0  0  0  0
 11 13  1  0  0  0  0
 11 12  1  0  0  0  0
 14 13  1  0  0  0  0
 15 16  1  0  0  0  0
 15 21  1  0  0  0  0
 16 22  1  0  0  0  0
 17  3  1  0  0  0  0
 17 16  2  0  0  0  0
 18 17  1  0  0  0  0
 19 18  2  0  0  0  0
 19 20  1  0  0  0  0
 20 15  2  0  0  0  0
 23 19  1  0  0  0  0
M  END
>  <minimizedAffinity>
-3.8369031

$$$$

 OpenBabel03252503363D

 23 24  0  0  0  0  0  0  0  0999 V2000
   36.7240   30.1600   38.0910 C   0  0  0  0  0  0  0  0  0  0  0  0
   37.7960   30.5360   37.5000 O   0  0  0  0  0  0  0  0  0  0  0  0
   36.4780   30.8600   39.2990 N   0  0  0  0  0  0  0  0  0  0  0  0
   35.6250   30.6290   39.8420 H   0  0  0  0  0  0  0  0  0  0  0  0
   35.8640   29.1060   37.5440 C   0  0  0  0  0  3  0  0  0  0  0  0
   35.5940   29.2670   36.0580 C   0  0  0  0  0  3  0  0  0  0  0  0
   34.8140   30.0180   35.9410 H   0  0  0  0  0  0  0  0  0  0  0  0
   35.0560   27.9200   35.5880 C   0  0  0  0  0  3  0  0  0  0  0  0
   35.8870   27.1830   35.4330 H   0  0  0  0  0  0  0  0  0  0  0  0
   34.1960   27.3360   36.4970 O   0  0  0  0  0  0  0  0  0  0  0  0
   33.5800   28.3010   37.2720 C   0  0  0  0  0  3  0  0  0  0  0  0
   32.7470   27.8850   37.8690 H   0  0  0  0  0  0  0  0  0  0  0  0
   34.5380   28.9760   38.2370 C   0  0  0  0  0  3  0  0  0  0  0  0
   34.0820   29.9580   38.4790 H   0  0  0  0  0  0  0  0  0  0  0  0
   38.1200   34.1270   39.9860 C   0  0  0  0  0  0  0  0  0  0  0  0
   37.2090   33.2070   39.4400 C   0  0  0  0  0  0  0  0  0  0  0  0
   37.3440   31.8590   39.7950 C   0  0  0  0  0  0  0  0  0  0  0  0
   38.3360   31.4980   40.6400 N   0  0  0  0  0  0  0  0  0  0  0  0
   39.2090   32.4140   41.1560 C   0  0  0  0  0  0  0  0  0  0  0  0
   39.0900   33.7110   40.8230 N   0  0  0  0  0  0  0  0  0  0  0  0
   38.0040   35.1760   39.7010 H   0  0  0  0  0  0  0  0  0  0  0  0
   36.4220   33.5070   38.7670 H   0  0  0  0  0  0  0  0  0  0  0  0
   40.0090   32.1490   41.8330 H   0  0  0  0  0  0  0  0  0  0  0  0
  1  3  1  0  0  0  0
  2  1  2  0  0  0  0
  3 17  1  0  0  0  0
  3  4  1  0  0  0  0
  5  1  1  0  0  0  0
  5 13  1  0  0  0  0
  6  5  1  0  0  0  0
  7  6  1  0  0  0  0
  8  6  1  0  0  0  0
  8 10  1  0  0  0  0
  9  8  1  0  0  0  0
 10 11  1  0  0  0  0
 11 12  1  0  0  0  0
 11 13  1  0  0  0  0
 13 14  1  0  0  0  0
 15 20  1  0  0  0  0
 16 17  1  0  0  0  0
 16 15  2  0  0  0  0
 17 18  2  0  0  0  0
 18 19  1  0  0  0  0
 19 23  1  0  0  0  0
 20 19  2  0  0  0  0
 21 15  1  0  0  0  0
 22 16  1  0  0  0  0
M  END
>  <minimizedAffinity>
-3.78114128

$$$$
