
 OpenBabel03242521173D

 39 41  0  0  0  0  0  0  0  0999 V2000
   51.5010   30.0950   43.6810 C   0  0  0  0  0  0  0  0  0  0  0  0
   52.1440   30.9340   43.3990 H   0  0  0  0  0  0  0  0  0  0  0  0
   51.4880   30.0700   44.8070 H   0  0  0  0  0  0  0  0  0  0  0  0
   47.7820   30.0090   43.2660 C   0  0  0  0  0  0  0  0  0  0  0  0
   47.6310   30.9050   42.1940 C   0  0  0  0  0  0  0  0  0  0  0  0
   48.7890   31.4740   41.6860 C   0  0  0  0  0  0  0  0  0  0  0  0
   50.0090   31.1430   42.2440 N   0  0  0  0  0  0  0  0  0  0  0  0
   50.0870   30.2820   43.2640 C   0  0  0  0  0  0  0  0  0  0  0  0
   48.9780   29.6950   43.8000 N   0  0  0  0  0  0  0  0  0  0  0  0
   46.8970   29.5360   43.6960 H   0  0  0  0  0  0  0  0  0  0  0  0
   46.6580   31.1240   41.8000 H   0  0  0  0  0  0  0  0  0  0  0  0
   48.6660   32.3900   40.5950 N   0  0  0  0  0  0  0  0  0  0  0  0
   48.2560   33.6400   40.8500 C   0  0  0  0  0  0  0  0  0  0  0  0
   48.1320   34.5370   39.8050 C   0  0  0  0  0  0  0  0  0  0  0  0
   48.4380   34.1030   38.5530 C   0  0  0  0  0  0  0  0  0  0  0  0
   48.3220   34.9360   37.5880 O   0  0  0  0  0  0  0  0  0  0  0  0
   48.8540   32.8480   38.2700 N   0  0  0  0  0  0  0  0  0  0  0  0
   48.9510   32.0300   39.3340 C   0  0  0  0  0  0  0  0  0  0  0  0
   49.3300   30.8380   39.1890 O   0  0  0  0  0  0  0  0  0  0  0  0
   48.0090   33.9960   41.8500 H   0  0  0  0  0  0  0  0  0  0  0  0
   47.8030   35.5550   39.9720 H   0  0  0  0  0  0  0  0  0  0  0  0
   49.0860   32.5270   37.3030 H   0  0  0  0  0  0  0  0  0  0  0  0
   52.0280   28.7570   43.2270 C   0  0  0  0  0  0  0  0  0  0  0  0
   51.5970   27.9790   43.8790 H   0  0  0  0  0  0  0  0  0  0  0  0
   53.1270   28.6850   43.3110 H   0  0  0  0  0  0  0  0  0  0  0  0
   52.4190   28.6700   40.8020 C   0  0  0  0  0  0  0  0  0  0  0  0
   53.5970   29.0170   41.0880 O   0  0  0  0  0  0  0  0  0  0  0  0
   51.5440   28.5020   41.8770 N   0  0  0  0  0  0  0  0  0  0  0  0
   50.5620   28.2030   41.7480 H   0  0  0  0  0  0  0  0  0  0  0  0
   51.9990   28.4540   39.3910 C   0  0  0  0  0  3  0  0  0  0  0  0
   53.1450   27.9700   38.5270 C   0  0  0  0  0  3  0  0  0  0  0  0
   53.3410   26.8940   38.7780 H   0  0  0  0  0  0  0  0  0  0  0  0
   52.6300   27.9650   37.0940 C   0  0  0  0  0  3  0  0  0  0  0  0
   53.4210   27.7470   36.3670 H   0  0  0  0  0  0  0  0  0  0  0  0
   51.6370   26.9650   37.0570 O   0  0  0  0  0  0  0  0  0  0  0  0
   50.5410   27.3650   37.7900 C   0  0  0  0  0  3  0  0  0  0  0  0
   49.7650   26.5740   37.6940 H   0  0  0  0  0  0  0  0  0  0  0  0
   50.8360   27.5100   39.2600 C   0  0  0  0  0  3  0  0  0  0  0  0
   50.9590   26.5410   39.7410 H   0  0  0  0  0  0  0  0  0  0  0  0
  1  3  1  0  0  0  0
  2  1  1  0  0  0  0
  4 10  1  0  0  0  0
  4  9  1  0  0  0  0
  5  4  2  0  0  0  0
  6  5  1  0  0  0  0
  6  7  2  0  0  0  0
  7  8  1  0  0  0  0
  8  1  1  0  0  0  0
  8  9  2  0  0  0  0
 11  5  1  0  0  0  0
 12 13  1  0  0  0  0
 12  6  1  0  0  0  0
 13 20  1  0  0  0  0
 14 21  1  0  0  0  0
 14 13  2  0  0  0  0
 15 14  1  0  0  0  0
 16 15  2  0  0  0  0
 17 15  1  0  0  0  0
 17 18  1  0  0  0  0
 18 12  1  0  0  0  0
 19 18  2  0  0  0  0
 22 17  1  0  0  0  0
 23 25  1  0  0  0  0
 23  1  1  0  0  0  0
 23 24  1  0  0  0  0
 26 27  2  0  0  0  0
 26 28  1  0  0  0  0
 28 23  1  0  0  0  0
 29 28  1  0  0  0  0
 30 26  1  0  0  0  0
 31 32  1  0  0  0  0
 31 30  1  0  0  0  0
 33 31  1  0  0  0  0
 34 33  1  0  0  0  0
 35 33  1  0  0  0  0
 35 36  1  0  0  0  0
 36 38  1  0  0  0  0
 37 36  1  0  0  0  0
 38 30  1  0  0  0  0
 38 39  1  0  0  0  0
M  END
>  <minimizedAffinity>
-2.54276109

>  <minimizedRMSD>
8.85313702

$$$$
