
 OpenBabel03242516533D

 46 49  0  0  1  0  0  0  0  0999 V2000
   47.8400   32.8650   41.8600 C   0  0  1  0  0  0  0  0  0  0  0  0
   47.5330   32.1510   40.6220 C   0  0  0  0  0  0  0  0  0  0  0  0
   48.5310   32.6530   39.5850 C   0  0  0  0  0  0  0  0  0  0  0  0
   48.1610   34.0950   39.2820 C   0  0  0  0  0  0  0  0  0  0  0  0
   48.0780   34.9760   40.4910 C   0  0  0  0  0  0  0  0  0  0  0  0
   47.6020   34.3750   41.7370 C   0  0  1  0  0  0  0  0  0  0  0  0
   48.9590   32.8170   42.0330 H   0  0  0  0  0  0  0  0  0  0  0  0
   46.4880   32.3440   40.2810 H   0  0  0  0  0  0  0  0  0  0  0  0
   47.6210   31.0740   40.7670 H   0  0  0  0  0  0  0  0  0  0  0  0
   49.5370   32.5790   40.0320 H   0  0  0  0  0  0  0  0  0  0  0  0
   48.3950   32.0870   38.6530 H   0  0  0  0  0  0  0  0  0  0  0  0
   47.2030   34.0820   38.7270 H   0  0  0  0  0  0  0  0  0  0  0  0
   48.9260   34.4780   38.5740 H   0  0  0  0  0  0  0  0  0  0  0  0
   49.0970   35.4290   40.6200 H   0  0  0  0  0  0  0  0  0  0  0  0
   47.4300   35.8440   40.2220 H   0  0  0  0  0  0  0  0  0  0  0  0
   48.1920   34.8170   42.5960 H   0  0  0  0  0  0  0  0  0  0  0  0
   45.4780   30.9710   44.1280 C   0  0  0  0  0  0  0  0  0  0  0  0
   46.1410   31.4890   43.0090 C   0  0  0  0  0  0  0  0  0  0  0  0
   47.2200   32.3750   43.0740 C   0  0  0  0  0  0  0  0  0  0  0  0
   47.6020   32.7180   44.3050 N   0  0  0  0  0  0  0  0  0  0  0  0
   46.9710   32.2250   45.4040 C   0  0  0  0  0  0  0  0  0  0  0  0
   45.9410   31.3790   45.3310 N   0  0  0  0  0  0  0  0  0  0  0  0
   44.6620   30.2960   43.9340 H   0  0  0  0  0  0  0  0  0  0  0  0
   45.8170   31.1990   42.0180 H   0  0  0  0  0  0  0  0  0  0  0  0
   47.3470   32.5560   46.3760 H   0  0  0  0  0  0  0  0  0  0  0  0
   46.2120   34.7250   42.0410 C   0  0  0  0  0  0  0  0  0  0  0  0
   45.7340   35.2460   43.2520 C   0  0  0  0  0  0  0  0  0  0  0  0
   44.3670   35.5170   43.3060 C   0  0  0  0  0  0  0  0  0  0  0  0
   43.6100   35.2550   42.1850 C   0  0  0  0  0  0  0  0  0  0  0  0
   44.0950   34.7390   40.9940 C   0  0  0  0  0  0  0  0  0  0  0  0
   45.4330   34.4790   40.9570 N   0  0  0  0  0  0  0  0  0  0  0  0
   46.4450   35.3880   44.0130 H   0  0  0  0  0  0  0  0  0  0  0  0
   43.9870   35.9130   44.2160 H   0  0  0  0  0  0  0  0  0  0  0  0
   42.5410   35.4700   42.2380 H   0  0  0  0  0  0  0  0  0  0  0  0
   43.2140   34.5010   39.8570 C   0  0  0  0  0  0  0  0  0  0  0  0
   42.5240   35.4670   39.4270 O   0  0  0  0  0  0  0  0  0  0  0  0
   43.1150   33.1520   39.2020 C   0  0  0  0  0  3  0  0  0  0  0  0
   42.8530   32.0790   40.2400 C   0  0  0  0  0  3  0  0  0  0  0  0
   41.9420   31.4920   40.0040 H   0  0  0  0  0  0  0  0  0  0  0  0
   43.9990   31.0920   40.3450 C   0  0  0  0  0  3  0  0  0  0  0  0
   43.6390   30.3170   41.0790 H   0  0  0  0  0  0  0  0  0  0  0  0
   44.3190   30.4890   39.1400 O   0  0  0  0  0  0  0  0  0  0  0  0
   44.2520   31.3570   38.0620 C   0  0  0  0  0  3  0  0  0  0  0  0
   44.9110   31.0830   37.2360 H   0  0  0  0  0  0  0  0  0  0  0  0
   44.4340   32.7790   38.5510 C   0  0  0  0  0  3  0  0  0  0  0  0
   44.7130   33.4330   37.7220 H   0  0  0  0  0  0  0  0  0  0  0  0
  1  7  1  1  0  0  0
  1 19  1  0  0  0  0
  2  9  1  0  0  0  0
  2  1  1  0  0  0  0
  3 10  1  0  0  0  0
  3  2  1  0  0  0  0
  4  3  1  0  0  0  0
  4  5  1  0  0  0  0
  5 14  1  0  0  0  0
  5  6  1  0  0  0  0
  6  1  1  0  0  0  0
  6 26  1  0  0  0  0
  6 16  1  1  0  0  0
  8  2  1  0  0  0  0
 11  3  1  0  0  0  0
 12  4  1  0  0  0  0
 13  4  1  0  0  0  0
 15  5  1  0  0  0  0
 17 22  1  0  0  0  0
 18 19  1  0  0  0  0
 18 17  2  0  0  0  0
 19 20  2  0  0  0  0
 20 21  1  0  0  0  0
 21 25  1  0  0  0  0
 22 21  2  0  0  0  0
 23 17  1  0  0  0  0
 24 18  1  0  0  0  0
 26 27  1  0  0  0  0
 27 28  2  0  0  0  0
 27 32  1  0  0  0  0
 28 33  1  0  0  0  0
 29 34  1  0  0  0  0
 29 28  1  0  0  0  0
 30 29  2  0  0  0  0
 31 30  1  0  0  0  0
 31 26  2  0  0  0  0
 35 30  1  0  0  0  0
 36 35  2  0  0  0  0
 37 35  1  0  0  0  0
 37 38  1  0  0  0  0
 38 40  1  0  0  0  0
 39 38  1  0  0  0  0
 40 41  1  0  0  0  0
 42 40  1  0  0  0  0
 43 45  1  0  0  0  0
 43 42  1  0  0  0  0
 44 43  1  0  0  0  0
 45 37  1  0  0  0  0
 46 45  1  0  0  0  0
M  END
>  <minimizedAffinity>
-5.01555204

>  <minimizedRMSD>
0.456446439

$$$$
