
 OpenBabel03242517003D

 33 35  0  0  0  0  0  0  0  0999 V2000
   46.8680   34.8630   41.9170 C   0  0  0  0  0  0  0  0  0  0  0  0
   48.0910   35.4990   41.9230 C   0  0  0  0  0  0  0  0  0  0  0  0
   48.8920   35.4200   40.8040 C   0  0  0  0  0  0  0  0  0  0  0  0
   48.4600   34.7150   39.7100 C   0  0  0  0  0  0  0  0  0  0  0  0
   47.2500   34.0700   39.6650 C   0  0  0  0  0  0  0  0  0  0  0  0
   46.4580   34.1680   40.8210 C   0  0  0  0  0  0  0  0  0  0  0  0
   48.4330   36.0560   42.7900 H   0  0  0  0  0  0  0  0  0  0  0  0
   49.8400   35.9290   40.8470 H   0  0  0  0  0  0  0  0  0  0  0  0
   49.1220   34.6800   38.8540 H   0  0  0  0  0  0  0  0  0  0  0  0
   46.8890   33.5120   38.8230 H   0  0  0  0  0  0  0  0  0  0  0  0
   44.4880   36.0230   44.6170 C   0  0  0  0  0  0  0  0  0  0  0  0
   45.2080   36.0220   43.4060 C   0  0  0  0  0  0  0  0  0  0  0  0
   46.0660   34.9820   43.1310 C   0  0  0  0  0  0  0  0  0  0  0  0
   46.1690   33.9890   44.0740 N   0  0  0  0  0  0  0  0  0  0  0  0
   45.4690   34.0070   45.2310 C   0  0  0  0  0  0  0  0  0  0  0  0
   44.6230   35.0330   45.5010 N   0  0  0  0  0  0  0  0  0  0  0  0
   43.8530   36.9030   44.6960 H   0  0  0  0  0  0  0  0  0  0  0  0
   45.1390   36.7900   42.6610 H   0  0  0  0  0  0  0  0  0  0  0  0
   45.5690   33.2190   45.9460 H   0  0  0  0  0  0  0  0  0  0  0  0
   43.8620   33.9580   40.6460 C   0  0  0  0  0  0  0  0  0  0  0  0
   43.4820   35.0520   40.2260 O   0  0  0  0  0  0  0  0  0  0  0  0
   45.1920   33.5460   40.9090 N   0  0  0  0  0  0  0  0  0  0  0  0
   45.4660   32.5910   41.2520 H   0  0  0  0  0  0  0  0  0  0  0  0
   42.8570   32.8740   40.9390 C   0  0  0  0  0  3  0  0  0  0  0  0
   43.3370   32.0650   42.1510 C   0  0  0  0  0  3  0  0  0  0  0  0
   44.2940   31.6040   41.8520 H   0  0  0  0  0  0  0  0  0  0  0  0
   42.2570   31.0380   42.4100 C   0  0  0  0  0  3  0  0  0  0  0  0
   42.7140   30.0350   42.2020 H   0  0  0  0  0  0  0  0  0  0  0  0
   41.1680   31.1360   41.5800 O   0  0  0  0  0  0  0  0  0  0  0  0
   40.5530   32.3850   41.6340 C   0  0  0  0  0  3  0  0  0  0  0  0
   39.8220   32.4120   40.7910 H   0  0  0  0  0  0  0  0  0  0  0  0
   41.5490   33.5020   41.3840 C   0  0  0  0  0  3  0  0  0  0  0  0
   41.6630   34.0380   42.3510 H   0  0  0  0  0  0  0  0  0  0  0  0
  1  2  1  0  0  0  0
  1 13  1  0  0  0  0
  2  7  1  0  0  0  0
  3  8  1  0  0  0  0
  3  2  2  0  0  0  0
  4  3  1  0  0  0  0
  5  4  2  0  0  0  0
  5  6  1  0  0  0  0
  6 22  1  0  0  0  0
  6  1  2  0  0  0  0
  9  4  1  0  0  0  0
 10  5  1  0  0  0  0
 11 17  1  0  0  0  0
 11 16  1  0  0  0  0
 12 11  2  0  0  0  0
 13 12  1  0  0  0  0
 13 14  2  0  0  0  0
 14 15  1  0  0  0  0
 15 16  2  0  0  0  0
 15 19  1  0  0  0  0
 18 12  1  0  0  0  0
 20 22  1  0  0  0  0
 20 24  1  0  0  0  0
 21 20  2  0  0  0  0
 22 23  1  0  0  0  0
 24 32  1  0  0  0  0
 24 25  1  0  0  0  0
 25 27  1  0  0  0  0
 26 25  1  0  0  0  0
 28 27  1  0  0  0  0
 29 30  1  0  0  0  0
 29 27  1  0  0  0  0
 31 30  1  0  0  0  0
 32 30  1  0  0  0  0
 32 33  1  0  0  0  0
M  END
>  <minimizedAffinity>
-5.90791225

>  <minimizedRMSD>
0.442275345

$$$$
