
 OpenBabel03242516533D

 46 49  0  0  1  0  0  0  0  0999 V2000
   47.8050   32.8390   41.6950 C   0  0  1  0  0  0  0  0  0  0  0  0
   47.4260   32.1510   40.4620 C   0  0  0  0  0  0  0  0  0  0  0  0
   48.4270   32.6000   39.4030 C   0  0  0  0  0  0  0  0  0  0  0  0
   48.1350   34.0630   39.1150 C   0  0  0  0  0  0  0  0  0  0  0  0
   48.1340   34.9400   40.3300 C   0  0  0  0  0  0  0  0  0  0  0  0
   47.6540   34.3610   41.5850 C   0  0  1  0  0  0  0  0  0  0  0  0
   48.9230   32.7240   41.8400 H   0  0  0  0  0  0  0  0  0  0  0  0
   46.3870   32.4080   40.1480 H   0  0  0  0  0  0  0  0  0  0  0  0
   47.4550   31.0700   40.6000 H   0  0  0  0  0  0  0  0  0  0  0  0
   49.4380   32.4650   39.8240 H   0  0  0  0  0  0  0  0  0  0  0  0
   48.2350   32.0480   38.4720 H   0  0  0  0  0  0  0  0  0  0  0  0
   47.1650   34.1100   38.5840 H   0  0  0  0  0  0  0  0  0  0  0  0
   48.9030   34.4040   38.3900 H   0  0  0  0  0  0  0  0  0  0  0  0
   49.1800   35.3310   40.4350 H   0  0  0  0  0  0  0  0  0  0  0  0
   47.5320   35.8460   40.0810 H   0  0  0  0  0  0  0  0  0  0  0  0
   48.2900   34.7620   42.4310 H   0  0  0  0  0  0  0  0  0  0  0  0
   45.4270   31.0270   44.0120 C   0  0  0  0  0  0  0  0  0  0  0  0
   46.0900   31.5150   42.8790 C   0  0  0  0  0  0  0  0  0  0  0  0
   47.1870   32.3790   42.9210 C   0  0  0  0  0  0  0  0  0  0  0  0
   47.5900   32.7300   44.1440 N   0  0  0  0  0  0  0  0  0  0  0  0
   46.9590   32.2660   45.2560 C   0  0  0  0  0  0  0  0  0  0  0  0
   45.9110   31.4410   45.2050 N   0  0  0  0  0  0  0  0  0  0  0  0
   44.5940   30.3670   43.8360 H   0  0  0  0  0  0  0  0  0  0  0  0
   45.7490   31.2190   41.8950 H   0  0  0  0  0  0  0  0  0  0  0  0
   47.3520   32.6020   46.2200 H   0  0  0  0  0  0  0  0  0  0  0  0
   46.2940   34.7900   41.9250 C   0  0  0  0  0  0  0  0  0  0  0  0
   45.9100   35.4860   43.0790 C   0  0  0  0  0  0  0  0  0  0  0  0
   44.5550   35.8020   43.1820 C   0  0  0  0  0  0  0  0  0  0  0  0
   43.7190   35.4110   42.1580 C   0  0  0  0  0  0  0  0  0  0  0  0
   44.1130   34.7220   41.0220 C   0  0  0  0  0  0  0  0  0  0  0  0
   45.4400   34.4200   40.9360 N   0  0  0  0  0  0  0  0  0  0  0  0
   46.6720   35.7100   43.7660 H   0  0  0  0  0  0  0  0  0  0  0  0
   44.2450   36.3300   44.0500 H   0  0  0  0  0  0  0  0  0  0  0  0
   42.6610   35.6630   42.2490 H   0  0  0  0  0  0  0  0  0  0  0  0
   43.1540   34.3570   39.9880 C   0  0  0  0  0  0  0  0  0  0  0  0
   42.7090   35.2720   39.2390 O   0  0  0  0  0  0  0  0  0  0  0  0
   42.6930   32.9380   39.8020 C   0  0  0  0  0  3  0  0  0  0  0  0
   42.3470   32.6820   38.3480 C   0  0  0  0  0  3  0  0  0  0  0  0
   42.9130   31.8210   37.9360 H   0  0  0  0  0  0  0  0  0  0  0  0
   40.8750   32.3740   38.1560 C   0  0  0  0  0  3  0  0  0  0  0  0
   40.7770   32.1270   37.0630 H   0  0  0  0  0  0  0  0  0  0  0  0
   40.4300   31.3100   38.9230 O   0  0  0  0  0  0  0  0  0  0  0  0
   40.9800   31.2880   40.1950 C   0  0  0  0  0  3  0  0  0  0  0  0
   40.3460   30.8000   40.9380 H   0  0  0  0  0  0  0  0  0  0  0  0
   41.4140   32.6870   40.5800 C   0  0  0  0  0  3  0  0  0  0  0  0
   41.5370   32.7640   41.6620 H   0  0  0  0  0  0  0  0  0  0  0  0
  1  7  1  1  0  0  0
  1 19  1  0  0  0  0
  2  9  1  0  0  0  0
  2  1  1  0  0  0  0
  3 10  1  0  0  0  0
  3  2  1  0  0  0  0
  4  3  1  0  0  0  0
  4  5  1  0  0  0  0
  5 14  1  0  0  0  0
  5  6  1  0  0  0  0
  6  1  1  0  0  0  0
  6 26  1  0  0  0  0
  6 16  1  1  0  0  0
  8  2  1  0  0  0  0
 11  3  1  0  0  0  0
 12  4  1  0  0  0  0
 13  4  1  0  0  0  0
 15  5  1  0  0  0  0
 17 22  1  0  0  0  0
 18 19  1  0  0  0  0
 18 17  2  0  0  0  0
 19 20  2  0  0  0  0
 20 21  1  0  0  0  0
 21 25  1  0  0  0  0
 22 21  2  0  0  0  0
 23 17  1  0  0  0  0
 24 18  1  0  0  0  0
 26 27  1  0  0  0  0
 27 28  2  0  0  0  0
 27 32  1  0  0  0  0
 28 33  1  0  0  0  0
 29 34  1  0  0  0  0
 29 28  1  0  0  0  0
 30 29  2  0  0  0  0
 31 30  1  0  0  0  0
 31 26  2  0  0  0  0
 35 30  1  0  0  0  0
 36 35  2  0  0  0  0
 37 35  1  0  0  0  0
 37 45  1  0  0  0  0
 38 37  1  0  0  0  0
 39 38  1  0  0  0  0
 40 38  1  0  0  0  0
 40 42  1  0  0  0  0
 41 40  1  0  0  0  0
 42 43  1  0  0  0  0
 43 45  1  0  0  0  0
 43 44  1  0  0  0  0
 45 46  1  0  0  0  0
M  END
>  <minimizedAffinity>
-5.47228241

>  <minimizedRMSD>
0.779066563

$$$$
