
 OpenBabel03252503353D

 23 24  0  0  0  0  0  0  0  0999 V2000
   45.7040   34.1780   41.3680 C   0  0  0  0  0  0  0  0  0  0  0  0
   44.8910   34.3750   40.3990 O   0  0  0  0  0  0  0  0  0  0  0  0
   46.9870   33.7500   40.9430 N   0  0  0  0  0  0  0  0  0  0  0  0
   47.7160   33.5750   41.6600 H   0  0  0  0  0  0  0  0  0  0  0  0
   45.3120   34.3830   42.7660 C   0  0  0  0  0  3  0  0  0  0  0  0
   45.4690   35.8220   43.2260 C   0  0  0  0  0  3  0  0  0  0  0  0
   46.5220   35.9850   43.4580 H   0  0  0  0  0  0  0  0  0  0  0  0
   44.6580   35.9360   44.5120 C   0  0  0  0  0  3  0  0  0  0  0  0
   43.5640   36.0470   44.2920 H   0  0  0  0  0  0  0  0  0  0  0  0
   44.7720   34.8220   45.3200 O   0  0  0  0  0  0  0  0  0  0  0  0
   45.9780   34.1840   45.1030 C   0  0  0  0  0  3  0  0  0  0  0  0
   46.1840   33.4110   45.8660 H   0  0  0  0  0  0  0  0  0  0  0  0
   46.0450   33.5100   43.7440 C   0  0  0  0  0  3  0  0  0  0  0  0
   47.1240   33.4130   43.5070 H   0  0  0  0  0  0  0  0  0  0  0  0
   47.2840   32.3070   37.5250 C   0  0  0  0  0  0  0  0  0  0  0  0
   46.9080   32.4140   38.8760 C   0  0  0  0  0  0  0  0  0  0  0  0
   47.3160   33.5510   39.5830 C   0  0  0  0  0  0  0  0  0  0  0  0
   48.0480   34.4930   38.9480 N   0  0  0  0  0  0  0  0  0  0  0  0
   48.4010   34.3650   37.6340 C   0  0  0  0  0  0  0  0  0  0  0  0
   48.0160   33.2770   36.9440 N   0  0  0  0  0  0  0  0  0  0  0  0
   46.9610   31.4150   36.9840 H   0  0  0  0  0  0  0  0  0  0  0  0
   46.3230   31.6550   39.3710 H   0  0  0  0  0  0  0  0  0  0  0  0
   48.9860   35.1040   37.1060 H   0  0  0  0  0  0  0  0  0  0  0  0
  1  5  1  0  0  0  0
  2  1  2  0  0  0  0
  3  1  1  0  0  0  0
  3  4  1  0  0  0  0
  5  6  1  0  0  0  0
  5 13  1  0  0  0  0
  6  7  1  0  0  0  0
  6  8  1  0  0  0  0
  8 10  1  0  0  0  0
  9  8  1  0  0  0  0
 11 10  1  0  0  0  0
 11 12  1  0  0  0  0
 13 11  1  0  0  0  0
 14 13  1  0  0  0  0
 15 16  1  0  0  0  0
 16 22  1  0  0  0  0
 16 17  2  0  0  0  0
 17  3  1  0  0  0  0
 18 17  1  0  0  0  0
 19 18  2  0  0  0  0
 20 15  2  0  0  0  0
 20 19  1  0  0  0  0
 21 15  1  0  0  0  0
 23 19  1  0  0  0  0
M  END
>  <minimizedAffinity>
-3.93489075

>  <minimizedRMSD>
6.24534607

$$$$
