
 OpenBabel03242523543D

 46 49  0  0  1  0  0  0  0  0999 V2000
   42.7680   34.2150   39.2920 C   0  0  1  0  0  0  0  0  0  0  0  0
   43.1050   35.1420   40.4520 C   0  0  1  0  0  0  0  0  0  0  0  0
   41.9020   35.7070   40.9240 O   0  0  0  0  0  0  0  0  0  0  0  0
   40.9990   35.9780   39.8920 C   0  0  0  0  0  0  0  0  0  0  0  0
   40.4410   34.7100   39.2790 C   0  0  2  0  0  0  0  0  0  0  0  0
   41.4610   33.5720   39.6300 C   0  0  1  0  0  0  0  0  0  0  0  0
   43.5680   33.4460   39.1690 H   0  0  0  0  0  0  0  0  0  0  0  0
   43.8450   35.9070   40.2050 H   0  0  0  0  0  0  0  0  0  0  0  0
   41.4210   36.6690   39.1230 H   0  0  0  0  0  0  0  0  0  0  0  0
   40.1880   36.5620   40.3750 H   0  0  0  0  0  0  0  0  0  0  0  0
   39.4510   34.4410   39.6840 H   0  0  0  0  0  0  0  0  0  0  0  0
   41.2500   33.5880   40.7460 H   0  0  0  0  0  0  0  0  0  0  0  0
   42.6720   34.9350   38.0930 O   0  0  0  0  0  0  0  0  0  0  0  0
   42.9120   34.3690   37.3220 H   0  0  0  0  0  0  0  0  0  0  0  0
   40.4570   34.8150   37.8980 O   0  0  0  0  0  0  0  0  0  0  0  0
   40.3560   33.9350   37.4530 H   0  0  0  0  0  0  0  0  0  0  0  0
   43.4990   34.2800   41.4970 O   0  0  0  0  0  0  0  0  0  0  0  0
   44.6860   34.3270   42.1100 C   0  0  0  0  0  0  0  0  0  0  0  0
   45.8720   34.5160   41.3850 C   0  0  0  0  0  0  0  0  0  0  0  0
   47.0700   34.5570   42.0750 C   0  0  0  0  0  0  0  0  0  0  0  0
   47.0680   34.4110   43.4530 N   0  0  0  0  0  0  0  0  0  0  0  0
   45.9050   34.2300   44.1180 C   0  0  0  0  0  0  0  0  0  0  0  0
   44.7230   34.1870   43.4540 N   0  0  0  0  0  0  0  0  0  0  0  0
   45.8610   34.6270   40.3190 H   0  0  0  0  0  0  0  0  0  0  0  0
   45.9210   34.1160   45.1960 H   0  0  0  0  0  0  0  0  0  0  0  0
   48.3770   34.7350   41.3670 C   0  0  0  0  0  0  0  0  0  0  0  0
   49.0880   36.0740   41.5610 C   0  0  0  0  0  0  0  0  0  0  0  0
   49.6110   34.7240   42.0850 C   0  0  0  0  0  0  0  0  0  0  0  0
   48.3260   34.3620   40.3110 H   0  0  0  0  0  0  0  0  0  0  0  0
   48.5810   36.7590   42.2560 H   0  0  0  0  0  0  0  0  0  0  0  0
   49.5410   36.4880   40.6630 H   0  0  0  0  0  0  0  0  0  0  0  0
   50.5250   34.4000   41.5880 H   0  0  0  0  0  0  0  0  0  0  0  0
   49.5770   34.6860   43.2050 H   0  0  0  0  0  0  0  0  0  0  0  0
   41.1170   32.4880   38.9110 O   0  0  0  0  0  0  0  0  0  0  0  0
   39.9730   31.7780   38.9290 C   0  0  0  0  0  0  0  0  0  0  0  0
   39.1210   31.8100   37.9370 O   0  0  0  0  0  0  0  0  0  0  0  0
   39.0490   30.8320   39.6060 C   0  0  0  0  0  3  0  0  0  0  0  0
   38.1340   31.5090   40.5850 C   0  0  0  0  0  3  0  0  0  0  0  0
   37.3450   32.1010   40.0780 H   0  0  0  0  0  0  0  0  0  0  0  0
   37.4600   30.3730   41.3330 C   0  0  0  0  0  3  0  0  0  0  0  0
   38.3070   29.7990   41.8050 H   0  0  0  0  0  0  0  0  0  0  0  0
   36.7170   29.6030   40.4680 O   0  0  0  0  0  0  0  0  0  0  0  0
   37.4710   29.0140   39.4680 C   0  0  0  0  0  3  0  0  0  0  0  0
   38.3100   28.4510   39.9530 H   0  0  0  0  0  0  0  0  0  0  0  0
   38.1660   30.0860   38.6340 C   0  0  0  0  0  3  0  0  0  0  0  0
   37.4310   30.7550   38.1480 H   0  0  0  0  0  0  0  0  0  0  0  0
  1  7  1  6  0  0  0
  1  6  1  0  0  0  0
  1  2  1  0  0  0  0
  2  8  1  6  0  0  0
  2  3  1  0  0  0  0
  2 17  1  0  0  0  0
  4 10  1  0  0  0  0
  4  3  1  0  0  0  0
  5  6  1  0  0  0  0
  5 11  1  1  0  0  0
  5  4  1  0  0  0  0
  6 12  1  1  0  0  0
  9  4  1  0  0  0  0
 13  1  1  0  0  0  0
 14 13  1  0  0  0  0
 15  5  1  0  0  0  0
 16 15  1  0  0  0  0
 17 18  1  0  0  0  0
 18 23  1  0  0  0  0
 19 20  1  0  0  0  0
 19 18  2  0  0  0  0
 20 21  2  0  0  0  0
 21 22  1  0  0  0  0
 22 25  1  0  0  0  0
 23 22  2  0  0  0  0
 24 19  1  0  0  0  0
 26 27  1  0  0  0  0
 26 20  1  0  0  0  0
 26 28  1  0  0  0  0
 27 28  1  0  0  0  0
 27 30  1  0  0  0  0
 28 33  1  0  0  0  0
 29 26  1  0  0  0  0
 31 27  1  0  0  0  0
 32 28  1  0  0  0  0
 34 35  1  0  0  0  0
 34  6  1  0  0  0  0
 35 37  1  0  0  0  0
 36 35  2  0  0  0  0
 37 38  1  0  0  0  0
 38 40  1  0  0  0  0
 39 38  1  0  0  0  0
 40 41  1  0  0  0  0
 42 40  1  0  0  0  0
 43 44  1  0  0  0  0
 43 42  1  0  0  0  0
 45 43  1  0  0  0  0
 45 37  1  0  0  0  0
 46 45  1  0  0  0  0
M  END
>  <minimizedAffinity>
-6.32509613

>  <minimizedRMSD>
1.73274612

$$$$
