
 OpenBabel03242521173D

 39 41  0  0  0  0  0  0  0  0999 V2000
   46.4420   32.9070   46.5310 C   0  0  0  0  0  0  0  0  0  0  0  0
   47.0980   32.1830   46.0380 H   0  0  0  0  0  0  0  0  0  0  0  0
   47.0900   33.4870   47.2470 H   0  0  0  0  0  0  0  0  0  0  0  0
   44.5220   35.6390   44.8400 C   0  0  0  0  0  0  0  0  0  0  0  0
   45.1180   35.6100   43.5670 C   0  0  0  0  0  0  0  0  0  0  0  0
   46.1220   34.6750   43.3670 C   0  0  0  0  0  0  0  0  0  0  0  0
   46.4830   33.8340   44.4030 N   0  0  0  0  0  0  0  0  0  0  0  0
   45.8770   33.9110   45.5920 C   0  0  0  0  0  0  0  0  0  0  0  0
   44.8850   34.8130   45.8400 N   0  0  0  0  0  0  0  0  0  0  0  0
   43.7270   36.3590   45.0410 H   0  0  0  0  0  0  0  0  0  0  0  0
   44.7970   36.2860   42.8000 H   0  0  0  0  0  0  0  0  0  0  0  0
   46.7470   34.6220   42.0820 N   0  0  0  0  0  0  0  0  0  0  0  0
   47.9380   35.2140   41.9240 C   0  0  0  0  0  0  0  0  0  0  0  0
   48.5550   35.1710   40.6870 C   0  0  0  0  0  0  0  0  0  0  0  0
   47.9150   34.5220   39.6780 C   0  0  0  0  0  0  0  0  0  0  0  0
   48.4890   34.4850   38.5340 O   0  0  0  0  0  0  0  0  0  0  0  0
   46.7140   33.9170   39.8120 N   0  0  0  0  0  0  0  0  0  0  0  0
   46.1730   33.9980   41.0420 C   0  0  0  0  0  0  0  0  0  0  0  0
   45.0560   33.4690   41.2830 O   0  0  0  0  0  0  0  0  0  0  0  0
   48.4580   35.7360   42.7260 H   0  0  0  0  0  0  0  0  0  0  0  0
   49.5180   35.6390   40.5200 H   0  0  0  0  0  0  0  0  0  0  0  0
   46.2330   33.4210   39.0280 H   0  0  0  0  0  0  0  0  0  0  0  0
   45.3570   32.2650   47.3570 C   0  0  0  0  0  0  0  0  0  0  0  0
   44.4040   32.7740   47.1290 H   0  0  0  0  0  0  0  0  0  0  0  0
   45.5330   32.3690   48.4420 H   0  0  0  0  0  0  0  0  0  0  0  0
   45.1240   29.8820   47.9090 C   0  0  0  0  0  0  0  0  0  0  0  0
   45.1540   30.2670   49.1090 O   0  0  0  0  0  0  0  0  0  0  0  0
   45.2130   30.8790   46.9350 N   0  0  0  0  0  0  0  0  0  0  0  0
   45.1800   30.6660   45.9230 H   0  0  0  0  0  0  0  0  0  0  0  0
   45.0000   28.4400   47.5640 C   0  0  0  0  0  3  0  0  0  0  0  0
   46.2740   27.8930   46.9530 C   0  0  0  0  0  3  0  0  0  0  0  0
   47.0310   27.7730   47.7710 H   0  0  0  0  0  0  0  0  0  0  0  0
   45.9540   26.4790   46.4860 C   0  0  0  0  0  3  0  0  0  0  0  0
   46.7750   26.0320   45.9160 H   0  0  0  0  0  0  0  0  0  0  0  0
   45.7150   25.7420   47.6640 O   0  0  0  0  0  0  0  0  0  0  0  0
   44.5380   26.1600   48.2480 C   0  0  0  0  0  3  0  0  0  0  0  0
   44.3620   25.5220   49.1430 H   0  0  0  0  0  0  0  0  0  0  0  0
   44.5970   27.5860   48.7340 C   0  0  0  0  0  3  0  0  0  0  0  0
   45.2180   27.6800   49.6230 H   0  0  0  0  0  0  0  0  0  0  0  0
  1  3  1  0  0  0  0
  1 23  1  0  0  0  0
  2  1  1  0  0  0  0
  4 10  1  0  0  0  0
  4  9  1  0  0  0  0
  5  4  2  0  0  0  0
  6  5  1  0  0  0  0
  6  7  2  0  0  0  0
  7  8  1  0  0  0  0
  8  9  2  0  0  0  0
  8  1  1  0  0  0  0
 11  5  1  0  0  0  0
 12  6  1  0  0  0  0
 13 12  1  0  0  0  0
 13 20  1  0  0  0  0
 14 13  2  0  0  0  0
 15 17  1  0  0  0  0
 15 14  1  0  0  0  0
 16 15  2  0  0  0  0
 17 18  1  0  0  0  0
 18 19  2  0  0  0  0
 18 12  1  0  0  0  0
 21 14  1  0  0  0  0
 22 17  1  0  0  0  0
 23 25  1  0  0  0  0
 24 23  1  0  0  0  0
 26 27  2  0  0  0  0
 28 23  1  0  0  0  0
 28 26  1  0  0  0  0
 29 28  1  0  0  0  0
 30 26  1  0  0  0  0
 30 38  1  0  0  0  0
 31 30  1  0  0  0  0
 31 32  1  0  0  0  0
 33 31  1  0  0  0  0
 33 35  1  0  0  0  0
 34 33  1  0  0  0  0
 35 36  1  0  0  0  0
 36 38  1  0  0  0  0
 36 37  1  0  0  0  0
 38 39  1  0  0  0  0
M  END
>  <minimizedAffinity>
-6.14358473

>  <minimizedRMSD>
1.56585968

$$$$
