
 OpenBabel03252503353D

 23 24  0  0  0  0  0  0  0  0999 V2000
   47.1370   33.2970   42.0330 C   0  0  0  0  0  0  0  0  0  0  0  0
   46.2470   32.8330   41.2380 O   0  0  0  0  0  0  0  0  0  0  0  0
   48.3440   33.6490   41.3780 N   0  0  0  0  0  0  0  0  0  0  0  0
   49.1190   34.0440   41.9420 H   0  0  0  0  0  0  0  0  0  0  0  0
   46.8950   33.4360   43.4730 C   0  0  0  0  0  3  0  0  0  0  0  0
   46.4340   32.1450   44.1280 C   0  0  0  0  0  3  0  0  0  0  0  0
   45.3710   32.0270   43.9220 H   0  0  0  0  0  0  0  0  0  0  0  0
   46.6260   32.3520   45.6270 C   0  0  0  0  0  3  0  0  0  0  0  0
   47.6980   32.2060   45.9220 H   0  0  0  0  0  0  0  0  0  0  0  0
   46.2870   33.6240   46.0420 O   0  0  0  0  0  0  0  0  0  0  0  0
   45.3410   34.1750   45.1990 C   0  0  0  0  0  3  0  0  0  0  0  0
   44.9070   35.1050   45.6120 H   0  0  0  0  0  0  0  0  0  0  0  0
   45.9030   34.5060   43.8280 C   0  0  0  0  0  3  0  0  0  0  0  0
   45.0320   34.5280   43.1410 H   0  0  0  0  0  0  0  0  0  0  0  0
   49.2520   32.2530   38.0500 C   0  0  0  0  0  0  0  0  0  0  0  0
   49.1030   32.3240   39.4460 C   0  0  0  0  0  0  0  0  0  0  0  0
   48.5360   33.4840   39.9880 C   0  0  0  0  0  0  0  0  0  0  0  0
   48.1590   34.4810   39.1570 N   0  0  0  0  0  0  0  0  0  0  0  0
   48.3160   34.3880   37.8030 C   0  0  0  0  0  0  0  0  0  0  0  0
   48.8590   33.2790   37.2700 N   0  0  0  0  0  0  0  0  0  0  0  0
   49.6960   31.3430   37.6390 H   0  0  0  0  0  0  0  0  0  0  0  0
   49.4080   31.5210   40.0980 H   0  0  0  0  0  0  0  0  0  0  0  0
   48.0220   35.1710   37.1200 H   0  0  0  0  0  0  0  0  0  0  0  0
  1  5  1  0  0  0  0
  2  1  2  0  0  0  0
  3  4  1  0  0  0  0
  3  1  1  0  0  0  0
  5 13  1  0  0  0  0
  5  6  1  0  0  0  0
  6  8  1  0  0  0  0
  7  6  1  0  0  0  0
  8  9  1  0  0  0  0
  8 10  1  0  0  0  0
 11 12  1  0  0  0  0
 11 10  1  0  0  0  0
 13 11  1  0  0  0  0
 14 13  1  0  0  0  0
 15 16  1  0  0  0  0
 16 17  2  0  0  0  0
 16 22  1  0  0  0  0
 17  3  1  0  0  0  0
 18 17  1  0  0  0  0
 19 18  2  0  0  0  0
 20 19  1  0  0  0  0
 20 15  2  0  0  0  0
 21 15  1  0  0  0  0
 23 19  1  0  0  0  0
M  END
>  <minimizedAffinity>
-3.59934831

>  <minimizedRMSD>
6.5265131

$$$$
