
 OpenBabel03242515023D

 38 40  0  0  0  0  0  0  0  0999 V2000
   36.5750   29.9970   39.5440 C   0  0  0  0  0  0  0  0  0  0  0  0
   36.7530   29.6520   38.1990 C   0  0  0  0  0  0  0  0  0  0  0  0
   37.2110   30.6420   37.3220 C   0  0  0  0  0  0  0  0  0  0  0  0
   37.4560   31.8720   37.8280 N   0  0  0  0  0  0  0  0  0  0  0  0
   37.2780   32.1830   39.1290 C   0  0  0  0  0  0  0  0  0  0  0  0
   36.8420   31.2370   39.9530 N   0  0  0  0  0  0  0  0  0  0  0  0
   36.5370   28.6440   37.8600 H   0  0  0  0  0  0  0  0  0  0  0  0
   37.3600   30.4060   36.2660 H   0  0  0  0  0  0  0  0  0  0  0  0
   37.5740   33.5360   39.5530 C   0  0  0  0  0  0  0  0  0  0  0  0
   36.7780   34.4290   39.1510 O   0  0  0  0  0  0  0  0  0  0  0  0
   38.7460   33.8680   40.4120 C   0  0  0  0  0  3  0  0  0  0  0  0
   39.9560   33.1170   39.8670 C   0  0  0  0  0  3  0  0  0  0  0  0
   40.0300   33.2850   38.7840 H   0  0  0  0  0  0  0  0  0  0  0  0
   41.2070   33.4290   40.6090 C   0  0  0  0  0  3  0  0  0  0  0  0
   42.0560   33.0540   39.9670 H   0  0  0  0  0  0  0  0  0  0  0  0
   41.3700   34.7850   40.7510 O   0  0  0  0  0  0  0  0  0  0  0  0
   40.4970   35.5500   39.9950 C   0  0  0  0  0  3  0  0  0  0  0  0
   40.5360   35.3600   38.9110 H   0  0  0  0  0  0  0  0  0  0  0  0
   39.0550   35.3310   40.4210 C   0  0  0  0  0  3  0  0  0  0  0  0
   38.4130   35.9350   39.7480 H   0  0  0  0  0  0  0  0  0  0  0  0
   35.9840   28.6890   40.6280 S   0  0  0  0  0  0  0  0  0  0  0  0
   36.7510   28.7340   42.2460 C   0  0  0  0  0  0  0  0  0  0  0  0
   37.7730   29.1120   42.1780 H   0  0  0  0  0  0  0  0  0  0  0  0
   36.1560   29.4400   42.8900 H   0  0  0  0  0  0  0  0  0  0  0  0
   36.7370   27.4100   42.9500 C   0  0  0  0  0  0  0  0  0  0  0  0
   36.2580   27.4890   43.9620 H   0  0  0  0  0  0  0  0  0  0  0  0
   36.0800   26.7120   42.3700 H   0  0  0  0  0  0  0  0  0  0  0  0
   37.0420   24.5260   41.9820 Cl  0  0  0  0  0  0  0  0  0  0  0  0
   38.3400   25.5020   42.5760 C   0  0  0  0  0  0  0  0  0  0  0  0
   38.0910   26.8250   43.0000 C   0  0  0  0  0  0  0  0  0  0  0  0
   39.1800   27.5310   43.4580 C   0  0  0  0  0  0  0  0  0  0  0  0
   40.4940   27.0810   43.5480 C   0  0  0  0  0  0  0  0  0  0  0  0
   40.7110   25.7850   43.1270 C   0  0  0  0  0  0  0  0  0  0  0  0
   42.3410   25.1250   43.2030 Cl  0  0  0  0  0  0  0  0  0  0  0  0
   39.6520   25.0210   42.6540 C   0  0  0  0  0  0  0  0  0  0  0  0
   38.9900   28.5450   43.7820 H   0  0  0  0  0  0  0  0  0  0  0  0
   41.2650   27.7270   43.9240 H   0  0  0  0  0  0  0  0  0  0  0  0
   39.8740   24.0030   42.3340 H   0  0  0  0  0  0  0  0  0  0  0  0
  1  6  1  0  0  0  0
  1 21  1  0  0  0  0
  2  1  2  0  0  0  0
  3  4  2  0  0  0  0
  3  2  1  0  0  0  0
  4  5  1  0  0  0  0
  5  9  1  0  0  0  0
  5  6  2  0  0  0  0
  7  2  1  0  0  0  0
  8  3  1  0  0  0  0
  9 11  1  0  0  0  0
 10  9  2  0  0  0  0
 11 19  1  0  0  0  0
 12 11  1  0  0  0  0
 12 14  1  0  0  0  0
 13 12  1  0  0  0  0
 14 16  1  0  0  0  0
 15 14  1  0  0  0  0
 17 19  1  0  0  0  0
 17 16  1  0  0  0  0
 18 17  1  0  0  0  0
 20 19  1  0  0  0  0
 21 22  1  0  0  0  0
 22 24  1  0  0  0  0
 22 25  1  0  0  0  0
 23 22  1  0  0  0  0
 25 30  1  0  0  0  0
 25 26  1  0  0  0  0
 27 25  1  0  0  0  0
 28 29  1  0  0  0  0
 29 35  2  0  0  0  0
 29 30  1  0  0  0  0
 30 31  2  0  0  0  0
 31 32  1  0  0  0  0
 31 36  1  0  0  0  0
 32 37  1  0  0  0  0
 33 34  1  0  0  0  0
 33 32  2  0  0  0  0
 35 33  1  0  0  0  0
 38 35  1  0  0  0  0
M  END
>  <minimizedAffinity>
-6.31783628

$$$$

 OpenBabel03242515023D

 38 40  0  0  0  0  0  0  0  0999 V2000
   36.6700   30.1280   40.1220 C   0  0  0  0  0  0  0  0  0  0  0  0
   36.6640   29.6650   38.8010 C   0  0  0  0  0  0  0  0  0  0  0  0
   36.9880   30.5730   37.7860 C   0  0  0  0  0  0  0  0  0  0  0  0
   37.2890   31.8410   38.1430 N   0  0  0  0  0  0  0  0  0  0  0  0
   37.2900   32.2670   39.4230 C   0  0  0  0  0  0  0  0  0  0  0  0
   36.9800   31.3990   40.3800 N   0  0  0  0  0  0  0  0  0  0  0  0
   36.4120   28.6320   38.5850 H   0  0  0  0  0  0  0  0  0  0  0  0
   36.9920   30.2430   36.7450 H   0  0  0  0  0  0  0  0  0  0  0  0
   37.6300   33.6510   39.6820 C   0  0  0  0  0  0  0  0  0  0  0  0
   36.8380   34.5130   39.2080 O   0  0  0  0  0  0  0  0  0  0  0  0
   38.8390   34.0470   40.4570 C   0  0  0  0  0  3  0  0  0  0  0  0
   40.0340   33.2980   39.8800 C   0  0  0  0  0  3  0  0  0  0  0  0
   40.0450   33.4150   38.7880 H   0  0  0  0  0  0  0  0  0  0  0  0
   41.3170   33.6700   40.5360 C   0  0  0  0  0  3  0  0  0  0  0  0
   42.1380   33.2840   39.8650 H   0  0  0  0  0  0  0  0  0  0  0  0
   41.4550   35.0340   40.6070 O   0  0  0  0  0  0  0  0  0  0  0  0
   40.5250   35.7440   39.8660 C   0  0  0  0  0  3  0  0  0  0  0  0
   40.5080   35.5050   38.7920 H   0  0  0  0  0  0  0  0  0  0  0  0
   39.1130   35.5150   40.3820 C   0  0  0  0  0  3  0  0  0  0  0  0
   38.4210   36.0740   39.7190 H   0  0  0  0  0  0  0  0  0  0  0  0
   36.2450   28.9240   41.3890 S   0  0  0  0  0  0  0  0  0  0  0  0
   37.5410   28.7190   42.6090 C   0  0  0  0  0  0  0  0  0  0  0  0
   38.5190   28.6660   42.1280 H   0  0  0  0  0  0  0  0  0  0  0  0
   37.5270   29.6230   43.2810 H   0  0  0  0  0  0  0  0  0  0  0  0
   37.3380   27.5300   43.5000 C   0  0  0  0  0  0  0  0  0  0  0  0
   37.9140   27.6330   44.4580 H   0  0  0  0  0  0  0  0  0  0  0  0
   36.2620   27.5030   43.8080 H   0  0  0  0  0  0  0  0  0  0  0  0
   40.2440   26.5790   43.5190 Cl  0  0  0  0  0  0  0  0  0  0  0  0
   38.9470   25.7500   42.7300 C   0  0  0  0  0  0  0  0  0  0  0  0
   37.6380   26.2760   42.7820 C   0  0  0  0  0  0  0  0  0  0  0  0
   36.6670   25.5540   42.1270 C   0  0  0  0  0  0  0  0  0  0  0  0
   36.8370   24.3660   41.4230 C   0  0  0  0  0  0  0  0  0  0  0  0
   38.1260   23.8730   41.3870 C   0  0  0  0  0  0  0  0  0  0  0  0
   38.4410   22.3740   40.5190 Cl  0  0  0  0  0  0  0  0  0  0  0  0
   39.1500   24.5560   42.0290 C   0  0  0  0  0  0  0  0  0  0  0  0
   35.6640   25.9560   42.1680 H   0  0  0  0  0  0  0  0  0  0  0  0
   35.9990   23.8900   40.9500 H   0  0  0  0  0  0  0  0  0  0  0  0
   40.1500   24.1270   41.9710 H   0  0  0  0  0  0  0  0  0  0  0  0
  1  6  1  0  0  0  0
  1 21  1  0  0  0  0
  2  1  2  0  0  0  0
  3  4  2  0  0  0  0
  3  2  1  0  0  0  0
  4  5  1  0  0  0  0
  5  9  1  0  0  0  0
  5  6  2  0  0  0  0
  7  2  1  0  0  0  0
  8  3  1  0  0  0  0
  9 11  1  0  0  0  0
 10  9  2  0  0  0  0
 12 11  1  0  0  0  0
 12 14  1  0  0  0  0
 13 12  1  0  0  0  0
 14 16  1  0  0  0  0
 15 14  1  0  0  0  0
 17 19  1  0  0  0  0
 17 16  1  0  0  0  0
 18 17  1  0  0  0  0
 19 11  1  0  0  0  0
 20 19  1  0  0  0  0
 21 22  1  0  0  0  0
 22 24  1  0  0  0  0
 22 25  1  0  0  0  0
 23 22  1  0  0  0  0
 25 27  1  0  0  0  0
 25 26  1  0  0  0  0
 29 30  1  0  0  0  0
 29 28  1  0  0  0  0
 30 25  1  0  0  0  0
 31 36  1  0  0  0  0
 31 30  2  0  0  0  0
 32 31  1  0  0  0  0
 33 32  2  0  0  0  0
 33 35  1  0  0  0  0
 34 33  1  0  0  0  0
 35 29  2  0  0  0  0
 37 32  1  0  0  0  0
 38 35  1  0  0  0  0
M  END
>  <minimizedAffinity>
-6.23255301

$$$$

 OpenBabel03242515023D

 38 40  0  0  0  0  0  0  0  0999 V2000
   38.3450   32.9460   40.2890 C   0  0  0  0  0  0  0  0  0  0  0  0
   37.9500   34.2660   40.0480 C   0  0  0  0  0  0  0  0  0  0  0  0
   38.9290   35.2650   40.1060 C   0  0  0  0  0  0  0  0  0  0  0  0
   40.1970   34.8940   40.3910 N   0  0  0  0  0  0  0  0  0  0  0  0
   40.5570   33.6140   40.6200 C   0  0  0  0  0  0  0  0  0  0  0  0
   39.6210   32.6730   40.5640 N   0  0  0  0  0  0  0  0  0  0  0  0
   36.9130   34.4950   39.8240 H   0  0  0  0  0  0  0  0  0  0  0  0
   38.6530   36.3060   39.9230 H   0  0  0  0  0  0  0  0  0  0  0  0
   41.9480   33.3380   40.9160 C   0  0  0  0  0  0  0  0  0  0  0  0
   42.2250   32.1420   41.2050 O   0  0  0  0  0  0  0  0  0  0  0  0
   42.9980   34.3960   40.8870 C   0  0  0  0  0  3  0  0  0  0  0  0
   43.4800   34.6200   42.3150 C   0  0  0  0  0  3  0  0  0  0  0  0
   43.7180   33.6510   42.7740 H   0  0  0  0  0  0  0  0  0  0  0  0
   44.5850   35.6120   42.3990 C   0  0  0  0  0  3  0  0  0  0  0  0
   45.0390   35.4920   43.4260 H   0  0  0  0  0  0  0  0  0  0  0  0
   45.5680   35.3320   41.4820 O   0  0  0  0  0  0  0  0  0  0  0  0
   45.4430   34.0980   40.8660 C   0  0  0  0  0  3  0  0  0  0  0  0
   45.4260   33.2380   41.5520 H   0  0  0  0  0  0  0  0  0  0  0  0
   44.1700   34.0170   40.0400 C   0  0  0  0  0  3  0  0  0  0  0  0
   44.1120   32.9940   39.6150 H   0  0  0  0  0  0  0  0  0  0  0  0
   37.0500   31.7000   40.2030 S   0  0  0  0  0  0  0  0  0  0  0  0
   37.5310   30.1510   40.9630 C   0  0  0  0  0  0  0  0  0  0  0  0
   38.1240   29.5500   40.2720 H   0  0  0  0  0  0  0  0  0  0  0  0
   38.1690   30.3900   41.8590 H   0  0  0  0  0  0  0  0  0  0  0  0
   36.3700   29.3520   41.4750 C   0  0  0  0  0  0  0  0  0  0  0  0
   36.0580   29.6900   42.4990 H   0  0  0  0  0  0  0  0  0  0  0  0
   35.4860   29.5580   40.8180 H   0  0  0  0  0  0  0  0  0  0  0  0
   37.0080   27.9430   44.1130 Cl  0  0  0  0  0  0  0  0  0  0  0  0
   36.9620   27.1610   42.5700 C   0  0  0  0  0  0  0  0  0  0  0  0
   36.6560   27.9050   41.4110 C   0  0  0  0  0  0  0  0  0  0  0  0
   36.6420   27.2050   40.2260 C   0  0  0  0  0  0  0  0  0  0  0  0
   36.8950   25.8480   40.0510 C   0  0  0  0  0  0  0  0  0  0  0  0
   37.1920   25.1430   41.2000 C   0  0  0  0  0  0  0  0  0  0  0  0
   37.5270   23.4190   41.0790 Cl  0  0  0  0  0  0  0  0  0  0  0  0
   37.2220   25.7930   42.4260 C   0  0  0  0  0  0  0  0  0  0  0  0
   36.4070   27.7750   39.3370 H   0  0  0  0  0  0  0  0  0  0  0  0
   36.8540   25.4090   39.0710 H   0  0  0  0  0  0  0  0  0  0  0  0
   37.4620   25.1930   43.3040 H   0  0  0  0  0  0  0  0  0  0  0  0
  1  6  1  0  0  0  0
  2  3  1  0  0  0  0
  2  1  2  0  0  0  0
  3  4  2  0  0  0  0
  4  5  1  0  0  0  0
  5  9  1  0  0  0  0
  6  5  2  0  0  0  0
  7  2  1  0  0  0  0
  8  3  1  0  0  0  0
  9 10  2  0  0  0  0
 11  9  1  0  0  0  0
 11 12  1  0  0  0  0
 12 14  1  0  0  0  0
 12 13  1  0  0  0  0
 14 15  1  0  0  0  0
 16 14  1  0  0  0  0
 17 16  1  0  0  0  0
 17 18  1  0  0  0  0
 19 17  1  0  0  0  0
 19 11  1  0  0  0  0
 20 19  1  0  0  0  0
 21  1  1  0  0  0  0
 21 22  1  0  0  0  0
 22 25  1  0  0  0  0
 22 24  1  0  0  0  0
 23 22  1  0  0  0  0
 25 26  1  0  0  0  0
 27 25  1  0  0  0  0
 29 28  1  0  0  0  0
 30 25  1  0  0  0  0
 30 29  2  0  0  0  0
 31 30  1  0  0  0  0
 32 31  2  0  0  0  0
 32 33  1  0  0  0  0
 33 35  2  0  0  0  0
 34 33  1  0  0  0  0
 35 29  1  0  0  0  0
 35 38  1  0  0  0  0
 36 31  1  0  0  0  0
 37 32  1  0  0  0  0
M  END
>  <minimizedAffinity>
-6.01180077

$$$$

 OpenBabel03242515023D

 38 40  0  0  0  0  0  0  0  0999 V2000
   38.6890   31.4770   41.2720 C   0  0  0  0  0  0  0  0  0  0  0  0
   37.4530   31.4820   40.6160 C   0  0  0  0  0  0  0  0  0  0  0  0
   37.1350   32.5910   39.8230 C   0  0  0  0  0  0  0  0  0  0  0  0
   38.0420   33.5890   39.7360 N   0  0  0  0  0  0  0  0  0  0  0  0
   39.2300   33.5640   40.3760 C   0  0  0  0  0  0  0  0  0  0  0  0
   39.5220   32.5080   41.1280 N   0  0  0  0  0  0  0  0  0  0  0  0
   36.7700   30.6460   40.7300 H   0  0  0  0  0  0  0  0  0  0  0  0
   36.1770   32.6250   39.2980 H   0  0  0  0  0  0  0  0  0  0  0  0
   40.1210   34.6930   40.2070 C   0  0  0  0  0  0  0  0  0  0  0  0
   39.7380   35.7810   40.7210 O   0  0  0  0  0  0  0  0  0  0  0  0
   41.4130   34.5910   39.4710 C   0  0  0  0  0  3  0  0  0  0  0  0
   42.4920   34.1910   40.4700 C   0  0  0  0  0  3  0  0  0  0  0  0
   42.1460   33.3280   41.0530 H   0  0  0  0  0  0  0  0  0  0  0  0
   43.8210   33.9910   39.8300 C   0  0  0  0  0  3  0  0  0  0  0  0
   44.4540   33.4410   40.5850 H   0  0  0  0  0  0  0  0  0  0  0  0
   43.7160   33.1870   38.7220 O   0  0  0  0  0  0  0  0  0  0  0  0
   42.4880   32.5610   38.5810 C   0  0  0  0  0  3  0  0  0  0  0  0
   42.1890   31.9310   39.4320 H   0  0  0  0  0  0  0  0  0  0  0  0
   41.3710   33.5710   38.3780 C   0  0  0  0  0  3  0  0  0  0  0  0
   40.4180   33.0080   38.3180 H   0  0  0  0  0  0  0  0  0  0  0  0
   39.0490   30.0310   42.2790 S   0  0  0  0  0  0  0  0  0  0  0  0
   37.5720   29.1360   42.7530 C   0  0  0  0  0  0  0  0  0  0  0  0
   36.8270   29.8140   43.1720 H   0  0  0  0  0  0  0  0  0  0  0  0
   37.1400   28.6670   41.8250 H   0  0  0  0  0  0  0  0  0  0  0  0
   37.8370   28.0090   43.7080 C   0  0  0  0  0  0  0  0  0  0  0  0
   38.7020   28.2400   44.3850 H   0  0  0  0  0  0  0  0  0  0  0  0
   36.9530   27.9100   44.3870 H   0  0  0  0  0  0  0  0  0  0  0  0
   40.5030   26.5500   44.0470 Cl  0  0  0  0  0  0  0  0  0  0  0  0
   39.1920   25.9810   43.0730 C   0  0  0  0  0  0  0  0  0  0  0  0
   38.0010   26.7330   42.9840 C   0  0  0  0  0  0  0  0  0  0  0  0
   37.0090   26.2080   42.1870 C   0  0  0  0  0  0  0  0  0  0  0  0
   37.0550   25.0200   41.4640 C   0  0  0  0  0  0  0  0  0  0  0  0
   38.2300   24.3040   41.5680 C   0  0  0  0  0  0  0  0  0  0  0  0
   38.3840   22.7860   40.6880 Cl  0  0  0  0  0  0  0  0  0  0  0  0
   39.2690   24.7810   42.3560 C   0  0  0  0  0  0  0  0  0  0  0  0
   36.0960   26.7840   42.1190 H   0  0  0  0  0  0  0  0  0  0  0  0
   36.2130   24.7100   40.8730 H   0  0  0  0  0  0  0  0  0  0  0  0
   40.1760   24.1800   42.4060 H   0  0  0  0  0  0  0  0  0  0  0  0
  1 21  1  0  0  0  0
  2  7  1  0  0  0  0
  2  1  2  0  0  0  0
  3  2  1  0  0  0  0
  4  3  2  0  0  0  0
  4  5  1  0  0  0  0
  5  6  2  0  0  0  0
  6  1  1  0  0  0  0
  8  3  1  0  0  0  0
  9  5  1  0  0  0  0
  9 10  2  0  0  0  0
 11  9  1  0  0  0  0
 11 12  1  0  0  0  0
 12 13  1  0  0  0  0
 14 12  1  0  0  0  0
 14 15  1  0  0  0  0
 16 14  1  0  0  0  0
 17 16  1  0  0  0  0
 17 18  1  0  0  0  0
 19 17  1  0  0  0  0
 19 11  1  0  0  0  0
 20 19  1  0  0  0  0
 21 22  1  0  0  0  0
 22 23  1  0  0  0  0
 22 25  1  0  0  0  0
 24 22  1  0  0  0  0
 25 26  1  0  0  0  0
 25 27  1  0  0  0  0
 29 28  1  0  0  0  0
 30 29  1  0  0  0  0
 30 25  1  0  0  0  0
 31 30  2  0  0  0  0
 32 33  2  0  0  0  0
 32 31  1  0  0  0  0
 33 35  1  0  0  0  0
 34 33  1  0  0  0  0
 35 38  1  0  0  0  0
 35 29  2  0  0  0  0
 36 31  1  0  0  0  0
 37 32  1  0  0  0  0
M  END
>  <minimizedAffinity>
-5.98097372

$$$$

 OpenBabel03242515023D

 38 40  0  0  0  0  0  0  0  0999 V2000
   36.3620   30.0770   39.7520 C   0  0  0  0  0  0  0  0  0  0  0  0
   36.5630   29.6480   38.4350 C   0  0  0  0  0  0  0  0  0  0  0  0
   37.1280   30.5530   37.5290 C   0  0  0  0  0  0  0  0  0  0  0  0
   37.4470   31.7870   37.9820 N   0  0  0  0  0  0  0  0  0  0  0  0
   37.2450   32.1800   39.2570 C   0  0  0  0  0  0  0  0  0  0  0  0
   36.7070   31.3140   40.1090 N   0  0  0  0  0  0  0  0  0  0  0  0
   36.2840   28.6420   38.1380 H   0  0  0  0  0  0  0  0  0  0  0  0
   37.2980   30.2500   36.4940 H   0  0  0  0  0  0  0  0  0  0  0  0
   37.6270   33.5280   39.6240 C   0  0  0  0  0  0  0  0  0  0  0  0
   36.8560   34.4470   39.2330 O   0  0  0  0  0  0  0  0  0  0  0  0
   38.8550   33.8250   40.4150 C   0  0  0  0  0  3  0  0  0  0  0  0
   40.0470   33.2320   39.6730 C   0  0  0  0  0  3  0  0  0  0  0  0
   40.0090   33.5410   38.6190 H   0  0  0  0  0  0  0  0  0  0  0  0
   41.3440   33.5300   40.3390 C   0  0  0  0  0  3  0  0  0  0  0  0
   42.1480   33.2970   39.5820 H   0  0  0  0  0  0  0  0  0  0  0  0
   41.4440   34.8640   40.6460 O   0  0  0  0  0  0  0  0  0  0  0  0
   40.4640   35.6590   40.0760 C   0  0  0  0  0  3  0  0  0  0  0  0
   40.4100   35.6120   38.9780 H   0  0  0  0  0  0  0  0  0  0  0  0
   39.0820   35.2920   40.5910 C   0  0  0  0  0  3  0  0  0  0  0  0
   38.3470   35.9330   40.0630 H   0  0  0  0  0  0  0  0  0  0  0  0
   35.6320   28.8760   40.8750 S   0  0  0  0  0  0  0  0  0  0  0  0
   36.8600   27.8590   41.6910 C   0  0  0  0  0  0  0  0  0  0  0  0
   36.4850   26.8460   41.8400 H   0  0  0  0  0  0  0  0  0  0  0  0
   37.7630   27.8060   41.0220 H   0  0  0  0  0  0  0  0  0  0  0  0
   37.3360   28.4290   42.9950 C   0  0  0  0  0  0  0  0  0  0  0  0
   36.6510   29.2370   43.3640 H   0  0  0  0  0  0  0  0  0  0  0  0
   37.2820   27.6230   43.7700 H   0  0  0  0  0  0  0  0  0  0  0  0
   39.4940   26.3430   43.5790 Cl  0  0  0  0  0  0  0  0  0  0  0  0
   39.8130   27.9870   43.1440 C   0  0  0  0  0  0  0  0  0  0  0  0
   38.7410   28.8710   42.8940 C   0  0  0  0  0  0  0  0  0  0  0  0
   39.0840   30.1590   42.5540 C   0  0  0  0  0  0  0  0  0  0  0  0
   40.3690   30.6810   42.4300 C   0  0  0  0  0  0  0  0  0  0  0  0
   41.3980   29.7960   42.6790 C   0  0  0  0  0  0  0  0  0  0  0  0
   43.0590   30.3630   42.5480 Cl  0  0  0  0  0  0  0  0  0  0  0  0
   41.1170   28.4810   43.0270 C   0  0  0  0  0  0  0  0  0  0  0  0
   38.2630   30.8370   42.3620 H   0  0  0  0  0  0  0  0  0  0  0  0
   40.5140   31.7090   42.1570 H   0  0  0  0  0  0  0  0  0  0  0  0
   41.9640   27.8220   43.2140 H   0  0  0  0  0  0  0  0  0  0  0  0
  1  6  1  0  0  0  0
  1 21  1  0  0  0  0
  2  1  2  0  0  0  0
  3  4  2  0  0  0  0
  3  2  1  0  0  0  0
  4  5  1  0  0  0  0
  5  9  1  0  0  0  0
  5  6  2  0  0  0  0
  7  2  1  0  0  0  0
  8  3  1  0  0  0  0
  9 11  1  0  0  0  0
 10  9  2  0  0  0  0
 11 19  1  0  0  0  0
 12 14  1  0  0  0  0
 12 11  1  0  0  0  0
 13 12  1  0  0  0  0
 14 16  1  0  0  0  0
 15 14  1  0  0  0  0
 17 19  1  0  0  0  0
 17 16  1  0  0  0  0
 18 17  1  0  0  0  0
 20 19  1  0  0  0  0
 21 22  1  0  0  0  0
 22 23  1  0  0  0  0
 22 25  1  0  0  0  0
 24 22  1  0  0  0  0
 25 26  1  0  0  0  0
 25 27  1  0  0  0  0
 29 28  1  0  0  0  0
 30 25  1  0  0  0  0
 30 29  2  0  0  0  0
 31 30  1  0  0  0  0
 32 31  2  0  0  0  0
 32 33  1  0  0  0  0
 33 35  2  0  0  0  0
 34 33  1  0  0  0  0
 35 29  1  0  0  0  0
 35 38  1  0  0  0  0
 36 31  1  0  0  0  0
 37 32  1  0  0  0  0
M  END
>  <minimizedAffinity>
-5.96751976

$$$$

 OpenBabel03242515023D

 38 40  0  0  0  0  0  0  0  0999 V2000
   39.3530   33.4890   40.4810 C   0  0  0  0  0  0  0  0  0  0  0  0
   38.7380   34.7030   40.1510 C   0  0  0  0  0  0  0  0  0  0  0  0
   39.5440   35.8440   40.0680 C   0  0  0  0  0  0  0  0  0  0  0  0
   40.8660   35.7060   40.3110 N   0  0  0  0  0  0  0  0  0  0  0  0
   41.4390   34.5260   40.6280 C   0  0  0  0  0  0  0  0  0  0  0  0
   40.6660   33.4480   40.7050 N   0  0  0  0  0  0  0  0  0  0  0  0
   37.6700   34.7420   39.9680 H   0  0  0  0  0  0  0  0  0  0  0  0
   39.0950   36.8070   39.8130 H   0  0  0  0  0  0  0  0  0  0  0  0
   42.8670   34.5030   40.8670 C   0  0  0  0  0  0  0  0  0  0  0  0
   43.2710   35.1620   41.8640 O   0  0  0  0  0  0  0  0  0  0  0  0
   43.8130   33.7500   39.9950 C   0  0  0  0  0  3  0  0  0  0  0  0
   43.4550   34.0510   38.5440 C   0  0  0  0  0  3  0  0  0  0  0  0
   43.3620   35.1370   38.4100 H   0  0  0  0  0  0  0  0  0  0  0  0
   44.3830   33.4040   37.5780 C   0  0  0  0  0  3  0  0  0  0  0  0
   44.2030   33.9070   36.5830 H   0  0  0  0  0  0  0  0  0  0  0  0
   45.6920   33.6370   37.9220 O   0  0  0  0  0  0  0  0  0  0  0  0
   45.8630   34.5860   38.9150 C   0  0  0  0  0  3  0  0  0  0  0  0
   45.4380   35.5760   38.6880 H   0  0  0  0  0  0  0  0  0  0  0  0
   45.2380   34.1380   40.2260 C   0  0  0  0  0  3  0  0  0  0  0  0
   45.3730   34.9600   40.9580 H   0  0  0  0  0  0  0  0  0  0  0  0
   38.2750   32.0520   40.5750 S   0  0  0  0  0  0  0  0  0  0  0  0
   39.1360   30.5770   41.1140 C   0  0  0  0  0  0  0  0  0  0  0  0
   38.9880   29.7620   40.4040 H   0  0  0  0  0  0  0  0  0  0  0  0
   40.2360   30.8150   41.1530 H   0  0  0  0  0  0  0  0  0  0  0  0
   38.7530   30.1340   42.4950 C   0  0  0  0  0  0  0  0  0  0  0  0
   39.2760   30.7410   43.2810 H   0  0  0  0  0  0  0  0  0  0  0  0
   37.6630   30.3450   42.6410 H   0  0  0  0  0  0  0  0  0  0  0  0
   36.3900   28.3080   41.8400 Cl  0  0  0  0  0  0  0  0  0  0  0  0
   37.9350   27.7530   42.3840 C   0  0  0  0  0  0  0  0  0  0  0  0
   38.9620   28.6820   42.6590 C   0  0  0  0  0  0  0  0  0  0  0  0
   40.1590   28.1550   43.0860 C   0  0  0  0  0  0  0  0  0  0  0  0
   40.4640   26.8100   43.2740 C   0  0  0  0  0  0  0  0  0  0  0  0
   39.4450   25.9230   42.9980 C   0  0  0  0  0  0  0  0  0  0  0  0
   39.7350   24.1990   43.2060 Cl  0  0  0  0  0  0  0  0  0  0  0  0
   38.2120   26.3920   42.5630 C   0  0  0  0  0  0  0  0  0  0  0  0
   40.9460   28.8670   43.2970 H   0  0  0  0  0  0  0  0  0  0  0  0
   41.4400   26.5170   43.6130 H   0  0  0  0  0  0  0  0  0  0  0  0
   37.4390   25.6520   42.3590 H   0  0  0  0  0  0  0  0  0  0  0  0
  1 21  1  0  0  0  0
  1  6  1  0  0  0  0
  2  1  2  0  0  0  0
  3  2  1  0  0  0  0
  3  4  2  0  0  0  0
  4  5  1  0  0  0  0
  5  6  2  0  0  0  0
  5  9  1  0  0  0  0
  7  2  1  0  0  0  0
  8  3  1  0  0  0  0
  9 10  2  0  0  0  0
 11 19  1  0  0  0  0
 11  9  1  0  0  0  0
 12 11  1  0  0  0  0
 13 12  1  0  0  0  0
 14 16  1  0  0  0  0
 14 12  1  0  0  0  0
 15 14  1  0  0  0  0
 16 17  1  0  0  0  0
 17 19  1  0  0  0  0
 18 17  1  0  0  0  0
 19 20  1  0  0  0  0
 21 22  1  0  0  0  0
 22 24  1  0  0  0  0
 22 25  1  0  0  0  0
 23 22  1  0  0  0  0
 25 27  1  0  0  0  0
 25 30  1  0  0  0  0
 25 26  1  0  0  0  0
 28 29  1  0  0  0  0
 29 35  2  0  0  0  0
 29 30  1  0  0  0  0
 30 31  2  0  0  0  0
 31 32  1  0  0  0  0
 31 36  1  0  0  0  0
 32 37  1  0  0  0  0
 33 34  1  0  0  0  0
 33 32  2  0  0  0  0
 35 33  1  0  0  0  0
 38 35  1  0  0  0  0
M  END
>  <minimizedAffinity>
-5.89272404

$$$$

 OpenBabel03242515023D

 38 40  0  0  0  0  0  0  0  0999 V2000
   39.0570   32.7190   40.1600 C   0  0  0  0  0  0  0  0  0  0  0  0
   38.2240   33.8430   40.1630 C   0  0  0  0  0  0  0  0  0  0  0  0
   38.8220   35.1020   40.2990 C   0  0  0  0  0  0  0  0  0  0  0  0
   40.1680   35.1550   40.4170 N   0  0  0  0  0  0  0  0  0  0  0  0
   40.9520   34.0580   40.4110 C   0  0  0  0  0  0  0  0  0  0  0  0
   40.3770   32.8670   40.2830 N   0  0  0  0  0  0  0  0  0  0  0  0
   37.1500   33.7280   40.0630 H   0  0  0  0  0  0  0  0  0  0  0  0
   38.2000   36.0000   40.3050 H   0  0  0  0  0  0  0  0  0  0  0  0
   42.3830   34.2410   40.5460 C   0  0  0  0  0  0  0  0  0  0  0  0
   42.7850   34.6460   41.6720 O   0  0  0  0  0  0  0  0  0  0  0  0
   43.3330   33.9720   39.4300 C   0  0  0  0  0  3  0  0  0  0  0  0
   43.8460   32.5450   39.5820 C   0  0  0  0  0  3  0  0  0  0  0  0
   42.9940   31.8660   39.7260 H   0  0  0  0  0  0  0  0  0  0  0  0
   44.7550   32.1400   38.4760 C   0  0  0  0  0  3  0  0  0  0  0  0
   44.8430   31.0160   38.5360 H   0  0  0  0  0  0  0  0  0  0  0  0
   44.2080   32.4430   37.2540 O   0  0  0  0  0  0  0  0  0  0  0  0
   42.8770   32.8220   37.3000 C   0  0  0  0  0  3  0  0  0  0  0  0
   42.1990   32.0810   37.7510 H   0  0  0  0  0  0  0  0  0  0  0  0
   42.6930   34.1100   38.0860 C   0  0  0  0  0  3  0  0  0  0  0  0
   41.6060   34.3280   38.1200 H   0  0  0  0  0  0  0  0  0  0  0  0
   38.2410   31.1260   39.9830 S   0  0  0  0  0  0  0  0  0  0  0  0
   38.0100   30.2910   41.5510 C   0  0  0  0  0  0  0  0  0  0  0  0
   38.8190   29.5820   41.7330 H   0  0  0  0  0  0  0  0  0  0  0  0
   38.0350   31.0700   42.3630 H   0  0  0  0  0  0  0  0  0  0  0  0
   36.6840   29.6010   41.6700 C   0  0  0  0  0  0  0  0  0  0  0  0
   36.1360   29.9220   42.5960 H   0  0  0  0  0  0  0  0  0  0  0  0
   36.0380   29.9350   40.8190 H   0  0  0  0  0  0  0  0  0  0  0  0
   36.9480   28.0580   44.2970 Cl  0  0  0  0  0  0  0  0  0  0  0  0
   36.9710   27.3310   42.7270 C   0  0  0  0  0  0  0  0  0  0  0  0
   36.8410   28.1370   41.5750 C   0  0  0  0  0  0  0  0  0  0  0  0
   36.8700   27.4770   40.3680 C   0  0  0  0  0  0  0  0  0  0  0  0
   37.0120   26.1080   40.1620 C   0  0  0  0  0  0  0  0  0  0  0  0
   37.1370   25.3440   41.3040 C   0  0  0  0  0  0  0  0  0  0  0  0
   37.3230   23.6000   41.1460 Cl  0  0  0  0  0  0  0  0  0  0  0  0
   37.1160   25.9500   42.5530 C   0  0  0  0  0  0  0  0  0  0  0  0
   36.7700   28.0940   39.4840 H   0  0  0  0  0  0  0  0  0  0  0  0
   37.0210   25.7060   39.1670 H   0  0  0  0  0  0  0  0  0  0  0  0
   37.2180   25.3040   43.4240 H   0  0  0  0  0  0  0  0  0  0  0  0
  1  2  2  0  0  0  0
  1  6  1  0  0  0  0
  2  3  1  0  0  0  0
  3  8  1  0  0  0  0
  3  4  2  0  0  0  0
  5  4  1  0  0  0  0
  5  9  1  0  0  0  0
  6  5  2  0  0  0  0
  7  2  1  0  0  0  0
  9 10  2  0  0  0  0
 11 12  1  0  0  0  0
 11  9  1  0  0  0  0
 12 13  1  0  0  0  0
 14 15  1  0  0  0  0
 14 12  1  0  0  0  0
 16 17  1  0  0  0  0
 16 14  1  0  0  0  0
 17 18  1  0  0  0  0
 17 19  1  0  0  0  0
 19 20  1  0  0  0  0
 19 11  1  0  0  0  0
 21  1  1  0  0  0  0
 21 22  1  0  0  0  0
 22 25  1  0  0  0  0
 22 23  1  0  0  0  0
 22 24  1  0  0  0  0
 25 26  1  0  0  0  0
 27 25  1  0  0  0  0
 29 28  1  0  0  0  0
 30 25  1  0  0  0  0
 30 29  2  0  0  0  0
 31 30  1  0  0  0  0
 32 31  2  0  0  0  0
 32 33  1  0  0  0  0
 33 35  2  0  0  0  0
 34 33  1  0  0  0  0
 35 29  1  0  0  0  0
 35 38  1  0  0  0  0
 36 31  1  0  0  0  0
 37 32  1  0  0  0  0
M  END
>  <minimizedAffinity>
-5.77322054

$$$$

 OpenBabel03242515023D

 38 40  0  0  0  0  0  0  0  0999 V2000
   37.7420   26.0140   39.5290 C   0  0  0  0  0  0  0  0  0  0  0  0
   37.2140   24.7180   39.5370 C   0  0  0  0  0  0  0  0  0  0  0  0
   36.7440   24.2080   40.7520 C   0  0  0  0  0  0  0  0  0  0  0  0
   36.8260   24.9990   41.8460 N   0  0  0  0  0  0  0  0  0  0  0  0
   37.3390   26.2470   41.8160 C   0  0  0  0  0  0  0  0  0  0  0  0
   37.7840   26.7220   40.6580 N   0  0  0  0  0  0  0  0  0  0  0  0
   37.1780   24.1370   38.6210 H   0  0  0  0  0  0  0  0  0  0  0  0
   36.3260   23.2000   40.7920 H   0  0  0  0  0  0  0  0  0  0  0  0
   37.3750   26.9990   43.0540 C   0  0  0  0  0  0  0  0  0  0  0  0
   36.2560   27.2590   43.5750 O   0  0  0  0  0  0  0  0  0  0  0  0
   38.6500   27.4470   43.6820 C   0  0  0  0  0  3  0  0  0  0  0  0
   39.6510   26.3020   43.5800 C   0  0  0  0  0  3  0  0  0  0  0  0
   39.6730   25.9290   42.5470 H   0  0  0  0  0  0  0  0  0  0  0  0
   40.9920   26.6620   44.1170 C   0  0  0  0  0  3  0  0  0  0  0  0
   41.7040   25.8690   43.7450 H   0  0  0  0  0  0  0  0  0  0  0  0
   41.4180   27.8650   43.6090 O   0  0  0  0  0  0  0  0  0  0  0  0
   40.6500   28.3500   42.5630 C   0  0  0  0  0  3  0  0  0  0  0  0
   40.5700   27.6760   41.6960 H   0  0  0  0  0  0  0  0  0  0  0  0
   39.2290   28.6500   43.0090 C   0  0  0  0  0  3  0  0  0  0  0  0
   38.6640   28.9890   42.1170 H   0  0  0  0  0  0  0  0  0  0  0  0
   38.3340   26.6220   37.9430 S   0  0  0  0  0  0  0  0  0  0  0  0
   37.0990   27.5780   37.0660 C   0  0  0  0  0  0  0  0  0  0  0  0
   37.5670   28.3730   36.4840 H   0  0  0  0  0  0  0  0  0  0  0  0
   36.5690   26.8850   36.3540 H   0  0  0  0  0  0  0  0  0  0  0  0
   36.0400   28.1500   37.9620 C   0  0  0  0  0  0  0  0  0  0  0  0
   35.0300   28.1170   37.4750 H   0  0  0  0  0  0  0  0  0  0  0  0
   35.9520   27.4910   38.8630 H   0  0  0  0  0  0  0  0  0  0  0  0
   35.1840   28.9440   40.7880 Cl  0  0  0  0  0  0  0  0  0  0  0  0
   36.0660   29.9670   39.7070 C   0  0  0  0  0  0  0  0  0  0  0  0
   36.4130   29.5020   38.4200 C   0  0  0  0  0  0  0  0  0  0  0  0
   37.1140   30.3810   37.6260 C   0  0  0  0  0  0  0  0  0  0  0  0
   37.5150   31.6720   37.9550 C   0  0  0  0  0  0  0  0  0  0  0  0
   37.1650   32.1020   39.2180 C   0  0  0  0  0  0  0  0  0  0  0  0
   37.6280   33.7220   39.7260 Cl  0  0  0  0  0  0  0  0  0  0  0  0
   36.4570   31.2620   40.0680 C   0  0  0  0  0  0  0  0  0  0  0  0
   37.3800   30.0250   36.6400 H   0  0  0  0  0  0  0  0  0  0  0  0
   38.0620   32.2680   37.2480 H   0  0  0  0  0  0  0  0  0  0  0  0
   36.2020   31.6480   41.0550 H   0  0  0  0  0  0  0  0  0  0  0  0
  1  2  2  0  0  0  0
  1  6  1  0  0  0  0
  2  3  1  0  0  0  0
  3  8  1  0  0  0  0
  3  4  2  0  0  0  0
  5  4  1  0  0  0  0
  5  9  1  0  0  0  0
  6  5  2  0  0  0  0
  7  2  1  0  0  0  0
  9 10  2  0  0  0  0
  9 11  1  0  0  0  0
 12 11  1  0  0  0  0
 12 14  1  0  0  0  0
 13 12  1  0  0  0  0
 15 14  1  0  0  0  0
 16 14  1  0  0  0  0
 17 19  1  0  0  0  0
 17 16  1  0  0  0  0
 18 17  1  0  0  0  0
 19 11  1  0  0  0  0
 20 19  1  0  0  0  0
 21  1  1  0  0  0  0
 22 21  1  0  0  0  0
 22 25  1  0  0  0  0
 23 22  1  0  0  0  0
 24 22  1  0  0  0  0
 25 30  1  0  0  0  0
 25 27  1  0  0  0  0
 26 25  1  0  0  0  0
 29 35  1  0  0  0  0
 29 28  1  0  0  0  0
 30 29  2  0  0  0  0
 31 32  2  0  0  0  0
 31 30  1  0  0  0  0
 32 33  1  0  0  0  0
 33 34  1  0  0  0  0
 33 35  2  0  0  0  0
 35 38  1  0  0  0  0
 36 31  1  0  0  0  0
 37 32  1  0  0  0  0
M  END
>  <minimizedAffinity>
-5.68475389

$$$$

 OpenBabel03242515023D

 38 40  0  0  0  0  0  0  0  0999 V2000
   37.9640   31.8460   39.2140 C   0  0  0  0  0  0  0  0  0  0  0  0
   37.5730   32.9170   40.0260 C   0  0  0  0  0  0  0  0  0  0  0  0
   38.4890   33.9560   40.2280 C   0  0  0  0  0  0  0  0  0  0  0  0
   39.6960   33.8630   39.6260 N   0  0  0  0  0  0  0  0  0  0  0  0
   40.0530   32.8210   38.8470 C   0  0  0  0  0  0  0  0  0  0  0  0
   39.1780   31.8390   38.6610 N   0  0  0  0  0  0  0  0  0  0  0  0
   36.5870   32.9280   40.4780 H   0  0  0  0  0  0  0  0  0  0  0  0
   38.2140   34.8060   40.8560 H   0  0  0  0  0  0  0  0  0  0  0  0
   41.3750   32.8330   38.2560 C   0  0  0  0  0  0  0  0  0  0  0  0
   41.5610   32.0290   37.3010 O   0  0  0  0  0  0  0  0  0  0  0  0
   42.4600   33.7350   38.7370 C   0  0  0  0  0  3  0  0  0  0  0  0
   43.2230   33.0060   39.8370 C   0  0  0  0  0  3  0  0  0  0  0  0
   43.4890   31.9990   39.4890 H   0  0  0  0  0  0  0  0  0  0  0  0
   44.3810   33.7890   40.3480 C   0  0  0  0  0  3  0  0  0  0  0  0
   45.0180   33.0640   40.9330 H   0  0  0  0  0  0  0  0  0  0  0  0
   45.1480   34.2650   39.3130 O   0  0  0  0  0  0  0  0  0  0  0  0
   44.8320   33.7330   38.0740 C   0  0  0  0  0  3  0  0  0  0  0  0
   44.8980   32.6360   38.0100 H   0  0  0  0  0  0  0  0  0  0  0  0
   43.4200   34.1060   37.6530 C   0  0  0  0  0  3  0  0  0  0  0  0
   43.2210   33.6130   36.6800 H   0  0  0  0  0  0  0  0  0  0  0  0
   36.7520   30.5370   38.9870 S   0  0  0  0  0  0  0  0  0  0  0  0
   35.7770   30.2360   40.4590 C   0  0  0  0  0  0  0  0  0  0  0  0
   36.2460   30.6910   41.3320 H   0  0  0  0  0  0  0  0  0  0  0  0
   34.7700   30.7160   40.3090 H   0  0  0  0  0  0  0  0  0  0  0  0
   35.5150   28.7810   40.7130 C   0  0  0  0  0  0  0  0  0  0  0  0
   34.4980   28.6190   41.1600 H   0  0  0  0  0  0  0  0  0  0  0  0
   35.4880   28.2520   39.7260 H   0  0  0  0  0  0  0  0  0  0  0  0
   36.5300   26.0270   39.8570 Cl  0  0  0  0  0  0  0  0  0  0  0  0
   37.1370   26.9180   41.2100 C   0  0  0  0  0  0  0  0  0  0  0  0
   36.5970   28.1840   41.5200 C   0  0  0  0  0  0  0  0  0  0  0  0
   37.1380   28.8240   42.6120 C   0  0  0  0  0  0  0  0  0  0  0  0
   38.1560   28.3570   43.4390 C   0  0  0  0  0  0  0  0  0  0  0  0
   38.6660   27.1170   43.1140 C   0  0  0  0  0  0  0  0  0  0  0  0
   39.9570   26.4410   44.1020 Cl  0  0  0  0  0  0  0  0  0  0  0  0
   38.1630   26.4210   42.0230 C   0  0  0  0  0  0  0  0  0  0  0  0
   36.7250   29.7950   42.8500 H   0  0  0  0  0  0  0  0  0  0  0  0
   38.4980   28.9490   44.2670 H   0  0  0  0  0  0  0  0  0  0  0  0
   38.5980   25.4450   41.8080 H   0  0  0  0  0  0  0  0  0  0  0  0
  1  2  1  0  0  0  0
  2  3  2  0  0  0  0
  2  7  1  0  0  0  0
  3  8  1  0  0  0  0
  4  3  1  0  0  0  0
  5  4  2  0  0  0  0
  6  5  1  0  0  0  0
  6  1  2  0  0  0  0
  9 11  1  0  0  0  0
  9  5  1  0  0  0  0
 10  9  2  0  0  0  0
 11 12  1  0  0  0  0
 12 14  1  0  0  0  0
 13 12  1  0  0  0  0
 14 15  1  0  0  0  0
 16 14  1  0  0  0  0
 17 16  1  0  0  0  0
 18 17  1  0  0  0  0
 19 17  1  0  0  0  0
 19 11  1  0  0  0  0
 20 19  1  0  0  0  0
 21  1  1  0  0  0  0
 21 22  1  0  0  0  0
 22 25  1  0  0  0  0
 22 23  1  0  0  0  0
 24 22  1  0  0  0  0
 25 26  1  0  0  0  0
 25 30  1  0  0  0  0
 27 25  1  0  0  0  0
 28 29  1  0  0  0  0
 29 30  2  0  0  0  0
 29 35  1  0  0  0  0
 30 31  1  0  0  0  0
 31 36  1  0  0  0  0
 31 32  2  0  0  0  0
 32 37  1  0  0  0  0
 33 32  1  0  0  0  0
 33 34  1  0  0  0  0
 35 33  2  0  0  0  0
 38 35  1  0  0  0  0
M  END
>  <minimizedAffinity>
-5.67387438

$$$$
