
 OpenBabel03242510513D

 23 24  0  0  0  0  0  0  0  0999 V2000
   44.6300   36.3200   44.5030 C   0  0  0  0  0  0  0  0  0  0  0  0
   45.2850   36.3480   43.2480 C   0  0  0  0  0  0  0  0  0  0  0  0
   45.9820   35.1870   42.8600 C   0  0  0  0  0  0  0  0  0  0  0  0
   45.9880   34.1160   43.7010 N   0  0  0  0  0  0  0  0  0  0  0  0
   45.3570   34.1290   44.8800 C   0  0  0  0  0  0  0  0  0  0  0  0
   44.6720   35.2340   45.2890 N   0  0  0  0  0  0  0  0  0  0  0  0
   46.4120   32.0110   45.3780 C   0  0  0  0  0  0  0  0  0  0  0  0
   47.2400   32.1040   44.4460 O   0  0  0  0  0  0  0  0  0  0  0  0
   45.4170   32.9670   45.6930 N   0  0  0  0  0  0  0  0  0  0  0  0
   44.1110   37.2320   44.7550 H   0  0  0  0  0  0  0  0  0  0  0  0
   45.2790   37.1930   42.5830 H   0  0  0  0  0  0  0  0  0  0  0  0
   46.5160   35.0990   41.9210 H   0  0  0  0  0  0  0  0  0  0  0  0
   44.7670   32.8090   46.4900 H   0  0  0  0  0  0  0  0  0  0  0  0
   46.4810   30.7780   46.2360 C   0  0  0  0  0  3  0  0  0  0  0  0
   45.4220   30.7430   47.2940 C   0  0  0  0  0  3  0  0  0  0  0  0
   44.4480   30.8380   46.7870 H   0  0  0  0  0  0  0  0  0  0  0  0
   45.4980   29.3700   47.9330 C   0  0  0  0  0  3  0  0  0  0  0  0
   45.5540   29.5010   49.0410 H   0  0  0  0  0  0  0  0  0  0  0  0
   46.6430   28.6630   47.5910 O   0  0  0  0  0  0  0  0  0  0  0  0
   47.7730   29.4550   47.8140 C   0  0  0  0  0  3  0  0  0  0  0  0
   48.6530   28.8160   47.7140 H   0  0  0  0  0  0  0  0  0  0  0  0
   47.8640   30.5820   46.8040 C   0  0  0  0  0  3  0  0  0  0  0  0
   48.1460   31.5430   47.3010 H   0  0  0  0  0  0  0  0  0  0  0  0
  1 10  1  0  0  0  0
  1  6  1  0  0  0  0
  2  1  2  0  0  0  0
  3  2  1  0  0  0  0
  3  4  2  0  0  0  0
  4  5  1  0  0  0  0
  5  6  2  0  0  0  0
  5  9  1  0  0  0  0
  7  9  1  0  0  0  0
  7 14  1  0  0  0  0
  8  7  2  0  0  0  0
  9 13  1  0  0  0  0
 11  2  1  0  0  0  0
 12  3  1  0  0  0  0
 14 22  1  0  0  0  0
 14 15  1  0  0  0  0
 15 17  1  0  0  0  0
 16 15  1  0  0  0  0
 17 18  1  0  0  0  0
 19 20  1  0  0  0  0
 19 17  1  0  0  0  0
 21 20  1  0  0  0  0
 22 23  1  0  0  0  0
 22 20  1  0  0  0  0
M  END
>  <minimizedAffinity>
-4.53853559

>  <minimizedRMSD>
2.0786097

$$$$
