
 OpenBabel03242521173D

 39 41  0  0  0  0  0  0  0  0999 V2000
   46.5090   32.8950   46.5130 C   0  0  0  0  0  0  0  0  0  0  0  0
   47.0540   32.0970   45.9990 H   0  0  0  0  0  0  0  0  0  0  0  0
   47.2700   33.4560   47.1250 H   0  0  0  0  0  0  0  0  0  0  0  0
   44.5400   35.6010   44.8370 C   0  0  0  0  0  0  0  0  0  0  0  0
   45.1300   35.5830   43.5620 C   0  0  0  0  0  0  0  0  0  0  0  0
   46.1470   34.6640   43.3550 C   0  0  0  0  0  0  0  0  0  0  0  0
   46.5250   33.8270   44.3870 N   0  0  0  0  0  0  0  0  0  0  0  0
   45.9250   33.8920   45.5790 C   0  0  0  0  0  0  0  0  0  0  0  0
   44.9200   34.7790   45.8340 N   0  0  0  0  0  0  0  0  0  0  0  0
   43.7350   36.3090   45.0440 H   0  0  0  0  0  0  0  0  0  0  0  0
   44.7950   36.2560   42.7970 H   0  0  0  0  0  0  0  0  0  0  0  0
   46.7660   34.6230   42.0670 N   0  0  0  0  0  0  0  0  0  0  0  0
   47.9500   35.2290   41.9050 C   0  0  0  0  0  0  0  0  0  0  0  0
   48.5610   35.1980   40.6650 C   0  0  0  0  0  0  0  0  0  0  0  0
   47.9240   34.5450   39.6560 C   0  0  0  0  0  0  0  0  0  0  0  0
   48.4920   34.5190   38.5100 O   0  0  0  0  0  0  0  0  0  0  0  0
   46.7300   33.9260   39.7940 N   0  0  0  0  0  0  0  0  0  0  0  0
   46.1940   33.9970   41.0260 C   0  0  0  0  0  0  0  0  0  0  0  0
   45.0840   33.4540   41.2710 O   0  0  0  0  0  0  0  0  0  0  0  0
   48.4680   35.7540   42.7070 H   0  0  0  0  0  0  0  0  0  0  0  0
   49.5180   35.6770   40.4950 H   0  0  0  0  0  0  0  0  0  0  0  0
   46.2510   33.4280   39.0100 H   0  0  0  0  0  0  0  0  0  0  0  0
   45.4710   32.3830   47.4800 C   0  0  0  0  0  0  0  0  0  0  0  0
   44.6170   33.0820   47.4690 H   0  0  0  0  0  0  0  0  0  0  0  0
   45.8460   32.3390   48.5180 H   0  0  0  0  0  0  0  0  0  0  0  0
   45.5200   29.9270   47.5300 C   0  0  0  0  0  0  0  0  0  0  0  0
   46.3960   30.0690   48.4260 O   0  0  0  0  0  0  0  0  0  0  0  0
   44.9810   31.1000   46.9980 N   0  0  0  0  0  0  0  0  0  0  0  0
   44.2440   31.0880   46.2710 H   0  0  0  0  0  0  0  0  0  0  0  0
   45.0930   28.5760   47.0760 C   0  0  0  0  0  3  0  0  0  0  0  0
   44.7680   27.6640   48.2410 C   0  0  0  0  0  3  0  0  0  0  0  0
   43.7820   27.9820   48.6690 H   0  0  0  0  0  0  0  0  0  0  0  0
   44.5260   26.2800   47.6500 C   0  0  0  0  0  3  0  0  0  0  0  0
   44.4020   25.5130   48.4210 H   0  0  0  0  0  0  0  0  0  0  0  0
   43.3480   26.4040   46.8840 O   0  0  0  0  0  0  0  0  0  0  0  0
   43.5880   27.1880   45.7770 C   0  0  0  0  0  3  0  0  0  0  0  0
   42.6540   27.2170   45.1750 H   0  0  0  0  0  0  0  0  0  0  0  0
   43.9280   28.6150   46.1280 C   0  0  0  0  0  3  0  0  0  0  0  0
   43.0520   29.1580   46.4770 H   0  0  0  0  0  0  0  0  0  0  0  0
  1  3  1  0  0  0  0
  1 23  1  0  0  0  0
  2  1  1  0  0  0  0
  4 10  1  0  0  0  0
  4  9  1  0  0  0  0
  5  4  2  0  0  0  0
  6  5  1  0  0  0  0
  6  7  2  0  0  0  0
  7  8  1  0  0  0  0
  8  9  2  0  0  0  0
  8  1  1  0  0  0  0
 11  5  1  0  0  0  0
 12  6  1  0  0  0  0
 13 12  1  0  0  0  0
 13 20  1  0  0  0  0
 14 13  2  0  0  0  0
 15 17  1  0  0  0  0
 15 14  1  0  0  0  0
 16 15  2  0  0  0  0
 17 18  1  0  0  0  0
 18 19  2  0  0  0  0
 18 12  1  0  0  0  0
 21 14  1  0  0  0  0
 22 17  1  0  0  0  0
 23 25  1  0  0  0  0
 24 23  1  0  0  0  0
 26 27  2  0  0  0  0
 28 23  1  0  0  0  0
 28 26  1  0  0  0  0
 29 28  1  0  0  0  0
 30 26  1  0  0  0  0
 30 31  1  0  0  0  0
 31 32  1  0  0  0  0
 33 31  1  0  0  0  0
 33 34  1  0  0  0  0
 35 33  1  0  0  0  0
 36 38  1  0  0  0  0
 36 35  1  0  0  0  0
 37 36  1  0  0  0  0
 38 39  1  0  0  0  0
 38 30  1  0  0  0  0
M  END
>  <minimizedAffinity>
-6.33050108

>  <minimizedRMSD>
1.33516788

$$$$
