
 OpenBabel03242517003D

 33 35  0  0  0  0  0  0  0  0999 V2000
   46.8680   34.8630   41.9160 C   0  0  0  0  0  0  0  0  0  0  0  0
   48.0910   35.4980   41.9220 C   0  0  0  0  0  0  0  0  0  0  0  0
   48.8920   35.4200   40.8030 C   0  0  0  0  0  0  0  0  0  0  0  0
   48.4600   34.7140   39.7090 C   0  0  0  0  0  0  0  0  0  0  0  0
   47.2490   34.0700   39.6640 C   0  0  0  0  0  0  0  0  0  0  0  0
   46.4570   34.1680   40.8210 C   0  0  0  0  0  0  0  0  0  0  0  0
   48.4330   36.0560   42.7890 H   0  0  0  0  0  0  0  0  0  0  0  0
   49.8400   35.9280   40.8460 H   0  0  0  0  0  0  0  0  0  0  0  0
   49.1210   34.6800   38.8520 H   0  0  0  0  0  0  0  0  0  0  0  0
   46.8880   33.5120   38.8220 H   0  0  0  0  0  0  0  0  0  0  0  0
   44.4880   36.0230   44.6170 C   0  0  0  0  0  0  0  0  0  0  0  0
   45.2090   36.0230   43.4060 C   0  0  0  0  0  0  0  0  0  0  0  0
   46.0660   34.9820   43.1310 C   0  0  0  0  0  0  0  0  0  0  0  0
   46.1680   33.9890   44.0740 N   0  0  0  0  0  0  0  0  0  0  0  0
   45.4690   34.0070   45.2300 C   0  0  0  0  0  0  0  0  0  0  0  0
   44.6230   35.0340   45.5000 N   0  0  0  0  0  0  0  0  0  0  0  0
   43.8540   36.9040   44.6950 H   0  0  0  0  0  0  0  0  0  0  0  0
   45.1390   36.7910   42.6600 H   0  0  0  0  0  0  0  0  0  0  0  0
   45.5680   33.2190   45.9460 H   0  0  0  0  0  0  0  0  0  0  0  0
   43.8620   33.9580   40.6460 C   0  0  0  0  0  0  0  0  0  0  0  0
   43.4820   35.0520   40.2250 O   0  0  0  0  0  0  0  0  0  0  0  0
   45.1910   33.5460   40.9080 N   0  0  0  0  0  0  0  0  0  0  0  0
   45.4660   32.5910   41.2520 H   0  0  0  0  0  0  0  0  0  0  0  0
   42.8570   32.8740   40.9390 C   0  0  0  0  0  3  0  0  0  0  0  0
   43.3370   32.0650   42.1520 C   0  0  0  0  0  3  0  0  0  0  0  0
   44.2930   31.6040   41.8510 H   0  0  0  0  0  0  0  0  0  0  0  0
   42.2570   31.0380   42.4100 C   0  0  0  0  0  3  0  0  0  0  0  0
   42.7130   30.0340   42.2020 H   0  0  0  0  0  0  0  0  0  0  0  0
   41.1670   31.1370   41.5810 O   0  0  0  0  0  0  0  0  0  0  0  0
   40.5530   32.3860   41.6350 C   0  0  0  0  0  3  0  0  0  0  0  0
   39.8210   32.4130   40.7920 H   0  0  0  0  0  0  0  0  0  0  0  0
   41.5480   33.5030   41.3840 C   0  0  0  0  0  3  0  0  0  0  0  0
   41.6620   34.0380   42.3510 H   0  0  0  0  0  0  0  0  0  0  0  0
  1  2  1  0  0  0  0
  1 13  1  0  0  0  0
  2  7  1  0  0  0  0
  3  8  1  0  0  0  0
  3  2  2  0  0  0  0
  4  3  1  0  0  0  0
  5  4  2  0  0  0  0
  5  6  1  0  0  0  0
  6 22  1  0  0  0  0
  6  1  2  0  0  0  0
  9  4  1  0  0  0  0
 10  5  1  0  0  0  0
 11 17  1  0  0  0  0
 11 16  1  0  0  0  0
 12 11  2  0  0  0  0
 13 12  1  0  0  0  0
 13 14  2  0  0  0  0
 14 15  1  0  0  0  0
 15 16  2  0  0  0  0
 15 19  1  0  0  0  0
 18 12  1  0  0  0  0
 20 22  1  0  0  0  0
 20 24  1  0  0  0  0
 21 20  2  0  0  0  0
 22 23  1  0  0  0  0
 24 32  1  0  0  0  0
 24 25  1  0  0  0  0
 25 27  1  0  0  0  0
 26 25  1  0  0  0  0
 28 27  1  0  0  0  0
 29 30  1  0  0  0  0
 29 27  1  0  0  0  0
 31 30  1  0  0  0  0
 32 30  1  0  0  0  0
 32 33  1  0  0  0  0
M  END
>  <minimizedAffinity>
-5.90790987

>  <minimizedRMSD>
0.536915541

$$$$
