
 OpenBabel03242523563D

 46 49  0  0  1  0  0  0  0  0999 V2000
   35.6900   28.7960   40.2060 C   0  0  1  0  0  0  0  0  0  0  0  0
   36.0280   28.8310   38.7230 C   0  0  1  0  0  0  0  0  0  0  0  0
   36.8680   29.9400   38.4920 O   0  0  0  0  0  0  0  0  0  0  0  0
   36.5270   31.0420   39.2820 C   0  0  0  0  0  0  0  0  0  0  0  0
   36.8420   30.8080   40.7450 C   0  0  2  0  0  0  0  0  0  0  0  0
   36.9170   29.2510   40.9310 C   0  0  1  0  0  0  0  0  0  0  0  0
   35.4120   27.7590   40.5140 H   0  0  0  0  0  0  0  0  0  0  0  0
   35.1510   28.8410   38.0700 H   0  0  0  0  0  0  0  0  0  0  0  0
   35.4730   31.3730   39.1230 H   0  0  0  0  0  0  0  0  0  0  0  0
   37.1440   31.8740   38.8840 H   0  0  0  0  0  0  0  0  0  0  0  0
   37.8030   31.2520   41.0510 H   0  0  0  0  0  0  0  0  0  0  0  0
   37.8580   29.1220   40.3070 H   0  0  0  0  0  0  0  0  0  0  0  0
   34.6050   29.6370   40.4890 O   0  0  0  0  0  0  0  0  0  0  0  0
   34.0970   29.3080   41.2670 H   0  0  0  0  0  0  0  0  0  0  0  0
   35.7730   31.2260   41.5220 O   0  0  0  0  0  0  0  0  0  0  0  0
   35.8130   30.8610   42.4430 H   0  0  0  0  0  0  0  0  0  0  0  0
   36.8790   27.7230   38.5220 O   0  0  0  0  0  0  0  0  0  0  0  0
   36.4860   26.4470   38.5810 C   0  0  0  0  0  0  0  0  0  0  0  0
   37.0500   25.5550   39.5060 C   0  0  0  0  0  0  0  0  0  0  0  0
   36.6020   24.2460   39.5210 C   0  0  0  0  0  0  0  0  0  0  0  0
   35.6170   23.8530   38.6290 N   0  0  0  0  0  0  0  0  0  0  0  0
   35.0980   24.7410   37.7510 C   0  0  0  0  0  0  0  0  0  0  0  0
   35.5280   26.0270   37.7260 N   0  0  0  0  0  0  0  0  0  0  0  0
   37.8120   25.8710   40.1910 H   0  0  0  0  0  0  0  0  0  0  0  0
   34.3290   24.4170   37.0600 H   0  0  0  0  0  0  0  0  0  0  0  0
   37.1710   23.2340   40.4650 C   0  0  0  0  0  0  0  0  0  0  0  0
   37.6100   21.9000   39.8610 C   0  0  0  0  0  0  0  0  0  0  0  0
   38.5680   22.9380   40.4740 C   0  0  0  0  0  0  0  0  0  0  0  0
   36.5670   23.1640   41.4060 H   0  0  0  0  0  0  0  0  0  0  0  0
   37.5080   21.8420   38.7680 H   0  0  0  0  0  0  0  0  0  0  0  0
   37.3570   21.0220   40.4520 H   0  0  0  0  0  0  0  0  0  0  0  0
   39.0440   22.5890   41.3890 H   0  0  0  0  0  0  0  0  0  0  0  0
   39.2170   23.4010   39.6840 H   0  0  0  0  0  0  0  0  0  0  0  0
   36.9640   29.0060   42.2530 O   0  0  0  0  0  0  0  0  0  0  0  0
   37.5000   27.9600   42.9090 C   0  0  0  0  0  0  0  0  0  0  0  0
   36.7610   27.0550   43.4960 O   0  0  0  0  0  0  0  0  0  0  0  0
   38.6870   27.1960   43.3750 C   0  0  0  0  0  3  0  0  0  0  0  0
   38.8180   25.8570   42.7100 C   0  0  0  0  0  3  0  0  0  0  0  0
   39.1420   25.9450   41.6530 H   0  0  0  0  0  0  0  0  0  0  0  0
   39.9170   25.1480   43.4790 C   0  0  0  0  0  3  0  0  0  0  0  0
   39.5420   25.1070   44.5410 H   0  0  0  0  0  0  0  0  0  0  0  0
   41.1030   25.8340   43.3640 O   0  0  0  0  0  0  0  0  0  0  0  0
   41.0460   27.1220   43.8670 C   0  0  0  0  0  3  0  0  0  0  0  0
   40.6690   27.0660   44.9220 H   0  0  0  0  0  0  0  0  0  0  0  0
   39.9840   27.9290   43.1280 C   0  0  0  0  0  3  0  0  0  0  0  0
   40.2160   28.0030   42.0480 H   0  0  0  0  0  0  0  0  0  0  0  0
  1 13  1  0  0  0  0
  1  7  1  1  0  0  0
  1  6  1  0  0  0  0
  2  8  1  6  0  0  0
  2  1  1  0  0  0  0
  3  2  1  0  0  0  0
  3  4  1  0  0  0  0
  4  5  1  0  0  0  0
  5  6  1  0  0  0  0
  5 11  1  1  0  0  0
  5 15  1  0  0  0  0
  6 12  1  6  0  0  0
  6 34  1  0  0  0  0
  9  4  1  0  0  0  0
 10  4  1  0  0  0  0
 13 14  1  0  0  0  0
 15 16  1  0  0  0  0
 17 18  1  0  0  0  0
 17  2  1  0  0  0  0
 18 19  1  0  0  0  0
 19 20  2  0  0  0  0
 19 24  1  0  0  0  0
 20 26  1  0  0  0  0
 21 20  1  0  0  0  0
 22 21  2  0  0  0  0
 23 22  1  0  0  0  0
 23 18  2  0  0  0  0
 25 22  1  0  0  0  0
 26 28  1  0  0  0  0
 26 29  1  0  0  0  0
 27 31  1  0  0  0  0
 27 26  1  0  0  0  0
 27 28  1  0  0  0  0
 28 32  1  0  0  0  0
 30 27  1  0  0  0  0
 33 28  1  0  0  0  0
 34 35  1  0  0  0  0
 35 37  1  0  0  0  0
 35 36  2  0  0  0  0
 38 37  1  0  0  0  0
 38 40  1  0  0  0  0
 39 38  1  0  0  0  0
 40 41  1  0  0  0  0
 42 40  1  0  0  0  0
 42 43  1  0  0  0  0
 43 44  1  0  0  0  0
 45 37  1  0  0  0  0
 45 43  1  0  0  0  0
 46 45  1  0  0  0  0
M  END
>  <minimizedAffinity>
-5.94840336

$$$$

 OpenBabel03242523563D

 46 49  0  0  1  0  0  0  0  0999 V2000
   40.1060   31.6040   40.3220 C   0  0  1  0  0  0  0  0  0  0  0  0
   41.3990   31.4170   41.1020 C   0  0  1  0  0  0  0  0  0  0  0  0
   41.8560   32.6910   41.5020 O   0  0  0  0  0  0  0  0  0  0  0  0
   41.6150   33.6720   40.5360 C   0  0  0  0  0  0  0  0  0  0  0  0
   40.1390   33.9830   40.4000 C   0  0  2  0  0  0  0  0  0  0  0  0
   39.3770   32.7360   40.9730 C   0  0  1  0  0  0  0  0  0  0  0  0
   39.4960   30.6700   40.3570 H   0  0  0  0  0  0  0  0  0  0  0  0
   42.1660   30.8610   40.5590 H   0  0  0  0  0  0  0  0  0  0  0  0
   42.0890   33.4320   39.5540 H   0  0  0  0  0  0  0  0  0  0  0  0
   42.1650   34.5650   40.8990 H   0  0  0  0  0  0  0  0  0  0  0  0
   39.8380   34.8790   40.9680 H   0  0  0  0  0  0  0  0  0  0  0  0
   39.7110   32.9010   42.0470 H   0  0  0  0  0  0  0  0  0  0  0  0
   40.3750   31.8960   38.9770 O   0  0  0  0  0  0  0  0  0  0  0  0
   39.6450   31.5770   38.3940 H   0  0  0  0  0  0  0  0  0  0  0  0
   39.7990   34.0450   39.0580 O   0  0  0  0  0  0  0  0  0  0  0  0
   38.8200   33.9820   38.9160 H   0  0  0  0  0  0  0  0  0  0  0  0
   41.0020   30.8130   42.3140 O   0  0  0  0  0  0  0  0  0  0  0  0
   40.8320   29.4980   42.4830 C   0  0  0  0  0  0  0  0  0  0  0  0
   39.5940   28.9700   42.8800 C   0  0  0  0  0  0  0  0  0  0  0  0
   39.4780   27.6010   43.0380 C   0  0  0  0  0  0  0  0  0  0  0  0
   40.5790   26.7920   42.8020 N   0  0  0  0  0  0  0  0  0  0  0  0
   41.7560   27.3370   42.4210 C   0  0  0  0  0  0  0  0  0  0  0  0
   41.8830   28.6780   42.2640 N   0  0  0  0  0  0  0  0  0  0  0  0
   38.7500   29.6050   43.0590 H   0  0  0  0  0  0  0  0  0  0  0  0
   42.6080   26.6910   42.2420 H   0  0  0  0  0  0  0  0  0  0  0  0
   38.1950   26.9680   43.4780 C   0  0  0  0  0  0  0  0  0  0  0  0
   37.0600   27.9140   43.8670 C   0  0  0  0  0  0  0  0  0  0  0  0
   37.0390   26.9850   42.6400 C   0  0  0  0  0  0  0  0  0  0  0  0
   38.3780   26.1160   44.1820 H   0  0  0  0  0  0  0  0  0  0  0  0
   37.2910   28.9800   43.7300 H   0  0  0  0  0  0  0  0  0  0  0  0
   36.4940   27.6160   44.7470 H   0  0  0  0  0  0  0  0  0  0  0  0
   36.2990   26.1900   42.7200 H   0  0  0  0  0  0  0  0  0  0  0  0
   37.0800   27.5760   41.6870 H   0  0  0  0  0  0  0  0  0  0  0  0
   38.0770   32.8800   40.6580 O   0  0  0  0  0  0  0  0  0  0  0  0
   37.3180   32.1580   39.8130 C   0  0  0  0  0  0  0  0  0  0  0  0
   37.2200   32.4520   38.5420 O   0  0  0  0  0  0  0  0  0  0  0  0
   36.3960   31.0220   39.5520 C   0  0  0  0  0  3  0  0  0  0  0  0
   36.8700   30.1270   38.4450 C   0  0  0  0  0  3  0  0  0  0  0  0
   37.7370   29.5060   38.7510 H   0  0  0  0  0  0  0  0  0  0  0  0
   35.7020   29.1970   38.1710 C   0  0  0  0  0  3  0  0  0  0  0  0
   34.8520   29.8810   37.8870 H   0  0  0  0  0  0  0  0  0  0  0  0
   35.4210   28.4390   39.2840 O   0  0  0  0  0  0  0  0  0  0  0  0
   35.0660   29.1930   40.3890 C   0  0  0  0  0  3  0  0  0  0  0  0
   34.2230   29.8700   40.0900 H   0  0  0  0  0  0  0  0  0  0  0  0
   36.1990   30.1420   40.7640 C   0  0  0  0  0  3  0  0  0  0  0  0
   37.1200   29.5850   41.0220 H   0  0  0  0  0  0  0  0  0  0  0  0
  1  7  1  1  0  0  0
  1  6  1  0  0  0  0
  1  2  1  0  0  0  0
  2  8  1  6  0  0  0
  2  3  1  0  0  0  0
  2 17  1  0  0  0  0
  4 10  1  0  0  0  0
  4  3  1  0  0  0  0
  5  4  1  0  0  0  0
  5 11  1  1  0  0  0
  5  6  1  0  0  0  0
  6 12  1  1  0  0  0
  9  4  1  0  0  0  0
 13  1  1  0  0  0  0
 14 13  1  0  0  0  0
 15  5  1  0  0  0  0
 16 15  1  0  0  0  0
 17 18  1  0  0  0  0
 18 19  1  0  0  0  0
 19 20  2  0  0  0  0
 19 24  1  0  0  0  0
 20 26  1  0  0  0  0
 21 20  1  0  0  0  0
 22 21  2  0  0  0  0
 23 22  1  0  0  0  0
 23 18  2  0  0  0  0
 25 22  1  0  0  0  0
 26 27  1  0  0  0  0
 26 29  1  0  0  0  0
 27 31  1  0  0  0  0
 28 32  1  0  0  0  0
 28 26  1  0  0  0  0
 28 27  1  0  0  0  0
 30 27  1  0  0  0  0
 33 28  1  0  0  0  0
 34  6  1  0  0  0  0
 35 34  1  0  0  0  0
 36 35  2  0  0  0  0
 37 35  1  0  0  0  0
 37 45  1  0  0  0  0
 38 39  1  0  0  0  0
 38 37  1  0  0  0  0
 40 38  1  0  0  0  0
 40 42  1  0  0  0  0
 41 40  1  0  0  0  0
 42 43  1  0  0  0  0
 43 45  1  0  0  0  0
 44 43  1  0  0  0  0
 45 46  1  0  0  0  0
M  END
>  <minimizedAffinity>
-5.84639168

$$$$

 OpenBabel03242523563D

 46 49  0  0  1  0  0  0  0  0999 V2000
   37.0340   30.5430   41.5730 C   0  0  1  0  0  0  0  0  0  0  0  0
   37.0140   29.0750   41.1700 C   0  0  1  0  0  0  0  0  0  0  0  0
   37.3610   28.9920   39.8050 O   0  0  0  0  0  0  0  0  0  0  0  0
   36.8480   30.0560   39.0570 C   0  0  0  0  0  0  0  0  0  0  0  0
   37.5280   31.3660   39.3950 C   0  0  2  0  0  0  0  0  0  0  0  0
   38.1610   31.1740   40.8180 C   0  0  1  0  0  0  0  0  0  0  0  0
   37.1940   30.6380   42.6740 H   0  0  0  0  0  0  0  0  0  0  0  0
   36.0670   28.5720   41.3800 H   0  0  0  0  0  0  0  0  0  0  0  0
   35.7360   30.1270   39.1230 H   0  0  0  0  0  0  0  0  0  0  0  0
   37.0470   29.7790   38.0010 H   0  0  0  0  0  0  0  0  0  0  0  0
   38.3260   31.6290   38.6810 H   0  0  0  0  0  0  0  0  0  0  0  0
   38.9330   30.4110   40.4810 H   0  0  0  0  0  0  0  0  0  0  0  0
   35.8170   31.1610   41.2570 O   0  0  0  0  0  0  0  0  0  0  0  0
   35.6280   31.9060   41.8760 H   0  0  0  0  0  0  0  0  0  0  0  0
   36.5740   32.3610   39.5410 O   0  0  0  0  0  0  0  0  0  0  0  0
   36.9310   33.1570   40.0110 H   0  0  0  0  0  0  0  0  0  0  0  0
   38.1240   28.5060   41.8290 O   0  0  0  0  0  0  0  0  0  0  0  0
   38.6310   27.3000   41.5550 C   0  0  0  0  0  0  0  0  0  0  0  0
   37.8240   26.1530   41.5660 C   0  0  0  0  0  0  0  0  0  0  0  0
   38.4050   24.9320   41.2720 C   0  0  0  0  0  0  0  0  0  0  0  0
   39.7580   24.8750   40.9790 N   0  0  0  0  0  0  0  0  0  0  0  0
   40.5040   26.0020   40.9800 C   0  0  0  0  0  0  0  0  0  0  0  0
   39.9470   27.2050   41.2660 N   0  0  0  0  0  0  0  0  0  0  0  0
   36.7780   26.2100   41.7940 H   0  0  0  0  0  0  0  0  0  0  0  0
   41.5620   25.9400   40.7490 H   0  0  0  0  0  0  0  0  0  0  0  0
   37.6120   23.6630   41.2840 C   0  0  0  0  0  0  0  0  0  0  0  0
   36.3050   23.6620   40.4920 C   0  0  0  0  0  0  0  0  0  0  0  0
   37.5450   22.8250   40.1300 C   0  0  0  0  0  0  0  0  0  0  0  0
   37.5550   23.2240   42.3130 H   0  0  0  0  0  0  0  0  0  0  0  0
   36.1060   24.5940   39.9430 H   0  0  0  0  0  0  0  0  0  0  0  0
   35.4720   23.1610   40.9800 H   0  0  0  0  0  0  0  0  0  0  0  0
   37.3850   21.7540   40.2450 H   0  0  0  0  0  0  0  0  0  0  0  0
   38.0130   23.1900   39.1770 H   0  0  0  0  0  0  0  0  0  0  0  0
   38.5700   32.3830   41.2420 O   0  0  0  0  0  0  0  0  0  0  0  0
   39.3030   33.3120   40.5990 C   0  0  0  0  0  0  0  0  0  0  0  0
   38.8280   34.4970   40.3150 O   0  0  0  0  0  0  0  0  0  0  0  0
   40.5700   33.7370   39.9510 C   0  0  0  0  0  3  0  0  0  0  0  0
   41.7810   33.4470   40.7880 C   0  0  0  0  0  3  0  0  0  0  0  0
   42.0210   32.3640   40.8150 H   0  0  0  0  0  0  0  0  0  0  0  0
   42.9200   34.1610   40.0850 C   0  0  0  0  0  3  0  0  0  0  0  0
   42.6120   35.2450   40.0700 H   0  0  0  0  0  0  0  0  0  0  0  0
   43.1020   33.6470   38.8220 O   0  0  0  0  0  0  0  0  0  0  0  0
   41.9940   33.7850   38.0050 C   0  0  0  0  0  3  0  0  0  0  0  0
   41.6970   34.8670   38.0040 H   0  0  0  0  0  0  0  0  0  0  0  0
   40.7960   33.0660   38.6170 C   0  0  0  0  0  3  0  0  0  0  0  0
   40.9940   31.9830   38.7300 H   0  0  0  0  0  0  0  0  0  0  0  0
  1  7  1  1  0  0  0
  2  8  1  1  0  0  0
  2  1  1  0  0  0  0
  2 17  1  0  0  0  0
  3  2  1  0  0  0  0
  4  9  1  0  0  0  0
  4  5  1  0  0  0  0
  4  3  1  0  0  0  0
  5 11  1  6  0  0  0
  5 15  1  0  0  0  0
  5  6  1  0  0  0  0
  6 12  1  6  0  0  0
  6 34  1  0  0  0  0
  6  1  1  0  0  0  0
 10  4  1  0  0  0  0
 13  1  1  0  0  0  0
 13 14  1  0  0  0  0
 15 16  1  0  0  0  0
 18 19  1  0  0  0  0
 18 17  1  0  0  0  0
 19 24  1  0  0  0  0
 20 26  1  0  0  0  0
 20 19  2  0  0  0  0
 21 22  2  0  0  0  0
 21 20  1  0  0  0  0
 22 23  1  0  0  0  0
 23 18  2  0  0  0  0
 25 22  1  0  0  0  0
 26 29  1  0  0  0  0
 27 31  1  0  0  0  0
 27 26  1  0  0  0  0
 28 32  1  0  0  0  0
 28 27  1  0  0  0  0
 28 26  1  0  0  0  0
 30 27  1  0  0  0  0
 33 28  1  0  0  0  0
 35 34  1  0  0  0  0
 36 35  2  0  0  0  0
 37 35  1  0  0  0  0
 37 38  1  0  0  0  0
 38 39  1  0  0  0  0
 40 38  1  0  0  0  0
 41 40  1  0  0  0  0
 42 40  1  0  0  0  0
 43 45  1  0  0  0  0
 43 42  1  0  0  0  0
 44 43  1  0  0  0  0
 45 46  1  0  0  0  0
 45 37  1  0  0  0  0
M  END
>  <minimizedAffinity>
-5.84582806

$$$$

 OpenBabel03242523563D

 46 49  0  0  1  0  0  0  0  0999 V2000
   38.3180   31.9250   39.0650 C   0  0  1  0  0  0  0  0  0  0  0  0
   38.0620   30.4800   39.4690 C   0  0  1  0  0  0  0  0  0  0  0  0
   39.1020   29.6880   38.9410 O   0  0  0  0  0  0  0  0  0  0  0  0
   39.5210   30.1260   37.6810 C   0  0  0  0  0  0  0  0  0  0  0  0
   40.2480   31.4520   37.7560 C   0  0  2  0  0  0  0  0  0  0  0  0
   39.8000   32.1190   39.1040 C   0  0  1  0  0  0  0  0  0  0  0  0
   37.8090   32.6200   39.7760 H   0  0  0  0  0  0  0  0  0  0  0  0
   37.0770   30.1070   39.1750 H   0  0  0  0  0  0  0  0  0  0  0  0
   38.6910   30.1400   36.9350 H   0  0  0  0  0  0  0  0  0  0  0  0
   40.2060   29.3310   37.3210 H   0  0  0  0  0  0  0  0  0  0  0  0
   41.3450   31.3380   37.7600 H   0  0  0  0  0  0  0  0  0  0  0  0
   40.3160   31.3560   39.7690 H   0  0  0  0  0  0  0  0  0  0  0  0
   37.8170   32.1780   37.7800 O   0  0  0  0  0  0  0  0  0  0  0  0
   37.5540   33.1240   37.6840 H   0  0  0  0  0  0  0  0  0  0  0  0
   39.7890   32.2910   36.7530 O   0  0  0  0  0  0  0  0  0  0  0  0
   40.0310   33.2380   36.9150 H   0  0  0  0  0  0  0  0  0  0  0  0
   38.2950   30.4500   40.8600 O   0  0  0  0  0  0  0  0  0  0  0  0
   38.1030   29.3790   41.6360 C   0  0  0  0  0  0  0  0  0  0  0  0
   39.1690   28.7820   42.3280 C   0  0  0  0  0  0  0  0  0  0  0  0
   38.9090   27.6760   43.1170 C   0  0  0  0  0  0  0  0  0  0  0  0
   37.6140   27.1890   43.2030 N   0  0  0  0  0  0  0  0  0  0  0  0
   36.6130   27.7900   42.5200 C   0  0  0  0  0  0  0  0  0  0  0  0
   36.8540   28.8750   41.7430 N   0  0  0  0  0  0  0  0  0  0  0  0
   40.1660   29.1670   42.2540 H   0  0  0  0  0  0  0  0  0  0  0  0
   35.6060   27.3970   42.5980 H   0  0  0  0  0  0  0  0  0  0  0  0
   39.9970   26.9750   43.8670 C   0  0  0  0  0  0  0  0  0  0  0  0
   40.4430   25.6170   43.3250 C   0  0  0  0  0  0  0  0  0  0  0  0
   41.3190   26.8830   43.3340 C   0  0  0  0  0  0  0  0  0  0  0  0
   39.8300   27.0230   44.9740 H   0  0  0  0  0  0  0  0  0  0  0  0
   39.9440   25.3160   42.3930 H   0  0  0  0  0  0  0  0  0  0  0  0
   40.6280   24.8580   44.0820 H   0  0  0  0  0  0  0  0  0  0  0  0
   42.1720   26.8060   44.0070 H   0  0  0  0  0  0  0  0  0  0  0  0
   41.5000   27.2540   42.2910 H   0  0  0  0  0  0  0  0  0  0  0  0
   40.2440   33.3900   39.0900 O   0  0  0  0  0  0  0  0  0  0  0  0
   41.4770   33.8670   39.3470 C   0  0  0  0  0  0  0  0  0  0  0  0
   42.1630   34.5330   38.4540 O   0  0  0  0  0  0  0  0  0  0  0  0
   42.6260   34.0500   40.2700 C   0  0  0  0  0  3  0  0  0  0  0  0
   42.5950   33.1060   41.4370 C   0  0  0  0  0  3  0  0  0  0  0  0
   42.8460   32.0670   41.1410 H   0  0  0  0  0  0  0  0  0  0  0  0
   43.6840   33.6040   42.3680 C   0  0  0  0  0  3  0  0  0  0  0  0
   43.3880   34.6630   42.6150 H   0  0  0  0  0  0  0  0  0  0  0  0
   44.9130   33.5300   41.7520 O   0  0  0  0  0  0  0  0  0  0  0  0
   45.0010   34.2990   40.6050 C   0  0  0  0  0  3  0  0  0  0  0  0
   44.7000   35.3470   40.8650 H   0  0  0  0  0  0  0  0  0  0  0  0
   43.9590   33.8470   39.5870 C   0  0  0  0  0  3  0  0  0  0  0  0
   44.1150   32.7910   39.2950 H   0  0  0  0  0  0  0  0  0  0  0  0
  1  6  1  0  0  0  0
  1  2  1  0  0  0  0
  1  7  1  1  0  0  0
  2  8  1  6  0  0  0
  2 17  1  0  0  0  0
  3  2  1  0  0  0  0
  4  5  1  0  0  0  0
  4  3  1  0  0  0  0
  5 11  1  6  0  0  0
  5  6  1  0  0  0  0
  6 12  1  1  0  0  0
  9  4  1  0  0  0  0
 10  4  1  0  0  0  0
 13  1  1  0  0  0  0
 14 13  1  0  0  0  0
 15 16  1  0  0  0  0
 15  5  1  0  0  0  0
 17 18  1  0  0  0  0
 18 23  2  0  0  0  0
 18 19  1  0  0  0  0
 19 20  2  0  0  0  0
 20 21  1  0  0  0  0
 20 26  1  0  0  0  0
 22 25  1  0  0  0  0
 22 21  2  0  0  0  0
 23 22  1  0  0  0  0
 24 19  1  0  0  0  0
 26 29  1  0  0  0  0
 27 28  1  0  0  0  0
 27 26  1  0  0  0  0
 27 31  1  0  0  0  0
 28 26  1  0  0  0  0
 28 32  1  0  0  0  0
 30 27  1  0  0  0  0
 33 28  1  0  0  0  0
 34  6  1  0  0  0  0
 34 35  1  0  0  0  0
 35 37  1  0  0  0  0
 36 35  2  0  0  0  0
 37 38  1  0  0  0  0
 38 40  1  0  0  0  0
 39 38  1  0  0  0  0
 40 41  1  0  0  0  0
 42 40  1  0  0  0  0
 43 44  1  0  0  0  0
 43 42  1  0  0  0  0
 45 37  1  0  0  0  0
 45 43  1  0  0  0  0
 46 45  1  0  0  0  0
M  END
>  <minimizedAffinity>
-5.81899786

$$$$

 OpenBabel03242523563D

 46 49  0  0  1  0  0  0  0  0999 V2000
   37.8960   29.3960   40.0580 C   0  0  1  0  0  0  0  0  0  0  0  0
   38.5080   30.2600   38.9650 C   0  0  1  0  0  0  0  0  0  0  0  0
   38.0600   31.5840   39.1530 O   0  0  0  0  0  0  0  0  0  0  0  0
   36.7370   31.6420   39.6000 C   0  0  0  0  0  0  0  0  0  0  0  0
   36.5980   31.1420   41.0230 C   0  0  2  0  0  0  0  0  0  0  0  0
   37.8540   30.2400   41.2920 C   0  0  1  0  0  0  0  0  0  0  0  0
   38.5200   28.4850   40.2240 H   0  0  0  0  0  0  0  0  0  0  0  0
   38.3050   29.9010   37.9530 H   0  0  0  0  0  0  0  0  0  0  0  0
   36.0270   31.1370   38.9030 H   0  0  0  0  0  0  0  0  0  0  0  0
   36.4680   32.7170   39.5420 H   0  0  0  0  0  0  0  0  0  0  0  0
   36.5790   31.9590   41.7630 H   0  0  0  0  0  0  0  0  0  0  0  0
   38.6010   31.0960   41.2530 H   0  0  0  0  0  0  0  0  0  0  0  0
   36.6080   28.9780   39.6980 O   0  0  0  0  0  0  0  0  0  0  0  0
   36.3890   28.1110   40.1140 H   0  0  0  0  0  0  0  0  0  0  0  0
   35.5040   30.2960   41.1140 O   0  0  0  0  0  0  0  0  0  0  0  0
   35.5230   29.7450   41.9370 H   0  0  0  0  0  0  0  0  0  0  0  0
   39.8810   30.3260   39.2860 O   0  0  0  0  0  0  0  0  0  0  0  0
   40.8540   30.5680   38.4020 C   0  0  0  0  0  0  0  0  0  0  0  0
   41.5300   31.7970   38.3840 C   0  0  0  0  0  0  0  0  0  0  0  0
   42.5290   31.9890   37.4460 C   0  0  0  0  0  0  0  0  0  0  0  0
   42.8330   30.9710   36.5560 N   0  0  0  0  0  0  0  0  0  0  0  0
   42.1580   29.8000   36.6040 C   0  0  0  0  0  0  0  0  0  0  0  0
   41.1770   29.5990   37.5180 N   0  0  0  0  0  0  0  0  0  0  0  0
   41.2860   32.5770   39.0770 H   0  0  0  0  0  0  0  0  0  0  0  0
   42.4080   29.0140   35.9000 H   0  0  0  0  0  0  0  0  0  0  0  0
   43.2790   33.2810   37.3530 C   0  0  0  0  0  0  0  0  0  0  0  0
   42.5490   34.5360   37.8300 C   0  0  0  0  0  0  0  0  0  0  0  0
   43.7810   33.9260   38.5230 C   0  0  0  0  0  0  0  0  0  0  0  0
   43.8150   33.3750   36.3740 H   0  0  0  0  0  0  0  0  0  0  0  0
   41.5500   34.3480   38.2480 H   0  0  0  0  0  0  0  0  0  0  0  0
   42.6930   35.4160   37.2060 H   0  0  0  0  0  0  0  0  0  0  0  0
   44.6640   34.5610   38.4570 H   0  0  0  0  0  0  0  0  0  0  0  0
   43.5100   33.5020   39.5260 H   0  0  0  0  0  0  0  0  0  0  0  0
   37.6460   29.5990   42.4570 O   0  0  0  0  0  0  0  0  0  0  0  0
   37.5240   28.2790   42.6960 C   0  0  0  0  0  0  0  0  0  0  0  0
   36.3630   27.6790   42.7010 O   0  0  0  0  0  0  0  0  0  0  0  0
   38.1330   26.9590   43.0010 C   0  0  0  0  0  3  0  0  0  0  0  0
   37.9590   25.9640   41.8920 C   0  0  0  0  0  3  0  0  0  0  0  0
   38.6050   26.1920   41.0190 H   0  0  0  0  0  0  0  0  0  0  0  0
   38.4160   24.6420   42.4800 C   0  0  0  0  0  3  0  0  0  0  0  0
   37.7420   24.4750   43.3680 H   0  0  0  0  0  0  0  0  0  0  0  0
   39.7450   24.7080   42.8310 O   0  0  0  0  0  0  0  0  0  0  0  0
   40.0160   25.6720   43.7860 C   0  0  0  0  0  3  0  0  0  0  0  0
   39.3350   25.4960   44.6600 H   0  0  0  0  0  0  0  0  0  0  0  0
   39.6170   27.0510   43.2690 C   0  0  0  0  0  3  0  0  0  0  0  0
   40.1840   27.3160   42.3560 H   0  0  0  0  0  0  0  0  0  0  0  0
  1  7  1  1  0  0  0
  1  6  1  0  0  0  0
  2  8  1  6  0  0  0
  2  3  1  0  0  0  0
  2 17  1  0  0  0  0
  2  1  1  0  0  0  0
  3  4  1  0  0  0  0
  4  5  1  0  0  0  0
  5 15  1  0  0  0  0
  5  6  1  0  0  0  0
  5 11  1  1  0  0  0
  6 12  1  1  0  0  0
  6 34  1  0  0  0  0
  9  4  1  0  0  0  0
 10  4  1  0  0  0  0
 13  1  1  0  0  0  0
 13 14  1  0  0  0  0
 15 16  1  0  0  0  0
 18 17  1  0  0  0  0
 19 18  1  0  0  0  0
 19 24  1  0  0  0  0
 20 19  2  0  0  0  0
 21 22  2  0  0  0  0
 21 20  1  0  0  0  0
 22 23  1  0  0  0  0
 23 18  2  0  0  0  0
 25 22  1  0  0  0  0
 26 20  1  0  0  0  0
 26 27  1  0  0  0  0
 26 28  1  0  0  0  0
 27 30  1  0  0  0  0
 27 28  1  0  0  0  0
 28 33  1  0  0  0  0
 29 26  1  0  0  0  0
 31 27  1  0  0  0  0
 32 28  1  0  0  0  0
 34 35  1  0  0  0  0
 35 36  2  0  0  0  0
 35 37  1  0  0  0  0
 37 45  1  0  0  0  0
 38 40  1  0  0  0  0
 38 37  1  0  0  0  0
 39 38  1  0  0  0  0
 40 42  1  0  0  0  0
 40 41  1  0  0  0  0
 42 43  1  0  0  0  0
 43 44  1  0  0  0  0
 45 43  1  0  0  0  0
 46 45  1  0  0  0  0
M  END
>  <minimizedAffinity>
-5.75957012

$$$$

 OpenBabel03242523563D

 46 49  0  0  1  0  0  0  0  0999 V2000
   38.8540   31.4760   39.9350 C   0  0  1  0  0  0  0  0  0  0  0  0
   39.7440   32.2290   40.9140 C   0  0  1  0  0  0  0  0  0  0  0  0
   39.1640   33.4940   41.1480 O   0  0  0  0  0  0  0  0  0  0  0  0
   38.5670   34.0280   40.0020 C   0  0  0  0  0  0  0  0  0  0  0  0
   37.3200   33.2660   39.6040 C   0  0  2  0  0  0  0  0  0  0  0  0
   37.4450   31.8500   40.2700 C   0  0  1  0  0  0  0  0  0  0  0  0
   39.0070   30.3760   40.0440 H   0  0  0  0  0  0  0  0  0  0  0  0
   40.7840   32.3130   40.5900 H   0  0  0  0  0  0  0  0  0  0  0  0
   39.2860   34.1340   39.1550 H   0  0  0  0  0  0  0  0  0  0  0  0
   38.3090   35.0710   40.2800 H   0  0  0  0  0  0  0  0  0  0  0  0
   36.3940   33.7480   39.9590 H   0  0  0  0  0  0  0  0  0  0  0  0
   37.3430   32.2320   41.3350 H   0  0  0  0  0  0  0  0  0  0  0  0
   39.1600   31.8270   38.6140 O   0  0  0  0  0  0  0  0  0  0  0  0
   38.9650   31.0830   37.9960 H   0  0  0  0  0  0  0  0  0  0  0  0
   37.3300   33.0390   38.2370 O   0  0  0  0  0  0  0  0  0  0  0  0
   36.6890   32.3320   37.9690 H   0  0  0  0  0  0  0  0  0  0  0  0
   39.5770   31.5560   42.1420 O   0  0  0  0  0  0  0  0  0  0  0  0
   39.7920   30.2490   42.3240 C   0  0  0  0  0  0  0  0  0  0  0  0
   38.7870   29.4120   42.8330 C   0  0  0  0  0  0  0  0  0  0  0  0
   39.0680   28.0670   42.9980 C   0  0  0  0  0  0  0  0  0  0  0  0
   40.3230   27.5860   42.6600 N   0  0  0  0  0  0  0  0  0  0  0  0
   41.2660   28.4250   42.1730 C   0  0  0  0  0  0  0  0  0  0  0  0
   41.0040   29.7450   42.0070 N   0  0  0  0  0  0  0  0  0  0  0  0
   37.8200   29.7950   43.0910 H   0  0  0  0  0  0  0  0  0  0  0  0
   42.2430   28.0330   41.9150 H   0  0  0  0  0  0  0  0  0  0  0  0
   38.0540   27.1170   43.5540 C   0  0  0  0  0  0  0  0  0  0  0  0
   36.6720   27.6920   43.8670 C   0  0  0  0  0  0  0  0  0  0  0  0
   36.9590   26.6610   42.7600 C   0  0  0  0  0  0  0  0  0  0  0  0
   38.4970   26.4620   44.3480 H   0  0  0  0  0  0  0  0  0  0  0  0
   36.5500   28.7500   43.5970 H   0  0  0  0  0  0  0  0  0  0  0  0
   36.2280   27.3390   44.7960 H   0  0  0  0  0  0  0  0  0  0  0  0
   36.5120   25.6880   42.9590 H   0  0  0  0  0  0  0  0  0  0  0  0
   36.8120   27.1120   41.7430 H   0  0  0  0  0  0  0  0  0  0  0  0
   36.4740   31.0760   39.7520 O   0  0  0  0  0  0  0  0  0  0  0  0
   36.2400   29.7620   39.9350 C   0  0  0  0  0  0  0  0  0  0  0  0
   35.4510   29.3230   40.8810 O   0  0  0  0  0  0  0  0  0  0  0  0
   36.4540   28.3440   39.5470 C   0  0  0  0  0  3  0  0  0  0  0  0
   35.7900   27.9860   38.2500 C   0  0  0  0  0  3  0  0  0  0  0  0
   36.3130   28.4260   37.3770 H   0  0  0  0  0  0  0  0  0  0  0  0
   35.9120   26.4760   38.1560 C   0  0  0  0  0  3  0  0  0  0  0  0
   35.3850   26.0890   39.0740 H   0  0  0  0  0  0  0  0  0  0  0  0
   37.2350   26.1030   38.1110 O   0  0  0  0  0  0  0  0  0  0  0  0
   37.9530   26.4820   39.2320 C   0  0  0  0  0  3  0  0  0  0  0  0
   37.4150   26.0930   40.1360 H   0  0  0  0  0  0  0  0  0  0  0  0
   37.9160   27.9980   39.3940 C   0  0  0  0  0  3  0  0  0  0  0  0
   38.3700   28.5050   38.5200 H   0  0  0  0  0  0  0  0  0  0  0  0
  1  7  1  1  0  0  0
  1  6  1  0  0  0  0
  1  2  1  0  0  0  0
  2  8  1  6  0  0  0
  2  3  1  0  0  0  0
  2 17  1  0  0  0  0
  4 10  1  0  0  0  0
  4  3  1  0  0  0  0
  5 11  1  1  0  0  0
  5  4  1  0  0  0  0
  5  6  1  0  0  0  0
  6 12  1  1  0  0  0
  9  4  1  0  0  0  0
 13  1  1  0  0  0  0
 14 13  1  0  0  0  0
 15  5  1  0  0  0  0
 16 15  1  0  0  0  0
 17 18  1  0  0  0  0
 18 19  1  0  0  0  0
 19 20  2  0  0  0  0
 19 24  1  0  0  0  0
 20 26  1  0  0  0  0
 21 20  1  0  0  0  0
 22 21  2  0  0  0  0
 23 22  1  0  0  0  0
 23 18  2  0  0  0  0
 25 22  1  0  0  0  0
 26 27  1  0  0  0  0
 26 29  1  0  0  0  0
 27 31  1  0  0  0  0
 28 32  1  0  0  0  0
 28 26  1  0  0  0  0
 28 27  1  0  0  0  0
 30 27  1  0  0  0  0
 33 28  1  0  0  0  0
 34 35  1  0  0  0  0
 34  6  1  0  0  0  0
 35 36  2  0  0  0  0
 37 35  1  0  0  0  0
 38 37  1  0  0  0  0
 39 38  1  0  0  0  0
 40 38  1  0  0  0  0
 40 41  1  0  0  0  0
 42 40  1  0  0  0  0
 42 43  1  0  0  0  0
 43 45  1  0  0  0  0
 43 44  1  0  0  0  0
 45 37  1  0  0  0  0
 46 45  1  0  0  0  0
M  END
>  <minimizedAffinity>
-5.75636721

$$$$

 OpenBabel03242523563D

 46 49  0  0  1  0  0  0  0  0999 V2000
   37.6420   31.6380   40.1190 C   0  0  1  0  0  0  0  0  0  0  0  0
   37.9330   31.6760   38.6260 C   0  0  1  0  0  0  0  0  0  0  0  0
   39.1960   32.2750   38.4410 O   0  0  0  0  0  0  0  0  0  0  0  0
   39.4350   33.3100   39.3510 C   0  0  0  0  0  0  0  0  0  0  0  0
   39.6220   32.7920   40.7620 C   0  0  2  0  0  0  0  0  0  0  0  0
   38.9490   31.3750   40.7980 C   0  0  1  0  0  0  0  0  0  0  0  0
   36.9080   30.8290   40.3490 H   0  0  0  0  0  0  0  0  0  0  0  0
   37.1570   32.1730   38.0380 H   0  0  0  0  0  0  0  0  0  0  0  0
   38.6640   34.1150   39.2950 H   0  0  0  0  0  0  0  0  0  0  0  0
   40.3680   33.7910   38.9900 H   0  0  0  0  0  0  0  0  0  0  0  0
   40.6840   32.6910   41.0410 H   0  0  0  0  0  0  0  0  0  0  0  0
   39.7040   30.8880   40.1030 H   0  0  0  0  0  0  0  0  0  0  0  0
   37.0950   32.8540   40.5500 O   0  0  0  0  0  0  0  0  0  0  0  0
   36.5030   32.7190   41.3280 H   0  0  0  0  0  0  0  0  0  0  0  0
   38.8950   33.5750   41.6440 O   0  0  0  0  0  0  0  0  0  0  0  0
   38.7700   33.1330   42.5230 H   0  0  0  0  0  0  0  0  0  0  0  0
   38.1490   30.3290   38.2680 O   0  0  0  0  0  0  0  0  0  0  0  0
   37.2010   29.3860   38.2620 C   0  0  0  0  0  0  0  0  0  0  0  0
   37.3990   28.1530   38.9010 C   0  0  0  0  0  0  0  0  0  0  0  0
   36.3810   27.2170   38.8620 C   0  0  0  0  0  0  0  0  0  0  0  0
   35.2030   27.5180   38.1970 N   0  0  0  0  0  0  0  0  0  0  0  0
   35.0500   28.7170   37.5910 C   0  0  0  0  0  0  0  0  0  0  0  0
   36.0400   29.6440   37.6220 N   0  0  0  0  0  0  0  0  0  0  0  0
   38.3140   27.9310   39.4120 H   0  0  0  0  0  0  0  0  0  0  0  0
   34.1220   28.9370   37.0750 H   0  0  0  0  0  0  0  0  0  0  0  0
   36.5270   25.8720   39.5030 C   0  0  0  0  0  0  0  0  0  0  0  0
   37.9520   25.3500   39.6890 C   0  0  0  0  0  0  0  0  0  0  0  0
   37.0100   25.7430   40.8410 C   0  0  0  0  0  0  0  0  0  0  0  0
   35.7920   25.1360   39.0880 H   0  0  0  0  0  0  0  0  0  0  0  0
   38.7370   26.0520   39.3720 H   0  0  0  0  0  0  0  0  0  0  0  0
   38.0850   24.2920   39.4720 H   0  0  0  0  0  0  0  0  0  0  0  0
   36.7030   24.8930   41.4490 H   0  0  0  0  0  0  0  0  0  0  0  0
   37.3800   26.6630   41.3660 H   0  0  0  0  0  0  0  0  0  0  0  0
   38.8940   30.9900   42.0860 O   0  0  0  0  0  0  0  0  0  0  0  0
   38.9450   29.7500   42.6100 C   0  0  0  0  0  0  0  0  0  0  0  0
   37.9740   29.2630   43.3380 O   0  0  0  0  0  0  0  0  0  0  0  0
   39.6530   28.4590   42.8090 C   0  0  0  0  0  3  0  0  0  0  0  0
   38.8190   27.4400   43.5300 C   0  0  0  0  0  3  0  0  0  0  0  0
   38.0100   27.0330   42.8900 H   0  0  0  0  0  0  0  0  0  0  0  0
   39.7780   26.3090   43.8480 C   0  0  0  0  0  3  0  0  0  0  0  0
   40.5830   26.7840   44.4780 H   0  0  0  0  0  0  0  0  0  0  0  0
   40.2720   25.7580   42.6890 O   0  0  0  0  0  0  0  0  0  0  0  0
   40.9780   26.6570   41.9080 C   0  0  0  0  0  3  0  0  0  0  0  0
   41.7710   27.1240   42.5490 H   0  0  0  0  0  0  0  0  0  0  0  0
   40.0800   27.8230   41.5070 C   0  0  0  0  0  3  0  0  0  0  0  0
   39.2130   27.4760   40.9150 H   0  0  0  0  0  0  0  0  0  0  0  0
  1  7  1  1  0  0  0
  1 13  1  0  0  0  0
  1  6  1  0  0  0  0
  2  8  1  6  0  0  0
  2  1  1  0  0  0  0
  3  2  1  0  0  0  0
  3  4  1  0  0  0  0
  4  5  1  0  0  0  0
  5  6  1  0  0  0  0
  5 11  1  1  0  0  0
  5 15  1  0  0  0  0
  6 12  1  6  0  0  0
  6 34  1  0  0  0  0
  9  4  1  0  0  0  0
 10  4  1  0  0  0  0
 13 14  1  0  0  0  0
 15 16  1  0  0  0  0
 17  2  1  0  0  0  0
 18 17  1  0  0  0  0
 18 19  1  0  0  0  0
 19 24  1  0  0  0  0
 20 19  2  0  0  0  0
 20 26  1  0  0  0  0
 21 20  1  0  0  0  0
 22 23  1  0  0  0  0
 22 21  2  0  0  0  0
 23 18  2  0  0  0  0
 25 22  1  0  0  0  0
 26 27  1  0  0  0  0
 26 28  1  0  0  0  0
 27 28  1  0  0  0  0
 28 33  1  0  0  0  0
 28 32  1  0  0  0  0
 29 26  1  0  0  0  0
 30 27  1  0  0  0  0
 31 27  1  0  0  0  0
 34 35  1  0  0  0  0
 35 37  1  0  0  0  0
 35 36  2  0  0  0  0
 37 38  1  0  0  0  0
 38 40  1  0  0  0  0
 39 38  1  0  0  0  0
 40 41  1  0  0  0  0
 42 40  1  0  0  0  0
 43 44  1  0  0  0  0
 43 42  1  0  0  0  0
 45 43  1  0  0  0  0
 45 37  1  0  0  0  0
 46 45  1  0  0  0  0
M  END
>  <minimizedAffinity>
-5.70708704

$$$$

 OpenBabel03242523563D

 46 49  0  0  1  0  0  0  0  0999 V2000
   39.3920   30.7050   40.2040 C   0  0  1  0  0  0  0  0  0  0  0  0
   40.3920   30.8160   41.3460 C   0  0  1  0  0  0  0  0  0  0  0  0
   40.7640   32.1710   41.4700 O   0  0  0  0  0  0  0  0  0  0  0  0
   40.8560   32.8150   40.2330 C   0  0  0  0  0  0  0  0  0  0  0  0
   39.4980   33.0010   39.5890 C   0  0  2  0  0  0  0  0  0  0  0  0
   38.5520   31.9410   40.2540 C   0  0  1  0  0  0  0  0  0  0  0  0
   38.7610   29.7930   40.3320 H   0  0  0  0  0  0  0  0  0  0  0  0
   41.2610   30.1630   41.2360 H   0  0  0  0  0  0  0  0  0  0  0  0
   41.5850   32.3220   39.5470 H   0  0  0  0  0  0  0  0  0  0  0  0
   41.3120   33.8010   40.4630 H   0  0  0  0  0  0  0  0  0  0  0  0
   39.0810   34.0080   39.7570 H   0  0  0  0  0  0  0  0  0  0  0  0
   38.5640   32.4270   41.2820 H   0  0  0  0  0  0  0  0  0  0  0  0
   40.0530   30.6040   38.9720 O   0  0  0  0  0  0  0  0  0  0  0  0
   39.5130   30.0950   38.3220 H   0  0  0  0  0  0  0  0  0  0  0  0
   39.5670   32.6530   38.2500 O   0  0  0  0  0  0  0  0  0  0  0  0
   38.6700   32.5050   37.8540 H   0  0  0  0  0  0  0  0  0  0  0  0
   39.6350   30.5720   42.5110 O   0  0  0  0  0  0  0  0  0  0  0  0
   39.0950   29.3910   42.8290 C   0  0  0  0  0  0  0  0  0  0  0  0
   39.9000   28.2780   43.1150 C   0  0  0  0  0  0  0  0  0  0  0  0
   39.2840   27.0820   43.4390 C   0  0  0  0  0  0  0  0  0  0  0  0
   37.9000   27.0150   43.4730 N   0  0  0  0  0  0  0  0  0  0  0  0
   37.1580   28.1100   43.1910 C   0  0  0  0  0  0  0  0  0  0  0  0
   37.7490   29.2880   42.8710 N   0  0  0  0  0  0  0  0  0  0  0  0
   40.9690   28.3410   43.0850 H   0  0  0  0  0  0  0  0  0  0  0  0
   36.0770   28.0400   43.2210 H   0  0  0  0  0  0  0  0  0  0  0  0
   40.0760   25.8470   43.7360 C   0  0  0  0  0  0  0  0  0  0  0  0
   39.5750   24.5430   43.1160 C   0  0  0  0  0  0  0  0  0  0  0  0
   40.8940   25.2390   42.7360 C   0  0  0  0  0  0  0  0  0  0  0  0
   40.3610   25.7920   44.8180 H   0  0  0  0  0  0  0  0  0  0  0  0
   38.6980   24.6590   42.4630 H   0  0  0  0  0  0  0  0  0  0  0  0
   39.6220   23.6750   43.7720 H   0  0  0  0  0  0  0  0  0  0  0  0
   41.7760   24.6700   43.0280 H   0  0  0  0  0  0  0  0  0  0  0  0
   40.8490   25.6430   41.6900 H   0  0  0  0  0  0  0  0  0  0  0  0
   37.4070   31.9240   39.5470 O   0  0  0  0  0  0  0  0  0  0  0  0
   36.5730   30.8970   39.2950 C   0  0  0  0  0  0  0  0  0  0  0  0
   35.8150   30.3740   40.2240 O   0  0  0  0  0  0  0  0  0  0  0  0
   35.9880   29.9070   38.3540 C   0  0  0  0  0  3  0  0  0  0  0  0
   37.0190   29.0110   37.7320 C   0  0  0  0  0  3  0  0  0  0  0  0
   37.4160   28.2670   38.4530 H   0  0  0  0  0  0  0  0  0  0  0  0
   36.2750   28.2590   36.6460 C   0  0  0  0  0  3  0  0  0  0  0  0
   35.8790   29.0620   35.9610 H   0  0  0  0  0  0  0  0  0  0  0  0
   35.2720   27.4920   37.1930 O   0  0  0  0  0  0  0  0  0  0  0  0
   34.3210   28.2320   37.8740 C   0  0  0  0  0  3  0  0  0  0  0  0
   33.9410   29.0290   37.1820 H   0  0  0  0  0  0  0  0  0  0  0  0
   34.9740   29.0040   39.0160 C   0  0  0  0  0  3  0  0  0  0  0  0
   35.4470   28.3180   39.7440 H   0  0  0  0  0  0  0  0  0  0  0  0
  1  6  1  0  0  0  0
  1  7  1  1  0  0  0
  1  2  1  0  0  0  0
  2  8  1  6  0  0  0
  2  3  1  0  0  0  0
  2 17  1  0  0  0  0
  4 10  1  0  0  0  0
  4  3  1  0  0  0  0
  5 11  1  1  0  0  0
  5  4  1  0  0  0  0
  5  6  1  0  0  0  0
  6 12  1  1  0  0  0
  9  4  1  0  0  0  0
 13  1  1  0  0  0  0
 14 13  1  0  0  0  0
 15  5  1  0  0  0  0
 16 15  1  0  0  0  0
 17 18  1  0  0  0  0
 18 23  2  0  0  0  0
 18 19  1  0  0  0  0
 19 20  2  0  0  0  0
 20 21  1  0  0  0  0
 20 26  1  0  0  0  0
 22 25  1  0  0  0  0
 22 21  2  0  0  0  0
 23 22  1  0  0  0  0
 24 19  1  0  0  0  0
 26 29  1  0  0  0  0
 27 26  1  0  0  0  0
 27 31  1  0  0  0  0
 28 32  1  0  0  0  0
 28 27  1  0  0  0  0
 28 26  1  0  0  0  0
 30 27  1  0  0  0  0
 33 28  1  0  0  0  0
 34  6  1  0  0  0  0
 35 34  1  0  0  0  0
 35 36  2  0  0  0  0
 37 45  1  0  0  0  0
 37 35  1  0  0  0  0
 38 37  1  0  0  0  0
 38 39  1  0  0  0  0
 40 42  1  0  0  0  0
 40 38  1  0  0  0  0
 41 40  1  0  0  0  0
 42 43  1  0  0  0  0
 43 45  1  0  0  0  0
 44 43  1  0  0  0  0
 45 46  1  0  0  0  0
M  END
>  <minimizedAffinity>
-5.67893887

$$$$

 OpenBabel03242523563D

 46 49  0  0  1  0  0  0  0  0999 V2000
   37.7580   28.9320   39.5260 C   0  0  1  0  0  0  0  0  0  0  0  0
   37.9150   30.3120   38.9050 C   0  0  1  0  0  0  0  0  0  0  0  0
   36.6670   30.6950   38.3700 O   0  0  0  0  0  0  0  0  0  0  0  0
   35.9720   29.6180   37.8120 C   0  0  0  0  0  0  0  0  0  0  0  0
   35.4880   28.6480   38.8690 C   0  0  2  0  0  0  0  0  0  0  0  0
   36.3900   28.8920   40.1300 C   0  0  1  0  0  0  0  0  0  0  0  0
   38.5390   28.7690   40.3070 H   0  0  0  0  0  0  0  0  0  0  0  0
   38.7130   30.3730   38.1610 H   0  0  0  0  0  0  0  0  0  0  0  0
   36.5490   29.1100   37.0030 H   0  0  0  0  0  0  0  0  0  0  0  0
   35.1090   30.0810   37.2900 H   0  0  0  0  0  0  0  0  0  0  0  0
   34.4330   28.8110   39.1460 H   0  0  0  0  0  0  0  0  0  0  0  0
   35.9840   29.9320   40.3430 H   0  0  0  0  0  0  0  0  0  0  0  0
   37.9010   27.9310   38.5550 O   0  0  0  0  0  0  0  0  0  0  0  0
   38.2550   27.1010   38.9540 H   0  0  0  0  0  0  0  0  0  0  0  0
   35.7540   27.3490   38.4650 O   0  0  0  0  0  0  0  0  0  0  0  0
   35.7020   26.7040   39.2150 H   0  0  0  0  0  0  0  0  0  0  0  0
   38.0860   31.1820   40.0020 O   0  0  0  0  0  0  0  0  0  0  0  0
   38.8670   32.2670   39.9930 C   0  0  0  0  0  0  0  0  0  0  0  0
   40.1080   32.2640   39.3380 C   0  0  0  0  0  0  0  0  0  0  0  0
   40.8720   33.4170   39.3620 C   0  0  0  0  0  0  0  0  0  0  0  0
   40.3960   34.5360   40.0270 N   0  0  0  0  0  0  0  0  0  0  0  0
   39.1950   34.5000   40.6480 C   0  0  0  0  0  0  0  0  0  0  0  0
   38.4370   33.3770   40.6320 N   0  0  0  0  0  0  0  0  0  0  0  0
   40.4660   31.3920   38.8270 H   0  0  0  0  0  0  0  0  0  0  0  0
   38.8380   35.3840   41.1640 H   0  0  0  0  0  0  0  0  0  0  0  0
   42.2140   33.4820   38.7030 C   0  0  0  0  0  0  0  0  0  0  0  0
   42.2680   33.1360   37.2160 C   0  0  0  0  0  0  0  0  0  0  0  0
   42.5390   34.5360   37.7960 C   0  0  0  0  0  0  0  0  0  0  0  0
   43.0070   33.0110   39.3390 H   0  0  0  0  0  0  0  0  0  0  0  0
   41.2880   32.9220   36.7650 H   0  0  0  0  0  0  0  0  0  0  0  0
   43.1200   32.5300   36.9150 H   0  0  0  0  0  0  0  0  0  0  0  0
   43.5750   34.8510   37.6790 H   0  0  0  0  0  0  0  0  0  0  0  0
   41.7300   35.2560   37.5030 H   0  0  0  0  0  0  0  0  0  0  0  0
   36.1420   27.8970   41.0000 O   0  0  0  0  0  0  0  0  0  0  0  0
   36.9390   27.3760   41.9520 C   0  0  0  0  0  0  0  0  0  0  0  0
   36.5900   27.3500   43.2130 O   0  0  0  0  0  0  0  0  0  0  0  0
   38.2050   26.7130   42.3590 C   0  0  0  0  0  3  0  0  0  0  0  0
   38.6520   27.1020   43.7380 C   0  0  0  0  0  3  0  0  0  0  0  0
   38.0210   26.6430   44.5260 H   0  0  0  0  0  0  0  0  0  0  0  0
   40.0520   26.5310   43.8670 C   0  0  0  0  0  3  0  0  0  0  0  0
   40.6360   27.0150   43.0330 H   0  0  0  0  0  0  0  0  0  0  0  0
   40.0230   25.1600   43.7640 O   0  0  0  0  0  0  0  0  0  0  0  0
   39.5300   24.7080   42.5530 C   0  0  0  0  0  3  0  0  0  0  0  0
   40.1180   25.2000   41.7340 H   0  0  0  0  0  0  0  0  0  0  0  0
   38.1030   25.2060   42.3470 C   0  0  0  0  0  3  0  0  0  0  0  0
   37.4290   24.8330   43.1410 H   0  0  0  0  0  0  0  0  0  0  0  0
  1  6  1  0  0  0  0
  1  7  1  1  0  0  0
  2  8  1  6  0  0  0
  2  1  1  0  0  0  0
  2 17  1  0  0  0  0
  3  2  1  0  0  0  0
  4  3  1  0  0  0  0
  4  5  1  0  0  0  0
  5 11  1  1  0  0  0
  5  6  1  0  0  0  0
  6 12  1  1  0  0  0
  6 34  1  0  0  0  0
  9  4  1  0  0  0  0
 10  4  1  0  0  0  0
 13 14  1  0  0  0  0
 13  1  1  0  0  0  0
 15  5  1  0  0  0  0
 15 16  1  0  0  0  0
 18 17  1  0  0  0  0
 18 23  1  0  0  0  0
 19 20  1  0  0  0  0
 19 18  2  0  0  0  0
 20 21  2  0  0  0  0
 21 22  1  0  0  0  0
 22 25  1  0  0  0  0
 23 22  2  0  0  0  0
 24 19  1  0  0  0  0
 26 29  1  0  0  0  0
 26 20  1  0  0  0  0
 27 28  1  0  0  0  0
 27 26  1  0  0  0  0
 28 26  1  0  0  0  0
 30 27  1  0  0  0  0
 31 27  1  0  0  0  0
 32 28  1  0  0  0  0
 33 28  1  0  0  0  0
 34 35  1  0  0  0  0
 35 37  1  0  0  0  0
 35 36  2  0  0  0  0
 37 38  1  0  0  0  0
 38 40  1  0  0  0  0
 38 39  1  0  0  0  0
 41 40  1  0  0  0  0
 42 40  1  0  0  0  0
 43 42  1  0  0  0  0
 44 43  1  0  0  0  0
 45 37  1  0  0  0  0
 45 43  1  0  0  0  0
 45 46  1  0  0  0  0
M  END
>  <minimizedAffinity>
-5.63891268

$$$$
