
 OpenBabel03242516533D

 46 49  0  0  1  0  0  0  0  0999 V2000
   47.8340   32.8970   41.8230 C   0  0  1  0  0  0  0  0  0  0  0  0
   47.5260   32.2400   40.5540 C   0  0  0  0  0  0  0  0  0  0  0  0
   48.5400   32.7690   39.5460 C   0  0  0  0  0  0  0  0  0  0  0  0
   48.1930   34.2290   39.3010 C   0  0  0  0  0  0  0  0  0  0  0  0
   48.1150   35.0590   40.5450 C   0  0  0  0  0  0  0  0  0  0  0  0
   47.6200   34.4140   41.7610 C   0  0  1  0  0  0  0  0  0  0  0  0
   48.9510   32.8250   42.0010 H   0  0  0  0  0  0  0  0  0  0  0  0
   46.4870   32.4630   40.2140 H   0  0  0  0  0  0  0  0  0  0  0  0
   47.5970   31.1570   40.6540 H   0  0  0  0  0  0  0  0  0  0  0  0
   49.5410   32.6620   39.9970 H   0  0  0  0  0  0  0  0  0  0  0  0
   48.4020   32.2450   38.5900 H   0  0  0  0  0  0  0  0  0  0  0  0
   47.2400   34.2540   38.7390 H   0  0  0  0  0  0  0  0  0  0  0  0
   48.9690   34.6290   38.6150 H   0  0  0  0  0  0  0  0  0  0  0  0
   49.1390   35.4910   40.7000 H   0  0  0  0  0  0  0  0  0  0  0  0
   47.4810   35.9480   40.3080 H   0  0  0  0  0  0  0  0  0  0  0  0
   48.2090   34.8110   42.6430 H   0  0  0  0  0  0  0  0  0  0  0  0
   45.4260   30.9480   43.9930 C   0  0  0  0  0  0  0  0  0  0  0  0
   46.1050   31.5020   42.9010 C   0  0  0  0  0  0  0  0  0  0  0  0
   47.1970   32.3660   43.0110 C   0  0  0  0  0  0  0  0  0  0  0  0
   47.5770   32.6500   44.2580 N   0  0  0  0  0  0  0  0  0  0  0  0
   46.9290   32.1220   45.3300 C   0  0  0  0  0  0  0  0  0  0  0  0
   45.8870   31.2960   45.2150 N   0  0  0  0  0  0  0  0  0  0  0  0
   44.6000   30.2950   43.7650 H   0  0  0  0  0  0  0  0  0  0  0  0
   45.7840   31.2590   41.8960 H   0  0  0  0  0  0  0  0  0  0  0  0
   47.3040   32.4050   46.3190 H   0  0  0  0  0  0  0  0  0  0  0  0
   46.2320   34.7720   42.0700 C   0  0  0  0  0  0  0  0  0  0  0  0
   45.7740   35.3650   43.2550 C   0  0  0  0  0  0  0  0  0  0  0  0
   44.4050   35.6290   43.3180 C   0  0  0  0  0  0  0  0  0  0  0  0
   43.6290   35.2910   42.2310 C   0  0  0  0  0  0  0  0  0  0  0  0
   44.0960   34.7040   41.0660 C   0  0  0  0  0  0  0  0  0  0  0  0
   45.4360   34.4520   41.0190 N   0  0  0  0  0  0  0  0  0  0  0  0
   46.4970   35.5600   43.9910 H   0  0  0  0  0  0  0  0  0  0  0  0
   44.0390   36.0790   44.2090 H   0  0  0  0  0  0  0  0  0  0  0  0
   42.5600   35.5010   42.2920 H   0  0  0  0  0  0  0  0  0  0  0  0
   43.1960   34.3880   39.9640 C   0  0  0  0  0  0  0  0  0  0  0  0
   42.6790   35.3470   39.3250 O   0  0  0  0  0  0  0  0  0  0  0  0
   42.8780   32.9690   39.5840 C   0  0  0  0  0  3  0  0  0  0  0  0
   44.0850   32.3100   38.9470 C   0  0  0  0  0  3  0  0  0  0  0  0
   44.3680   31.3750   39.4730 H   0  0  0  0  0  0  0  0  0  0  0  0
   43.8390   31.9430   37.4980 C   0  0  0  0  0  3  0  0  0  0  0  0
   44.7700   31.3960   37.1800 H   0  0  0  0  0  0  0  0  0  0  0  0
   42.7300   31.1330   37.3140 O   0  0  0  0  0  0  0  0  0  0  0  0
   41.6640   31.4760   38.1310 C   0  0  0  0  0  3  0  0  0  0  0  0
   40.6900   31.2100   37.7160 H   0  0  0  0  0  0  0  0  0  0  0  0
   41.7860   32.9320   38.5310 C   0  0  0  0  0  3  0  0  0  0  0  0
   40.8240   33.3130   38.8820 H   0  0  0  0  0  0  0  0  0  0  0  0
  1  7  1  1  0  0  0
  1 19  1  0  0  0  0
  2  9  1  0  0  0  0
  2  1  1  0  0  0  0
  3 10  1  0  0  0  0
  3  2  1  0  0  0  0
  4  3  1  0  0  0  0
  4  5  1  0  0  0  0
  5 14  1  0  0  0  0
  5  6  1  0  0  0  0
  6  1  1  0  0  0  0
  6 26  1  0  0  0  0
  6 16  1  1  0  0  0
  8  2  1  0  0  0  0
 11  3  1  0  0  0  0
 12  4  1  0  0  0  0
 13  4  1  0  0  0  0
 15  5  1  0  0  0  0
 17 22  1  0  0  0  0
 18 19  1  0  0  0  0
 18 17  2  0  0  0  0
 19 20  2  0  0  0  0
 20 21  1  0  0  0  0
 21 25  1  0  0  0  0
 22 21  2  0  0  0  0
 23 17  1  0  0  0  0
 24 18  1  0  0  0  0
 26 27  1  0  0  0  0
 27 28  2  0  0  0  0
 27 32  1  0  0  0  0
 28 33  1  0  0  0  0
 29 34  1  0  0  0  0
 29 28  1  0  0  0  0
 30 29  2  0  0  0  0
 31 30  1  0  0  0  0
 31 26  2  0  0  0  0
 35 30  1  0  0  0  0
 36 35  2  0  0  0  0
 37 35  1  0  0  0  0
 38 39  1  0  0  0  0
 38 37  1  0  0  0  0
 40 38  1  0  0  0  0
 41 40  1  0  0  0  0
 42 40  1  0  0  0  0
 42 43  1  0  0  0  0
 43 45  1  0  0  0  0
 44 43  1  0  0  0  0
 45 46  1  0  0  0  0
 45 37  1  0  0  0  0
M  END
>  <minimizedAffinity>
-5.32319355

>  <minimizedRMSD>
0.442776591

$$$$
