
 OpenBabel03242516533D

 46 49  0  0  1  0  0  0  0  0999 V2000
   47.8400   32.8640   41.8570 C   0  0  1  0  0  0  0  0  0  0  0  0
   47.5320   32.1490   40.6190 C   0  0  0  0  0  0  0  0  0  0  0  0
   48.5300   32.6510   39.5820 C   0  0  0  0  0  0  0  0  0  0  0  0
   48.1600   34.0940   39.2790 C   0  0  0  0  0  0  0  0  0  0  0  0
   48.0790   34.9750   40.4880 C   0  0  0  0  0  0  0  0  0  0  0  0
   47.6030   34.3740   41.7340 C   0  0  1  0  0  0  0  0  0  0  0  0
   48.9580   32.8150   42.0290 H   0  0  0  0  0  0  0  0  0  0  0  0
   46.4870   32.3430   40.2790 H   0  0  0  0  0  0  0  0  0  0  0  0
   47.6200   31.0730   40.7640 H   0  0  0  0  0  0  0  0  0  0  0  0
   49.5360   32.5780   40.0280 H   0  0  0  0  0  0  0  0  0  0  0  0
   48.3930   32.0860   38.6500 H   0  0  0  0  0  0  0  0  0  0  0  0
   47.2020   34.0820   38.7240 H   0  0  0  0  0  0  0  0  0  0  0  0
   48.9250   34.4770   38.5710 H   0  0  0  0  0  0  0  0  0  0  0  0
   49.0970   35.4270   40.6170 H   0  0  0  0  0  0  0  0  0  0  0  0
   47.4300   35.8430   40.2200 H   0  0  0  0  0  0  0  0  0  0  0  0
   48.1930   34.8150   42.5940 H   0  0  0  0  0  0  0  0  0  0  0  0
   45.4770   30.9710   44.1250 C   0  0  0  0  0  0  0  0  0  0  0  0
   46.1400   31.4890   43.0060 C   0  0  0  0  0  0  0  0  0  0  0  0
   47.2200   32.3740   43.0710 C   0  0  0  0  0  0  0  0  0  0  0  0
   47.6040   32.7140   44.3020 N   0  0  0  0  0  0  0  0  0  0  0  0
   46.9720   32.2220   45.4010 C   0  0  0  0  0  0  0  0  0  0  0  0
   45.9420   31.3770   45.3280 N   0  0  0  0  0  0  0  0  0  0  0  0
   44.6600   30.2970   43.9320 H   0  0  0  0  0  0  0  0  0  0  0  0
   45.8150   31.2000   42.0150 H   0  0  0  0  0  0  0  0  0  0  0  0
   47.3500   32.5520   46.3730 H   0  0  0  0  0  0  0  0  0  0  0  0
   46.2120   34.7240   42.0390 C   0  0  0  0  0  0  0  0  0  0  0  0
   45.7360   35.2450   43.2500 C   0  0  0  0  0  0  0  0  0  0  0  0
   44.3680   35.5170   43.3050 C   0  0  0  0  0  0  0  0  0  0  0  0
   43.6110   35.2550   42.1840 C   0  0  0  0  0  0  0  0  0  0  0  0
   44.0950   34.7380   40.9930 C   0  0  0  0  0  0  0  0  0  0  0  0
   45.4330   34.4780   40.9550 N   0  0  0  0  0  0  0  0  0  0  0  0
   46.4460   35.3870   44.0100 H   0  0  0  0  0  0  0  0  0  0  0  0
   43.9890   35.9130   44.2150 H   0  0  0  0  0  0  0  0  0  0  0  0
   42.5420   35.4700   42.2380 H   0  0  0  0  0  0  0  0  0  0  0  0
   43.2140   34.5010   39.8570 C   0  0  0  0  0  0  0  0  0  0  0  0
   42.5230   35.4670   39.4280 O   0  0  0  0  0  0  0  0  0  0  0  0
   43.1150   33.1520   39.2010 C   0  0  0  0  0  3  0  0  0  0  0  0
   42.8520   32.0780   40.2380 C   0  0  0  0  0  3  0  0  0  0  0  0
   41.9410   31.4910   40.0000 H   0  0  0  0  0  0  0  0  0  0  0  0
   43.9960   31.0910   40.3440 C   0  0  0  0  0  3  0  0  0  0  0  0
   43.6370   30.3160   41.0760 H   0  0  0  0  0  0  0  0  0  0  0  0
   44.3180   30.4880   39.1380 O   0  0  0  0  0  0  0  0  0  0  0  0
   44.2520   31.3570   38.0610 C   0  0  0  0  0  3  0  0  0  0  0  0
   44.9130   31.0830   37.2350 H   0  0  0  0  0  0  0  0  0  0  0  0
   44.4350   32.7790   38.5510 C   0  0  0  0  0  3  0  0  0  0  0  0
   44.7160   33.4340   37.7220 H   0  0  0  0  0  0  0  0  0  0  0  0
  1  7  1  1  0  0  0
  1 19  1  0  0  0  0
  2  9  1  0  0  0  0
  2  1  1  0  0  0  0
  3 10  1  0  0  0  0
  3  2  1  0  0  0  0
  4  3  1  0  0  0  0
  4  5  1  0  0  0  0
  5 14  1  0  0  0  0
  5  6  1  0  0  0  0
  6  1  1  0  0  0  0
  6 26  1  0  0  0  0
  6 16  1  1  0  0  0
  8  2  1  0  0  0  0
 11  3  1  0  0  0  0
 12  4  1  0  0  0  0
 13  4  1  0  0  0  0
 15  5  1  0  0  0  0
 17 22  1  0  0  0  0
 18 19  1  0  0  0  0
 18 17  2  0  0  0  0
 19 20  2  0  0  0  0
 20 21  1  0  0  0  0
 21 25  1  0  0  0  0
 22 21  2  0  0  0  0
 23 17  1  0  0  0  0
 24 18  1  0  0  0  0
 26 27  1  0  0  0  0
 27 28  2  0  0  0  0
 27 32  1  0  0  0  0
 28 33  1  0  0  0  0
 29 34  1  0  0  0  0
 29 28  1  0  0  0  0
 30 29  2  0  0  0  0
 31 30  1  0  0  0  0
 31 26  2  0  0  0  0
 35 30  1  0  0  0  0
 36 35  2  0  0  0  0
 37 35  1  0  0  0  0
 37 38  1  0  0  0  0
 38 40  1  0  0  0  0
 39 38  1  0  0  0  0
 40 41  1  0  0  0  0
 42 40  1  0  0  0  0
 43 45  1  0  0  0  0
 43 42  1  0  0  0  0
 44 43  1  0  0  0  0
 45 37  1  0  0  0  0
 46 45  1  0  0  0  0
M  END
>  <minimizedAffinity>
-5.01401567

>  <minimizedRMSD>
0.33429119

$$$$
