
 OpenBabel03242517013D

 33 35  0  0  0  0  0  0  0  0999 V2000
   37.4100   31.4770   39.9270 C   0  0  0  0  0  0  0  0  0  0  0  0
   37.2630   32.7860   39.5190 C   0  0  0  0  0  0  0  0  0  0  0  0
   38.1470   33.7340   39.9860 C   0  0  0  0  0  0  0  0  0  0  0  0
   39.1520   33.3620   40.8430 C   0  0  0  0  0  0  0  0  0  0  0  0
   39.3310   32.0700   41.2700 C   0  0  0  0  0  0  0  0  0  0  0  0
   38.4130   31.1270   40.7770 C   0  0  0  0  0  0  0  0  0  0  0  0
   36.4680   33.0800   38.8410 H   0  0  0  0  0  0  0  0  0  0  0  0
   38.0000   34.7460   39.6460 H   0  0  0  0  0  0  0  0  0  0  0  0
   39.8230   34.1400   41.1840 H   0  0  0  0  0  0  0  0  0  0  0  0
   40.1070   31.7530   41.9390 H   0  0  0  0  0  0  0  0  0  0  0  0
   35.3840   29.1930   37.6950 C   0  0  0  0  0  0  0  0  0  0  0  0
   36.3650   30.1280   38.0820 C   0  0  0  0  0  0  0  0  0  0  0  0
   36.4420   30.5190   39.3990 C   0  0  0  0  0  0  0  0  0  0  0  0
   35.5400   29.9630   40.2710 N   0  0  0  0  0  0  0  0  0  0  0  0
   34.6060   29.0670   39.8820 C   0  0  0  0  0  0  0  0  0  0  0  0
   34.5300   28.6810   38.5830 N   0  0  0  0  0  0  0  0  0  0  0  0
   35.4430   28.9800   36.6300 H   0  0  0  0  0  0  0  0  0  0  0  0
   37.0760   30.5700   37.4110 H   0  0  0  0  0  0  0  0  0  0  0  0
   33.9170   28.6500   40.5850 H   0  0  0  0  0  0  0  0  0  0  0  0
   38.3870   29.0580   42.3670 C   0  0  0  0  0  0  0  0  0  0  0  0
   38.1880   29.5230   43.4900 O   0  0  0  0  0  0  0  0  0  0  0  0
   38.4810   29.7640   41.1420 N   0  0  0  0  0  0  0  0  0  0  0  0
   38.6350   29.3170   40.2030 H   0  0  0  0  0  0  0  0  0  0  0  0
   38.5590   27.5720   42.1860 C   0  0  0  0  0  3  0  0  0  0  0  0
   39.3900   27.0220   43.3530 C   0  0  0  0  0  3  0  0  0  0  0  0
   40.3750   27.5150   43.2870 H   0  0  0  0  0  0  0  0  0  0  0  0
   39.4750   25.5290   43.1250 C   0  0  0  0  0  3  0  0  0  0  0  0
   40.5530   25.2980   42.9170 H   0  0  0  0  0  0  0  0  0  0  0  0
   38.7750   25.0790   42.0330 O   0  0  0  0  0  0  0  0  0  0  0  0
   37.4190   25.3980   42.0840 C   0  0  0  0  0  3  0  0  0  0  0  0
   37.0040   25.1640   41.0760 H   0  0  0  0  0  0  0  0  0  0  0  0
   37.2120   26.8850   42.3080 C   0  0  0  0  0  3  0  0  0  0  0  0
   36.7940   26.9880   43.3330 H   0  0  0  0  0  0  0  0  0  0  0  0
  1  6  1  0  0  0  0
  2  1  2  0  0  0  0
  2  3  1  0  0  0  0
  3  4  2  0  0  0  0
  4  9  1  0  0  0  0
  4  5  1  0  0  0  0
  5 10  1  0  0  0  0
  6 22  1  0  0  0  0
  6  5  2  0  0  0  0
  7  2  1  0  0  0  0
  8  3  1  0  0  0  0
 11 12  2  0  0  0  0
 11 16  1  0  0  0  0
 12 13  1  0  0  0  0
 13  1  1  0  0  0  0
 13 14  2  0  0  0  0
 15 14  1  0  0  0  0
 15 19  1  0  0  0  0
 16 15  2  0  0  0  0
 17 11  1  0  0  0  0
 18 12  1  0  0  0  0
 20 21  2  0  0  0  0
 22 20  1  0  0  0  0
 23 22  1  0  0  0  0
 24 32  1  0  0  0  0
 24 20  1  0  0  0  0
 24 25  1  0  0  0  0
 26 25  1  0  0  0  0
 27 25  1  0  0  0  0
 28 27  1  0  0  0  0
 29 30  1  0  0  0  0
 29 27  1  0  0  0  0
 30 32  1  0  0  0  0
 31 30  1  0  0  0  0
 32 33  1  0  0  0  0
M  END
>  <minimizedAffinity>
-5.66619158

$$$$

 OpenBabel03242517013D

 33 35  0  0  0  0  0  0  0  0999 V2000
   36.9430   26.0840   40.6860 C   0  0  0  0  0  0  0  0  0  0  0  0
   36.9650   24.7750   41.1190 C   0  0  0  0  0  0  0  0  0  0  0  0
   36.5460   23.7800   40.2630 C   0  0  0  0  0  0  0  0  0  0  0  0
   36.1170   24.1070   39.0010 C   0  0  0  0  0  0  0  0  0  0  0  0
   36.0820   25.3970   38.5340 C   0  0  0  0  0  0  0  0  0  0  0  0
   36.5140   26.3880   39.4310 C   0  0  0  0  0  0  0  0  0  0  0  0
   37.3040   24.5170   42.1180 H   0  0  0  0  0  0  0  0  0  0  0  0
   36.5770   22.7710   40.6370 H   0  0  0  0  0  0  0  0  0  0  0  0
   35.7980   23.2930   38.3630 H   0  0  0  0  0  0  0  0  0  0  0  0
   35.7520   25.6790   37.5530 H   0  0  0  0  0  0  0  0  0  0  0  0
   37.3260   28.3640   43.6790 C   0  0  0  0  0  0  0  0  0  0  0  0
   36.7910   27.3630   42.8450 C   0  0  0  0  0  0  0  0  0  0  0  0
   37.3970   27.0930   41.6390 C   0  0  0  0  0  0  0  0  0  0  0  0
   38.5090   27.8320   41.3190 N   0  0  0  0  0  0  0  0  0  0  0  0
   39.0090   28.7880   42.1320 C   0  0  0  0  0  0  0  0  0  0  0  0
   38.4100   29.0540   43.3210 N   0  0  0  0  0  0  0  0  0  0  0  0
   36.7460   28.4640   44.5940 H   0  0  0  0  0  0  0  0  0  0  0  0
   35.9230   26.7780   43.0820 H   0  0  0  0  0  0  0  0  0  0  0  0
   39.8770   29.3470   41.8560 H   0  0  0  0  0  0  0  0  0  0  0  0
   35.5670   28.6460   38.5300 C   0  0  0  0  0  0  0  0  0  0  0  0
   34.3980   28.4030   38.2280 O   0  0  0  0  0  0  0  0  0  0  0  0
   36.5230   27.7560   39.0780 N   0  0  0  0  0  0  0  0  0  0  0  0
   37.5080   28.0190   39.3360 H   0  0  0  0  0  0  0  0  0  0  0  0
   36.1240   30.0320   38.3260 C   0  0  0  0  0  3  0  0  0  0  0  0
   36.6010   30.5810   39.6760 C   0  0  0  0  0  3  0  0  0  0  0  0
   35.7050   30.6380   40.3170 H   0  0  0  0  0  0  0  0  0  0  0  0
   37.1870   31.9440   39.3780 C   0  0  0  0  0  3  0  0  0  0  0  0
   36.5240   32.6940   39.8860 H   0  0  0  0  0  0  0  0  0  0  0  0
   37.1930   32.2820   38.0480 O   0  0  0  0  0  0  0  0  0  0  0  0
   37.8860   31.3680   37.2560 C   0  0  0  0  0  3  0  0  0  0  0  0
   37.6570   31.6350   36.1970 H   0  0  0  0  0  0  0  0  0  0  0  0
   37.3750   29.9550   37.4710 C   0  0  0  0  0  3  0  0  0  0  0  0
   38.1920   29.4080   37.9920 H   0  0  0  0  0  0  0  0  0  0  0  0
  1  2  1  0  0  0  0
  1 13  1  0  0  0  0
  2  7  1  0  0  0  0
  3  8  1  0  0  0  0
  3  2  2  0  0  0  0
  4  3  1  0  0  0  0
  5  4  2  0  0  0  0
  5  6  1  0  0  0  0
  6  1  2  0  0  0  0
  9  4  1  0  0  0  0
 10  5  1  0  0  0  0
 11 17  1  0  0  0  0
 12 18  1  0  0  0  0
 12 11  2  0  0  0  0
 13 12  1  0  0  0  0
 14 13  2  0  0  0  0
 14 15  1  0  0  0  0
 15 16  2  0  0  0  0
 16 11  1  0  0  0  0
 19 15  1  0  0  0  0
 20 22  1  0  0  0  0
 21 20  2  0  0  0  0
 22 23  1  0  0  0  0
 22  6  1  0  0  0  0
 24 20  1  0  0  0  0
 24 25  1  0  0  0  0
 25 26  1  0  0  0  0
 27 25  1  0  0  0  0
 27 28  1  0  0  0  0
 29 27  1  0  0  0  0
 30 32  1  0  0  0  0
 30 29  1  0  0  0  0
 31 30  1  0  0  0  0
 32 33  1  0  0  0  0
 32 24  1  0  0  0  0
M  END
>  <minimizedAffinity>
-5.39172268

$$$$

 OpenBabel03242517013D

 33 35  0  0  0  0  0  0  0  0999 V2000
   37.8030   29.4540   41.6510 C   0  0  0  0  0  0  0  0  0  0  0  0
   38.3030   29.3180   42.9280 C   0  0  0  0  0  0  0  0  0  0  0  0
   37.9320   28.2230   43.6790 C   0  0  0  0  0  0  0  0  0  0  0  0
   37.0760   27.2930   43.1450 C   0  0  0  0  0  0  0  0  0  0  0  0
   36.5580   27.3940   41.8780 C   0  0  0  0  0  0  0  0  0  0  0  0
   36.9550   28.5210   41.1390 C   0  0  0  0  0  0  0  0  0  0  0  0
   38.9810   30.0540   43.3510 H   0  0  0  0  0  0  0  0  0  0  0  0
   38.3430   28.1510   44.6720 H   0  0  0  0  0  0  0  0  0  0  0  0
   36.8120   26.4500   43.7700 H   0  0  0  0  0  0  0  0  0  0  0  0
   35.8880   26.6810   41.4370 H   0  0  0  0  0  0  0  0  0  0  0  0
   39.7970   32.0240   39.7230 C   0  0  0  0  0  0  0  0  0  0  0  0
   39.5070   30.8400   40.4290 C   0  0  0  0  0  0  0  0  0  0  0  0
   38.2320   30.6340   40.9070 C   0  0  0  0  0  0  0  0  0  0  0  0
   37.3050   31.6160   40.6600 N   0  0  0  0  0  0  0  0  0  0  0  0
   37.6020   32.7460   39.9800 C   0  0  0  0  0  0  0  0  0  0  0  0
   38.8590   32.9480   39.5090 N   0  0  0  0  0  0  0  0  0  0  0  0
   40.8380   32.0480   39.4080 H   0  0  0  0  0  0  0  0  0  0  0  0
   40.2200   30.0650   40.6290 H   0  0  0  0  0  0  0  0  0  0  0  0
   36.8590   33.4930   39.8020 H   0  0  0  0  0  0  0  0  0  0  0  0
   35.2260   29.0290   39.2520 C   0  0  0  0  0  0  0  0  0  0  0  0
   34.1500   29.1680   39.8360 O   0  0  0  0  0  0  0  0  0  0  0  0
   36.4910   28.7470   39.8240 N   0  0  0  0  0  0  0  0  0  0  0  0
   37.3860   28.6540   39.2810 H   0  0  0  0  0  0  0  0  0  0  0  0
   35.2900   29.1590   37.7520 C   0  0  0  0  0  3  0  0  0  0  0  0
   36.6020   29.8550   37.3690 C   0  0  0  0  0  3  0  0  0  0  0  0
   36.5580   30.8610   37.8210 H   0  0  0  0  0  0  0  0  0  0  0  0
   36.6110   29.9020   35.8570 C   0  0  0  0  0  3  0  0  0  0  0  0
   36.5480   30.9850   35.5700 H   0  0  0  0  0  0  0  0  0  0  0  0
   35.5360   29.2900   35.2610 O   0  0  0  0  0  0  0  0  0  0  0  0
   35.4060   27.9490   35.6180 C   0  0  0  0  0  3  0  0  0  0  0  0
   34.4090   27.6200   35.2420 H   0  0  0  0  0  0  0  0  0  0  0  0
   35.3810   27.7800   37.1270 C   0  0  0  0  0  3  0  0  0  0  0  0
   36.3340   27.2730   37.3960 H   0  0  0  0  0  0  0  0  0  0  0  0
  1  2  1  0  0  0  0
  2  7  1  0  0  0  0
  2  3  2  0  0  0  0
  3  8  1  0  0  0  0
  4  3  1  0  0  0  0
  4  9  1  0  0  0  0
  5  4  2  0  0  0  0
  6  1  2  0  0  0  0
  6  5  1  0  0  0  0
 10  5  1  0  0  0  0
 11 12  1  0  0  0  0
 12 18  1  0  0  0  0
 12 13  2  0  0  0  0
 13  1  1  0  0  0  0
 14 13  1  0  0  0  0
 15 14  2  0  0  0  0
 16 11  2  0  0  0  0
 16 15  1  0  0  0  0
 17 11  1  0  0  0  0
 19 15  1  0  0  0  0
 20 22  1  0  0  0  0
 20 21  2  0  0  0  0
 22  6  1  0  0  0  0
 23 22  1  0  0  0  0
 24 20  1  0  0  0  0
 25 24  1  0  0  0  0
 25 26  1  0  0  0  0
 27 25  1  0  0  0  0
 28 27  1  0  0  0  0
 29 30  1  0  0  0  0
 29 27  1  0  0  0  0
 30 32  1  0  0  0  0
 31 30  1  0  0  0  0
 32 33  1  0  0  0  0
 32 24  1  0  0  0  0
M  END
>  <minimizedAffinity>
-5.24440241

$$$$

 OpenBabel03242517013D

 33 35  0  0  0  0  0  0  0  0999 V2000
   37.0110   26.3220   39.8030 C   0  0  0  0  0  0  0  0  0  0  0  0
   36.9950   24.9440   39.8270 C   0  0  0  0  0  0  0  0  0  0  0  0
   36.9640   24.2970   41.0430 C   0  0  0  0  0  0  0  0  0  0  0  0
   36.9490   25.0300   42.2020 C   0  0  0  0  0  0  0  0  0  0  0  0
   36.9630   26.4030   42.2190 C   0  0  0  0  0  0  0  0  0  0  0  0
   36.9960   27.0330   40.9630 C   0  0  0  0  0  0  0  0  0  0  0  0
   37.0060   24.3640   38.9100 H   0  0  0  0  0  0  0  0  0  0  0  0
   36.9530   23.2200   41.0210 H   0  0  0  0  0  0  0  0  0  0  0  0
   36.9250   24.4800   43.1340 H   0  0  0  0  0  0  0  0  0  0  0  0
   36.9530   27.0000   43.1100 H   0  0  0  0  0  0  0  0  0  0  0  0
   36.1590   27.5820   36.3400 C   0  0  0  0  0  0  0  0  0  0  0  0
   36.0040   26.9380   37.5830 C   0  0  0  0  0  0  0  0  0  0  0  0
   37.0440   26.9500   38.4850 C   0  0  0  0  0  0  0  0  0  0  0  0
   38.1910   27.6020   38.1070 N   0  0  0  0  0  0  0  0  0  0  0  0
   38.3230   28.2150   36.9100 C   0  0  0  0  0  0  0  0  0  0  0  0
   37.2960   28.2020   36.0210 N   0  0  0  0  0  0  0  0  0  0  0  0
   35.2590   27.4900   35.7350 H   0  0  0  0  0  0  0  0  0  0  0  0
   35.1140   26.4250   37.8920 H   0  0  0  0  0  0  0  0  0  0  0  0
   39.2280   28.7160   36.6440 H   0  0  0  0  0  0  0  0  0  0  0  0
   36.0280   29.4390   40.6750 C   0  0  0  0  0  0  0  0  0  0  0  0
   34.8070   29.2860   40.6140 O   0  0  0  0  0  0  0  0  0  0  0  0
   37.0180   28.4400   40.8400 N   0  0  0  0  0  0  0  0  0  0  0  0
   38.0520   28.6260   40.9030 H   0  0  0  0  0  0  0  0  0  0  0  0
   36.6190   30.8220   40.5710 C   0  0  0  0  0  3  0  0  0  0  0  0
   38.0520   30.7930   41.1150 C   0  0  0  0  0  3  0  0  0  0  0  0
   37.9700   30.5090   42.1790 H   0  0  0  0  0  0  0  0  0  0  0  0
   38.5870   32.1960   40.9320 C   0  0  0  0  0  3  0  0  0  0  0  0
   38.7490   32.6130   41.9610 H   0  0  0  0  0  0  0  0  0  0  0  0
   37.7210   33.0580   40.3060 O   0  0  0  0  0  0  0  0  0  0  0  0
   37.3240   32.6130   39.0460 C   0  0  0  0  0  3  0  0  0  0  0  0
   36.4870   33.2780   38.7280 H   0  0  0  0  0  0  0  0  0  0  0  0
   36.7630   31.2040   39.1100 C   0  0  0  0  0  3  0  0  0  0  0  0
   37.5000   30.5540   38.5900 H   0  0  0  0  0  0  0  0  0  0  0  0
  1  2  2  0  0  0  0
  1  6  1  0  0  0  0
  2  3  1  0  0  0  0
  3  4  2  0  0  0  0
  4  5  1  0  0  0  0
  4  9  1  0  0  0  0
  5 10  1  0  0  0  0
  6  5  2  0  0  0  0
  7  2  1  0  0  0  0
  8  3  1  0  0  0  0
 11 12  1  0  0  0  0
 12 18  1  0  0  0  0
 12 13  2  0  0  0  0
 13  1  1  0  0  0  0
 14 13  1  0  0  0  0
 15 14  2  0  0  0  0
 16 11  2  0  0  0  0
 16 15  1  0  0  0  0
 17 11  1  0  0  0  0
 19 15  1  0  0  0  0
 20 22  1  0  0  0  0
 21 20  2  0  0  0  0
 22 23  1  0  0  0  0
 22  6  1  0  0  0  0
 24 20  1  0  0  0  0
 24 25  1  0  0  0  0
 25 26  1  0  0  0  0
 27 25  1  0  0  0  0
 27 28  1  0  0  0  0
 29 27  1  0  0  0  0
 30 32  1  0  0  0  0
 30 29  1  0  0  0  0
 31 30  1  0  0  0  0
 32 24  1  0  0  0  0
 33 32  1  0  0  0  0
M  END
>  <minimizedAffinity>
-5.02562857

$$$$

 OpenBabel03242517013D

 33 35  0  0  0  0  0  0  0  0999 V2000
   36.9460   30.1450   37.3080 C   0  0  0  0  0  0  0  0  0  0  0  0
   36.8640   30.4390   35.9640 C   0  0  0  0  0  0  0  0  0  0  0  0
   36.2070   29.5640   35.1270 C   0  0  0  0  0  0  0  0  0  0  0  0
   35.6490   28.4220   35.6420 C   0  0  0  0  0  0  0  0  0  0  0  0
   35.7090   28.0950   36.9740 C   0  0  0  0  0  0  0  0  0  0  0  0
   36.3870   29.0080   37.8010 C   0  0  0  0  0  0  0  0  0  0  0  0
   37.3060   31.3430   35.5550 H   0  0  0  0  0  0  0  0  0  0  0  0
   36.1640   29.8270   34.0830 H   0  0  0  0  0  0  0  0  0  0  0  0
   35.1430   27.7630   34.9480 H   0  0  0  0  0  0  0  0  0  0  0  0
   35.2820   27.2100   37.4030 H   0  0  0  0  0  0  0  0  0  0  0  0
   39.5880   32.2530   39.0060 C   0  0  0  0  0  0  0  0  0  0  0  0
   39.0210   31.2860   38.1520 C   0  0  0  0  0  0  0  0  0  0  0  0
   37.6560   31.1110   38.1430 C   0  0  0  0  0  0  0  0  0  0  0  0
   36.9170   31.9050   38.9840 N   0  0  0  0  0  0  0  0  0  0  0  0
   37.4790   32.8280   39.7970 C   0  0  0  0  0  0  0  0  0  0  0  0
   38.8250   33.0010   39.8040 N   0  0  0  0  0  0  0  0  0  0  0  0
   40.6710   32.2800   38.9050 H   0  0  0  0  0  0  0  0  0  0  0  0
   39.5860   30.6590   37.4900 H   0  0  0  0  0  0  0  0  0  0  0  0
   36.8770   33.4330   40.4400 H   0  0  0  0  0  0  0  0  0  0  0  0
   35.6450   28.8490   40.2980 C   0  0  0  0  0  0  0  0  0  0  0  0
   34.4430   29.1160   40.2900 O   0  0  0  0  0  0  0  0  0  0  0  0
   36.5260   28.7890   39.1900 N   0  0  0  0  0  0  0  0  0  0  0  0
   37.5450   28.5390   39.2480 H   0  0  0  0  0  0  0  0  0  0  0  0
   36.3390   28.5370   41.5990 C   0  0  0  0  0  3  0  0  0  0  0  0
   36.9940   27.1550   41.4950 C   0  0  0  0  0  3  0  0  0  0  0  0
   36.1720   26.4370   41.3380 H   0  0  0  0  0  0  0  0  0  0  0  0
   37.7050   26.9400   42.8140 C   0  0  0  0  0  3  0  0  0  0  0  0
   37.1810   26.0890   43.3240 H   0  0  0  0  0  0  0  0  0  0  0  0
   37.6310   28.0030   43.6800 O   0  0  0  0  0  0  0  0  0  0  0  0
   38.1400   29.1830   43.1390 C   0  0  0  0  0  3  0  0  0  0  0  0
   37.8500   29.9990   43.8410 H   0  0  0  0  0  0  0  0  0  0  0  0
   37.4910   29.5030   41.8050 C   0  0  0  0  0  3  0  0  0  0  0  0
   38.2820   29.3620   41.0350 H   0  0  0  0  0  0  0  0  0  0  0  0
  1  6  1  0  0  0  0
  1 13  1  0  0  0  0
  2  1  2  0  0  0  0
  3  4  2  0  0  0  0
  3  2  1  0  0  0  0
  4  5  1  0  0  0  0
  5 10  1  0  0  0  0
  5  6  2  0  0  0  0
  6 22  1  0  0  0  0
  7  2  1  0  0  0  0
  8  3  1  0  0  0  0
  9  4  1  0  0  0  0
 11 16  1  0  0  0  0
 12 11  2  0  0  0  0
 13 12  1  0  0  0  0
 13 14  2  0  0  0  0
 14 15  1  0  0  0  0
 15 16  2  0  0  0  0
 15 19  1  0  0  0  0
 17 11  1  0  0  0  0
 18 12  1  0  0  0  0
 20 24  1  0  0  0  0
 21 20  2  0  0  0  0
 22 23  1  0  0  0  0
 22 20  1  0  0  0  0
 24 32  1  0  0  0  0
 25 24  1  0  0  0  0
 25 27  1  0  0  0  0
 26 25  1  0  0  0  0
 27 28  1  0  0  0  0
 27 29  1  0  0  0  0
 30 29  1  0  0  0  0
 30 31  1  0  0  0  0
 32 30  1  0  0  0  0
 33 32  1  0  0  0  0
M  END
>  <minimizedAffinity>
-5.02230453

$$$$

 OpenBabel03242517013D

 33 35  0  0  0  0  0  0  0  0999 V2000
   37.3720   28.8300   40.9080 C   0  0  0  0  0  0  0  0  0  0  0  0
   36.5410   27.9500   41.5680 C   0  0  0  0  0  0  0  0  0  0  0  0
   36.6760   27.7960   42.9310 C   0  0  0  0  0  0  0  0  0  0  0  0
   37.6300   28.5180   43.6030 C   0  0  0  0  0  0  0  0  0  0  0  0
   38.4750   29.4030   42.9820 C   0  0  0  0  0  0  0  0  0  0  0  0
   38.3120   29.5360   41.5920 C   0  0  0  0  0  0  0  0  0  0  0  0
   35.7860   27.3790   41.0350 H   0  0  0  0  0  0  0  0  0  0  0  0
   36.0090   27.1000   43.4110 H   0  0  0  0  0  0  0  0  0  0  0  0
   37.7000   28.3650   44.6720 H   0  0  0  0  0  0  0  0  0  0  0  0
   39.2280   29.9790   43.4840 H   0  0  0  0  0  0  0  0  0  0  0  0
   36.0090   29.5640   37.4570 C   0  0  0  0  0  0  0  0  0  0  0  0
   36.0760   29.5080   38.8640 C   0  0  0  0  0  0  0  0  0  0  0  0
   37.1810   28.9480   39.4650 C   0  0  0  0  0  0  0  0  0  0  0  0
   38.1670   28.4690   38.6400 N   0  0  0  0  0  0  0  0  0  0  0  0
   38.0850   28.5310   37.2920 C   0  0  0  0  0  0  0  0  0  0  0  0
   36.9960   29.0840   36.7000 N   0  0  0  0  0  0  0  0  0  0  0  0
   35.0840   30.0320   37.1270 H   0  0  0  0  0  0  0  0  0  0  0  0
   35.3140   29.8790   39.5210 H   0  0  0  0  0  0  0  0  0  0  0  0
   38.8700   28.1500   36.6750 H   0  0  0  0  0  0  0  0  0  0  0  0
   39.0900   31.7970   40.5470 C   0  0  0  0  0  0  0  0  0  0  0  0
   38.2800   32.6310   40.9550 O   0  0  0  0  0  0  0  0  0  0  0  0
   39.1200   30.4100   40.8310 N   0  0  0  0  0  0  0  0  0  0  0  0
   39.8460   29.7400   40.4690 H   0  0  0  0  0  0  0  0  0  0  0  0
   40.2110   32.2200   39.6330 C   0  0  0  0  0  3  0  0  0  0  0  0
   39.8670   31.8050   38.1970 C   0  0  0  0  0  3  0  0  0  0  0  0
   39.7970   30.7040   38.2050 H   0  0  0  0  0  0  0  0  0  0  0  0
   41.0100   32.3060   37.3420 C   0  0  0  0  0  3  0  0  0  0  0  0
   41.5280   31.3970   36.9370 H   0  0  0  0  0  0  0  0  0  0  0  0
   41.9670   33.0130   38.0280 O   0  0  0  0  0  0  0  0  0  0  0  0
   41.4510   34.1220   38.6950 C   0  0  0  0  0  3  0  0  0  0  0  0
   42.2640   34.4920   39.3640 H   0  0  0  0  0  0  0  0  0  0  0  0
   40.2900   33.7350   39.5940 C   0  0  0  0  0  3  0  0  0  0  0  0
   39.3800   34.1780   39.1310 H   0  0  0  0  0  0  0  0  0  0  0  0
  1  2  2  0  0  0  0
  1  6  1  0  0  0  0
  2  3  1  0  0  0  0
  3  8  1  0  0  0  0
  3  4  2  0  0  0  0
  4  9  1  0  0  0  0
  5 10  1  0  0  0  0
  5  4  1  0  0  0  0
  6  5  2  0  0  0  0
  7  2  1  0  0  0  0
 11 12  1  0  0  0  0
 12 13  2  0  0  0  0
 12 18  1  0  0  0  0
 13  1  1  0  0  0  0
 14 13  1  0  0  0  0
 15 14  2  0  0  0  0
 16 15  1  0  0  0  0
 16 11  2  0  0  0  0
 17 11  1  0  0  0  0
 19 15  1  0  0  0  0
 20 22  1  0  0  0  0
 20 21  2  0  0  0  0
 22  6  1  0  0  0  0
 23 22  1  0  0  0  0
 24 20  1  0  0  0  0
 25 26  1  0  0  0  0
 25 24  1  0  0  0  0
 27 29  1  0  0  0  0
 27 25  1  0  0  0  0
 28 27  1  0  0  0  0
 29 30  1  0  0  0  0
 30 31  1  0  0  0  0
 30 32  1  0  0  0  0
 32 24  1  0  0  0  0
 33 32  1  0  0  0  0
M  END
>  <minimizedAffinity>
-5.00778008

$$$$

 OpenBabel03242517013D

 33 35  0  0  0  0  0  0  0  0999 V2000
   36.7310   26.3990   39.7750 C   0  0  0  0  0  0  0  0  0  0  0  0
   36.0980   25.3360   39.1680 C   0  0  0  0  0  0  0  0  0  0  0  0
   36.0410   24.1270   39.8260 C   0  0  0  0  0  0  0  0  0  0  0  0
   36.6120   24.0020   41.0670 C   0  0  0  0  0  0  0  0  0  0  0  0
   37.2500   25.0370   41.7040 C   0  0  0  0  0  0  0  0  0  0  0  0
   37.2920   26.2560   41.0070 C   0  0  0  0  0  0  0  0  0  0  0  0
   35.6460   25.4340   38.1860 H   0  0  0  0  0  0  0  0  0  0  0  0
   35.5390   23.3190   39.3200 H   0  0  0  0  0  0  0  0  0  0  0  0
   36.5440   23.0340   41.5470 H   0  0  0  0  0  0  0  0  0  0  0  0
   37.7050   24.9660   42.6730 H   0  0  0  0  0  0  0  0  0  0  0  0
   35.8190   29.6420   38.0560 C   0  0  0  0  0  0  0  0  0  0  0  0
   35.6620   28.4510   38.7930 C   0  0  0  0  0  0  0  0  0  0  0  0
   36.7590   27.6530   39.0280 C   0  0  0  0  0  0  0  0  0  0  0  0
   37.9610   28.0760   38.5180 N   0  0  0  0  0  0  0  0  0  0  0  0
   38.0920   29.2220   37.8120 C   0  0  0  0  0  0  0  0  0  0  0  0
   37.0100   30.0080   37.5820 N   0  0  0  0  0  0  0  0  0  0  0  0
   34.8710   30.1660   37.9510 H   0  0  0  0  0  0  0  0  0  0  0  0
   34.7300   28.1080   39.1980 H   0  0  0  0  0  0  0  0  0  0  0  0
   39.0420   29.5260   37.4280 H   0  0  0  0  0  0  0  0  0  0  0  0
   37.7770   28.1420   42.7450 C   0  0  0  0  0  0  0  0  0  0  0  0
   37.0020   27.9220   43.6770 O   0  0  0  0  0  0  0  0  0  0  0  0
   37.9230   27.3990   41.5470 N   0  0  0  0  0  0  0  0  0  0  0  0
   38.6140   27.6200   40.7860 H   0  0  0  0  0  0  0  0  0  0  0  0
   38.7140   29.3200   42.8070 C   0  0  0  0  0  3  0  0  0  0  0  0
   40.1560   28.8170   42.6610 C   0  0  0  0  0  3  0  0  0  0  0  0
   40.3400   28.1580   43.5270 H   0  0  0  0  0  0  0  0  0  0  0  0
   41.0240   30.0560   42.6850 C   0  0  0  0  0  3  0  0  0  0  0  0
   41.6400   29.9970   43.6210 H   0  0  0  0  0  0  0  0  0  0  0  0
   40.3290   31.2370   42.7630 O   0  0  0  0  0  0  0  0  0  0  0  0
   39.4210   31.4050   41.7190 C   0  0  0  0  0  3  0  0  0  0  0  0
   38.7880   32.2830   41.9920 H   0  0  0  0  0  0  0  0  0  0  0  0
   38.4880   30.2140   41.6020 C   0  0  0  0  0  3  0  0  0  0  0  0
   38.7630   29.6980   40.6560 H   0  0  0  0  0  0  0  0  0  0  0  0
  1  6  1  0  0  0  0
  2  1  2  0  0  0  0
  2  3  1  0  0  0  0
  3  4  2  0  0  0  0
  4  9  1  0  0  0  0
  4  5  1  0  0  0  0
  5 10  1  0  0  0  0
  6 22  1  0  0  0  0
  6  5  2  0  0  0  0
  7  2  1  0  0  0  0
  8  3  1  0  0  0  0
 11 12  1  0  0  0  0
 12 13  2  0  0  0  0
 12 18  1  0  0  0  0
 13  1  1  0  0  0  0
 14 13  1  0  0  0  0
 15 14  2  0  0  0  0
 16 15  1  0  0  0  0
 16 11  2  0  0  0  0
 17 11  1  0  0  0  0
 19 15  1  0  0  0  0
 20 24  1  0  0  0  0
 20 21  2  0  0  0  0
 22 20  1  0  0  0  0
 23 22  1  0  0  0  0
 25 27  1  0  0  0  0
 25 24  1  0  0  0  0
 25 26  1  0  0  0  0
 27 29  1  0  0  0  0
 27 28  1  0  0  0  0
 30 31  1  0  0  0  0
 30 29  1  0  0  0  0
 32 30  1  0  0  0  0
 32 24  1  0  0  0  0
 33 32  1  0  0  0  0
M  END
>  <minimizedAffinity>
-4.97599649

$$$$

 OpenBabel03242517013D

 33 35  0  0  0  0  0  0  0  0999 V2000
   37.3410   26.7950   40.9710 C   0  0  0  0  0  0  0  0  0  0  0  0
   37.1130   25.4640   41.2470 C   0  0  0  0  0  0  0  0  0  0  0  0
   38.0020   24.7870   42.0530 C   0  0  0  0  0  0  0  0  0  0  0  0
   39.0920   25.4450   42.5640 C   0  0  0  0  0  0  0  0  0  0  0  0
   39.3510   26.7690   42.3130 C   0  0  0  0  0  0  0  0  0  0  0  0
   38.4270   27.4310   41.4870 C   0  0  0  0  0  0  0  0  0  0  0  0
   36.2510   24.9430   40.8420 H   0  0  0  0  0  0  0  0  0  0  0  0
   37.7910   23.7480   42.2460 H   0  0  0  0  0  0  0  0  0  0  0  0
   39.7630   24.8740   43.1920 H   0  0  0  0  0  0  0  0  0  0  0  0
   40.1950   27.3070   42.7000 H   0  0  0  0  0  0  0  0  0  0  0  0
   35.1260   27.8170   38.0800 C   0  0  0  0  0  0  0  0  0  0  0  0
   36.0940   27.0970   38.8090 C   0  0  0  0  0  0  0  0  0  0  0  0
   36.3650   27.4570   40.1100 C   0  0  0  0  0  0  0  0  0  0  0  0
   35.6610   28.5170   40.6250 N   0  0  0  0  0  0  0  0  0  0  0  0
   34.7360   29.1970   39.9110 C   0  0  0  0  0  0  0  0  0  0  0  0
   34.4700   28.8400   38.6280 N   0  0  0  0  0  0  0  0  0  0  0  0
   35.0190   27.4210   37.0730 H   0  0  0  0  0  0  0  0  0  0  0  0
   36.6510   26.2670   38.4200 H   0  0  0  0  0  0  0  0  0  0  0  0
   34.2030   30.0180   40.3390 H   0  0  0  0  0  0  0  0  0  0  0  0
   38.7650   29.9880   41.8840 C   0  0  0  0  0  0  0  0  0  0  0  0
   38.8600   30.1100   43.1060 O   0  0  0  0  0  0  0  0  0  0  0  0
   38.5800   28.7940   41.1460 N   0  0  0  0  0  0  0  0  0  0  0  0
   38.5220   28.7410   40.0970 H   0  0  0  0  0  0  0  0  0  0  0  0
   38.8470   31.2040   40.9970 C   0  0  0  0  0  3  0  0  0  0  0  0
   39.4480   30.7960   39.6470 C   0  0  0  0  0  3  0  0  0  0  0  0
   40.4680   30.4320   39.8630 H   0  0  0  0  0  0  0  0  0  0  0  0
   39.4500   32.0530   38.8050 C   0  0  0  0  0  3  0  0  0  0  0  0
   40.5270   32.3170   38.6270 H   0  0  0  0  0  0  0  0  0  0  0  0
   38.8880   33.1470   39.4140 O   0  0  0  0  0  0  0  0  0  0  0  0
   37.5690   32.9340   39.8100 C   0  0  0  0  0  3  0  0  0  0  0  0
   37.2920   33.8000   40.4560 H   0  0  0  0  0  0  0  0  0  0  0  0
   37.4470   31.6900   40.6710 C   0  0  0  0  0  3  0  0  0  0  0  0
   36.8900   30.9450   40.0610 H   0  0  0  0  0  0  0  0  0  0  0  0
  1  2  2  0  0  0  0
  1  6  1  0  0  0  0
  2  3  1  0  0  0  0
  3  8  1  0  0  0  0
  3  4  2  0  0  0  0
  4  9  1  0  0  0  0
  5  4  1  0  0  0  0
  5 10  1  0  0  0  0
  6  5  2  0  0  0  0
  7  2  1  0  0  0  0
 11 16  2  0  0  0  0
 11 12  1  0  0  0  0
 12 13  2  0  0  0  0
 13 14  1  0  0  0  0
 13  1  1  0  0  0  0
 15 19  1  0  0  0  0
 15 14  2  0  0  0  0
 16 15  1  0  0  0  0
 17 11  1  0  0  0  0
 18 12  1  0  0  0  0
 20 21  2  0  0  0  0
 22  6  1  0  0  0  0
 22 20  1  0  0  0  0
 23 22  1  0  0  0  0
 24 20  1  0  0  0  0
 25 26  1  0  0  0  0
 25 24  1  0  0  0  0
 27 29  1  0  0  0  0
 27 25  1  0  0  0  0
 28 27  1  0  0  0  0
 29 30  1  0  0  0  0
 30 31  1  0  0  0  0
 30 32  1  0  0  0  0
 32 24  1  0  0  0  0
 33 32  1  0  0  0  0
M  END
>  <minimizedAffinity>
-4.9606123

$$$$

 OpenBabel03242517013D

 33 35  0  0  0  0  0  0  0  0999 V2000
   38.0050   30.0640   40.8440 C   0  0  0  0  0  0  0  0  0  0  0  0
   38.4240   31.3760   40.8960 C   0  0  0  0  0  0  0  0  0  0  0  0
   39.4510   31.7170   41.7500 C   0  0  0  0  0  0  0  0  0  0  0  0
   40.0340   30.7500   42.5290 C   0  0  0  0  0  0  0  0  0  0  0  0
   39.6460   29.4340   42.5040 C   0  0  0  0  0  0  0  0  0  0  0  0
   38.5970   29.1190   41.6240 C   0  0  0  0  0  0  0  0  0  0  0  0
   37.9620   32.1410   40.2790 H   0  0  0  0  0  0  0  0  0  0  0  0
   39.7500   32.7520   41.7630 H   0  0  0  0  0  0  0  0  0  0  0  0
   40.8360   31.0640   43.1850 H   0  0  0  0  0  0  0  0  0  0  0  0
   40.0850   28.6600   43.1020 H   0  0  0  0  0  0  0  0  0  0  0  0
   35.8900   29.4810   37.7630 C   0  0  0  0  0  0  0  0  0  0  0  0
   37.0190   29.7890   38.5480 C   0  0  0  0  0  0  0  0  0  0  0  0
   36.9140   29.7660   39.9210 C   0  0  0  0  0  0  0  0  0  0  0  0
   35.6900   29.4380   40.4490 N   0  0  0  0  0  0  0  0  0  0  0  0
   34.6180   29.1450   39.6800 C   0  0  0  0  0  0  0  0  0  0  0  0
   34.7220   29.1680   38.3270 N   0  0  0  0  0  0  0  0  0  0  0  0
   36.1220   29.5390   36.7020 H   0  0  0  0  0  0  0  0  0  0  0  0
   37.9810   30.0460   38.1490 H   0  0  0  0  0  0  0  0  0  0  0  0
   33.6770   28.8920   40.1200 H   0  0  0  0  0  0  0  0  0  0  0  0
   37.3060   26.9630   42.3280 C   0  0  0  0  0  0  0  0  0  0  0  0
   36.8190   27.2290   43.4270 O   0  0  0  0  0  0  0  0  0  0  0  0
   38.0970   27.8030   41.5060 N   0  0  0  0  0  0  0  0  0  0  0  0
   38.4770   27.5330   40.5630 H   0  0  0  0  0  0  0  0  0  0  0  0
   37.0810   25.6060   41.7130 C   0  0  0  0  0  3  0  0  0  0  0  0
   36.7460   25.7810   40.2270 C   0  0  0  0  0  3  0  0  0  0  0  0
   35.8070   26.3590   40.1910 H   0  0  0  0  0  0  0  0  0  0  0  0
   36.5840   24.3810   39.6770 C   0  0  0  0  0  3  0  0  0  0  0  0
   35.5070   24.2760   39.3820 H   0  0  0  0  0  0  0  0  0  0  0  0
   36.8280   23.3810   40.5850 O   0  0  0  0  0  0  0  0  0  0  0  0
   38.1040   23.4470   41.1400 C   0  0  0  0  0  3  0  0  0  0  0  0
   38.1150   22.7240   41.9890 H   0  0  0  0  0  0  0  0  0  0  0  0
   38.3780   24.8180   41.7310 C   0  0  0  0  0  3  0  0  0  0  0  0
   39.1480   25.2880   41.0790 H   0  0  0  0  0  0  0  0  0  0  0  0
  1  2  2  0  0  0  0
  1  6  1  0  0  0  0
  2  3  1  0  0  0  0
  3  8  1  0  0  0  0
  3  4  2  0  0  0  0
  4  9  1  0  0  0  0
  5  4  1  0  0  0  0
  5 10  1  0  0  0  0
  6  5  2  0  0  0  0
  7  2  1  0  0  0  0
 11 16  2  0  0  0  0
 11 12  1  0  0  0  0
 12 13  2  0  0  0  0
 13 14  1  0  0  0  0
 13  1  1  0  0  0  0
 15 19  1  0  0  0  0
 15 14  2  0  0  0  0
 16 15  1  0  0  0  0
 17 11  1  0  0  0  0
 18 12  1  0  0  0  0
 20 21  2  0  0  0  0
 22  6  1  0  0  0  0
 22 20  1  0  0  0  0
 23 22  1  0  0  0  0
 24 32  1  0  0  0  0
 24 20  1  0  0  0  0
 25 24  1  0  0  0  0
 26 25  1  0  0  0  0
 27 25  1  0  0  0  0
 27 29  1  0  0  0  0
 28 27  1  0  0  0  0
 29 30  1  0  0  0  0
 30 32  1  0  0  0  0
 30 31  1  0  0  0  0
 33 32  1  0  0  0  0
M  END
>  <minimizedAffinity>
-4.94606209

$$$$
