
 OpenBabel03242523543D

 46 49  0  0  1  0  0  0  0  0999 V2000
   42.8150   34.5020   38.7530 C   0  0  1  0  0  0  0  0  0  0  0  0
   42.9760   35.1820   40.1050 C   0  0  1  0  0  0  0  0  0  0  0  0
   41.6890   35.4240   40.6290 O   0  0  0  0  0  0  0  0  0  0  0  0
   40.7670   35.7750   39.6380 C   0  0  0  0  0  0  0  0  0  0  0  0
   40.4380   34.6070   38.7320 C   0  0  2  0  0  0  0  0  0  0  0  0
   41.6300   33.5970   38.8720 C   0  0  1  0  0  0  0  0  0  0  0  0
   43.7340   33.9190   38.5020 H   0  0  0  0  0  0  0  0  0  0  0  0
   43.5800   36.0920   40.0720 H   0  0  0  0  0  0  0  0  0  0  0  0
   41.0780   36.6810   39.0650 H   0  0  0  0  0  0  0  0  0  0  0  0
   39.8630   36.0950   40.1970 H   0  0  0  0  0  0  0  0  0  0  0  0
   39.5020   34.0980   39.0160 H   0  0  0  0  0  0  0  0  0  0  0  0
   41.4040   33.3250   39.9520 H   0  0  0  0  0  0  0  0  0  0  0  0
   42.6150   35.4510   37.7400 O   0  0  0  0  0  0  0  0  0  0  0  0
   42.9560   35.1210   36.8750 H   0  0  0  0  0  0  0  0  0  0  0  0
   40.4540   35.0250   37.4110 O   0  0  0  0  0  0  0  0  0  0  0  0
   40.5080   34.2650   36.7770 H   0  0  0  0  0  0  0  0  0  0  0  0
   43.4950   34.1790   40.9510 O   0  0  0  0  0  0  0  0  0  0  0  0
   44.6020   34.3100   41.6890 C   0  0  0  0  0  0  0  0  0  0  0  0
   45.8650   34.4300   41.0900 C   0  0  0  0  0  0  0  0  0  0  0  0
   46.9740   34.5640   41.9070 C   0  0  0  0  0  0  0  0  0  0  0  0
   46.8100   34.5760   43.2830 N   0  0  0  0  0  0  0  0  0  0  0  0
   45.5760   34.4570   43.8230 C   0  0  0  0  0  0  0  0  0  0  0  0
   44.4810   34.3250   43.0350 N   0  0  0  0  0  0  0  0  0  0  0  0
   45.9800   34.4190   40.0250 H   0  0  0  0  0  0  0  0  0  0  0  0
   45.4650   34.4680   44.9020 H   0  0  0  0  0  0  0  0  0  0  0  0
   48.3550   34.6760   41.3410 C   0  0  0  0  0  0  0  0  0  0  0  0
   49.0630   36.0190   41.5160 C   0  0  0  0  0  0  0  0  0  0  0  0
   49.5000   34.7080   42.1940 C   0  0  0  0  0  0  0  0  0  0  0  0
   48.4180   34.2250   40.3170 H   0  0  0  0  0  0  0  0  0  0  0  0
   48.4940   36.7590   42.0950 H   0  0  0  0  0  0  0  0  0  0  0  0
   49.6230   36.3600   40.6470 H   0  0  0  0  0  0  0  0  0  0  0  0
   50.4580   34.3390   41.8290 H   0  0  0  0  0  0  0  0  0  0  0  0
   49.3390   34.7550   43.3030 H   0  0  0  0  0  0  0  0  0  0  0  0
   41.4820   32.6650   37.9130 O   0  0  0  0  0  0  0  0  0  0  0  0
   40.6980   31.5700   37.8990 C   0  0  0  0  0  0  0  0  0  0  0  0
   39.4760   31.5980   37.4340 O   0  0  0  0  0  0  0  0  0  0  0  0
   40.4850   30.1280   38.1860 C   0  0  0  0  0  3  0  0  0  0  0  0
   39.0680   29.8110   38.5670 C   0  0  0  0  0  3  0  0  0  0  0  0
   38.3810   29.8610   37.6980 H   0  0  0  0  0  0  0  0  0  0  0  0
   39.1100   28.3720   39.0490 C   0  0  0  0  0  3  0  0  0  0  0  0
   39.8360   28.3820   39.9120 H   0  0  0  0  0  0  0  0  0  0  0  0
   39.5090   27.5370   38.0330 O   0  0  0  0  0  0  0  0  0  0  0  0
   40.7740   27.8200   37.5500 C   0  0  0  0  0  3  0  0  0  0  0  0
   41.4830   27.8290   38.4200 H   0  0  0  0  0  0  0  0  0  0  0  0
   40.8230   29.2450   37.0080 C   0  0  0  0  0  3  0  0  0  0  0  0
   40.1100   29.3810   36.1740 H   0  0  0  0  0  0  0  0  0  0  0  0
  1  7  1  6  0  0  0
  1  6  1  0  0  0  0
  1  2  1  0  0  0  0
  2  8  1  6  0  0  0
  2  3  1  0  0  0  0
  2 17  1  0  0  0  0
  4 10  1  0  0  0  0
  4  3  1  0  0  0  0
  5  6  1  0  0  0  0
  5 11  1  1  0  0  0
  5  4  1  0  0  0  0
  6 12  1  1  0  0  0
  9  4  1  0  0  0  0
 13  1  1  0  0  0  0
 14 13  1  0  0  0  0
 15  5  1  0  0  0  0
 16 15  1  0  0  0  0
 17 18  1  0  0  0  0
 18 23  1  0  0  0  0
 19 18  2  0  0  0  0
 19 20  1  0  0  0  0
 20 21  2  0  0  0  0
 21 22  1  0  0  0  0
 22 25  1  0  0  0  0
 23 22  2  0  0  0  0
 24 19  1  0  0  0  0
 26 27  1  0  0  0  0
 26 20  1  0  0  0  0
 26 28  1  0  0  0  0
 27 30  1  0  0  0  0
 27 28  1  0  0  0  0
 28 33  1  0  0  0  0
 29 26  1  0  0  0  0
 31 27  1  0  0  0  0
 32 28  1  0  0  0  0
 34  6  1  0  0  0  0
 35 34  1  0  0  0  0
 35 37  1  0  0  0  0
 36 35  2  0  0  0  0
 37 38  1  0  0  0  0
 38 40  1  0  0  0  0
 39 38  1  0  0  0  0
 40 41  1  0  0  0  0
 42 40  1  0  0  0  0
 43 42  1  0  0  0  0
 43 44  1  0  0  0  0
 45 43  1  0  0  0  0
 45 37  1  0  0  0  0
 46 45  1  0  0  0  0
M  END
>  <minimizedAffinity>
-5.82291508

>  <minimizedRMSD>
0.336801887

$$$$
