
 OpenBabel03252503343D

 23 24  0  0  0  0  0  0  0  0999 V2000
   46.6040   34.0710   40.8350 C   0  0  0  0  0  0  0  0  0  0  0  0
   45.4270   33.5790   40.9490 O   0  0  0  0  0  0  0  0  0  0  0  0
   47.0280   34.7780   41.9880 N   0  0  0  0  0  0  0  0  0  0  0  0
   47.9740   35.2030   41.9900 H   0  0  0  0  0  0  0  0  0  0  0  0
   47.4020   33.9010   39.6160 C   0  0  0  0  0  3  0  0  0  0  0  0
   46.6100   33.3170   38.4590 C   0  0  0  0  0  3  0  0  0  0  0  0
   46.5400   32.2410   38.6110 H   0  0  0  0  0  0  0  0  0  0  0  0
   47.4420   33.5870   37.2100 C   0  0  0  0  0  3  0  0  0  0  0  0
   47.3170   34.6440   36.8610 H   0  0  0  0  0  0  0  0  0  0  0  0
   48.7960   33.4130   37.4190 O   0  0  0  0  0  0  0  0  0  0  0  0
   49.0190   32.5080   38.4390 C   0  0  0  0  0  3  0  0  0  0  0  0
   50.0800   32.2010   38.4970 H   0  0  0  0  0  0  0  0  0  0  0  0
   48.6280   33.0540   39.8000 C   0  0  0  0  0  3  0  0  0  0  0  0
   48.4450   32.1670   40.4410 H   0  0  0  0  0  0  0  0  0  0  0  0
   44.5540   36.0560   44.4560 C   0  0  0  0  0  0  0  0  0  0  0  0
   45.3180   35.9930   43.2780 C   0  0  0  0  0  0  0  0  0  0  0  0
   46.2170   34.9290   43.1340 C   0  0  0  0  0  0  0  0  0  0  0  0
   46.3160   34.0140   44.1240 N   0  0  0  0  0  0  0  0  0  0  0  0
   45.5620   34.0990   45.2600 C   0  0  0  0  0  0  0  0  0  0  0  0
   44.6940   35.1150   45.4110 N   0  0  0  0  0  0  0  0  0  0  0  0
   43.8560   36.8910   44.5560 H   0  0  0  0  0  0  0  0  0  0  0  0
   45.2300   36.7290   42.4950 H   0  0  0  0  0  0  0  0  0  0  0  0
   45.6230   33.3800   46.0640 H   0  0  0  0  0  0  0  0  0  0  0  0
  1  2  2  0  0  0  0
  1  3  1  0  0  0  0
  3  4  1  0  0  0  0
  3 17  1  0  0  0  0
  5 13  1  0  0  0  0
  5  1  1  0  0  0  0
  6  7  1  0  0  0  0
  6  5  1  0  0  0  0
  8 10  1  0  0  0  0
  8  6  1  0  0  0  0
  9  8  1  0  0  0  0
 10 11  1  0  0  0  0
 11 12  1  0  0  0  0
 11 13  1  0  0  0  0
 13 14  1  0  0  0  0
 15 21  1  0  0  0  0
 15 20  1  0  0  0  0
 16 15  2  0  0  0  0
 17 16  1  0  0  0  0
 17 18  2  0  0  0  0
 18 19  1  0  0  0  0
 19 20  2  0  0  0  0
 19 23  1  0  0  0  0
 22 16  1  0  0  0  0
M  END
>  <minimizedAffinity>
-4.31889296

>  <minimizedRMSD>
0.451903641

$$$$
