
 OpenBabel03252507463D

 38 40  0  0  0  0  0  0  0  0999 V2000
   46.9810   34.3730   41.0280 C   0  0  0  0  0  0  0  0  0  0  0  0
   46.4550   33.4600   40.7000 H   0  0  0  0  0  0  0  0  0  0  0  0
   47.1030   35.0160   40.1200 H   0  0  0  0  0  0  0  0  0  0  0  0
   48.3420   34.0810   41.5210 C   0  0  0  0  0  0  0  0  0  0  0  0
   48.8030   32.7810   41.3350 C   0  0  0  0  0  0  0  0  0  0  0  0
   50.0700   32.4340   41.7670 C   0  0  0  0  0  0  0  0  0  0  0  0
   50.8310   33.3910   42.3680 N   0  0  0  0  0  0  0  0  0  0  0  0
   50.3490   34.6470   42.5320 C   0  0  0  0  0  0  0  0  0  0  0  0
   49.1370   34.9580   42.1120 N   0  0  0  0  0  0  0  0  0  0  0  0
   50.4370   31.4120   41.6230 H   0  0  0  0  0  0  0  0  0  0  0  0
   51.0130   35.3570   43.0200 H   0  0  0  0  0  0  0  0  0  0  0  0
   47.7550   31.5550   40.5320 S   0  0  0  0  0  0  0  0  0  0  0  0
   46.6790   30.7200   41.7410 C   0  0  0  0  0  3  0  0  0  0  0  0
   45.2650   31.1670   41.4830 C   0  0  0  0  0  3  0  0  0  0  0  0
   45.2560   32.0820   40.8530 H   0  0  0  0  0  0  0  0  0  0  0  0
   44.6040   31.5320   42.7780 C   0  0  0  0  0  3  0  0  0  0  0  0
   45.0090   32.5060   43.1110 H   0  0  0  0  0  0  0  0  0  0  0  0
   44.8860   30.5040   43.6770 O   0  0  0  0  0  0  0  0  0  0  0  0
   46.1820   30.6090   44.1460 C   0  0  0  0  0  3  0  0  0  0  0  0
   46.5700   29.6080   44.4320 H   0  0  0  0  0  0  0  0  0  0  0  0
   47.1180   31.1800   43.1130 C   0  0  0  0  0  3  0  0  0  0  0  0
   48.1550   30.7720   43.2450 H   0  0  0  0  0  0  0  0  0  0  0  0
   46.1450   35.1090   42.0150 C   0  0  0  0  0  0  0  0  0  0  0  0
   46.3140   34.6600   43.0220 H   0  0  0  0  0  0  0  0  0  0  0  0
   46.4460   36.1620   42.0390 H   0  0  0  0  0  0  0  0  0  0  0  0
   44.6770   35.0120   41.7590 C   0  0  0  0  0  0  0  0  0  0  0  0
   43.7460   35.4160   42.7620 C   0  0  0  0  0  0  0  0  0  0  0  0
   42.1230   35.1030   41.9670 S   0  0  0  0  0  0  0  0  0  0  0  0
   42.9840   34.4730   40.3930 C   0  0  0  0  0  0  0  0  0  0  0  0
   44.0870   34.5810   40.6710 N   0  0  0  0  0  0  0  0  0  0  0  0
   43.9820   35.8050   43.7400 H   0  0  0  0  0  0  0  0  0  0  0  0
   42.2830   34.0300   39.2770 O   0  0  0  0  0  0  0  0  0  0  0  0
   40.3470   34.5260   37.5480 O   0  0  0  0  0  0  0  0  0  0  0  0
   41.4510   35.1920   38.3610 P   0  0  0  0  0  0  0  0  0  0  0  0
   40.7690   36.3080   39.4370 O   0  0  0  0  0  0  0  0  0  0  0  0
   40.1270   35.8720   40.0360 H   0  0  0  0  0  0  0  0  0  0  0  0
   42.5250   36.0160   37.3540 O   0  0  0  0  0  0  0  0  0  0  0  0
   42.1550   36.0140   36.4220 H   0  0  0  0  0  0  0  0  0  0  0  0
  1  4  1  0  0  0  0
  1 23  1  0  0  0  0
  2  1  1  0  0  0  0
  3  1  1  0  0  0  0
  4  9  1  0  0  0  0
  5  4  2  0  0  0  0
  5  6  1  0  0  0  0
  6  7  2  0  0  0  0
  7  8  1  0  0  0  0
  8 11  1  0  0  0  0
  9  8  2  0  0  0  0
 10  6  1  0  0  0  0
 12  5  1  0  0  0  0
 12 13  1  0  0  0  0
 13 21  1  0  0  0  0
 14 13  1  0  0  0  0
 14 16  1  0  0  0  0
 15 14  1  0  0  0  0
 16 17  1  0  0  0  0
 16 18  1  0  0  0  0
 18 19  1  0  0  0  0
 19 20  1  0  0  0  0
 21 22  1  0  0  0  0
 21 19  1  0  0  0  0
 23 25  1  0  0  0  0
 23 24  1  0  0  0  0
 26 23  1  0  0  0  0
 26 27  2  0  0  0  0
 27 31  1  0  0  0  0
 28 27  1  0  0  0  0
 29 30  2  0  0  0  0
 29 28  1  0  0  0  0
 30 26  1  0  0  0  0
 32 29  1  0  0  0  0
 33 34  2  0  0  0  0
 34 32  1  0  0  0  0
 34 35  1  0  0  0  0
 35 36  1  0  0  0  0
 37 34  1  0  0  0  0
 38 37  1  0  0  0  0
M  END
>  <minimizedAffinity>
-4.44280243

>  <minimizedRMSD>
0.785830796

$$$$
