
 OpenBabel03242516173D

 44 48  0  0  1  0  0  0  0  0999 V2000
   38.0680   28.1060   42.5780 C   0  0  0  0  0  0  0  0  0  0  0  0
   36.8090   27.7050   43.3580 C   0  0  0  0  0  0  0  0  0  0  0  0
   37.5820   28.9040   43.6800 C   0  0  0  0  0  0  0  0  0  0  0  0
   36.8920   26.7960   43.9880 H   0  0  0  0  0  0  0  0  0  0  0  0
   35.8260   27.7740   42.8630 H   0  0  0  0  0  0  0  0  0  0  0  0
   37.0530   29.8530   43.4480 H   0  0  0  0  0  0  0  0  0  0  0  0
   37.9630   28.9210   44.7090 H   0  0  0  0  0  0  0  0  0  0  0  0
   37.7850   28.5130   41.1780 C   0  0  0  0  0  0  0  0  0  0  0  0
   39.0090   28.6490   40.2900 C   0  0  0  0  0  0  0  0  0  0  0  0
   38.4400   28.9150   38.8850 C   0  0  0  0  0  0  0  0  0  0  0  0
   38.0220   30.2530   38.8860 O   0  0  0  0  0  0  0  0  0  0  0  0
   36.8290   30.2080   39.6570 C   0  0  0  0  0  0  0  0  0  0  0  0
   37.1820   29.9410   41.1160 C   0  0  0  0  0  0  0  0  0  0  0  0
   37.0470   27.8960   40.6500 H   0  0  0  0  0  0  0  0  0  0  0  0
   39.5800   27.7120   40.1820 H   0  0  0  0  0  0  0  0  0  0  0  0
   39.6000   29.5260   40.5940 H   0  0  0  0  0  0  0  0  0  0  0  0
   37.6360   28.2120   38.6460 H   0  0  0  0  0  0  0  0  0  0  0  0
   39.2660   28.7520   38.1670 H   0  0  0  0  0  0  0  0  0  0  0  0
   36.2400   31.1220   39.5780 H   0  0  0  0  0  0  0  0  0  0  0  0
   36.2160   29.3560   39.3040 H   0  0  0  0  0  0  0  0  0  0  0  0
   36.2640   30.0160   41.6980 H   0  0  0  0  0  0  0  0  0  0  0  0
   37.9980   30.6030   41.4510 H   0  0  0  0  0  0  0  0  0  0  0  0
   40.4370   27.6250   43.3170 C   0  0  0  0  0  0  0  0  0  0  0  0
   39.2400   27.1820   42.7800 C   0  0  0  0  0  0  0  0  0  0  0  0
   39.1730   25.8420   42.4170 C   0  0  0  0  0  0  0  0  0  0  0  0
   40.2540   25.0210   42.5920 N   0  0  0  0  0  0  0  0  0  0  0  0
   41.3720   25.5250   43.1150 C   0  0  0  0  0  0  0  0  0  0  0  0
   41.4790   26.7840   43.4730 N   0  0  0  0  0  0  0  0  0  0  0  0
   42.5300   24.7170   43.3190 N   0  0  0  0  0  0  0  0  0  0  0  0
   40.5120   28.6590   43.6060 H   0  0  0  0  0  0  0  0  0  0  0  0
   43.2080   24.8150   42.5240 H   0  0  0  0  0  0  0  0  0  0  0  0
   42.5260   24.1670   44.1990 H   0  0  0  0  0  0  0  0  0  0  0  0
   38.0130   25.2670   41.7650 C   0  0  2  0  0  3  0  0  0  0  0  0
   37.2200   24.3840   42.1640 O   0  0  0  0  0  0  0  0  0  0  0  0
   37.0210   25.0760   40.6830 C   0  0  0  0  0  0  0  0  0  0  0  0
   37.6150   25.2750   39.2900 C   0  0  0  0  0  3  0  0  0  0  0  0
   38.5070   25.9210   39.3640 H   0  0  0  0  0  0  0  0  0  0  0  0
   37.9550   24.0190   38.5730 C   0  0  0  0  0  3  0  0  0  0  0  0
   38.2830   24.3300   37.5390 H   0  0  0  0  0  0  0  0  0  0  0  0
   36.8410   23.2020   38.3560 O   0  0  0  0  0  0  0  0  0  0  0  0
   35.8220   23.5260   39.2570 C   0  0  0  0  0  3  0  0  0  0  0  0
   34.9890   22.8270   39.2300 H   0  0  0  0  0  0  0  0  0  0  0  0
   36.4090   23.6850   40.6550 C   0  0  0  0  0  3  0  0  0  0  0  0
   35.5780   23.5910   41.3400 H   0  0  0  0  0  0  0  0  0  0  0  0
  1 24  1  0  0  0  0
  1  2  1  0  0  0  0
  1  3  1  0  0  0  0
  2  3  1  0  0  0  0
  2  4  1  0  0  0  0
  3  7  1  0  0  0  0
  5  2  1  0  0  0  0
  6  3  1  0  0  0  0
  8  1  1  0  0  0  0
  9 16  1  0  0  0  0
  9  8  1  0  0  0  0
 10 11  1  0  0  0  0
 10  9  1  0  0  0  0
 11 12  1  0  0  0  0
 12 13  1  0  0  0  0
 13  8  1  0  0  0  0
 13 22  1  0  0  0  0
 13 21  1  0  0  0  0
 14  8  1  0  0  0  0
 15  9  1  0  0  0  0
 17 10  1  0  0  0  0
 18 10  1  0  0  0  0
 19 12  1  0  0  0  0
 20 12  1  0  0  0  0
 23 28  1  0  0  0  0
 23 30  1  0  0  0  0
 24 23  2  0  0  0  0
 25 26  2  0  0  0  0
 25 24  1  0  0  0  0
 26 27  1  0  0  0  0
 27 29  1  0  0  0  0
 27 28  2  0  0  0  0
 29 32  1  0  0  0  0
 31 29  1  0  0  0  0
 33 34  1  0  0  0  0
 33 25  1  6  0  0  0
 35 33  1  0  0  0  0
 35 34  1  0  0  0  0
 36 37  1  0  0  0  0
 36 35  1  0  0  0  0
 38 36  1  0  0  0  0
 39 38  1  0  0  0  0
 40 38  1  0  0  0  0
 40 41  1  0  0  0  0
 41 43  1  0  0  0  0
 42 41  1  0  0  0  0
 43 35  1  0  0  0  0
 43 44  1  0  0  0  0
M  END
>  <minimizedAffinity>
-5.52406788

$$$$

 OpenBabel03242516173D

 44 48  0  0  1  0  0  0  0  0999 V2000
   37.0550   27.6190   42.2570 C   0  0  0  0  0  0  0  0  0  0  0  0
   37.6290   27.6560   43.6800 C   0  0  0  0  0  0  0  0  0  0  0  0
   36.2160   27.3920   43.4110 C   0  0  0  0  0  0  0  0  0  0  0  0
   37.9550   28.6490   44.0500 H   0  0  0  0  0  0  0  0  0  0  0  0
   38.3100   26.8520   44.0050 H   0  0  0  0  0  0  0  0  0  0  0  0
   35.9050   26.3500   43.6380 H   0  0  0  0  0  0  0  0  0  0  0  0
   35.5340   28.1070   43.8900 H   0  0  0  0  0  0  0  0  0  0  0  0
   37.5500   26.4710   41.4560 C   0  0  0  0  0  0  0  0  0  0  0  0
   37.0930   26.4560   40.0070 C   0  0  0  0  0  0  0  0  0  0  0  0
   37.8590   25.2810   39.3730 C   0  0  0  0  0  0  0  0  0  0  0  0
   37.2150   24.1180   39.8160 O   0  0  0  0  0  0  0  0  0  0  0  0
   37.6420   24.0200   41.1690 C   0  0  0  0  0  0  0  0  0  0  0  0
   36.9850   25.1270   41.9850 C   0  0  0  0  0  0  0  0  0  0  0  0
   38.6370   26.3210   41.4720 H   0  0  0  0  0  0  0  0  0  0  0  0
   37.4210   27.3380   39.4340 H   0  0  0  0  0  0  0  0  0  0  0  0
   36.0160   26.2350   39.9540 H   0  0  0  0  0  0  0  0  0  0  0  0
   38.9200   25.3140   39.6370 H   0  0  0  0  0  0  0  0  0  0  0  0
   37.7720   25.3960   38.2760 H   0  0  0  0  0  0  0  0  0  0  0  0
   37.4200   23.0490   41.6120 H   0  0  0  0  0  0  0  0  0  0  0  0
   38.7350   24.1870   41.2030 H   0  0  0  0  0  0  0  0  0  0  0  0
   37.2440   24.9660   43.0310 H   0  0  0  0  0  0  0  0  0  0  0  0
   35.9030   25.1790   41.7800 H   0  0  0  0  0  0  0  0  0  0  0  0
   35.8560   29.5260   41.1110 C   0  0  0  0  0  0  0  0  0  0  0  0
   37.0330   28.9560   41.5650 C   0  0  0  0  0  0  0  0  0  0  0  0
   38.2040   29.6680   41.3350 C   0  0  0  0  0  0  0  0  0  0  0  0
   38.1670   30.8740   40.6890 N   0  0  0  0  0  0  0  0  0  0  0  0
   36.9920   31.3550   40.2820 C   0  0  0  0  0  0  0  0  0  0  0  0
   35.8620   30.7160   40.4790 N   0  0  0  0  0  0  0  0  0  0  0  0
   36.8930   32.6060   39.6020 N   0  0  0  0  0  0  0  0  0  0  0  0
   34.9360   28.9920   41.2780 H   0  0  0  0  0  0  0  0  0  0  0  0
   36.8660   32.4730   38.5610 H   0  0  0  0  0  0  0  0  0  0  0  0
   36.8660   33.4370   40.2230 H   0  0  0  0  0  0  0  0  0  0  0  0
   39.5130   29.1500   41.6790 C   0  0  2  0  0  3  0  0  0  0  0  0
   40.2110   29.3380   42.7020 O   0  0  0  0  0  0  0  0  0  0  0  0
   40.7580   28.3720   41.4850 C   0  0  0  0  0  0  0  0  0  0  0  0
   41.0670   27.4420   42.6560 C   0  0  0  0  0  3  0  0  0  0  0  0
   40.5740   27.8280   43.5660 H   0  0  0  0  0  0  0  0  0  0  0  0
   40.6910   26.0210   42.4390 C   0  0  0  0  0  3  0  0  0  0  0  0
   41.0680   25.4580   43.3400 H   0  0  0  0  0  0  0  0  0  0  0  0
   41.3630   25.4440   41.3570 O   0  0  0  0  0  0  0  0  0  0  0  0
   41.8280   26.4380   40.4910 C   0  0  0  0  0  3  0  0  0  0  0  0
   42.2310   26.0420   39.5620 H   0  0  0  0  0  0  0  0  0  0  0  0
   40.7300   27.4700   40.2620 C   0  0  0  0  0  3  0  0  0  0  0  0
   41.0000   27.9980   39.3590 H   0  0  0  0  0  0  0  0  0  0  0  0
  1  3  1  0  0  0  0
  1  2  1  0  0  0  0
  2  5  1  0  0  0  0
  2  4  1  0  0  0  0
  3  6  1  0  0  0  0
  3  2  1  0  0  0  0
  3  7  1  0  0  0  0
  8 14  1  0  0  0  0
  8 13  1  0  0  0  0
  8  1  1  0  0  0  0
  9  8  1  0  0  0  0
 10 17  1  0  0  0  0
 10 11  1  0  0  0  0
 10  9  1  0  0  0  0
 11 12  1  0  0  0  0
 12 20  1  0  0  0  0
 12 19  1  0  0  0  0
 12 13  1  0  0  0  0
 13 21  1  0  0  0  0
 15  9  1  0  0  0  0
 16  9  1  0  0  0  0
 18 10  1  0  0  0  0
 22 13  1  0  0  0  0
 23 30  1  0  0  0  0
 23 24  1  0  0  0  0
 24  1  1  0  0  0  0
 25 24  2  0  0  0  0
 26 25  1  0  0  0  0
 27 28  1  0  0  0  0
 27 26  2  0  0  0  0
 28 23  2  0  0  0  0
 29 32  1  0  0  0  0
 29 27  1  0  0  0  0
 31 29  1  0  0  0  0
 33 25  1  6  0  0  0
 33 34  1  0  0  0  0
 35 33  1  0  0  0  0
 35 36  1  0  0  0  0
 35 34  1  0  0  0  0
 36 37  1  0  0  0  0
 38 36  1  0  0  0  0
 38 39  1  0  0  0  0
 40 38  1  0  0  0  0
 41 40  1  0  0  0  0
 42 41  1  0  0  0  0
 43 41  1  0  0  0  0
 43 35  1  0  0  0  0
 44 43  1  0  0  0  0
M  END
>  <minimizedAffinity>
-5.4382081

$$$$

 OpenBabel03242516173D

 44 48  0  0  1  0  0  0  0  0999 V2000
   39.8780   27.1220   42.3510 C   0  0  0  0  0  0  0  0  0  0  0  0
   40.6000   27.3830   43.6800 C   0  0  0  0  0  0  0  0  0  0  0  0
   39.7560   26.2080   43.4630 C   0  0  0  0  0  0  0  0  0  0  0  0
   40.2280   28.2390   44.2780 H   0  0  0  0  0  0  0  0  0  0  0  0
   41.6980   27.2990   43.7200 H   0  0  0  0  0  0  0  0  0  0  0  0
   40.3220   25.2520   43.4230 H   0  0  0  0  0  0  0  0  0  0  0  0
   38.9210   26.1270   44.1700 H   0  0  0  0  0  0  0  0  0  0  0  0
   40.8050   26.8170   41.2310 C   0  0  0  0  0  0  0  0  0  0  0  0
   40.3000   27.2130   39.8550 C   0  0  0  0  0  0  0  0  0  0  0  0
   41.4890   26.9430   38.9150 C   0  0  0  0  0  0  0  0  0  0  0  0
   41.5330   25.5530   38.7390 O   0  0  0  0  0  0  0  0  0  0  0  0
   42.0600   25.0980   39.9780 C   0  0  0  0  0  0  0  0  0  0  0  0
   41.0130   25.2880   41.0710 C   0  0  0  0  0  0  0  0  0  0  0  0
   41.8240   27.2080   41.3460 H   0  0  0  0  0  0  0  0  0  0  0  0
   40.1070   28.2920   39.7510 H   0  0  0  0  0  0  0  0  0  0  0  0
   39.4680   26.5570   39.5560 H   0  0  0  0  0  0  0  0  0  0  0  0
   42.4160   27.3560   39.3240 H   0  0  0  0  0  0  0  0  0  0  0  0
   41.2690   27.4620   37.9630 H   0  0  0  0  0  0  0  0  0  0  0  0
   42.3770   24.0550   39.9450 H   0  0  0  0  0  0  0  0  0  0  0  0
   42.9310   25.7290   40.2410 H   0  0  0  0  0  0  0  0  0  0  0  0
   41.4020   24.8370   41.9830 H   0  0  0  0  0  0  0  0  0  0  0  0
   40.0320   24.9050   40.7460 H   0  0  0  0  0  0  0  0  0  0  0  0
   38.9490   29.4610   42.1220 C   0  0  0  0  0  0  0  0  0  0  0  0
   38.7650   28.0910   42.0510 C   0  0  0  0  0  0  0  0  0  0  0  0
   37.4950   27.6450   41.7060 C   0  0  0  0  0  0  0  0  0  0  0  0
   36.4910   28.5410   41.4540 N   0  0  0  0  0  0  0  0  0  0  0  0
   36.7490   29.8460   41.5450 C   0  0  0  0  0  0  0  0  0  0  0  0
   37.9350   30.3100   41.8660 N   0  0  0  0  0  0  0  0  0  0  0  0
   35.7410   30.8240   41.2940 N   0  0  0  0  0  0  0  0  0  0  0  0
   39.9260   29.8300   42.3870 H   0  0  0  0  0  0  0  0  0  0  0  0
   35.2960   31.1500   42.1870 H   0  0  0  0  0  0  0  0  0  0  0  0
   35.6030   31.0590   40.2930 H   0  0  0  0  0  0  0  0  0  0  0  0
   37.1400   26.2400   41.6800 C   0  0  2  0  0  3  0  0  0  0  0  0
   36.8440   25.4670   42.6190 O   0  0  0  0  0  0  0  0  0  0  0  0
   36.8720   24.9200   41.0650 C   0  0  0  0  0  0  0  0  0  0  0  0
   36.9310   24.9510   39.5400 C   0  0  0  0  0  3  0  0  0  0  0  0
   36.7340   25.9800   39.1890 H   0  0  0  0  0  0  0  0  0  0  0  0
   38.2020   24.4510   38.9560 C   0  0  0  0  0  3  0  0  0  0  0  0
   38.0510   24.4460   37.8380 H   0  0  0  0  0  0  0  0  0  0  0  0
   38.4570   23.1150   39.2800 O   0  0  0  0  0  0  0  0  0  0  0  0
   37.7360   22.7490   40.4220 C   0  0  0  0  0  3  0  0  0  0  0  0
   38.0070   21.7680   40.8020 H   0  0  0  0  0  0  0  0  0  0  0  0
   37.8620   23.8440   41.4760 C   0  0  0  0  0  3  0  0  0  0  0  0
   37.5970   23.3830   42.4170 H   0  0  0  0  0  0  0  0  0  0  0  0
  1  3  1  0  0  0  0
  1  2  1  0  0  0  0
  2  5  1  0  0  0  0
  2  4  1  0  0  0  0
  3  2  1  0  0  0  0
  3  7  1  0  0  0  0
  6  3  1  0  0  0  0
  8 14  1  0  0  0  0
  8  1  1  0  0  0  0
  9  8  1  0  0  0  0
 10 17  1  0  0  0  0
 10  9  1  0  0  0  0
 11 10  1  0  0  0  0
 11 12  1  0  0  0  0
 12 20  1  0  0  0  0
 12 13  1  0  0  0  0
 13  8  1  0  0  0  0
 13 21  1  0  0  0  0
 15  9  1  0  0  0  0
 16  9  1  0  0  0  0
 18 10  1  0  0  0  0
 19 12  1  0  0  0  0
 22 13  1  0  0  0  0
 23 30  1  0  0  0  0
 24 23  1  0  0  0  0
 24  1  1  0  0  0  0
 25 24  2  0  0  0  0
 26 27  2  0  0  0  0
 26 25  1  0  0  0  0
 27 28  1  0  0  0  0
 28 23  2  0  0  0  0
 29 27  1  0  0  0  0
 29 31  1  0  0  0  0
 32 29  1  0  0  0  0
 33 25  1  1  0  0  0
 33 34  1  0  0  0  0
 35 43  1  0  0  0  0
 35 33  1  0  0  0  0
 35 34  1  0  0  0  0
 36 35  1  0  0  0  0
 37 36  1  0  0  0  0
 38 40  1  0  0  0  0
 38 36  1  0  0  0  0
 39 38  1  0  0  0  0
 40 41  1  0  0  0  0
 41 42  1  0  0  0  0
 41 43  1  0  0  0  0
 43 44  1  0  0  0  0
M  END
>  <minimizedAffinity>
-5.3992548

$$$$

 OpenBabel03242516173D

 44 48  0  0  1  0  0  0  0  0999 V2000
   37.9840   29.9360   38.4110 C   0  0  0  0  0  0  0  0  0  0  0  0
   38.8970   28.7760   38.8290 C   0  0  0  0  0  0  0  0  0  0  0  0
   39.0460   29.4690   37.5500 C   0  0  0  0  0  0  0  0  0  0  0  0
   38.4250   27.7740   38.8740 H   0  0  0  0  0  0  0  0  0  0  0  0
   39.6180   28.9280   39.6500 H   0  0  0  0  0  0  0  0  0  0  0  0
   39.9710   30.0800   37.4770 H   0  0  0  0  0  0  0  0  0  0  0  0
   38.9550   28.8110   36.6770 H   0  0  0  0  0  0  0  0  0  0  0  0
   38.1730   31.1570   39.2360 C   0  0  0  0  0  0  0  0  0  0  0  0
   37.3510   32.3570   38.8020 C   0  0  0  0  0  0  0  0  0  0  0  0
   37.6030   33.4130   39.8930 C   0  0  0  0  0  0  0  0  0  0  0  0
   38.8840   33.9250   39.6440 O   0  0  0  0  0  0  0  0  0  0  0  0
   39.7320   32.8730   40.0850 C   0  0  0  0  0  0  0  0  0  0  0  0
   39.6210   31.6990   39.1190 C   0  0  0  0  0  0  0  0  0  0  0  0
   38.0330   31.0190   40.3160 H   0  0  0  0  0  0  0  0  0  0  0  0
   36.2640   32.1810   38.8370 H   0  0  0  0  0  0  0  0  0  0  0  0
   37.7320   32.7500   37.8470 H   0  0  0  0  0  0  0  0  0  0  0  0
   37.4980   32.9800   40.8930 H   0  0  0  0  0  0  0  0  0  0  0  0
   36.8270   34.1930   39.7720 H   0  0  0  0  0  0  0  0  0  0  0  0
   40.7740   33.1820   40.1780 H   0  0  0  0  0  0  0  0  0  0  0  0
   39.3730   32.5250   41.0720 H   0  0  0  0  0  0  0  0  0  0  0  0
   40.3560   30.9520   39.4190 H   0  0  0  0  0  0  0  0  0  0  0  0
   39.7090   32.0390   38.0740 H   0  0  0  0  0  0  0  0  0  0  0  0
   36.0470   29.4980   36.8470 C   0  0  0  0  0  0  0  0  0  0  0  0
   36.5600   29.5320   38.1320 C   0  0  0  0  0  0  0  0  0  0  0  0
   35.6930   29.1940   39.1640 C   0  0  0  0  0  0  0  0  0  0  0  0
   34.3960   28.8460   38.8930 N   0  0  0  0  0  0  0  0  0  0  0  0
   33.9790   28.8380   37.6280 C   0  0  0  0  0  0  0  0  0  0  0  0
   34.7650   29.1500   36.6230 N   0  0  0  0  0  0  0  0  0  0  0  0
   32.6390   28.4850   37.2870 N   0  0  0  0  0  0  0  0  0  0  0  0
   36.7010   29.7570   36.0320 H   0  0  0  0  0  0  0  0  0  0  0  0
   32.0380   29.3380   37.1700 H   0  0  0  0  0  0  0  0  0  0  0  0
   32.4650   27.4650   37.2090 H   0  0  0  0  0  0  0  0  0  0  0  0
   36.0720   29.2710   40.5600 C   0  0  2  0  0  3  0  0  0  0  0  0
   36.0600   30.2480   41.3450 O   0  0  0  0  0  0  0  0  0  0  0  0
   36.5660   28.7680   41.8620 C   0  0  0  0  0  0  0  0  0  0  0  0
   36.8400   27.2650   41.8530 C   0  0  0  0  0  3  0  0  0  0  0  0
   36.2340   26.7900   41.0620 H   0  0  0  0  0  0  0  0  0  0  0  0
   38.2700   26.8950   41.6880 C   0  0  0  0  0  3  0  0  0  0  0  0
   38.3150   25.7730   41.8010 H   0  0  0  0  0  0  0  0  0  0  0  0
   39.0770   27.3840   42.7200 O   0  0  0  0  0  0  0  0  0  0  0  0
   38.4500   28.4610   43.3550 C   0  0  0  0  0  3  0  0  0  0  0  0
   39.0940   28.9700   44.0680 H   0  0  0  0  0  0  0  0  0  0  0  0
   37.8720   29.4040   42.3060 C   0  0  0  0  0  3  0  0  0  0  0  0
   37.7160   30.3490   42.8090 H   0  0  0  0  0  0  0  0  0  0  0  0
  1  2  1  0  0  0  0
  1  8  1  0  0  0  0
  2  4  1  0  0  0  0
  2  5  1  0  0  0  0
  3  1  1  0  0  0  0
  3  2  1  0  0  0  0
  6  3  1  0  0  0  0
  7  3  1  0  0  0  0
  8 14  1  0  0  0  0
  9 15  1  0  0  0  0
  9  8  1  0  0  0  0
  9 10  1  0  0  0  0
 10 17  1  0  0  0  0
 11 10  1  0  0  0  0
 11 12  1  0  0  0  0
 12 19  1  0  0  0  0
 12 20  1  0  0  0  0
 13  8  1  0  0  0  0
 13 21  1  0  0  0  0
 13 12  1  0  0  0  0
 16  9  1  0  0  0  0
 18 10  1  0  0  0  0
 22 13  1  0  0  0  0
 23 24  1  0  0  0  0
 24  1  1  0  0  0  0
 24 25  2  0  0  0  0
 26 25  1  0  0  0  0
 27 26  2  0  0  0  0
 28 23  2  0  0  0  0
 28 27  1  0  0  0  0
 29 27  1  0  0  0  0
 30 23  1  0  0  0  0
 31 29  1  0  0  0  0
 32 29  1  0  0  0  0
 33 25  1  6  0  0  0
 33 34  1  0  0  0  0
 33 35  1  0  0  0  0
 34 35  1  0  0  0  0
 35 43  1  0  0  0  0
 36 35  1  0  0  0  0
 37 36  1  0  0  0  0
 38 39  1  0  0  0  0
 38 36  1  0  0  0  0
 38 40  1  0  0  0  0
 40 41  1  0  0  0  0
 41 42  1  0  0  0  0
 43 44  1  0  0  0  0
 43 41  1  0  0  0  0
M  END
>  <minimizedAffinity>
-5.39904404

$$$$

 OpenBabel03242516173D

 44 48  0  0  1  0  0  0  0  0999 V2000
   38.1460   28.0490   42.2260 C   0  0  0  0  0  0  0  0  0  0  0  0
   38.0600   27.5660   43.6800 C   0  0  0  0  0  0  0  0  0  0  0  0
   36.9120   28.1330   42.9730 C   0  0  0  0  0  0  0  0  0  0  0  0
   38.6120   28.1680   44.4290 H   0  0  0  0  0  0  0  0  0  0  0  0
   38.1250   26.4860   43.8920 H   0  0  0  0  0  0  0  0  0  0  0  0
   36.1130   27.3930   42.7520 H   0  0  0  0  0  0  0  0  0  0  0  0
   36.4870   29.0200   43.4600 H   0  0  0  0  0  0  0  0  0  0  0  0
   38.3580   26.9460   41.2540 C   0  0  0  0  0  0  0  0  0  0  0  0
   39.0730   27.3480   39.9760 C   0  0  0  0  0  0  0  0  0  0  0  0
   39.3050   26.0210   39.2300 C   0  0  0  0  0  0  0  0  0  0  0  0
   38.0640   25.6650   38.6830 O   0  0  0  0  0  0  0  0  0  0  0  0
   37.3400   25.2130   39.8190 C   0  0  0  0  0  0  0  0  0  0  0  0
   37.0100   26.4050   40.7120 C   0  0  0  0  0  0  0  0  0  0  0  0
   38.8550   26.0540   41.6570 H   0  0  0  0  0  0  0  0  0  0  0  0
   40.0850   27.7480   40.1450 H   0  0  0  0  0  0  0  0  0  0  0  0
   38.4160   27.9800   39.3590 H   0  0  0  0  0  0  0  0  0  0  0  0
   39.7160   25.2600   39.8990 H   0  0  0  0  0  0  0  0  0  0  0  0
   40.0510   26.2240   38.4380 H   0  0  0  0  0  0  0  0  0  0  0  0
   36.4250   24.6830   39.5530 H   0  0  0  0  0  0  0  0  0  0  0  0
   37.9910   24.5330   40.4020 H   0  0  0  0  0  0  0  0  0  0  0  0
   36.3670   26.0470   41.5160 H   0  0  0  0  0  0  0  0  0  0  0  0
   36.5910   27.2360   40.1210 H   0  0  0  0  0  0  0  0  0  0  0  0
   40.2770   29.3730   42.5400 C   0  0  0  0  0  0  0  0  0  0  0  0
   38.9920   29.2810   42.0330 C   0  0  0  0  0  0  0  0  0  0  0  0
   38.5050   30.3890   41.3500 C   0  0  0  0  0  0  0  0  0  0  0  0
   39.2820   31.5060   41.2000 N   0  0  0  0  0  0  0  0  0  0  0  0
   40.5090   31.5160   41.7190 C   0  0  0  0  0  0  0  0  0  0  0  0
   41.0090   30.4910   42.3710 N   0  0  0  0  0  0  0  0  0  0  0  0
   41.3630   32.6530   41.5940 N   0  0  0  0  0  0  0  0  0  0  0  0
   40.6740   28.5260   43.0730 H   0  0  0  0  0  0  0  0  0  0  0  0
   41.3150   33.2610   42.4490 H   0  0  0  0  0  0  0  0  0  0  0  0
   41.8860   32.7070   40.7000 H   0  0  0  0  0  0  0  0  0  0  0  0
   37.1490   30.4620   40.8450 C   0  0  2  0  0  3  0  0  0  0  0  0
   36.0890   30.7890   41.4260 O   0  0  0  0  0  0  0  0  0  0  0  0
   36.0680   30.3500   39.8390 C   0  0  0  0  0  0  0  0  0  0  0  0
   36.5950   30.1450   38.4200 C   0  0  0  0  0  3  0  0  0  0  0  0
   37.6250   30.5400   38.3540 H   0  0  0  0  0  0  0  0  0  0  0  0
   36.5590   28.7400   37.9400 C   0  0  0  0  0  3  0  0  0  0  0  0
   36.8830   28.7720   36.8590 H   0  0  0  0  0  0  0  0  0  0  0  0
   35.2640   28.2140   37.9030 O   0  0  0  0  0  0  0  0  0  0  0  0
   34.4230   28.9420   38.7510 C   0  0  0  0  0  3  0  0  0  0  0  0
   33.4420   28.4900   38.8710 H   0  0  0  0  0  0  0  0  0  0  0  0
   35.1260   29.1830   40.0820 C   0  0  0  0  0  3  0  0  0  0  0  0
   34.3480   29.4270   40.7910 H   0  0  0  0  0  0  0  0  0  0  0  0
  1  3  1  0  0  0  0
  1  2  1  0  0  0  0
  2  5  1  0  0  0  0
  2  4  1  0  0  0  0
  3  7  1  0  0  0  0
  3  2  1  0  0  0  0
  6  3  1  0  0  0  0
  8 14  1  0  0  0  0
  8  1  1  0  0  0  0
  9 15  1  0  0  0  0
  9  8  1  0  0  0  0
 10 17  1  0  0  0  0
 10  9  1  0  0  0  0
 11 10  1  0  0  0  0
 11 12  1  0  0  0  0
 12 20  1  0  0  0  0
 12 13  1  0  0  0  0
 13  8  1  0  0  0  0
 13 21  1  0  0  0  0
 16  9  1  0  0  0  0
 18 10  1  0  0  0  0
 19 12  1  0  0  0  0
 22 13  1  0  0  0  0
 23 30  1  0  0  0  0
 24  1  1  0  0  0  0
 24 23  2  0  0  0  0
 25 24  1  0  0  0  0
 26 25  2  0  0  0  0
 26 27  1  0  0  0  0
 27 28  2  0  0  0  0
 28 23  1  0  0  0  0
 29 27  1  0  0  0  0
 29 31  1  0  0  0  0
 32 29  1  0  0  0  0
 33 25  1  1  0  0  0
 33 34  1  0  0  0  0
 35 43  1  0  0  0  0
 35 33  1  0  0  0  0
 35 34  1  0  0  0  0
 36 35  1  0  0  0  0
 37 36  1  0  0  0  0
 38 36  1  0  0  0  0
 39 38  1  0  0  0  0
 40 38  1  0  0  0  0
 40 41  1  0  0  0  0
 41 42  1  0  0  0  0
 41 43  1  0  0  0  0
 43 44  1  0  0  0  0
M  END
>  <minimizedAffinity>
-5.35420704

$$$$

 OpenBabel03242516173D

 44 48  0  0  1  0  0  0  0  0999 V2000
   37.7690   28.4770   38.3330 C   0  0  0  0  0  0  0  0  0  0  0  0
   39.1360   28.2140   37.6880 C   0  0  0  0  0  0  0  0  0  0  0  0
   38.7850   27.7100   39.0150 C   0  0  0  0  0  0  0  0  0  0  0  0
   39.8020   29.0940   37.5790 H   0  0  0  0  0  0  0  0  0  0  0  0
   39.2000   27.5400   36.8180 H   0  0  0  0  0  0  0  0  0  0  0  0
   38.6700   26.6060   39.0580 H   0  0  0  0  0  0  0  0  0  0  0  0
   39.4570   28.0550   39.8110 H   0  0  0  0  0  0  0  0  0  0  0  0
   36.6520   27.7860   37.6380 C   0  0  0  0  0  0  0  0  0  0  0  0
   35.3630   28.5840   37.5480 C   0  0  0  0  0  0  0  0  0  0  0  0
   34.4400   27.7280   36.6620 C   0  0  0  0  0  0  0  0  0  0  0  0
   33.9910   26.6780   37.4750 O   0  0  0  0  0  0  0  0  0  0  0  0
   35.1350   25.8390   37.5630 C   0  0  0  0  0  0  0  0  0  0  0  0
   36.1970   26.5250   38.4160 C   0  0  0  0  0  0  0  0  0  0  0  0
   36.8870   27.4040   36.6360 H   0  0  0  0  0  0  0  0  0  0  0  0
   35.4690   29.5320   36.9970 H   0  0  0  0  0  0  0  0  0  0  0  0
   34.9020   28.6680   38.5440 H   0  0  0  0  0  0  0  0  0  0  0  0
   34.9630   27.3850   35.7640 H   0  0  0  0  0  0  0  0  0  0  0  0
   33.6030   28.3790   36.3460 H   0  0  0  0  0  0  0  0  0  0  0  0
   34.9070   24.8550   37.9730 H   0  0  0  0  0  0  0  0  0  0  0  0
   35.5560   25.7140   36.5470 H   0  0  0  0  0  0  0  0  0  0  0  0
   37.0170   25.8200   38.5540 H   0  0  0  0  0  0  0  0  0  0  0  0
   35.7600   26.9140   39.3510 H   0  0  0  0  0  0  0  0  0  0  0  0
   37.8120   30.9570   37.8470 C   0  0  0  0  0  0  0  0  0  0  0  0
   37.5310   29.9150   38.7140 C   0  0  0  0  0  0  0  0  0  0  0  0
   37.0340   30.2550   39.9660 C   0  0  0  0  0  0  0  0  0  0  0  0
   36.8400   31.5680   40.3010 N   0  0  0  0  0  0  0  0  0  0  0  0
   37.1360   32.5140   39.4100 C   0  0  0  0  0  0  0  0  0  0  0  0
   37.6070   32.2370   38.2160 N   0  0  0  0  0  0  0  0  0  0  0  0
   36.9560   33.8990   39.7050 N   0  0  0  0  0  0  0  0  0  0  0  0
   38.1980   30.7170   36.8710 H   0  0  0  0  0  0  0  0  0  0  0  0
   37.8520   34.3390   40.0310 H   0  0  0  0  0  0  0  0  0  0  0  0
   35.9910   34.2520   39.5580 H   0  0  0  0  0  0  0  0  0  0  0  0
   36.7790   29.2710   40.9990 C   0  0  2  0  0  3  0  0  0  0  0  0
   35.7960   28.5130   41.1650 O   0  0  0  0  0  0  0  0  0  0  0  0
   37.0610   28.4830   42.2210 C   0  0  0  0  0  0  0  0  0  0  0  0
   36.7290   27.0010   42.0610 C   0  0  0  0  0  3  0  0  0  0  0  0
   35.9720   26.8810   41.2660 H   0  0  0  0  0  0  0  0  0  0  0  0
   37.8990   26.1280   41.7840 C   0  0  0  0  0  3  0  0  0  0  0  0
   37.5060   25.0700   41.7930 H   0  0  0  0  0  0  0  0  0  0  0  0
   38.8500   26.1570   42.8090 O   0  0  0  0  0  0  0  0  0  0  0  0
   38.7020   27.3200   43.5720 C   0  0  0  0  0  3  0  0  0  0  0  0
   39.5040   27.4640   44.2910 H   0  0  0  0  0  0  0  0  0  0  0  0
   38.5190   28.5170   42.6460 C   0  0  0  0  0  3  0  0  0  0  0  0
   38.7510   29.3910   43.2400 H   0  0  0  0  0  0  0  0  0  0  0  0
  1 24  1  0  0  0  0
  1  3  1  0  0  0  0
  2  1  1  0  0  0  0
  2  3  1  0  0  0  0
  3  6  1  0  0  0  0
  3  7  1  0  0  0  0
  4  2  1  0  0  0  0
  5  2  1  0  0  0  0
  8  1  1  0  0  0  0
  8 13  1  0  0  0  0
  9  8  1  0  0  0  0
  9 16  1  0  0  0  0
 10 11  1  0  0  0  0
 10  9  1  0  0  0  0
 11 12  1  0  0  0  0
 12 19  1  0  0  0  0
 12 13  1  0  0  0  0
 13 21  1  0  0  0  0
 13 22  1  0  0  0  0
 14  8  1  0  0  0  0
 15  9  1  0  0  0  0
 17 10  1  0  0  0  0
 18 10  1  0  0  0  0
 20 12  1  0  0  0  0
 23 28  2  0  0  0  0
 23 24  1  0  0  0  0
 24 25  2  0  0  0  0
 25 26  1  0  0  0  0
 27 29  1  0  0  0  0
 27 26  2  0  0  0  0
 28 27  1  0  0  0  0
 29 31  1  0  0  0  0
 30 23  1  0  0  0  0
 32 29  1  0  0  0  0
 33 25  1  1  0  0  0
 33 34  1  0  0  0  0
 33 35  1  0  0  0  0
 34 35  1  0  0  0  0
 35 43  1  0  0  0  0
 36 35  1  0  0  0  0
 37 36  1  0  0  0  0
 38 39  1  0  0  0  0
 38 36  1  0  0  0  0
 38 40  1  0  0  0  0
 40 41  1  0  0  0  0
 41 42  1  0  0  0  0
 43 44  1  0  0  0  0
 43 41  1  0  0  0  0
M  END
>  <minimizedAffinity>
-5.30173492

$$$$

 OpenBabel03242516173D

 44 48  0  0  1  0  0  0  0  0999 V2000
   37.4970   27.5740   42.4580 C   0  0  0  0  0  0  0  0  0  0  0  0
   36.5770   27.4290   43.6780 C   0  0  0  0  0  0  0  0  0  0  0  0
   37.2190   28.6950   43.3260 C   0  0  0  0  0  0  0  0  0  0  0  0
   36.9680   26.8140   44.5140 H   0  0  0  0  0  0  0  0  0  0  0  0
   35.4970   27.2720   43.5210 H   0  0  0  0  0  0  0  0  0  0  0  0
   36.5100   29.4730   42.9690 H   0  0  0  0  0  0  0  0  0  0  0  0
   37.8620   29.1000   44.1170 H   0  0  0  0  0  0  0  0  0  0  0  0
   36.7800   27.4340   41.1650 C   0  0  0  0  0  0  0  0  0  0  0  0
   37.6370   26.9560   40.0050 C   0  0  0  0  0  0  0  0  0  0  0  0
   36.6410   26.7450   38.8510 C   0  0  0  0  0  0  0  0  0  0  0  0
   36.3270   28.0260   38.3760 O   0  0  0  0  0  0  0  0  0  0  0  0
   35.4640   28.5310   39.3860 C   0  0  0  0  0  0  0  0  0  0  0  0
   36.2750   28.8060   40.6480 C   0  0  0  0  0  0  0  0  0  0  0  0
   35.8720   26.8170   41.1950 H   0  0  0  0  0  0  0  0  0  0  0  0
   38.0820   25.9620   40.1690 H   0  0  0  0  0  0  0  0  0  0  0  0
   38.3450   27.7450   39.7100 H   0  0  0  0  0  0  0  0  0  0  0  0
   35.7650   26.1810   39.1840 H   0  0  0  0  0  0  0  0  0  0  0  0
   37.1640   26.1480   38.0800 H   0  0  0  0  0  0  0  0  0  0  0  0
   34.9370   29.4350   39.0780 H   0  0  0  0  0  0  0  0  0  0  0  0
   34.7200   27.7500   39.6340 H   0  0  0  0  0  0  0  0  0  0  0  0
   35.6140   29.2890   41.3670 H   0  0  0  0  0  0  0  0  0  0  0  0
   37.1920   29.3710   40.4110 H   0  0  0  0  0  0  0  0  0  0  0  0
   38.8610   25.5000   42.9350 C   0  0  0  0  0  0  0  0  0  0  0  0
   38.8050   26.8370   42.5790 C   0  0  0  0  0  0  0  0  0  0  0  0
   40.0170   27.4790   42.3550 C   0  0  0  0  0  0  0  0  0  0  0  0
   41.1970   26.7970   42.4870 N   0  0  0  0  0  0  0  0  0  0  0  0
   41.1660   25.5110   42.8340 C   0  0  0  0  0  0  0  0  0  0  0  0
   40.0440   24.8650   43.0550 N   0  0  0  0  0  0  0  0  0  0  0  0
   42.3640   24.7510   42.9880 N   0  0  0  0  0  0  0  0  0  0  0  0
   37.9340   24.9820   43.1140 H   0  0  0  0  0  0  0  0  0  0  0  0
   42.6640   24.7110   43.9930 H   0  0  0  0  0  0  0  0  0  0  0  0
   42.7500   24.3640   42.1050 H   0  0  0  0  0  0  0  0  0  0  0  0
   40.1080   28.8950   42.0620 C   0  0  2  0  0  3  0  0  0  0  0  0
   40.0780   29.8810   42.8340 O   0  0  0  0  0  0  0  0  0  0  0  0
   40.2420   30.0980   41.2090 C   0  0  0  0  0  0  0  0  0  0  0  0
   40.4600   29.7610   39.7360 C   0  0  0  0  0  3  0  0  0  0  0  0
   40.8950   28.7500   39.6550 H   0  0  0  0  0  0  0  0  0  0  0  0
   39.2440   29.8600   38.8880 C   0  0  0  0  0  3  0  0  0  0  0  0
   39.5880   29.6810   37.8280 H   0  0  0  0  0  0  0  0  0  0  0  0
   38.7020   31.1490   38.8680 O   0  0  0  0  0  0  0  0  0  0  0  0
   39.1330   31.8720   39.9850 C   0  0  0  0  0  3  0  0  0  0  0  0
   38.6290   32.8280   40.0950 H   0  0  0  0  0  0  0  0  0  0  0  0
   39.0190   31.0000   41.2300 C   0  0  0  0  0  3  0  0  0  0  0  0
   39.0270   31.6790   42.0720 H   0  0  0  0  0  0  0  0  0  0  0  0
  1 24  1  0  0  0  0
  1  3  1  0  0  0  0
  1  2  1  0  0  0  0
  2  4  1  0  0  0  0
  3  2  1  0  0  0  0
  3  7  1  0  0  0  0
  5  2  1  0  0  0  0
  6  3  1  0  0  0  0
  8 14  1  0  0  0  0
  8  1  1  0  0  0  0
  9 15  1  0  0  0  0
  9  8  1  0  0  0  0
 10 17  1  0  0  0  0
 10  9  1  0  0  0  0
 11 10  1  0  0  0  0
 11 12  1  0  0  0  0
 12 20  1  0  0  0  0
 12 13  1  0  0  0  0
 13  8  1  0  0  0  0
 13 21  1  0  0  0  0
 16  9  1  0  0  0  0
 18 10  1  0  0  0  0
 19 12  1  0  0  0  0
 22 13  1  0  0  0  0
 23 28  1  0  0  0  0
 23 30  1  0  0  0  0
 24 23  2  0  0  0  0
 25 26  2  0  0  0  0
 25 24  1  0  0  0  0
 26 27  1  0  0  0  0
 27 29  1  0  0  0  0
 27 28  2  0  0  0  0
 29 31  1  0  0  0  0
 32 29  1  0  0  0  0
 33 25  1  6  0  0  0
 33 34  1  0  0  0  0
 35 43  1  0  0  0  0
 35 33  1  0  0  0  0
 35 34  1  0  0  0  0
 36 35  1  0  0  0  0
 37 36  1  0  0  0  0
 38 36  1  0  0  0  0
 39 38  1  0  0  0  0
 40 38  1  0  0  0  0
 40 41  1  0  0  0  0
 41 42  1  0  0  0  0
 41 43  1  0  0  0  0
 43 44  1  0  0  0  0
M  END
>  <minimizedAffinity>
-5.30073643

$$$$

 OpenBabel03242516173D

 44 48  0  0  1  0  0  0  0  0999 V2000
   35.8650   28.6470   39.3110 C   0  0  0  0  0  0  0  0  0  0  0  0
   34.4010   28.9110   38.9360 C   0  0  0  0  0  0  0  0  0  0  0  0
   34.9530   29.2700   40.2420 C   0  0  0  0  0  0  0  0  0  0  0  0
   33.7550   28.0160   38.8260 H   0  0  0  0  0  0  0  0  0  0  0  0
   34.1690   29.6810   38.1810 H   0  0  0  0  0  0  0  0  0  0  0  0
   35.0360   30.3660   40.4060 H   0  0  0  0  0  0  0  0  0  0  0  0
   34.4360   28.7970   41.0860 H   0  0  0  0  0  0  0  0  0  0  0  0
   36.8260   29.4760   38.5380 C   0  0  0  0  0  0  0  0  0  0  0  0
   38.2820   29.0700   38.6810 C   0  0  0  0  0  0  0  0  0  0  0  0
   39.0320   29.9620   37.6770 C   0  0  0  0  0  0  0  0  0  0  0  0
   39.1010   31.2320   38.2670 O   0  0  0  0  0  0  0  0  0  0  0  0
   37.7730   31.7170   38.1200 C   0  0  0  0  0  0  0  0  0  0  0  0
   36.8470   30.9400   39.0490 C   0  0  0  0  0  0  0  0  0  0  0  0
   36.6030   29.5760   37.4680 H   0  0  0  0  0  0  0  0  0  0  0  0
   38.4870   28.0420   38.3420 H   0  0  0  0  0  0  0  0  0  0  0  0
   38.6420   29.3110   39.6930 H   0  0  0  0  0  0  0  0  0  0  0  0
   38.5330   29.9650   36.7030 H   0  0  0  0  0  0  0  0  0  0  0  0
   40.0400   29.5240   37.5470 H   0  0  0  0  0  0  0  0  0  0  0  0
   37.6890   32.7860   38.3200 H   0  0  0  0  0  0  0  0  0  0  0  0
   37.4420   31.5210   37.0820 H   0  0  0  0  0  0  0  0  0  0  0  0
   35.8610   31.4000   38.9940 H   0  0  0  0  0  0  0  0  0  0  0  0
   37.2720   30.8750   40.0640 H   0  0  0  0  0  0  0  0  0  0  0  0
   35.9820   26.2740   38.4490 C   0  0  0  0  0  0  0  0  0  0  0  0
   36.2110   27.1890   39.4620 C   0  0  0  0  0  0  0  0  0  0  0  0
   36.7620   26.6980   40.6390 C   0  0  0  0  0  0  0  0  0  0  0  0
   37.0550   25.3660   40.7650 N   0  0  0  0  0  0  0  0  0  0  0  0
   36.8020   24.5490   39.7420 C   0  0  0  0  0  0  0  0  0  0  0  0
   36.2840   24.9710   38.6120 N   0  0  0  0  0  0  0  0  0  0  0  0
   37.0850   23.1520   39.8170 N   0  0  0  0  0  0  0  0  0  0  0  0
   35.5560   26.6320   37.5270 H   0  0  0  0  0  0  0  0  0  0  0  0
   36.2300   22.6040   40.0830 H   0  0  0  0  0  0  0  0  0  0  0  0
   38.0680   22.8960   39.6040 H   0  0  0  0  0  0  0  0  0  0  0  0
   36.9740   27.5270   41.8090 C   0  0  2  0  0  3  0  0  0  0  0  0
   36.2070   27.7780   42.7670 O   0  0  0  0  0  0  0  0  0  0  0  0
   37.7170   28.4360   42.7120 C   0  0  0  0  0  0  0  0  0  0  0  0
   39.0180   27.8260   43.2280 C   0  0  0  0  0  3  0  0  0  0  0  0
   38.9440   26.7250   43.1890 H   0  0  0  0  0  0  0  0  0  0  0  0
   40.2420   28.2780   42.5180 C   0  0  0  0  0  3  0  0  0  0  0  0
   41.1110   27.8220   43.0740 H   0  0  0  0  0  0  0  0  0  0  0  0
   40.4470   29.6580   42.6180 O   0  0  0  0  0  0  0  0  0  0  0  0
   39.2460   30.3030   42.9290 C   0  0  0  0  0  3  0  0  0  0  0  0
   39.3170   31.3860   42.8770 H   0  0  0  0  0  0  0  0  0  0  0  0
   38.1270   29.7440   42.0580 C   0  0  0  0  0  3  0  0  0  0  0  0
   37.3340   30.4790   42.0830 H   0  0  0  0  0  0  0  0  0  0  0  0
  1 24  1  0  0  0  0
  1  3  1  0  0  0  0
  2  1  1  0  0  0  0
  2  3  1  0  0  0  0
  3  6  1  0  0  0  0
  3  7  1  0  0  0  0
  4  2  1  0  0  0  0
  5  2  1  0  0  0  0
  8  9  1  0  0  0  0
  8 13  1  0  0  0  0
  8  1  1  0  0  0  0
  9 16  1  0  0  0  0
 10 11  1  0  0  0  0
 10  9  1  0  0  0  0
 12 11  1  0  0  0  0
 12 19  1  0  0  0  0
 12 13  1  0  0  0  0
 13 22  1  0  0  0  0
 14  8  1  0  0  0  0
 15  9  1  0  0  0  0
 17 10  1  0  0  0  0
 18 10  1  0  0  0  0
 20 12  1  0  0  0  0
 21 13  1  0  0  0  0
 23 28  2  0  0  0  0
 23 24  1  0  0  0  0
 24 25  2  0  0  0  0
 25 26  1  0  0  0  0
 27 29  1  0  0  0  0
 27 26  2  0  0  0  0
 28 27  1  0  0  0  0
 29 31  1  0  0  0  0
 30 23  1  0  0  0  0
 32 29  1  0  0  0  0
 33 25  1  6  0  0  0
 33 35  1  0  0  0  0
 33 34  1  0  0  0  0
 35 34  1  0  0  0  0
 35 36  1  0  0  0  0
 37 36  1  0  0  0  0
 38 40  1  0  0  0  0
 38 39  1  0  0  0  0
 38 36  1  0  0  0  0
 40 41  1  0  0  0  0
 42 41  1  0  0  0  0
 43 44  1  0  0  0  0
 43 35  1  0  0  0  0
 43 41  1  0  0  0  0
M  END
>  <minimizedAffinity>
-5.28144312

$$$$

 OpenBabel03242516173D

 44 48  0  0  1  0  0  0  0  0999 V2000
   36.3300   29.0120   39.9650 C   0  0  0  0  0  0  0  0  0  0  0  0
   34.8320   29.2290   39.7160 C   0  0  0  0  0  0  0  0  0  0  0  0
   35.5220   28.0020   39.3220 C   0  0  0  0  0  0  0  0  0  0  0  0
   34.5680   29.9940   38.9580 H   0  0  0  0  0  0  0  0  0  0  0  0
   34.1410   29.2470   40.5760 H   0  0  0  0  0  0  0  0  0  0  0  0
   35.2240   27.1110   39.9150 H   0  0  0  0  0  0  0  0  0  0  0  0
   35.4580   27.7840   38.2490 H   0  0  0  0  0  0  0  0  0  0  0  0
   36.6730   28.8910   41.4050 C   0  0  0  0  0  0  0  0  0  0  0  0
   38.0790   29.3360   41.7690 C   0  0  0  0  0  0  0  0  0  0  0  0
   38.1210   29.2620   43.3060 C   0  0  0  0  0  0  0  0  0  0  0  0
   38.2350   27.9020   43.6230 O   0  0  0  0  0  0  0  0  0  0  0  0
   36.9260   27.4100   43.3660 C   0  0  0  0  0  0  0  0  0  0  0  0
   36.6760   27.4080   41.8610 C   0  0  0  0  0  0  0  0  0  0  0  0
   35.9720   29.3750   42.0970 H   0  0  0  0  0  0  0  0  0  0  0  0
   38.2780   30.3950   41.5390 H   0  0  0  0  0  0  0  0  0  0  0  0
   38.8150   28.6220   41.3690 H   0  0  0  0  0  0  0  0  0  0  0  0
   37.2390   29.7370   43.7480 H   0  0  0  0  0  0  0  0  0  0  0  0
   39.0160   29.8270   43.6300 H   0  0  0  0  0  0  0  0  0  0  0  0
   36.7620   26.4110   43.7710 H   0  0  0  0  0  0  0  0  0  0  0  0
   36.1950   28.1060   43.8220 H   0  0  0  0  0  0  0  0  0  0  0  0
   35.7120   26.9310   41.6860 H   0  0  0  0  0  0  0  0  0  0  0  0
   37.5230   26.9510   41.3220 H   0  0  0  0  0  0  0  0  0  0  0  0
   37.0350   31.2620   39.0530 C   0  0  0  0  0  0  0  0  0  0  0  0
   37.2280   29.8940   39.1370 C   0  0  0  0  0  0  0  0  0  0  0  0
   38.2830   29.3620   38.4050 C   0  0  0  0  0  0  0  0  0  0  0  0
   39.0780   30.1760   37.6440 N   0  0  0  0  0  0  0  0  0  0  0  0
   38.8260   31.4850   37.6150 C   0  0  0  0  0  0  0  0  0  0  0  0
   37.8400   32.0290   38.2920 N   0  0  0  0  0  0  0  0  0  0  0  0
   39.6200   32.3810   36.8390 N   0  0  0  0  0  0  0  0  0  0  0  0
   36.2230   31.6960   39.6120 H   0  0  0  0  0  0  0  0  0  0  0  0
   39.1770   32.5740   35.9070 H   0  0  0  0  0  0  0  0  0  0  0  0
   40.4950   32.6970   37.3000 H   0  0  0  0  0  0  0  0  0  0  0  0
   38.5450   27.9390   38.3330 C   0  0  2  0  0  3  0  0  0  0  0  0
   38.0020   27.0540   37.6320 O   0  0  0  0  0  0  0  0  0  0  0  0
   39.2150   26.6630   38.6760 C   0  0  0  0  0  0  0  0  0  0  0  0
   40.4210   26.8530   39.5920 C   0  0  0  0  0  3  0  0  0  0  0  0
   40.8110   27.8800   39.4730 H   0  0  0  0  0  0  0  0  0  0  0  0
   40.1640   26.5720   41.0280 C   0  0  0  0  0  3  0  0  0  0  0  0
   41.1620   26.6600   41.5460 H   0  0  0  0  0  0  0  0  0  0  0  0
   39.7650   25.2510   41.2570 O   0  0  0  0  0  0  0  0  0  0  0  0
   39.2580   24.6890   40.0800 C   0  0  0  0  0  3  0  0  0  0  0  0
   38.8020   23.7150   40.2350 H   0  0  0  0  0  0  0  0  0  0  0  0
   38.3160   25.6800   39.4070 C   0  0  0  0  0  3  0  0  0  0  0  0
   37.7080   25.0990   38.7270 H   0  0  0  0  0  0  0  0  0  0  0  0
  1  8  1  0  0  0  0
  2  1  1  0  0  0  0
  2  5  1  0  0  0  0
  3  2  1  0  0  0  0
  3  6  1  0  0  0  0
  3  1  1  0  0  0  0
  4  2  1  0  0  0  0
  7  3  1  0  0  0  0
  8  9  1  0  0  0  0
  8 13  1  0  0  0  0
  8 14  1  0  0  0  0
  9 10  1  0  0  0  0
 10 11  1  0  0  0  0
 10 18  1  0  0  0  0
 10 17  1  0  0  0  0
 12 11  1  0  0  0  0
 12 19  1  0  0  0  0
 12 20  1  0  0  0  0
 13 12  1  0  0  0  0
 15  9  1  0  0  0  0
 16  9  1  0  0  0  0
 21 13  1  0  0  0  0
 22 13  1  0  0  0  0
 23 24  1  0  0  0  0
 23 30  1  0  0  0  0
 24  1  1  0  0  0  0
 25 24  2  0  0  0  0
 26 25  1  0  0  0  0
 27 26  2  0  0  0  0
 27 28  1  0  0  0  0
 28 23  2  0  0  0  0
 29 32  1  0  0  0  0
 29 27  1  0  0  0  0
 31 29  1  0  0  0  0
 33 25  1  1  0  0  0
 33 35  1  0  0  0  0
 34 33  1  0  0  0  0
 34 35  1  0  0  0  0
 35 43  1  0  0  0  0
 35 36  1  0  0  0  0
 36 38  1  0  0  0  0
 37 36  1  0  0  0  0
 38 40  1  0  0  0  0
 38 39  1  0  0  0  0
 41 42  1  0  0  0  0
 41 40  1  0  0  0  0
 43 41  1  0  0  0  0
 44 43  1  0  0  0  0
M  END
>  <minimizedAffinity>
-5.27271223

$$$$
