
 OpenBabel03252503353D

 23 24  0  0  0  0  0  0  0  0999 V2000
   47.2390   32.7870   41.8360 C   0  0  0  0  0  0  0  0  0  0  0  0
   46.0210   32.3930   41.8340 O   0  0  0  0  0  0  0  0  0  0  0  0
   47.4830   33.8460   42.7460 N   0  0  0  0  0  0  0  0  0  0  0  0
   48.4460   34.2230   42.8230 H   0  0  0  0  0  0  0  0  0  0  0  0
   48.2530   32.1790   40.9680 C   0  0  0  0  0  3  0  0  0  0  0  0
   49.6540   32.7080   41.2230 C   0  0  0  0  0  3  0  0  0  0  0  0
   49.7460   33.6700   40.7210 H   0  0  0  0  0  0  0  0  0  0  0  0
   50.6000   31.7130   40.5600 C   0  0  0  0  0  3  0  0  0  0  0  0
   50.7460   30.8030   41.1990 H   0  0  0  0  0  0  0  0  0  0  0  0
   50.1300   31.2520   39.3460 O   0  0  0  0  0  0  0  0  0  0  0  0
   49.2930   32.1850   38.7630 C   0  0  0  0  0  3  0  0  0  0  0  0
   49.0580   31.9340   37.7110 H   0  0  0  0  0  0  0  0  0  0  0  0
   47.9730   32.3270   39.5000 C   0  0  0  0  0  3  0  0  0  0  0  0
   47.5860   33.3320   39.2370 H   0  0  0  0  0  0  0  0  0  0  0  0
   44.7360   36.0120   44.0160 C   0  0  0  0  0  0  0  0  0  0  0  0
   45.7240   35.5230   43.1430 C   0  0  0  0  0  0  0  0  0  0  0  0
   46.4700   34.4100   43.5520 C   0  0  0  0  0  0  0  0  0  0  0  0
   46.2140   33.8550   44.7580 N   0  0  0  0  0  0  0  0  0  0  0  0
   45.2490   34.3500   45.5880 C   0  0  0  0  0  0  0  0  0  0  0  0
   44.5260   35.4180   45.2070 N   0  0  0  0  0  0  0  0  0  0  0  0
   44.1620   36.8810   43.6860 H   0  0  0  0  0  0  0  0  0  0  0  0
   45.9180   35.9750   42.1830 H   0  0  0  0  0  0  0  0  0  0  0  0
   45.0270   33.9230   46.5550 H   0  0  0  0  0  0  0  0  0  0  0  0
  1  3  1  0  0  0  0
  2  1  2  0  0  0  0
  3  4  1  0  0  0  0
  3 17  1  0  0  0  0
  5  6  1  0  0  0  0
  5  1  1  0  0  0  0
  7  6  1  0  0  0  0
  8  9  1  0  0  0  0
  8  6  1  0  0  0  0
 10  8  1  0  0  0  0
 11 10  1  0  0  0  0
 11 13  1  0  0  0  0
 12 11  1  0  0  0  0
 13  5  1  0  0  0  0
 14 13  1  0  0  0  0
 15 20  1  0  0  0  0
 16 17  1  0  0  0  0
 16 15  2  0  0  0  0
 17 18  2  0  0  0  0
 18 19  1  0  0  0  0
 19 23  1  0  0  0  0
 20 19  2  0  0  0  0
 21 15  1  0  0  0  0
 22 16  1  0  0  0  0
M  END
>  <minimizedAffinity>
-3.7418201

>  <minimizedRMSD>
2.41236973

$$$$
