
 OpenBabel03252507463D

 38 40  0  0  0  0  0  0  0  0999 V2000
   47.6840   34.7680   41.0160 C   0  0  0  0  0  0  0  0  0  0  0  0
   47.0660   34.2860   40.2390 H   0  0  0  0  0  0  0  0  0  0  0  0
   48.0790   35.7150   40.5680 H   0  0  0  0  0  0  0  0  0  0  0  0
   48.8600   33.9510   41.3720 C   0  0  0  0  0  0  0  0  0  0  0  0
   48.8920   32.6540   40.8670 C   0  0  0  0  0  0  0  0  0  0  0  0
   49.9640   31.8310   41.1550 C   0  0  0  0  0  0  0  0  0  0  0  0
   50.9660   32.3260   41.9360 N   0  0  0  0  0  0  0  0  0  0  0  0
   50.9010   33.5940   42.4100 C   0  0  0  0  0  0  0  0  0  0  0  0
   49.8690   34.3630   42.1230 N   0  0  0  0  0  0  0  0  0  0  0  0
   49.9930   30.8100   40.7600 H   0  0  0  0  0  0  0  0  0  0  0  0
   51.7370   33.9180   43.0260 H   0  0  0  0  0  0  0  0  0  0  0  0
   47.5410   32.0510   39.8380 S   0  0  0  0  0  0  0  0  0  0  0  0
   46.5520   30.8030   40.7210 C   0  0  0  0  0  3  0  0  0  0  0  0
   45.2350   30.6690   40.0030 C   0  0  0  0  0  3  0  0  0  0  0  0
   45.0700   31.5360   39.3290 H   0  0  0  0  0  0  0  0  0  0  0  0
   44.1130   30.6800   40.9970 C   0  0  0  0  0  3  0  0  0  0  0  0
   43.9800   31.7170   41.3580 H   0  0  0  0  0  0  0  0  0  0  0  0
   44.4720   29.8040   42.0210 O   0  0  0  0  0  0  0  0  0  0  0  0
   45.4060   30.3880   42.8550 C   0  0  0  0  0  3  0  0  0  0  0  0
   46.0400   29.6090   43.3290 H   0  0  0  0  0  0  0  0  0  0  0  0
   46.3220   31.3320   42.1170 C   0  0  0  0  0  3  0  0  0  0  0  0
   47.3350   31.3580   42.5970 H   0  0  0  0  0  0  0  0  0  0  0  0
   46.8370   35.1200   42.1880 C   0  0  0  0  0  0  0  0  0  0  0  0
   47.0500   34.3930   43.0060 H   0  0  0  0  0  0  0  0  0  0  0  0
   47.0870   36.1280   42.5330 H   0  0  0  0  0  0  0  0  0  0  0  0
   45.3690   35.0290   41.9250 C   0  0  0  0  0  0  0  0  0  0  0  0
   44.4400   35.6250   42.8290 C   0  0  0  0  0  0  0  0  0  0  0  0
   42.8180   35.2360   42.0690 S   0  0  0  0  0  0  0  0  0  0  0  0
   43.6750   34.3220   40.6390 C   0  0  0  0  0  0  0  0  0  0  0  0
   44.7780   34.4390   40.9150 N   0  0  0  0  0  0  0  0  0  0  0  0
   44.6780   36.1660   43.7330 H   0  0  0  0  0  0  0  0  0  0  0  0
   42.9730   33.7210   39.6010 O   0  0  0  0  0  0  0  0  0  0  0  0
   40.9800   33.8640   37.8710 O   0  0  0  0  0  0  0  0  0  0  0  0
   41.9800   34.7130   38.6470 P   0  0  0  0  0  0  0  0  0  0  0  0
   41.1490   35.7640   39.6840 O   0  0  0  0  0  0  0  0  0  0  0  0
   40.5770   35.2650   40.3050 H   0  0  0  0  0  0  0  0  0  0  0  0
   42.9220   35.6410   37.5980 O   0  0  0  0  0  0  0  0  0  0  0  0
   42.5530   35.5480   36.6700 H   0  0  0  0  0  0  0  0  0  0  0  0
  1  4  1  0  0  0  0
  1 23  1  0  0  0  0
  2  1  1  0  0  0  0
  3  1  1  0  0  0  0
  4  9  1  0  0  0  0
  5  6  1  0  0  0  0
  5  4  2  0  0  0  0
  6  7  2  0  0  0  0
  7  8  1  0  0  0  0
  8 11  1  0  0  0  0
  9  8  2  0  0  0  0
 10  6  1  0  0  0  0
 12 13  1  0  0  0  0
 12  5  1  0  0  0  0
 13 21  1  0  0  0  0
 14 13  1  0  0  0  0
 14 16  1  0  0  0  0
 15 14  1  0  0  0  0
 16 17  1  0  0  0  0
 16 18  1  0  0  0  0
 18 19  1  0  0  0  0
 19 20  1  0  0  0  0
 21 22  1  0  0  0  0
 21 19  1  0  0  0  0
 23 25  1  0  0  0  0
 23 24  1  0  0  0  0
 26 23  1  0  0  0  0
 26 27  2  0  0  0  0
 27 31  1  0  0  0  0
 28 27  1  0  0  0  0
 29 30  2  0  0  0  0
 29 28  1  0  0  0  0
 30 26  1  0  0  0  0
 32 29  1  0  0  0  0
 33 34  2  0  0  0  0
 34 32  1  0  0  0  0
 34 35  1  0  0  0  0
 35 36  1  0  0  0  0
 37 34  1  0  0  0  0
 38 37  1  0  0  0  0
M  END
>  <minimizedAffinity>
-4.34156036

>  <minimizedRMSD>
0.59137243

$$$$
