
 OpenBabel03252502443D

 32 34  0  0  1  0  0  0  0  0999 V2000
   48.9200   34.7000   41.5440 C   0  0  1  0  0  0  0  0  0  0  0  0
   49.9710   34.9780   42.5630 C   0  0  0  0  0  0  0  0  0  0  0  0
   49.4180   33.6020   42.3930 C   0  0  2  0  0  0  0  0  0  0  0  0
   49.1510   34.7590   40.4460 H   0  0  0  0  0  0  0  0  0  0  0  0
   50.9290   35.2700   42.0870 H   0  0  0  0  0  0  0  0  0  0  0  0
   49.8120   35.6020   43.4520 H   0  0  0  0  0  0  0  0  0  0  0  0
   48.8850   33.0000   43.1040 H   0  0  0  0  0  0  0  0  0  0  0  0
   50.3400   32.6740   41.6290 C   0  0  0  0  0  0  0  0  0  0  0  0
   50.8650   31.5590   42.4850 C   0  0  0  0  0  0  0  0  0  0  0  0
   50.0780   30.8540   42.8440 H   0  0  0  0  0  0  0  0  0  0  0  0
   51.7480   30.6610   41.6150 C   0  0  0  0  0  0  0  0  0  0  0  0
   52.0360   29.8190   42.2800 H   0  0  0  0  0  0  0  0  0  0  0  0
   50.9790   30.0910   40.6070 O   0  0  0  0  0  0  0  0  0  0  0  0
   50.4720   31.0280   39.7480 C   0  0  0  0  0  0  0  0  0  0  0  0
   49.7480   30.4830   39.0740 H   0  0  0  0  0  0  0  0  0  0  0  0
   49.7460   32.1680   40.3310 C   0  0  0  0  0  0  0  0  0  0  0  0
   48.6880   31.8640   40.5570 H   0  0  0  0  0  0  0  0  0  0  0  0
   47.5380   35.2010   41.8230 C   0  0  0  0  0  0  0  0  0  0  0  0
   47.6760   35.9240   42.6880 H   0  0  0  0  0  0  0  0  0  0  0  0
   47.0830   35.7560   41.0100 H   0  0  0  0  0  0  0  0  0  0  0  0
   46.7510   34.0020   42.3120 C   0  0  0  0  0  0  0  0  0  0  0  0
   47.4940   33.3870   42.9150 H   0  0  0  0  0  0  0  0  0  0  0  0
   46.2120   33.4530   41.5590 H   0  0  0  0  0  0  0  0  0  0  0  0
   44.5350   35.9520   44.6270 C   0  0  0  0  0  0  0  0  0  0  0  0
   45.2190   35.5640   43.4560 C   0  0  0  0  0  0  0  0  0  0  0  0
   45.9620   34.4150   43.5060 C   0  0  0  0  0  0  0  0  0  0  0  0
   46.0080   33.6990   44.6650 N   0  0  0  0  0  0  0  0  0  0  0  0
   45.3590   34.0760   45.7550 C   0  0  0  0  0  0  0  0  0  0  0  0
   44.6260   35.1930   45.7460 N   0  0  0  0  0  0  0  0  0  0  0  0
   43.9230   36.8290   44.7160 H   0  0  0  0  0  0  0  0  0  0  0  0
   45.0290   36.2640   42.6620 H   0  0  0  0  0  0  0  0  0  0  0  0
   45.4470   33.4530   46.6350 H   0  0  0  0  0  0  0  0  0  0  0  0
  1  4  1  6  0  0  0
  1 18  1  0  0  0  0
  1  3  1  0  0  0  0
  1  2  1  0  0  0  0
  2  6  1  0  0  0  0
  3  2  1  0  0  0  0
  3  7  1  1  0  0  0
  5  2  1  0  0  0  0
  8  3  1  0  0  0  0
  8  9  1  0  0  0  0
  9 10  1  0  0  0  0
 11 12  1  0  0  0  0
 11  9  1  0  0  0  0
 13 11  1  0  0  0  0
 14 16  1  0  0  0  0
 14 13  1  0  0  0  0
 15 14  1  0  0  0  0
 16 17  1  0  0  0  0
 16  8  1  0  0  0  0
 18 21  1  0  0  0  0
 18 19  1  0  0  0  0
 20 18  1  0  0  0  0
 21 22  1  0  0  0  0
 21 26  1  0  0  0  0
 23 21  1  0  0  0  0
 24 30  1  0  0  0  0
 24 29  1  0  0  0  0
 25 26  1  0  0  0  0
 25 24  2  0  0  0  0
 26 27  2  0  0  0  0
 27 28  1  0  0  0  0
 28 32  1  0  0  0  0
 29 28  2  0  0  0  0
 31 25  1  0  0  0  0
M  END
>  <minimizedAffinity>
-4.7540307

>  <minimizedRMSD>
1.108459

$$$$
