
 OpenBabel03252508153D

 38 41  0  0  1  0  0  0  0  0999 V2000
   47.9890   30.3020   47.6960 C   0  0  0  0  0  3  0  0  0  0  0  0
   48.6140   29.7600   46.7250 C   0  0  0  0  0  3  0  0  0  0  0  0
   45.1940   32.6930   47.9160 C   0  0  0  0  0  0  0  0  0  0  0  0
   45.3130   33.4370   46.7510 C   0  0  0  0  0  0  0  0  0  0  0  0
   46.3600   33.1070   45.9090 C   0  0  0  0  0  0  0  0  0  0  0  0
   47.1680   32.1070   46.2790 N   0  0  0  0  0  0  0  0  0  0  0  0
   47.0600   31.3900   47.3950 C   0  0  0  0  0  0  0  0  0  0  0  0
   46.0490   31.7170   48.1980 N   0  0  0  0  0  0  0  0  0  0  0  0
   44.3840   32.9330   48.5880 H   0  0  0  0  0  0  0  0  0  0  0  0
   44.6590   34.2340   46.4650 H   0  0  0  0  0  0  0  0  0  0  0  0
   46.6380   33.7840   44.6400 C   0  0  0  0  0  3  0  0  0  0  0  0
   45.3560   34.3280   43.9950 C   0  0  0  0  0  3  0  0  0  0  0  0
   44.7580   33.5170   43.5710 H   0  0  0  0  0  0  0  0  0  0  0  0
   45.8410   35.2380   42.8810 C   0  0  0  0  0  3  0  0  0  0  0  0
   45.0680   35.3070   42.1020 H   0  0  0  0  0  0  0  0  0  0  0  0
   47.1000   34.9130   42.4430 O   0  0  0  0  0  0  0  0  0  0  0  0
   47.3610   33.5550   42.3430 C   0  0  0  0  0  3  0  0  0  0  0  0
   48.4530   33.4830   42.0850 H   0  0  0  0  0  0  0  0  0  0  0  0
   47.1790   32.7950   43.6250 C   0  0  0  0  0  3  0  0  0  0  0  0
   46.3660   32.0410   43.4500 H   0  0  0  0  0  0  0  0  0  0  0  0
   49.5620   28.6320   47.1140 C   0  0  0  0  0  0  0  0  0  0  0  0
   50.5900   28.8780   46.8230 H   0  0  0  0  0  0  0  0  0  0  0  0
   49.2270   27.7570   46.5260 H   0  0  0  0  0  0  0  0  0  0  0  0
   49.3920   28.3060   48.5790 C   0  0  1  0  0  0  0  0  0  0  0  0
   50.3240   27.2880   49.1370 C   0  0  0  0  0  0  0  0  0  0  0  0
   50.4660   28.6760   49.5300 C   0  0  1  0  0  0  0  0  0  0  0  0
   48.3560   28.3320   48.9620 H   0  0  0  0  0  0  0  0  0  0  0  0
   51.0840   26.8340   48.4630 H   0  0  0  0  0  0  0  0  0  0  0  0
   49.9420   26.5370   49.8730 H   0  0  0  0  0  0  0  0  0  0  0  0
   50.1190   28.9270   50.5800 H   0  0  0  0  0  0  0  0  0  0  0  0
   51.5340   29.5890   49.0600 C   0  0  0  0  0  0  0  0  0  0  0  0
   52.2400   30.3920   50.1900 C   0  0  0  0  0  0  0  0  0  0  0  0
   51.2850   31.0990   49.3210 C   0  0  0  0  0  0  0  0  0  0  0  0
   52.1460   29.3470   48.1720 H   0  0  0  0  0  0  0  0  0  0  0  0
   51.9130   30.1910   51.2300 H   0  0  0  0  0  0  0  0  0  0  0  0
   53.3200   30.5820   50.0030 H   0  0  0  0  0  0  0  0  0  0  0  0
   50.2800   31.3560   49.7050 H   0  0  0  0  0  0  0  0  0  0  0  0
   51.6210   31.7810   48.5000 H   0  0  0  0  0  0  0  0  0  0  0  0
  2 21  1  0  0  0  0
  2  1  2  0  0  0  0
  3  8  1  0  0  0  0
  3  9  1  0  0  0  0
  4  3  2  0  0  0  0
  5  6  2  0  0  0  0
  5  4  1  0  0  0  0
  6  7  1  0  0  0  0
  7  1  1  0  0  0  0
  7  8  2  0  0  0  0
 10  4  1  0  0  0  0
 11  5  1  0  0  0  0
 12 11  1  0  0  0  0
 13 12  1  0  0  0  0
 14 12  1  0  0  0  0
 15 14  1  0  0  0  0
 16 14  1  0  0  0  0
 17 16  1  0  0  0  0
 17 19  1  0  0  0  0
 18 17  1  0  0  0  0
 19 11  1  0  0  0  0
 20 19  1  0  0  0  0
 21 24  1  0  0  0  0
 22 21  1  0  0  0  0
 23 21  1  0  0  0  0
 24 27  1  1  0  0  0
 24 25  1  0  0  0  0
 24 26  1  0  0  0  0
 25 26  1  0  0  0  0
 25 29  1  0  0  0  0
 26 30  1  1  0  0  0
 28 25  1  0  0  0  0
 31 33  1  0  0  0  0
 31 26  1  0  0  0  0
 31 32  1  0  0  0  0
 32 35  1  0  0  0  0
 33 37  1  0  0  0  0
 33 32  1  0  0  0  0
 34 31  1  0  0  0  0
 36 32  1  0  0  0  0
 38 33  1  0  0  0  0
M  END
>  <minimizedAffinity>
-3.98787379

>  <minimizedRMSD>
3.77631545

$$$$
