
 OpenBabel03252509053D

 49 51  0  0  1  0  0  0  0  0999 V2000
   46.9000   34.2860   43.5840 N   0  0  0  0  0  0  0  0  0  0  0  0
   46.5410   35.1540   42.5310 C   0  0  0  0  0  0  0  0  0  0  0  0
   45.0490   35.3080   42.3050 C   0  0  0  0  0  0  0  0  0  0  0  0
   44.2270   35.2180   43.5610 C   0  0  0  0  0  0  0  0  0  0  0  0
   45.0940   35.0920   44.7930 C   0  0  0  0  0  0  0  0  0  0  0  0
   45.9720   33.8160   44.4920 C   0  0  2  0  0  0  0  0  0  0  0  0
   46.9720   34.9460   41.5450 H   0  0  0  0  0  0  0  0  0  0  0  0
   46.9150   36.1790   42.8020 H   0  0  0  0  0  0  0  0  0  0  0  0
   44.7410   34.5690   41.5400 H   0  0  0  0  0  0  0  0  0  0  0  0
   44.8650   36.3150   41.8660 H   0  0  0  0  0  0  0  0  0  0  0  0
   43.5600   36.1030   43.6960 H   0  0  0  0  0  0  0  0  0  0  0  0
   43.5680   34.3420   43.5360 H   0  0  0  0  0  0  0  0  0  0  0  0
   44.4600   34.8320   45.6460 H   0  0  0  0  0  0  0  0  0  0  0  0
   45.7640   35.9600   44.9560 H   0  0  0  0  0  0  0  0  0  0  0  0
   45.2250   33.0720   44.1470 H   0  0  0  0  0  0  0  0  0  0  0  0
   48.0500   33.4700   43.3020 C   0  0  0  0  0  0  0  0  0  0  0  0
   48.4980   33.1560   44.2700 H   0  0  0  0  0  0  0  0  0  0  0  0
   48.7550   34.0900   42.7200 H   0  0  0  0  0  0  0  0  0  0  0  0
   47.6260   32.2610   42.5580 C   0  0  0  0  0  0  0  0  0  0  0  0
   47.7700   31.3090   43.0990 H   0  0  0  0  0  0  0  0  0  0  0  0
   46.5280   32.2910   42.3230 H   0  0  0  0  0  0  0  0  0  0  0  0
   50.2210   31.6510   39.9120 C   0  0  0  0  0  0  0  0  0  0  0  0
   49.5630   31.7070   41.1540 C   0  0  0  0  0  0  0  0  0  0  0  0
   48.2980   32.2140   41.2370 C   0  0  0  0  0  0  0  0  0  0  0  0
   47.7320   32.6420   40.1040 N   0  0  0  0  0  0  0  0  0  0  0  0
   48.3390   32.5980   38.9150 C   0  0  0  0  0  0  0  0  0  0  0  0
   49.5850   32.1050   38.7970 N   0  0  0  0  0  0  0  0  0  0  0  0
   51.2350   31.2470   39.8350 H   0  0  0  0  0  0  0  0  0  0  0  0
   50.1070   31.3330   42.0200 H   0  0  0  0  0  0  0  0  0  0  0  0
   47.7340   32.9890   38.0920 H   0  0  0  0  0  0  0  0  0  0  0  0
   46.5270   33.5520   45.7240 O   0  0  0  0  0  0  0  0  0  0  0  0
   45.6080   31.1320   45.1550 O   0  0  0  0  0  0  0  0  0  0  0  0
   46.1910   31.9920   46.2750 P   0  0  2  0  0  0  0  0  0  0  0  0
   44.9540   32.1620   47.4300 O   0  0  0  0  0  0  0  0  0  0  0  0
   45.1500   31.6890   48.2730 H   0  0  0  0  0  0  0  0  0  0  0  0
   47.5130   31.2830   47.0130 O   0  0  0  0  0  0  0  0  0  0  0  0
   47.8570   30.1510   46.2710 C   0  0  0  0  0  0  0  0  0  0  0  0
   46.9440   29.5020   46.2160 H   0  0  0  0  0  0  0  0  0  0  0  0
   48.2210   30.4040   45.2730 H   0  0  0  0  0  0  0  0  0  0  0  0
   48.8920   29.4100   47.0920 C   0  0  0  0  0  3  0  0  0  0  0  0
   50.1570   29.1160   46.3190 C   0  0  0  0  0  3  0  0  0  0  0  0
   49.9430   28.3530   45.5430 H   0  0  0  0  0  0  0  0  0  0  0  0
   51.0980   28.4530   47.3260 C   0  0  0  0  0  3  0  0  0  0  0  0
   52.0590   28.1550   46.8580 H   0  0  0  0  0  0  0  0  0  0  0  0
   50.5180   27.3040   47.8170 O   0  0  0  0  0  0  0  0  0  0  0  0
   49.3440   27.4910   48.5120 C   0  0  0  0  0  3  0  0  0  0  0  0
   49.0000   26.4920   48.8340 H   0  0  0  0  0  0  0  0  0  0  0  0
   48.2940   28.1230   47.6060 C   0  0  0  0  0  3  0  0  0  0  0  0
   48.1280   27.4600   46.7390 H   0  0  0  0  0  0  0  0  0  0  0  0
  1  6  1  0  0  0  0
  2  8  1  0  0  0  0
  2  1  1  0  0  0  0
  3  2  1  0  0  0  0
  3  4  1  0  0  0  0
  4 11  1  0  0  0  0
  4  5  1  0  0  0  0
  5 14  1  0  0  0  0
  5 13  1  0  0  0  0
  6 15  1  6  0  0  0
  6  5  1  0  0  0  0
  6 31  1  0  0  0  0
  7  2  1  0  0  0  0
  9  3  1  0  0  0  0
 10  3  1  0  0  0  0
 12  4  1  0  0  0  0
 16  1  1  0  0  0  0
 16 17  1  0  0  0  0
 18 16  1  0  0  0  0
 19 20  1  0  0  0  0
 19 16  1  0  0  0  0
 21 19  1  0  0  0  0
 22 23  1  0  0  0  0
 23 24  2  0  0  0  0
 23 29  1  0  0  0  0
 24 19  1  0  0  0  0
 25 24  1  0  0  0  0
 26 25  2  0  0  0  0
 27 26  1  0  0  0  0
 27 22  2  0  0  0  0
 28 22  1  0  0  0  0
 30 26  1  0  0  0  0
 31 33  1  0  0  0  0
 33 32  2  6  0  0  0
 33 36  1  0  0  0  0
 33 34  1  0  0  0  0
 34 35  1  0  0  0  0
 37 36  1  0  0  0  0
 37 40  1  0  0  0  0
 38 37  1  0  0  0  0
 39 37  1  0  0  0  0
 40 48  1  0  0  0  0
 41 40  1  0  0  0  0
 41 43  1  0  0  0  0
 42 41  1  0  0  0  0
 43 45  1  0  0  0  0
 44 43  1  0  0  0  0
 45 46  1  0  0  0  0
 46 47  1  0  0  0  0
 48 46  1  0  0  0  0
 49 48  1  0  0  0  0
M  END
>  <minimizedAffinity>
-4.20610476

>  <minimizedRMSD>
1.60210729

$$$$
