
 OpenBabel03242520163D

 26 28  0  0  0  0  0  0  0  0999 V2000
   44.2190   34.4440   41.6560 C   0  0  0  0  0  0  0  0  0  0  0  0
   42.9950   35.0790   41.2930 C   0  0  0  0  0  0  0  0  0  0  0  0
   42.4830   34.8900   40.0040 C   0  0  0  0  0  0  0  0  0  0  0  0
   43.2100   34.0970   39.1710 N   0  0  0  0  0  0  0  0  0  0  0  0
   44.3740   33.5060   39.5430 C   0  0  0  0  0  0  0  0  0  0  0  0
   44.8590   33.6840   40.7690 N   0  0  0  0  0  0  0  0  0  0  0  0
   42.4480   35.7020   41.9840 H   0  0  0  0  0  0  0  0  0  0  0  0
   44.9040   32.8780   38.8140 H   0  0  0  0  0  0  0  0  0  0  0  0
   41.2170   35.5140   39.5440 C   0  0  0  0  0  0  0  0  0  0  0  0
   40.0120   34.9430   40.2940 C   0  0  0  0  0  0  0  0  0  0  0  0
   39.2320   35.7190   40.4480 H   0  0  0  0  0  0  0  0  0  0  0  0
   39.4920   33.6750   39.7110 C   0  0  0  0  0  0  0  0  0  0  0  0
   38.3670   33.7430   39.7340 H   0  0  0  0  0  0  0  0  0  0  0  0
   39.8390   33.4520   38.3860 O   0  0  0  0  0  0  0  0  0  0  0  0
   39.7550   34.6830   37.7330 C   0  0  0  0  0  0  0  0  0  0  0  0
   39.6260   34.5410   36.6560 H   0  0  0  0  0  0  0  0  0  0  0  0
   41.0400   35.4230   38.0510 C   0  0  0  0  0  0  0  0  0  0  0  0
   40.9460   36.4120   37.5480 H   0  0  0  0  0  0  0  0  0  0  0  0
   44.7430   34.6680   43.0200 C   0  0  0  0  0  0  0  0  0  0  0  0
   45.6630   35.9160   43.0990 C   0  0  0  0  0  0  0  0  0  0  0  0
   44.3630   35.8040   43.8280 C   0  0  0  0  0  0  0  0  0  0  0  0
   45.1550   33.7580   43.5240 H   0  0  0  0  0  0  0  0  0  0  0  0
   45.7650   36.5430   42.2120 H   0  0  0  0  0  0  0  0  0  0  0  0
   46.5730   35.7640   43.7120 H   0  0  0  0  0  0  0  0  0  0  0  0
   44.3340   35.7800   44.9190 H   0  0  0  0  0  0  0  0  0  0  0  0
   43.5840   36.5050   43.4140 H   0  0  0  0  0  0  0  0  0  0  0  0
  1 19  1  0  0  0  0
  2  1  1  0  0  0  0
  2  7  1  0  0  0  0
  3  2  2  0  0  0  0
  4  5  2  0  0  0  0
  4  3  1  0  0  0  0
  5  6  1  0  0  0  0
  6  1  2  0  0  0  0
  8  5  1  0  0  0  0
  9  3  1  0  0  0  0
  9 10  1  0  0  0  0
 10 11  1  0  0  0  0
 12 13  1  0  0  0  0
 12 10  1  0  0  0  0
 14 12  1  0  0  0  0
 15 17  1  0  0  0  0
 15 14  1  0  0  0  0
 16 15  1  0  0  0  0
 17  9  1  0  0  0  0
 18 17  1  0  0  0  0
 19 20  1  0  0  0  0
 19 22  1  0  0  0  0
 19 21  1  0  0  0  0
 20 24  1  0  0  0  0
 20 21  1  0  0  0  0
 21 25  1  0  0  0  0
 23 20  1  0  0  0  0
 26 21  1  0  0  0  0
M  END
>  <minimizedAffinity>
-4.48676777

>  <minimizedRMSD>
7.81417227

$$$$
