
 OpenBabel03242523433D

 25 26  0  0  1  0  0  0  0  0999 V2000
   45.8920   35.2840   42.2490 C   0  0  1  0  0  0  0  0  0  0  0  0
   45.7880   36.4160   42.2150 H   0  0  0  0  0  0  0  0  0  0  0  0
   45.0430   34.7300   41.1740 C   0  0  0  0  0  3  0  0  0  0  0  0
   43.5780   34.5540   41.5260 C   0  0  0  0  0  3  0  0  0  0  0  0
   43.4070   33.6370   42.0830 H   0  0  0  0  0  0  0  0  0  0  0  0
   42.8980   34.3810   40.1660 C   0  0  0  0  0  3  0  0  0  0  0  0
   43.1670   35.2740   39.5730 H   0  0  0  0  0  0  0  0  0  0  0  0
   43.2940   33.1980   39.6340 O   0  0  0  0  0  0  0  0  0  0  0  0
   44.6330   33.0100   39.4060 C   0  0  0  0  0  3  0  0  0  0  0  0
   44.7990   31.9220   39.2560 H   0  0  0  0  0  0  0  0  0  0  0  0
   45.5330   33.4900   40.5010 C   0  0  0  0  0  3  0  0  0  0  0  0
   45.6450   32.6910   41.2420 H   0  0  0  0  0  0  0  0  0  0  0  0
   44.8190   35.6800   44.4210 C   0  0  0  0  0  0  0  0  0  0  0  0
   45.6210   34.8640   43.6200 C   0  0  0  0  0  0  0  0  0  0  0  0
   46.1410   33.6930   44.1750 C   0  0  0  0  0  0  0  0  0  0  0  0
   45.8370   33.4100   45.4670 N   0  0  0  0  0  0  0  0  0  0  0  0
   45.0540   34.2220   46.2200 C   0  0  0  0  0  0  0  0  0  0  0  0
   44.5360   35.3680   45.7040 N   0  0  0  0  0  0  0  0  0  0  0  0
   44.3970   36.5960   44.0270 H   0  0  0  0  0  0  0  0  0  0  0  0
   46.7650   33.0360   43.6130 H   0  0  0  0  0  0  0  0  0  0  0  0
   44.8510   33.9260   47.2580 H   0  0  0  0  0  0  0  0  0  0  0  0
   47.3540   35.0130   41.9590 C   0  0  0  0  0  0  0  0  0  0  0  0
   47.5420   33.9280   41.9500 H   0  0  0  0  0  0  0  0  0  0  0  0
   47.5990   35.5040   40.9930 H   0  0  0  0  0  0  0  0  0  0  0  0
   47.9550   35.4640   42.7820 H   0  0  0  0  0  0  0  0  0  0  0  0
  1  2  1  6  0  0  0
  1 14  1  0  0  0  0
  3  4  1  0  0  0  0
  3  1  1  0  0  0  0
  4  5  1  0  0  0  0
  6  4  1  0  0  0  0
  7  6  1  0  0  0  0
  8  6  1  0  0  0  0
  9  8  1  0  0  0  0
  9 11  1  0  0  0  0
 10  9  1  0  0  0  0
 11  3  1  0  0  0  0
 11 12  1  0  0  0  0
 13 18  1  0  0  0  0
 14 15  1  0  0  0  0
 14 13  2  0  0  0  0
 15 16  2  0  0  0  0
 16 17  1  0  0  0  0
 17 21  1  0  0  0  0
 18 17  2  0  0  0  0
 19 13  1  0  0  0  0
 20 15  1  0  0  0  0
 22  1  1  0  0  0  0
 22 25  1  0  0  0  0
 23 22  1  0  0  0  0
 24 22  1  0  0  0  0
M  END
>  <minimizedAffinity>
-4.06236649

>  <minimizedRMSD>
1.24465704

$$$$
