
 OpenBabel03252509333D

 41 43  0  0  1  0  0  0  0  0999 V2000
   45.9440   33.6140   41.9460 C   0  0  1  0  0  0  0  0  0  0  0  0
   45.6850   34.2450   40.6050 C   0  0  0  0  0  0  0  0  0  0  0  0
   45.8050   33.0650   39.6720 C   0  0  0  0  0  0  0  0  0  0  0  0
   46.6980   32.0690   40.3650 C   0  0  0  0  0  0  0  0  0  0  0  0
   47.1680   32.7600   41.6370 C   0  0  1  0  0  0  0  0  0  0  0  0
   45.1290   32.9060   42.1900 H   0  0  0  0  0  0  0  0  0  0  0  0
   44.6200   34.6120   40.5300 H   0  0  0  0  0  0  0  0  0  0  0  0
   46.3300   35.0880   40.3780 H   0  0  0  0  0  0  0  0  0  0  0  0
   44.8050   32.6040   39.4470 H   0  0  0  0  0  0  0  0  0  0  0  0
   46.1870   33.4220   38.7080 H   0  0  0  0  0  0  0  0  0  0  0  0
   47.5310   31.8710   39.6660 H   0  0  0  0  0  0  0  0  0  0  0  0
   46.1290   31.1710   40.6560 H   0  0  0  0  0  0  0  0  0  0  0  0
   47.3760   32.0440   42.4410 H   0  0  0  0  0  0  0  0  0  0  0  0
   48.3890   33.5900   41.4100 C   0  0  0  0  0  3  0  0  0  0  0  0
   49.1790   33.6550   42.7000 C   0  0  0  0  0  3  0  0  0  0  0  0
   48.9980   34.5920   43.2780 H   0  0  0  0  0  0  0  0  0  0  0  0
   50.6820   33.7120   42.3920 C   0  0  0  0  0  3  0  0  0  0  0  0
   51.1740   33.7190   43.4000 H   0  0  0  0  0  0  0  0  0  0  0  0
   51.1160   32.5580   41.7730 O   0  0  0  0  0  0  0  0  0  0  0  0
   50.1620   31.9050   41.0210 C   0  0  0  0  0  3  0  0  0  0  0  0
   50.6330   31.3730   40.1720 H   0  0  0  0  0  0  0  0  0  0  0  0
   49.2870   32.9840   40.3990 C   0  0  0  0  0  3  0  0  0  0  0  0
   48.8180   32.5720   39.5130 H   0  0  0  0  0  0  0  0  0  0  0  0
   46.1870   34.5030   42.9640 O   0  0  0  0  0  0  0  0  0  0  0  0
   44.7880   34.9710   45.1010 O   0  0  0  0  0  0  0  0  0  0  0  0
   45.5830   33.9020   44.4140 P   0  0  1  0  0  0  0  0  0  0  0  0
   44.6980   32.4970   44.1800 O   0  0  0  0  0  0  0  0  0  0  0  0
   44.8160   32.1740   43.2550 H   0  0  0  0  0  0  0  0  0  0  0  0
   46.9090   33.4620   45.3810 O   0  0  0  0  0  0  0  0  0  0  0  0
   46.9490   32.1020   45.4530 C   0  0  0  0  0  0  0  0  0  0  0  0
   48.0440   31.8270   45.4050 H   0  0  0  0  0  0  0  0  0  0  0  0
   46.4750   31.5190   44.6740 H   0  0  0  0  0  0  0  0  0  0  0  0
   46.6660   31.5450   49.1220 C   0  0  0  0  0  0  0  0  0  0  0  0
   47.1200   32.0360   47.8930 C   0  0  0  0  0  0  0  0  0  0  0  0
   46.4820   31.5930   46.7480 C   0  0  0  0  0  0  0  0  0  0  0  0
   45.4480   30.7030   46.8750 N   0  0  0  0  0  0  0  0  0  0  0  0
   45.0380   30.2520   48.0810 C   0  0  0  0  0  0  0  0  0  0  0  0
   45.6460   30.6720   49.1820 N   0  0  0  0  0  0  0  0  0  0  0  0
   47.2160   31.9380   49.9800 H   0  0  0  0  0  0  0  0  0  0  0  0
   47.9470   32.7470   47.8070 H   0  0  0  0  0  0  0  0  0  0  0  0
   44.2180   29.5500   48.1230 H   0  0  0  0  0  0  0  0  0  0  0  0
  1  6  1  1  0  0  0
  1 24  1  0  0  0  0
  2  1  1  0  0  0  0
  3  4  1  0  0  0  0
  3  2  1  0  0  0  0
  4 12  1  0  0  0  0
  4  5  1  0  0  0  0
  5  1  1  0  0  0  0
  5 13  1  1  0  0  0
  7  2  1  0  0  0  0
  8  2  1  0  0  0  0
  9  3  1  0  0  0  0
 10  3  1  0  0  0  0
 11  4  1  0  0  0  0
 14  5  1  0  0  0  0
 14 15  1  0  0  0  0
 15 16  1  0  0  0  0
 17 15  1  0  0  0  0
 17 18  1  0  0  0  0
 19 17  1  0  0  0  0
 20 19  1  0  0  0  0
 21 20  1  0  0  0  0
 22 20  1  0  0  0  0
 22 14  1  0  0  0  0
 23 22  1  0  0  0  0
 24 26  1  0  0  0  0
 26 25  2  1  0  0  0
 26 29  1  0  0  0  0
 27 26  1  0  0  0  0
 28 27  1  0  0  0  0
 29 30  1  0  0  0  0
 30 35  1  0  0  0  0
 31 30  1  0  0  0  0
 32 30  1  0  0  0  0
 33 38  1  0  0  0  0
 33 39  1  0  0  0  0
 34 33  2  0  0  0  0
 35 36  2  0  0  0  0
 35 34  1  0  0  0  0
 36 37  1  0  0  0  0
 37 41  1  0  0  0  0
 37 38  2  0  0  0  0
 40 34  1  0  0  0  0
M  END
>  <minimizedAffinity>
-4.77926493

>  <minimizedRMSD>
2.44729686

$$$$
