
 OpenBabel03252509333D

 41 43  0  0  1  0  0  0  0  0999 V2000
   37.2490   28.0900   41.9220 C   0  0  1  0  0  0  0  0  0  0  0  0
   37.2640   27.9140   43.4160 C   0  0  0  0  0  0  0  0  0  0  0  0
   38.6940   27.5050   43.6720 C   0  0  0  0  0  0  0  0  0  0  0  0
   39.1870   26.8750   42.3950 C   0  0  0  0  0  0  0  0  0  0  0  0
   37.9780   26.8300   41.4710 C   0  0  1  0  0  0  0  0  0  0  0  0
   37.9000   28.9390   41.6390 H   0  0  0  0  0  0  0  0  0  0  0  0
   37.1100   28.9010   43.9410 H   0  0  0  0  0  0  0  0  0  0  0  0
   36.5080   27.2310   43.7910 H   0  0  0  0  0  0  0  0  0  0  0  0
   39.3390   28.3820   43.9500 H   0  0  0  0  0  0  0  0  0  0  0  0
   38.7140   26.8380   44.5430 H   0  0  0  0  0  0  0  0  0  0  0  0
   39.5370   25.8630   42.6710 H   0  0  0  0  0  0  0  0  0  0  0  0
   39.9550   27.5050   41.9200 H   0  0  0  0  0  0  0  0  0  0  0  0
   38.2660   26.8850   40.4140 H   0  0  0  0  0  0  0  0  0  0  0  0
   37.1550   25.6010   41.6760 C   0  0  0  0  0  3  0  0  0  0  0  0
   36.6070   25.1540   40.3380 C   0  0  0  0  0  3  0  0  0  0  0  0
   35.5550   25.4830   40.1640 H   0  0  0  0  0  0  0  0  0  0  0  0
   36.5120   23.6220   40.2950 C   0  0  0  0  0  3  0  0  0  0  0  0
   36.1370   23.3930   39.2630 H   0  0  0  0  0  0  0  0  0  0  0  0
   37.7580   23.0350   40.3780 O   0  0  0  0  0  0  0  0  0  0  0  0
   38.7030   23.7670   41.0660 C   0  0  0  0  0  3  0  0  0  0  0  0
   39.4330   23.0950   41.5570 H   0  0  0  0  0  0  0  0  0  0  0  0
   37.9670   24.4750   42.1940 C   0  0  0  0  0  3  0  0  0  0  0  0
   38.6830   24.7060   42.9740 H   0  0  0  0  0  0  0  0  0  0  0  0
   35.9970   28.1810   41.3650 O   0  0  0  0  0  0  0  0  0  0  0  0
   34.7790   29.4200   39.4350 O   0  0  0  0  0  0  0  0  0  0  0  0
   35.8730   29.5840   40.4460 P   0  0  1  0  0  0  0  0  0  0  0  0
   35.6550   30.9380   41.4110 O   0  0  0  0  0  0  0  0  0  0  0  0
   35.7960   30.7030   42.3600 H   0  0  0  0  0  0  0  0  0  0  0  0
   37.3580   29.8120   39.6530 O   0  0  0  0  0  0  0  0  0  0  0  0
   37.2530   30.9180   38.8630 C   0  0  0  0  0  0  0  0  0  0  0  0
   36.2120   31.3210   39.0410 H   0  0  0  0  0  0  0  0  0  0  0  0
   37.3350   30.8070   37.7890 H   0  0  0  0  0  0  0  0  0  0  0  0
   40.2500   33.1140   39.0610 C   0  0  0  0  0  0  0  0  0  0  0  0
   39.3940   32.0840   38.6580 C   0  0  0  0  0  0  0  0  0  0  0  0
   38.1600   31.9950   39.2780 C   0  0  0  0  0  0  0  0  0  0  0  0
   37.8430   32.9110   40.2460 N   0  0  0  0  0  0  0  0  0  0  0  0
   38.6990   33.8930   40.6070 C   0  0  0  0  0  0  0  0  0  0  0  0
   39.8820   33.9840   40.0170 N   0  0  0  0  0  0  0  0  0  0  0  0
   41.2040   33.1220   38.5280 H   0  0  0  0  0  0  0  0  0  0  0  0
   39.6600   31.3580   37.8830 H   0  0  0  0  0  0  0  0  0  0  0  0
   38.3970   34.5880   41.3760 H   0  0  0  0  0  0  0  0  0  0  0  0
  1  6  1  6  0  0  0
  1  2  1  0  0  0  0
  2  3  1  0  0  0  0
  2  8  1  0  0  0  0
  2  7  1  0  0  0  0
  3  9  1  0  0  0  0
  3 10  1  0  0  0  0
  4 11  1  0  0  0  0
  4  3  1  0  0  0  0
  5 13  1  6  0  0  0
  5 14  1  0  0  0  0
  5  1  1  0  0  0  0
  5  4  1  0  0  0  0
 12  4  1  0  0  0  0
 14 22  1  0  0  0  0
 15 14  1  0  0  0  0
 16 15  1  0  0  0  0
 17 15  1  0  0  0  0
 17 19  1  0  0  0  0
 18 17  1  0  0  0  0
 19 20  1  0  0  0  0
 20 21  1  0  0  0  0
 20 22  1  0  0  0  0
 22 23  1  0  0  0  0
 24  1  1  0  0  0  0
 26 25  2  6  0  0  0
 26 24  1  0  0  0  0
 26 27  1  0  0  0  0
 27 28  1  0  0  0  0
 29 26  1  0  0  0  0
 30 31  1  0  0  0  0
 30 35  1  0  0  0  0
 30 29  1  0  0  0  0
 32 30  1  0  0  0  0
 33 38  1  0  0  0  0
 34 33  2  0  0  0  0
 34 35  1  0  0  0  0
 35 36  2  0  0  0  0
 36 37  1  0  0  0  0
 37 41  1  0  0  0  0
 38 37  2  0  0  0  0
 39 33  1  0  0  0  0
 40 34  1  0  0  0  0
M  END
>  <minimizedAffinity>
-5.8368659

$$$$

 OpenBabel03252509333D

 41 43  0  0  1  0  0  0  0  0999 V2000
   37.0830   31.1870   40.3810 C   0  0  1  0  0  0  0  0  0  0  0  0
   37.1130   30.5390   39.0240 C   0  0  0  0  0  0  0  0  0  0  0  0
   35.8130   29.7740   39.0090 C   0  0  0  0  0  0  0  0  0  0  0  0
   35.4690   29.5000   40.4500 C   0  0  0  0  0  0  0  0  0  0  0  0
   36.6540   30.0150   41.2560 C   0  0  1  0  0  0  0  0  0  0  0  0
   36.2570   31.9220   40.4260 H   0  0  0  0  0  0  0  0  0  0  0  0
   37.0440   31.3130   38.2050 H   0  0  0  0  0  0  0  0  0  0  0  0
   38.0050   29.9490   38.8320 H   0  0  0  0  0  0  0  0  0  0  0  0
   34.9880   30.3550   38.5140 H   0  0  0  0  0  0  0  0  0  0  0  0
   35.9460   28.8730   38.3970 H   0  0  0  0  0  0  0  0  0  0  0  0
   35.3560   28.4030   40.5320 H   0  0  0  0  0  0  0  0  0  0  0  0
   34.5770   30.0700   40.7540 H   0  0  0  0  0  0  0  0  0  0  0  0
   36.3570   30.3460   42.2590 H   0  0  0  0  0  0  0  0  0  0  0  0
   37.7330   28.9910   41.3920 C   0  0  0  0  0  3  0  0  0  0  0  0
   38.5030   29.2650   42.6660 C   0  0  0  0  0  3  0  0  0  0  0  0
   39.4520   29.8250   42.4920 H   0  0  0  0  0  0  0  0  0  0  0  0
   38.9800   27.9430   43.2850 C   0  0  0  0  0  3  0  0  0  0  0  0
   39.5000   28.2470   44.2310 H   0  0  0  0  0  0  0  0  0  0  0  0
   37.9180   27.1560   43.6800 O   0  0  0  0  0  0  0  0  0  0  0  0
   36.7570   27.3380   42.9570 C   0  0  0  0  0  3  0  0  0  0  0  0
   36.1730   26.3980   42.9180 H   0  0  0  0  0  0  0  0  0  0  0  0
   37.1790   27.6230   41.5220 C   0  0  0  0  0  3  0  0  0  0  0  0
   36.3550   27.3640   40.8680 H   0  0  0  0  0  0  0  0  0  0  0  0
   38.2800   31.7180   40.7930 O   0  0  0  0  0  0  0  0  0  0  0  0
   37.1620   33.7070   39.5540 O   0  0  0  0  0  0  0  0  0  0  0  0
   38.4190   33.3090   40.2670 P   0  0  1  0  0  0  0  0  0  0  0  0
   38.7940   34.3480   41.5300 O   0  0  0  0  0  0  0  0  0  0  0  0
   39.0260   33.8280   42.3360 H   0  0  0  0  0  0  0  0  0  0  0  0
   39.7350   33.3840   39.1960 O   0  0  0  0  0  0  0  0  0  0  0  0
   40.6670   34.2250   39.7260 C   0  0  0  0  0  0  0  0  0  0  0  0
   40.5670   34.1240   40.8470 H   0  0  0  0  0  0  0  0  0  0  0  0
   40.5900   35.2870   39.5280 H   0  0  0  0  0  0  0  0  0  0  0  0
   43.9190   32.4260   39.9070 C   0  0  0  0  0  0  0  0  0  0  0  0
   42.6100   32.8170   40.2050 C   0  0  0  0  0  0  0  0  0  0  0  0
   42.0410   33.8060   39.4220 C   0  0  0  0  0  0  0  0  0  0  0  0
   42.7820   34.3480   38.4050 N   0  0  0  0  0  0  0  0  0  0  0  0
   44.0460   33.9410   38.1490 C   0  0  0  0  0  0  0  0  0  0  0  0
   44.5970   32.9940   38.8950 N   0  0  0  0  0  0  0  0  0  0  0  0
   44.3020   31.6420   40.5650 H   0  0  0  0  0  0  0  0  0  0  0  0
   42.0290   32.3760   41.0210 H   0  0  0  0  0  0  0  0  0  0  0  0
   44.5850   34.4030   37.3350 H   0  0  0  0  0  0  0  0  0  0  0  0
  1  6  1  1  0  0  0
  1 24  1  0  0  0  0
  1  5  1  0  0  0  0
  2  1  1  0  0  0  0
  3  2  1  0  0  0  0
  3  4  1  0  0  0  0
  4 11  1  0  0  0  0
  4 12  1  0  0  0  0
  4  5  1  0  0  0  0
  5 14  1  0  0  0  0
  5 13  1  1  0  0  0
  7  2  1  0  0  0  0
  8  2  1  0  0  0  0
  9  3  1  0  0  0  0
 10  3  1  0  0  0  0
 14 22  1  0  0  0  0
 14 15  1  0  0  0  0
 15 17  1  0  0  0  0
 16 15  1  0  0  0  0
 17 19  1  0  0  0  0
 17 18  1  0  0  0  0
 20 19  1  0  0  0  0
 21 20  1  0  0  0  0
 22 20  1  0  0  0  0
 23 22  1  0  0  0  0
 26 25  2  6  0  0  0
 26 24  1  0  0  0  0
 26 27  1  0  0  0  0
 27 28  1  0  0  0  0
 29 30  1  0  0  0  0
 29 26  1  0  0  0  0
 30 31  1  0  0  0  0
 32 30  1  0  0  0  0
 33 34  1  0  0  0  0
 33 39  1  0  0  0  0
 34 40  1  0  0  0  0
 35 30  1  0  0  0  0
 35 34  2  0  0  0  0
 36 35  1  0  0  0  0
 37 36  2  0  0  0  0
 37 38  1  0  0  0  0
 38 33  2  0  0  0  0
 41 37  1  0  0  0  0
M  END
>  <minimizedAffinity>
-5.51206255

$$$$

 OpenBabel03252509333D

 41 43  0  0  1  0  0  0  0  0999 V2000
   37.1630   28.1110   42.0140 C   0  0  1  0  0  0  0  0  0  0  0  0
   37.2810   27.9540   43.5060 C   0  0  0  0  0  0  0  0  0  0  0  0
   38.7520   27.6640   43.6790 C   0  0  0  0  0  0  0  0  0  0  0  0
   39.2180   27.0610   42.3790 C   0  0  0  0  0  0  0  0  0  0  0  0
   37.9640   26.9080   41.5290 C   0  0  1  0  0  0  0  0  0  0  0  0
   37.7260   29.0060   41.6880 H   0  0  0  0  0  0  0  0  0  0  0  0
   37.0790   28.9310   44.0330 H   0  0  0  0  0  0  0  0  0  0  0  0
   36.6060   27.2170   43.9300 H   0  0  0  0  0  0  0  0  0  0  0  0
   39.3390   28.5930   43.9120 H   0  0  0  0  0  0  0  0  0  0  0  0
   38.8770   27.0110   44.5510 H   0  0  0  0  0  0  0  0  0  0  0  0
   39.6640   26.0840   42.6410 H   0  0  0  0  0  0  0  0  0  0  0  0
   39.9040   27.7450   41.8550 H   0  0  0  0  0  0  0  0  0  0  0  0
   38.1840   26.9750   40.4560 H   0  0  0  0  0  0  0  0  0  0  0  0
   37.2570   25.6200   41.7920 C   0  0  0  0  0  3  0  0  0  0  0  0
   36.6300   25.1380   40.5010 C   0  0  0  0  0  3  0  0  0  0  0  0
   35.5450   25.3870   40.4210 H   0  0  0  0  0  0  0  0  0  0  0  0
   36.6470   23.6040   40.4500 C   0  0  0  0  0  3  0  0  0  0  0  0
   36.2020   23.3510   39.4520 H   0  0  0  0  0  0  0  0  0  0  0  0
   37.9360   23.1120   40.4190 O   0  0  0  0  0  0  0  0  0  0  0  0
   38.8800   23.9110   41.0300 C   0  0  0  0  0  3  0  0  0  0  0  0
   39.6980   23.2940   41.4500 H   0  0  0  0  0  0  0  0  0  0  0  0
   38.1930   24.5560   42.2260 C   0  0  0  0  0  3  0  0  0  0  0  0
   38.9550   24.8380   42.9440 H   0  0  0  0  0  0  0  0  0  0  0  0
   35.8780   28.0950   41.5320 O   0  0  0  0  0  0  0  0  0  0  0  0
   34.3120   29.2720   39.8280 O   0  0  0  0  0  0  0  0  0  0  0  0
   35.6050   29.4440   40.5660 P   0  0  1  0  0  0  0  0  0  0  0  0
   35.6490   30.8630   41.4580 O   0  0  0  0  0  0  0  0  0  0  0  0
   35.9850   30.6790   42.3680 H   0  0  0  0  0  0  0  0  0  0  0  0
   36.8880   29.5500   39.4580 O   0  0  0  0  0  0  0  0  0  0  0  0
   36.4520   30.2390   38.3670 C   0  0  0  0  0  0  0  0  0  0  0  0
   37.2280   31.0390   38.1800 H   0  0  0  0  0  0  0  0  0  0  0  0
   35.5070   30.7670   38.4210 H   0  0  0  0  0  0  0  0  0  0  0  0
   35.2370   28.4280   35.3510 C   0  0  0  0  0  0  0  0  0  0  0  0
   35.2330   29.2110   36.5110 C   0  0  0  0  0  0  0  0  0  0  0  0
   36.4440   29.4200   37.1490 C   0  0  0  0  0  0  0  0  0  0  0  0
   37.5730   28.8550   36.6180 N   0  0  0  0  0  0  0  0  0  0  0  0
   37.5350   28.1050   35.4940 C   0  0  0  0  0  0  0  0  0  0  0  0
   36.3790   27.9010   34.8780 N   0  0  0  0  0  0  0  0  0  0  0  0
   34.2490   28.3070   34.9020 H   0  0  0  0  0  0  0  0  0  0  0  0
   34.3230   29.6560   36.9240 H   0  0  0  0  0  0  0  0  0  0  0  0
   38.4560   27.6830   35.1190 H   0  0  0  0  0  0  0  0  0  0  0  0
  1  6  1  6  0  0  0
  1  2  1  0  0  0  0
  2  3  1  0  0  0  0
  2  8  1  0  0  0  0
  2  7  1  0  0  0  0
  3  9  1  0  0  0  0
  3 10  1  0  0  0  0
  4 11  1  0  0  0  0
  4  3  1  0  0  0  0
  5 13  1  6  0  0  0
  5 14  1  0  0  0  0
  5  1  1  0  0  0  0
  5  4  1  0  0  0  0
 12  4  1  0  0  0  0
 14 22  1  0  0  0  0
 15 14  1  0  0  0  0
 16 15  1  0  0  0  0
 17 15  1  0  0  0  0
 18 17  1  0  0  0  0
 19 17  1  0  0  0  0
 19 20  1  0  0  0  0
 20 21  1  0  0  0  0
 20 22  1  0  0  0  0
 22 23  1  0  0  0  0
 24  1  1  0  0  0  0
 26 25  2  6  0  0  0
 26 27  1  0  0  0  0
 26 24  1  0  0  0  0
 27 28  1  0  0  0  0
 29 26  1  0  0  0  0
 30 32  1  0  0  0  0
 30 29  1  0  0  0  0
 31 30  1  0  0  0  0
 33 34  1  0  0  0  0
 34 40  1  0  0  0  0
 34 35  2  0  0  0  0
 35 30  1  0  0  0  0
 36 35  1  0  0  0  0
 37 36  2  0  0  0  0
 38 33  2  0  0  0  0
 38 37  1  0  0  0  0
 39 33  1  0  0  0  0
 41 37  1  0  0  0  0
M  END
>  <minimizedAffinity>
-5.40106106

$$$$

 OpenBabel03252509333D

 41 43  0  0  1  0  0  0  0  0999 V2000
   37.4150   28.8890   41.7880 C   0  0  1  0  0  0  0  0  0  0  0  0
   36.9000   27.5000   41.5290 C   0  0  0  0  0  0  0  0  0  0  0  0
   36.9330   26.8880   42.9080 C   0  0  0  0  0  0  0  0  0  0  0  0
   37.9850   27.6420   43.6790 C   0  0  0  0  0  0  0  0  0  0  0  0
   38.6190   28.5960   42.6750 C   0  0  1  0  0  0  0  0  0  0  0  0
   36.6950   29.4430   42.4210 H   0  0  0  0  0  0  0  0  0  0  0  0
   35.8180   27.5220   41.2100 H   0  0  0  0  0  0  0  0  0  0  0  0
   37.4480   26.9570   40.7640 H   0  0  0  0  0  0  0  0  0  0  0  0
   35.9390   26.9650   43.4260 H   0  0  0  0  0  0  0  0  0  0  0  0
   37.1290   25.8140   42.8080 H   0  0  0  0  0  0  0  0  0  0  0  0
   38.7020   26.8820   44.0390 H   0  0  0  0  0  0  0  0  0  0  0  0
   37.5260   28.2450   44.4790 H   0  0  0  0  0  0  0  0  0  0  0  0
   38.9990   29.5060   43.1560 H   0  0  0  0  0  0  0  0  0  0  0  0
   39.7340   27.9570   41.9150 C   0  0  0  0  0  3  0  0  0  0  0  0
   40.7450   29.0230   41.5480 C   0  0  0  0  0  3  0  0  0  0  0  0
   40.6270   29.3950   40.5030 H   0  0  0  0  0  0  0  0  0  0  0  0
   42.1600   28.4280   41.5570 C   0  0  0  0  0  3  0  0  0  0  0  0
   42.8290   29.2950   41.3130 H   0  0  0  0  0  0  0  0  0  0  0  0
   42.5290   28.0160   42.8210 O   0  0  0  0  0  0  0  0  0  0  0  0
   41.4850   27.6300   43.6360 C   0  0  0  0  0  3  0  0  0  0  0  0
   41.8170   26.8500   44.3490 H   0  0  0  0  0  0  0  0  0  0  0  0
   40.4580   26.9570   42.7360 C   0  0  0  0  0  3  0  0  0  0  0  0
   39.8540   26.2950   43.3450 H   0  0  0  0  0  0  0  0  0  0  0  0
   37.7710   29.5910   40.6630 O   0  0  0  0  0  0  0  0  0  0  0  0
   35.6660   29.7740   39.1540 O   0  0  0  0  0  0  0  0  0  0  0  0
   36.4850   30.5440   40.1450 P   0  0  1  0  0  0  0  0  0  0  0  0
   35.5710   31.1040   41.4340 O   0  0  0  0  0  0  0  0  0  0  0  0
   36.0340   30.9120   42.2840 H   0  0  0  0  0  0  0  0  0  0  0  0
   37.1360   31.9250   39.4010 O   0  0  0  0  0  0  0  0  0  0  0  0
   38.1990   32.3470   40.1410 C   0  0  0  0  0  0  0  0  0  0  0  0
   38.5120   31.4540   40.7610 H   0  0  0  0  0  0  0  0  0  0  0  0
   38.0590   33.1510   40.8520 H   0  0  0  0  0  0  0  0  0  0  0  0
   41.2570   34.0560   38.8860 C   0  0  0  0  0  0  0  0  0  0  0  0
   40.1450   33.7560   39.6800 C   0  0  0  0  0  0  0  0  0  0  0  0
   39.3690   32.6700   39.3150 C   0  0  0  0  0  0  0  0  0  0  0  0
   39.7250   31.9500   38.2050 N   0  0  0  0  0  0  0  0  0  0  0  0
   40.8090   32.2720   37.4640 C   0  0  0  0  0  0  0  0  0  0  0  0
   41.5560   33.3110   37.8080 N   0  0  0  0  0  0  0  0  0  0  0  0
   41.8210   34.9240   39.2340 H   0  0  0  0  0  0  0  0  0  0  0  0
   39.8710   34.3400   40.5640 H   0  0  0  0  0  0  0  0  0  0  0  0
   41.0430   31.6700   36.5980 H   0  0  0  0  0  0  0  0  0  0  0  0
  1  6  1  1  0  0  0
  1  5  1  0  0  0  0
  2  1  1  0  0  0  0
  2  3  1  0  0  0  0
  3  9  1  0  0  0  0
  3  4  1  0  0  0  0
  4 11  1  0  0  0  0
  4 12  1  0  0  0  0
  5 13  1  1  0  0  0
  5  4  1  0  0  0  0
  7  2  1  0  0  0  0
  8  2  1  0  0  0  0
 10  3  1  0  0  0  0
 14  5  1  0  0  0  0
 14 22  1  0  0  0  0
 15 17  1  0  0  0  0
 15 14  1  0  0  0  0
 16 15  1  0  0  0  0
 17 19  1  0  0  0  0
 18 17  1  0  0  0  0
 19 20  1  0  0  0  0
 20 21  1  0  0  0  0
 22 23  1  0  0  0  0
 22 20  1  0  0  0  0
 24  1  1  0  0  0  0
 26 25  2  6  0  0  0
 26 24  1  0  0  0  0
 26 27  1  0  0  0  0
 27 28  1  0  0  0  0
 29 30  1  0  0  0  0
 29 26  1  0  0  0  0
 30 31  1  0  0  0  0
 30 32  1  0  0  0  0
 33 39  1  0  0  0  0
 33 34  1  0  0  0  0
 34 40  1  0  0  0  0
 35 34  2  0  0  0  0
 35 30  1  0  0  0  0
 36 35  1  0  0  0  0
 37 38  1  0  0  0  0
 37 36  2  0  0  0  0
 38 33  2  0  0  0  0
 41 37  1  0  0  0  0
M  END
>  <minimizedAffinity>
-5.39359665

$$$$

 OpenBabel03252509333D

 41 43  0  0  1  0  0  0  0  0999 V2000
   37.1400   31.0710   40.1320 C   0  0  1  0  0  0  0  0  0  0  0  0
   37.0880   30.3360   38.8200 C   0  0  0  0  0  0  0  0  0  0  0  0
   35.7310   29.6800   38.8780 C   0  0  0  0  0  0  0  0  0  0  0  0
   35.3960   29.5290   40.3390 C   0  0  0  0  0  0  0  0  0  0  0  0
   36.6360   29.9970   41.0900 C   0  0  1  0  0  0  0  0  0  0  0  0
   36.3760   31.8720   40.1410 H   0  0  0  0  0  0  0  0  0  0  0  0
   37.0640   31.0570   37.9530 H   0  0  0  0  0  0  0  0  0  0  0  0
   37.9250   29.6640   38.6540 H   0  0  0  0  0  0  0  0  0  0  0  0
   34.9450   30.2930   38.3580 H   0  0  0  0  0  0  0  0  0  0  0  0
   35.7780   28.7340   38.3240 H   0  0  0  0  0  0  0  0  0  0  0  0
   35.1980   28.4530   40.4950 H   0  0  0  0  0  0  0  0  0  0  0  0
   34.5600   30.1890   40.6180 H   0  0  0  0  0  0  0  0  0  0  0  0
   36.3870   30.4160   42.0730 H   0  0  0  0  0  0  0  0  0  0  0  0
   37.6310   28.9000   41.2770 C   0  0  0  0  0  3  0  0  0  0  0  0
   38.4500   29.1930   42.5160 C   0  0  0  0  0  3  0  0  0  0  0  0
   39.4370   29.6610   42.2870 H   0  0  0  0  0  0  0  0  0  0  0  0
   38.8320   27.8800   43.2140 C   0  0  0  0  0  3  0  0  0  0  0  0
   39.3970   28.2030   44.1280 H   0  0  0  0  0  0  0  0  0  0  0  0
   37.7190   27.2110   43.6790 O   0  0  0  0  0  0  0  0  0  0  0  0
   36.5610   27.4390   42.9660 C   0  0  0  0  0  3  0  0  0  0  0  0
   35.9020   26.5500   43.0010 H   0  0  0  0  0  0  0  0  0  0  0  0
   36.9730   27.5930   41.5080 C   0  0  0  0  0  3  0  0  0  0  0  0
   36.1150   27.3590   40.8870 H   0  0  0  0  0  0  0  0  0  0  0  0
   38.3840   31.5280   40.4890 O   0  0  0  0  0  0  0  0  0  0  0  0
   37.2970   33.6220   39.4040 O   0  0  0  0  0  0  0  0  0  0  0  0
   38.5160   33.1700   40.1510 P   0  0  1  0  0  0  0  0  0  0  0  0
   38.7840   34.0690   41.5420 O   0  0  0  0  0  0  0  0  0  0  0  0
   38.9770   33.4660   42.3000 H   0  0  0  0  0  0  0  0  0  0  0  0
   39.8950   33.3870   39.1840 O   0  0  0  0  0  0  0  0  0  0  0  0
   39.8010   32.5480   38.1150 C   0  0  0  0  0  0  0  0  0  0  0  0
   39.6620   33.2160   37.2140 H   0  0  0  0  0  0  0  0  0  0  0  0
   38.9840   31.8390   38.0730 H   0  0  0  0  0  0  0  0  0  0  0  0
   42.3500   29.8360   38.1020 C   0  0  0  0  0  0  0  0  0  0  0  0
   41.1570   30.5240   38.3490 C   0  0  0  0  0  0  0  0  0  0  0  0
   41.0480   31.8160   37.8620 C   0  0  0  0  0  0  0  0  0  0  0  0
   42.1040   32.3490   37.1720 N   0  0  0  0  0  0  0  0  0  0  0  0
   43.2410   31.6510   36.9540 C   0  0  0  0  0  0  0  0  0  0  0  0
   43.3510   30.4130   37.4170 N   0  0  0  0  0  0  0  0  0  0  0  0
   42.3640   28.8240   38.5140 H   0  0  0  0  0  0  0  0  0  0  0  0
   40.3210   30.0860   38.9020 H   0  0  0  0  0  0  0  0  0  0  0  0
   44.0420   32.1200   36.4030 H   0  0  0  0  0  0  0  0  0  0  0  0
  1  6  1  6  0  0  0
  1 24  1  0  0  0  0
  1  5  1  0  0  0  0
  2  3  1  0  0  0  0
  2  1  1  0  0  0  0
  3  4  1  0  0  0  0
  4 11  1  0  0  0  0
  4 12  1  0  0  0  0
  4  5  1  0  0  0  0
  5 14  1  0  0  0  0
  5 13  1  1  0  0  0
  7  2  1  0  0  0  0
  8  2  1  0  0  0  0
  9  3  1  0  0  0  0
 10  3  1  0  0  0  0
 14 22  1  0  0  0  0
 14 15  1  0  0  0  0
 15 17  1  0  0  0  0
 16 15  1  0  0  0  0
 17 19  1  0  0  0  0
 17 18  1  0  0  0  0
 20 21  1  0  0  0  0
 20 19  1  0  0  0  0
 22 20  1  0  0  0  0
 23 22  1  0  0  0  0
 26 25  2  6  0  0  0
 26 24  1  0  0  0  0
 26 27  1  0  0  0  0
 27 28  1  0  0  0  0
 29 26  1  0  0  0  0
 30 29  1  0  0  0  0
 31 30  1  0  0  0  0
 32 30  1  0  0  0  0
 33 34  1  0  0  0  0
 33 39  1  0  0  0  0
 34 40  1  0  0  0  0
 35 30  1  0  0  0  0
 35 34  2  0  0  0  0
 36 35  1  0  0  0  0
 37 36  2  0  0  0  0
 37 38  1  0  0  0  0
 38 33  2  0  0  0  0
 41 37  1  0  0  0  0
M  END
>  <minimizedAffinity>
-5.15740252

$$$$

 OpenBabel03252509333D

 41 43  0  0  1  0  0  0  0  0999 V2000
   36.3290   28.9400   40.4870 C   0  0  1  0  0  0  0  0  0  0  0  0
   34.9420   29.1950   39.9630 C   0  0  0  0  0  0  0  0  0  0  0  0
   35.0810   28.8270   38.5060 C   0  0  0  0  0  0  0  0  0  0  0  0
   36.5360   29.0150   38.1620 C   0  0  0  0  0  0  0  0  0  0  0  0
   37.1770   29.6050   39.4100 C   0  0  1  0  0  0  0  0  0  0  0  0
   36.5550   27.8570   40.4310 H   0  0  0  0  0  0  0  0  0  0  0  0
   34.2000   28.4720   40.4110 H   0  0  0  0  0  0  0  0  0  0  0  0
   34.5700   30.1960   40.1590 H   0  0  0  0  0  0  0  0  0  0  0  0
   34.7660   27.7680   38.3070 H   0  0  0  0  0  0  0  0  0  0  0  0
   34.3940   29.4520   37.9220 H   0  0  0  0  0  0  0  0  0  0  0  0
   36.5580   29.7190   37.3100 H   0  0  0  0  0  0  0  0  0  0  0  0
   37.0170   28.0450   37.9590 H   0  0  0  0  0  0  0  0  0  0  0  0
   38.2340   29.3290   39.5000 H   0  0  0  0  0  0  0  0  0  0  0  0
   37.0680   31.0940   39.4510 C   0  0  0  0  0  3  0  0  0  0  0  0
   38.0170   31.6220   40.5050 C   0  0  0  0  0  3  0  0  0  0  0  0
   37.5140   31.8450   41.4750 H   0  0  0  0  0  0  0  0  0  0  0  0
   38.5750   32.9850   40.0720 C   0  0  0  0  0  3  0  0  0  0  0  0
   39.2870   33.2700   40.8910 H   0  0  0  0  0  0  0  0  0  0  0  0
   39.3420   32.8800   38.9300 O   0  0  0  0  0  0  0  0  0  0  0  0
   38.9940   31.8450   38.0870 C   0  0  0  0  0  3  0  0  0  0  0  0
   39.2170   32.1100   37.0350 H   0  0  0  0  0  0  0  0  0  0  0  0
   37.4800   31.7110   38.1680 C   0  0  0  0  0  3  0  0  0  0  0  0
   37.1320   31.2310   37.2600 H   0  0  0  0  0  0  0  0  0  0  0  0
   36.5810   29.4640   41.7310 O   0  0  0  0  0  0  0  0  0  0  0  0
   38.3400   28.8970   43.5540 O   0  0  0  0  0  0  0  0  0  0  0  0
   37.2460   28.2870   42.7310 P   0  0  1  0  0  0  0  0  0  0  0  0
   36.0750   27.5420   43.6740 O   0  0  0  0  0  0  0  0  0  0  0  0
   35.1760   27.8090   43.3670 H   0  0  0  0  0  0  0  0  0  0  0  0
   37.8870   27.0690   41.7360 O   0  0  0  0  0  0  0  0  0  0  0  0
   37.4620   25.8650   42.2110 C   0  0  0  0  0  0  0  0  0  0  0  0
   36.4390   26.0540   42.6520 H   0  0  0  0  0  0  0  0  0  0  0  0
   38.0250   25.3810   43.0000 H   0  0  0  0  0  0  0  0  0  0  0  0
   36.3400   24.3390   39.0080 C   0  0  0  0  0  0  0  0  0  0  0  0
   36.5410   25.2830   40.0200 C   0  0  0  0  0  0  0  0  0  0  0  0
   37.2450   24.8820   41.1420 C   0  0  0  0  0  0  0  0  0  0  0  0
   37.7040   23.5930   41.2040 N   0  0  0  0  0  0  0  0  0  0  0  0
   37.4890   22.7100   40.2040 C   0  0  0  0  0  0  0  0  0  0  0  0
   36.8150   23.0880   39.1260 N   0  0  0  0  0  0  0  0  0  0  0  0
   35.7780   24.7260   38.1550 H   0  0  0  0  0  0  0  0  0  0  0  0
   36.1680   26.3100   39.9580 H   0  0  0  0  0  0  0  0  0  0  0  0
   37.8730   21.7060   40.3050 H   0  0  0  0  0  0  0  0  0  0  0  0
  1  6  1  1  0  0  0
  1 24  1  0  0  0  0
  2  8  1  0  0  0  0
  2  7  1  0  0  0  0
  2  1  1  0  0  0  0
  3  2  1  0  0  0  0
  4  3  1  0  0  0  0
  4  5  1  0  0  0  0
  5 14  1  0  0  0  0
  5 13  1  1  0  0  0
  5  1  1  0  0  0  0
  9  3  1  0  0  0  0
 10  3  1  0  0  0  0
 11  4  1  0  0  0  0
 12  4  1  0  0  0  0
 14 15  1  0  0  0  0
 15 16  1  0  0  0  0
 17 15  1  0  0  0  0
 17 18  1  0  0  0  0
 19 17  1  0  0  0  0
 20 22  1  0  0  0  0
 20 19  1  0  0  0  0
 21 20  1  0  0  0  0
 22 14  1  0  0  0  0
 23 22  1  0  0  0  0
 24 26  1  0  0  0  0
 26 25  2  1  0  0  0
 26 27  1  0  0  0  0
 28 27  1  0  0  0  0
 29 30  1  0  0  0  0
 29 26  1  0  0  0  0
 30 31  1  0  0  0  0
 30 32  1  0  0  0  0
 33 38  2  0  0  0  0
 33 34  1  0  0  0  0
 34 35  2  0  0  0  0
 35 36  1  0  0  0  0
 35 30  1  0  0  0  0
 37 41  1  0  0  0  0
 37 36  2  0  0  0  0
 38 37  1  0  0  0  0
 39 33  1  0  0  0  0
 40 34  1  0  0  0  0
M  END
>  <minimizedAffinity>
-5.10791779

$$$$

 OpenBabel03252509333D

 41 43  0  0  1  0  0  0  0  0999 V2000
   37.8780   30.4000   39.1960 C   0  0  1  0  0  0  0  0  0  0  0  0
   39.2590   30.3900   38.5990 C   0  0  0  0  0  0  0  0  0  0  0  0
   39.1550   31.4610   37.5420 C   0  0  0  0  0  0  0  0  0  0  0  0
   37.6970   31.5430   37.1670 C   0  0  0  0  0  0  0  0  0  0  0  0
   37.0150   30.4230   37.9410 C   0  0  1  0  0  0  0  0  0  0  0  0
   37.7010   31.3650   39.7090 H   0  0  0  0  0  0  0  0  0  0  0  0
   40.0260   30.7450   39.3470 H   0  0  0  0  0  0  0  0  0  0  0  0
   39.5840   29.4150   38.2460 H   0  0  0  0  0  0  0  0  0  0  0  0
   39.5190   32.4570   37.9140 H   0  0  0  0  0  0  0  0  0  0  0  0
   39.8210   31.1970   36.7110 H   0  0  0  0  0  0  0  0  0  0  0  0
   37.6550   31.3800   36.0750 H   0  0  0  0  0  0  0  0  0  0  0  0
   37.2630   32.5000   37.4990 H   0  0  0  0  0  0  0  0  0  0  0  0
   35.9700   30.6600   38.1720 H   0  0  0  0  0  0  0  0  0  0  0  0
   37.0580   29.1230   37.2060 C   0  0  0  0  0  3  0  0  0  0  0  0
   35.8710   28.2860   37.6330 C   0  0  0  0  0  3  0  0  0  0  0  0
   36.1260   27.5280   38.4100 H   0  0  0  0  0  0  0  0  0  0  0  0
   35.3790   27.4340   36.4540 C   0  0  0  0  0  3  0  0  0  0  0  0
   34.4870   26.8870   36.8560 H   0  0  0  0  0  0  0  0  0  0  0  0
   34.9030   28.2200   35.4250 O   0  0  0  0  0  0  0  0  0  0  0  0
   35.4750   29.4720   35.3340 C   0  0  0  0  0  3  0  0  0  0  0  0
   35.4930   29.8160   34.2810 H   0  0  0  0  0  0  0  0  0  0  0  0
   36.9330   29.3130   35.7420 C   0  0  0  0  0  3  0  0  0  0  0  0
   37.4990   30.1280   35.3050 H   0  0  0  0  0  0  0  0  0  0  0  0
   37.5870   29.3220   39.9950 O   0  0  0  0  0  0  0  0  0  0  0  0
   38.3090   30.4470   42.2210 O   0  0  0  0  0  0  0  0  0  0  0  0
   37.1270   29.8430   41.5260 P   0  0  1  0  0  0  0  0  0  0  0  0
   35.8200   30.8920   41.4550 O   0  0  0  0  0  0  0  0  0  0  0  0
   35.4440   30.9010   40.5430 H   0  0  0  0  0  0  0  0  0  0  0  0
   36.5860   28.4840   42.3900 O   0  0  0  0  0  0  0  0  0  0  0  0
   37.5100   28.1950   43.3490 C   0  0  0  0  0  0  0  0  0  0  0  0
   36.9250   28.0710   44.3080 H   0  0  0  0  0  0  0  0  0  0  0  0
   38.2780   28.9230   43.5760 H   0  0  0  0  0  0  0  0  0  0  0  0
   38.1570   24.7430   42.1170 C   0  0  0  0  0  0  0  0  0  0  0  0
   37.5240   25.9740   42.3220 C   0  0  0  0  0  0  0  0  0  0  0  0
   38.1640   26.9000   43.1270 C   0  0  0  0  0  0  0  0  0  0  0  0
   39.3730   26.5660   43.6800 N   0  0  0  0  0  0  0  0  0  0  0  0
   39.9520   25.3650   43.4570 C   0  0  0  0  0  0  0  0  0  0  0  0
   39.3450   24.4740   42.6860 N   0  0  0  0  0  0  0  0  0  0  0  0
   37.5950   24.0650   41.4710 H   0  0  0  0  0  0  0  0  0  0  0  0
   36.5590   26.2270   41.8740 H   0  0  0  0  0  0  0  0  0  0  0  0
   40.9060   25.1550   43.9180 H   0  0  0  0  0  0  0  0  0  0  0  0
  1  6  1  1  0  0  0
  1 24  1  0  0  0  0
  2  1  1  0  0  0  0
  2  7  1  0  0  0  0
  3  9  1  0  0  0  0
  3  2  1  0  0  0  0
  4 12  1  0  0  0  0
  4  3  1  0  0  0  0
  4  5  1  0  0  0  0
  5 13  1  1  0  0  0
  5  1  1  0  0  0  0
  8  2  1  0  0  0  0
 10  3  1  0  0  0  0
 11  4  1  0  0  0  0
 14 15  1  0  0  0  0
 14  5  1  0  0  0  0
 15 16  1  0  0  0  0
 17 18  1  0  0  0  0
 17 15  1  0  0  0  0
 19 17  1  0  0  0  0
 20 19  1  0  0  0  0
 20 22  1  0  0  0  0
 21 20  1  0  0  0  0
 22 14  1  0  0  0  0
 23 22  1  0  0  0  0
 24 26  1  0  0  0  0
 26 25  2  1  0  0  0
 26 29  1  0  0  0  0
 27 26  1  0  0  0  0
 28 27  1  0  0  0  0
 29 30  1  0  0  0  0
 30 32  1  0  0  0  0
 30 31  1  0  0  0  0
 33 34  2  0  0  0  0
 33 38  1  0  0  0  0
 34 35  1  0  0  0  0
 35 30  1  0  0  0  0
 35 36  2  0  0  0  0
 37 36  1  0  0  0  0
 37 41  1  0  0  0  0
 38 37  2  0  0  0  0
 39 33  1  0  0  0  0
 40 34  1  0  0  0  0
M  END
>  <minimizedAffinity>
-5.07349348

$$$$

 OpenBabel03252509333D

 41 43  0  0  1  0  0  0  0  0999 V2000
   37.0420   27.1470   40.6470 C   0  0  1  0  0  0  0  0  0  0  0  0
   37.1080   26.3120   39.3970 C   0  0  0  0  0  0  0  0  0  0  0  0
   36.6070   24.9740   39.8830 C   0  0  0  0  0  0  0  0  0  0  0  0
   36.8970   24.9270   41.3610 C   0  0  0  0  0  0  0  0  0  0  0  0
   37.6720   26.2030   41.6630 C   0  0  1  0  0  0  0  0  0  0  0  0
   35.9870   27.2720   40.9570 H   0  0  0  0  0  0  0  0  0  0  0  0
   36.3660   26.6760   38.6280 H   0  0  0  0  0  0  0  0  0  0  0  0
   38.0830   26.3010   38.9200 H   0  0  0  0  0  0  0  0  0  0  0  0
   35.5070   24.8430   39.6960 H   0  0  0  0  0  0  0  0  0  0  0  0
   37.1000   24.1860   39.3000 H   0  0  0  0  0  0  0  0  0  0  0  0
   37.5090   24.0210   41.5220 H   0  0  0  0  0  0  0  0  0  0  0  0
   35.9620   24.9510   41.9430 H   0  0  0  0  0  0  0  0  0  0  0  0
   37.5100   26.5480   42.6920 H   0  0  0  0  0  0  0  0  0  0  0  0
   39.1400   26.0380   41.4420 C   0  0  0  0  0  3  0  0  0  0  0  0
   39.8790   26.9810   42.3670 C   0  0  0  0  0  3  0  0  0  0  0  0
   40.1990   27.9250   41.8650 H   0  0  0  0  0  0  0  0  0  0  0  0
   41.2050   26.3470   42.8120 C   0  0  0  0  0  3  0  0  0  0  0  0
   41.6530   27.0980   43.5140 H   0  0  0  0  0  0  0  0  0  0  0  0
   40.9950   25.2110   43.5650 O   0  0  0  0  0  0  0  0  0  0  0  0
   39.8290   24.5300   43.2820 C   0  0  0  0  0  3  0  0  0  0  0  0
   39.9580   23.4460   43.4660 H   0  0  0  0  0  0  0  0  0  0  0  0
   39.5980   24.6700   41.7840 C   0  0  0  0  0  3  0  0  0  0  0  0
   38.9710   23.8490   41.4590 H   0  0  0  0  0  0  0  0  0  0  0  0
   37.7130   28.3430   40.5780 O   0  0  0  0  0  0  0  0  0  0  0  0
   35.4300   29.5430   40.8770 O   0  0  0  0  0  0  0  0  0  0  0  0
   36.8440   29.5410   41.3750 P   0  0  1  0  0  0  0  0  0  0  0  0
   36.9350   29.3670   43.0410 O   0  0  0  0  0  0  0  0  0  0  0  0
   37.6120   28.6870   43.2720 H   0  0  0  0  0  0  0  0  0  0  0  0
   37.5790   31.0310   41.0220 O   0  0  0  0  0  0  0  0  0  0  0  0
   38.8460   31.0090   41.5220 C   0  0  0  0  0  0  0  0  0  0  0  0
   39.3440   30.1100   41.0510 H   0  0  0  0  0  0  0  0  0  0  0  0
   38.9890   30.8870   42.5880 H   0  0  0  0  0  0  0  0  0  0  0  0
   39.7480   34.3460   40.1440 C   0  0  0  0  0  0  0  0  0  0  0  0
   38.9780   33.2530   40.5550 C   0  0  0  0  0  0  0  0  0  0  0  0
   39.6440   32.1620   41.0860 C   0  0  0  0  0  0  0  0  0  0  0  0
   41.0100   32.2070   41.1810 N   0  0  0  0  0  0  0  0  0  0  0  0
   41.7180   33.2830   40.7720 C   0  0  0  0  0  0  0  0  0  0  0  0
   41.0870   34.3320   40.2620 N   0  0  0  0  0  0  0  0  0  0  0  0
   39.1560   35.1690   39.7360 H   0  0  0  0  0  0  0  0  0  0  0  0
   37.8870   33.2300   40.4740 H   0  0  0  0  0  0  0  0  0  0  0  0
   42.7940   33.2650   40.8690 H   0  0  0  0  0  0  0  0  0  0  0  0
  1  6  1  1  0  0  0
  1  5  1  0  0  0  0
  2  3  1  0  0  0  0
  2  1  1  0  0  0  0
  3  4  1  0  0  0  0
  4 11  1  0  0  0  0
  4  5  1  0  0  0  0
  4 12  1  0  0  0  0
  5 13  1  1  0  0  0
  7  2  1  0  0  0  0
  8  2  1  0  0  0  0
  9  3  1  0  0  0  0
 10  3  1  0  0  0  0
 14  5  1  0  0  0  0
 14 22  1  0  0  0  0
 14 15  1  0  0  0  0
 15 17  1  0  0  0  0
 16 15  1  0  0  0  0
 17 18  1  0  0  0  0
 17 19  1  0  0  0  0
 20 21  1  0  0  0  0
 20 19  1  0  0  0  0
 22 20  1  0  0  0  0
 23 22  1  0  0  0  0
 24  1  1  0  0  0  0
 24 26  1  0  0  0  0
 26 25  2  6  0  0  0
 26 27  1  0  0  0  0
 27 28  1  0  0  0  0
 29 26  1  0  0  0  0
 29 30  1  0  0  0  0
 30 32  1  0  0  0  0
 31 30  1  0  0  0  0
 33 38  2  0  0  0  0
 33 34  1  0  0  0  0
 34 35  2  0  0  0  0
 35 36  1  0  0  0  0
 35 30  1  0  0  0  0
 37 41  1  0  0  0  0
 37 36  2  0  0  0  0
 38 37  1  0  0  0  0
 39 33  1  0  0  0  0
 40 34  1  0  0  0  0
M  END
>  <minimizedAffinity>
-5.06013393

$$$$

 OpenBabel03252509333D

 41 43  0  0  1  0  0  0  0  0999 V2000
   38.2760   31.0560   40.6150 C   0  0  1  0  0  0  0  0  0  0  0  0
   37.2500   32.1400   40.4220 C   0  0  0  0  0  0  0  0  0  0  0  0
   37.2870   32.3480   38.9280 C   0  0  0  0  0  0  0  0  0  0  0  0
   38.6560   31.9120   38.4750 C   0  0  0  0  0  0  0  0  0  0  0  0
   39.4180   31.5750   39.7500 C   0  0  1  0  0  0  0  0  0  0  0  0
   37.9270   30.1220   40.1340 H   0  0  0  0  0  0  0  0  0  0  0  0
   36.2150   31.7660   40.6730 H   0  0  0  0  0  0  0  0  0  0  0  0
   37.4240   33.0280   41.0220 H   0  0  0  0  0  0  0  0  0  0  0  0
   36.4930   31.7520   38.4010 H   0  0  0  0  0  0  0  0  0  0  0  0
   37.0540   33.3990   38.7170 H   0  0  0  0  0  0  0  0  0  0  0  0
   39.0920   32.7800   37.9480 H   0  0  0  0  0  0  0  0  0  0  0  0
   38.5930   30.9970   37.8650 H   0  0  0  0  0  0  0  0  0  0  0  0
   40.1810   30.8060   39.5820 H   0  0  0  0  0  0  0  0  0  0  0  0
   40.0750   32.7750   40.3490 C   0  0  0  0  0  3  0  0  0  0  0  0
   41.3100   32.3280   41.1020 C   0  0  0  0  0  3  0  0  0  0  0  0
   41.1410   32.2270   42.2000 H   0  0  0  0  0  0  0  0  0  0  0  0
   42.4010   33.4040   41.0070 C   0  0  0  0  0  3  0  0  0  0  0  0
   43.2750   32.9660   41.5560 H   0  0  0  0  0  0  0  0  0  0  0  0
   42.8270   33.5800   39.7070 O   0  0  0  0  0  0  0  0  0  0  0  0
   41.8840   33.2990   38.7400 C   0  0  0  0  0  3  0  0  0  0  0  0
   42.0460   33.9300   37.8450 H   0  0  0  0  0  0  0  0  0  0  0  0
   40.5390   33.7250   39.3100 C   0  0  0  0  0  3  0  0  0  0  0  0
   39.8640   33.9130   38.4830 H   0  0  0  0  0  0  0  0  0  0  0  0
   38.6710   30.8600   41.9150 O   0  0  0  0  0  0  0  0  0  0  0  0
   39.5810   28.6060   42.8270 O   0  0  0  0  0  0  0  0  0  0  0  0
   38.3180   29.2880   42.3970 P   0  0  1  0  0  0  0  0  0  0  0  0
   37.1370   29.2560   43.5870 O   0  0  0  0  0  0  0  0  0  0  0  0
   36.7360   30.1530   43.6890 H   0  0  0  0  0  0  0  0  0  0  0  0
   37.6540   28.4770   41.0600 O   0  0  0  0  0  0  0  0  0  0  0  0
   36.9220   27.4250   41.5220 C   0  0  0  0  0  0  0  0  0  0  0  0
   35.9710   27.4240   40.9100 H   0  0  0  0  0  0  0  0  0  0  0  0
   36.5950   27.4240   42.5540 H   0  0  0  0  0  0  0  0  0  0  0  0
   37.6710   23.7810   41.6100 C   0  0  0  0  0  0  0  0  0  0  0  0
   37.0560   25.0090   41.8800 C   0  0  0  0  0  0  0  0  0  0  0  0
   37.5590   26.1320   41.2460 C   0  0  0  0  0  0  0  0  0  0  0  0
   38.6230   25.9860   40.3960 N   0  0  0  0  0  0  0  0  0  0  0  0
   39.1890   24.7810   40.1610 C   0  0  0  0  0  0  0  0  0  0  0  0
   38.7120   23.7010   40.7650 N   0  0  0  0  0  0  0  0  0  0  0  0
   37.2210   22.9410   42.1450 H   0  0  0  0  0  0  0  0  0  0  0  0
   36.2070   25.1110   42.5620 H   0  0  0  0  0  0  0  0  0  0  0  0
   40.0260   24.7240   39.4820 H   0  0  0  0  0  0  0  0  0  0  0  0
  1  6  1  6  0  0  0
  1 24  1  0  0  0  0
  2  1  1  0  0  0  0
  2  7  1  0  0  0  0
  2  8  1  0  0  0  0
  3  2  1  0  0  0  0
  4  3  1  0  0  0  0
  4  5  1  0  0  0  0
  5 13  1  6  0  0  0
  5 14  1  0  0  0  0
  5  1  1  0  0  0  0
  9  3  1  0  0  0  0
 10  3  1  0  0  0  0
 11  4  1  0  0  0  0
 12  4  1  0  0  0  0
 14 15  1  0  0  0  0
 15 16  1  0  0  0  0
 17 15  1  0  0  0  0
 17 18  1  0  0  0  0
 19 17  1  0  0  0  0
 20 22  1  0  0  0  0
 20 19  1  0  0  0  0
 21 20  1  0  0  0  0
 22 14  1  0  0  0  0
 23 22  1  0  0  0  0
 24 26  1  0  0  0  0
 26 25  2  1  0  0  0
 26 27  1  0  0  0  0
 27 28  1  0  0  0  0
 29 30  1  0  0  0  0
 29 26  1  0  0  0  0
 30 32  1  0  0  0  0
 31 30  1  0  0  0  0
 33 34  1  0  0  0  0
 33 39  1  0  0  0  0
 34 40  1  0  0  0  0
 35 30  1  0  0  0  0
 35 34  2  0  0  0  0
 36 35  1  0  0  0  0
 37 36  2  0  0  0  0
 37 38  1  0  0  0  0
 38 33  2  0  0  0  0
 41 37  1  0  0  0  0
M  END
>  <minimizedAffinity>
-5.01883936

$$$$
