
 OpenBabel03252507203D

 45 48  0  0  1  0  0  0  0  0999 V2000
   46.8260   30.6000   45.1180 C   0  0  0  0  0  0  0  0  0  0  0  0
   48.0940   30.4080   45.1550 O   0  0  0  0  0  0  0  0  0  0  0  0
   46.0670   30.3930   43.9280 N   0  0  0  0  0  0  0  0  0  0  0  0
   44.7790   29.7080   43.7470 C   0  0  0  0  0  0  0  0  0  0  0  0
   43.8140   30.6290   43.0070 C   0  0  0  0  0  0  0  0  0  0  0  0
   44.3450   30.8660   41.6040 C   0  0  0  0  0  0  0  0  0  0  0  0
   45.7650   30.4450   41.5280 C   0  0  0  0  0  0  0  0  0  0  0  0
   46.5960   30.9020   42.7000 C   0  0  1  0  0  0  0  0  0  0  0  0
   44.3480   29.6710   44.7900 H   0  0  0  0  0  0  0  0  0  0  0  0
   44.8760   28.7180   43.3190 H   0  0  0  0  0  0  0  0  0  0  0  0
   43.8030   31.5770   43.5950 H   0  0  0  0  0  0  0  0  0  0  0  0
   42.8310   30.1300   43.0300 H   0  0  0  0  0  0  0  0  0  0  0  0
   44.0840   31.8440   41.2130 H   0  0  0  0  0  0  0  0  0  0  0  0
   43.7560   30.1360   40.9750 H   0  0  0  0  0  0  0  0  0  0  0  0
   46.2750   30.6610   40.5930 H   0  0  0  0  0  0  0  0  0  0  0  0
   45.7690   29.3160   41.6030 H   0  0  0  0  0  0  0  0  0  0  0  0
   47.5730   30.3860   42.5630 H   0  0  0  0  0  0  0  0  0  0  0  0
   46.8820   32.3680   42.6460 C   0  0  0  0  0  3  0  0  0  0  0  0
   47.5040   32.8910   41.3860 C   0  0  0  0  0  3  0  0  0  0  0  0
   46.8880   32.4690   40.5470 H   0  0  0  0  0  0  0  0  0  0  0  0
   47.2620   34.4030   41.2540 C   0  0  0  0  0  3  0  0  0  0  0  0
   46.2650   34.5960   40.8610 H   0  0  0  0  0  0  0  0  0  0  0  0
   47.4330   34.9630   42.5000 O   0  0  0  0  0  0  0  0  0  0  0  0
   46.3890   34.6440   43.3640 C   0  0  0  0  0  3  0  0  0  0  0  0
   46.8600   34.5040   44.3760 H   0  0  0  0  0  0  0  0  0  0  0  0
   45.7660   33.2780   43.0250 C   0  0  0  0  0  3  0  0  0  0  0  0
   45.0510   33.4930   42.2090 H   0  0  0  0  0  0  0  0  0  0  0  0
   45.9040   32.3990   46.4700 C   0  0  0  0  0  0  0  0  0  0  0  0
   46.1560   31.0330   46.3100 C   0  0  0  0  0  0  0  0  0  0  0  0
   45.7650   30.1520   47.2910 C   0  0  0  0  0  0  0  0  0  0  0  0
   45.1480   30.6390   48.3810 N   0  0  0  0  0  0  0  0  0  0  0  0
   44.8980   31.9670   48.5460 C   0  0  0  0  0  0  0  0  0  0  0  0
   45.2810   32.8140   47.5890 N   0  0  0  0  0  0  0  0  0  0  0  0
   46.1690   33.1670   45.7590 H   0  0  0  0  0  0  0  0  0  0  0  0
   44.3920   32.3400   49.4480 H   0  0  0  0  0  0  0  0  0  0  0  0
   46.0310   28.7400   47.1110 C   0  0  0  0  0  0  0  0  0  0  0  0
   45.0360   27.8990   46.6760 C   0  0  0  0  0  0  0  0  0  0  0  0
   45.3150   26.5610   46.5110 C   0  0  0  0  0  0  0  0  0  0  0  0
   46.5570   26.0100   46.7620 C   0  0  0  0  0  0  0  0  0  0  0  0
   47.5140   26.9030   47.1960 C   0  0  0  0  0  0  0  0  0  0  0  0
   47.2290   28.1950   47.3510 N   0  0  0  0  0  0  0  0  0  0  0  0
   44.0400   28.1750   46.4480 H   0  0  0  0  0  0  0  0  0  0  0  0
   44.5540   25.8490   46.1650 H   0  0  0  0  0  0  0  0  0  0  0  0
   46.8020   24.9640   46.6400 H   0  0  0  0  0  0  0  0  0  0  0  0
   48.5320   26.5650   47.4230 H   0  0  0  0  0  0  0  0  0  0  0  0
  1  2  2  0  0  0  0
  1 29  1  0  0  0  0
  3  1  1  0  0  0  0
  4  3  1  0  0  0  0
  4  9  1  0  0  0  0
  5 12  1  0  0  0  0
  5 11  1  0  0  0  0
  5  4  1  0  0  0  0
  6  5  1  0  0  0  0
  7 16  1  0  0  0  0
  7  6  1  0  0  0  0
  7  8  1  0  0  0  0
  8 17  1  6  0  0  0
  8  3  1  0  0  0  0
 10  4  1  0  0  0  0
 13  6  1  0  0  0  0
 14  6  1  0  0  0  0
 15  7  1  0  0  0  0
 18  8  1  0  0  0  0
 18 26  1  0  0  0  0
 19 18  1  0  0  0  0
 20 19  1  0  0  0  0
 21 19  1  0  0  0  0
 21 23  1  0  0  0  0
 22 21  1  0  0  0  0
 23 24  1  0  0  0  0
 24 25  1  0  0  0  0
 26 24  1  0  0  0  0
 27 26  1  0  0  0  0
 28 33  1  0  0  0  0
 29 28  2  0  0  0  0
 29 30  1  0  0  0  0
 30 31  2  0  0  0  0
 31 32  1  0  0  0  0
 32 35  1  0  0  0  0
 33 32  2  0  0  0  0
 34 28  1  0  0  0  0
 36 30  1  0  0  0  0
 36 41  1  0  0  0  0
 37 36  2  0  0  0  0
 38 37  1  0  0  0  0
 38 39  2  0  0  0  0
 39 40  1  0  0  0  0
 40 41  2  0  0  0  0
 40 45  1  0  0  0  0
 42 37  1  0  0  0  0
 43 38  1  0  0  0  0
 44 39  1  0  0  0  0
M  END
>  <minimizedAffinity>
-4.14393997

>  <minimizedRMSD>
4.43270206

$$$$
