
 OpenBabel03252509043D

 49 51  0  0  1  0  0  0  0  0999 V2000
   46.7300   34.3720   43.6470 N   0  0  0  0  0  0  0  0  0  0  0  0
   46.3140   35.1610   42.5530 C   0  0  0  0  0  0  0  0  0  0  0  0
   44.8130   35.2940   42.3910 C   0  0  0  0  0  0  0  0  0  0  0  0
   44.0540   35.2920   43.6880 C   0  0  0  0  0  0  0  0  0  0  0  0
   44.9810   35.2570   44.8820 C   0  0  0  0  0  0  0  0  0  0  0  0
   45.8510   33.9660   44.6310 C   0  0  2  0  0  0  0  0  0  0  0  0
   46.6990   34.8840   41.5650 H   0  0  0  0  0  0  0  0  0  0  0  0
   46.6940   36.2040   42.7310 H   0  0  0  0  0  0  0  0  0  0  0  0
   44.4720   34.5010   41.6970 H   0  0  0  0  0  0  0  0  0  0  0  0
   44.6010   36.2660   41.8900 H   0  0  0  0  0  0  0  0  0  0  0  0
   43.3880   36.1820   43.7930 H   0  0  0  0  0  0  0  0  0  0  0  0
   43.4000   34.4140   43.7590 H   0  0  0  0  0  0  0  0  0  0  0  0
   44.3910   35.0570   45.7820 H   0  0  0  0  0  0  0  0  0  0  0  0
   45.6510   36.1370   44.9500 H   0  0  0  0  0  0  0  0  0  0  0  0
   45.0930   33.1970   44.3770 H   0  0  0  0  0  0  0  0  0  0  0  0
   47.8700   33.5410   43.3670 C   0  0  0  0  0  0  0  0  0  0  0  0
   48.3000   33.2060   44.3360 H   0  0  0  0  0  0  0  0  0  0  0  0
   48.5940   34.1590   42.8060 H   0  0  0  0  0  0  0  0  0  0  0  0
   47.4380   32.3510   42.5990 C   0  0  0  0  0  0  0  0  0  0  0  0
   47.4900   31.3970   43.1530 H   0  0  0  0  0  0  0  0  0  0  0  0
   46.3620   32.4390   42.2850 H   0  0  0  0  0  0  0  0  0  0  0  0
   50.2190   31.6750   40.1680 C   0  0  0  0  0  0  0  0  0  0  0  0
   49.4760   31.7740   41.3580 C   0  0  0  0  0  0  0  0  0  0  0  0
   48.2000   32.2590   41.3300 C   0  0  0  0  0  0  0  0  0  0  0  0
   47.7070   32.6260   40.1440 N   0  0  0  0  0  0  0  0  0  0  0  0
   48.3950   32.5400   39.0020 C   0  0  0  0  0  0  0  0  0  0  0  0
   49.6540   32.0670   38.9920 N   0  0  0  0  0  0  0  0  0  0  0  0
   51.2420   31.2890   40.1780 H   0  0  0  0  0  0  0  0  0  0  0  0
   49.9650   31.4500   42.2750 H   0  0  0  0  0  0  0  0  0  0  0  0
   47.8420   32.8820   38.1220 H   0  0  0  0  0  0  0  0  0  0  0  0
   46.4670   33.7930   45.8500 O   0  0  0  0  0  0  0  0  0  0  0  0
   45.7650   31.2700   45.4420 O   0  0  0  0  0  0  0  0  0  0  0  0
   46.1830   32.2690   46.5190 P   0  0  2  0  0  0  0  0  0  0  0  0
   44.8350   32.4530   47.5400 O   0  0  0  0  0  0  0  0  0  0  0  0
   44.9810   32.0740   48.4390 H   0  0  0  0  0  0  0  0  0  0  0  0
   47.4730   31.7290   47.4360 O   0  0  0  0  0  0  0  0  0  0  0  0
   47.5960   30.3530   47.2280 C   0  0  0  0  0  0  0  0  0  0  0  0
   46.5920   29.8990   47.4320 H   0  0  0  0  0  0  0  0  0  0  0  0
   47.9380   30.1150   46.2190 H   0  0  0  0  0  0  0  0  0  0  0  0
   48.5470   29.8510   48.2940 C   0  0  0  0  0  3  0  0  0  0  0  0
   48.8130   30.8750   49.3730 C   0  0  0  0  0  3  0  0  0  0  0  0
   49.4160   31.7050   48.9500 H   0  0  0  0  0  0  0  0  0  0  0  0
   49.7120   30.1630   50.3870 C   0  0  0  0  0  3  0  0  0  0  0  0
   50.0070   30.8350   51.2180 H   0  0  0  0  0  0  0  0  0  0  0  0
   50.8740   29.7540   49.7710 O   0  0  0  0  0  0  0  0  0  0  0  0
   50.7070   28.8400   48.7560 C   0  0  0  0  0  3  0  0  0  0  0  0
   51.7140   28.6120   48.3590 H   0  0  0  0  0  0  0  0  0  0  0  0
   49.8470   29.4360   47.6480 C   0  0  0  0  0  3  0  0  0  0  0  0
   50.3400   30.3490   47.2690 H   0  0  0  0  0  0  0  0  0  0  0  0
  1  6  1  0  0  0  0
  2  8  1  0  0  0  0
  2  1  1  0  0  0  0
  3  2  1  0  0  0  0
  3  4  1  0  0  0  0
  4 12  1  0  0  0  0
  4 11  1  0  0  0  0
  4  5  1  0  0  0  0
  5 14  1  0  0  0  0
  5 13  1  0  0  0  0
  6 15  1  6  0  0  0
  6  5  1  0  0  0  0
  6 31  1  0  0  0  0
  7  2  1  0  0  0  0
  9  3  1  0  0  0  0
 10  3  1  0  0  0  0
 16  1  1  0  0  0  0
 16 17  1  0  0  0  0
 18 16  1  0  0  0  0
 19 20  1  0  0  0  0
 19 16  1  0  0  0  0
 21 19  1  0  0  0  0
 22 28  1  0  0  0  0
 22 23  1  0  0  0  0
 23 29  1  0  0  0  0
 24 23  2  0  0  0  0
 24 19  1  0  0  0  0
 25 24  1  0  0  0  0
 26 25  2  0  0  0  0
 27 26  1  0  0  0  0
 27 22  2  0  0  0  0
 30 26  1  0  0  0  0
 31 33  1  0  0  0  0
 33 32  2  6  0  0  0
 33 36  1  0  0  0  0
 33 34  1  0  0  0  0
 34 35  1  0  0  0  0
 37 38  1  0  0  0  0
 37 36  1  0  0  0  0
 37 40  1  0  0  0  0
 39 37  1  0  0  0  0
 40 41  1  0  0  0  0
 41 43  1  0  0  0  0
 42 41  1  0  0  0  0
 43 44  1  0  0  0  0
 45 43  1  0  0  0  0
 46 45  1  0  0  0  0
 47 46  1  0  0  0  0
 48 40  1  0  0  0  0
 48 46  1  0  0  0  0
 49 48  1  0  0  0  0
M  END
>  <minimizedAffinity>
-4.78570318

>  <minimizedRMSD>
2.32255244

$$$$
