
 OpenBabel03252505553D

 34 36  0  0  0  0  0  0  0  0999 V2000
   38.5160   27.0070   43.4500 C   0  0  0  0  0  0  0  0  0  0  0  0
   39.8140   26.7510   43.8670 C   0  0  0  0  0  0  0  0  0  0  0  0
   40.3940   25.5680   43.5140 C   0  0  0  0  0  0  0  0  0  0  0  0
   39.7620   24.6410   42.7820 N   0  0  0  0  0  0  0  0  0  0  0  0
   38.5020   24.9030   42.3840 C   0  0  0  0  0  0  0  0  0  0  0  0
   37.8710   26.0640   42.7040 N   0  0  0  0  0  0  0  0  0  0  0  0
   40.2180   27.5540   44.4410 H   0  0  0  0  0  0  0  0  0  0  0  0
   41.4100   25.4390   43.8770 H   0  0  0  0  0  0  0  0  0  0  0  0
   37.8370   23.8360   41.5670 C   0  0  0  0  0  3  0  0  0  0  0  0
   36.4710   24.2040   41.1020 C   0  0  0  0  0  3  0  0  0  0  0  0
   35.7270   23.7590   41.8170 H   0  0  0  0  0  0  0  0  0  0  0  0
   36.2640   23.5450   39.7490 C   0  0  0  0  0  3  0  0  0  0  0  0
   36.6640   22.5090   39.8220 H   0  0  0  0  0  0  0  0  0  0  0  0
   36.9920   24.3020   38.8370 O   0  0  0  0  0  0  0  0  0  0  0  0
   38.3310   24.4020   39.1720 C   0  0  0  0  0  3  0  0  0  0  0  0
   38.6570   25.4340   39.3860 H   0  0  0  0  0  0  0  0  0  0  0  0
   38.7110   23.5430   40.3480 C   0  0  0  0  0  3  0  0  0  0  0  0
   39.7650   23.8480   40.6130 H   0  0  0  0  0  0  0  0  0  0  0  0
   37.6550   28.1700   43.6750 C   0  0  0  0  0  0  0  0  0  0  0  0
   36.9000   27.9320   44.4670 H   0  0  0  0  0  0  0  0  0  0  0  0
   38.2280   29.0330   44.0430 H   0  0  0  0  0  0  0  0  0  0  0  0
   37.0320   28.4800   42.4490 O   0  0  0  0  0  0  0  0  0  0  0  0
   38.7820   31.3690   41.3080 C   0  0  0  0  0  0  0  0  0  0  0  0
   37.8260   32.0860   40.6040 C   0  0  0  0  0  0  0  0  0  0  0  0
   36.5420   31.5340   40.5350 C   0  0  0  0  0  0  0  0  0  0  0  0
   36.2840   30.3660   41.1330 N   0  0  0  0  0  0  0  0  0  0  0  0
   37.2580   29.7020   41.8110 C   0  0  0  0  0  0  0  0  0  0  0  0
   38.5040   30.1900   41.9050 N   0  0  0  0  0  0  0  0  0  0  0  0
   39.7730   31.7780   41.3710 H   0  0  0  0  0  0  0  0  0  0  0  0
   35.8000   32.1000   39.9840 H   0  0  0  0  0  0  0  0  0  0  0  0
   38.2290   33.3810   39.9780 C   0  0  0  0  0  0  0  0  0  0  0  0
   38.6520   34.1700   41.0190 F   0  0  0  0  0  0  0  0  0  0  0  0
   37.0570   33.9150   39.4180 F   0  0  0  0  0  0  0  0  0  0  0  0
   39.1830   33.1430   39.0410 F   0  0  0  0  0  0  0  0  0  0  0  0
  1 19  1  0  0  0  0
  1  2  1  0  0  0  0
  2  7  1  0  0  0  0
  3  2  2  0  0  0  0
  3  8  1  0  0  0  0
  4  3  1  0  0  0  0
  5  6  1  0  0  0  0
  5  4  2  0  0  0  0
  6  1  2  0  0  0  0
  9  5  1  0  0  0  0
 10  9  1  0  0  0  0
 10 11  1  0  0  0  0
 12 13  1  0  0  0  0
 12 10  1  0  0  0  0
 14 15  1  0  0  0  0
 14 12  1  0  0  0  0
 15 16  1  0  0  0  0
 15 17  1  0  0  0  0
 17 18  1  0  0  0  0
 17  9  1  0  0  0  0
 19 21  1  0  0  0  0
 19 20  1  0  0  0  0
 22 19  1  0  0  0  0
 23 29  1  0  0  0  0
 23 28  1  0  0  0  0
 24 23  2  0  0  0  0
 25 24  1  0  0  0  0
 25 26  2  0  0  0  0
 26 27  1  0  0  0  0
 27 28  2  0  0  0  0
 27 22  1  0  0  0  0
 30 25  1  0  0  0  0
 31 24  1  0  0  0  0
 31 32  1  0  0  0  0
 33 31  1  0  0  0  0
 34 31  1  0  0  0  0
M  END
>  <minimizedAffinity>
-5.96851778

$$$$

 OpenBabel03252505553D

 34 36  0  0  0  0  0  0  0  0999 V2000
   37.5220   26.4350   42.7320 C   0  0  0  0  0  0  0  0  0  0  0  0
   37.3040   25.2100   42.1180 C   0  0  0  0  0  0  0  0  0  0  0  0
   38.3210   24.3020   42.0890 C   0  0  0  0  0  0  0  0  0  0  0  0
   39.5240   24.5440   42.6280 N   0  0  0  0  0  0  0  0  0  0  0  0
   39.7210   25.7380   43.2200 C   0  0  0  0  0  0  0  0  0  0  0  0
   38.7460   26.6830   43.2810 N   0  0  0  0  0  0  0  0  0  0  0  0
   36.3160   25.1270   41.7260 H   0  0  0  0  0  0  0  0  0  0  0  0
   38.0760   23.3680   41.5920 H   0  0  0  0  0  0  0  0  0  0  0  0
   41.0820   25.9610   43.8090 C   0  0  0  0  0  3  0  0  0  0  0  0
   42.1670   25.2310   43.0960 C   0  0  0  0  0  3  0  0  0  0  0  0
   42.3680   24.2750   43.6510 H   0  0  0  0  0  0  0  0  0  0  0  0
   43.4190   26.0870   43.1840 C   0  0  0  0  0  3  0  0  0  0  0  0
   43.4790   26.4790   44.2240 H   0  0  0  0  0  0  0  0  0  0  0  0
   43.2430   27.1200   42.2680 O   0  0  0  0  0  0  0  0  0  0  0  0
   42.0900   27.8510   42.4980 C   0  0  0  0  0  3  0  0  0  0  0  0
   41.3590   27.7920   41.6750 H   0  0  0  0  0  0  0  0  0  0  0  0
   41.3870   27.4590   43.7700 C   0  0  0  0  0  3  0  0  0  0  0  0
   40.3970   27.9990   43.7440 H   0  0  0  0  0  0  0  0  0  0  0  0
   36.6300   27.5830   42.9110 C   0  0  0  0  0  0  0  0  0  0  0  0
   35.9460   27.6700   42.0290 H   0  0  0  0  0  0  0  0  0  0  0  0
   35.9830   27.4600   43.7910 H   0  0  0  0  0  0  0  0  0  0  0  0
   37.4370   28.7300   43.0490 O   0  0  0  0  0  0  0  0  0  0  0  0
   38.6650   31.3200   40.9280 C   0  0  0  0  0  0  0  0  0  0  0  0
   37.5480   31.7310   40.2170 C   0  0  0  0  0  0  0  0  0  0  0  0
   36.3420   31.0780   40.4960 C   0  0  0  0  0  0  0  0  0  0  0  0
   36.3050   30.1060   41.4130 N   0  0  0  0  0  0  0  0  0  0  0  0
   37.4310   29.7400   42.0830 C   0  0  0  0  0  0  0  0  0  0  0  0
   38.6100   30.3360   41.8510 N   0  0  0  0  0  0  0  0  0  0  0  0
   39.5990   31.8100   40.7270 H   0  0  0  0  0  0  0  0  0  0  0  0
   35.4730   31.4050   39.9360 H   0  0  0  0  0  0  0  0  0  0  0  0
   37.7070   32.8290   39.2160 C   0  0  0  0  0  0  0  0  0  0  0  0
   37.3460   32.2750   38.0130 F   0  0  0  0  0  0  0  0  0  0  0  0
   39.0760   33.1420   39.2080 F   0  0  0  0  0  0  0  0  0  0  0  0
   36.9410   33.8860   39.5910 F   0  0  0  0  0  0  0  0  0  0  0  0
  1 19  1  0  0  0  0
  1  6  1  0  0  0  0
  2  1  2  0  0  0  0
  3  2  1  0  0  0  0
  3  4  2  0  0  0  0
  4  5  1  0  0  0  0
  5  6  2  0  0  0  0
  5  9  1  0  0  0  0
  7  2  1  0  0  0  0
  8  3  1  0  0  0  0
 10 12  1  0  0  0  0
 10 11  1  0  0  0  0
 10  9  1  0  0  0  0
 12 13  1  0  0  0  0
 14 15  1  0  0  0  0
 14 12  1  0  0  0  0
 15 17  1  0  0  0  0
 16 15  1  0  0  0  0
 17  9  1  0  0  0  0
 18 17  1  0  0  0  0
 19 22  1  0  0  0  0
 19 21  1  0  0  0  0
 20 19  1  0  0  0  0
 23 28  1  0  0  0  0
 24 25  1  0  0  0  0
 24 23  2  0  0  0  0
 25 26  2  0  0  0  0
 26 27  1  0  0  0  0
 27 22  1  0  0  0  0
 28 27  2  0  0  0  0
 29 23  1  0  0  0  0
 30 25  1  0  0  0  0
 31 34  1  0  0  0  0
 31 24  1  0  0  0  0
 32 31  1  0  0  0  0
 33 31  1  0  0  0  0
M  END
>  <minimizedAffinity>
-5.74370146

$$$$

 OpenBabel03252505553D

 34 36  0  0  0  0  0  0  0  0999 V2000
   38.0840   32.2700   38.8240 C   0  0  0  0  0  0  0  0  0  0  0  0
   37.3940   33.2920   39.4600 C   0  0  0  0  0  0  0  0  0  0  0  0
   38.1050   34.2490   40.1220 C   0  0  0  0  0  0  0  0  0  0  0  0
   39.4430   34.2440   40.1850 N   0  0  0  0  0  0  0  0  0  0  0  0
   40.1000   33.2460   39.5630 C   0  0  0  0  0  0  0  0  0  0  0  0
   39.4470   32.2640   38.8870 N   0  0  0  0  0  0  0  0  0  0  0  0
   36.3380   33.1960   39.3440 H   0  0  0  0  0  0  0  0  0  0  0  0
   37.4960   35.0140   40.5950 H   0  0  0  0  0  0  0  0  0  0  0  0
   41.5960   33.2840   39.6620 C   0  0  0  0  0  3  0  0  0  0  0  0
   42.2540   32.0150   39.2450 C   0  0  0  0  0  3  0  0  0  0  0  0
   42.4660   31.4120   40.1700 H   0  0  0  0  0  0  0  0  0  0  0  0
   43.5880   32.3840   38.6190 C   0  0  0  0  0  3  0  0  0  0  0  0
   44.0470   33.1700   39.2590 H   0  0  0  0  0  0  0  0  0  0  0  0
   43.2930   32.8770   37.3510 O   0  0  0  0  0  0  0  0  0  0  0  0
   42.4140   33.9460   37.3830 C   0  0  0  0  0  3  0  0  0  0  0  0
   41.4550   33.7440   36.8770 H   0  0  0  0  0  0  0  0  0  0  0  0
   42.1120   34.4200   38.7780 C   0  0  0  0  0  3  0  0  0  0  0  0
   41.2690   35.1630   38.6670 H   0  0  0  0  0  0  0  0  0  0  0  0
   37.5940   31.1270   38.0500 C   0  0  0  0  0  0  0  0  0  0  0  0
   37.3320   31.4590   37.0130 H   0  0  0  0  0  0  0  0  0  0  0  0
   38.3660   30.3530   37.9400 H   0  0  0  0  0  0  0  0  0  0  0  0
   36.4690   30.6100   38.7220 O   0  0  0  0  0  0  0  0  0  0  0  0
   36.5520   29.0930   41.9480 C   0  0  0  0  0  0  0  0  0  0  0  0
   36.8370   27.7610   41.6880 C   0  0  0  0  0  0  0  0  0  0  0  0
   37.0010   27.3980   40.3460 C   0  0  0  0  0  0  0  0  0  0  0  0
   36.8830   28.3200   39.3850 N   0  0  0  0  0  0  0  0  0  0  0  0
   36.6020   29.6140   39.6950 C   0  0  0  0  0  0  0  0  0  0  0  0
   36.4360   30.0110   40.9650 N   0  0  0  0  0  0  0  0  0  0  0  0
   36.4230   29.3900   42.9720 H   0  0  0  0  0  0  0  0  0  0  0  0
   37.2230   26.3550   40.1500 H   0  0  0  0  0  0  0  0  0  0  0  0
   36.9470   26.8190   42.8420 C   0  0  0  0  0  0  0  0  0  0  0  0
   36.0220   27.2600   43.7560 F   0  0  0  0  0  0  0  0  0  0  0  0
   38.2440   26.9900   43.3520 F   0  0  0  0  0  0  0  0  0  0  0  0
   36.7300   25.5520   42.4030 F   0  0  0  0  0  0  0  0  0  0  0  0
  1  6  2  0  0  0  0
  1  2  1  0  0  0  0
  2  3  2  0  0  0  0
  3  4  1  0  0  0  0
  3  8  1  0  0  0  0
  5  9  1  0  0  0  0
  5  4  2  0  0  0  0
  6  5  1  0  0  0  0
  7  2  1  0  0  0  0
 10  9  1  0  0  0  0
 10 11  1  0  0  0  0
 12 10  1  0  0  0  0
 12 13  1  0  0  0  0
 14 15  1  0  0  0  0
 14 12  1  0  0  0  0
 15 17  1  0  0  0  0
 16 15  1  0  0  0  0
 17  9  1  0  0  0  0
 18 17  1  0  0  0  0
 19 22  1  0  0  0  0
 19  1  1  0  0  0  0
 20 19  1  0  0  0  0
 21 19  1  0  0  0  0
 22 27  1  0  0  0  0
 23 29  1  0  0  0  0
 24 23  1  0  0  0  0
 24 31  1  0  0  0  0
 25 24  2  0  0  0  0
 26 27  2  0  0  0  0
 26 25  1  0  0  0  0
 27 28  1  0  0  0  0
 28 23  2  0  0  0  0
 30 25  1  0  0  0  0
 31 33  1  0  0  0  0
 31 32  1  0  0  0  0
 34 31  1  0  0  0  0
M  END
>  <minimizedAffinity>
-5.61742067

$$$$

 OpenBabel03252505553D

 34 36  0  0  0  0  0  0  0  0999 V2000
   38.5570   26.9170   43.4260 C   0  0  0  0  0  0  0  0  0  0  0  0
   39.8410   26.6250   43.8620 C   0  0  0  0  0  0  0  0  0  0  0  0
   40.4070   25.4420   43.4860 C   0  0  0  0  0  0  0  0  0  0  0  0
   39.7730   24.5490   42.7140 N   0  0  0  0  0  0  0  0  0  0  0  0
   38.5270   24.8460   42.2980 C   0  0  0  0  0  0  0  0  0  0  0  0
   37.9100   26.0080   42.6390 N   0  0  0  0  0  0  0  0  0  0  0  0
   40.2470   27.4030   44.4670 H   0  0  0  0  0  0  0  0  0  0  0  0
   41.4120   25.2840   43.8660 H   0  0  0  0  0  0  0  0  0  0  0  0
   37.8600   23.8150   41.4370 C   0  0  0  0  0  3  0  0  0  0  0  0
   36.4610   24.1620   41.0670 C   0  0  0  0  0  3  0  0  0  0  0  0
   35.7700   23.6360   41.7810 H   0  0  0  0  0  0  0  0  0  0  0  0
   36.2080   23.5950   39.6800 C   0  0  0  0  0  3  0  0  0  0  0  0
   36.6490   22.5730   39.6550 H   0  0  0  0  0  0  0  0  0  0  0  0
   36.8610   24.4450   38.7930 O   0  0  0  0  0  0  0  0  0  0  0  0
   38.2120   24.5740   39.0700 C   0  0  0  0  0  3  0  0  0  0  0  0
   38.5100   25.6000   39.3440 H   0  0  0  0  0  0  0  0  0  0  0  0
   38.6820   23.6470   40.1580 C   0  0  0  0  0  3  0  0  0  0  0  0
   39.7360   23.9740   40.3950 H   0  0  0  0  0  0  0  0  0  0  0  0
   37.7120   28.0890   43.6670 C   0  0  0  0  0  0  0  0  0  0  0  0
   36.7950   28.0290   43.0270 H   0  0  0  0  0  0  0  0  0  0  0  0
   37.3600   28.1270   44.7070 H   0  0  0  0  0  0  0  0  0  0  0  0
   38.4760   29.2330   43.3620 O   0  0  0  0  0  0  0  0  0  0  0  0
   36.8100   30.5910   40.5170 C   0  0  0  0  0  0  0  0  0  0  0  0
   37.8140   31.2450   39.8190 C   0  0  0  0  0  0  0  0  0  0  0  0
   39.1010   31.2020   40.3680 C   0  0  0  0  0  0  0  0  0  0  0  0
   39.3160   30.5500   41.5160 N   0  0  0  0  0  0  0  0  0  0  0  0
   38.2950   29.9250   42.1610 C   0  0  0  0  0  0  0  0  0  0  0  0
   37.0460   29.9380   41.6750 N   0  0  0  0  0  0  0  0  0  0  0  0
   35.8170   30.6140   40.1100 H   0  0  0  0  0  0  0  0  0  0  0  0
   39.8800   31.7160   39.8170 H   0  0  0  0  0  0  0  0  0  0  0  0
   37.4570   31.9400   38.5460 C   0  0  0  0  0  0  0  0  0  0  0  0
   36.8520   33.1110   38.9310 F   0  0  0  0  0  0  0  0  0  0  0  0
   36.5260   31.1080   37.9040 F   0  0  0  0  0  0  0  0  0  0  0  0
   38.5830   32.1180   37.8060 F   0  0  0  0  0  0  0  0  0  0  0  0
  1 19  1  0  0  0  0
  1  2  1  0  0  0  0
  2  7  1  0  0  0  0
  3  2  2  0  0  0  0
  3  8  1  0  0  0  0
  4  3  1  0  0  0  0
  5  6  1  0  0  0  0
  5  4  2  0  0  0  0
  6  1  2  0  0  0  0
  9  5  1  0  0  0  0
 10  9  1  0  0  0  0
 10 11  1  0  0  0  0
 12 10  1  0  0  0  0
 13 12  1  0  0  0  0
 14 15  1  0  0  0  0
 14 12  1  0  0  0  0
 15 16  1  0  0  0  0
 15 17  1  0  0  0  0
 17 18  1  0  0  0  0
 17  9  1  0  0  0  0
 19 21  1  0  0  0  0
 20 19  1  0  0  0  0
 22 19  1  0  0  0  0
 23 28  1  0  0  0  0
 24 25  1  0  0  0  0
 24 23  2  0  0  0  0
 25 26  2  0  0  0  0
 26 27  1  0  0  0  0
 27 22  1  0  0  0  0
 28 27  2  0  0  0  0
 29 23  1  0  0  0  0
 30 25  1  0  0  0  0
 31 32  1  0  0  0  0
 31 24  1  0  0  0  0
 33 31  1  0  0  0  0
 34 31  1  0  0  0  0
M  END
>  <minimizedAffinity>
-5.59179211

$$$$

 OpenBabel03252505553D

 34 36  0  0  0  0  0  0  0  0999 V2000
   37.3490   26.2950   41.7620 C   0  0  0  0  0  0  0  0  0  0  0  0
   37.0780   24.9640   42.0470 C   0  0  0  0  0  0  0  0  0  0  0  0
   36.5660   24.1740   41.0600 C   0  0  0  0  0  0  0  0  0  0  0  0
   36.3120   24.6300   39.8260 N   0  0  0  0  0  0  0  0  0  0  0  0
   36.5800   25.9240   39.5640 C   0  0  0  0  0  0  0  0  0  0  0  0
   37.0910   26.7600   40.5050 N   0  0  0  0  0  0  0  0  0  0  0  0
   37.3180   24.7120   43.0550 H   0  0  0  0  0  0  0  0  0  0  0  0
   36.3800   23.1470   41.3580 H   0  0  0  0  0  0  0  0  0  0  0  0
   36.2790   26.3860   38.1690 C   0  0  0  0  0  3  0  0  0  0  0  0
   35.0330   25.8010   37.6030 C   0  0  0  0  0  3  0  0  0  0  0  0
   35.3190   24.9170   36.9700 H   0  0  0  0  0  0  0  0  0  0  0  0
   34.4220   26.8460   36.6840 C   0  0  0  0  0  3  0  0  0  0  0  0
   35.2530   27.2930   36.0940 H   0  0  0  0  0  0  0  0  0  0  0  0
   33.8320   27.7920   37.5180 O   0  0  0  0  0  0  0  0  0  0  0  0
   34.7270   28.3440   38.4190 C   0  0  0  0  0  3  0  0  0  0  0  0
   34.4790   28.1310   39.4730 H   0  0  0  0  0  0  0  0  0  0  0  0
   36.1480   27.9100   38.1810 C   0  0  0  0  0  3  0  0  0  0  0  0
   36.7290   28.2860   39.0720 H   0  0  0  0  0  0  0  0  0  0  0  0
   37.8920   27.3590   42.6090 C   0  0  0  0  0  0  0  0  0  0  0  0
   38.0770   26.9630   43.6400 H   0  0  0  0  0  0  0  0  0  0  0  0
   38.8620   27.7160   42.2380 H   0  0  0  0  0  0  0  0  0  0  0  0
   36.9530   28.4100   42.6250 O   0  0  0  0  0  0  0  0  0  0  0  0
   38.7200   31.2510   41.3920 C   0  0  0  0  0  0  0  0  0  0  0  0
   37.7780   31.9310   40.6340 C   0  0  0  0  0  0  0  0  0  0  0  0
   36.4980   31.3700   40.5600 C   0  0  0  0  0  0  0  0  0  0  0  0
   36.2300   30.2300   41.2050 N   0  0  0  0  0  0  0  0  0  0  0  0
   37.1900   29.6030   41.9360 C   0  0  0  0  0  0  0  0  0  0  0  0
   38.4320   30.1000   42.0370 N   0  0  0  0  0  0  0  0  0  0  0  0
   39.7080   31.6670   41.4600 H   0  0  0  0  0  0  0  0  0  0  0  0
   35.7680   31.9070   39.9660 H   0  0  0  0  0  0  0  0  0  0  0  0
   38.1910   33.1980   39.9580 C   0  0  0  0  0  0  0  0  0  0  0  0
   38.6270   34.0200   40.9670 F   0  0  0  0  0  0  0  0  0  0  0  0
   37.0220   33.7220   39.3830 F   0  0  0  0  0  0  0  0  0  0  0  0
   39.1390   32.9150   39.0260 F   0  0  0  0  0  0  0  0  0  0  0  0
  1  2  1  0  0  0  0
  1 19  1  0  0  0  0
  2  7  1  0  0  0  0
  3  8  1  0  0  0  0
  3  2  2  0  0  0  0
  4  3  1  0  0  0  0
  5  4  2  0  0  0  0
  5  6  1  0  0  0  0
  6  1  2  0  0  0  0
  9 17  1  0  0  0  0
  9  5  1  0  0  0  0
 10  9  1  0  0  0  0
 11 10  1  0  0  0  0
 12 14  1  0  0  0  0
 12 10  1  0  0  0  0
 13 12  1  0  0  0  0
 14 15  1  0  0  0  0
 15 16  1  0  0  0  0
 17 15  1  0  0  0  0
 17 18  1  0  0  0  0
 19 22  1  0  0  0  0
 19 20  1  0  0  0  0
 21 19  1  0  0  0  0
 23 29  1  0  0  0  0
 23 28  1  0  0  0  0
 24 23  2  0  0  0  0
 25 24  1  0  0  0  0
 25 26  2  0  0  0  0
 26 27  1  0  0  0  0
 27 28  2  0  0  0  0
 27 22  1  0  0  0  0
 30 25  1  0  0  0  0
 31 24  1  0  0  0  0
 31 32  1  0  0  0  0
 33 31  1  0  0  0  0
 34 31  1  0  0  0  0
M  END
>  <minimizedAffinity>
-5.41036272

$$$$

 OpenBabel03252505553D

 34 36  0  0  0  0  0  0  0  0999 V2000
   36.8640   28.9780   41.6520 C   0  0  0  0  0  0  0  0  0  0  0  0
   37.6290   29.3210   42.7570 C   0  0  0  0  0  0  0  0  0  0  0  0
   38.1460   28.3240   43.5310 C   0  0  0  0  0  0  0  0  0  0  0  0
   37.9440   27.0260   43.2700 N   0  0  0  0  0  0  0  0  0  0  0  0
   37.1990   26.7070   42.1940 C   0  0  0  0  0  0  0  0  0  0  0  0
   36.6570   27.6550   41.3840 N   0  0  0  0  0  0  0  0  0  0  0  0
   37.7230   30.3770   42.8680 H   0  0  0  0  0  0  0  0  0  0  0  0
   38.7320   28.6700   44.3770 H   0  0  0  0  0  0  0  0  0  0  0  0
   37.0020   25.2410   41.9430 C   0  0  0  0  0  3  0  0  0  0  0  0
   36.6620   24.9180   40.5310 C   0  0  0  0  0  3  0  0  0  0  0  0
   35.5450   24.8170   40.4550 H   0  0  0  0  0  0  0  0  0  0  0  0
   37.2700   23.5610   40.2210 C   0  0  0  0  0  3  0  0  0  0  0  0
   37.0770   22.9040   41.0990 H   0  0  0  0  0  0  0  0  0  0  0  0
   38.6330   23.7800   40.0490 O   0  0  0  0  0  0  0  0  0  0  0  0
   39.2220   24.3810   41.1480 C   0  0  0  0  0  3  0  0  0  0  0  0
   39.6380   25.3800   40.9350 H   0  0  0  0  0  0  0  0  0  0  0  0
   38.2890   24.5080   42.3220 C   0  0  0  0  0  3  0  0  0  0  0  0
   38.8340   25.1550   43.0690 H   0  0  0  0  0  0  0  0  0  0  0  0
   36.1930   29.8190   40.6580 C   0  0  0  0  0  0  0  0  0  0  0  0
   36.4940   29.4980   39.6290 H   0  0  0  0  0  0  0  0  0  0  0  0
   35.1010   29.7110   40.7070 H   0  0  0  0  0  0  0  0  0  0  0  0
   36.5690   31.1540   40.9090 O   0  0  0  0  0  0  0  0  0  0  0  0
   39.1790   31.6980   38.5410 C   0  0  0  0  0  0  0  0  0  0  0  0
   39.9600   32.6870   39.1210 C   0  0  0  0  0  0  0  0  0  0  0  0
   39.5510   33.1660   40.3710 C   0  0  0  0  0  0  0  0  0  0  0  0
   38.4530   32.6700   40.9510 N   0  0  0  0  0  0  0  0  0  0  0  0
   37.7220   31.7000   40.3390 C   0  0  0  0  0  0  0  0  0  0  0  0
   38.0730   31.2090   39.1410 N   0  0  0  0  0  0  0  0  0  0  0  0
   39.4780   31.3190   37.5820 H   0  0  0  0  0  0  0  0  0  0  0  0
   40.1660   33.9390   40.8180 H   0  0  0  0  0  0  0  0  0  0  0  0
   41.1660   33.1650   38.3810 C   0  0  0  0  0  0  0  0  0  0  0  0
   41.1270   34.5340   38.4750 F   0  0  0  0  0  0  0  0  0  0  0  0
   40.9770   32.7700   37.0480 F   0  0  0  0  0  0  0  0  0  0  0  0
   42.2750   32.6040   38.9310 F   0  0  0  0  0  0  0  0  0  0  0  0
  1  2  1  0  0  0  0
  2  7  1  0  0  0  0
  2  3  2  0  0  0  0
  3  8  1  0  0  0  0
  4  3  1  0  0  0  0
  5  4  2  0  0  0  0
  6  1  2  0  0  0  0
  6  5  1  0  0  0  0
  9  5  1  0  0  0  0
  9 17  1  0  0  0  0
 10  9  1  0  0  0  0
 11 10  1  0  0  0  0
 12 10  1  0  0  0  0
 12 13  1  0  0  0  0
 14 12  1  0  0  0  0
 14 15  1  0  0  0  0
 15 17  1  0  0  0  0
 16 15  1  0  0  0  0
 17 18  1  0  0  0  0
 19 21  1  0  0  0  0
 19 22  1  0  0  0  0
 19  1  1  0  0  0  0
 20 19  1  0  0  0  0
 23 24  2  0  0  0  0
 23 28  1  0  0  0  0
 24 25  1  0  0  0  0
 25 30  1  0  0  0  0
 25 26  2  0  0  0  0
 27 22  1  0  0  0  0
 27 26  1  0  0  0  0
 28 27  2  0  0  0  0
 29 23  1  0  0  0  0
 31 32  1  0  0  0  0
 31 34  1  0  0  0  0
 31 24  1  0  0  0  0
 33 31  1  0  0  0  0
M  END
>  <minimizedAffinity>
-5.39913559

$$$$

 OpenBabel03252505553D

 34 36  0  0  0  0  0  0  0  0999 V2000
   36.0920   26.3280   38.6650 C   0  0  0  0  0  0  0  0  0  0  0  0
   35.6740   25.0140   38.5140 C   0  0  0  0  0  0  0  0  0  0  0  0
   36.0050   24.1060   39.4780 C   0  0  0  0  0  0  0  0  0  0  0  0
   36.7190   24.4310   40.5640 N   0  0  0  0  0  0  0  0  0  0  0  0
   37.1180   25.7110   40.6970 C   0  0  0  0  0  0  0  0  0  0  0  0
   36.8190   26.6600   39.7720 N   0  0  0  0  0  0  0  0  0  0  0  0
   35.1160   24.8700   37.6180 H   0  0  0  0  0  0  0  0  0  0  0  0
   35.6440   23.1000   39.2910 H   0  0  0  0  0  0  0  0  0  0  0  0
   37.9140   26.0250   41.9290 C   0  0  0  0  0  3  0  0  0  0  0  0
   38.9530   27.0700   41.7180 C   0  0  0  0  0  3  0  0  0  0  0  0
   39.9330   26.5550   41.5300 H   0  0  0  0  0  0  0  0  0  0  0  0
   39.0810   27.8450   43.0190 C   0  0  0  0  0  3  0  0  0  0  0  0
   39.0700   27.1040   43.8490 H   0  0  0  0  0  0  0  0  0  0  0  0
   37.9710   28.6820   43.0780 O   0  0  0  0  0  0  0  0  0  0  0  0
   36.7740   27.9910   42.9950 C   0  0  0  0  0  3  0  0  0  0  0  0
   36.1780   28.2470   42.1030 H   0  0  0  0  0  0  0  0  0  0  0  0
   36.9520   26.4970   43.0200 C   0  0  0  0  0  3  0  0  0  0  0  0
   35.9370   26.0700   42.7760 H   0  0  0  0  0  0  0  0  0  0  0  0
   35.8880   27.4970   37.8070 C   0  0  0  0  0  0  0  0  0  0  0  0
   36.8770   27.8690   37.4360 H   0  0  0  0  0  0  0  0  0  0  0  0
   35.2980   27.2470   36.9150 H   0  0  0  0  0  0  0  0  0  0  0  0
   35.2290   28.4770   38.5760 O   0  0  0  0  0  0  0  0  0  0  0  0
   37.2200   31.4260   38.3400 C   0  0  0  0  0  0  0  0  0  0  0  0
   37.2060   31.9460   39.6250 C   0  0  0  0  0  0  0  0  0  0  0  0
   36.4770   31.2380   40.5880 C   0  0  0  0  0  0  0  0  0  0  0  0
   35.8370   30.1150   40.2490 N   0  0  0  0  0  0  0  0  0  0  0  0
   35.8830   29.6470   38.9730 C   0  0  0  0  0  0  0  0  0  0  0  0
   36.5670   30.2890   38.0150 N   0  0  0  0  0  0  0  0  0  0  0  0
   37.7740   31.9560   37.5880 H   0  0  0  0  0  0  0  0  0  0  0  0
   36.4700   31.6510   41.5910 H   0  0  0  0  0  0  0  0  0  0  0  0
   37.9590   33.2090   39.8890 C   0  0  0  0  0  0  0  0  0  0  0  0
   37.1000   34.2210   39.5400 F   0  0  0  0  0  0  0  0  0  0  0  0
   39.0560   33.1890   39.0140 F   0  0  0  0  0  0  0  0  0  0  0  0
   38.3420   33.2340   41.1920 F   0  0  0  0  0  0  0  0  0  0  0  0
  1  6  1  0  0  0  0
  2  1  2  0  0  0  0
  2  3  1  0  0  0  0
  3  4  2  0  0  0  0
  4  5  1  0  0  0  0
  5  9  1  0  0  0  0
  6  5  2  0  0  0  0
  7  2  1  0  0  0  0
  8  3  1  0  0  0  0
  9 17  1  0  0  0  0
 10  9  1  0  0  0  0
 10 12  1  0  0  0  0
 11 10  1  0  0  0  0
 12 14  1  0  0  0  0
 12 13  1  0  0  0  0
 15 17  1  0  0  0  0
 15 14  1  0  0  0  0
 16 15  1  0  0  0  0
 18 17  1  0  0  0  0
 19 22  1  0  0  0  0
 19  1  1  0  0  0  0
 20 19  1  0  0  0  0
 21 19  1  0  0  0  0
 22 27  1  0  0  0  0
 23 24  1  0  0  0  0
 24 31  1  0  0  0  0
 24 25  2  0  0  0  0
 25 30  1  0  0  0  0
 26 25  1  0  0  0  0
 27 26  2  0  0  0  0
 28 23  2  0  0  0  0
 28 27  1  0  0  0  0
 29 23  1  0  0  0  0
 31 34  1  0  0  0  0
 32 31  1  0  0  0  0
 33 31  1  0  0  0  0
M  END
>  <minimizedAffinity>
-5.30911827

$$$$

 OpenBabel03252505553D

 34 36  0  0  0  0  0  0  0  0999 V2000
   37.1310   28.8370   42.1090 C   0  0  0  0  0  0  0  0  0  0  0  0
   35.9900   28.3450   41.4910 C   0  0  0  0  0  0  0  0  0  0  0  0
   35.3590   29.1220   40.5650 C   0  0  0  0  0  0  0  0  0  0  0  0
   35.7950   30.3430   40.2270 N   0  0  0  0  0  0  0  0  0  0  0  0
   36.9040   30.8090   40.8350 C   0  0  0  0  0  0  0  0  0  0  0  0
   37.5760   30.0810   41.7660 N   0  0  0  0  0  0  0  0  0  0  0  0
   35.7370   27.3680   41.8360 H   0  0  0  0  0  0  0  0  0  0  0  0
   34.4750   28.6700   40.1260 H   0  0  0  0  0  0  0  0  0  0  0  0
   37.3510   32.1790   40.4230 C   0  0  0  0  0  3  0  0  0  0  0  0
   38.7350   32.5110   40.8600 C   0  0  0  0  0  3  0  0  0  0  0  0
   38.6680   33.1020   41.8130 H   0  0  0  0  0  0  0  0  0  0  0  0
   39.3370   33.4160   39.7980 C   0  0  0  0  0  3  0  0  0  0  0  0
   38.5550   34.1550   39.5110 H   0  0  0  0  0  0  0  0  0  0  0  0
   39.6630   32.5890   38.7280 O   0  0  0  0  0  0  0  0  0  0  0  0
   38.5770   31.8730   38.2530 C   0  0  0  0  0  3  0  0  0  0  0  0
   38.6870   30.7810   38.3620 H   0  0  0  0  0  0  0  0  0  0  0  0
   37.2780   32.2750   38.8990 C   0  0  0  0  0  3  0  0  0  0  0  0
   36.5230   31.5110   38.5530 H   0  0  0  0  0  0  0  0  0  0  0  0
   38.0000   28.2360   43.1240 C   0  0  0  0  0  0  0  0  0  0  0  0
   38.3910   29.0340   43.8040 H   0  0  0  0  0  0  0  0  0  0  0  0
   37.4510   27.5290   43.7600 H   0  0  0  0  0  0  0  0  0  0  0  0
   39.0490   27.5800   42.4490 O   0  0  0  0  0  0  0  0  0  0  0  0
   39.2560   25.0080   39.9870 C   0  0  0  0  0  0  0  0  0  0  0  0
   38.5330   23.9590   40.5340 C   0  0  0  0  0  0  0  0  0  0  0  0
   37.9650   24.1690   41.7960 C   0  0  0  0  0  0  0  0  0  0  0  0
   38.1310   25.3420   42.4160 N   0  0  0  0  0  0  0  0  0  0  0  0
   38.8500   26.3390   41.8360 C   0  0  0  0  0  0  0  0  0  0  0  0
   39.4140   26.1860   40.6290 N   0  0  0  0  0  0  0  0  0  0  0  0
   39.6990   24.8650   39.0200 H   0  0  0  0  0  0  0  0  0  0  0  0
   37.4020   23.3450   42.2170 H   0  0  0  0  0  0  0  0  0  0  0  0
   38.4130   22.6940   39.7480 C   0  0  0  0  0  0  0  0  0  0  0  0
   39.5780   22.6050   39.0280 F   0  0  0  0  0  0  0  0  0  0  0  0
   37.3270   22.8860   38.8800 F   0  0  0  0  0  0  0  0  0  0  0  0
   38.2110   21.6580   40.6040 F   0  0  0  0  0  0  0  0  0  0  0  0
  1 19  1  0  0  0  0
  2  7  1  0  0  0  0
  2  1  2  0  0  0  0
  3  2  1  0  0  0  0
  4  3  2  0  0  0  0
  4  5  1  0  0  0  0
  5  6  2  0  0  0  0
  6  1  1  0  0  0  0
  8  3  1  0  0  0  0
  9  5  1  0  0  0  0
  9 10  1  0  0  0  0
 10 11  1  0  0  0  0
 12 10  1  0  0  0  0
 13 12  1  0  0  0  0
 14 12  1  0  0  0  0
 15 16  1  0  0  0  0
 15 14  1  0  0  0  0
 15 17  1  0  0  0  0
 17  9  1  0  0  0  0
 18 17  1  0  0  0  0
 19 21  1  0  0  0  0
 19 20  1  0  0  0  0
 22 19  1  0  0  0  0
 23 24  2  0  0  0  0
 23 28  1  0  0  0  0
 24 25  1  0  0  0  0
 25 30  1  0  0  0  0
 25 26  2  0  0  0  0
 27 26  1  0  0  0  0
 27 22  1  0  0  0  0
 28 27  2  0  0  0  0
 29 23  1  0  0  0  0
 31 24  1  0  0  0  0
 31 34  1  0  0  0  0
 32 31  1  0  0  0  0
 33 31  1  0  0  0  0
M  END
>  <minimizedAffinity>
-5.26676226

$$$$

 OpenBabel03252505553D

 34 36  0  0  0  0  0  0  0  0999 V2000
   36.9380   31.0060   39.7770 C   0  0  0  0  0  0  0  0  0  0  0  0
   36.6580   30.5800   38.4870 C   0  0  0  0  0  0  0  0  0  0  0  0
   37.5010   30.9460   37.4780 C   0  0  0  0  0  0  0  0  0  0  0  0
   38.5890   31.7010   37.6820 N   0  0  0  0  0  0  0  0  0  0  0  0
   38.8480   32.1080   38.9390 C   0  0  0  0  0  0  0  0  0  0  0  0
   38.0460   31.7760   39.9850 N   0  0  0  0  0  0  0  0  0  0  0  0
   35.7730   29.9870   38.4430 H   0  0  0  0  0  0  0  0  0  0  0  0
   37.2170   30.5750   36.4980 H   0  0  0  0  0  0  0  0  0  0  0  0
   40.0760   32.9510   39.1150 C   0  0  0  0  0  3  0  0  0  0  0  0
   40.3770   33.2780   40.5360 C   0  0  0  0  0  3  0  0  0  0  0  0
   39.9600   34.2980   40.7550 H   0  0  0  0  0  0  0  0  0  0  0  0
   41.8880   33.3590   40.6690 C   0  0  0  0  0  3  0  0  0  0  0  0
   42.2690   33.9150   39.7840 H   0  0  0  0  0  0  0  0  0  0  0  0
   42.3440   32.0440   40.6710 O   0  0  0  0  0  0  0  0  0  0  0  0
   41.9540   31.3400   39.5440 C   0  0  0  0  0  3  0  0  0  0  0  0
   41.2930   30.4850   39.7660 H   0  0  0  0  0  0  0  0  0  0  0  0
   41.2680   32.2020   38.5190 C   0  0  0  0  0  3  0  0  0  0  0  0
   40.8590   31.4840   37.7500 H   0  0  0  0  0  0  0  0  0  0  0  0
   36.2250   30.7720   41.0340 C   0  0  0  0  0  0  0  0  0  0  0  0
   36.9070   30.9790   41.8980 H   0  0  0  0  0  0  0  0  0  0  0  0
   35.3700   31.4530   41.1470 H   0  0  0  0  0  0  0  0  0  0  0  0
   35.7910   29.4320   41.0330 O   0  0  0  0  0  0  0  0  0  0  0  0
   37.4780   26.2920   41.1200 C   0  0  0  0  0  0  0  0  0  0  0  0
   38.1920   26.3250   42.3090 C   0  0  0  0  0  0  0  0  0  0  0  0
   38.0720   27.4810   43.0890 C   0  0  0  0  0  0  0  0  0  0  0  0
   37.2940   28.4870   42.6760 N   0  0  0  0  0  0  0  0  0  0  0  0
   36.6140   28.4040   41.5020 C   0  0  0  0  0  0  0  0  0  0  0  0
   36.6970   27.3180   40.7190 N   0  0  0  0  0  0  0  0  0  0  0  0
   37.5580   25.4120   40.5090 H   0  0  0  0  0  0  0  0  0  0  0  0
   38.6330   27.5010   44.0160 H   0  0  0  0  0  0  0  0  0  0  0  0
   39.0290   25.1410   42.6680 C   0  0  0  0  0  0  0  0  0  0  0  0
   39.6170   25.4660   43.8660 F   0  0  0  0  0  0  0  0  0  0  0  0
   40.0060   25.0460   41.6650 F   0  0  0  0  0  0  0  0  0  0  0  0
   38.2380   24.0380   42.7220 F   0  0  0  0  0  0  0  0  0  0  0  0
  1  6  1  0  0  0  0
  1 19  1  0  0  0  0
  2  1  2  0  0  0  0
  3  4  2  0  0  0  0
  3  2  1  0  0  0  0
  4  5  1  0  0  0  0
  5  9  1  0  0  0  0
  5  6  2  0  0  0  0
  7  2  1  0  0  0  0
  8  3  1  0  0  0  0
  9 10  1  0  0  0  0
 10 12  1  0  0  0  0
 10 11  1  0  0  0  0
 12 14  1  0  0  0  0
 13 12  1  0  0  0  0
 15 16  1  0  0  0  0
 15 14  1  0  0  0  0
 17  9  1  0  0  0  0
 17 15  1  0  0  0  0
 18 17  1  0  0  0  0
 19 21  1  0  0  0  0
 19 20  1  0  0  0  0
 22 19  1  0  0  0  0
 22 27  1  0  0  0  0
 23 24  1  0  0  0  0
 24 31  1  0  0  0  0
 24 25  2  0  0  0  0
 25 30  1  0  0  0  0
 26 25  1  0  0  0  0
 27 26  2  0  0  0  0
 28 23  2  0  0  0  0
 28 27  1  0  0  0  0
 29 23  1  0  0  0  0
 31 34  1  0  0  0  0
 31 32  1  0  0  0  0
 33 31  1  0  0  0  0
M  END
>  <minimizedAffinity>
-5.21235228

$$$$
