
 OpenBabel03252509053D

 49 51  0  0  1  0  0  0  0  0999 V2000
   46.6310   34.3740   43.7240 N   0  0  0  0  0  0  0  0  0  0  0  0
   46.2440   35.0940   42.5730 C   0  0  0  0  0  0  0  0  0  0  0  0
   44.7470   35.2310   42.3740 C   0  0  0  0  0  0  0  0  0  0  0  0
   43.9650   35.3220   43.6550 C   0  0  0  0  0  0  0  0  0  0  0  0
   44.8690   35.3560   44.8650 C   0  0  0  0  0  0  0  0  0  0  0  0
   45.7290   34.0420   44.7150 C   0  0  2  0  0  0  0  0  0  0  0  0
   46.6420   34.7480   41.6120 H   0  0  0  0  0  0  0  0  0  0  0  0
   46.6320   36.1430   42.6900 H   0  0  0  0  0  0  0  0  0  0  0  0
   44.4100   34.3980   41.7270 H   0  0  0  0  0  0  0  0  0  0  0  0
   44.5550   36.1700   41.8070 H   0  0  0  0  0  0  0  0  0  0  0  0
   43.3070   36.2230   43.6880 H   0  0  0  0  0  0  0  0  0  0  0  0
   43.2990   34.4570   43.7710 H   0  0  0  0  0  0  0  0  0  0  0  0
   44.2610   35.2210   45.7650 H   0  0  0  0  0  0  0  0  0  0  0  0
   45.5490   36.2310   44.8880 H   0  0  0  0  0  0  0  0  0  0  0  0
   44.9680   33.2660   44.4980 H   0  0  0  0  0  0  0  0  0  0  0  0
   47.7660   33.5150   43.5200 C   0  0  0  0  0  0  0  0  0  0  0  0
   48.1230   33.1720   44.5160 H   0  0  0  0  0  0  0  0  0  0  0  0
   48.5400   34.1130   43.0060 H   0  0  0  0  0  0  0  0  0  0  0  0
   47.3560   32.3340   42.7260 C   0  0  0  0  0  0  0  0  0  0  0  0
   47.2530   31.3990   43.3060 H   0  0  0  0  0  0  0  0  0  0  0  0
   46.3470   32.4900   42.2570 H   0  0  0  0  0  0  0  0  0  0  0  0
   50.3030   31.1900   40.6990 C   0  0  0  0  0  0  0  0  0  0  0  0
   49.4090   31.3890   41.7670 C   0  0  0  0  0  0  0  0  0  0  0  0
   48.2830   32.1400   41.5850 C   0  0  0  0  0  0  0  0  0  0  0  0
   48.0800   32.6610   40.3720 N   0  0  0  0  0  0  0  0  0  0  0  0
   48.9150   32.4830   39.3450 C   0  0  0  0  0  0  0  0  0  0  0  0
   50.0340   31.7510   39.4870 N   0  0  0  0  0  0  0  0  0  0  0  0
   51.2080   30.5910   40.8330 H   0  0  0  0  0  0  0  0  0  0  0  0
   49.6610   30.9240   42.7180 H   0  0  0  0  0  0  0  0  0  0  0  0
   48.5990   32.9790   38.4220 H   0  0  0  0  0  0  0  0  0  0  0  0
   46.3220   33.9430   45.9540 O   0  0  0  0  0  0  0  0  0  0  0  0
   45.6310   31.4000   45.6690 O   0  0  0  0  0  0  0  0  0  0  0  0
   46.0480   32.4510   46.6960 P   0  0  2  0  0  0  0  0  0  0  0  0
   44.7040   32.6760   47.7120 O   0  0  0  0  0  0  0  0  0  0  0  0
   44.8550   32.3400   48.6270 H   0  0  0  0  0  0  0  0  0  0  0  0
   47.3450   31.9620   47.6310 O   0  0  0  0  0  0  0  0  0  0  0  0
   47.6960   30.6710   47.2300 C   0  0  0  0  0  0  0  0  0  0  0  0
   46.8230   30.0060   47.4600 H   0  0  0  0  0  0  0  0  0  0  0  0
   47.9580   30.6230   46.1710 H   0  0  0  0  0  0  0  0  0  0  0  0
   48.8400   30.2490   48.1280 C   0  0  0  0  0  3  0  0  0  0  0  0
   49.0300   28.7510   48.1710 C   0  0  0  0  0  3  0  0  0  0  0  0
   48.1790   28.2890   48.7120 H   0  0  0  0  0  0  0  0  0  0  0  0
   50.2660   28.5300   49.0480 C   0  0  0  0  0  3  0  0  0  0  0  0
   50.4860   27.4510   49.1840 H   0  0  0  0  0  0  0  0  0  0  0  0
   50.0470   29.0560   50.3000 O   0  0  0  0  0  0  0  0  0  0  0  0
   49.8370   30.4170   50.3370 C   0  0  0  0  0  3  0  0  0  0  0  0
   49.6730   30.6890   51.3950 H   0  0  0  0  0  0  0  0  0  0  0  0
   48.6020   30.7780   49.5210 C   0  0  0  0  0  3  0  0  0  0  0  0
   47.7310   30.2420   49.9390 H   0  0  0  0  0  0  0  0  0  0  0  0
  1  6  1  0  0  0  0
  2  8  1  0  0  0  0
  2  1  1  0  0  0  0
  3  2  1  0  0  0  0
  3  4  1  0  0  0  0
  4 11  1  0  0  0  0
  4 12  1  0  0  0  0
  4  5  1  0  0  0  0
  5 14  1  0  0  0  0
  5 13  1  0  0  0  0
  6 15  1  6  0  0  0
  6  5  1  0  0  0  0
  6 31  1  0  0  0  0
  7  2  1  0  0  0  0
  9  3  1  0  0  0  0
 10  3  1  0  0  0  0
 16  1  1  0  0  0  0
 16 17  1  0  0  0  0
 18 16  1  0  0  0  0
 19 20  1  0  0  0  0
 19 16  1  0  0  0  0
 21 19  1  0  0  0  0
 22 28  1  0  0  0  0
 22 23  1  0  0  0  0
 23 29  1  0  0  0  0
 24 23  2  0  0  0  0
 24 19  1  0  0  0  0
 25 24  1  0  0  0  0
 26 27  1  0  0  0  0
 26 25  2  0  0  0  0
 27 22  2  0  0  0  0
 30 26  1  0  0  0  0
 31 33  1  0  0  0  0
 33 32  2  6  0  0  0
 33 36  1  0  0  0  0
 33 34  1  0  0  0  0
 34 35  1  0  0  0  0
 37 38  1  0  0  0  0
 37 36  1  0  0  0  0
 37 40  1  0  0  0  0
 39 37  1  0  0  0  0
 40 41  1  0  0  0  0
 40 48  1  0  0  0  0
 41 42  1  0  0  0  0
 41 43  1  0  0  0  0
 43 44  1  0  0  0  0
 43 45  1  0  0  0  0
 45 46  1  0  0  0  0
 46 47  1  0  0  0  0
 48 49  1  0  0  0  0
 48 46  1  0  0  0  0
M  END
>  <minimizedAffinity>
-4.86357117

>  <minimizedRMSD>
2.4008112

$$$$
