
 OpenBabel03252506573D

 39 43  0  0  0  0  0  0  0  0999 V2000
   47.1970   31.3340   45.1330 C   0  0  0  0  0  0  0  0  0  0  0  0
   46.8770   32.6790   45.1180 C   0  0  0  0  0  0  0  0  0  0  0  0
   46.2840   33.3300   46.1940 C   0  0  0  0  0  0  0  0  0  0  0  0
   45.9900   32.6260   47.3520 C   0  0  0  0  0  0  0  0  0  0  0  0
   45.4360   32.9130   48.5560 N   0  0  0  0  0  0  0  0  0  0  0  0
   45.4120   31.7780   49.3010 C   0  0  0  0  0  0  0  0  0  0  0  0
   45.9550   30.7920   48.5470 N   0  0  0  0  0  0  0  0  0  0  0  0
   46.3200   31.2810   47.3440 C   0  0  0  0  0  0  0  0  0  0  0  0
   46.9040   30.6140   46.2950 C   0  0  0  0  0  0  0  0  0  0  0  0
   47.6560   30.8430   44.2870 H   0  0  0  0  0  0  0  0  0  0  0  0
   46.0320   34.3800   46.1860 H   0  0  0  0  0  0  0  0  0  0  0  0
   45.0920   33.8710   48.8310 H   0  0  0  0  0  0  0  0  0  0  0  0
   45.0300   31.6730   50.3120 H   0  0  0  0  0  0  0  0  0  0  0  0
   46.5860   35.1490   42.4020 C   0  0  0  0  0  0  0  0  0  0  0  0
   47.7480   34.9330   41.6700 C   0  0  0  0  0  0  0  0  0  0  0  0
   48.6360   33.9330   42.1110 C   0  0  0  0  0  0  0  0  0  0  0  0
   48.3130   33.2270   43.2350 N   0  0  0  0  0  0  0  0  0  0  0  0
   47.1650   33.4690   43.9230 C   0  0  0  0  0  0  0  0  0  0  0  0
   46.3130   34.4180   43.5140 N   0  0  0  0  0  0  0  0  0  0  0  0
   45.9220   35.9210   42.0450 H   0  0  0  0  0  0  0  0  0  0  0  0
   47.9400   35.5310   40.7900 H   0  0  0  0  0  0  0  0  0  0  0  0
   49.5390   33.7450   41.5680 H   0  0  0  0  0  0  0  0  0  0  0  0
   47.2100   29.1830   46.4000 C   0  0  0  0  0  0  0  0  0  0  0  0
   48.5020   28.6630   46.3190 C   0  0  0  0  0  0  0  0  0  0  0  0
   48.2950   27.2850   46.4710 C   0  0  0  0  0  0  0  0  0  0  0  0
   46.9290   27.0590   46.6310 C   0  0  0  0  0  0  0  0  0  0  0  0
   46.3320   28.2430   46.5780 O   0  0  0  0  0  0  0  0  0  0  0  0
   49.4540   29.1390   46.1770 H   0  0  0  0  0  0  0  0  0  0  0  0
   49.0360   26.4850   46.4720 H   0  0  0  0  0  0  0  0  0  0  0  0
   46.2010   25.7950   46.8250 C   0  0  0  0  0  3  0  0  0  0  0  0
   44.9270   25.9800   47.5830 C   0  0  0  0  0  3  0  0  0  0  0  0
   44.4480   26.9640   47.4060 H   0  0  0  0  0  0  0  0  0  0  0  0
   43.9950   24.8400   47.1590 C   0  0  0  0  0  3  0  0  0  0  0  0
   43.6040   25.0050   46.1310 H   0  0  0  0  0  0  0  0  0  0  0  0
   44.8100   23.7080   47.0860 O   0  0  0  0  0  0  0  0  0  0  0  0
   45.4750   23.7070   45.8420 C   0  0  0  0  0  3  0  0  0  0  0  0
   46.3680   23.0480   45.9070 H   0  0  0  0  0  0  0  0  0  0  0  0
   45.8510   25.1320   45.5000 C   0  0  0  0  0  3  0  0  0  0  0  0
   46.8140   25.0720   44.9220 H   0  0  0  0  0  0  0  0  0  0  0  0
  1  9  1  0  0  0  0
  2  1  2  0  0  0  0
  2  3  1  0  0  0  0
  3  4  2  0  0  0  0
  4  5  1  0  0  0  0
  5 12  1  0  0  0  0
  5  6  1  0  0  0  0
  6 13  1  0  0  0  0
  7  6  2  0  0  0  0
  8  4  1  0  0  0  0
  8  7  1  0  0  0  0
  9 23  1  0  0  0  0
  9  8  2  0  0  0  0
 10  1  1  0  0  0  0
 11  3  1  0  0  0  0
 14 19  1  0  0  0  0
 15 16  1  0  0  0  0
 15 14  2  0  0  0  0
 16 17  2  0  0  0  0
 17 18  1  0  0  0  0
 18  2  1  0  0  0  0
 19 18  2  0  0  0  0
 20 14  1  0  0  0  0
 21 15  1  0  0  0  0
 22 16  1  0  0  0  0
 23 27  1  0  0  0  0
 24 23  2  0  0  0  0
 24 25  1  0  0  0  0
 25 29  1  0  0  0  0
 25 26  2  0  0  0  0
 26 30  1  0  0  0  0
 27 26  1  0  0  0  0
 28 24  1  0  0  0  0
 30 31  1  0  0  0  0
 32 31  1  0  0  0  0
 33 31  1  0  0  0  0
 34 33  1  0  0  0  0
 35 33  1  0  0  0  0
 36 37  1  0  0  0  0
 36 35  1  0  0  0  0
 38 36  1  0  0  0  0
 38 30  1  0  0  0  0
 39 38  1  0  0  0  0
M  END
>  <minimizedAffinity>
-5.56472588

>  <minimizedRMSD>
0.499366671

$$$$
