
 OpenBabel03242513503D

 32 34  0  0  1  0  0  0  0  0999 V2000
   37.1710   28.3180   41.4180 C   0  0  2  0  0  0  0  0  0  0  0  0
   36.5820   27.5910   42.5870 C   0  0  0  0  0  0  0  0  0  0  0  0
   37.5980   27.9070   43.6640 C   0  0  0  0  0  0  0  0  0  0  0  0
   38.1560   29.2760   43.2940 C   0  0  0  0  0  0  0  0  0  0  0  0
   37.3860   29.6880   42.0700 C   0  0  1  0  0  0  0  0  0  0  0  0
   38.1350   27.8970   41.1440 H   0  0  0  0  0  0  0  0  0  0  0  0
   36.6510   26.5090   42.3550 H   0  0  0  0  0  0  0  0  0  0  0  0
   35.5710   27.9020   42.8450 H   0  0  0  0  0  0  0  0  0  0  0  0
   38.3830   27.1240   43.7110 H   0  0  0  0  0  0  0  0  0  0  0  0
   37.0090   27.9700   44.6110 H   0  0  0  0  0  0  0  0  0  0  0  0
   37.8950   29.9810   44.1100 H   0  0  0  0  0  0  0  0  0  0  0  0
   39.2260   29.1440   43.1660 H   0  0  0  0  0  0  0  0  0  0  0  0
   36.4100   30.0860   42.3870 H   0  0  0  0  0  0  0  0  0  0  0  0
   38.1290   30.5550   41.1230 C   0  0  0  0  0  3  0  0  0  0  0  0
   37.2690   31.7650   40.7690 C   0  0  0  0  0  3  0  0  0  0  0  0
   36.4230   31.4450   40.1260 H   0  0  0  0  0  0  0  0  0  0  0  0
   38.0670   32.7800   39.9830 C   0  0  0  0  0  3  0  0  0  0  0  0
   37.4690   33.7160   39.9700 H   0  0  0  0  0  0  0  0  0  0  0  0
   39.2830   33.1000   40.5380 O   0  0  0  0  0  0  0  0  0  0  0  0
   40.0730   31.9530   40.5680 C   0  0  0  0  0  3  0  0  0  0  0  0
   41.0930   32.2270   40.9350 H   0  0  0  0  0  0  0  0  0  0  0  0
   39.4780   31.0120   41.6010 C   0  0  0  0  0  3  0  0  0  0  0  0
   39.3650   31.6200   42.5180 H   0  0  0  0  0  0  0  0  0  0  0  0
   34.2520   29.0160   39.1220 C   0  0  0  0  0  0  0  0  0  0  0  0
   35.0140   28.9660   40.2840 C   0  0  0  0  0  0  0  0  0  0  0  0
   36.2860   28.4100   40.2440 C   0  0  0  0  0  0  0  0  0  0  0  0
   36.7310   27.9290   39.0280 N   0  0  0  0  0  0  0  0  0  0  0  0
   35.9620   27.9960   37.9280 C   0  0  0  0  0  0  0  0  0  0  0  0
   34.7350   28.5320   37.9670 N   0  0  0  0  0  0  0  0  0  0  0  0
   33.2670   29.4580   39.1990 H   0  0  0  0  0  0  0  0  0  0  0  0
   34.6260   29.3530   41.1960 H   0  0  0  0  0  0  0  0  0  0  0  0
   36.4110   27.5880   37.0330 H   0  0  0  0  0  0  0  0  0  0  0  0
  1  6  1  6  0  0  0
  1  5  1  0  0  0  0
  1  2  1  0  0  0  0
  2  8  1  0  0  0  0
  2  3  1  0  0  0  0
  3  9  1  0  0  0  0
  3 10  1  0  0  0  0
  4  3  1  0  0  0  0
  4 11  1  0  0  0  0
  5 13  1  1  0  0  0
  5  4  1  0  0  0  0
  7  2  1  0  0  0  0
 12  4  1  0  0  0  0
 14 22  1  0  0  0  0
 14  5  1  0  0  0  0
 15 14  1  0  0  0  0
 16 15  1  0  0  0  0
 17 19  1  0  0  0  0
 17 15  1  0  0  0  0
 18 17  1  0  0  0  0
 19 20  1  0  0  0  0
 20 21  1  0  0  0  0
 20 22  1  0  0  0  0
 22 23  1  0  0  0  0
 24 30  1  0  0  0  0
 24 25  1  0  0  0  0
 25 31  1  0  0  0  0
 26 25  2  0  0  0  0
 26  1  1  0  0  0  0
 27 26  1  0  0  0  0
 28 29  1  0  0  0  0
 28 27  2  0  0  0  0
 29 24  2  0  0  0  0
 32 28  1  0  0  0  0
M  END
>  <minimizedAffinity>
-4.73455477

$$$$

 OpenBabel03242513503D

 32 34  0  0  1  0  0  0  0  0999 V2000
   37.5680   28.6790   41.3160 C   0  0  2  0  0  0  0  0  0  0  0  0
   36.2400   28.2920   41.8900 C   0  0  0  0  0  0  0  0  0  0  0  0
   36.6720   27.4310   43.0590 C   0  0  0  0  0  0  0  0  0  0  0  0
   38.0160   27.9990   43.4940 C   0  0  0  0  0  0  0  0  0  0  0  0
   38.2450   29.1820   42.5950 C   0  0  1  0  0  0  0  0  0  0  0  0
   38.1020   27.8060   40.9480 H   0  0  0  0  0  0  0  0  0  0  0  0
   35.7500   27.6360   41.1420 H   0  0  0  0  0  0  0  0  0  0  0  0
   35.6160   29.1340   42.1840 H   0  0  0  0  0  0  0  0  0  0  0  0
   36.7330   26.3640   42.7650 H   0  0  0  0  0  0  0  0  0  0  0  0
   35.9010   27.6060   43.8490 H   0  0  0  0  0  0  0  0  0  0  0  0
   37.9060   28.3790   44.5310 H   0  0  0  0  0  0  0  0  0  0  0  0
   38.7320   27.1860   43.4090 H   0  0  0  0  0  0  0  0  0  0  0  0
   37.6710   30.0360   42.9870 H   0  0  0  0  0  0  0  0  0  0  0  0
   39.6670   29.4790   42.2960 C   0  0  0  0  0  3  0  0  0  0  0  0
   39.9950   30.8930   42.7660 C   0  0  0  0  0  3  0  0  0  0  0  0
   39.4930   31.6310   42.1060 H   0  0  0  0  0  0  0  0  0  0  0  0
   41.4810   31.1570   42.6810 C   0  0  0  0  0  3  0  0  0  0  0  0
   41.6740   32.0900   43.2510 H   0  0  0  0  0  0  0  0  0  0  0  0
   42.2650   30.1820   43.2490 O   0  0  0  0  0  0  0  0  0  0  0  0
   42.0620   28.9900   42.5580 C   0  0  0  0  0  3  0  0  0  0  0  0
   42.7630   28.2160   42.9590 H   0  0  0  0  0  0  0  0  0  0  0  0
   40.6570   28.5080   42.8760 C   0  0  0  0  0  3  0  0  0  0  0  0
   40.5880   28.5170   43.9800 H   0  0  0  0  0  0  0  0  0  0  0  0
   36.9310   31.9100   39.4630 C   0  0  0  0  0  0  0  0  0  0  0  0
   36.9360   30.9770   40.4950 C   0  0  0  0  0  0  0  0  0  0  0  0
   37.5080   29.7290   40.2850 C   0  0  0  0  0  0  0  0  0  0  0  0
   38.0490   29.4800   39.0400 N   0  0  0  0  0  0  0  0  0  0  0  0
   38.0230   30.4090   38.0690 C   0  0  0  0  0  0  0  0  0  0  0  0
   37.4720   31.6120   38.2710 N   0  0  0  0  0  0  0  0  0  0  0  0
   36.4750   32.8690   39.6710 H   0  0  0  0  0  0  0  0  0  0  0  0
   36.5070   31.2200   41.4380 H   0  0  0  0  0  0  0  0  0  0  0  0
   38.4750   30.1040   37.1350 H   0  0  0  0  0  0  0  0  0  0  0  0
  1  6  1  6  0  0  0
  1  2  1  0  0  0  0
  1  5  1  0  0  0  0
  2  8  1  0  0  0  0
  2  3  1  0  0  0  0
  3  4  1  0  0  0  0
  3 10  1  0  0  0  0
  4 11  1  0  0  0  0
  5 13  1  1  0  0  0
  5  4  1  0  0  0  0
  7  2  1  0  0  0  0
  9  3  1  0  0  0  0
 12  4  1  0  0  0  0
 14  5  1  0  0  0  0
 14 15  1  0  0  0  0
 14 22  1  0  0  0  0
 16 15  1  0  0  0  0
 17 15  1  0  0  0  0
 17 19  1  0  0  0  0
 17 18  1  0  0  0  0
 20 22  1  0  0  0  0
 20 21  1  0  0  0  0
 20 19  1  0  0  0  0
 22 23  1  0  0  0  0
 24 30  1  0  0  0  0
 24 25  1  0  0  0  0
 25 31  1  0  0  0  0
 26 25  2  0  0  0  0
 26  1  1  0  0  0  0
 27 26  1  0  0  0  0
 28 29  1  0  0  0  0
 28 27  2  0  0  0  0
 29 24  2  0  0  0  0
 32 28  1  0  0  0  0
M  END
>  <minimizedAffinity>
-4.71975803

$$$$

 OpenBabel03242513503D

 32 34  0  0  1  0  0  0  0  0999 V2000
   37.2270   29.7410   41.7580 C   0  0  2  0  0  0  0  0  0  0  0  0
   37.9260   29.2920   43.0030 C   0  0  0  0  0  0  0  0  0  0  0  0
   37.1640   28.0220   43.3190 C   0  0  0  0  0  0  0  0  0  0  0  0
   36.7170   27.4820   41.9660 C   0  0  0  0  0  0  0  0  0  0  0  0
   37.2970   28.4350   40.9590 C   0  0  1  0  0  0  0  0  0  0  0  0
   36.1860   29.9810   41.9610 H   0  0  0  0  0  0  0  0  0  0  0  0
   37.6870   30.0390   43.7880 H   0  0  0  0  0  0  0  0  0  0  0  0
   38.9960   29.1340   42.8850 H   0  0  0  0  0  0  0  0  0  0  0  0
   36.3140   28.2270   44.0000 H   0  0  0  0  0  0  0  0  0  0  0  0
   37.9170   27.3380   43.7800 H   0  0  0  0  0  0  0  0  0  0  0  0
   37.2020   26.4950   41.8160 H   0  0  0  0  0  0  0  0  0  0  0  0
   35.6330   27.4260   42.0050 H   0  0  0  0  0  0  0  0  0  0  0  0
   38.3540   28.1750   40.7990 H   0  0  0  0  0  0  0  0  0  0  0  0
   36.5050   28.5940   39.7150 C   0  0  0  0  0  3  0  0  0  0  0  0
   36.6310   27.3280   38.8730 C   0  0  0  0  0  3  0  0  0  0  0  0
   37.6550   27.2620   38.4510 H   0  0  0  0  0  0  0  0  0  0  0  0
   35.6700   27.3600   37.7060 C   0  0  0  0  0  3  0  0  0  0  0  0
   35.6410   26.3320   37.2880 H   0  0  0  0  0  0  0  0  0  0  0  0
   34.3770   27.6830   38.0440 O   0  0  0  0  0  0  0  0  0  0  0  0
   34.3640   28.9730   38.5680 C   0  0  0  0  0  3  0  0  0  0  0  0
   33.3040   29.2740   38.7610 H   0  0  0  0  0  0  0  0  0  0  0  0
   35.0540   28.9270   39.9210 C   0  0  0  0  0  3  0  0  0  0  0  0
   34.5570   28.1080   40.4740 H   0  0  0  0  0  0  0  0  0  0  0  0
   39.7900   31.9610   40.0910 C   0  0  0  0  0  0  0  0  0  0  0  0
   39.2520   30.8760   40.7730 C   0  0  0  0  0  0  0  0  0  0  0  0
   37.8900   30.8470   41.0460 C   0  0  0  0  0  0  0  0  0  0  0  0
   37.1330   31.9190   40.6160 N   0  0  0  0  0  0  0  0  0  0  0  0
   37.6930   32.9490   39.9590 C   0  0  0  0  0  0  0  0  0  0  0  0
   39.0050   32.9760   39.6960 N   0  0  0  0  0  0  0  0  0  0  0  0
   40.8550   31.9410   39.8990 H   0  0  0  0  0  0  0  0  0  0  0  0
   39.8780   30.0730   41.0830 H   0  0  0  0  0  0  0  0  0  0  0  0
   37.0060   33.7330   39.6700 H   0  0  0  0  0  0  0  0  0  0  0  0
  1  6  1  1  0  0  0
  1  2  1  0  0  0  0
  2  3  1  0  0  0  0
  2  7  1  0  0  0  0
  3 10  1  0  0  0  0
  3  9  1  0  0  0  0
  4 12  1  0  0  0  0
  4  3  1  0  0  0  0
  5 13  1  6  0  0  0
  5  1  1  0  0  0  0
  5  4  1  0  0  0  0
  8  2  1  0  0  0  0
 11  4  1  0  0  0  0
 14 22  1  0  0  0  0
 14  5  1  0  0  0  0
 15 14  1  0  0  0  0
 16 15  1  0  0  0  0
 17 19  1  0  0  0  0
 17 15  1  0  0  0  0
 18 17  1  0  0  0  0
 19 20  1  0  0  0  0
 20 21  1  0  0  0  0
 20 22  1  0  0  0  0
 22 23  1  0  0  0  0
 24 25  1  0  0  0  0
 25 26  2  0  0  0  0
 25 31  1  0  0  0  0
 26  1  1  0  0  0  0
 27 26  1  0  0  0  0
 28 27  2  0  0  0  0
 29 28  1  0  0  0  0
 29 24  2  0  0  0  0
 30 24  1  0  0  0  0
 32 28  1  0  0  0  0
M  END
>  <minimizedAffinity>
-4.60171795

$$$$

 OpenBabel03242513503D

 32 34  0  0  1  0  0  0  0  0999 V2000
   38.2810   28.9990   42.8310 C   0  0  2  0  0  0  0  0  0  0  0  0
   37.9830   27.7980   43.6740 C   0  0  0  0  0  0  0  0  0  0  0  0
   36.5410   27.5310   43.2950 C   0  0  0  0  0  0  0  0  0  0  0  0
   36.4130   28.0150   41.8570 C   0  0  0  0  0  0  0  0  0  0  0  0
   37.7950   28.4700   41.4780 C   0  0  1  0  0  0  0  0  0  0  0  0
   37.6640   29.8440   43.1270 H   0  0  0  0  0  0  0  0  0  0  0  0
   38.0040   28.1380   44.7290 H   0  0  0  0  0  0  0  0  0  0  0  0
   38.6400   26.9490   43.4920 H   0  0  0  0  0  0  0  0  0  0  0  0
   35.8470   28.0520   43.9850 H   0  0  0  0  0  0  0  0  0  0  0  0
   36.4280   26.4210   43.3440 H   0  0  0  0  0  0  0  0  0  0  0  0
   36.1600   27.1390   41.2240 H   0  0  0  0  0  0  0  0  0  0  0  0
   35.6400   28.7790   41.8600 H   0  0  0  0  0  0  0  0  0  0  0  0
   38.3930   27.5860   41.2080 H   0  0  0  0  0  0  0  0  0  0  0  0
   37.8440   29.5740   40.4880 C   0  0  0  0  0  3  0  0  0  0  0  0
   37.8270   28.9890   39.0800 C   0  0  0  0  0  3  0  0  0  0  0  0
   38.7970   28.4900   38.8720 H   0  0  0  0  0  0  0  0  0  0  0  0
   37.6570   30.0790   38.0460 C   0  0  0  0  0  3  0  0  0  0  0  0
   37.4140   29.5740   37.0870 H   0  0  0  0  0  0  0  0  0  0  0  0
   36.6250   30.9480   38.3030 O   0  0  0  0  0  0  0  0  0  0  0  0
   36.8900   31.6120   39.4990 C   0  0  0  0  0  3  0  0  0  0  0  0
   36.0990   32.3840   39.6670 H   0  0  0  0  0  0  0  0  0  0  0  0
   36.7560   30.6020   40.6250 C   0  0  0  0  0  3  0  0  0  0  0  0
   35.7690   30.1250   40.4740 H   0  0  0  0  0  0  0  0  0  0  0  0
   42.0550   28.9100   42.6790 C   0  0  0  0  0  0  0  0  0  0  0  0
   40.7410   28.4580   42.7260 C   0  0  0  0  0  0  0  0  0  0  0  0
   39.7030   29.3790   42.7850 C   0  0  0  0  0  0  0  0  0  0  0  0
   40.0410   30.7180   42.7940 N   0  0  0  0  0  0  0  0  0  0  0  0
   41.3250   31.1130   42.7480 C   0  0  0  0  0  0  0  0  0  0  0  0
   42.3260   30.2250   42.6910 N   0  0  0  0  0  0  0  0  0  0  0  0
   42.8320   28.1580   42.6340 H   0  0  0  0  0  0  0  0  0  0  0  0
   40.5330   27.4150   42.7150 H   0  0  0  0  0  0  0  0  0  0  0  0
   41.4730   32.1850   42.7610 H   0  0  0  0  0  0  0  0  0  0  0  0
  1  6  1  1  0  0  0
  1  2  1  0  0  0  0
  2  7  1  0  0  0  0
  3 10  1  0  0  0  0
  3  2  1  0  0  0  0
  3  9  1  0  0  0  0
  4 12  1  0  0  0  0
  4  3  1  0  0  0  0
  5 13  1  6  0  0  0
  5  4  1  0  0  0  0
  5  1  1  0  0  0  0
  8  2  1  0  0  0  0
 11  4  1  0  0  0  0
 14 22  1  0  0  0  0
 14  5  1  0  0  0  0
 15 14  1  0  0  0  0
 16 15  1  0  0  0  0
 17 19  1  0  0  0  0
 17 15  1  0  0  0  0
 18 17  1  0  0  0  0
 19 20  1  0  0  0  0
 20 21  1  0  0  0  0
 20 22  1  0  0  0  0
 23 22  1  0  0  0  0
 24 29  2  0  0  0  0
 24 25  1  0  0  0  0
 25 26  2  0  0  0  0
 26 27  1  0  0  0  0
 26  1  1  0  0  0  0
 28 32  1  0  0  0  0
 28 27  2  0  0  0  0
 29 28  1  0  0  0  0
 30 24  1  0  0  0  0
 31 25  1  0  0  0  0
M  END
>  <minimizedAffinity>
-4.57864523

$$$$

 OpenBabel03242513503D

 32 34  0  0  1  0  0  0  0  0999 V2000
   38.9840   25.7590   41.7070 C   0  0  2  0  0  0  0  0  0  0  0  0
   39.4930   24.8690   42.7980 C   0  0  0  0  0  0  0  0  0  0  0  0
   40.2060   25.8720   43.6800 C   0  0  0  0  0  0  0  0  0  0  0  0
   39.4430   27.1770   43.4920 C   0  0  0  0  0  0  0  0  0  0  0  0
   38.3080   26.8310   42.5690 C   0  0  1  0  0  0  0  0  0  0  0  0
   39.8060   26.2090   41.1560 H   0  0  0  0  0  0  0  0  0  0  0  0
   40.2580   24.2100   42.3390 H   0  0  0  0  0  0  0  0  0  0  0  0
   38.7170   24.3120   43.3210 H   0  0  0  0  0  0  0  0  0  0  0  0
   41.2750   25.9580   43.3990 H   0  0  0  0  0  0  0  0  0  0  0  0
   40.0740   25.4910   44.7210 H   0  0  0  0  0  0  0  0  0  0  0  0
   39.0060   27.4610   44.4720 H   0  0  0  0  0  0  0  0  0  0  0  0
   40.1630   27.9000   43.1180 H   0  0  0  0  0  0  0  0  0  0  0  0
   37.5080   26.3590   43.1580 H   0  0  0  0  0  0  0  0  0  0  0  0
   37.8560   27.9360   41.6870 C   0  0  0  0  0  3  0  0  0  0  0  0
   36.3360   28.0430   41.7550 C   0  0  0  0  0  3  0  0  0  0  0  0
   35.8780   27.1740   41.2390 H   0  0  0  0  0  0  0  0  0  0  0  0
   35.8520   29.2880   41.0470 C   0  0  0  0  0  3  0  0  0  0  0  0
   34.7900   29.4290   41.3360 H   0  0  0  0  0  0  0  0  0  0  0  0
   36.5120   30.4390   41.4060 O   0  0  0  0  0  0  0  0  0  0  0  0
   37.8540   30.3110   41.0540 C   0  0  0  0  0  3  0  0  0  0  0  0
   38.3760   31.2780   41.2620 H   0  0  0  0  0  0  0  0  0  0  0  0
   38.4740   29.2750   41.9750 C   0  0  0  0  0  3  0  0  0  0  0  0
   38.2080   29.5990   42.9990 H   0  0  0  0  0  0  0  0  0  0  0  0
   36.1200   23.7530   40.2750 C   0  0  0  0  0  0  0  0  0  0  0  0
   36.9790   24.3110   41.2150 C   0  0  0  0  0  0  0  0  0  0  0  0
   38.0260   25.1190   40.7900 C   0  0  0  0  0  0  0  0  0  0  0  0
   38.1560   25.3270   39.4310 N   0  0  0  0  0  0  0  0  0  0  0  0
   37.3040   24.7680   38.5550 C   0  0  0  0  0  0  0  0  0  0  0  0
   36.2950   23.9890   38.9650 N   0  0  0  0  0  0  0  0  0  0  0  0
   35.3190   23.1300   40.6510 H   0  0  0  0  0  0  0  0  0  0  0  0
   36.8350   24.1210   42.2520 H   0  0  0  0  0  0  0  0  0  0  0  0
   37.5010   24.9990   37.5160 H   0  0  0  0  0  0  0  0  0  0  0  0
  1  6  1  6  0  0  0
  1  5  1  0  0  0  0
  1  2  1  0  0  0  0
  2  8  1  0  0  0  0
  2  3  1  0  0  0  0
  3 10  1  0  0  0  0
  4  3  1  0  0  0  0
  4 11  1  0  0  0  0
  5 13  1  1  0  0  0
  5  4  1  0  0  0  0
  7  2  1  0  0  0  0
  9  3  1  0  0  0  0
 12  4  1  0  0  0  0
 14 15  1  0  0  0  0
 14 22  1  0  0  0  0
 14  5  1  0  0  0  0
 16 15  1  0  0  0  0
 17 18  1  0  0  0  0
 17 19  1  0  0  0  0
 17 15  1  0  0  0  0
 20 21  1  0  0  0  0
 20 19  1  0  0  0  0
 20 22  1  0  0  0  0
 22 23  1  0  0  0  0
 24 30  1  0  0  0  0
 24 25  1  0  0  0  0
 25 31  1  0  0  0  0
 26 25  2  0  0  0  0
 26  1  1  0  0  0  0
 27 26  1  0  0  0  0
 28 29  1  0  0  0  0
 28 27  2  0  0  0  0
 29 24  2  0  0  0  0
 32 28  1  0  0  0  0
M  END
>  <minimizedAffinity>
-4.57207823

$$$$

 OpenBabel03242513503D

 32 34  0  0  1  0  0  0  0  0999 V2000
   38.8290   27.2930   42.3480 C   0  0  2  0  0  0  0  0  0  0  0  0
   38.7130   27.9960   43.6650 C   0  0  0  0  0  0  0  0  0  0  0  0
   37.2390   28.3430   43.6780 C   0  0  0  0  0  0  0  0  0  0  0  0
   36.5650   27.2370   42.8760 C   0  0  0  0  0  0  0  0  0  0  0  0
   37.6770   26.2950   42.5060 C   0  0  1  0  0  0  0  0  0  0  0  0
   38.6060   27.9690   41.5260 H   0  0  0  0  0  0  0  0  0  0  0  0
   39.2880   28.9390   43.5730 H   0  0  0  0  0  0  0  0  0  0  0  0
   39.0220   27.3970   44.5210 H   0  0  0  0  0  0  0  0  0  0  0  0
   37.0650   29.3500   43.2490 H   0  0  0  0  0  0  0  0  0  0  0  0
   36.9360   28.2840   44.7520 H   0  0  0  0  0  0  0  0  0  0  0  0
   35.8750   26.6950   43.5560 H   0  0  0  0  0  0  0  0  0  0  0  0
   36.0560   27.7270   42.0510 H   0  0  0  0  0  0  0  0  0  0  0  0
   37.8870   25.6450   43.3690 H   0  0  0  0  0  0  0  0  0  0  0  0
   37.4900   25.5750   41.2230 C   0  0  0  0  0  3  0  0  0  0  0  0
   36.6830   24.3050   41.4710 C   0  0  0  0  0  3  0  0  0  0  0  0
   37.3050   23.5710   42.0240 H   0  0  0  0  0  0  0  0  0  0  0  0
   36.2840   23.6570   40.1650 C   0  0  0  0  0  3  0  0  0  0  0  0
   35.5140   22.8940   40.4080 H   0  0  0  0  0  0  0  0  0  0  0  0
   35.7130   24.5150   39.2570 O   0  0  0  0  0  0  0  0  0  0  0  0
   36.6490   25.4880   38.9150 C   0  0  0  0  0  3  0  0  0  0  0  0
   36.2190   26.1350   38.1100 H   0  0  0  0  0  0  0  0  0  0  0  0
   36.8480   26.3800   40.1280 C   0  0  0  0  0  3  0  0  0  0  0  0
   35.8300   26.6860   40.4350 H   0  0  0  0  0  0  0  0  0  0  0  0
   41.8990   25.1290   42.7530 C   0  0  0  0  0  0  0  0  0  0  0  0
   40.6840   25.7360   43.0490 C   0  0  0  0  0  0  0  0  0  0  0  0
   40.1140   26.6070   42.1290 C   0  0  0  0  0  0  0  0  0  0  0  0
   40.7980   26.8240   40.9500 N   0  0  0  0  0  0  0  0  0  0  0  0
   41.9710   26.2160   40.7030 C   0  0  0  0  0  0  0  0  0  0  0  0
   42.5220   25.3770   41.5900 N   0  0  0  0  0  0  0  0  0  0  0  0
   42.3070   24.4580   43.4980 H   0  0  0  0  0  0  0  0  0  0  0  0
   40.1950   25.5340   43.9720 H   0  0  0  0  0  0  0  0  0  0  0  0
   42.4190   26.4600   39.7490 H   0  0  0  0  0  0  0  0  0  0  0  0
  1  6  1  6  0  0  0
  1  5  1  0  0  0  0
  1  2  1  0  0  0  0
  2  3  1  0  0  0  0
  2  8  1  0  0  0  0
  3 10  1  0  0  0  0
  4 11  1  0  0  0  0
  4  3  1  0  0  0  0
  5  4  1  0  0  0  0
  5 13  1  1  0  0  0
  7  2  1  0  0  0  0
  9  3  1  0  0  0  0
 12  4  1  0  0  0  0
 14 15  1  0  0  0  0
 14  5  1  0  0  0  0
 15 16  1  0  0  0  0
 17 18  1  0  0  0  0
 17 15  1  0  0  0  0
 19 17  1  0  0  0  0
 20 19  1  0  0  0  0
 20 22  1  0  0  0  0
 21 20  1  0  0  0  0
 22 23  1  0  0  0  0
 22 14  1  0  0  0  0
 24 25  1  0  0  0  0
 24 30  1  0  0  0  0
 25 31  1  0  0  0  0
 26  1  1  0  0  0  0
 26 25  2  0  0  0  0
 27 26  1  0  0  0  0
 28 27  2  0  0  0  0
 28 29  1  0  0  0  0
 29 24  2  0  0  0  0
 32 28  1  0  0  0  0
M  END
>  <minimizedAffinity>
-4.50008965

$$$$

 OpenBabel03242513503D

 32 34  0  0  1  0  0  0  0  0999 V2000
   36.4730   29.2570   40.2080 C   0  0  2  0  0  0  0  0  0  0  0  0
   35.6880   28.3330   39.3290 C   0  0  0  0  0  0  0  0  0  0  0  0
   35.3150   29.2640   38.1940 C   0  0  0  0  0  0  0  0  0  0  0  0
   36.4550   30.2700   38.1150 C   0  0  0  0  0  0  0  0  0  0  0  0
   37.4380   29.8230   39.1610 C   0  0  1  0  0  0  0  0  0  0  0  0
   35.8450   30.0600   40.5870 H   0  0  0  0  0  0  0  0  0  0  0  0
   34.7620   28.0780   39.8830 H   0  0  0  0  0  0  0  0  0  0  0  0
   36.2380   27.4530   39.0000 H   0  0  0  0  0  0  0  0  0  0  0  0
   34.3330   29.7440   38.3810 H   0  0  0  0  0  0  0  0  0  0  0  0
   35.3010   28.6190   37.2820 H   0  0  0  0  0  0  0  0  0  0  0  0
   36.9420   30.1570   37.1240 H   0  0  0  0  0  0  0  0  0  0  0  0
   36.0090   31.2490   38.2640 H   0  0  0  0  0  0  0  0  0  0  0  0
   38.0370   28.9970   38.7490 H   0  0  0  0  0  0  0  0  0  0  0  0
   38.2330   30.9100   39.7830 C   0  0  0  0  0  3  0  0  0  0  0  0
   39.5000   31.1380   38.9660 C   0  0  0  0  0  3  0  0  0  0  0  0
   40.1910   30.2810   39.1040 H   0  0  0  0  0  0  0  0  0  0  0  0
   40.2280   32.3770   39.4360 C   0  0  0  0  0  3  0  0  0  0  0  0
   40.9880   32.6140   38.6620 H   0  0  0  0  0  0  0  0  0  0  0  0
   39.4330   33.4910   39.5580 O   0  0  0  0  0  0  0  0  0  0  0  0
   38.4650   33.2410   40.5280 C   0  0  0  0  0  3  0  0  0  0  0  0
   37.8710   34.1750   40.6960 H   0  0  0  0  0  0  0  0  0  0  0  0
   37.5020   32.2110   39.9630 C   0  0  0  0  0  3  0  0  0  0  0  0
   37.1960   32.6080   38.9770 H   0  0  0  0  0  0  0  0  0  0  0  0
   38.6000   26.8840   42.2380 C   0  0  0  0  0  0  0  0  0  0  0  0
   37.9480   27.4380   41.1420 C   0  0  0  0  0  0  0  0  0  0  0  0
   37.1950   28.5930   41.3070 C   0  0  0  0  0  0  0  0  0  0  0  0
   37.1350   29.1370   42.5750 N   0  0  0  0  0  0  0  0  0  0  0  0
   37.7810   28.5700   43.6080 C   0  0  0  0  0  0  0  0  0  0  0  0
   38.5070   27.4560   43.4490 N   0  0  0  0  0  0  0  0  0  0  0  0
   39.1760   25.9850   42.0630 H   0  0  0  0  0  0  0  0  0  0  0  0
   38.0270   26.9810   40.1840 H   0  0  0  0  0  0  0  0  0  0  0  0
   37.6630   29.0800   44.5540 H   0  0  0  0  0  0  0  0  0  0  0  0
  1  6  1  1  0  0  0
  1 26  1  0  0  0  0
  2  7  1  0  0  0  0
  2  1  1  0  0  0  0
  3  9  1  0  0  0  0
  3  2  1  0  0  0  0
  4  3  1  0  0  0  0
  4 12  1  0  0  0  0
  4  5  1  0  0  0  0
  5 13  1  6  0  0  0
  5 14  1  0  0  0  0
  5  1  1  0  0  0  0
  8  2  1  0  0  0  0
 10  3  1  0  0  0  0
 11  4  1  0  0  0  0
 14 22  1  0  0  0  0
 15 16  1  0  0  0  0
 15 17  1  0  0  0  0
 15 14  1  0  0  0  0
 17 19  1  0  0  0  0
 18 17  1  0  0  0  0
 19 20  1  0  0  0  0
 20 21  1  0  0  0  0
 22 20  1  0  0  0  0
 23 22  1  0  0  0  0
 24 29  1  0  0  0  0
 25 26  1  0  0  0  0
 25 24  2  0  0  0  0
 26 27  2  0  0  0  0
 27 28  1  0  0  0  0
 28 32  1  0  0  0  0
 29 28  2  0  0  0  0
 30 24  1  0  0  0  0
 31 25  1  0  0  0  0
M  END
>  <minimizedAffinity>
-4.45975351

$$$$

 OpenBabel03242513503D

 32 34  0  0  1  0  0  0  0  0999 V2000
   38.2360   27.4970   41.7480 C   0  0  2  0  0  0  0  0  0  0  0  0
   38.4250   27.7380   43.2130 C   0  0  0  0  0  0  0  0  0  0  0  0
   38.2400   29.2400   43.2840 C   0  0  0  0  0  0  0  0  0  0  0  0
   37.2710   29.5730   42.1560 C   0  0  0  0  0  0  0  0  0  0  0  0
   36.9130   28.2450   41.5500 C   0  0  1  0  0  0  0  0  0  0  0  0
   39.0150   27.9880   41.1690 H   0  0  0  0  0  0  0  0  0  0  0  0
   39.4870   27.5120   43.4380 H   0  0  0  0  0  0  0  0  0  0  0  0
   37.7340   27.1890   43.8510 H   0  0  0  0  0  0  0  0  0  0  0  0
   39.2110   29.7650   43.1830 H   0  0  0  0  0  0  0  0  0  0  0  0
   37.7610   29.4280   44.2760 H   0  0  0  0  0  0  0  0  0  0  0  0
   36.3510   29.9960   42.6110 H   0  0  0  0  0  0  0  0  0  0  0  0
   37.7890   30.2730   41.5070 H   0  0  0  0  0  0  0  0  0  0  0  0
   36.1420   27.7710   42.1750 H   0  0  0  0  0  0  0  0  0  0  0  0
   36.5970   28.2800   40.1010 C   0  0  0  0  0  3  0  0  0  0  0  0
   35.1950   28.8460   39.9050 C   0  0  0  0  0  3  0  0  0  0  0  0
   34.4430   28.1090   40.2560 H   0  0  0  0  0  0  0  0  0  0  0  0
   34.9180   29.1030   38.4410 C   0  0  0  0  0  3  0  0  0  0  0  0
   33.9990   29.7250   38.3940 H   0  0  0  0  0  0  0  0  0  0  0  0
   35.9020   29.8070   37.7920 O   0  0  0  0  0  0  0  0  0  0  0  0
   37.0770   29.0590   37.8190 C   0  0  0  0  0  3  0  0  0  0  0  0
   37.8560   29.5870   37.2150 H   0  0  0  0  0  0  0  0  0  0  0  0
   37.5770   29.0410   39.2530 C   0  0  0  0  0  3  0  0  0  0  0  0
   37.5990   30.1020   39.5670 H   0  0  0  0  0  0  0  0  0  0  0  0
   37.1270   23.8940   41.4840 C   0  0  0  0  0  0  0  0  0  0  0  0
   37.1670   25.2190   41.9060 C   0  0  0  0  0  0  0  0  0  0  0  0
   38.1170   26.0780   41.3700 C   0  0  0  0  0  0  0  0  0  0  0  0
   38.9860   25.5590   40.4300 N   0  0  0  0  0  0  0  0  0  0  0  0
   38.9130   24.2720   40.0500 C   0  0  0  0  0  0  0  0  0  0  0  0
   37.9970   23.4430   40.5670 N   0  0  0  0  0  0  0  0  0  0  0  0
   36.3700   23.2610   41.9270 H   0  0  0  0  0  0  0  0  0  0  0  0
   36.4740   25.5710   42.6320 H   0  0  0  0  0  0  0  0  0  0  0  0
   39.6430   23.9740   39.3090 H   0  0  0  0  0  0  0  0  0  0  0  0
  1  6  1  6  0  0  0
  1  2  1  0  0  0  0
  2  3  1  0  0  0  0
  2  7  1  0  0  0  0
  2  8  1  0  0  0  0
  3 10  1  0  0  0  0
  4 11  1  0  0  0  0
  4  3  1  0  0  0  0
  5  1  1  0  0  0  0
  5  4  1  0  0  0  0
  5 13  1  1  0  0  0
  9  3  1  0  0  0  0
 12  4  1  0  0  0  0
 14  5  1  0  0  0  0
 15 14  1  0  0  0  0
 15 16  1  0  0  0  0
 17 15  1  0  0  0  0
 18 17  1  0  0  0  0
 19 20  1  0  0  0  0
 19 17  1  0  0  0  0
 20 22  1  0  0  0  0
 21 20  1  0  0  0  0
 22 23  1  0  0  0  0
 22 14  1  0  0  0  0
 24 25  1  0  0  0  0
 24 30  1  0  0  0  0
 25 31  1  0  0  0  0
 26  1  1  0  0  0  0
 26 25  2  0  0  0  0
 27 26  1  0  0  0  0
 28 27  2  0  0  0  0
 28 29  1  0  0  0  0
 29 24  2  0  0  0  0
 32 28  1  0  0  0  0
M  END
>  <minimizedAffinity>
-4.45179892

$$$$

 OpenBabel03242513503D

 32 34  0  0  1  0  0  0  0  0999 V2000
   37.3950   31.5410   40.4970 C   0  0  2  0  0  0  0  0  0  0  0  0
   37.5210   32.9100   39.9030 C   0  0  0  0  0  0  0  0  0  0  0  0
   38.6750   33.4680   40.7100 C   0  0  0  0  0  0  0  0  0  0  0  0
   39.5330   32.2600   41.0630 C   0  0  0  0  0  0  0  0  0  0  0  0
   38.8580   31.0970   40.3900 C   0  0  1  0  0  0  0  0  0  0  0  0
   37.1130   31.5960   41.5460 H   0  0  0  0  0  0  0  0  0  0  0  0
   36.6040   33.4640   40.1870 H   0  0  0  0  0  0  0  0  0  0  0  0
   37.7030   32.9180   38.8300 H   0  0  0  0  0  0  0  0  0  0  0  0
   38.3080   34.0090   41.6060 H   0  0  0  0  0  0  0  0  0  0  0  0
   39.2230   34.1410   40.0070 H   0  0  0  0  0  0  0  0  0  0  0  0
   40.5260   32.3950   40.5870 H   0  0  0  0  0  0  0  0  0  0  0  0
   39.5790   32.2250   42.1480 H   0  0  0  0  0  0  0  0  0  0  0  0
   39.1490   31.0890   39.3290 H   0  0  0  0  0  0  0  0  0  0  0  0
   39.0120   29.7940   41.0820 C   0  0  0  0  0  3  0  0  0  0  0  0
   40.4050   29.2380   40.8040 C   0  0  0  0  0  3  0  0  0  0  0  0
   40.4710   28.9120   39.7450 H   0  0  0  0  0  0  0  0  0  0  0  0
   40.6820   28.0250   41.6620 C   0  0  0  0  0  3  0  0  0  0  0  0
   41.7710   27.8230   41.5890 H   0  0  0  0  0  0  0  0  0  0  0  0
   40.4040   28.1980   42.9960 O   0  0  0  0  0  0  0  0  0  0  0  0
   39.0400   28.4460   43.1380 C   0  0  0  0  0  3  0  0  0  0  0  0
   38.7940   28.4990   44.2270 H   0  0  0  0  0  0  0  0  0  0  0  0
   38.7630   29.8250   42.5640 C   0  0  0  0  0  3  0  0  0  0  0  0
   39.4930   30.4970   43.0520 H   0  0  0  0  0  0  0  0  0  0  0  0
   35.7080   29.5220   37.7850 C   0  0  0  0  0  0  0  0  0  0  0  0
   36.5960   30.4010   38.3940 C   0  0  0  0  0  0  0  0  0  0  0  0
   36.4990   30.6330   39.7600 C   0  0  0  0  0  0  0  0  0  0  0  0
   35.5060   29.9650   40.4490 N   0  0  0  0  0  0  0  0  0  0  0  0
   34.6680   29.1230   39.8220 C   0  0  0  0  0  0  0  0  0  0  0  0
   34.7620   28.8990   38.5050 N   0  0  0  0  0  0  0  0  0  0  0  0
   35.8210   29.3700   36.7190 H   0  0  0  0  0  0  0  0  0  0  0  0
   37.3450   30.8910   37.8190 H   0  0  0  0  0  0  0  0  0  0  0  0
   33.9290   28.6550   40.4590 H   0  0  0  0  0  0  0  0  0  0  0  0
  1  6  1  1  0  0  0
  2  7  1  0  0  0  0
  2  1  1  0  0  0  0
  2  3  1  0  0  0  0
  3  4  1  0  0  0  0
  3  9  1  0  0  0  0
  4 12  1  0  0  0  0
  5 13  1  6  0  0  0
  5  1  1  0  0  0  0
  5  4  1  0  0  0  0
  5 14  1  0  0  0  0
  8  2  1  0  0  0  0
 10  3  1  0  0  0  0
 11  4  1  0  0  0  0
 14 22  1  0  0  0  0
 15 14  1  0  0  0  0
 15 17  1  0  0  0  0
 16 15  1  0  0  0  0
 17 19  1  0  0  0  0
 18 17  1  0  0  0  0
 19 20  1  0  0  0  0
 20 21  1  0  0  0  0
 22 23  1  0  0  0  0
 22 20  1  0  0  0  0
 24 25  2  0  0  0  0
 24 29  1  0  0  0  0
 25 26  1  0  0  0  0
 26 27  2  0  0  0  0
 26  1  1  0  0  0  0
 28 27  1  0  0  0  0
 28 32  1  0  0  0  0
 29 28  2  0  0  0  0
 30 24  1  0  0  0  0
 31 25  1  0  0  0  0
M  END
>  <minimizedAffinity>
-4.44679022

$$$$
