
 OpenBabel03252509043D

 49 51  0  0  1  0  0  0  0  0999 V2000
   46.8210   34.3390   43.5630 N   0  0  0  0  0  0  0  0  0  0  0  0
   46.4720   34.9480   42.3390 C   0  0  0  0  0  0  0  0  0  0  0  0
   44.9900   34.9410   42.0170 C   0  0  0  0  0  0  0  0  0  0  0  0
   44.1010   35.0460   43.2240 C   0  0  0  0  0  0  0  0  0  0  0  0
   44.8970   35.2360   44.4950 C   0  0  0  0  0  0  0  0  0  0  0  0
   45.8710   33.9950   44.5040 C   0  0  2  0  0  0  0  0  0  0  0  0
   46.9750   34.5780   41.4380 H   0  0  0  0  0  0  0  0  0  0  0  0
   46.7630   36.0320   42.4100 H   0  0  0  0  0  0  0  0  0  0  0  0
   44.7760   34.0420   41.4070 H   0  0  0  0  0  0  0  0  0  0  0  0
   44.7690   35.8220   41.3720 H   0  0  0  0  0  0  0  0  0  0  0  0
   43.3720   35.8870   43.1440 H   0  0  0  0  0  0  0  0  0  0  0  0
   43.5010   34.1350   43.3500 H   0  0  0  0  0  0  0  0  0  0  0  0
   44.2310   35.1070   45.3530 H   0  0  0  0  0  0  0  0  0  0  0  0
   45.4990   36.1660   44.5070 H   0  0  0  0  0  0  0  0  0  0  0  0
   45.1960   33.1430   44.2850 H   0  0  0  0  0  0  0  0  0  0  0  0
   48.0350   33.5710   43.5080 C   0  0  0  0  0  0  0  0  0  0  0  0
   48.3840   33.4000   44.5500 H   0  0  0  0  0  0  0  0  0  0  0  0
   48.7710   34.1640   42.9370 H   0  0  0  0  0  0  0  0  0  0  0  0
   47.7620   32.2610   42.8740 C   0  0  0  0  0  0  0  0  0  0  0  0
   47.8220   31.3940   43.5570 H   0  0  0  0  0  0  0  0  0  0  0  0
   46.7200   32.2200   42.4550 H   0  0  0  0  0  0  0  0  0  0  0  0
   50.8680   31.8370   40.8070 C   0  0  0  0  0  0  0  0  0  0  0  0
   50.0030   32.0230   41.9000 C   0  0  0  0  0  0  0  0  0  0  0  0
   48.6520   32.0640   41.7050 C   0  0  0  0  0  0  0  0  0  0  0  0
   48.2070   31.9230   40.4530 N   0  0  0  0  0  0  0  0  0  0  0  0
   49.0110   31.7450   39.4010 C   0  0  0  0  0  0  0  0  0  0  0  0
   50.3460   31.6990   39.5560 N   0  0  0  0  0  0  0  0  0  0  0  0
   51.9520   31.8030   40.9510 H   0  0  0  0  0  0  0  0  0  0  0  0
   50.4610   32.1290   42.8820 H   0  0  0  0  0  0  0  0  0  0  0  0
   48.4830   31.6460   38.4490 H   0  0  0  0  0  0  0  0  0  0  0  0
   46.3660   34.0270   45.7890 O   0  0  0  0  0  0  0  0  0  0  0  0
   45.7140   31.4610   45.6720 O   0  0  0  0  0  0  0  0  0  0  0  0
   46.1100   32.5840   46.6280 P   0  0  2  0  0  0  0  0  0  0  0  0
   44.7570   32.8570   47.6210 O   0  0  0  0  0  0  0  0  0  0  0  0
   44.9080   32.5860   48.5570 H   0  0  0  0  0  0  0  0  0  0  0  0
   47.4080   32.1780   47.5990 O   0  0  0  0  0  0  0  0  0  0  0  0
   47.3040   30.8180   47.9020 C   0  0  0  0  0  0  0  0  0  0  0  0
   46.2980   30.6610   48.3710 H   0  0  0  0  0  0  0  0  0  0  0  0
   47.4300   30.1870   47.0200 H   0  0  0  0  0  0  0  0  0  0  0  0
   48.3480   30.5430   48.9640 C   0  0  0  0  0  3  0  0  0  0  0  0
   49.2430   31.7320   49.2310 C   0  0  0  0  0  3  0  0  0  0  0  0
   49.8990   31.9010   48.3520 H   0  0  0  0  0  0  0  0  0  0  0  0
   50.1600   31.2940   50.3760 C   0  0  0  0  0  3  0  0  0  0  0  0
   50.8940   32.0810   50.6390 H   0  0  0  0  0  0  0  0  0  0  0  0
   50.8800   30.1850   49.9940 O   0  0  0  0  0  0  0  0  0  0  0  0
   50.1290   29.0670   49.7080 C   0  0  0  0  0  3  0  0  0  0  0  0
   50.8360   28.2700   49.4160 H   0  0  0  0  0  0  0  0  0  0  0  0
   49.1820   29.3550   48.5490 C   0  0  0  0  0  3  0  0  0  0  0  0
   49.7790   29.6560   47.6690 H   0  0  0  0  0  0  0  0  0  0  0  0
  1  6  1  0  0  0  0
  2  8  1  0  0  0  0
  2  1  1  0  0  0  0
  3  2  1  0  0  0  0
  3  4  1  0  0  0  0
  4 12  1  0  0  0  0
  4  5  1  0  0  0  0
  5  6  1  0  0  0  0
  5 14  1  0  0  0  0
  5 13  1  0  0  0  0
  6 15  1  6  0  0  0
  6 31  1  0  0  0  0
  7  2  1  0  0  0  0
  9  3  1  0  0  0  0
 10  3  1  0  0  0  0
 11  4  1  0  0  0  0
 16  1  1  0  0  0  0
 16 17  1  0  0  0  0
 18 16  1  0  0  0  0
 19 16  1  0  0  0  0
 19 20  1  0  0  0  0
 21 19  1  0  0  0  0
 22 28  1  0  0  0  0
 22 23  1  0  0  0  0
 23 29  1  0  0  0  0
 24 23  2  0  0  0  0
 24 19  1  0  0  0  0
 25 24  1  0  0  0  0
 26 27  1  0  0  0  0
 26 25  2  0  0  0  0
 27 22  2  0  0  0  0
 30 26  1  0  0  0  0
 31 33  1  0  0  0  0
 33 32  2  6  0  0  0
 33 36  1  0  0  0  0
 33 34  1  0  0  0  0
 34 35  1  0  0  0  0
 36 37  1  0  0  0  0
 37 38  1  0  0  0  0
 37 40  1  0  0  0  0
 39 37  1  0  0  0  0
 40 41  1  0  0  0  0
 41 43  1  0  0  0  0
 42 41  1  0  0  0  0
 43 44  1  0  0  0  0
 45 43  1  0  0  0  0
 46 45  1  0  0  0  0
 47 46  1  0  0  0  0
 48 40  1  0  0  0  0
 48 46  1  0  0  0  0
 49 48  1  0  0  0  0
M  END
>  <minimizedAffinity>
-4.9682498

>  <minimizedRMSD>
3.03081036

$$$$
