
 OpenBabel03252504343D

 41 43  0  0  0  0  0  0  0  0999 V2000
   37.7140   33.5700   39.8400 C   0  0  0  0  0  0  0  0  0  0  0  0
   37.2360   34.4120   39.2690 H   0  0  0  0  0  0  0  0  0  0  0  0
   37.1930   33.5940   40.8370 H   0  0  0  0  0  0  0  0  0  0  0  0
   40.0290   33.0910   40.4060 C   0  0  0  0  0  0  0  0  0  0  0  0
   39.0860   34.0910   40.1400 C   0  0  0  0  0  0  0  0  0  0  0  0
   39.4760   35.3820   40.1580 C   0  0  0  0  0  0  0  0  0  0  0  0
   40.7640   35.6070   40.4330 N   0  0  0  0  0  0  0  0  0  0  0  0
   41.6740   34.6820   40.6860 C   0  0  0  0  0  0  0  0  0  0  0  0
   41.3250   33.3280   40.6820 N   0  0  0  0  0  0  0  0  0  0  0  0
   39.7640   32.0380   40.4050 H   0  0  0  0  0  0  0  0  0  0  0  0
   38.7330   36.1200   39.9520 H   0  0  0  0  0  0  0  0  0  0  0  0
   43.1060   34.9490   40.9890 C   0  0  0  0  0  3  0  0  0  0  0  0
   43.9000   33.6370   40.9900 C   0  0  0  0  0  3  0  0  0  0  0  0
   43.9610   33.3160   39.9300 H   0  0  0  0  0  0  0  0  0  0  0  0
   45.2170   33.7900   41.6770 C   0  0  0  0  0  3  0  0  0  0  0  0
   45.9590   33.2220   41.0620 H   0  0  0  0  0  0  0  0  0  0  0  0
   45.5240   35.1400   41.7500 O   0  0  0  0  0  0  0  0  0  0  0  0
   44.6750   35.6610   42.7450 C   0  0  0  0  0  3  0  0  0  0  0  0
   44.8790   35.0020   43.6370 H   0  0  0  0  0  0  0  0  0  0  0  0
   43.2340   35.5670   42.3550 C   0  0  0  0  0  3  0  0  0  0  0  0
   42.6850   34.9190   43.0580 H   0  0  0  0  0  0  0  0  0  0  0  0
   37.7000   32.3400   39.2680 O   0  0  0  0  0  0  0  0  0  0  0  0
   36.8560   31.2800   39.5510 C   0  0  0  0  0  3  0  0  0  0  0  0
   37.0300   30.6770   40.7210 C   0  0  0  0  0  3  0  0  0  0  0  0
   36.2270   29.5020   41.2470 C   0  0  0  0  0  0  0  0  0  0  0  0
   35.3160   29.3380   40.6400 H   0  0  0  0  0  0  0  0  0  0  0  0
   35.9480   29.7800   42.2850 H   0  0  0  0  0  0  0  0  0  0  0  0
   37.0710   28.4090   41.2840 O   0  0  0  0  0  0  0  0  0  0  0  0
   39.2000   29.0270   42.7610 O   0  0  0  0  0  0  0  0  0  0  0  0
   37.8690   28.3100   42.7660 P   0  0  1  0  0  0  0  0  0  0  0  0
   36.9270   29.0280   43.9920 O   0  0  0  0  0  0  0  0  0  0  0  0
   37.5300   29.3800   44.6890 H   0  0  0  0  0  0  0  0  0  0  0  0
   38.0860   26.6940   43.1980 O   0  0  0  0  0  0  0  0  0  0  0  0
   39.3020   26.1940   42.7730 C   0  0  0  0  0  0  0  0  0  0  0  0
   39.6230   24.7560   43.0400 C   0  0  0  0  0  0  0  0  0  0  0  0
   40.2680   25.8450   43.8820 C   0  0  0  0  0  0  0  0  0  0  0  0
   39.6980   26.6090   41.8450 H   0  0  0  0  0  0  0  0  0  0  0  0
   38.8780   24.0940   43.4860 H   0  0  0  0  0  0  0  0  0  0  0  0
   40.3020   24.2580   42.3210 H   0  0  0  0  0  0  0  0  0  0  0  0
   41.3460   26.0330   43.7280 H   0  0  0  0  0  0  0  0  0  0  0  0
   39.9110   25.8540   44.9320 H   0  0  0  0  0  0  0  0  0  0  0  0
  1  5  1  0  0  0  0
  1  3  1  0  0  0  0
  2  1  1  0  0  0  0
  4  9  1  0  0  0  0
  5  6  1  0  0  0  0
  5  4  2  0  0  0  0
  6  7  2  0  0  0  0
  7  8  1  0  0  0  0
  8 12  1  0  0  0  0
  9  8  2  0  0  0  0
 10  4  1  0  0  0  0
 11  6  1  0  0  0  0
 12 13  1  0  0  0  0
 12 20  1  0  0  0  0
 13 15  1  0  0  0  0
 14 13  1  0  0  0  0
 15 17  1  0  0  0  0
 16 15  1  0  0  0  0
 17 18  1  0  0  0  0
 18 19  1  0  0  0  0
 20 18  1  0  0  0  0
 20 21  1  0  0  0  0
 22 23  1  0  0  0  0
 22  1  1  0  0  0  0
 23 24  2  0  0  0  0
 24 25  1  0  0  0  0
 25 28  1  0  0  0  0
 25 27  1  0  0  0  0
 26 25  1  0  0  0  0
 28 30  1  0  0  0  0
 30 29  2  6  0  0  0
 30 33  1  0  0  0  0
 30 31  1  0  0  0  0
 31 32  1  0  0  0  0
 34 35  1  0  0  0  0
 34 33  1  0  0  0  0
 34 36  1  0  0  0  0
 35 38  1  0  0  0  0
 35 36  1  0  0  0  0
 36 41  1  0  0  0  0
 37 34  1  0  0  0  0
 39 35  1  0  0  0  0
 40 36  1  0  0  0  0
M  END
>  <minimizedAffinity>
-5.35676098

$$$$

 OpenBabel03252504343D

 41 43  0  0  0  0  0  0  0  0999 V2000
   37.2940   32.8960   39.1070 C   0  0  0  0  0  0  0  0  0  0  0  0
   36.3510   33.1390   38.5460 H   0  0  0  0  0  0  0  0  0  0  0  0
   38.0790   32.8430   38.3020 H   0  0  0  0  0  0  0  0  0  0  0  0
   37.5220   31.1800   40.8140 C   0  0  0  0  0  0  0  0  0  0  0  0
   37.0990   31.4670   39.5110 C   0  0  0  0  0  0  0  0  0  0  0  0
   36.5580   30.4820   38.7640 C   0  0  0  0  0  0  0  0  0  0  0  0
   36.4660   29.2830   39.3450 N   0  0  0  0  0  0  0  0  0  0  0  0
   36.8560   28.9850   40.5720 C   0  0  0  0  0  0  0  0  0  0  0  0
   37.4240   29.9670   41.3900 N   0  0  0  0  0  0  0  0  0  0  0  0
   37.9650   31.9370   41.4520 H   0  0  0  0  0  0  0  0  0  0  0  0
   36.2460   30.7330   37.7740 H   0  0  0  0  0  0  0  0  0  0  0  0
   36.7460   27.6440   41.2060 C   0  0  0  0  0  3  0  0  0  0  0  0
   37.8710   27.4470   42.2290 C   0  0  0  0  0  3  0  0  0  0  0  0
   37.6270   28.1100   43.0840 H   0  0  0  0  0  0  0  0  0  0  0  0
   38.0510   26.0070   42.5800 C   0  0  0  0  0  3  0  0  0  0  0  0
   38.2270   25.9740   43.6840 H   0  0  0  0  0  0  0  0  0  0  0  0
   36.9070   25.3150   42.2140 O   0  0  0  0  0  0  0  0  0  0  0  0
   36.9610   25.2250   40.8100 C   0  0  0  0  0  3  0  0  0  0  0  0
   37.9700   24.7610   40.6140 H   0  0  0  0  0  0  0  0  0  0  0  0
   36.8790   26.5700   40.1600 C   0  0  0  0  0  3  0  0  0  0  0  0
   37.7990   26.7820   39.5920 H   0  0  0  0  0  0  0  0  0  0  0  0
   37.6430   33.7180   40.1290 O   0  0  0  0  0  0  0  0  0  0  0  0
   38.6460   34.6720   40.1480 C   0  0  0  0  0  3  0  0  0  0  0  0
   39.8950   34.2220   40.1380 C   0  0  0  0  0  3  0  0  0  0  0  0
   41.1500   35.0750   40.1530 C   0  0  0  0  0  0  0  0  0  0  0  0
   41.9660   34.5750   40.7100 H   0  0  0  0  0  0  0  0  0  0  0  0
   40.8590   36.0150   40.6660 H   0  0  0  0  0  0  0  0  0  0  0  0
   41.4710   35.3580   38.8390 O   0  0  0  0  0  0  0  0  0  0  0  0
   41.2280   32.9750   37.6730 O   0  0  0  0  0  0  0  0  0  0  0  0
   42.2160   34.0370   38.1000 P   0  0  1  0  0  0  0  0  0  0  0  0
   43.0440   34.5350   36.6970 O   0  0  0  0  0  0  0  0  0  0  0  0
   43.0640   33.7840   36.0580 H   0  0  0  0  0  0  0  0  0  0  0  0
   43.3670   33.3700   39.1380 O   0  0  0  0  0  0  0  0  0  0  0  0
   44.6350   33.3710   38.5890 C   0  0  0  0  0  0  0  0  0  0  0  0
   45.7840   32.9010   39.4250 C   0  0  0  0  0  0  0  0  0  0  0  0
   45.5840   34.3880   39.1810 C   0  0  0  0  0  0  0  0  0  0  0  0
   44.6990   33.1540   37.5210 H   0  0  0  0  0  0  0  0  0  0  0  0
   45.6130   32.4860   40.4210 H   0  0  0  0  0  0  0  0  0  0  0  0
   46.6390   32.4490   38.8850 H   0  0  0  0  0  0  0  0  0  0  0  0
   46.3060   34.8930   38.5140 H   0  0  0  0  0  0  0  0  0  0  0  0
   45.2800   34.9430   40.0910 H   0  0  0  0  0  0  0  0  0  0  0  0
  1  5  1  0  0  0  0
  1 22  1  0  0  0  0
  2  1  1  0  0  0  0
  3  1  1  0  0  0  0
  4  9  1  0  0  0  0
  4 10  1  0  0  0  0
  5  4  2  0  0  0  0
  6  7  2  0  0  0  0
  6  5  1  0  0  0  0
  7  8  1  0  0  0  0
  8 12  1  0  0  0  0
  8  9  2  0  0  0  0
 11  6  1  0  0  0  0
 12 13  1  0  0  0  0
 13 15  1  0  0  0  0
 13 14  1  0  0  0  0
 15 16  1  0  0  0  0
 17 15  1  0  0  0  0
 18 17  1  0  0  0  0
 19 18  1  0  0  0  0
 20 18  1  0  0  0  0
 20 12  1  0  0  0  0
 21 20  1  0  0  0  0
 22 23  1  0  0  0  0
 24 23  2  0  0  0  0
 24 25  1  0  0  0  0
 25 27  1  0  0  0  0
 25 26  1  0  0  0  0
 28 25  1  0  0  0  0
 30 29  2  6  0  0  0
 30 28  1  0  0  0  0
 30 33  1  0  0  0  0
 31 30  1  0  0  0  0
 32 31  1  0  0  0  0
 34 33  1  0  0  0  0
 34 36  1  0  0  0  0
 34 35  1  0  0  0  0
 35 38  1  0  0  0  0
 36 35  1  0  0  0  0
 36 41  1  0  0  0  0
 37 34  1  0  0  0  0
 39 35  1  0  0  0  0
 40 36  1  0  0  0  0
M  END
>  <minimizedAffinity>
-5.33044004

$$$$

 OpenBabel03252504343D

 41 43  0  0  0  0  0  0  0  0999 V2000
   37.0870   31.5730   40.5230 C   0  0  0  0  0  0  0  0  0  0  0  0
   36.0670   31.8530   40.9020 H   0  0  0  0  0  0  0  0  0  0  0  0
   36.9320   31.4320   39.4170 H   0  0  0  0  0  0  0  0  0  0  0  0
   38.6000   29.8690   41.3710 C   0  0  0  0  0  0  0  0  0  0  0  0
   37.2760   30.1790   41.0370 C   0  0  0  0  0  0  0  0  0  0  0  0
   36.3190   29.2450   41.2150 C   0  0  0  0  0  0  0  0  0  0  0  0
   36.7230   28.0710   41.7100 N   0  0  0  0  0  0  0  0  0  0  0  0
   37.9640   27.7540   42.0340 C   0  0  0  0  0  0  0  0  0  0  0  0
   38.9960   28.6830   41.8690 N   0  0  0  0  0  0  0  0  0  0  0  0
   39.4050   30.5860   41.2450 H   0  0  0  0  0  0  0  0  0  0  0  0
   35.3200   29.5110   40.9500 H   0  0  0  0  0  0  0  0  0  0  0  0
   38.3990   26.4430   42.5850 C   0  0  0  0  0  3  0  0  0  0  0  0
   39.8240   26.5470   43.1410 C   0  0  0  0  0  3  0  0  0  0  0  0
   39.7480   27.1550   44.0650 H   0  0  0  0  0  0  0  0  0  0  0  0
   40.4450   25.2010   43.3210 C   0  0  0  0  0  3  0  0  0  0  0  0
   41.0000   25.2400   44.2920 H   0  0  0  0  0  0  0  0  0  0  0  0
   39.4400   24.2470   43.3340 O   0  0  0  0  0  0  0  0  0  0  0  0
   39.0170   24.1350   41.9960 C   0  0  0  0  0  3  0  0  0  0  0  0
   39.9720   23.9200   41.4350 H   0  0  0  0  0  0  0  0  0  0  0  0
   38.4020   25.4040   41.4960 C   0  0  0  0  0  3  0  0  0  0  0  0
   38.9890   25.8150   40.6580 H   0  0  0  0  0  0  0  0  0  0  0  0
   38.1130   32.4130   40.8070 O   0  0  0  0  0  0  0  0  0  0  0  0
   38.8380   33.1980   39.9280 C   0  0  0  0  0  3  0  0  0  0  0  0
   40.1110   33.4170   40.2350 C   0  0  0  0  0  3  0  0  0  0  0  0
   41.0950   34.2400   39.4250 C   0  0  0  0  0  0  0  0  0  0  0  0
   41.3430   35.1880   39.9400 H   0  0  0  0  0  0  0  0  0  0  0  0
   40.5790   34.4520   38.4650 H   0  0  0  0  0  0  0  0  0  0  0  0
   42.1950   33.4410   39.1790 O   0  0  0  0  0  0  0  0  0  0  0  0
   41.0220   32.4320   37.0110 O   0  0  0  0  0  0  0  0  0  0  0  0
   42.2980   33.0420   37.5430 P   0  0  1  0  0  0  0  0  0  0  0  0
   42.6050   34.4360   36.6130 O   0  0  0  0  0  0  0  0  0  0  0  0
   42.2170   34.3090   35.7150 H   0  0  0  0  0  0  0  0  0  0  0  0
   43.5910   31.9880   37.2880 O   0  0  0  0  0  0  0  0  0  0  0  0
   43.3120   31.0340   36.3280 C   0  0  0  0  0  0  0  0  0  0  0  0
   43.3980   29.5870   36.7020 C   0  0  0  0  0  0  0  0  0  0  0  0
   44.5020   30.2210   35.8730 C   0  0  0  0  0  0  0  0  0  0  0  0
   42.5450   31.2950   35.5960 H   0  0  0  0  0  0  0  0  0  0  0  0
   43.5950   29.2910   37.7360 H   0  0  0  0  0  0  0  0  0  0  0  0
   42.7380   28.8910   36.1490 H   0  0  0  0  0  0  0  0  0  0  0  0
   44.5710   29.9260   34.8110 H   0  0  0  0  0  0  0  0  0  0  0  0
   45.4610   30.3160   36.4220 H   0  0  0  0  0  0  0  0  0  0  0  0
  1 22  1  0  0  0  0
  1  2  1  0  0  0  0
  1  5  1  0  0  0  0
  3  1  1  0  0  0  0
  4  9  1  0  0  0  0
  5  6  1  0  0  0  0
  5  4  2  0  0  0  0
  6  7  2  0  0  0  0
  7  8  1  0  0  0  0
  8 12  1  0  0  0  0
  9  8  2  0  0  0  0
 10  4  1  0  0  0  0
 11  6  1  0  0  0  0
 12 13  1  0  0  0  0
 13 15  1  0  0  0  0
 13 14  1  0  0  0  0
 15 17  1  0  0  0  0
 15 16  1  0  0  0  0
 18 17  1  0  0  0  0
 19 18  1  0  0  0  0
 20 18  1  0  0  0  0
 20 12  1  0  0  0  0
 21 20  1  0  0  0  0
 23 24  2  0  0  0  0
 23 22  1  0  0  0  0
 25 26  1  0  0  0  0
 25 24  1  0  0  0  0
 27 25  1  0  0  0  0
 28 25  1  0  0  0  0
 30 29  2  6  0  0  0
 30 28  1  0  0  0  0
 31 30  1  0  0  0  0
 32 31  1  0  0  0  0
 33 30  1  0  0  0  0
 34 35  1  0  0  0  0
 34 33  1  0  0  0  0
 35 38  1  0  0  0  0
 36 34  1  0  0  0  0
 36 41  1  0  0  0  0
 36 35  1  0  0  0  0
 37 34  1  0  0  0  0
 39 35  1  0  0  0  0
 40 36  1  0  0  0  0
M  END
>  <minimizedAffinity>
-5.18711948

$$$$

 OpenBabel03252504343D

 41 43  0  0  0  0  0  0  0  0999 V2000
   37.4800   33.0420   39.7530 C   0  0  0  0  0  0  0  0  0  0  0  0
   36.4380   33.0040   39.3350 H   0  0  0  0  0  0  0  0  0  0  0  0
   38.1350   32.8570   38.8560 H   0  0  0  0  0  0  0  0  0  0  0  0
   38.8980   31.3800   40.8210 C   0  0  0  0  0  0  0  0  0  0  0  0
   37.5840   31.7700   40.5390 C   0  0  0  0  0  0  0  0  0  0  0  0
   36.5630   31.0140   40.9920 C   0  0  0  0  0  0  0  0  0  0  0  0
   36.8990   29.9280   41.6940 N   0  0  0  0  0  0  0  0  0  0  0  0
   38.1300   29.5380   41.9750 C   0  0  0  0  0  0  0  0  0  0  0  0
   39.2260   30.2840   41.5290 N   0  0  0  0  0  0  0  0  0  0  0  0
   39.7530   31.9550   40.4770 H   0  0  0  0  0  0  0  0  0  0  0  0
   35.5730   31.3380   40.7600 H   0  0  0  0  0  0  0  0  0  0  0  0
   38.4880   28.3250   42.7590 C   0  0  0  0  0  3  0  0  0  0  0  0
   39.9920   28.3110   43.0550 C   0  0  0  0  0  3  0  0  0  0  0  0
   40.1640   29.1100   43.8040 H   0  0  0  0  0  0  0  0  0  0  0  0
   40.4610   26.9540   43.4640 C   0  0  0  0  0  3  0  0  0  0  0  0
   41.1830   27.1120   44.3030 H   0  0  0  0  0  0  0  0  0  0  0  0
   39.3620   26.2050   43.8570 O   0  0  0  0  0  0  0  0  0  0  0  0
   38.6920   25.8750   42.6640 C   0  0  0  0  0  3  0  0  0  0  0  0
   39.4930   25.3880   42.0370 H   0  0  0  0  0  0  0  0  0  0  0  0
   38.1610   27.0880   41.9670 C   0  0  0  0  0  3  0  0  0  0  0  0
   38.6330   27.2030   40.9770 H   0  0  0  0  0  0  0  0  0  0  0  0
   37.8380   34.1520   40.4450 O   0  0  0  0  0  0  0  0  0  0  0  0
   38.8520   35.0460   40.1520 C   0  0  0  0  0  3  0  0  0  0  0  0
   40.0450   34.5270   39.8840 C   0  0  0  0  0  3  0  0  0  0  0  0
   41.2990   35.3060   39.5350 C   0  0  0  0  0  0  0  0  0  0  0  0
   41.3480   36.2580   40.0990 H   0  0  0  0  0  0  0  0  0  0  0  0
   41.2210   35.5120   38.4470 H   0  0  0  0  0  0  0  0  0  0  0  0
   42.3780   34.4740   39.7610 O   0  0  0  0  0  0  0  0  0  0  0  0
   42.5070   34.7320   37.1130 O   0  0  0  0  0  0  0  0  0  0  0  0
   43.1500   34.0790   38.3150 P   0  0  1  0  0  0  0  0  0  0  0  0
   44.7720   34.6010   38.3500 O   0  0  0  0  0  0  0  0  0  0  0  0
   45.0610   34.7980   37.4280 H   0  0  0  0  0  0  0  0  0  0  0  0
   43.1780   32.4030   38.1150 O   0  0  0  0  0  0  0  0  0  0  0  0
   42.2570   31.9690   37.1820 C   0  0  0  0  0  0  0  0  0  0  0  0
   41.3300   30.8530   37.5490 C   0  0  0  0  0  0  0  0  0  0  0  0
   42.5120   30.5830   36.6330 C   0  0  0  0  0  0  0  0  0  0  0  0
   41.8490   32.7300   36.5140 H   0  0  0  0  0  0  0  0  0  0  0  0
   41.3240   30.4460   38.5640 H   0  0  0  0  0  0  0  0  0  0  0  0
   40.3410   30.8450   37.0510 H   0  0  0  0  0  0  0  0  0  0  0  0
   42.2930   30.3840   35.5690 H   0  0  0  0  0  0  0  0  0  0  0  0
   43.2940   29.9530   37.1030 H   0  0  0  0  0  0  0  0  0  0  0  0
  1 22  1  0  0  0  0
  1  5  1  0  0  0  0
  2  1  1  0  0  0  0
  3  1  1  0  0  0  0
  4  9  1  0  0  0  0
  5  4  2  0  0  0  0
  5  6  1  0  0  0  0
  6  7  2  0  0  0  0
  7  8  1  0  0  0  0
  8 12  1  0  0  0  0
  9  8  2  0  0  0  0
 10  4  1  0  0  0  0
 11  6  1  0  0  0  0
 12 13  1  0  0  0  0
 13 15  1  0  0  0  0
 13 14  1  0  0  0  0
 15 17  1  0  0  0  0
 15 16  1  0  0  0  0
 18 17  1  0  0  0  0
 19 18  1  0  0  0  0
 20 18  1  0  0  0  0
 20 12  1  0  0  0  0
 21 20  1  0  0  0  0
 23 22  1  0  0  0  0
 24 23  2  0  0  0  0
 25 28  1  0  0  0  0
 25 24  1  0  0  0  0
 25 26  1  0  0  0  0
 27 25  1  0  0  0  0
 30 29  2  6  0  0  0
 30 31  1  0  0  0  0
 30 28  1  0  0  0  0
 32 31  1  0  0  0  0
 33 30  1  0  0  0  0
 34 35  1  0  0  0  0
 34 33  1  0  0  0  0
 35 38  1  0  0  0  0
 36 41  1  0  0  0  0
 36 34  1  0  0  0  0
 36 35  1  0  0  0  0
 37 34  1  0  0  0  0
 39 35  1  0  0  0  0
 40 36  1  0  0  0  0
M  END
>  <minimizedAffinity>
-5.06807518

$$$$

 OpenBabel03252504343D

 41 43  0  0  0  0  0  0  0  0999 V2000
   36.2580   28.7360   41.6850 C   0  0  0  0  0  0  0  0  0  0  0  0
   35.9880   28.3230   40.6750 H   0  0  0  0  0  0  0  0  0  0  0  0
   35.2750   29.1020   42.0950 H   0  0  0  0  0  0  0  0  0  0  0  0
   38.2890   30.0550   41.8990 C   0  0  0  0  0  0  0  0  0  0  0  0
   37.0000   29.9950   41.3570 C   0  0  0  0  0  0  0  0  0  0  0  0
   36.5570   31.0230   40.6030 C   0  0  0  0  0  0  0  0  0  0  0  0
   37.4080   32.0380   40.4290 N   0  0  0  0  0  0  0  0  0  0  0  0
   38.6290   32.1180   40.9270 C   0  0  0  0  0  0  0  0  0  0  0  0
   39.1390   31.0820   41.7170 N   0  0  0  0  0  0  0  0  0  0  0  0
   38.6900   29.2540   42.5130 H   0  0  0  0  0  0  0  0  0  0  0  0
   35.5690   30.9480   40.2050 H   0  0  0  0  0  0  0  0  0  0  0  0
   39.5660   33.2550   40.7230 C   0  0  0  0  0  3  0  0  0  0  0  0
   38.7880   34.5720   40.6280 C   0  0  0  0  0  3  0  0  0  0  0  0
   38.4140   34.7820   41.6510 H   0  0  0  0  0  0  0  0  0  0  0  0
   39.6140   35.6590   40.0240 C   0  0  0  0  0  3  0  0  0  0  0  0
   39.3940   36.5840   40.6140 H   0  0  0  0  0  0  0  0  0  0  0  0
   40.9500   35.2970   40.1050 O   0  0  0  0  0  0  0  0  0  0  0  0
   41.1220   34.2980   39.1270 C   0  0  0  0  0  3  0  0  0  0  0  0
   40.7400   34.7830   38.1840 H   0  0  0  0  0  0  0  0  0  0  0  0
   40.3230   33.0720   39.4340 C   0  0  0  0  0  3  0  0  0  0  0  0
   39.5770   32.8880   38.6440 H   0  0  0  0  0  0  0  0  0  0  0  0
   36.9120   27.9150   42.5440 O   0  0  0  0  0  0  0  0  0  0  0  0
   37.3310   26.6140   42.3240 C   0  0  0  0  0  3  0  0  0  0  0  0
   38.5850   26.3280   42.6550 C   0  0  0  0  0  3  0  0  0  0  0  0
   39.2600   24.9780   42.5080 C   0  0  0  0  0  0  0  0  0  0  0  0
   39.6830   24.8510   41.4920 H   0  0  0  0  0  0  0  0  0  0  0  0
   38.4590   24.2300   42.6830 H   0  0  0  0  0  0  0  0  0  0  0  0
   40.2010   24.8760   43.5140 O   0  0  0  0  0  0  0  0  0  0  0  0
   41.8190   26.9690   43.8270 O   0  0  0  0  0  0  0  0  0  0  0  0
   41.6300   25.6630   43.0880 P   0  0  1  0  0  0  0  0  0  0  0  0
   42.9760   24.6860   43.4610 O   0  0  0  0  0  0  0  0  0  0  0  0
   43.7470   25.2710   43.6540 H   0  0  0  0  0  0  0  0  0  0  0  0
   41.6660   25.9320   41.4230 O   0  0  0  0  0  0  0  0  0  0  0  0
   42.6610   25.2100   40.7940 C   0  0  0  0  0  0  0  0  0  0  0  0
   43.5390   25.9050   39.8010 C   0  0  0  0  0  0  0  0  0  0  0  0
   42.4400   24.9730   39.3170 C   0  0  0  0  0  0  0  0  0  0  0  0
   43.1360   24.4240   41.3850 H   0  0  0  0  0  0  0  0  0  0  0  0
   43.4500   26.9820   39.6380 H   0  0  0  0  0  0  0  0  0  0  0  0
   44.5690   25.5120   39.6880 H   0  0  0  0  0  0  0  0  0  0  0  0
   42.7510   24.0070   38.8810 H   0  0  0  0  0  0  0  0  0  0  0  0
   41.6120   25.5030   38.8040 H   0  0  0  0  0  0  0  0  0  0  0  0
  1  3  1  0  0  0  0
  1 22  1  0  0  0  0
  2  1  1  0  0  0  0
  4 10  1  0  0  0  0
  5  1  1  0  0  0  0
  5  4  2  0  0  0  0
  6  5  1  0  0  0  0
  7  6  2  0  0  0  0
  7  8  1  0  0  0  0
  8  9  2  0  0  0  0
  9  4  1  0  0  0  0
 11  6  1  0  0  0  0
 12  8  1  0  0  0  0
 13 12  1  0  0  0  0
 13 14  1  0  0  0  0
 15 17  1  0  0  0  0
 15 16  1  0  0  0  0
 15 13  1  0  0  0  0
 18 20  1  0  0  0  0
 18 17  1  0  0  0  0
 19 18  1  0  0  0  0
 20 12  1  0  0  0  0
 21 20  1  0  0  0  0
 23 22  1  0  0  0  0
 23 24  2  0  0  0  0
 25 24  1  0  0  0  0
 25 27  1  0  0  0  0
 25 28  1  0  0  0  0
 26 25  1  0  0  0  0
 30 31  1  0  0  0  0
 30 28  1  0  0  0  0
 30 29  2  1  0  0  0
 31 32  1  0  0  0  0
 33 30  1  0  0  0  0
 34 37  1  0  0  0  0
 34 33  1  0  0  0  0
 35 34  1  0  0  0  0
 36 35  1  0  0  0  0
 36 34  1  0  0  0  0
 38 35  1  0  0  0  0
 39 35  1  0  0  0  0
 40 36  1  0  0  0  0
 41 36  1  0  0  0  0
M  END
>  <minimizedAffinity>
-5.00925875

$$$$

 OpenBabel03252504343D

 41 43  0  0  0  0  0  0  0  0999 V2000
   37.3110   32.9700   39.1970 C   0  0  0  0  0  0  0  0  0  0  0  0
   36.3250   33.0480   38.6630 H   0  0  0  0  0  0  0  0  0  0  0  0
   38.0640   32.9210   38.3620 H   0  0  0  0  0  0  0  0  0  0  0  0
   38.1300   30.6850   39.0620 C   0  0  0  0  0  0  0  0  0  0  0  0
   37.2970   31.5770   39.7480 C   0  0  0  0  0  0  0  0  0  0  0  0
   36.5960   31.1350   40.8120 C   0  0  0  0  0  0  0  0  0  0  0  0
   36.7590   29.8490   41.1340 N   0  0  0  0  0  0  0  0  0  0  0  0
   37.5390   28.9860   40.5050 C   0  0  0  0  0  0  0  0  0  0  0  0
   38.2870   29.3900   39.3950 N   0  0  0  0  0  0  0  0  0  0  0  0
   38.7120   30.9920   38.1990 H   0  0  0  0  0  0  0  0  0  0  0  0
   35.9700   31.8390   41.3130 H   0  0  0  0  0  0  0  0  0  0  0  0
   37.7110   27.5560   40.8760 C   0  0  0  0  0  3  0  0  0  0  0  0
   37.1450   26.6510   39.7760 C   0  0  0  0  0  3  0  0  0  0  0  0
   37.8450   26.7370   38.9200 H   0  0  0  0  0  0  0  0  0  0  0  0
   36.9200   25.2590   40.2680 C   0  0  0  0  0  3  0  0  0  0  0  0
   37.2530   24.5790   39.4440 H   0  0  0  0  0  0  0  0  0  0  0  0
   37.6580   25.0740   41.4270 O   0  0  0  0  0  0  0  0  0  0  0  0
   36.9690   25.7920   42.4230 C   0  0  0  0  0  3  0  0  0  0  0  0
   35.9200   25.3810   42.3670 H   0  0  0  0  0  0  0  0  0  0  0  0
   36.9590   27.2620   42.1480 C   0  0  0  0  0  3  0  0  0  0  0  0
   35.9270   27.6230   42.0050 H   0  0  0  0  0  0  0  0  0  0  0  0
   37.6040   33.9260   40.1140 O   0  0  0  0  0  0  0  0  0  0  0  0
   38.8300   34.2000   40.6940 C   0  0  0  0  0  3  0  0  0  0  0  0
   39.5550   35.1590   40.1300 C   0  0  0  0  0  3  0  0  0  0  0  0
   40.9210   35.6320   40.5910 C   0  0  0  0  0  0  0  0  0  0  0  0
   41.0250   35.5420   41.6890 H   0  0  0  0  0  0  0  0  0  0  0  0
   40.9770   36.6990   40.2890 H   0  0  0  0  0  0  0  0  0  0  0  0
   41.8660   34.9130   39.8850 O   0  0  0  0  0  0  0  0  0  0  0  0
   43.6560   35.1740   41.8400 O   0  0  0  0  0  0  0  0  0  0  0  0
   42.9720   34.1820   40.9280 P   0  0  1  0  0  0  0  0  0  0  0  0
   42.1800   33.0540   41.9310 O   0  0  0  0  0  0  0  0  0  0  0  0
   42.6720   32.9910   42.7840 H   0  0  0  0  0  0  0  0  0  0  0  0
   44.1230   33.3260   40.0400 O   0  0  0  0  0  0  0  0  0  0  0  0
   44.5110   33.9970   38.8960 C   0  0  0  0  0  0  0  0  0  0  0  0
   45.5840   33.4010   38.0390 C   0  0  0  0  0  0  0  0  0  0  0  0
   45.9050   34.5790   38.9430 C   0  0  0  0  0  0  0  0  0  0  0  0
   43.7300   34.5500   38.3710 H   0  0  0  0  0  0  0  0  0  0  0  0
   45.9920   32.4130   38.2670 H   0  0  0  0  0  0  0  0  0  0  0  0
   45.5440   33.6370   36.9580 H   0  0  0  0  0  0  0  0  0  0  0  0
   46.0920   35.5530   38.4570 H   0  0  0  0  0  0  0  0  0  0  0  0
   46.5730   34.3130   39.7870 H   0  0  0  0  0  0  0  0  0  0  0  0
  1  5  1  0  0  0  0
  1 22  1  0  0  0  0
  2  1  1  0  0  0  0
  3  1  1  0  0  0  0
  4  9  2  0  0  0  0
  4  5  1  0  0  0  0
  5  6  2  0  0  0  0
  6  7  1  0  0  0  0
  6 11  1  0  0  0  0
  8 12  1  0  0  0  0
  8  7  2  0  0  0  0
  9  8  1  0  0  0  0
 10  4  1  0  0  0  0
 12 20  1  0  0  0  0
 13 15  1  0  0  0  0
 13 12  1  0  0  0  0
 14 13  1  0  0  0  0
 15 17  1  0  0  0  0
 16 15  1  0  0  0  0
 17 18  1  0  0  0  0
 19 18  1  0  0  0  0
 20 18  1  0  0  0  0
 21 20  1  0  0  0  0
 22 23  1  0  0  0  0
 24 25  1  0  0  0  0
 24 23  2  0  0  0  0
 25 26  1  0  0  0  0
 27 25  1  0  0  0  0
 28 25  1  0  0  0  0
 28 30  1  0  0  0  0
 30 29  2  1  0  0  0
 30 31  1  0  0  0  0
 31 32  1  0  0  0  0
 33 30  1  0  0  0  0
 34 36  1  0  0  0  0
 34 33  1  0  0  0  0
 35 38  1  0  0  0  0
 35 34  1  0  0  0  0
 35 36  1  0  0  0  0
 36 41  1  0  0  0  0
 37 34  1  0  0  0  0
 39 35  1  0  0  0  0
 40 36  1  0  0  0  0
M  END
>  <minimizedAffinity>
-4.98483944

$$$$

 OpenBabel03252504343D

 41 43  0  0  0  0  0  0  0  0999 V2000
   36.5040   28.7500   37.7880 C   0  0  0  0  0  0  0  0  0  0  0  0
   36.6000   28.8470   36.6730 H   0  0  0  0  0  0  0  0  0  0  0  0
   35.4600   29.1140   37.9990 H   0  0  0  0  0  0  0  0  0  0  0  0
   36.6740   30.9010   38.9090 C   0  0  0  0  0  0  0  0  0  0  0  0
   37.3770   29.8510   38.3080 C   0  0  0  0  0  0  0  0  0  0  0  0
   38.7250   29.9030   38.2630 C   0  0  0  0  0  0  0  0  0  0  0  0
   39.2920   30.9810   38.8130 N   0  0  0  0  0  0  0  0  0  0  0  0
   38.6520   31.9850   39.3880 C   0  0  0  0  0  0  0  0  0  0  0  0
   37.2560   31.9820   39.4600 N   0  0  0  0  0  0  0  0  0  0  0  0
   35.5900   30.9050   38.9670 H   0  0  0  0  0  0  0  0  0  0  0  0
   39.2320   29.0880   37.7980 H   0  0  0  0  0  0  0  0  0  0  0  0
   39.2990   33.1780   39.9970 C   0  0  0  0  0  3  0  0  0  0  0  0
   38.3310   34.3670   39.9890 C   0  0  0  0  0  3  0  0  0  0  0  0
   37.5540   34.1330   40.7450 H   0  0  0  0  0  0  0  0  0  0  0  0
   39.0450   35.6610   40.2000 C   0  0  0  0  0  3  0  0  0  0  0  0
   38.4030   36.2640   40.8890 H   0  0  0  0  0  0  0  0  0  0  0  0
   40.2910   35.3960   40.7470 O   0  0  0  0  0  0  0  0  0  0  0  0
   41.0570   34.8710   39.6880 C   0  0  0  0  0  3  0  0  0  0  0  0
   40.9660   35.6560   38.8830 H   0  0  0  0  0  0  0  0  0  0  0  0
   40.5140   33.5670   39.1980 C   0  0  0  0  0  3  0  0  0  0  0  0
   40.1970   33.6500   38.1450 H   0  0  0  0  0  0  0  0  0  0  0  0
   36.7580   27.5350   38.3360 O   0  0  0  0  0  0  0  0  0  0  0  0
   36.6640   27.1660   39.6660 C   0  0  0  0  0  3  0  0  0  0  0  0
   37.8030   26.8890   40.2890 C   0  0  0  0  0  3  0  0  0  0  0  0
   37.9480   26.4680   41.7390 C   0  0  0  0  0  0  0  0  0  0  0  0
   38.9690   26.6760   42.1160 H   0  0  0  0  0  0  0  0  0  0  0  0
   37.7540   25.3750   41.7470 H   0  0  0  0  0  0  0  0  0  0  0  0
   36.9550   27.1080   42.4550 O   0  0  0  0  0  0  0  0  0  0  0  0
   36.9370   29.7500   42.1180 O   0  0  0  0  0  0  0  0  0  0  0  0
   37.4690   28.6270   42.9780 P   0  0  1  0  0  0  0  0  0  0  0  0
   36.9230   28.9200   44.5660 O   0  0  0  0  0  0  0  0  0  0  0  0
   36.8070   29.8930   44.6850 H   0  0  0  0  0  0  0  0  0  0  0  0
   39.1550   28.6810   43.0210 O   0  0  0  0  0  0  0  0  0  0  0  0
   39.6740   29.6230   42.1540 C   0  0  0  0  0  0  0  0  0  0  0  0
   41.1370   29.9320   42.2170 C   0  0  0  0  0  0  0  0  0  0  0  0
   40.1320   30.9060   42.8080 C   0  0  0  0  0  0  0  0  0  0  0  0
   39.2160   29.6730   41.1640 H   0  0  0  0  0  0  0  0  0  0  0  0
   41.7970   29.3650   42.8770 H   0  0  0  0  0  0  0  0  0  0  0  0
   41.6150   30.2670   41.2750 H   0  0  0  0  0  0  0  0  0  0  0  0
   39.9770   31.8600   42.2730 H   0  0  0  0  0  0  0  0  0  0  0  0
   40.1760   30.9620   43.9150 H   0  0  0  0  0  0  0  0  0  0  0  0
  1  3  1  0  0  0  0
  1  5  1  0  0  0  0
  1 22  1  0  0  0  0
  2  1  1  0  0  0  0
  4 10  1  0  0  0  0
  4  9  1  0  0  0  0
  5  4  2  0  0  0  0
  6  5  1  0  0  0  0
  6  7  2  0  0  0  0
  7  8  1  0  0  0  0
  8  9  2  0  0  0  0
  8 12  1  0  0  0  0
 11  6  1  0  0  0  0
 13 12  1  0  0  0  0
 13 15  1  0  0  0  0
 13 14  1  0  0  0  0
 15 17  1  0  0  0  0
 15 16  1  0  0  0  0
 18 17  1  0  0  0  0
 19 18  1  0  0  0  0
 20 18  1  0  0  0  0
 20 12  1  0  0  0  0
 21 20  1  0  0  0  0
 22 23  1  0  0  0  0
 23 24  2  0  0  0  0
 24 25  1  0  0  0  0
 25 27  1  0  0  0  0
 25 26  1  0  0  0  0
 25 28  1  0  0  0  0
 28 30  1  0  0  0  0
 30 29  2  6  0  0  0
 30 33  1  0  0  0  0
 30 31  1  0  0  0  0
 31 32  1  0  0  0  0
 34 35  1  0  0  0  0
 34 36  1  0  0  0  0
 34 33  1  0  0  0  0
 35 36  1  0  0  0  0
 35 38  1  0  0  0  0
 36 41  1  0  0  0  0
 37 34  1  0  0  0  0
 39 35  1  0  0  0  0
 40 36  1  0  0  0  0
M  END
>  <minimizedAffinity>
-4.97946787

$$$$

 OpenBabel03252504343D

 41 43  0  0  0  0  0  0  0  0999 V2000
   37.3350   31.8540   39.6540 C   0  0  0  0  0  0  0  0  0  0  0  0
   36.3970   31.9280   39.0410 H   0  0  0  0  0  0  0  0  0  0  0  0
   38.1450   31.7060   38.8860 H   0  0  0  0  0  0  0  0  0  0  0  0
   37.6770   29.4500   39.5250 C   0  0  0  0  0  0  0  0  0  0  0  0
   37.2160   30.5130   40.3110 C   0  0  0  0  0  0  0  0  0  0  0  0
   36.7400   30.2580   41.5470 C   0  0  0  0  0  0  0  0  0  0  0  0
   36.7490   28.9780   41.9310 N   0  0  0  0  0  0  0  0  0  0  0  0
   37.1800   27.9570   41.2100 C   0  0  0  0  0  0  0  0  0  0  0  0
   37.6820   28.1640   39.9220 N   0  0  0  0  0  0  0  0  0  0  0  0
   38.0670   29.6050   38.5240 H   0  0  0  0  0  0  0  0  0  0  0  0
   36.3950   31.0890   42.1210 H   0  0  0  0  0  0  0  0  0  0  0  0
   37.1850   26.5370   41.6530 C   0  0  0  0  0  3  0  0  0  0  0  0
   38.5060   26.2060   42.3580 C   0  0  0  0  0  3  0  0  0  0  0  0
   38.4730   26.7350   43.3320 H   0  0  0  0  0  0  0  0  0  0  0  0
   38.7290   24.7330   42.4490 C   0  0  0  0  0  3  0  0  0  0  0  0
   39.1460   24.5420   43.4700 H   0  0  0  0  0  0  0  0  0  0  0  0
   37.5170   24.0880   42.2530 O   0  0  0  0  0  0  0  0  0  0  0  0
   37.2550   24.2030   40.8740 C   0  0  0  0  0  3  0  0  0  0  0  0
   38.1850   23.7850   40.3930 H   0  0  0  0  0  0  0  0  0  0  0  0
   37.0580   25.6270   40.4600 C   0  0  0  0  0  3  0  0  0  0  0  0
   37.8340   25.9310   39.7370 H   0  0  0  0  0  0  0  0  0  0  0  0
   37.6040   32.8700   40.5120 O   0  0  0  0  0  0  0  0  0  0  0  0
   38.8180   33.4960   40.7340 C   0  0  0  0  0  3  0  0  0  0  0  0
   39.1450   34.4750   39.8970 C   0  0  0  0  0  3  0  0  0  0  0  0
   40.4160   35.3020   39.9450 C   0  0  0  0  0  0  0  0  0  0  0  0
   40.2140   36.3600   39.6900 H   0  0  0  0  0  0  0  0  0  0  0  0
   41.0880   34.8490   39.1860 H   0  0  0  0  0  0  0  0  0  0  0  0
   40.9720   35.1320   41.1980 O   0  0  0  0  0  0  0  0  0  0  0  0
   42.6900   33.1130   41.4620 O   0  0  0  0  0  0  0  0  0  0  0  0
   42.5590   34.5700   41.0850 P   0  0  1  0  0  0  0  0  0  0  0  0
   43.1240   34.7180   39.4830 O   0  0  0  0  0  0  0  0  0  0  0  0
   43.7960   34.0150   39.3200 H   0  0  0  0  0  0  0  0  0  0  0  0
   43.5730   35.5110   42.0510 O   0  0  0  0  0  0  0  0  0  0  0  0
   44.6710   34.8050   42.5040 C   0  0  0  0  0  0  0  0  0  0  0  0
   45.1220   35.0020   43.9180 C   0  0  0  0  0  0  0  0  0  0  0  0
   45.8970   35.6450   42.7800 C   0  0  0  0  0  0  0  0  0  0  0  0
   44.8040   33.8020   42.0950 H   0  0  0  0  0  0  0  0  0  0  0  0
   44.5440   35.6270   44.6040 H   0  0  0  0  0  0  0  0  0  0  0  0
   45.6270   34.1440   44.4030 H   0  0  0  0  0  0  0  0  0  0  0  0
   46.8930   35.2260   42.5460 H   0  0  0  0  0  0  0  0  0  0  0  0
   45.8100   36.7500   42.7610 H   0  0  0  0  0  0  0  0  0  0  0  0
  1  5  1  0  0  0  0
  1 22  1  0  0  0  0
  2  1  1  0  0  0  0
  3  1  1  0  0  0  0
  4  9  2  0  0  0  0
  4  5  1  0  0  0  0
  5  6  2  0  0  0  0
  6  7  1  0  0  0  0
  6 11  1  0  0  0  0
  8 12  1  0  0  0  0
  8  7  2  0  0  0  0
  9  8  1  0  0  0  0
 10  4  1  0  0  0  0
 12 13  1  0  0  0  0
 13 15  1  0  0  0  0
 13 14  1  0  0  0  0
 15 16  1  0  0  0  0
 17 15  1  0  0  0  0
 18 17  1  0  0  0  0
 19 18  1  0  0  0  0
 20 18  1  0  0  0  0
 20 12  1  0  0  0  0
 21 20  1  0  0  0  0
 22 23  1  0  0  0  0
 24 25  1  0  0  0  0
 24 23  2  0  0  0  0
 25 28  1  0  0  0  0
 26 25  1  0  0  0  0
 27 25  1  0  0  0  0
 30 28  1  0  0  0  0
 30 29  2  1  0  0  0
 30 33  1  0  0  0  0
 31 30  1  0  0  0  0
 32 31  1  0  0  0  0
 33 34  1  0  0  0  0
 34 36  1  0  0  0  0
 34 35  1  0  0  0  0
 35 39  1  0  0  0  0
 35 38  1  0  0  0  0
 36 35  1  0  0  0  0
 37 34  1  0  0  0  0
 40 36  1  0  0  0  0
 41 36  1  0  0  0  0
M  END
>  <minimizedAffinity>
-4.9686017

$$$$

 OpenBabel03252504343D

 41 43  0  0  0  0  0  0  0  0999 V2000
   35.6050   29.2450   38.0150 C   0  0  0  0  0  0  0  0  0  0  0  0
   35.1930   29.8460   37.1610 H   0  0  0  0  0  0  0  0  0  0  0  0
   34.7200   29.1080   38.6980 H   0  0  0  0  0  0  0  0  0  0  0  0
   37.2860   30.9980   37.9090 C   0  0  0  0  0  0  0  0  0  0  0  0
   36.4700   30.2260   38.7450 C   0  0  0  0  0  0  0  0  0  0  0  0
   36.5140   30.4320   40.0780 C   0  0  0  0  0  0  0  0  0  0  0  0
   37.3520   31.3820   40.5020 N   0  0  0  0  0  0  0  0  0  0  0  0
   38.1310   32.1250   39.7350 C   0  0  0  0  0  0  0  0  0  0  0  0
   38.1270   31.9530   38.3470 N   0  0  0  0  0  0  0  0  0  0  0  0
   37.2870   30.8690   36.8320 H   0  0  0  0  0  0  0  0  0  0  0  0
   35.8800   29.8270   40.6870 H   0  0  0  0  0  0  0  0  0  0  0  0
   39.0590   33.1810   40.2220 C   0  0  0  0  0  3  0  0  0  0  0  0
   38.4080   34.5620   40.0880 C   0  0  0  0  0  3  0  0  0  0  0  0
   37.6120   34.6020   40.8600 H   0  0  0  0  0  0  0  0  0  0  0  0
   39.4180   35.6590   40.1690 C   0  0  0  0  0  3  0  0  0  0  0  0
   38.9550   36.4660   40.7900 H   0  0  0  0  0  0  0  0  0  0  0  0
   40.5730   35.1550   40.7470 O   0  0  0  0  0  0  0  0  0  0  0  0
   41.1690   34.3570   39.7520 C   0  0  0  0  0  3  0  0  0  0  0  0
   41.2540   35.0550   38.8700 H   0  0  0  0  0  0  0  0  0  0  0  0
   40.3170   33.1810   39.3940 C   0  0  0  0  0  3  0  0  0  0  0  0
   40.0080   33.2330   38.3370 H   0  0  0  0  0  0  0  0  0  0  0  0
   36.2250   28.0750   37.7170 O   0  0  0  0  0  0  0  0  0  0  0  0
   36.0240   26.8350   38.2960 C   0  0  0  0  0  3  0  0  0  0  0  0
   37.0960   26.2300   38.7960 C   0  0  0  0  0  3  0  0  0  0  0  0
   37.1200   24.8750   39.4770 C   0  0  0  0  0  0  0  0  0  0  0  0
   37.0370   24.0550   38.7380 H   0  0  0  0  0  0  0  0  0  0  0  0
   36.2370   24.8710   40.1500 H   0  0  0  0  0  0  0  0  0  0  0  0
   38.2690   24.8170   40.2400 O   0  0  0  0  0  0  0  0  0  0  0  0
   36.6430   24.7240   42.3480 O   0  0  0  0  0  0  0  0  0  0  0  0
   37.9590   25.2660   41.8370 P   0  0  1  0  0  0  0  0  0  0  0  0
   39.1750   24.6620   42.8660 O   0  0  0  0  0  0  0  0  0  0  0  0
   38.7860   24.5110   43.7600 H   0  0  0  0  0  0  0  0  0  0  0  0
   37.9850   26.9470   41.9780 O   0  0  0  0  0  0  0  0  0  0  0  0
   38.0700   27.3630   43.2930 C   0  0  0  0  0  0  0  0  0  0  0  0
   36.8190   27.7840   43.9990 C   0  0  0  0  0  0  0  0  0  0  0  0
   37.8040   28.8350   43.5130 C   0  0  0  0  0  0  0  0  0  0  0  0
   38.8240   26.8690   43.9090 H   0  0  0  0  0  0  0  0  0  0  0  0
   35.8460   27.6850   43.5120 H   0  0  0  0  0  0  0  0  0  0  0  0
   36.7950   27.6380   45.0960 H   0  0  0  0  0  0  0  0  0  0  0  0
   38.3900   29.3720   44.2800 H   0  0  0  0  0  0  0  0  0  0  0  0
   37.4140   29.4440   42.6730 H   0  0  0  0  0  0  0  0  0  0  0  0
  1  3  1  0  0  0  0
  1  5  1  0  0  0  0
  2  1  1  0  0  0  0
  4  9  2  0  0  0  0
  4  5  1  0  0  0  0
  5  6  2  0  0  0  0
  6  7  1  0  0  0  0
  6 11  1  0  0  0  0
  8 12  1  0  0  0  0
  8  7  2  0  0  0  0
  9  8  1  0  0  0  0
 10  4  1  0  0  0  0
 13 15  1  0  0  0  0
 13 12  1  0  0  0  0
 13 14  1  0  0  0  0
 15 17  1  0  0  0  0
 15 16  1  0  0  0  0
 18 17  1  0  0  0  0
 19 18  1  0  0  0  0
 20 18  1  0  0  0  0
 20 12  1  0  0  0  0
 21 20  1  0  0  0  0
 22  1  1  0  0  0  0
 22 23  1  0  0  0  0
 23 24  2  0  0  0  0
 24 25  1  0  0  0  0
 25 27  1  0  0  0  0
 25 28  1  0  0  0  0
 26 25  1  0  0  0  0
 28 30  1  0  0  0  0
 30 33  1  0  0  0  0
 30 29  2  1  0  0  0
 30 31  1  0  0  0  0
 31 32  1  0  0  0  0
 33 34  1  0  0  0  0
 34 36  1  0  0  0  0
 34 37  1  0  0  0  0
 34 35  1  0  0  0  0
 35 39  1  0  0  0  0
 36 35  1  0  0  0  0
 36 40  1  0  0  0  0
 38 35  1  0  0  0  0
 41 36  1  0  0  0  0
M  END
>  <minimizedAffinity>
-4.95001888

$$$$
