
 OpenBabel03252506573D

 39 43  0  0  0  0  0  0  0  0999 V2000
   47.3310   31.3420   45.2010 C   0  0  0  0  0  0  0  0  0  0  0  0
   46.9140   32.6570   45.1070 C   0  0  0  0  0  0  0  0  0  0  0  0
   46.2530   33.3180   46.1360 C   0  0  0  0  0  0  0  0  0  0  0  0
   45.9860   32.6570   47.3260 C   0  0  0  0  0  0  0  0  0  0  0  0
   45.3870   32.9660   48.5020 N   0  0  0  0  0  0  0  0  0  0  0  0
   45.4300   31.8730   49.3070 C   0  0  0  0  0  0  0  0  0  0  0  0
   46.0600   30.8920   48.6170 N   0  0  0  0  0  0  0  0  0  0  0  0
   46.4130   31.3420   47.3960 C   0  0  0  0  0  0  0  0  0  0  0  0
   47.0670   30.6650   46.3950 C   0  0  0  0  0  0  0  0  0  0  0  0
   47.8430   30.8430   44.3920 H   0  0  0  0  0  0  0  0  0  0  0  0
   45.9250   34.3450   46.0670 H   0  0  0  0  0  0  0  0  0  0  0  0
   44.9680   33.9090   48.7190 H   0  0  0  0  0  0  0  0  0  0  0  0
   45.0350   31.7940   50.3160 H   0  0  0  0  0  0  0  0  0  0  0  0
   46.6160   35.1080   42.3740 C   0  0  0  0  0  0  0  0  0  0  0  0
   47.6880   34.7770   41.5530 C   0  0  0  0  0  0  0  0  0  0  0  0
   48.5170   33.7070   41.9390 C   0  0  0  0  0  0  0  0  0  0  0  0
   48.2290   33.0470   43.1000 N   0  0  0  0  0  0  0  0  0  0  0  0
   47.1690   33.4020   43.8770 C   0  0  0  0  0  0  0  0  0  0  0  0
   46.3740   34.4180   43.5200 N   0  0  0  0  0  0  0  0  0  0  0  0
   45.9960   35.9310   42.0580 H   0  0  0  0  0  0  0  0  0  0  0  0
   47.8570   35.3430   40.6470 H   0  0  0  0  0  0  0  0  0  0  0  0
   49.3500   33.4300   41.3260 H   0  0  0  0  0  0  0  0  0  0  0  0
   47.4740   29.2680   46.5840 C   0  0  0  0  0  0  0  0  0  0  0  0
   48.7790   28.8140   46.3970 C   0  0  0  0  0  0  0  0  0  0  0  0
   48.6790   27.4450   46.6860 C   0  0  0  0  0  0  0  0  0  0  0  0
   47.3570   27.1620   47.0220 C   0  0  0  0  0  0  0  0  0  0  0  0
   46.6840   28.3020   46.9400 O   0  0  0  0  0  0  0  0  0  0  0  0
   49.6780   29.3260   46.1060 H   0  0  0  0  0  0  0  0  0  0  0  0
   49.4660   26.6910   46.6680 H   0  0  0  0  0  0  0  0  0  0  0  0
   46.7380   25.8830   47.4040 C   0  0  0  0  0  3  0  0  0  0  0  0
   45.3540   26.0550   47.9390 C   0  0  0  0  0  3  0  0  0  0  0  0
   44.8110   26.9100   47.4890 H   0  0  0  0  0  0  0  0  0  0  0  0
   44.6120   24.7420   47.6700 C   0  0  0  0  0  3  0  0  0  0  0  0
   44.3630   24.6360   46.5920 H   0  0  0  0  0  0  0  0  0  0  0  0
   45.5370   23.7330   47.9550 O   0  0  0  0  0  0  0  0  0  0  0  0
   46.3750   23.5590   46.8330 C   0  0  0  0  0  3  0  0  0  0  0  0
   47.3110   23.0490   47.1530 H   0  0  0  0  0  0  0  0  0  0  0  0
   46.6540   24.9180   46.2290 C   0  0  0  0  0  3  0  0  0  0  0  0
   47.6930   24.8640   45.8020 H   0  0  0  0  0  0  0  0  0  0  0  0
  1  9  1  0  0  0  0
  2  1  2  0  0  0  0
  2  3  1  0  0  0  0
  3  4  2  0  0  0  0
  4  8  1  0  0  0  0
  4  5  1  0  0  0  0
  5 12  1  0  0  0  0
  5  6  1  0  0  0  0
  6 13  1  0  0  0  0
  7  6  2  0  0  0  0
  8  7  1  0  0  0  0
  9 23  1  0  0  0  0
  9  8  2  0  0  0  0
 10  1  1  0  0  0  0
 11  3  1  0  0  0  0
 14 19  1  0  0  0  0
 15 16  1  0  0  0  0
 15 14  2  0  0  0  0
 16 17  2  0  0  0  0
 17 18  1  0  0  0  0
 18  2  1  0  0  0  0
 19 18  2  0  0  0  0
 20 14  1  0  0  0  0
 21 15  1  0  0  0  0
 22 16  1  0  0  0  0
 23 27  1  0  0  0  0
 24 23  2  0  0  0  0
 24 25  1  0  0  0  0
 25 26  2  0  0  0  0
 26 30  1  0  0  0  0
 27 26  1  0  0  0  0
 28 24  1  0  0  0  0
 29 25  1  0  0  0  0
 30 31  1  0  0  0  0
 32 31  1  0  0  0  0
 33 31  1  0  0  0  0
 33 35  1  0  0  0  0
 34 33  1  0  0  0  0
 36 37  1  0  0  0  0
 36 35  1  0  0  0  0
 38 36  1  0  0  0  0
 38 30  1  0  0  0  0
 39 38  1  0  0  0  0
M  END
>  <minimizedAffinity>
-5.62719488

>  <minimizedRMSD>
0.884960175

$$$$
