
 OpenBabel03252508303D

 40 43  0  0  1  0  0  0  0  0999 V2000
   36.8940   30.3660   42.1940 N   0  0  0  0  0  0  0  0  0  0  0  0
   36.2800   30.9040   40.9760 C   0  0  2  0  0  0  0  0  0  0  0  0
   35.4490   29.9000   40.2630 C   0  0  0  0  0  0  0  0  0  0  0  0
   35.2160   28.7010   41.0490 N   0  0  0  0  0  0  0  0  0  0  0  0
   36.3870   28.1240   41.6230 C   0  0  0  0  0  0  0  0  0  0  0  0
   37.5170   29.1040   41.7520 C   0  0  2  0  0  0  0  0  0  0  0  0
   37.5780   31.0630   42.5040 H   0  0  0  0  0  0  0  0  0  0  0  0
   35.6610   31.8060   41.2130 H   0  0  0  0  0  0  0  0  0  0  0  0
   34.4240   30.2800   40.0120 H   0  0  0  0  0  0  0  0  0  0  0  0
   35.8730   29.4570   39.3460 H   0  0  0  0  0  0  0  0  0  0  0  0
   34.3870   28.7670   41.6490 H   0  0  0  0  0  0  0  0  0  0  0  0
   36.7250   27.2100   41.0540 H   0  0  0  0  0  0  0  0  0  0  0  0
   36.1450   27.7380   42.6350 H   0  0  0  0  0  0  0  0  0  0  0  0
   37.9920   29.2770   40.7900 H   0  0  0  0  0  0  0  0  0  0  0  0
   38.5510   28.6350   42.7330 C   0  0  0  0  0  3  0  0  0  0  0  0
   39.8060   29.4340   42.7600 C   0  0  0  0  0  3  0  0  0  0  0  0
   39.9900   29.8860   43.7770 H   0  0  0  0  0  0  0  0  0  0  0  0
   40.9990   28.4930   42.5530 C   0  0  0  0  0  3  0  0  0  0  0  0
   41.9080   29.1400   42.7290 H   0  0  0  0  0  0  0  0  0  0  0  0
   41.0390   27.5060   43.5110 O   0  0  0  0  0  0  0  0  0  0  0  0
   39.8440   26.8290   43.6780 C   0  0  0  0  0  3  0  0  0  0  0  0
   39.3820   27.2770   44.6060 H   0  0  0  0  0  0  0  0  0  0  0  0
   38.8730   27.1910   42.5480 C   0  0  0  0  0  3  0  0  0  0  0  0
   37.9350   26.6180   42.7570 H   0  0  0  0  0  0  0  0  0  0  0  0
   39.1900   32.2250   39.2980 C   0  0  0  0  0  0  0  0  0  0  0  0
   38.4550   31.6120   38.2750 C   0  0  0  0  0  0  0  0  0  0  0  0
   37.2940   31.0660   38.7930 C   0  0  0  0  0  0  0  0  0  0  0  0
   37.3460   31.3480   40.0930 N   0  0  0  0  0  0  0  0  0  0  0  0
   38.4500   32.0240   40.3880 N   0  0  0  0  0  0  0  0  0  0  0  0
   38.8730   31.6450   37.2500 H   0  0  0  0  0  0  0  0  0  0  0  0
   36.7230   30.5990   38.0000 H   0  0  0  0  0  0  0  0  0  0  0  0
   42.3680   34.1610   39.8500 C   0  0  0  0  0  0  0  0  0  0  0  0
   41.1290   33.5310   40.1620 C   0  0  0  0  0  0  0  0  0  0  0  0
   40.4650   32.9180   39.1210 C   0  0  0  0  0  0  0  0  0  0  0  0
   41.0010   32.9370   37.8780 N   0  0  0  0  0  0  0  0  0  0  0  0
   42.1810   33.5440   37.6090 C   0  0  0  0  0  0  0  0  0  0  0  0
   42.8360   34.1410   38.6000 N   0  0  0  0  0  0  0  0  0  0  0  0
   42.9050   34.6520   40.6660 H   0  0  0  0  0  0  0  0  0  0  0  0
   40.7070   33.5180   41.1460 H   0  0  0  0  0  0  0  0  0  0  0  0
   42.5090   33.4930   36.5740 H   0  0  0  0  0  0  0  0  0  0  0  0
  1  7  1  0  0  0  0
  2  8  1  1  0  0  0
  2  1  1  0  0  0  0
  3  2  1  0  0  0  0
  3  4  1  0  0  0  0
  4  5  1  0  0  0  0
  4 11  1  0  0  0  0
  5  6  1  0  0  0  0
  5 13  1  0  0  0  0
  6 14  1  6  0  0  0
  6  1  1  0  0  0  0
  6 15  1  0  0  0  0
  9  3  1  0  0  0  0
 10  3  1  0  0  0  0
 12  5  1  0  0  0  0
 15 16  1  0  0  0  0
 16 17  1  0  0  0  0
 18 19  1  0  0  0  0
 18 16  1  0  0  0  0
 18 20  1  0  0  0  0
 20 21  1  0  0  0  0
 21 22  1  0  0  0  0
 23 15  1  0  0  0  0
 23 24  1  0  0  0  0
 23 21  1  0  0  0  0
 25 29  2  0  0  0  0
 26 27  2  0  0  0  0
 26 25  1  0  0  0  0
 27 28  1  0  0  0  0
 28 29  1  0  0  0  0
 28  2  1  0  0  0  0
 30 26  1  0  0  0  0
 31 27  1  0  0  0  0
 32 33  1  0  0  0  0
 32 38  1  0  0  0  0
 33 39  1  0  0  0  0
 34 25  1  0  0  0  0
 34 33  2  0  0  0  0
 35 34  1  0  0  0  0
 36 35  2  0  0  0  0
 36 37  1  0  0  0  0
 37 32  2  0  0  0  0
 40 36  1  0  0  0  0
M  END
>  <minimizedAffinity>
-5.70620728

$$$$

 OpenBabel03252508303D

 40 43  0  0  1  0  0  0  0  0999 V2000
   37.1310   29.5410   42.4760 N   0  0  0  0  0  0  0  0  0  0  0  0
   37.3910   30.7200   41.6430 C   0  0  2  0  0  0  0  0  0  0  0  0
   36.3770   30.8970   40.5710 C   0  0  0  0  0  0  0  0  0  0  0  0
   35.2240   30.0310   40.7380 N   0  0  0  0  0  0  0  0  0  0  0  0
   35.5330   28.6580   40.9670 C   0  0  0  0  0  0  0  0  0  0  0  0
   36.9210   28.4540   41.5010 C   0  0  2  0  0  0  0  0  0  0  0  0
   37.9680   29.4060   43.0530 H   0  0  0  0  0  0  0  0  0  0  0  0
   37.4390   31.6430   42.2720 H   0  0  0  0  0  0  0  0  0  0  0  0
   35.9530   31.9340   40.5390 H   0  0  0  0  0  0  0  0  0  0  0  0
   36.6800   30.6280   39.5450 H   0  0  0  0  0  0  0  0  0  0  0  0
   34.4880   30.4460   41.3200 H   0  0  0  0  0  0  0  0  0  0  0  0
   35.3740   28.0330   40.0420 H   0  0  0  0  0  0  0  0  0  0  0  0
   34.8140   28.2390   41.7020 H   0  0  0  0  0  0  0  0  0  0  0  0
   37.6600   28.5580   40.7100 H   0  0  0  0  0  0  0  0  0  0  0  0
   37.0780   27.1080   42.1450 C   0  0  0  0  0  3  0  0  0  0  0  0
   38.2880   26.9520   42.9970 C   0  0  0  0  0  3  0  0  0  0  0  0
   38.0170   26.7050   44.0640 H   0  0  0  0  0  0  0  0  0  0  0  0
   39.0740   25.7230   42.5230 C   0  0  0  0  0  3  0  0  0  0  0  0
   39.8860   25.5860   43.2960 H   0  0  0  0  0  0  0  0  0  0  0  0
   38.3070   24.5810   42.5670 O   0  0  0  0  0  0  0  0  0  0  0  0
   37.0750   24.7020   41.9490 C   0  0  0  0  0  3  0  0  0  0  0  0
   36.3390   24.8540   42.7910 H   0  0  0  0  0  0  0  0  0  0  0  0
   37.0170   26.0060   41.1420 C   0  0  0  0  0  3  0  0  0  0  0  0
   35.9970   26.0360   40.6850 H   0  0  0  0  0  0  0  0  0  0  0  0
   40.3440   30.3980   39.5930 C   0  0  0  0  0  0  0  0  0  0  0  0
   40.8270   30.3040   40.9040 C   0  0  0  0  0  0  0  0  0  0  0  0
   39.7770   30.4050   41.8000 C   0  0  0  0  0  0  0  0  0  0  0  0
   38.7010   30.5590   41.0330 N   0  0  0  0  0  0  0  0  0  0  0  0
   39.0300   30.5550   39.7470 N   0  0  0  0  0  0  0  0  0  0  0  0
   41.9170   30.1670   41.0430 H   0  0  0  0  0  0  0  0  0  0  0  0
   40.1520   30.3240   42.8140 H   0  0  0  0  0  0  0  0  0  0  0  0
   42.1160   29.2300   36.4860 C   0  0  0  0  0  0  0  0  0  0  0  0
   41.2920   29.1620   37.6470 C   0  0  0  0  0  0  0  0  0  0  0  0
   41.1640   30.3190   38.3850 C   0  0  0  0  0  0  0  0  0  0  0  0
   41.8080   31.4430   37.9900 N   0  0  0  0  0  0  0  0  0  0  0  0
   42.5850   31.4790   36.8830 C   0  0  0  0  0  0  0  0  0  0  0  0
   42.7210   30.3720   36.1570 N   0  0  0  0  0  0  0  0  0  0  0  0
   42.2260   28.3190   35.8910 H   0  0  0  0  0  0  0  0  0  0  0  0
   40.7840   28.2720   37.9570 H   0  0  0  0  0  0  0  0  0  0  0  0
   43.0510   32.4370   36.6660 H   0  0  0  0  0  0  0  0  0  0  0  0
  1  7  1  0  0  0  0
  2  8  1  1  0  0  0
  2  1  1  0  0  0  0
  3  4  1  0  0  0  0
  3  2  1  0  0  0  0
  4  5  1  0  0  0  0
  4 11  1  0  0  0  0
  5  6  1  0  0  0  0
  5 13  1  0  0  0  0
  6 14  1  6  0  0  0
  6 15  1  0  0  0  0
  6  1  1  0  0  0  0
  9  3  1  0  0  0  0
 10  3  1  0  0  0  0
 12  5  1  0  0  0  0
 15 16  1  0  0  0  0
 16 17  1  0  0  0  0
 18 20  1  0  0  0  0
 18 16  1  0  0  0  0
 18 19  1  0  0  0  0
 21 20  1  0  0  0  0
 21 22  1  0  0  0  0
 23 21  1  0  0  0  0
 23 15  1  0  0  0  0
 24 23  1  0  0  0  0
 25 29  2  0  0  0  0
 25 26  1  0  0  0  0
 26 30  1  0  0  0  0
 26 27  2  0  0  0  0
 27 31  1  0  0  0  0
 28  2  1  0  0  0  0
 28 27  1  0  0  0  0
 29 28  1  0  0  0  0
 32 33  1  0  0  0  0
 33 39  1  0  0  0  0
 33 34  2  0  0  0  0
 34 25  1  0  0  0  0
 35 34  1  0  0  0  0
 36 35  2  0  0  0  0
 37 32  2  0  0  0  0
 37 36  1  0  0  0  0
 38 32  1  0  0  0  0
 40 36  1  0  0  0  0
M  END
>  <minimizedAffinity>
-5.65676689

$$$$

 OpenBabel03252508303D

 40 43  0  0  1  0  0  0  0  0999 V2000
   36.5790   31.5390   40.3830 N   0  0  0  0  0  0  0  0  0  0  0  0
   37.0550   32.3180   39.2360 C   0  0  2  0  0  0  0  0  0  0  0  0
   37.2240   31.4920   38.0130 C   0  0  0  0  0  0  0  0  0  0  0  0
   36.6410   30.1680   38.1430 N   0  0  0  0  0  0  0  0  0  0  0  0
   37.0130   29.4640   39.3260 C   0  0  0  0  0  0  0  0  0  0  0  0
   37.4830   30.3730   40.4230 C   0  0  2  0  0  0  0  0  0  0  0  0
   36.6710   32.1460   41.2030 H   0  0  0  0  0  0  0  0  0  0  0  0
   36.3610   33.1700   39.0230 H   0  0  0  0  0  0  0  0  0  0  0  0
   36.7230   31.9360   37.1130 H   0  0  0  0  0  0  0  0  0  0  0  0
   38.2550   31.2270   37.7240 H   0  0  0  0  0  0  0  0  0  0  0  0
   35.6530   30.1330   37.8710 H   0  0  0  0  0  0  0  0  0  0  0  0
   37.7880   28.6710   39.1160 H   0  0  0  0  0  0  0  0  0  0  0  0
   36.1380   28.8920   39.7000 H   0  0  0  0  0  0  0  0  0  0  0  0
   38.4950   30.7210   40.2320 H   0  0  0  0  0  0  0  0  0  0  0  0
   37.4410   29.6990   41.7630 C   0  0  0  0  0  3  0  0  0  0  0  0
   38.7090   29.7540   42.5390 C   0  0  0  0  0  3  0  0  0  0  0  0
   38.5690   30.2790   43.5280 H   0  0  0  0  0  0  0  0  0  0  0  0
   39.1130   28.3270   42.9330 C   0  0  0  0  0  3  0  0  0  0  0  0
   39.9900   28.4600   43.6320 H   0  0  0  0  0  0  0  0  0  0  0  0
   38.1280   27.7050   43.6660 O   0  0  0  0  0  0  0  0  0  0  0  0
   36.8700   27.7690   43.0960 C   0  0  0  0  0  3  0  0  0  0  0  0
   36.3350   28.5890   43.6580 H   0  0  0  0  0  0  0  0  0  0  0  0
   36.9710   28.2880   41.6550 C   0  0  0  0  0  3  0  0  0  0  0  0
   35.9220   28.3210   41.2690 H   0  0  0  0  0  0  0  0  0  0  0  0
   40.4660   33.4200   39.6620 C   0  0  0  0  0  0  0  0  0  0  0  0
   39.7470   34.1610   40.6090 C   0  0  0  0  0  0  0  0  0  0  0  0
   38.4070   33.8210   40.5530 C   0  0  0  0  0  0  0  0  0  0  0  0
   38.3380   32.9020   39.5920 N   0  0  0  0  0  0  0  0  0  0  0  0
   39.5370   32.6680   39.0730 N   0  0  0  0  0  0  0  0  0  0  0  0
   40.3110   34.8760   41.2390 H   0  0  0  0  0  0  0  0  0  0  0  0
   37.8540   34.3890   41.2910 H   0  0  0  0  0  0  0  0  0  0  0  0
   44.2040   33.2680   40.0550 C   0  0  0  0  0  0  0  0  0  0  0  0
   42.8280   33.1430   40.4050 C   0  0  0  0  0  0  0  0  0  0  0  0
   41.9090   33.5050   39.4440 C   0  0  0  0  0  0  0  0  0  0  0  0
   42.3360   33.9530   38.2400 N   0  0  0  0  0  0  0  0  0  0  0  0
   43.6500   34.0620   37.9340 C   0  0  0  0  0  0  0  0  0  0  0  0
   44.5530   33.7170   38.8480 N   0  0  0  0  0  0  0  0  0  0  0  0
   44.9450   32.9840   40.8080 H   0  0  0  0  0  0  0  0  0  0  0  0
   42.4940   32.7890   41.3580 H   0  0  0  0  0  0  0  0  0  0  0  0
   43.8710   34.4330   36.9360 H   0  0  0  0  0  0  0  0  0  0  0  0
  1  6  1  0  0  0  0
  1  7  1  0  0  0  0
  2  8  1  6  0  0  0
  2 28  1  0  0  0  0
  2  1  1  0  0  0  0
  3  4  1  0  0  0  0
  3  2  1  0  0  0  0
  4  5  1  0  0  0  0
  5 13  1  0  0  0  0
  5  6  1  0  0  0  0
  6 14  1  6  0  0  0
  6 15  1  0  0  0  0
  9  3  1  0  0  0  0
 10  3  1  0  0  0  0
 11  4  1  0  0  0  0
 12  5  1  0  0  0  0
 15 16  1  0  0  0  0
 16 18  1  0  0  0  0
 16 17  1  0  0  0  0
 18 19  1  0  0  0  0
 18 20  1  0  0  0  0
 21 22  1  0  0  0  0
 21 20  1  0  0  0  0
 23 15  1  0  0  0  0
 23 21  1  0  0  0  0
 24 23  1  0  0  0  0
 25 26  1  0  0  0  0
 26 30  1  0  0  0  0
 27 26  2  0  0  0  0
 27 31  1  0  0  0  0
 28 27  1  0  0  0  0
 29 28  1  0  0  0  0
 29 25  2  0  0  0  0
 32 33  1  0  0  0  0
 32 38  1  0  0  0  0
 33 39  1  0  0  0  0
 34 25  1  0  0  0  0
 34 33  2  0  0  0  0
 35 34  1  0  0  0  0
 36 35  2  0  0  0  0
 36 37  1  0  0  0  0
 37 32  2  0  0  0  0
 40 36  1  0  0  0  0
M  END
>  <minimizedAffinity>
-5.63366747

$$$$

 OpenBabel03252508303D

 40 43  0  0  1  0  0  0  0  0999 V2000
   39.0950   31.4320   39.5560 N   0  0  0  0  0  0  0  0  0  0  0  0
   37.7300   30.9380   39.7620 C   0  0  2  0  0  0  0  0  0  0  0  0
   36.8010   32.0000   40.2280 C   0  0  0  0  0  0  0  0  0  0  0  0
   37.3740   33.3310   40.1300 N   0  0  0  0  0  0  0  0  0  0  0  0
   38.6760   33.4660   40.6940 C   0  0  0  0  0  0  0  0  0  0  0  0
   39.4030   32.1580   40.8030 C   0  0  2  0  0  0  0  0  0  0  0  0
   39.6830   30.6040   39.4190 H   0  0  0  0  0  0  0  0  0  0  0  0
   37.3330   30.4750   38.8240 H   0  0  0  0  0  0  0  0  0  0  0  0
   35.8570   32.0500   39.6240 H   0  0  0  0  0  0  0  0  0  0  0  0
   36.5150   31.9850   41.2930 H   0  0  0  0  0  0  0  0  0  0  0  0
   37.2130   33.7730   39.2190 H   0  0  0  0  0  0  0  0  0  0  0  0
   38.6460   33.9810   41.6980 H   0  0  0  0  0  0  0  0  0  0  0  0
   39.2800   34.1480   40.0590 H   0  0  0  0  0  0  0  0  0  0  0  0
   39.0280   31.5740   41.6390 H   0  0  0  0  0  0  0  0  0  0  0  0
   40.8820   32.3540   40.9660 C   0  0  0  0  0  3  0  0  0  0  0  0
   41.3840   33.7080   40.6060 C   0  0  0  0  0  3  0  0  0  0  0  0
   41.8810   34.2140   41.4830 H   0  0  0  0  0  0  0  0  0  0  0  0
   42.5120   33.5620   39.5770 C   0  0  0  0  0  3  0  0  0  0  0  0
   42.9350   34.6040   39.4650 H   0  0  0  0  0  0  0  0  0  0  0  0
   43.5400   32.7820   40.0570 O   0  0  0  0  0  0  0  0  0  0  0  0
   43.1320   31.5690   40.5830 C   0  0  0  0  0  3  0  0  0  0  0  0
   43.1400   31.7180   41.7020 H   0  0  0  0  0  0  0  0  0  0  0  0
   41.6600   31.3130   40.2350 C   0  0  0  0  0  3  0  0  0  0  0  0
   41.4040   30.3280   40.7000 H   0  0  0  0  0  0  0  0  0  0  0  0
   38.3150   28.0900   41.9010 C   0  0  0  0  0  0  0  0  0  0  0  0
   37.2950   28.7980   42.5480 C   0  0  0  0  0  0  0  0  0  0  0  0
   36.9670   29.9250   41.8140 C   0  0  0  0  0  0  0  0  0  0  0  0
   37.7790   29.8820   40.7610 N   0  0  0  0  0  0  0  0  0  0  0  0
   38.5650   28.8130   40.8100 N   0  0  0  0  0  0  0  0  0  0  0  0
   36.9080   28.3880   43.5010 H   0  0  0  0  0  0  0  0  0  0  0  0
   36.1730   30.4680   42.3120 H   0  0  0  0  0  0  0  0  0  0  0  0
   40.5030   25.5210   43.5640 C   0  0  0  0  0  0  0  0  0  0  0  0
   40.0400   26.8070   43.1620 C   0  0  0  0  0  0  0  0  0  0  0  0
   38.9070   26.8410   42.3780 C   0  0  0  0  0  0  0  0  0  0  0  0
   38.2950   25.6840   42.0300 N   0  0  0  0  0  0  0  0  0  0  0  0
   38.7580   24.4750   42.4260 C   0  0  0  0  0  0  0  0  0  0  0  0
   39.8500   24.4220   43.1830 N   0  0  0  0  0  0  0  0  0  0  0  0
   41.4020   25.4790   44.1870 H   0  0  0  0  0  0  0  0  0  0  0  0
   40.5260   27.7200   43.4380 H   0  0  0  0  0  0  0  0  0  0  0  0
   38.1830   23.6170   42.0840 H   0  0  0  0  0  0  0  0  0  0  0  0
  1  2  1  0  0  0  0
  1  6  1  0  0  0  0
  2  8  1  6  0  0  0
  2  3  1  0  0  0  0
  2 28  1  0  0  0  0
  3 10  1  0  0  0  0
  4  3  1  0  0  0  0
  4  5  1  0  0  0  0
  5  6  1  0  0  0  0
  5 12  1  0  0  0  0
  6 15  1  0  0  0  0
  6 14  1  1  0  0  0
  7  1  1  0  0  0  0
  9  3  1  0  0  0  0
 11  4  1  0  0  0  0
 13  5  1  0  0  0  0
 16 15  1  0  0  0  0
 16 17  1  0  0  0  0
 18 20  1  0  0  0  0
 18 16  1  0  0  0  0
 19 18  1  0  0  0  0
 20 21  1  0  0  0  0
 21 22  1  0  0  0  0
 23 21  1  0  0  0  0
 23 24  1  0  0  0  0
 23 15  1  0  0  0  0
 25 34  1  0  0  0  0
 25 26  1  0  0  0  0
 26 30  1  0  0  0  0
 27 31  1  0  0  0  0
 27 26  2  0  0  0  0
 28 29  1  0  0  0  0
 28 27  1  0  0  0  0
 29 25  2  0  0  0  0
 32 38  1  0  0  0  0
 33 39  1  0  0  0  0
 33 32  2  0  0  0  0
 34 33  1  0  0  0  0
 35 34  2  0  0  0  0
 35 36  1  0  0  0  0
 36 37  2  0  0  0  0
 37 32  1  0  0  0  0
 40 36  1  0  0  0  0
M  END
>  <minimizedAffinity>
-5.46151304

$$$$

 OpenBabel03252508303D

 40 43  0  0  1  0  0  0  0  0999 V2000
   38.7400   32.5370   37.9220 N   0  0  0  0  0  0  0  0  0  0  0  0
   37.4180   32.1640   38.4340 C   0  0  2  0  0  0  0  0  0  0  0  0
   37.0340   32.9360   39.6440 C   0  0  0  0  0  0  0  0  0  0  0  0
   37.9210   34.0580   39.9000 N   0  0  0  0  0  0  0  0  0  0  0  0
   39.3100   33.7390   39.8810 C   0  0  0  0  0  0  0  0  0  0  0  0
   39.6110   32.4860   39.1110 C   0  0  2  0  0  0  0  0  0  0  0  0
   38.9840   31.8350   37.2160 H   0  0  0  0  0  0  0  0  0  0  0  0
   36.6380   32.2920   37.6420 H   0  0  0  0  0  0  0  0  0  0  0  0
   36.0130   33.3930   39.5640 H   0  0  0  0  0  0  0  0  0  0  0  0
   37.0910   32.4130   40.6130 H   0  0  0  0  0  0  0  0  0  0  0  0
   37.6330   34.9180   39.4210 H   0  0  0  0  0  0  0  0  0  0  0  0
   39.7390   33.6710   40.9230 H   0  0  0  0  0  0  0  0  0  0  0  0
   39.8700   34.5760   39.4140 H   0  0  0  0  0  0  0  0  0  0  0  0
   39.3480   31.6040   39.6890 H   0  0  0  0  0  0  0  0  0  0  0  0
   41.0580   32.4050   38.7220 C   0  0  0  0  0  3  0  0  0  0  0  0
   41.8160   33.6800   38.8340 C   0  0  0  0  0  3  0  0  0  0  0  0
   42.6800   33.5890   39.5540 H   0  0  0  0  0  0  0  0  0  0  0  0
   42.4880   33.9770   37.4870 C   0  0  0  0  0  3  0  0  0  0  0  0
   43.1530   34.8680   37.6890 H   0  0  0  0  0  0  0  0  0  0  0  0
   43.3250   32.9550   37.1000 O   0  0  0  0  0  0  0  0  0  0  0  0
   42.7440   31.7000   37.1450 C   0  0  0  0  0  3  0  0  0  0  0  0
   43.1280   31.2340   38.0990 H   0  0  0  0  0  0  0  0  0  0  0  0
   41.2300   31.8280   37.3580 C   0  0  0  0  0  3  0  0  0  0  0  0
   40.8380   30.7810   37.3930 H   0  0  0  0  0  0  0  0  0  0  0  0
   37.3470   28.8370   39.8330 C   0  0  0  0  0  0  0  0  0  0  0  0
   37.6180   28.6300   38.4740 C   0  0  0  0  0  0  0  0  0  0  0  0
   37.6800   29.8460   37.8170 C   0  0  0  0  0  0  0  0  0  0  0  0
   37.4480   30.7490   38.7670 N   0  0  0  0  0  0  0  0  0  0  0  0
   37.2540   30.1620   39.9420 N   0  0  0  0  0  0  0  0  0  0  0  0
   37.7400   27.5860   38.1260 H   0  0  0  0  0  0  0  0  0  0  0  0
   37.8970   29.6850   36.7680 H   0  0  0  0  0  0  0  0  0  0  0  0
   36.6880   26.9000   42.9900 C   0  0  0  0  0  0  0  0  0  0  0  0
   36.7690   28.0230   42.1160 C   0  0  0  0  0  0  0  0  0  0  0  0
   37.2230   27.7820   40.8370 C   0  0  0  0  0  0  0  0  0  0  0  0
   37.5650   26.5240   40.4710 N   0  0  0  0  0  0  0  0  0  0  0  0
   37.4790   25.4760   41.3230 C   0  0  0  0  0  0  0  0  0  0  0  0
   37.0430   25.6880   42.5610 N   0  0  0  0  0  0  0  0  0  0  0  0
   36.3300   27.0780   44.0080 H   0  0  0  0  0  0  0  0  0  0  0  0
   36.4980   29.0170   42.4080 H   0  0  0  0  0  0  0  0  0  0  0  0
   37.7810   24.5140   40.9150 H   0  0  0  0  0  0  0  0  0  0  0  0
  1  2  1  0  0  0  0
  1  6  1  0  0  0  0
  2  8  1  6  0  0  0
  2 28  1  0  0  0  0
  2  3  1  0  0  0  0
  3  4  1  0  0  0  0
  3 10  1  0  0  0  0
  5  4  1  0  0  0  0
  5 12  1  0  0  0  0
  6 14  1  1  0  0  0
  6  5  1  0  0  0  0
  7  1  1  0  0  0  0
  9  3  1  0  0  0  0
 11  4  1  0  0  0  0
 13  5  1  0  0  0  0
 15 16  1  0  0  0  0
 15  6  1  0  0  0  0
 16 17  1  0  0  0  0
 18 19  1  0  0  0  0
 18 16  1  0  0  0  0
 20 21  1  0  0  0  0
 20 18  1  0  0  0  0
 21 23  1  0  0  0  0
 21 22  1  0  0  0  0
 23 24  1  0  0  0  0
 23 15  1  0  0  0  0
 25 29  2  0  0  0  0
 25 34  1  0  0  0  0
 26 25  1  0  0  0  0
 27 26  2  0  0  0  0
 27 28  1  0  0  0  0
 28 29  1  0  0  0  0
 30 26  1  0  0  0  0
 31 27  1  0  0  0  0
 32 38  1  0  0  0  0
 33 39  1  0  0  0  0
 33 32  2  0  0  0  0
 34 33  1  0  0  0  0
 35 34  2  0  0  0  0
 35 36  1  0  0  0  0
 36 37  2  0  0  0  0
 37 32  1  0  0  0  0
 40 36  1  0  0  0  0
M  END
>  <minimizedAffinity>
-5.38533306

$$$$

 OpenBabel03252508303D

 40 43  0  0  1  0  0  0  0  0999 V2000
   36.1990   31.1600   40.0550 N   0  0  0  0  0  0  0  0  0  0  0  0
   37.2030   31.5360   41.0550 C   0  0  2  0  0  0  0  0  0  0  0  0
   38.2050   32.4980   40.5260 C   0  0  0  0  0  0  0  0  0  0  0  0
   37.8300   33.0500   39.2360 N   0  0  0  0  0  0  0  0  0  0  0  0
   37.4400   32.0840   38.2620 C   0  0  0  0  0  0  0  0  0  0  0  0
   36.9960   30.7870   38.8710 C   0  0  2  0  0  0  0  0  0  0  0  0
   35.6780   30.3720   40.4520 H   0  0  0  0  0  0  0  0  0  0  0  0
   36.7120   31.9660   41.9640 H   0  0  0  0  0  0  0  0  0  0  0  0
   38.3450   33.3920   41.1890 H   0  0  0  0  0  0  0  0  0  0  0  0
   39.2060   32.1000   40.2880 H   0  0  0  0  0  0  0  0  0  0  0  0
   37.2530   33.8950   39.3110 H   0  0  0  0  0  0  0  0  0  0  0  0
   38.2560   31.9020   37.5040 H   0  0  0  0  0  0  0  0  0  0  0  0
   36.6000   32.4910   37.6610 H   0  0  0  0  0  0  0  0  0  0  0  0
   37.8500   30.2030   39.2060 H   0  0  0  0  0  0  0  0  0  0  0  0
   36.1890   29.9670   37.9080 C   0  0  0  0  0  3  0  0  0  0  0  0
   35.3300   28.9240   38.5320 C   0  0  0  0  0  3  0  0  0  0  0  0
   34.2390   29.0870   38.2930 H   0  0  0  0  0  0  0  0  0  0  0  0
   35.6490   27.5680   37.8890 C   0  0  0  0  0  3  0  0  0  0  0  0
   34.8680   26.8640   38.3020 H   0  0  0  0  0  0  0  0  0  0  0  0
   35.4590   27.5940   36.5260 O   0  0  0  0  0  0  0  0  0  0  0  0
   36.0820   28.6510   35.8870 C   0  0  0  0  0  3  0  0  0  0  0  0
   35.2620   29.4050   35.7020 H   0  0  0  0  0  0  0  0  0  0  0  0
   37.0450   29.3550   36.8520 C   0  0  0  0  0  3  0  0  0  0  0  0
   37.4980   30.1960   36.2700 H   0  0  0  0  0  0  0  0  0  0  0  0
   38.3870   28.2430   41.9380 C   0  0  0  0  0  0  0  0  0  0  0  0
   39.4730   29.0820   42.2180 C   0  0  0  0  0  0  0  0  0  0  0  0
   39.1410   30.3940   41.9270 C   0  0  0  0  0  0  0  0  0  0  0  0
   37.8880   30.3270   41.4810 N   0  0  0  0  0  0  0  0  0  0  0  0
   37.4490   29.0740   41.4870 N   0  0  0  0  0  0  0  0  0  0  0  0
   40.3960   28.6160   42.6140 H   0  0  0  0  0  0  0  0  0  0  0  0
   39.9780   31.0430   42.1520 H   0  0  0  0  0  0  0  0  0  0  0  0
   37.3990   24.6150   42.0540 C   0  0  0  0  0  0  0  0  0  0  0  0
   37.2770   26.0150   41.8200 C   0  0  0  0  0  0  0  0  0  0  0  0
   38.3690   26.7940   42.1350 C   0  0  0  0  0  0  0  0  0  0  0  0
   39.4850   26.2170   42.6390 N   0  0  0  0  0  0  0  0  0  0  0  0
   39.5740   24.8820   42.8520 C   0  0  0  0  0  0  0  0  0  0  0  0
   38.5300   24.1130   42.5550 N   0  0  0  0  0  0  0  0  0  0  0  0
   36.5400   23.9840   41.8100 H   0  0  0  0  0  0  0  0  0  0  0  0
   36.3930   26.4700   41.4220 H   0  0  0  0  0  0  0  0  0  0  0  0
   40.5200   24.5340   43.2600 H   0  0  0  0  0  0  0  0  0  0  0  0
  1  7  1  0  0  0  0
  1  2  1  0  0  0  0
  2 28  1  0  0  0  0
  2  8  1  1  0  0  0
  3  2  1  0  0  0  0
  3  9  1  0  0  0  0
  4 11  1  0  0  0  0
  4  3  1  0  0  0  0
  5  6  1  0  0  0  0
  5  4  1  0  0  0  0
  6 14  1  1  0  0  0
  6  1  1  0  0  0  0
 10  3  1  0  0  0  0
 12  5  1  0  0  0  0
 13  5  1  0  0  0  0
 15 16  1  0  0  0  0
 15  6  1  0  0  0  0
 17 16  1  0  0  0  0
 18 19  1  0  0  0  0
 18 16  1  0  0  0  0
 20 18  1  0  0  0  0
 21 20  1  0  0  0  0
 21 23  1  0  0  0  0
 22 21  1  0  0  0  0
 23 15  1  0  0  0  0
 24 23  1  0  0  0  0
 25 34  1  0  0  0  0
 25 26  1  0  0  0  0
 26 30  1  0  0  0  0
 27 31  1  0  0  0  0
 27 26  2  0  0  0  0
 28 29  1  0  0  0  0
 28 27  1  0  0  0  0
 29 25  2  0  0  0  0
 32 37  1  0  0  0  0
 33 32  2  0  0  0  0
 33 34  1  0  0  0  0
 34 35  2  0  0  0  0
 35 36  1  0  0  0  0
 36 40  1  0  0  0  0
 37 36  2  0  0  0  0
 38 32  1  0  0  0  0
 39 33  1  0  0  0  0
M  END
>  <minimizedAffinity>
-5.35795546

$$$$

 OpenBabel03252508303D

 40 43  0  0  1  0  0  0  0  0999 V2000
   39.4550   25.4720   40.8940 N   0  0  0  0  0  0  0  0  0  0  0  0
   40.0810   26.1010   42.0610 C   0  0  2  0  0  0  0  0  0  0  0  0
   39.8600   25.3320   43.3130 C   0  0  0  0  0  0  0  0  0  0  0  0
   39.3050   24.0110   43.0710 N   0  0  0  0  0  0  0  0  0  0  0  0
   38.1660   23.9880   42.2140 C   0  0  0  0  0  0  0  0  0  0  0  0
   38.0740   25.1990   41.3330 C   0  0  2  0  0  0  0  0  0  0  0  0
   39.5060   26.1590   40.1350 H   0  0  0  0  0  0  0  0  0  0  0  0
   41.1790   26.2390   41.8920 H   0  0  0  0  0  0  0  0  0  0  0  0
   40.8080   25.1430   43.8820 H   0  0  0  0  0  0  0  0  0  0  0  0
   39.1180   25.7320   44.0240 H   0  0  0  0  0  0  0  0  0  0  0  0
   40.0220   23.2950   42.9130 H   0  0  0  0  0  0  0  0  0  0  0  0
   37.2080   23.8520   42.7950 H   0  0  0  0  0  0  0  0  0  0  0  0
   38.2170   23.0890   41.5650 H   0  0  0  0  0  0  0  0  0  0  0  0
   37.7180   26.0600   41.8940 H   0  0  0  0  0  0  0  0  0  0  0  0
   37.1660   24.9680   40.1610 C   0  0  0  0  0  3  0  0  0  0  0  0
   36.1760   23.8710   40.3340 C   0  0  0  0  0  3  0  0  0  0  0  0
   35.1170   24.2500   40.2460 H   0  0  0  0  0  0  0  0  0  0  0  0
   36.3140   22.8880   39.1650 C   0  0  0  0  0  3  0  0  0  0  0  0
   35.4460   22.1750   39.2860 H   0  0  0  0  0  0  0  0  0  0  0  0
   36.1310   23.5120   37.9520 O   0  0  0  0  0  0  0  0  0  0  0  0
   36.8890   24.6560   37.7830 C   0  0  0  0  0  3  0  0  0  0  0  0
   36.1760   25.5100   37.9770 H   0  0  0  0  0  0  0  0  0  0  0  0
   37.9360   24.7630   38.9000 C   0  0  0  0  0  3  0  0  0  0  0  0
   38.4970   25.7110   38.7020 H   0  0  0  0  0  0  0  0  0  0  0  0
   38.8430   29.4850   41.8610 C   0  0  0  0  0  0  0  0  0  0  0  0
   38.4800   29.0650   43.1460 C   0  0  0  0  0  0  0  0  0  0  0  0
   38.9110   27.7660   43.3550 C   0  0  0  0  0  0  0  0  0  0  0  0
   39.5110   27.4290   42.2160 N   0  0  0  0  0  0  0  0  0  0  0  0
   39.4720   28.4300   41.3450 N   0  0  0  0  0  0  0  0  0  0  0  0
   37.9320   29.7820   43.7880 H   0  0  0  0  0  0  0  0  0  0  0  0
   38.6360   27.4450   44.3530 H   0  0  0  0  0  0  0  0  0  0  0  0
   39.0370   33.0980   40.8300 C   0  0  0  0  0  0  0  0  0  0  0  0
   39.4270   31.8710   41.4390 C   0  0  0  0  0  0  0  0  0  0  0  0
   38.5650   30.8050   41.2960 C   0  0  0  0  0  0  0  0  0  0  0  0
   37.4130   30.9600   40.6020 N   0  0  0  0  0  0  0  0  0  0  0  0
   37.0660   32.1390   40.0340 C   0  0  0  0  0  0  0  0  0  0  0  0
   37.8850   33.1790   40.1600 N   0  0  0  0  0  0  0  0  0  0  0  0
   39.7110   33.9520   40.9350 H   0  0  0  0  0  0  0  0  0  0  0  0
   40.3390   31.7510   41.9880 H   0  0  0  0  0  0  0  0  0  0  0  0
   36.1180   32.1420   39.5020 H   0  0  0  0  0  0  0  0  0  0  0  0
  1  6  1  0  0  0  0
  1  2  1  0  0  0  0
  2  8  1  6  0  0  0
  2 28  1  0  0  0  0
  2  3  1  0  0  0  0
  3  9  1  0  0  0  0
  3 10  1  0  0  0  0
  4  3  1  0  0  0  0
  5 12  1  0  0  0  0
  5  4  1  0  0  0  0
  6 14  1  1  0  0  0
  6  5  1  0  0  0  0
  7  1  1  0  0  0  0
 11  4  1  0  0  0  0
 13  5  1  0  0  0  0
 15 16  1  0  0  0  0
 15  6  1  0  0  0  0
 17 16  1  0  0  0  0
 18 19  1  0  0  0  0
 18 16  1  0  0  0  0
 20 18  1  0  0  0  0
 21 20  1  0  0  0  0
 21 22  1  0  0  0  0
 21 23  1  0  0  0  0
 23 15  1  0  0  0  0
 24 23  1  0  0  0  0
 25 26  1  0  0  0  0
 26 27  2  0  0  0  0
 26 30  1  0  0  0  0
 27 31  1  0  0  0  0
 28 27  1  0  0  0  0
 29 25  2  0  0  0  0
 29 28  1  0  0  0  0
 32 38  1  0  0  0  0
 32 33  1  0  0  0  0
 33 39  1  0  0  0  0
 34 33  2  0  0  0  0
 34 25  1  0  0  0  0
 35 34  1  0  0  0  0
 36 37  1  0  0  0  0
 36 35  2  0  0  0  0
 37 32  2  0  0  0  0
 40 36  1  0  0  0  0
M  END
>  <minimizedAffinity>
-5.2258029

$$$$

 OpenBabel03252508303D

 40 43  0  0  1  0  0  0  0  0999 V2000
   36.6070   30.9510   38.8460 N   0  0  0  0  0  0  0  0  0  0  0  0
   37.8860   30.9130   39.5620 C   0  0  2  0  0  0  0  0  0  0  0  0
   39.0370   30.6420   38.6620 C   0  0  0  0  0  0  0  0  0  0  0  0
   38.6860   30.7310   37.2560 N   0  0  0  0  0  0  0  0  0  0  0  0
   37.5230   29.9960   36.8810 C   0  0  0  0  0  0  0  0  0  0  0  0
   36.6120   29.7150   38.0400 C   0  0  2  0  0  0  0  0  0  0  0  0
   35.8760   30.9590   39.5630 H   0  0  0  0  0  0  0  0  0  0  0  0
   38.0570   31.8710   40.1130 H   0  0  0  0  0  0  0  0  0  0  0  0
   39.8770   31.3740   38.7930 H   0  0  0  0  0  0  0  0  0  0  0  0
   39.4720   29.6280   38.6940 H   0  0  0  0  0  0  0  0  0  0  0  0
   38.7820   31.6780   36.8750 H   0  0  0  0  0  0  0  0  0  0  0  0
   37.7860   29.0370   36.3490 H   0  0  0  0  0  0  0  0  0  0  0  0
   36.9530   30.5760   36.1250 H   0  0  0  0  0  0  0  0  0  0  0  0
   37.0040   28.9090   38.6550 H   0  0  0  0  0  0  0  0  0  0  0  0
   35.2270   29.3570   37.5870 C   0  0  0  0  0  3  0  0  0  0  0  0
   34.5990   28.2190   38.3110 C   0  0  0  0  0  3  0  0  0  0  0  0
   33.6450   28.5290   38.8260 H   0  0  0  0  0  0  0  0  0  0  0  0
   34.1420   27.1710   37.2880 C   0  0  0  0  0  3  0  0  0  0  0  0
   33.5540   26.4180   37.8910 H   0  0  0  0  0  0  0  0  0  0  0  0
   33.2600   27.7030   36.3750 O   0  0  0  0  0  0  0  0  0  0  0  0
   33.6950   28.8760   35.7850 C   0  0  0  0  0  3  0  0  0  0  0  0
   33.1440   29.6990   36.3270 H   0  0  0  0  0  0  0  0  0  0  0  0
   35.1740   29.1150   36.1160 C   0  0  0  0  0  3  0  0  0  0  0  0
   35.4460   30.0780   35.6170 H   0  0  0  0  0  0  0  0  0  0  0  0
   38.1430   28.0290   41.7160 C   0  0  0  0  0  0  0  0  0  0  0  0
   37.1830   28.8360   42.3390 C   0  0  0  0  0  0  0  0  0  0  0  0
   36.9840   29.9870   41.5980 C   0  0  0  0  0  0  0  0  0  0  0  0
   37.8100   29.8610   40.5620 N   0  0  0  0  0  0  0  0  0  0  0  0
   38.4860   28.7210   40.6300 N   0  0  0  0  0  0  0  0  0  0  0  0
   36.7370   28.4690   43.2840 H   0  0  0  0  0  0  0  0  0  0  0  0
   36.2350   30.6070   42.0770 H   0  0  0  0  0  0  0  0  0  0  0  0
   38.5930   24.3460   42.3380 C   0  0  0  0  0  0  0  0  0  0  0  0
   38.0450   25.5400   41.7850 C   0  0  0  0  0  0  0  0  0  0  0  0
   38.5990   26.7290   42.2070 C   0  0  0  0  0  0  0  0  0  0  0  0
   39.6120   26.7190   43.1050 N   0  0  0  0  0  0  0  0  0  0  0  0
   40.1120   25.5690   43.6150 C   0  0  0  0  0  0  0  0  0  0  0  0
   39.5920   24.4100   43.2200 N   0  0  0  0  0  0  0  0  0  0  0  0
   38.1630   23.3940   42.0120 H   0  0  0  0  0  0  0  0  0  0  0  0
   37.2440   25.5450   41.0750 H   0  0  0  0  0  0  0  0  0  0  0  0
   40.9250   25.6860   44.3280 H   0  0  0  0  0  0  0  0  0  0  0  0
  1  2  1  0  0  0  0
  1  7  1  0  0  0  0
  2  8  1  1  0  0  0
  2 28  1  0  0  0  0
  3 10  1  0  0  0  0
  3  9  1  0  0  0  0
  3  2  1  0  0  0  0
  4  3  1  0  0  0  0
  5  4  1  0  0  0  0
  5  6  1  0  0  0  0
  6 14  1  1  0  0  0
  6  1  1  0  0  0  0
 11  4  1  0  0  0  0
 12  5  1  0  0  0  0
 13  5  1  0  0  0  0
 15  6  1  0  0  0  0
 15 16  1  0  0  0  0
 16 17  1  0  0  0  0
 18 19  1  0  0  0  0
 18 16  1  0  0  0  0
 20 18  1  0  0  0  0
 21 23  1  0  0  0  0
 21 22  1  0  0  0  0
 21 20  1  0  0  0  0
 23 15  1  0  0  0  0
 24 23  1  0  0  0  0
 25 34  1  0  0  0  0
 25 26  1  0  0  0  0
 26 30  1  0  0  0  0
 27 31  1  0  0  0  0
 27 26  2  0  0  0  0
 28 29  1  0  0  0  0
 28 27  1  0  0  0  0
 29 25  2  0  0  0  0
 32 37  1  0  0  0  0
 33 34  1  0  0  0  0
 33 32  2  0  0  0  0
 34 35  2  0  0  0  0
 35 36  1  0  0  0  0
 36 40  1  0  0  0  0
 37 36  2  0  0  0  0
 38 32  1  0  0  0  0
 39 33  1  0  0  0  0
M  END
>  <minimizedAffinity>
-5.20966244

$$$$

 OpenBabel03252508303D

 40 43  0  0  1  0  0  0  0  0999 V2000
   40.2060   29.6310   40.9280 N   0  0  0  0  0  0  0  0  0  0  0  0
   40.4340   30.7330   39.9890 C   0  0  2  0  0  0  0  0  0  0  0  0
   40.7080   32.0220   40.6760 C   0  0  0  0  0  0  0  0  0  0  0  0
   40.9470   31.8610   42.1000 N   0  0  0  0  0  0  0  0  0  0  0  0
   39.9720   31.0800   42.7860 C   0  0  0  0  0  0  0  0  0  0  0  0
   39.2080   30.1660   41.8730 C   0  0  2  0  0  0  0  0  0  0  0  0
   39.8510   28.8470   40.3710 H   0  0  0  0  0  0  0  0  0  0  0  0
   41.2750   30.4910   39.2930 H   0  0  0  0  0  0  0  0  0  0  0  0
   41.6270   32.5360   40.2890 H   0  0  0  0  0  0  0  0  0  0  0  0
   39.8930   32.7650   40.6940 H   0  0  0  0  0  0  0  0  0  0  0  0
   41.9310   31.6820   42.3260 H   0  0  0  0  0  0  0  0  0  0  0  0
   39.2600   31.7250   43.3790 H   0  0  0  0  0  0  0  0  0  0  0  0
   40.4770   30.4590   43.5550 H   0  0  0  0  0  0  0  0  0  0  0  0
   38.4630   30.7190   41.3050 H   0  0  0  0  0  0  0  0  0  0  0  0
   38.5280   29.0630   42.6290 C   0  0  0  0  0  3  0  0  0  0  0  0
   39.3690   27.8630   42.8900 C   0  0  0  0  0  3  0  0  0  0  0  0
   39.4810   27.6660   43.9950 H   0  0  0  0  0  0  0  0  0  0  0  0
   38.6380   26.6210   42.3660 C   0  0  0  0  0  3  0  0  0  0  0  0
   39.2600   25.7490   42.7260 H   0  0  0  0  0  0  0  0  0  0  0  0
   37.4010   26.4750   42.9520 O   0  0  0  0  0  0  0  0  0  0  0  0
   36.6180   27.6150   42.9130 C   0  0  0  0  0  3  0  0  0  0  0  0
   36.7070   28.0650   43.9450 H   0  0  0  0  0  0  0  0  0  0  0  0
   37.2490   28.6550   41.9790 C   0  0  0  0  0  3  0  0  0  0  0  0
   36.5700   29.5430   42.0090 H   0  0  0  0  0  0  0  0  0  0  0  0
   37.4710   30.4790   37.9430 C   0  0  0  0  0  0  0  0  0  0  0  0
   37.6320   31.8560   38.1400 C   0  0  0  0  0  0  0  0  0  0  0  0
   38.7550   32.0920   38.9140 C   0  0  0  0  0  0  0  0  0  0  0  0
   39.2420   30.8800   39.1700 N   0  0  0  0  0  0  0  0  0  0  0  0
   38.4950   29.9400   38.6040 N   0  0  0  0  0  0  0  0  0  0  0  0
   36.8880   32.5330   37.6790 H   0  0  0  0  0  0  0  0  0  0  0  0
   38.8830   33.1580   39.0590 H   0  0  0  0  0  0  0  0  0  0  0  0
   34.3110   28.7420   36.8700 C   0  0  0  0  0  0  0  0  0  0  0  0
   35.2820   29.3050   37.7490 C   0  0  0  0  0  0  0  0  0  0  0  0
   36.4000   29.8590   37.1650 C   0  0  0  0  0  0  0  0  0  0  0  0
   36.5300   29.8490   35.8170 N   0  0  0  0  0  0  0  0  0  0  0  0
   35.5910   29.3070   35.0060 C   0  0  0  0  0  0  0  0  0  0  0  0
   34.5050   28.7670   35.5510 N   0  0  0  0  0  0  0  0  0  0  0  0
   33.4190   28.2980   37.3210 H   0  0  0  0  0  0  0  0  0  0  0  0
   35.1770   29.3110   38.8150 H   0  0  0  0  0  0  0  0  0  0  0  0
   35.8060   29.3570   33.9400 H   0  0  0  0  0  0  0  0  0  0  0  0
  1  6  1  0  0  0  0
  2  8  1  6  0  0  0
  2  3  1  0  0  0  0
  2  1  1  0  0  0  0
  3 10  1  0  0  0  0
  3  4  1  0  0  0  0
  4 11  1  0  0  0  0
  4  5  1  0  0  0  0
  5 12  1  0  0  0  0
  5 13  1  0  0  0  0
  6 14  1  6  0  0  0
  6 15  1  0  0  0  0
  6  5  1  0  0  0  0
  7  1  1  0  0  0  0
  9  3  1  0  0  0  0
 15 16  1  0  0  0  0
 16 17  1  0  0  0  0
 18 19  1  0  0  0  0
 18 16  1  0  0  0  0
 18 20  1  0  0  0  0
 21 20  1  0  0  0  0
 21 22  1  0  0  0  0
 23 24  1  0  0  0  0
 23 15  1  0  0  0  0
 23 21  1  0  0  0  0
 25 26  1  0  0  0  0
 25 29  2  0  0  0  0
 26 27  2  0  0  0  0
 27 31  1  0  0  0  0
 27 28  1  0  0  0  0
 28  2  1  0  0  0  0
 29 28  1  0  0  0  0
 30 26  1  0  0  0  0
 32 38  1  0  0  0  0
 32 33  1  0  0  0  0
 33 39  1  0  0  0  0
 34 33  2  0  0  0  0
 34 25  1  0  0  0  0
 35 34  1  0  0  0  0
 36 37  1  0  0  0  0
 36 35  2  0  0  0  0
 37 32  2  0  0  0  0
 40 36  1  0  0  0  0
M  END
>  <minimizedAffinity>
-5.20826197

$$$$
