
 OpenBabel03252509043D

 49 51  0  0  1  0  0  0  0  0999 V2000
   47.0690   34.3360   43.3160 N   0  0  0  0  0  0  0  0  0  0  0  0
   46.6920   34.9180   42.0870 C   0  0  0  0  0  0  0  0  0  0  0  0
   45.2290   34.7570   41.7220 C   0  0  0  0  0  0  0  0  0  0  0  0
   44.3000   34.7530   42.9040 C   0  0  0  0  0  0  0  0  0  0  0  0
   45.0360   35.0120   44.1990 C   0  0  0  0  0  0  0  0  0  0  0  0
   46.1360   33.8820   44.2260 C   0  0  2  0  0  0  0  0  0  0  0  0
   47.2570   34.6130   41.1980 H   0  0  0  0  0  0  0  0  0  0  0  0
   46.8640   36.0250   42.1750 H   0  0  0  0  0  0  0  0  0  0  0  0
   45.1290   33.8480   41.0990 H   0  0  0  0  0  0  0  0  0  0  0  0
   44.9340   35.6170   41.0780 H   0  0  0  0  0  0  0  0  0  0  0  0
   43.4880   35.5130   42.8090 H   0  0  0  0  0  0  0  0  0  0  0  0
   43.7980   33.7830   43.0050 H   0  0  0  0  0  0  0  0  0  0  0  0
   44.3630   34.8040   45.0360 H   0  0  0  0  0  0  0  0  0  0  0  0
   45.5350   36.0020   44.2360 H   0  0  0  0  0  0  0  0  0  0  0  0
   45.5610   32.9660   43.9810 H   0  0  0  0  0  0  0  0  0  0  0  0
   48.3600   33.7020   43.2900 C   0  0  0  0  0  0  0  0  0  0  0  0
   48.7380   33.6450   44.3340 H   0  0  0  0  0  0  0  0  0  0  0  0
   49.0190   34.3290   42.6640 H   0  0  0  0  0  0  0  0  0  0  0  0
   48.2240   32.3280   42.7550 C   0  0  0  0  0  0  0  0  0  0  0  0
   48.2590   31.5280   43.5160 H   0  0  0  0  0  0  0  0  0  0  0  0
   47.2350   32.1870   42.2410 H   0  0  0  0  0  0  0  0  0  0  0  0
   51.5450   31.8970   41.0560 C   0  0  0  0  0  0  0  0  0  0  0  0
   50.5630   32.1220   42.0370 C   0  0  0  0  0  0  0  0  0  0  0  0
   49.2400   32.0880   41.7020 C   0  0  0  0  0  0  0  0  0  0  0  0
   48.9350   31.8360   40.4250 N   0  0  0  0  0  0  0  0  0  0  0  0
   49.8520   31.6190   39.4780 C   0  0  0  0  0  0  0  0  0  0  0  0
   51.1640   31.6450   39.7720 N   0  0  0  0  0  0  0  0  0  0  0  0
   52.6080   31.9230   41.3130 H   0  0  0  0  0  0  0  0  0  0  0  0
   50.9100   32.3200   43.0490 H   0  0  0  0  0  0  0  0  0  0  0  0
   49.4310   31.4280   38.4870 H   0  0  0  0  0  0  0  0  0  0  0  0
   46.5880   33.9520   45.5250 O   0  0  0  0  0  0  0  0  0  0  0  0
   45.8640   31.4030   45.4880 O   0  0  0  0  0  0  0  0  0  0  0  0
   46.2590   32.5540   46.4120 P   0  0  2  0  0  0  0  0  0  0  0  0
   44.8800   32.9060   47.3420 O   0  0  0  0  0  0  0  0  0  0  0  0
   44.9890   32.6700   48.2930 H   0  0  0  0  0  0  0  0  0  0  0  0
   47.5090   32.1520   47.4470 O   0  0  0  0  0  0  0  0  0  0  0  0
   47.1700   30.9520   48.0770 C   0  0  0  0  0  0  0  0  0  0  0  0
   46.2400   31.1440   48.6740 H   0  0  0  0  0  0  0  0  0  0  0  0
   47.0190   30.1380   47.3650 H   0  0  0  0  0  0  0  0  0  0  0  0
   48.2870   30.6620   49.0570 C   0  0  0  0  0  3  0  0  0  0  0  0
   49.2190   31.8360   49.2490 C   0  0  0  0  0  3  0  0  0  0  0  0
   49.8090   31.9910   48.3230 H   0  0  0  0  0  0  0  0  0  0  0  0
   50.2140   31.3860   50.3220 C   0  0  0  0  0  3  0  0  0  0  0  0
   50.9800   32.1620   50.5250 H   0  0  0  0  0  0  0  0  0  0  0  0
   50.8850   30.2640   49.8910 O   0  0  0  0  0  0  0  0  0  0  0  0
   50.0950   29.1580   49.6670 C   0  0  0  0  0  3  0  0  0  0  0  0
   50.7660   28.3480   49.3250 H   0  0  0  0  0  0  0  0  0  0  0  0
   49.0670   29.4590   48.5840 C   0  0  0  0  0  3  0  0  0  0  0  0
   49.6000   29.7470   47.6590 H   0  0  0  0  0  0  0  0  0  0  0  0
  1  6  1  0  0  0  0
  2  8  1  0  0  0  0
  2  1  1  0  0  0  0
  3  2  1  0  0  0  0
  3  4  1  0  0  0  0
  4 12  1  0  0  0  0
  4  5  1  0  0  0  0
  5  6  1  0  0  0  0
  5 14  1  0  0  0  0
  5 13  1  0  0  0  0
  6 15  1  6  0  0  0
  6 31  1  0  0  0  0
  7  2  1  0  0  0  0
  9  3  1  0  0  0  0
 10  3  1  0  0  0  0
 11  4  1  0  0  0  0
 16  1  1  0  0  0  0
 16 17  1  0  0  0  0
 18 16  1  0  0  0  0
 19 16  1  0  0  0  0
 19 20  1  0  0  0  0
 21 19  1  0  0  0  0
 22 28  1  0  0  0  0
 22 23  1  0  0  0  0
 23 29  1  0  0  0  0
 24 23  2  0  0  0  0
 24 19  1  0  0  0  0
 25 24  1  0  0  0  0
 26 27  1  0  0  0  0
 26 25  2  0  0  0  0
 27 22  2  0  0  0  0
 30 26  1  0  0  0  0
 31 33  1  0  0  0  0
 33 32  2  6  0  0  0
 33 34  1  0  0  0  0
 33 36  1  0  0  0  0
 34 35  1  0  0  0  0
 36 37  1  0  0  0  0
 37 38  1  0  0  0  0
 37 40  1  0  0  0  0
 39 37  1  0  0  0  0
 40 41  1  0  0  0  0
 41 43  1  0  0  0  0
 42 41  1  0  0  0  0
 43 44  1  0  0  0  0
 45 43  1  0  0  0  0
 46 45  1  0  0  0  0
 47 46  1  0  0  0  0
 48 40  1  0  0  0  0
 48 46  1  0  0  0  0
 49 48  1  0  0  0  0
M  END
>  <minimizedAffinity>
-4.96818352

>  <minimizedRMSD>
2.85778403

$$$$
