
 OpenBabel03252504113D

 26 27  0  0  0  0  0  0  0  0999 V2000
   46.8560   33.4940   43.8030 C   0  0  0  0  0  0  0  0  0  0  0  0
   45.9080   34.5260   43.8070 C   0  0  0  0  0  0  0  0  0  0  0  0
   45.1710   34.7450   44.9720 C   0  0  0  0  0  0  0  0  0  0  0  0
   45.4050   33.9520   46.0440 N   0  0  0  0  0  0  0  0  0  0  0  0
   46.3280   32.9670   46.0000 C   0  0  0  0  0  0  0  0  0  0  0  0
   47.0510   32.7310   44.8980 N   0  0  0  0  0  0  0  0  0  0  0  0
   44.4400   35.5420   44.9700 H   0  0  0  0  0  0  0  0  0  0  0  0
   46.5980   32.0890   47.1690 C   0  0  0  0  0  0  0  0  0  0  0  0
   46.6570   30.6360   46.8420 C   0  0  0  0  0  0  0  0  0  0  0  0
   47.6940   30.3150   46.5790 H   0  0  0  0  0  0  0  0  0  0  0  0
   46.2040   29.7330   47.9610 C   0  0  0  0  0  0  0  0  0  0  0  0
   46.0400   28.7180   47.5550 H   0  0  0  0  0  0  0  0  0  0  0  0
   44.9630   30.1990   48.3960 O   0  0  0  0  0  0  0  0  0  0  0  0
   45.2390   31.3560   49.1470 C   0  0  0  0  0  0  0  0  0  0  0  0
   46.1670   31.1470   49.7390 H   0  0  0  0  0  0  0  0  0  0  0  0
   45.5610   32.4600   48.1940 C   0  0  0  0  0  0  0  0  0  0  0  0
   45.9080   33.3590   48.7500 H   0  0  0  0  0  0  0  0  0  0  0  0
   45.7300   35.3440   42.5750 C   0  0  0  0  0  0  0  0  0  0  0  0
   46.9630   35.8930   42.2080 F   0  0  0  0  0  0  0  0  0  0  0  0
   45.3480   34.5210   41.5460 F   0  0  0  0  0  0  0  0  0  0  0  0
   44.8540   36.3720   42.7120 F   0  0  0  0  0  0  0  0  0  0  0  0
   47.5530   33.2990   42.6740 O   0  0  0  0  0  0  0  0  0  0  0  0
   48.9530   33.4100   42.4990 C   0  0  0  0  0  0  0  0  0  0  0  0
   49.3750   34.4980   43.2630 F   0  0  0  0  0  0  0  0  0  0  0  0
   49.5540   32.2410   42.8880 F   0  0  0  0  0  0  0  0  0  0  0  0
   49.2420   33.7490   41.1940 F   0  0  0  0  0  0  0  0  0  0  0  0
  1  2  2  0  0  0  0
  1  6  1  0  0  0  0
  2  3  1  0  0  0  0
  3  4  2  0  0  0  0
  5  4  1  0  0  0  0
  5  8  1  0  0  0  0
  6  5  2  0  0  0  0
  7  3  1  0  0  0  0
  8 16  1  0  0  0  0
  9  8  1  0  0  0  0
  9 11  1  0  0  0  0
 10  9  1  0  0  0  0
 11 13  1  0  0  0  0
 12 11  1  0  0  0  0
 13 14  1  0  0  0  0
 14 15  1  0  0  0  0
 16 17  1  0  0  0  0
 16 14  1  0  0  0  0
 18 21  1  0  0  0  0
 18  2  1  0  0  0  0
 19 18  1  0  0  0  0
 20 18  1  0  0  0  0
 22  1  1  0  0  0  0
 23 22  1  0  0  0  0
 23 25  1  0  0  0  0
 23 24  1  0  0  0  0
 26 23  1  0  0  0  0
M  END
>  <minimizedAffinity>
-5.61157846

>  <minimizedRMSD>
2.21688724

$$$$
