
 OpenBabel03252506473D

 43 46  0  0  1  0  0  0  0  0999 V2000
   49.3220   33.3490   41.2890 N   0  0  1  0  0  0  0  0  0  0  0  0
   50.6000   33.0200   41.9030 C   0  0  0  0  0  0  0  0  0  0  0  0
   51.1510   31.7010   41.4510 C   0  0  0  0  0  0  0  0  0  0  0  0
   50.2550   30.6000   41.9990 C   0  0  0  0  0  0  0  0  0  0  0  0
   48.8090   31.0320   41.9580 C   0  0  0  0  0  0  0  0  0  0  0  0
   48.6450   32.1420   40.9490 C   0  0  2  0  0  0  0  0  0  0  0  0
   50.5450   32.9910   43.0070 H   0  0  0  0  0  0  0  0  0  0  0  0
   51.3180   33.8260   41.6320 H   0  0  0  0  0  0  0  0  0  0  0  0
   52.1540   31.6070   41.9070 H   0  0  0  0  0  0  0  0  0  0  0  0
   51.2510   31.6320   40.3430 H   0  0  0  0  0  0  0  0  0  0  0  0
   50.5800   30.2610   42.9960 H   0  0  0  0  0  0  0  0  0  0  0  0
   50.3890   29.7390   41.3120 H   0  0  0  0  0  0  0  0  0  0  0  0
   48.1220   30.2200   41.7550 H   0  0  0  0  0  0  0  0  0  0  0  0
   48.5800   31.4650   42.9650 H   0  0  0  0  0  0  0  0  0  0  0  0
   47.5510   32.3890   40.9420 H   0  0  0  0  0  0  0  0  0  0  0  0
   47.2640   34.7410   41.9550 C   0  0  1  0  0  0  0  0  0  0  0  0
   48.4200   35.6070   41.7580 C   0  0  0  0  0  0  0  0  0  0  0  0
   48.6530   34.2070   42.2150 C   0  0  2  0  0  0  0  0  0  0  0  0
   46.7850   34.2170   41.0850 H   0  0  0  0  0  0  0  0  0  0  0  0
   48.7090   35.8830   40.7180 H   0  0  0  0  0  0  0  0  0  0  0  0
   48.5930   36.4380   42.4830 H   0  0  0  0  0  0  0  0  0  0  0  0
   48.9110   34.0740   43.2850 H   0  0  0  0  0  0  0  0  0  0  0  0
   45.5240   36.0850   43.1590 C   0  0  0  0  0  0  0  0  0  0  0  0
   46.3470   34.9350   43.0850 C   0  0  0  0  0  0  0  0  0  0  0  0
   46.2440   34.0080   44.1210 C   0  0  0  0  0  0  0  0  0  0  0  0
   45.3720   34.2600   45.1260 N   0  0  0  0  0  0  0  0  0  0  0  0
   44.6030   35.3540   45.1770 C   0  0  0  0  0  0  0  0  0  0  0  0
   44.6690   36.2840   44.1910 N   0  0  0  0  0  0  0  0  0  0  0  0
   45.5800   36.8350   42.3600 H   0  0  0  0  0  0  0  0  0  0  0  0
   46.8590   33.1070   44.1050 H   0  0  0  0  0  0  0  0  0  0  0  0
   43.9050   35.5620   45.9770 H   0  0  0  0  0  0  0  0  0  0  0  0
   48.9580   31.6720   39.6330 N   0  0  0  0  0  0  0  0  0  0  0  0
   49.9090   31.9980   39.3690 H   0  0  0  0  0  0  0  0  0  0  0  0
   47.9630   31.7830   38.6600 C   0  0  0  0  0  3  0  0  0  0  0  0
   48.5760   31.3910   37.3140 C   0  0  0  0  0  3  0  0  0  0  0  0
   47.7960   31.1000   36.6010 H   0  0  0  0  0  0  0  0  0  0  0  0
   49.3120   32.5840   36.7090 C   0  0  0  0  0  3  0  0  0  0  0  0
   49.6550   32.2700   35.7090 H   0  0  0  0  0  0  0  0  0  0  0  0
   48.4850   33.6950   36.5610 O   0  0  0  0  0  0  0  0  0  0  0  0
   48.1940   34.1520   37.8550 C   0  0  0  0  0  3  0  0  0  0  0  0
   49.1000   34.3370   38.4590 H   0  0  0  0  0  0  0  0  0  0  0  0
   47.2900   33.0950   38.4760 C   0  0  0  0  0  3  0  0  0  0  0  0
   46.4930   32.9200   37.7040 H   0  0  0  0  0  0  0  0  0  0  0  0
  1  2  1  1  0  0  0
  1 18  1  0  0  0  0
  2  7  1  0  0  0  0
  3  2  1  0  0  0  0
  3  9  1  0  0  0  0
  3  4  1  0  0  0  0
  4 11  1  0  0  0  0
  5  4  1  0  0  0  0
  5 14  1  0  0  0  0
  6 15  1  6  0  0  0
  6  1  1  0  0  0  0
  6  5  1  0  0  0  0
  8  2  1  0  0  0  0
 10  3  1  0  0  0  0
 12  4  1  0  0  0  0
 13  5  1  0  0  0  0
 16 19  1  6  0  0  0
 16 18  1  0  0  0  0
 16 24  1  0  0  0  0
 17 16  1  0  0  0  0
 17 18  1  0  0  0  0
 17 21  1  0  0  0  0
 18 22  1  1  0  0  0
 20 17  1  0  0  0  0
 23 28  1  0  0  0  0
 24 23  2  0  0  0  0
 24 25  1  0  0  0  0
 25 26  2  0  0  0  0
 26 27  1  0  0  0  0
 27 31  1  0  0  0  0
 28 27  2  0  0  0  0
 29 23  1  0  0  0  0
 30 25  1  0  0  0  0
 32  6  1  0  0  0  0
 33 32  1  0  0  0  0
 34 32  1  0  0  0  0
 35 34  1  0  0  0  0
 36 35  1  0  0  0  0
 37 35  1  0  0  0  0
 38 37  1  0  0  0  0
 39 37  1  0  0  0  0
 39 40  1  0  0  0  0
 40 41  1  0  0  0  0
 40 42  1  0  0  0  0
 42 34  1  0  0  0  0
 43 42  1  0  0  0  0
M  END
>  <minimizedAffinity>
-5.15924788

>  <minimizedRMSD>
2.31135082

$$$$
