
 OpenBabel03252508163D

 38 41  0  0  1  0  0  0  0  0999 V2000
   38.0030   28.6690   42.7880 C   0  0  0  0  0  3  0  0  0  0  0  0
   39.1100   28.0560   42.6250 C   0  0  0  0  0  3  0  0  0  0  0  0
   36.3280   31.1660   40.6580 C   0  0  0  0  0  0  0  0  0  0  0  0
   37.3290   32.0900   40.3950 C   0  0  0  0  0  0  0  0  0  0  0  0
   38.5660   31.8420   40.9630 C   0  0  0  0  0  0  0  0  0  0  0  0
   38.7010   30.7410   41.7120 N   0  0  0  0  0  0  0  0  0  0  0  0
   37.7450   29.8520   41.9680 C   0  0  0  0  0  0  0  0  0  0  0  0
   36.5580   30.1010   41.4180 N   0  0  0  0  0  0  0  0  0  0  0  0
   35.3540   31.3390   40.2260 H   0  0  0  0  0  0  0  0  0  0  0  0
   37.2090   32.9660   39.7930 H   0  0  0  0  0  0  0  0  0  0  0  0
   39.7360   32.7080   40.7930 C   0  0  0  0  0  3  0  0  0  0  0  0
   40.0020   33.0190   39.3140 C   0  0  0  0  0  3  0  0  0  0  0  0
   40.4210   32.1490   38.8010 H   0  0  0  0  0  0  0  0  0  0  0  0
   41.0250   34.1390   39.3350 C   0  0  0  0  0  3  0  0  0  0  0  0
   41.6050   34.1220   38.4000 H   0  0  0  0  0  0  0  0  0  0  0  0
   41.7640   34.1610   40.4910 O   0  0  0  0  0  0  0  0  0  0  0  0
   42.1370   32.9190   40.9790 C   0  0  0  0  0  3  0  0  0  0  0  0
   42.6250   33.1270   41.9720 H   0  0  0  0  0  0  0  0  0  0  0  0
   40.9900   31.9940   41.2600 C   0  0  0  0  0  3  0  0  0  0  0  0
   41.1140   31.1000   40.5890 H   0  0  0  0  0  0  0  0  0  0  0  0
   39.3080   26.8310   43.5100 C   0  0  0  0  0  0  0  0  0  0  0  0
   38.3780   26.5840   44.0360 H   0  0  0  0  0  0  0  0  0  0  0  0
   40.0670   27.1330   44.2560 H   0  0  0  0  0  0  0  0  0  0  0  0
   39.8780   25.6970   42.6910 C   0  0  1  0  0  0  0  0  0  0  0  0
   39.7630   24.3360   43.2830 C   0  0  0  0  0  0  0  0  0  0  0  0
   38.9600   24.6810   42.1250 C   0  0  1  0  0  0  0  0  0  0  0  0
   40.7830   25.9360   42.1010 H   0  0  0  0  0  0  0  0  0  0  0  0
   39.2670   24.2260   44.2730 H   0  0  0  0  0  0  0  0  0  0  0  0
   40.6120   23.6160   43.1760 H   0  0  0  0  0  0  0  0  0  0  0  0
   39.2910   24.2210   41.1440 H   0  0  0  0  0  0  0  0  0  0  0  0
   37.5060   24.9620   42.1510 C   0  0  0  0  0  0  0  0  0  0  0  0
   36.6700   24.1300   41.1350 C   0  0  0  0  0  0  0  0  0  0  0  0
   36.9150   25.5520   40.8410 C   0  0  0  0  0  0  0  0  0  0  0  0
   36.9930   25.2530   43.0860 H   0  0  0  0  0  0  0  0  0  0  0  0
   37.2200   23.3920   40.5160 H   0  0  0  0  0  0  0  0  0  0  0  0
   35.6530   23.8630   41.4960 H   0  0  0  0  0  0  0  0  0  0  0  0
   37.6570   25.8330   40.0710 H   0  0  0  0  0  0  0  0  0  0  0  0
   36.1280   26.3330   40.9900 H   0  0  0  0  0  0  0  0  0  0  0  0
  2  1  2  0  0  0  0
  2 21  1  0  0  0  0
  3  8  1  0  0  0  0
  4  3  2  0  0  0  0
  4  5  1  0  0  0  0
  5  6  2  0  0  0  0
  6  7  1  0  0  0  0
  7  1  1  0  0  0  0
  8  7  2  0  0  0  0
  9  3  1  0  0  0  0
 10  4  1  0  0  0  0
 11  5  1  0  0  0  0
 11 19  1  0  0  0  0
 12 14  1  0  0  0  0
 12 11  1  0  0  0  0
 13 12  1  0  0  0  0
 14 16  1  0  0  0  0
 15 14  1  0  0  0  0
 16 17  1  0  0  0  0
 17 19  1  0  0  0  0
 17 18  1  0  0  0  0
 20 19  1  0  0  0  0
 21 22  1  0  0  0  0
 21 23  1  0  0  0  0
 24 27  1  6  0  0  0
 24 25  1  0  0  0  0
 24 21  1  0  0  0  0
 25 28  1  0  0  0  0
 26 30  1  6  0  0  0
 26 31  1  0  0  0  0
 26 24  1  0  0  0  0
 26 25  1  0  0  0  0
 29 25  1  0  0  0  0
 31 34  1  0  0  0  0
 32 36  1  0  0  0  0
 32 31  1  0  0  0  0
 33 38  1  0  0  0  0
 33 32  1  0  0  0  0
 33 31  1  0  0  0  0
 35 32  1  0  0  0  0
 37 33  1  0  0  0  0
M  END
>  <minimizedAffinity>
-5.46640539

$$$$

 OpenBabel03252508163D

 38 41  0  0  1  0  0  0  0  0999 V2000
   37.9300   30.1170   41.0250 C   0  0  0  0  0  3  0  0  0  0  0  0
   36.6940   29.8710   40.8250 C   0  0  0  0  0  3  0  0  0  0  0  0
   38.3290   33.6930   40.2350 C   0  0  0  0  0  0  0  0  0  0  0  0
   39.5250   33.7370   39.5320 C   0  0  0  0  0  0  0  0  0  0  0  0
   40.1790   32.5330   39.3460 C   0  0  0  0  0  0  0  0  0  0  0  0
   39.6150   31.4300   39.8530 N   0  0  0  0  0  0  0  0  0  0  0  0
   38.4690   31.3820   40.5280 C   0  0  0  0  0  0  0  0  0  0  0  0
   37.8480   32.5470   40.7020 N   0  0  0  0  0  0  0  0  0  0  0  0
   37.8010   34.6220   40.3920 H   0  0  0  0  0  0  0  0  0  0  0  0
   39.9650   34.6250   39.1300 H   0  0  0  0  0  0  0  0  0  0  0  0
   41.4490   32.3900   38.6300 C   0  0  0  0  0  3  0  0  0  0  0  0
   41.8390   33.6830   37.9020 C   0  0  0  0  0  3  0  0  0  0  0  0
   41.2160   33.8340   37.0150 H   0  0  0  0  0  0  0  0  0  0  0  0
   43.2800   33.4690   37.4810 C   0  0  0  0  0  3  0  0  0  0  0  0
   43.5010   34.0910   36.6010 H   0  0  0  0  0  0  0  0  0  0  0  0
   43.6070   32.1410   37.3670 O   0  0  0  0  0  0  0  0  0  0  0  0
   42.6310   31.3370   36.8020 C   0  0  0  0  0  3  0  0  0  0  0  0
   43.0240   30.2860   36.8960 H   0  0  0  0  0  0  0  0  0  0  0  0
   41.3160   31.3590   37.5250 C   0  0  0  0  0  3  0  0  0  0  0  0
   40.5510   31.7630   36.8070 H   0  0  0  0  0  0  0  0  0  0  0  0
   36.2020   28.5370   41.3740 C   0  0  0  0  0  0  0  0  0  0  0  0
   36.1610   27.7860   40.5760 H   0  0  0  0  0  0  0  0  0  0  0  0
   35.1730   28.7320   41.7300 H   0  0  0  0  0  0  0  0  0  0  0  0
   37.0420   28.1340   42.5630 C   0  0  1  0  0  0  0  0  0  0  0  0
   36.3510   27.3380   43.6150 C   0  0  0  0  0  0  0  0  0  0  0  0
   37.3490   26.7010   42.7780 C   0  0  1  0  0  0  0  0  0  0  0  0
   37.8110   28.8620   42.8790 H   0  0  0  0  0  0  0  0  0  0  0  0
   35.2790   27.0820   43.4720 H   0  0  0  0  0  0  0  0  0  0  0  0
   36.5760   27.5390   44.6920 H   0  0  0  0  0  0  0  0  0  0  0  0
   38.3440   26.4880   43.2770 H   0  0  0  0  0  0  0  0  0  0  0  0
   37.0570   25.7500   41.6800 C   0  0  0  0  0  0  0  0  0  0  0  0
   37.5000   24.2850   41.9600 C   0  0  0  0  0  0  0  0  0  0  0  0
   38.2980   25.0890   41.0200 C   0  0  0  0  0  0  0  0  0  0  0  0
   36.1750   25.8810   41.0260 H   0  0  0  0  0  0  0  0  0  0  0  0
   37.9550   24.0770   42.9490 H   0  0  0  0  0  0  0  0  0  0  0  0
   36.8300   23.5170   41.5150 H   0  0  0  0  0  0  0  0  0  0  0  0
   39.2760   25.4940   41.3380 H   0  0  0  0  0  0  0  0  0  0  0  0
   38.2250   24.9540   39.9120 H   0  0  0  0  0  0  0  0  0  0  0  0
  2  1  2  0  0  0  0
  2 21  1  0  0  0  0
  3  9  1  0  0  0  0
  3  8  1  0  0  0  0
  4  3  2  0  0  0  0
  5  4  1  0  0  0  0
  5  6  2  0  0  0  0
  6  7  1  0  0  0  0
  7  8  2  0  0  0  0
  7  1  1  0  0  0  0
 10  4  1  0  0  0  0
 11  5  1  0  0  0  0
 12 11  1  0  0  0  0
 13 12  1  0  0  0  0
 14 12  1  0  0  0  0
 15 14  1  0  0  0  0
 16 14  1  0  0  0  0
 17 18  1  0  0  0  0
 17 16  1  0  0  0  0
 17 19  1  0  0  0  0
 19 11  1  0  0  0  0
 20 19  1  0  0  0  0
 21 23  1  0  0  0  0
 21 24  1  0  0  0  0
 22 21  1  0  0  0  0
 24 26  1  0  0  0  0
 24 27  1  1  0  0  0
 24 25  1  0  0  0  0
 25 29  1  0  0  0  0
 26 30  1  1  0  0  0
 26 25  1  0  0  0  0
 28 25  1  0  0  0  0
 31 32  1  0  0  0  0
 31 26  1  0  0  0  0
 32 35  1  0  0  0  0
 33 37  1  0  0  0  0
 33 31  1  0  0  0  0
 33 32  1  0  0  0  0
 34 31  1  0  0  0  0
 36 32  1  0  0  0  0
 38 33  1  0  0  0  0
M  END
>  <minimizedAffinity>
-5.09734011

$$$$

 OpenBabel03252508163D

 38 41  0  0  1  0  0  0  0  0999 V2000
   34.5170   29.1290   39.6290 C   0  0  0  0  0  3  0  0  0  0  0  0
   34.7030   28.7750   38.4180 C   0  0  0  0  0  3  0  0  0  0  0  0
   37.1050   28.6780   42.2120 C   0  0  0  0  0  0  0  0  0  0  0  0
   37.9090   29.8000   42.0640 C   0  0  0  0  0  0  0  0  0  0  0  0
   37.5490   30.6920   41.0700 C   0  0  0  0  0  0  0  0  0  0  0  0
   36.4650   30.4090   40.3370 N   0  0  0  0  0  0  0  0  0  0  0  0
   35.6920   29.3350   40.4740 C   0  0  0  0  0  0  0  0  0  0  0  0
   36.0480   28.4820   41.4330 N   0  0  0  0  0  0  0  0  0  0  0  0
   37.3680   27.9680   42.9810 H   0  0  0  0  0  0  0  0  0  0  0  0
   38.7720   30.0170   42.6570 H   0  0  0  0  0  0  0  0  0  0  0  0
   38.2790   31.9280   40.7710 C   0  0  0  0  0  3  0  0  0  0  0  0
   37.4310   32.9010   39.9410 C   0  0  0  0  0  3  0  0  0  0  0  0
   37.3450   32.5580   38.9060 H   0  0  0  0  0  0  0  0  0  0  0  0
   38.1970   34.2100   39.9820 C   0  0  0  0  0  3  0  0  0  0  0  0
   37.9480   34.8070   39.0930 H   0  0  0  0  0  0  0  0  0  0  0  0
   39.5360   34.0320   40.2220 O   0  0  0  0  0  0  0  0  0  0  0  0
   40.1160   32.9510   39.5790 C   0  0  0  0  0  3  0  0  0  0  0  0
   41.1670   32.8990   39.9790 H   0  0  0  0  0  0  0  0  0  0  0  0
   39.4790   31.6290   39.8940 C   0  0  0  0  0  3  0  0  0  0  0  0
   39.0720   31.2200   38.9300 H   0  0  0  0  0  0  0  0  0  0  0  0
   33.4330   28.5830   37.5970 C   0  0  0  0  0  0  0  0  0  0  0  0
   32.5750   29.0390   38.1050 H   0  0  0  0  0  0  0  0  0  0  0  0
   33.2780   27.4890   37.5540 H   0  0  0  0  0  0  0  0  0  0  0  0
   33.6570   29.0810   36.1880 C   0  0  1  0  0  0  0  0  0  0  0  0
   32.9590   28.3310   35.1080 C   0  0  0  0  0  0  0  0  0  0  0  0
   32.5220   29.6730   35.4420 C   0  0  1  0  0  0  0  0  0  0  0  0
   34.6610   29.4910   35.9760 H   0  0  0  0  0  0  0  0  0  0  0  0
   32.3180   27.4660   35.3880 H   0  0  0  0  0  0  0  0  0  0  0  0
   33.4870   28.1440   34.1400 H   0  0  0  0  0  0  0  0  0  0  0  0
   32.8000   30.4800   34.6960 H   0  0  0  0  0  0  0  0  0  0  0  0
   31.2880   30.0040   36.1930 C   0  0  0  0  0  0  0  0  0  0  0  0
   30.1030   30.4840   35.3050 C   0  0  0  0  0  0  0  0  0  0  0  0
   30.8290   31.4850   36.1050 C   0  0  0  0  0  0  0  0  0  0  0  0
   31.0210   29.4700   37.1230 H   0  0  0  0  0  0  0  0  0  0  0  0
   30.2710   30.5040   34.2100 H   0  0  0  0  0  0  0  0  0  0  0  0
   29.1020   30.1760   35.6810 H   0  0  0  0  0  0  0  0  0  0  0  0
   31.5380   32.1730   35.6090 H   0  0  0  0  0  0  0  0  0  0  0  0
   30.4110   31.9050   37.0530 H   0  0  0  0  0  0  0  0  0  0  0  0
  1  7  1  0  0  0  0
  2  1  2  0  0  0  0
  3  9  1  0  0  0  0
  4  3  1  0  0  0  0
  4 10  1  0  0  0  0
  5  4  2  0  0  0  0
  6  7  2  0  0  0  0
  6  5  1  0  0  0  0
  7  8  1  0  0  0  0
  8  3  2  0  0  0  0
 11  5  1  0  0  0  0
 12 14  1  0  0  0  0
 12 11  1  0  0  0  0
 13 12  1  0  0  0  0
 14 16  1  0  0  0  0
 15 14  1  0  0  0  0
 17 19  1  0  0  0  0
 17 18  1  0  0  0  0
 17 16  1  0  0  0  0
 19 11  1  0  0  0  0
 20 19  1  0  0  0  0
 21 22  1  0  0  0  0
 21  2  1  0  0  0  0
 23 21  1  0  0  0  0
 24 27  1  6  0  0  0
 24 21  1  0  0  0  0
 25 28  1  0  0  0  0
 25 26  1  0  0  0  0
 25 24  1  0  0  0  0
 26 30  1  6  0  0  0
 26 24  1  0  0  0  0
 26 31  1  0  0  0  0
 29 25  1  0  0  0  0
 31 34  1  0  0  0  0
 32 36  1  0  0  0  0
 32 33  1  0  0  0  0
 32 31  1  0  0  0  0
 33 31  1  0  0  0  0
 33 38  1  0  0  0  0
 35 32  1  0  0  0  0
 37 33  1  0  0  0  0
M  END
>  <minimizedAffinity>
-5.06113577

$$$$

 OpenBabel03252508163D

 38 41  0  0  1  0  0  0  0  0999 V2000
   34.5540   29.0560   39.7460 C   0  0  0  0  0  3  0  0  0  0  0  0
   34.6950   28.7980   38.5060 C   0  0  0  0  0  3  0  0  0  0  0  0
   37.3510   30.3010   41.7960 C   0  0  0  0  0  0  0  0  0  0  0  0
   38.0520   29.1480   42.1210 C   0  0  0  0  0  0  0  0  0  0  0  0
   37.5450   27.9570   41.6330 C   0  0  0  0  0  0  0  0  0  0  0  0
   36.4310   28.0080   40.8930 N   0  0  0  0  0  0  0  0  0  0  0  0
   35.7540   29.1090   40.5790 C   0  0  0  0  0  0  0  0  0  0  0  0
   36.2500   30.2500   41.0550 N   0  0  0  0  0  0  0  0  0  0  0  0
   37.7280   31.2420   42.1670 H   0  0  0  0  0  0  0  0  0  0  0  0
   38.9430   29.1200   42.7120 H   0  0  0  0  0  0  0  0  0  0  0  0
   38.1520   26.6450   41.8750 C   0  0  0  0  0  3  0  0  0  0  0  0
   37.0980   25.5890   42.2330 C   0  0  0  0  0  3  0  0  0  0  0  0
   36.7260   25.7390   43.2510 H   0  0  0  0  0  0  0  0  0  0  0  0
   37.8350   24.2660   42.1510 C   0  0  0  0  0  3  0  0  0  0  0  0
   37.3410   23.5310   42.8030 H   0  0  0  0  0  0  0  0  0  0  0  0
   39.1890   24.4020   42.3290 O   0  0  0  0  0  0  0  0  0  0  0  0
   39.5700   25.3080   43.3050 C   0  0  0  0  0  3  0  0  0  0  0  0
   40.6920   25.3690   43.2280 H   0  0  0  0  0  0  0  0  0  0  0  0
   39.0580   26.7020   43.0900 C   0  0  0  0  0  3  0  0  0  0  0  0
   38.3980   26.9510   43.9650 H   0  0  0  0  0  0  0  0  0  0  0  0
   33.4020   28.7620   37.7000 C   0  0  0  0  0  0  0  0  0  0  0  0
   32.6410   29.3980   38.1680 H   0  0  0  0  0  0  0  0  0  0  0  0
   33.0610   27.7110   37.7440 H   0  0  0  0  0  0  0  0  0  0  0  0
   33.6910   29.1020   36.2560 C   0  0  1  0  0  0  0  0  0  0  0  0
   33.1410   28.1650   35.2380 C   0  0  0  0  0  0  0  0  0  0  0  0
   32.5730   29.4930   35.3680 C   0  0  1  0  0  0  0  0  0  0  0  0
   34.6730   29.5710   36.0590 H   0  0  0  0  0  0  0  0  0  0  0  0
   32.5530   27.2870   35.5840 H   0  0  0  0  0  0  0  0  0  0  0  0
   33.7550   27.9090   34.3390 H   0  0  0  0  0  0  0  0  0  0  0  0
   32.8400   30.2240   34.5440 H   0  0  0  0  0  0  0  0  0  0  0  0
   31.2620   29.8010   35.9870 C   0  0  0  0  0  0  0  0  0  0  0  0
   30.2870   30.5960   35.0700 C   0  0  0  0  0  0  0  0  0  0  0  0
   30.9490   31.3110   36.1740 C   0  0  0  0  0  0  0  0  0  0  0  0
   30.7990   29.1170   36.7220 H   0  0  0  0  0  0  0  0  0  0  0  0
   30.6370   30.8290   34.0450 H   0  0  0  0  0  0  0  0  0  0  0  0
   29.2150   30.3360   35.2170 H   0  0  0  0  0  0  0  0  0  0  0  0
   31.7870   31.9990   35.9560 H   0  0  0  0  0  0  0  0  0  0  0  0
   30.4140   31.5670   37.1220 H   0  0  0  0  0  0  0  0  0  0  0  0
  1  7  1  0  0  0  0
  2  1  2  0  0  0  0
  3  4  1  0  0  0  0
  3  9  1  0  0  0  0
  4 10  1  0  0  0  0
  5 11  1  0  0  0  0
  5  4  2  0  0  0  0
  6  5  1  0  0  0  0
  7  6  2  0  0  0  0
  7  8  1  0  0  0  0
  8  3  2  0  0  0  0
 11 12  1  0  0  0  0
 11 19  1  0  0  0  0
 12 13  1  0  0  0  0
 14 12  1  0  0  0  0
 14 16  1  0  0  0  0
 14 15  1  0  0  0  0
 16 17  1  0  0  0  0
 18 17  1  0  0  0  0
 19 17  1  0  0  0  0
 19 20  1  0  0  0  0
 21 23  1  0  0  0  0
 21 22  1  0  0  0  0
 21  2  1  0  0  0  0
 24 27  1  6  0  0  0
 24 21  1  0  0  0  0
 25 26  1  0  0  0  0
 25 28  1  0  0  0  0
 25 24  1  0  0  0  0
 26 30  1  6  0  0  0
 26 31  1  0  0  0  0
 26 24  1  0  0  0  0
 29 25  1  0  0  0  0
 31 33  1  0  0  0  0
 31 34  1  0  0  0  0
 32 36  1  0  0  0  0
 32 31  1  0  0  0  0
 32 33  1  0  0  0  0
 33 38  1  0  0  0  0
 35 32  1  0  0  0  0
 37 33  1  0  0  0  0
M  END
>  <minimizedAffinity>
-5.06106091

$$$$

 OpenBabel03252508163D

 38 41  0  0  1  0  0  0  0  0999 V2000
   39.0460   28.9730   42.0890 C   0  0  0  0  0  3  0  0  0  0  0  0
   38.2520   28.2940   42.8210 C   0  0  0  0  0  3  0  0  0  0  0  0
   38.2410   32.2610   40.6350 C   0  0  0  0  0  0  0  0  0  0  0  0
   37.3350   31.9560   39.6280 C   0  0  0  0  0  0  0  0  0  0  0  0
   37.0210   30.6200   39.4620 C   0  0  0  0  0  0  0  0  0  0  0  0
   37.6070   29.7330   40.2750 N   0  0  0  0  0  0  0  0  0  0  0  0
   38.4760   30.0190   41.2410 C   0  0  0  0  0  0  0  0  0  0  0  0
   38.7720   31.3090   41.3930 N   0  0  0  0  0  0  0  0  0  0  0  0
   38.5010   33.2980   40.7830 H   0  0  0  0  0  0  0  0  0  0  0  0
   36.8720   32.6740   38.9850 H   0  0  0  0  0  0  0  0  0  0  0  0
   36.0870   30.1150   38.4510 C   0  0  0  0  0  3  0  0  0  0  0  0
   35.3660   28.8480   38.9290 C   0  0  0  0  0  3  0  0  0  0  0  0
   36.0390   27.9860   38.9120 H   0  0  0  0  0  0  0  0  0  0  0  0
   34.2480   28.6400   37.9240 C   0  0  0  0  0  3  0  0  0  0  0  0
   33.9770   27.5740   37.8940 H   0  0  0  0  0  0  0  0  0  0  0  0
   34.5120   29.2210   36.7100 O   0  0  0  0  0  0  0  0  0  0  0  0
   35.8200   29.1070   36.2700 C   0  0  0  0  0  3  0  0  0  0  0  0
   35.8730   29.7300   35.3340 H   0  0  0  0  0  0  0  0  0  0  0  0
   36.8420   29.6760   37.2110 C   0  0  0  0  0  3  0  0  0  0  0  0
   37.5070   28.8270   37.5300 H   0  0  0  0  0  0  0  0  0  0  0  0
   38.9170   27.2250   43.6790 C   0  0  0  0  0  0  0  0  0  0  0  0
   38.1680   26.6980   44.2830 H   0  0  0  0  0  0  0  0  0  0  0  0
   39.5940   27.7760   44.3570 H   0  0  0  0  0  0  0  0  0  0  0  0
   39.7580   26.3220   42.8080 C   0  0  1  0  0  0  0  0  0  0  0  0
   40.0130   24.9530   43.3340 C   0  0  0  0  0  0  0  0  0  0  0  0
   39.1360   25.1270   42.1920 C   0  0  1  0  0  0  0  0  0  0  0  0
   40.5610   26.8190   42.2320 H   0  0  0  0  0  0  0  0  0  0  0  0
   39.5750   24.6690   44.3160 H   0  0  0  0  0  0  0  0  0  0  0  0
   41.0210   24.4890   43.1940 H   0  0  0  0  0  0  0  0  0  0  0  0
   39.5660   24.8170   41.1910 H   0  0  0  0  0  0  0  0  0  0  0  0
   37.6590   25.0110   42.2280 C   0  0  0  0  0  0  0  0  0  0  0  0
   37.0710   23.9520   41.2490 C   0  0  0  0  0  0  0  0  0  0  0  0
   36.9270   25.3770   40.9080 C   0  0  0  0  0  0  0  0  0  0  0  0
   37.0910   25.1870   43.1600 H   0  0  0  0  0  0  0  0  0  0  0  0
   37.7950   23.3670   40.6480 H   0  0  0  0  0  0  0  0  0  0  0  0
   36.1630   23.4370   41.6320 H   0  0  0  0  0  0  0  0  0  0  0  0
   37.5640   25.8200   40.1190 H   0  0  0  0  0  0  0  0  0  0  0  0
   35.9610   25.9260   41.0420 H   0  0  0  0  0  0  0  0  0  0  0  0
  1  2  2  0  0  0  0
  2 21  1  0  0  0  0
  3  9  1  0  0  0  0
  3  8  1  0  0  0  0
  4  3  2  0  0  0  0
  5  4  1  0  0  0  0
  5  6  2  0  0  0  0
  6  7  1  0  0  0  0
  7  8  2  0  0  0  0
  7  1  1  0  0  0  0
 10  4  1  0  0  0  0
 11 12  1  0  0  0  0
 11  5  1  0  0  0  0
 13 12  1  0  0  0  0
 14 12  1  0  0  0  0
 15 14  1  0  0  0  0
 16 14  1  0  0  0  0
 17 16  1  0  0  0  0
 17 19  1  0  0  0  0
 18 17  1  0  0  0  0
 19 20  1  0  0  0  0
 19 11  1  0  0  0  0
 21 22  1  0  0  0  0
 21 23  1  0  0  0  0
 24 27  1  6  0  0  0
 24 25  1  0  0  0  0
 24 21  1  0  0  0  0
 25 28  1  0  0  0  0
 26 30  1  6  0  0  0
 26 31  1  0  0  0  0
 26 24  1  0  0  0  0
 26 25  1  0  0  0  0
 29 25  1  0  0  0  0
 31 34  1  0  0  0  0
 32 36  1  0  0  0  0
 32 31  1  0  0  0  0
 33 38  1  0  0  0  0
 33 32  1  0  0  0  0
 33 31  1  0  0  0  0
 35 32  1  0  0  0  0
 37 33  1  0  0  0  0
M  END
>  <minimizedAffinity>
-5.04886436

$$$$

 OpenBabel03252508163D

 38 41  0  0  1  0  0  0  0  0999 V2000
   32.1650   28.8420   36.0080 C   0  0  0  0  0  3  0  0  0  0  0  0
   32.3710   29.8930   35.3170 C   0  0  0  0  0  3  0  0  0  0  0  0
   34.8010   26.5280   37.1350 C   0  0  0  0  0  0  0  0  0  0  0  0
   35.4100   27.2140   38.1770 C   0  0  0  0  0  0  0  0  0  0  0  0
   34.9050   28.4680   38.4700 C   0  0  0  0  0  0  0  0  0  0  0  0
   33.8800   28.9180   37.7360 N   0  0  0  0  0  0  0  0  0  0  0  0
   33.2940   28.2650   36.7370 C   0  0  0  0  0  0  0  0  0  0  0  0
   33.7870   27.0590   36.4610 N   0  0  0  0  0  0  0  0  0  0  0  0
   35.1790   25.5470   36.8880 H   0  0  0  0  0  0  0  0  0  0  0  0
   36.2280   26.8430   38.7570 H   0  0  0  0  0  0  0  0  0  0  0  0
   35.4220   29.3330   39.5340 C   0  0  0  0  0  3  0  0  0  0  0  0
   36.4720   30.3190   39.0040 C   0  0  0  0  0  3  0  0  0  0  0  0
   37.4160   29.8080   38.7940 H   0  0  0  0  0  0  0  0  0  0  0  0
   36.6710   31.3130   40.1330 C   0  0  0  0  0  3  0  0  0  0  0  0
   37.6740   31.7560   40.0570 H   0  0  0  0  0  0  0  0  0  0  0  0
   36.3420   30.7940   41.3600 O   0  0  0  0  0  0  0  0  0  0  0  0
   36.7220   29.4780   41.5680 C   0  0  0  0  0  3  0  0  0  0  0  0
   36.2760   29.1950   42.5620 H   0  0  0  0  0  0  0  0  0  0  0  0
   36.1670   28.5080   40.5670 C   0  0  0  0  0  3  0  0  0  0  0  0
   37.0420   28.0470   40.0320 H   0  0  0  0  0  0  0  0  0  0  0  0
   31.1490   30.4400   34.5880 C   0  0  0  0  0  0  0  0  0  0  0  0
   30.2770   29.7990   34.7680 H   0  0  0  0  0  0  0  0  0  0  0  0
   31.4060   30.3930   33.5140 H   0  0  0  0  0  0  0  0  0  0  0  0
   30.9410   31.8900   34.9590 C   0  0  1  0  0  0  0  0  0  0  0  0
   29.6240   32.4790   34.5910 C   0  0  0  0  0  0  0  0  0  0  0  0
   29.9310   32.2350   35.9870 C   0  0  1  0  0  0  0  0  0  0  0  0
   31.8360   32.5350   34.9030 H   0  0  0  0  0  0  0  0  0  0  0  0
   28.8760   31.8340   34.0790 H   0  0  0  0  0  0  0  0  0  0  0  0
   29.5800   33.5290   34.2060 H   0  0  0  0  0  0  0  0  0  0  0  0
   30.1650   33.1550   36.6060 H   0  0  0  0  0  0  0  0  0  0  0  0
   29.3620   31.1380   36.8040 C   0  0  0  0  0  0  0  0  0  0  0  0
   28.7490   31.5960   38.1600 C   0  0  0  0  0  0  0  0  0  0  0  0
   30.0480   30.9030   38.1770 C   0  0  0  0  0  0  0  0  0  0  0  0
   28.9050   30.2480   36.3340 H   0  0  0  0  0  0  0  0  0  0  0  0
   28.7610   32.6830   38.3760 H   0  0  0  0  0  0  0  0  0  0  0  0
   27.8630   31.0040   38.4790 H   0  0  0  0  0  0  0  0  0  0  0  0
   30.9750   31.4800   38.3500 H   0  0  0  0  0  0  0  0  0  0  0  0
   30.1440   29.8290   38.4770 H   0  0  0  0  0  0  0  0  0  0  0  0
  1  7  1  0  0  0  0
  2  1  2  0  0  0  0
  3  4  1  0  0  0  0
  4  5  2  0  0  0  0
  4 10  1  0  0  0  0
  5 11  1  0  0  0  0
  6  5  1  0  0  0  0
  7  6  2  0  0  0  0
  8  7  1  0  0  0  0
  8  3  2  0  0  0  0
  9  3  1  0  0  0  0
 11 19  1  0  0  0  0
 12 11  1  0  0  0  0
 12 14  1  0  0  0  0
 13 12  1  0  0  0  0
 14 16  1  0  0  0  0
 15 14  1  0  0  0  0
 16 17  1  0  0  0  0
 17 18  1  0  0  0  0
 19 17  1  0  0  0  0
 20 19  1  0  0  0  0
 21 22  1  0  0  0  0
 21 24  1  0  0  0  0
 21  2  1  0  0  0  0
 23 21  1  0  0  0  0
 24 27  1  6  0  0  0
 24 26  1  0  0  0  0
 25 24  1  0  0  0  0
 25 26  1  0  0  0  0
 26 30  1  1  0  0  0
 26 31  1  0  0  0  0
 28 25  1  0  0  0  0
 29 25  1  0  0  0  0
 31 32  1  0  0  0  0
 31 33  1  0  0  0  0
 32 33  1  0  0  0  0
 32 35  1  0  0  0  0
 32 36  1  0  0  0  0
 33 37  1  0  0  0  0
 33 38  1  0  0  0  0
 34 31  1  0  0  0  0
M  END
>  <minimizedAffinity>
-4.92846203

$$$$

 OpenBabel03252508163D

 38 41  0  0  1  0  0  0  0  0999 V2000
   37.5210   27.4280   40.5610 C   0  0  0  0  0  3  0  0  0  0  0  0
   37.1760   27.4010   41.7890 C   0  0  0  0  0  3  0  0  0  0  0  0
   36.1740   29.8410   38.1240 C   0  0  0  0  0  0  0  0  0  0  0  0
   36.8900   31.0000   38.3870 C   0  0  0  0  0  0  0  0  0  0  0  0
   37.8230   30.9340   39.4070 C   0  0  0  0  0  0  0  0  0  0  0  0
   37.9620   29.7700   40.0530 N   0  0  0  0  0  0  0  0  0  0  0  0
   37.2780   28.6560   39.8050 C   0  0  0  0  0  0  0  0  0  0  0  0
   36.3820   28.7310   38.8230 N   0  0  0  0  0  0  0  0  0  0  0  0
   35.4400   29.8700   37.3330 H   0  0  0  0  0  0  0  0  0  0  0  0
   36.7710   31.9250   37.8630 H   0  0  0  0  0  0  0  0  0  0  0  0
   38.6670   32.0580   39.8220 C   0  0  0  0  0  3  0  0  0  0  0  0
   37.8810   33.3750   39.8570 C   0  0  0  0  0  3  0  0  0  0  0  0
   37.6840   33.7390   38.8450 H   0  0  0  0  0  0  0  0  0  0  0  0
   38.7940   34.3480   40.5800 C   0  0  0  0  0  3  0  0  0  0  0  0
   38.5530   35.3750   40.2690 H   0  0  0  0  0  0  0  0  0  0  0  0
   40.1170   33.9960   40.4950 O   0  0  0  0  0  0  0  0  0  0  0  0
   40.5220   33.5050   39.2650 C   0  0  0  0  0  3  0  0  0  0  0  0
   41.5850   33.1680   39.4170 H   0  0  0  0  0  0  0  0  0  0  0  0
   39.7610   32.2980   38.7990 C   0  0  0  0  0  3  0  0  0  0  0  0
   39.2430   32.5820   37.8430 H   0  0  0  0  0  0  0  0  0  0  0  0
   37.4630   26.0920   42.5140 C   0  0  0  0  0  0  0  0  0  0  0  0
   36.6380   25.3840   42.3670 H   0  0  0  0  0  0  0  0  0  0  0  0
   37.5140   26.3590   43.5850 H   0  0  0  0  0  0  0  0  0  0  0  0
   38.8150   25.5640   42.0960 C   0  0  1  0  0  0  0  0  0  0  0  0
   39.3740   24.4600   42.9240 C   0  0  0  0  0  0  0  0  0  0  0  0
   38.9220   24.1810   41.5750 C   0  0  1  0  0  0  0  0  0  0  0  0
   39.5160   26.3090   41.6770 H   0  0  0  0  0  0  0  0  0  0  0  0
   38.7770   24.0850   43.7850 H   0  0  0  0  0  0  0  0  0  0  0  0
   40.4680   24.4470   43.1570 H   0  0  0  0  0  0  0  0  0  0  0  0
   39.7390   24.0130   40.8080 H   0  0  0  0  0  0  0  0  0  0  0  0
   37.6710   23.4660   41.2270 C   0  0  0  0  0  0  0  0  0  0  0  0
   37.8500   22.3210   40.1880 C   0  0  0  0  0  0  0  0  0  0  0  0
   37.2270   23.5790   39.7430 C   0  0  0  0  0  0  0  0  0  0  0  0
   36.8590   23.3370   41.9660 H   0  0  0  0  0  0  0  0  0  0  0  0
   38.8810   22.1230   39.8310 H   0  0  0  0  0  0  0  0  0  0  0  0
   37.1690   21.4560   40.3460 H   0  0  0  0  0  0  0  0  0  0  0  0
   37.8070   24.2910   39.1270 H   0  0  0  0  0  0  0  0  0  0  0  0
   36.1230   23.6730   39.5880 H   0  0  0  0  0  0  0  0  0  0  0  0
  1  2  2  0  0  0  0
  2 21  1  0  0  0  0
  3  4  2  0  0  0  0
  3  8  1  0  0  0  0
  4  5  1  0  0  0  0
  5 11  1  0  0  0  0
  5  6  2  0  0  0  0
  7  6  1  0  0  0  0
  7  1  1  0  0  0  0
  8  7  2  0  0  0  0
  9  3  1  0  0  0  0
 10  4  1  0  0  0  0
 11 12  1  0  0  0  0
 12 14  1  0  0  0  0
 13 12  1  0  0  0  0
 15 14  1  0  0  0  0
 16 14  1  0  0  0  0
 17 18  1  0  0  0  0
 17 16  1  0  0  0  0
 19 17  1  0  0  0  0
 19 11  1  0  0  0  0
 20 19  1  0  0  0  0
 21 23  1  0  0  0  0
 22 21  1  0  0  0  0
 24 27  1  6  0  0  0
 24 21  1  0  0  0  0
 24 25  1  0  0  0  0
 25 29  1  0  0  0  0
 25 28  1  0  0  0  0
 26 30  1  6  0  0  0
 26 24  1  0  0  0  0
 26 25  1  0  0  0  0
 31 26  1  0  0  0  0
 31 34  1  0  0  0  0
 32 36  1  0  0  0  0
 32 31  1  0  0  0  0
 33 32  1  0  0  0  0
 33 31  1  0  0  0  0
 35 32  1  0  0  0  0
 37 33  1  0  0  0  0
 38 33  1  0  0  0  0
M  END
>  <minimizedAffinity>
-4.89570093

$$$$

 OpenBabel03252508163D

 38 41  0  0  1  0  0  0  0  0999 V2000
   34.5330   29.1080   37.0600 C   0  0  0  0  0  3  0  0  0  0  0  0
   33.3590   29.0810   37.5570 C   0  0  0  0  0  3  0  0  0  0  0  0
   37.6750   30.4830   38.4080 C   0  0  0  0  0  0  0  0  0  0  0  0
   37.7580   29.9180   39.6730 C   0  0  0  0  0  0  0  0  0  0  0  0
   36.7250   29.0760   40.0450 C   0  0  0  0  0  0  0  0  0  0  0  0
   35.7370   28.8730   39.1650 N   0  0  0  0  0  0  0  0  0  0  0  0
   35.6510   29.4120   37.9520 C   0  0  0  0  0  0  0  0  0  0  0  0
   36.6500   30.2210   37.6040 N   0  0  0  0  0  0  0  0  0  0  0  0
   38.4700   31.1430   38.0970 H   0  0  0  0  0  0  0  0  0  0  0  0
   38.5540   30.0870   40.3670 H   0  0  0  0  0  0  0  0  0  0  0  0
   36.6470   28.3940   41.3390 C   0  0  0  0  0  3  0  0  0  0  0  0
   37.6590   28.9620   42.3420 C   0  0  0  0  0  3  0  0  0  0  0  0
   38.6750   28.6400   42.0970 H   0  0  0  0  0  0  0  0  0  0  0  0
   37.2480   28.3750   43.6800 C   0  0  0  0  0  3  0  0  0  0  0  0
   38.1220   28.3360   44.3460 H   0  0  0  0  0  0  0  0  0  0  0  0
   36.5460   27.2030   43.5500 O   0  0  0  0  0  0  0  0  0  0  0  0
   37.0060   26.3420   42.5670 C   0  0  0  0  0  3  0  0  0  0  0  0
   36.2540   25.5060   42.5310 H   0  0  0  0  0  0  0  0  0  0  0  0
   37.0410   26.9370   41.1900 C   0  0  0  0  0  3  0  0  0  0  0  0
   38.1140   26.9320   40.8540 H   0  0  0  0  0  0  0  0  0  0  0  0
   32.2450   28.7550   36.5690 C   0  0  0  0  0  0  0  0  0  0  0  0
   31.2740   28.7350   37.0800 H   0  0  0  0  0  0  0  0  0  0  0  0
   32.4720   27.7370   36.2020 H   0  0  0  0  0  0  0  0  0  0  0  0
   32.3090   29.7040   35.3960 C   0  0  1  0  0  0  0  0  0  0  0  0
   31.3470   29.4470   34.2900 C   0  0  0  0  0  0  0  0  0  0  0  0
   31.1670   30.6110   35.1360 C   0  0  1  0  0  0  0  0  0  0  0  0
   33.3150   30.0830   35.1370 H   0  0  0  0  0  0  0  0  0  0  0  0
   30.6420   28.5920   34.3850 H   0  0  0  0  0  0  0  0  0  0  0  0
   31.6800   29.5770   33.2300 H   0  0  0  0  0  0  0  0  0  0  0  0
   31.4350   31.6060   34.6660 H   0  0  0  0  0  0  0  0  0  0  0  0
   30.1290   30.7470   36.1850 C   0  0  0  0  0  0  0  0  0  0  0  0
   29.2400   32.0170   36.0510 C   0  0  0  0  0  0  0  0  0  0  0  0
   30.2680   31.9910   37.1050 C   0  0  0  0  0  0  0  0  0  0  0  0
   29.6540   29.8600   36.6420 H   0  0  0  0  0  0  0  0  0  0  0  0
   29.4330   32.6780   35.1820 H   0  0  0  0  0  0  0  0  0  0  0  0
   28.1870   31.8690   36.3780 H   0  0  0  0  0  0  0  0  0  0  0  0
   31.1990   32.5740   36.9770 H   0  0  0  0  0  0  0  0  0  0  0  0
   30.0130   31.8130   38.1790 H   0  0  0  0  0  0  0  0  0  0  0  0
  1  2  2  0  0  0  0
  1  7  1  0  0  0  0
  3  4  1  0  0  0  0
  4  5  2  0  0  0  0
  4 10  1  0  0  0  0
  5 11  1  0  0  0  0
  6  5  1  0  0  0  0
  7  6  2  0  0  0  0
  8  7  1  0  0  0  0
  8  3  2  0  0  0  0
  9  3  1  0  0  0  0
 11 12  1  0  0  0  0
 12 14  1  0  0  0  0
 13 12  1  0  0  0  0
 14 15  1  0  0  0  0
 16 14  1  0  0  0  0
 17 16  1  0  0  0  0
 18 17  1  0  0  0  0
 19 11  1  0  0  0  0
 19 17  1  0  0  0  0
 20 19  1  0  0  0  0
 21 22  1  0  0  0  0
 21  2  1  0  0  0  0
 23 21  1  0  0  0  0
 24 27  1  6  0  0  0
 24 21  1  0  0  0  0
 25 28  1  0  0  0  0
 25 26  1  0  0  0  0
 25 24  1  0  0  0  0
 26 30  1  6  0  0  0
 26 24  1  0  0  0  0
 26 31  1  0  0  0  0
 29 25  1  0  0  0  0
 31 34  1  0  0  0  0
 31 33  1  0  0  0  0
 32 31  1  0  0  0  0
 32 36  1  0  0  0  0
 32 33  1  0  0  0  0
 33 38  1  0  0  0  0
 35 32  1  0  0  0  0
 37 33  1  0  0  0  0
M  END
>  <minimizedAffinity>
-4.85202026

$$$$

 OpenBabel03252508163D

 38 41  0  0  1  0  0  0  0  0999 V2000
   39.5590   30.1940   42.6710 C   0  0  0  0  0  3  0  0  0  0  0  0
   38.6110   30.2790   41.8230 C   0  0  0  0  0  3  0  0  0  0  0  0
   42.8760   31.7470   43.0720 C   0  0  0  0  0  0  0  0  0  0  0  0
   43.0640   32.4220   41.8740 C   0  0  0  0  0  0  0  0  0  0  0  0
   42.0460   32.3260   40.9430 C   0  0  0  0  0  0  0  0  0  0  0  0
   40.9700   31.5980   41.2650 N   0  0  0  0  0  0  0  0  0  0  0  0
   40.7840   30.9490   42.4120 C   0  0  0  0  0  0  0  0  0  0  0  0
   41.7710   31.0470   43.3010 N   0  0  0  0  0  0  0  0  0  0  0  0
   43.6580   31.8080   43.8140 H   0  0  0  0  0  0  0  0  0  0  0  0
   43.9280   33.0020   41.6290 H   0  0  0  0  0  0  0  0  0  0  0  0
   42.0720   32.9710   39.6270 C   0  0  0  0  0  3  0  0  0  0  0  0
   41.6860   31.9940   38.5090 C   0  0  0  0  0  3  0  0  0  0  0  0
   42.4970   31.2860   38.3120 H   0  0  0  0  0  0  0  0  0  0  0  0
   41.4700   32.8710   37.2890 C   0  0  0  0  0  3  0  0  0  0  0  0
   41.6420   32.2790   36.3790 H   0  0  0  0  0  0  0  0  0  0  0  0
   42.1520   34.0590   37.3640 O   0  0  0  0  0  0  0  0  0  0  0  0
   43.4280   33.9770   37.8970 C   0  0  0  0  0  3  0  0  0  0  0  0
   43.7800   35.0430   37.9840 H   0  0  0  0  0  0  0  0  0  0  0  0
   43.4840   33.4020   39.2820 C   0  0  0  0  0  3  0  0  0  0  0  0
   44.0970   32.4610   39.2240 H   0  0  0  0  0  0  0  0  0  0  0  0
   37.3640   29.4690   42.1600 C   0  0  0  0  0  0  0  0  0  0  0  0
   36.8450   29.1660   41.2430 H   0  0  0  0  0  0  0  0  0  0  0  0
   36.7130   30.1620   42.7240 H   0  0  0  0  0  0  0  0  0  0  0  0
   37.7330   28.3230   43.0730 C   0  0  1  0  0  0  0  0  0  0  0  0
   36.5980   27.5750   43.6790 C   0  0  0  0  0  0  0  0  0  0  0  0
   37.4090   26.9380   42.6600 C   0  0  1  0  0  0  0  0  0  0  0  0
   38.6490   28.4620   43.6760 H   0  0  0  0  0  0  0  0  0  0  0  0
   35.5600   27.8880   43.4300 H   0  0  0  0  0  0  0  0  0  0  0  0
   36.6700   27.2330   44.7420 H   0  0  0  0  0  0  0  0  0  0  0  0
   38.1250   26.1410   43.0300 H   0  0  0  0  0  0  0  0  0  0  0  0
   36.9870   26.7060   41.2590 C   0  0  0  0  0  0  0  0  0  0  0  0
   37.0710   25.2210   40.7980 C   0  0  0  0  0  0  0  0  0  0  0  0
   38.0910   26.1640   40.3100 C   0  0  0  0  0  0  0  0  0  0  0  0
   36.2030   27.3240   40.7850 H   0  0  0  0  0  0  0  0  0  0  0  0
   37.4000   24.4780   41.5510 H   0  0  0  0  0  0  0  0  0  0  0  0
   36.2780   24.9270   40.0760 H   0  0  0  0  0  0  0  0  0  0  0  0
   39.1110   26.1370   40.7350 H   0  0  0  0  0  0  0  0  0  0  0  0
   38.0660   26.5820   39.2720 H   0  0  0  0  0  0  0  0  0  0  0  0
  2 21  1  0  0  0  0
  2  1  2  0  0  0  0
  3  8  1  0  0  0  0
  3  9  1  0  0  0  0
  4  3  2  0  0  0  0
  5  6  2  0  0  0  0
  5  4  1  0  0  0  0
  6  7  1  0  0  0  0
  7  1  1  0  0  0  0
  7  8  2  0  0  0  0
 10  4  1  0  0  0  0
 11  5  1  0  0  0  0
 12 11  1  0  0  0  0
 13 12  1  0  0  0  0
 14 16  1  0  0  0  0
 14 12  1  0  0  0  0
 15 14  1  0  0  0  0
 16 17  1  0  0  0  0
 17 18  1  0  0  0  0
 17 19  1  0  0  0  0
 19 11  1  0  0  0  0
 20 19  1  0  0  0  0
 21 23  1  0  0  0  0
 21 24  1  0  0  0  0
 22 21  1  0  0  0  0
 24 27  1  1  0  0  0
 24 25  1  0  0  0  0
 25 29  1  0  0  0  0
 26 30  1  1  0  0  0
 26 24  1  0  0  0  0
 26 25  1  0  0  0  0
 28 25  1  0  0  0  0
 31 26  1  0  0  0  0
 32 31  1  0  0  0  0
 32 35  1  0  0  0  0
 33 37  1  0  0  0  0
 33 32  1  0  0  0  0
 33 31  1  0  0  0  0
 34 31  1  0  0  0  0
 36 32  1  0  0  0  0
 38 33  1  0  0  0  0
M  END
>  <minimizedAffinity>
-4.72751474

$$$$
