
 OpenBabel03242510463D

 22 23  0  0  0  0  0  0  0  0999 V2000
   47.4810   34.7220   42.0830 C   0  0  0  0  0  0  0  0  0  0  0  0
   47.7840   34.1300   43.3330 C   0  0  0  0  0  0  0  0  0  0  0  0
   46.6990   33.6430   44.0920 C   0  0  0  0  0  0  0  0  0  0  0  0
   45.4500   33.7690   43.5910 N   0  0  0  0  0  0  0  0  0  0  0  0
   45.2070   34.3420   42.3900 C   0  0  0  0  0  0  0  0  0  0  0  0
   46.2110   34.8110   41.6490 N   0  0  0  0  0  0  0  0  0  0  0  0
   48.8050   34.0500   43.7000 H   0  0  0  0  0  0  0  0  0  0  0  0
   46.9050   33.1920   45.0410 H   0  0  0  0  0  0  0  0  0  0  0  0
   43.7820   34.3980   41.9900 C   0  0  0  0  0  0  0  0  0  0  0  0
   43.6470   35.3870   40.8630 C   0  0  0  0  0  0  0  0  0  0  0  0
   44.5690   35.4250   40.2510 H   0  0  0  0  0  0  0  0  0  0  0  0
   42.4120   35.1500   40.0280 C   0  0  0  0  0  0  0  0  0  0  0  0
   41.5070   35.6230   40.4670 H   0  0  0  0  0  0  0  0  0  0  0  0
   42.1960   33.7970   39.7820 O   0  0  0  0  0  0  0  0  0  0  0  0
   42.0310   33.0550   40.9360 C   0  0  0  0  0  0  0  0  0  0  0  0
   41.7980   32.0180   40.6140 H   0  0  0  0  0  0  0  0  0  0  0  0
   43.3340   33.0140   41.6670 C   0  0  0  0  0  0  0  0  0  0  0  0
   44.1050   32.4260   41.1020 H   0  0  0  0  0  0  0  0  0  0  0  0
   48.6460   35.2310   41.2950 C   0  0  0  0  0  0  0  0  0  0  0  0
   48.3750   35.2310   39.9390 F   0  0  0  0  0  0  0  0  0  0  0  0
   48.9670   36.4880   41.7590 F   0  0  0  0  0  0  0  0  0  0  0  0
   49.7630   34.4260   41.5500 F   0  0  0  0  0  0  0  0  0  0  0  0
  1  2  1  0  0  0  0
  2  7  1  0  0  0  0
  2  3  2  0  0  0  0
  3  8  1  0  0  0  0
  4  3  1  0  0  0  0
  5  4  2  0  0  0  0
  6  1  2  0  0  0  0
  6  5  1  0  0  0  0
  9  5  1  0  0  0  0
 10  9  1  0  0  0  0
 11 10  1  0  0  0  0
 12 13  1  0  0  0  0
 12 10  1  0  0  0  0
 14 12  1  0  0  0  0
 14 15  1  0  0  0  0
 15 17  1  0  0  0  0
 16 15  1  0  0  0  0
 17  9  1  0  0  0  0
 18 17  1  0  0  0  0
 19 22  1  0  0  0  0
 19 21  1  0  0  0  0
 19  1  1  0  0  0  0
 20 19  1  0  0  0  0
M  END
>  <minimizedAffinity>
-4.88525438

>  <minimizedRMSD>
1.58492541

$$$$
