
 OpenBabel03252508103D

 48 51  0  0  0  0  0  0  0  0999 V2000
   45.1600   35.5960   43.1570 C   0  0  0  0  0  0  0  0  0  0  0  0
   45.5240   34.2680   43.2250 C   0  0  0  0  0  0  0  0  0  0  0  0
   45.4430   33.5710   44.3960 C   0  0  0  0  0  0  0  0  0  0  0  0
   44.9710   34.2810   45.4950 N   0  0  0  0  0  0  0  0  0  0  0  0
   44.6200   35.5540   45.4350 C   0  0  0  0  0  0  0  0  0  0  0  0
   44.7200   36.2050   44.2530 N   0  0  0  0  0  0  0  0  0  0  0  0
   45.2080   36.1900   42.2470 H   0  0  0  0  0  0  0  0  0  0  0  0
   44.2570   36.0540   46.3410 H   0  0  0  0  0  0  0  0  0  0  0  0
   45.7760   32.2260   44.6440 C   0  0  0  0  0  0  0  0  0  0  0  0
   45.4240   31.1830   43.7660 C   0  0  0  0  0  0  0  0  0  0  0  0
   45.6840   29.8590   44.0030 C   0  0  0  0  0  0  0  0  0  0  0  0
   46.3310   29.4910   45.1680 C   0  0  0  0  0  0  0  0  0  0  0  0
   46.6980   30.5380   46.0740 C   0  0  0  0  0  0  0  0  0  0  0  0
   47.3330   30.1830   47.2280 C   0  0  0  0  0  0  0  0  0  0  0  0
   47.7110   31.1450   48.1360 C   0  0  0  0  0  0  0  0  0  0  0  0
   47.4370   32.4980   47.8630 C   0  0  0  0  0  0  0  0  0  0  0  0
   46.7760   32.8010   46.6520 C   0  0  0  0  0  0  0  0  0  0  0  0
   46.4130   31.8280   45.7780 C   0  0  0  0  0  0  0  0  0  0  0  0
   44.9180   31.4500   42.8490 H   0  0  0  0  0  0  0  0  0  0  0  0
   45.3760   29.1310   43.2680 H   0  0  0  0  0  0  0  0  0  0  0  0
   46.5390   28.4670   45.3670 H   0  0  0  0  0  0  0  0  0  0  0  0
   47.5310   29.1220   47.4040 H   0  0  0  0  0  0  0  0  0  0  0  0
   48.2030   30.7760   49.0120 H   0  0  0  0  0  0  0  0  0  0  0  0
   47.7760   33.1490   48.6340 H   0  0  0  0  0  0  0  0  0  0  0  0
   46.6940   33.8690   46.6400 H   0  0  0  0  0  0  0  0  0  0  0  0
   45.9650   33.6840   42.0700 O   0  0  0  0  0  0  0  0  0  0  0  0
   48.1510   32.3910   41.4150 O   0  0  0  0  0  0  0  0  0  0  0  0
   47.5280   33.7530   41.4760 P   0  0  1  0  0  0  0  0  0  0  0  0
   47.5920   34.3980   39.9190 O   0  0  0  0  0  0  0  0  0  0  0  0
   47.2460   33.3410   39.0590 C   0  0  0  0  0  0  0  0  0  0  0  0
   46.3490   32.8010   39.3560 H   0  0  0  0  0  0  0  0  0  0  0  0
   48.0900   32.6020   39.1800 H   0  0  0  0  0  0  0  0  0  0  0  0
   47.2790   33.7660   37.6220 C   0  0  0  0  0  3  0  0  0  0  0  0
   46.7060   32.7310   36.6880 C   0  0  0  0  0  3  0  0  0  0  0  0
   46.6840   33.2160   35.6690 H   0  0  0  0  0  0  0  0  0  0  0  0
   47.5950   31.5370   36.5450 C   0  0  0  0  0  3  0  0  0  0  0  0
   46.9740   30.6460   36.8540 H   0  0  0  0  0  0  0  0  0  0  0  0
   48.6960   31.5160   37.3660 O   0  0  0  0  0  0  0  0  0  0  0  0
   49.4530   32.6510   37.4090 C   0  0  0  0  0  3  0  0  0  0  0  0
   50.3400   32.6150   36.7140 H   0  0  0  0  0  0  0  0  0  0  0  0
   48.7300   33.9410   37.2290 C   0  0  0  0  0  3  0  0  0  0  0  0
   48.8180   34.3420   36.1800 H   0  0  0  0  0  0  0  0  0  0  0  0
   48.4410   34.7280   42.5100 O   0  0  0  0  0  0  0  0  0  0  0  0
   49.6470   35.3400   42.2440 C   0  0  0  0  0  0  0  0  0  0  0  0
   49.3810   36.3890   41.6720 O   0  0  0  0  0  0  0  0  0  0  0  0
   50.7430   34.5550   42.7170 N   0  0  0  0  0  0  0  0  0  0  0  0
   51.0320   34.3720   43.7280 H   0  0  0  0  0  0  0  0  0  0  0  0
   51.5730   33.9620   42.4860 H   0  0  0  0  0  0  0  0  0  0  0  0
  1  2  2  0  0  0  0
  1  6  1  0  0  0  0
  2  3  1  0  0  0  0
  3  9  1  0  0  0  0
  3  4  2  0  0  0  0
  5  4  1  0  0  0  0
  5  8  1  0  0  0  0
  6  5  2  0  0  0  0
  7  1  1  0  0  0  0
  9 18  1  0  0  0  0
 10 11  1  0  0  0  0
 10  9  2  0  0  0  0
 11 12  2  0  0  0  0
 12 21  1  0  0  0  0
 12 13  1  0  0  0  0
 13 14  1  0  0  0  0
 14 22  1  0  0  0  0
 14 15  2  0  0  0  0
 15 23  1  0  0  0  0
 16 15  1  0  0  0  0
 16 24  1  0  0  0  0
 17 16  2  0  0  0  0
 18 13  2  0  0  0  0
 18 17  1  0  0  0  0
 19 10  1  0  0  0  0
 20 11  1  0  0  0  0
 25 17  1  0  0  0  0
 26  2  1  0  0  0  0
 28 27  2  6  0  0  0
 28 26  1  0  0  0  0
 28 43  1  0  0  0  0
 29 28  1  0  0  0  0
 30 32  1  0  0  0  0
 30 31  1  0  0  0  0
 30 29  1  0  0  0  0
 33 30  1  0  0  0  0
 34 33  1  0  0  0  0
 35 34  1  0  0  0  0
 36 34  1  0  0  0  0
 36 37  1  0  0  0  0
 36 38  1  0  0  0  0
 38 39  1  0  0  0  0
 40 39  1  0  0  0  0
 41 39  1  0  0  0  0
 41 33  1  0  0  0  0
 42 41  1  0  0  0  0
 44 43  1  0  0  0  0
 44 46  1  0  0  0  0
 45 44  2  0  0  0  0
 46 47  1  0  0  0  0
 48 46  1  0  0  0  0
M  END
>  <minimizedAffinity>
-6.25629044

>  <minimizedRMSD>
0.557766259

$$$$
