
 OpenBabel03242510363D

 22 23  0  0  0  0  0  0  0  0999 V2000
   44.5480   35.6030   44.8090 C   0  0  0  0  0  0  0  0  0  0  0  0
   45.1720   35.5900   43.5470 C   0  0  0  0  0  0  0  0  0  0  0  0
   46.1970   34.6400   43.3390 C   0  0  0  0  0  0  0  0  0  0  0  0
   46.5160   33.8030   44.3590 N   0  0  0  0  0  0  0  0  0  0  0  0
   45.8780   33.8590   45.5630 C   0  0  0  0  0  0  0  0  0  0  0  0
   44.9090   34.7490   45.7790 N   0  0  0  0  0  0  0  0  0  0  0  0
   43.7590   36.3180   45.0030 H   0  0  0  0  0  0  0  0  0  0  0  0
   44.8550   36.2930   42.7900 H   0  0  0  0  0  0  0  0  0  0  0  0
   46.3040   32.9080   46.5920 C   0  0  0  0  0  0  0  0  0  0  0  0
   46.4770   31.4980   46.1310 C   0  0  0  0  0  0  0  0  0  0  0  0
   46.2370   31.3790   45.0460 H   0  0  0  0  0  0  0  0  0  0  0  0
   45.5950   30.5080   46.8470 C   0  0  0  0  0  0  0  0  0  0  0  0
   45.9550   29.4890   46.5940 H   0  0  0  0  0  0  0  0  0  0  0  0
   45.6300   30.5940   48.2240 O   0  0  0  0  0  0  0  0  0  0  0  0
   45.7570   31.8840   48.7200 C   0  0  0  0  0  0  0  0  0  0  0  0
   45.2180   32.0710   49.6610 H   0  0  0  0  0  0  0  0  0  0  0  0
   45.2300   32.8700   47.6810 C   0  0  0  0  0  0  0  0  0  0  0  0
   45.1180   33.8800   48.0830 H   0  0  0  0  0  0  0  0  0  0  0  0
   46.8150   34.6650   42.0120 C   0  0  0  0  0  0  0  0  0  0  0  0
   47.5750   33.5100   41.8590 F   0  0  0  0  0  0  0  0  0  0  0  0
   47.6970   35.7180   42.0000 F   0  0  0  0  0  0  0  0  0  0  0  0
   45.8990   34.7000   40.9890 F   0  0  0  0  0  0  0  0  0  0  0  0
  1  7  1  0  0  0  0
  1  6  1  0  0  0  0
  2  1  2  0  0  0  0
  3  2  1  0  0  0  0
  3  4  2  0  0  0  0
  4  5  1  0  0  0  0
  5  6  2  0  0  0  0
  5  9  1  0  0  0  0
  8  2  1  0  0  0  0
  9 17  1  0  0  0  0
 10  9  1  0  0  0  0
 10 12  1  0  0  0  0
 11 10  1  0  0  0  0
 12 14  1  0  0  0  0
 13 12  1  0  0  0  0
 14 15  1  0  0  0  0
 15 16  1  0  0  0  0
 17 18  1  0  0  0  0
 17 15  1  0  0  0  0
 19  3  1  0  0  0  0
 20 19  1  0  0  0  0
 21 19  1  0  0  0  0
 22 19  1  0  0  0  0
M  END
>  <minimizedAffinity>
-5.25158691

>  <minimizedRMSD>
0.662899613

$$$$
