
 OpenBabel03252503043D

 35 36  0  0  0  0  0  0  0  0999 V2000
   40.5280   32.2850   40.9110 C   0  0  0  0  0  0  0  0  0  0  0  0
   41.6930   32.2020   41.6490 C   0  0  0  0  0  0  0  0  0  0  0  0
   41.8530   31.2320   42.6330 C   0  0  0  0  0  0  0  0  0  0  0  0
   40.8220   30.3760   42.8350 N   0  0  0  0  0  0  0  0  0  0  0  0
   39.6910   30.4790   42.0990 C   0  0  0  0  0  0  0  0  0  0  0  0
   39.5230   31.4100   41.1470 N   0  0  0  0  0  0  0  0  0  0  0  0
   40.3850   33.0310   40.1430 H   0  0  0  0  0  0  0  0  0  0  0  0
   42.7650   31.2020   43.1780 H   0  0  0  0  0  0  0  0  0  0  0  0
   43.0420   33.3590   41.3510 S   0  0  0  0  0  0  0  0  0  0  0  0
   42.6290   34.4210   39.9740 C   0  0  0  0  0  0  0  0  0  0  0  0
   41.7240   34.0930   39.4190 H   0  0  0  0  0  0  0  0  0  0  0  0
   42.3970   35.4480   40.3320 H   0  0  0  0  0  0  0  0  0  0  0  0
   43.7930   34.5020   39.1040 N   0  0  0  0  0  0  0  0  0  0  0  0
   44.6190   34.0110   39.5050 H   0  0  0  0  0  0  0  0  0  0  0  0
   43.5050   33.7490   37.5840 S   0  0  0  0  0  0  0  0  0  0  0  0
   42.5880   34.5360   36.7160 O   0  0  0  0  0  0  0  0  0  0  0  0
   42.1110   35.3780   36.9630 H   0  0  0  0  0  0  0  0  0  0  0  0
   44.8590   33.6350   36.9020 O   0  0  0  0  0  0  0  0  0  0  0  0
   45.5740   33.0230   37.2180 H   0  0  0  0  0  0  0  0  0  0  0  0
   42.9400   32.2020   37.8350 O   0  0  0  0  0  0  0  0  0  0  0  0
   41.7230   31.9830   37.2110 C   0  0  0  0  0  0  0  0  0  0  0  0
   41.1620   31.2930   37.8750 H   0  0  0  0  0  0  0  0  0  0  0  0
   41.1930   32.9110   36.9960 H   0  0  0  0  0  0  0  0  0  0  0  0
   41.9630   31.4820   36.2380 H   0  0  0  0  0  0  0  0  0  0  0  0
   38.6130   29.6160   42.2810 O   0  0  0  0  0  0  0  0  0  0  0  0
   38.6930   28.4760   43.1240 C   0  0  0  0  0  3  0  0  0  0  0  0
   37.4190   28.2860   43.8660 C   0  0  0  0  0  3  0  0  0  0  0  0
   37.7080   27.9310   44.8980 H   0  0  0  0  0  0  0  0  0  0  0  0
   36.4550   27.3100   43.3010 C   0  0  0  0  0  3  0  0  0  0  0  0
   35.9720   26.7160   44.1310 H   0  0  0  0  0  0  0  0  0  0  0  0
   36.9430   26.3930   42.4150 O   0  0  0  0  0  0  0  0  0  0  0  0
   37.8240   26.8780   41.4850 C   0  0  0  0  0  3  0  0  0  0  0  0
   38.1510   25.9890   40.8790 H   0  0  0  0  0  0  0  0  0  0  0  0
   39.0630   27.3210   42.2270 C   0  0  0  0  0  3  0  0  0  0  0  0
   39.8110   27.6310   41.4680 H   0  0  0  0  0  0  0  0  0  0  0  0
  1  6  2  0  0  0  0
  1  2  1  0  0  0  0
  2  3  2  0  0  0  0
  3  4  1  0  0  0  0
  3  8  1  0  0  0  0
  5 25  1  0  0  0  0
  5  4  2  0  0  0  0
  6  5  1  0  0  0  0
  7  1  1  0  0  0  0
  9  2  1  0  0  0  0
 10 12  1  0  0  0  0
 10  9  1  0  0  0  0
 11 10  1  0  0  0  0
 13 14  1  0  0  0  0
 13 10  1  0  0  0  0
 15 20  1  0  0  0  0
 15 13  1  0  0  0  0
 16 17  1  0  0  0  0
 16 15  1  0  0  0  0
 18 19  1  0  0  0  0
 18 15  1  0  0  0  0
 21 20  1  0  0  0  0
 21 22  1  0  0  0  0
 23 21  1  0  0  0  0
 24 21  1  0  0  0  0
 25 26  1  0  0  0  0
 26 27  1  0  0  0  0
 27 28  1  0  0  0  0
 29 27  1  0  0  0  0
 29 30  1  0  0  0  0
 31 29  1  0  0  0  0
 32 34  1  0  0  0  0
 32 31  1  0  0  0  0
 33 32  1  0  0  0  0
 34 26  1  0  0  0  0
 35 34  1  0  0  0  0
M  END
>  <minimizedAffinity>
-5.02490759

$$$$

 OpenBabel03252503043D

 35 36  0  0  0  0  0  0  0  0999 V2000
   40.1180   31.7320   41.9240 C   0  0  0  0  0  0  0  0  0  0  0  0
   39.4900   32.0810   40.7450 C   0  0  0  0  0  0  0  0  0  0  0  0
   38.9270   31.1150   39.9170 C   0  0  0  0  0  0  0  0  0  0  0  0
   39.0210   29.8240   40.3160 N   0  0  0  0  0  0  0  0  0  0  0  0
   39.6420   29.5080   41.4770 C   0  0  0  0  0  0  0  0  0  0  0  0
   40.1890   30.4300   42.2850 N   0  0  0  0  0  0  0  0  0  0  0  0
   40.5610   32.4670   42.5800 H   0  0  0  0  0  0  0  0  0  0  0  0
   38.4530   31.4250   39.0180 H   0  0  0  0  0  0  0  0  0  0  0  0
   39.3860   33.8100   40.2470 S   0  0  0  0  0  0  0  0  0  0  0  0
   40.8660   34.2680   39.3570 C   0  0  0  0  0  0  0  0  0  0  0  0
   40.6650   34.8800   38.4520 H   0  0  0  0  0  0  0  0  0  0  0  0
   41.5240   34.8980   39.9960 H   0  0  0  0  0  0  0  0  0  0  0  0
   41.5910   33.0480   39.0320 N   0  0  0  0  0  0  0  0  0  0  0  0
   41.1510   32.2040   39.4550 H   0  0  0  0  0  0  0  0  0  0  0  0
   41.6140   32.7540   37.3370 S   0  0  0  0  0  0  0  0  0  0  0  0
   40.2530   32.5790   36.7640 O   0  0  0  0  0  0  0  0  0  0  0  0
   39.3930   32.5550   37.2710 H   0  0  0  0  0  0  0  0  0  0  0  0
   42.2660   33.9730   36.7030 O   0  0  0  0  0  0  0  0  0  0  0  0
   43.2280   34.1900   36.8130 H   0  0  0  0  0  0  0  0  0  0  0  0
   42.5920   31.4430   37.0190 O   0  0  0  0  0  0  0  0  0  0  0  0
   42.0380   30.2580   37.4720 C   0  0  0  0  0  0  0  0  0  0  0  0
   42.8920   29.6320   37.8020 H   0  0  0  0  0  0  0  0  0  0  0  0
   41.2860   30.4180   38.2440 H   0  0  0  0  0  0  0  0  0  0  0  0
   41.5350   29.7960   36.5820 H   0  0  0  0  0  0  0  0  0  0  0  0
   39.7550   28.1910   41.9170 O   0  0  0  0  0  0  0  0  0  0  0  0
   39.1740   27.7490   43.1340 C   0  0  0  0  0  3  0  0  0  0  0  0
   37.8420   28.3770   43.3360 C   0  0  0  0  0  3  0  0  0  0  0  0
   37.7610   28.5910   44.4410 H   0  0  0  0  0  0  0  0  0  0  0  0
   36.6580   27.5750   42.9380 C   0  0  0  0  0  3  0  0  0  0  0  0
   35.8270   27.7110   43.6910 H   0  0  0  0  0  0  0  0  0  0  0  0
   36.8330   26.2280   42.8090 O   0  0  0  0  0  0  0  0  0  0  0  0
   37.9820   25.8380   42.1750 C   0  0  0  0  0  3  0  0  0  0  0  0
   37.9790   24.7130   42.1980 H   0  0  0  0  0  0  0  0  0  0  0  0
   39.1420   26.2430   43.0550 C   0  0  0  0  0  3  0  0  0  0  0  0
   40.0670   25.8490   42.5860 H   0  0  0  0  0  0  0  0  0  0  0  0
  1  6  1  0  0  0  0
  1  7  1  0  0  0  0
  2  1  2  0  0  0  0
  3  4  2  0  0  0  0
  3  2  1  0  0  0  0
  4  5  1  0  0  0  0
  5 25  1  0  0  0  0
  5  6  2  0  0  0  0
  8  3  1  0  0  0  0
  9  2  1  0  0  0  0
 10 12  1  0  0  0  0
 10  9  1  0  0  0  0
 11 10  1  0  0  0  0
 13 10  1  0  0  0  0
 13 14  1  0  0  0  0
 15 13  1  0  0  0  0
 16 17  1  0  0  0  0
 16 15  1  0  0  0  0
 18 19  1  0  0  0  0
 18 15  1  0  0  0  0
 20 15  1  0  0  0  0
 20 21  1  0  0  0  0
 21 22  1  0  0  0  0
 21 23  1  0  0  0  0
 24 21  1  0  0  0  0
 25 26  1  0  0  0  0
 26 27  1  0  0  0  0
 27 28  1  0  0  0  0
 29 27  1  0  0  0  0
 29 30  1  0  0  0  0
 31 29  1  0  0  0  0
 32 33  1  0  0  0  0
 32 31  1  0  0  0  0
 32 34  1  0  0  0  0
 34 26  1  0  0  0  0
 35 34  1  0  0  0  0
M  END
>  <minimizedAffinity>
-4.94526148

$$$$

 OpenBabel03252503043D

 35 36  0  0  0  0  0  0  0  0999 V2000
   37.3980   30.7420   41.2450 C   0  0  0  0  0  0  0  0  0  0  0  0
   38.2520   31.1290   40.2310 C   0  0  0  0  0  0  0  0  0  0  0  0
   38.8560   30.1890   39.4030 C   0  0  0  0  0  0  0  0  0  0  0  0
   38.5720   28.8840   39.6330 N   0  0  0  0  0  0  0  0  0  0  0  0
   37.7310   28.5310   40.6340 C   0  0  0  0  0  0  0  0  0  0  0  0
   37.1420   29.4280   41.4400 N   0  0  0  0  0  0  0  0  0  0  0  0
   36.9190   31.4570   41.8990 H   0  0  0  0  0  0  0  0  0  0  0  0
   39.5070   30.5270   38.6340 H   0  0  0  0  0  0  0  0  0  0  0  0
   38.6060   32.8740   39.9570 S   0  0  0  0  0  0  0  0  0  0  0  0
   40.3700   33.1470   40.0230 C   0  0  0  0  0  0  0  0  0  0  0  0
   40.7140   33.5890   40.9820 H   0  0  0  0  0  0  0  0  0  0  0  0
   40.9160   32.1810   39.9330 H   0  0  0  0  0  0  0  0  0  0  0  0
   40.7400   33.9770   38.8850 N   0  0  0  0  0  0  0  0  0  0  0  0
   41.4880   34.6600   39.1230 H   0  0  0  0  0  0  0  0  0  0  0  0
   41.3710   33.0360   37.5900 S   0  0  0  0  0  0  0  0  0  0  0  0
   40.3070   32.4350   36.7420 O   0  0  0  0  0  0  0  0  0  0  0  0
   39.3220   32.4820   36.9010 H   0  0  0  0  0  0  0  0  0  0  0  0
   42.2040   33.9840   36.7420 O   0  0  0  0  0  0  0  0  0  0  0  0
   43.0630   34.3750   37.0530 H   0  0  0  0  0  0  0  0  0  0  0  0
   42.4000   31.8780   38.2020 O   0  0  0  0  0  0  0  0  0  0  0  0
   43.1230   31.2440   37.2050 C   0  0  0  0  0  0  0  0  0  0  0  0
   43.2480   30.1950   37.5430 H   0  0  0  0  0  0  0  0  0  0  0  0
   42.6520   31.3370   36.2270 H   0  0  0  0  0  0  0  0  0  0  0  0
   44.1150   31.7650   37.1680 H   0  0  0  0  0  0  0  0  0  0  0  0
   37.4180   27.2000   40.8970 O   0  0  0  0  0  0  0  0  0  0  0  0
   37.6420   26.6080   42.1670 C   0  0  0  0  0  3  0  0  0  0  0  0
   36.9490   25.2970   42.2620 C   0  0  0  0  0  3  0  0  0  0  0  0
   36.5580   25.2240   43.3190 H   0  0  0  0  0  0  0  0  0  0  0  0
   37.7670   24.0870   41.9940 C   0  0  0  0  0  3  0  0  0  0  0  0
   37.4870   23.2620   42.7120 H   0  0  0  0  0  0  0  0  0  0  0  0
   39.1230   24.2190   42.0810 O   0  0  0  0  0  0  0  0  0  0  0  0
   39.6440   25.3550   41.5210 C   0  0  0  0  0  3  0  0  0  0  0  0
   40.7500   25.3180   41.7240 H   0  0  0  0  0  0  0  0  0  0  0  0
   39.1400   26.5280   42.3290 C   0  0  0  0  0  3  0  0  0  0  0  0
   39.6320   27.4400   41.9320 H   0  0  0  0  0  0  0  0  0  0  0  0
  1  6  1  0  0  0  0
  1  7  1  0  0  0  0
  2  1  2  0  0  0  0
  3  4  2  0  0  0  0
  3  2  1  0  0  0  0
  4  5  1  0  0  0  0
  5 25  1  0  0  0  0
  5  6  2  0  0  0  0
  8  3  1  0  0  0  0
  9 10  1  0  0  0  0
  9  2  1  0  0  0  0
 10 11  1  0  0  0  0
 12 10  1  0  0  0  0
 13 14  1  0  0  0  0
 13 10  1  0  0  0  0
 15 20  1  0  0  0  0
 15 13  1  0  0  0  0
 16 17  1  0  0  0  0
 16 15  1  0  0  0  0
 18 19  1  0  0  0  0
 18 15  1  0  0  0  0
 21 22  1  0  0  0  0
 21 20  1  0  0  0  0
 23 21  1  0  0  0  0
 24 21  1  0  0  0  0
 25 26  1  0  0  0  0
 26 27  1  0  0  0  0
 26 34  1  0  0  0  0
 27 28  1  0  0  0  0
 29 31  1  0  0  0  0
 29 27  1  0  0  0  0
 29 30  1  0  0  0  0
 32 33  1  0  0  0  0
 32 31  1  0  0  0  0
 32 34  1  0  0  0  0
 35 34  1  0  0  0  0
M  END
>  <minimizedAffinity>
-4.88383293

$$$$

 OpenBabel03252503043D

 35 36  0  0  0  0  0  0  0  0999 V2000
   41.0430   32.3730   40.7290 C   0  0  0  0  0  0  0  0  0  0  0  0
   40.4300   33.3110   39.9220 C   0  0  0  0  0  0  0  0  0  0  0  0
   39.0460   33.3400   39.7760 C   0  0  0  0  0  0  0  0  0  0  0  0
   38.3310   32.4120   40.4570 N   0  0  0  0  0  0  0  0  0  0  0  0
   38.9560   31.5040   41.2410 C   0  0  0  0  0  0  0  0  0  0  0  0
   40.2890   31.4640   41.3910 N   0  0  0  0  0  0  0  0  0  0  0  0
   42.1150   32.3340   40.8550 H   0  0  0  0  0  0  0  0  0  0  0  0
   38.6130   34.0780   39.1450 H   0  0  0  0  0  0  0  0  0  0  0  0
   41.4160   34.5280   39.0310 S   0  0  0  0  0  0  0  0  0  0  0  0
   41.9940   33.8240   37.4950 C   0  0  0  0  0  0  0  0  0  0  0  0
   42.1640   32.7270   37.5470 H   0  0  0  0  0  0  0  0  0  0  0  0
   41.2360   33.9650   36.6930 H   0  0  0  0  0  0  0  0  0  0  0  0
   43.2020   34.5360   37.1000 N   0  0  0  0  0  0  0  0  0  0  0  0
   43.2810   35.4640   37.5650 H   0  0  0  0  0  0  0  0  0  0  0  0
   44.6230   33.6760   37.5470 S   0  0  0  0  0  0  0  0  0  0  0  0
   45.5380   33.4380   36.3990 O   0  0  0  0  0  0  0  0  0  0  0  0
   45.3660   33.6690   35.4430 H   0  0  0  0  0  0  0  0  0  0  0  0
   45.3340   34.5360   38.5790 O   0  0  0  0  0  0  0  0  0  0  0  0
   44.9790   34.6890   39.4940 H   0  0  0  0  0  0  0  0  0  0  0  0
   44.1910   32.2520   38.2970 O   0  0  0  0  0  0  0  0  0  0  0  0
   44.6830   32.1730   39.5900 C   0  0  0  0  0  0  0  0  0  0  0  0
   44.9170   31.1020   39.7590 H   0  0  0  0  0  0  0  0  0  0  0  0
   45.5300   32.8390   39.7530 H   0  0  0  0  0  0  0  0  0  0  0  0
   43.8440   32.5010   40.2570 H   0  0  0  0  0  0  0  0  0  0  0  0
   38.2500   30.5380   41.9550 O   0  0  0  0  0  0  0  0  0  0  0  0
   38.6160   29.1660   41.9340 C   0  0  0  0  0  3  0  0  0  0  0  0
   38.5570   28.5890   43.3020 C   0  0  0  0  0  3  0  0  0  0  0  0
   39.4270   27.8730   43.3780 H   0  0  0  0  0  0  0  0  0  0  0  0
   37.3230   27.8470   43.6630 C   0  0  0  0  0  3  0  0  0  0  0  0
   37.5840   26.9310   44.2700 H   0  0  0  0  0  0  0  0  0  0  0  0
   36.5380   27.4080   42.6370 O   0  0  0  0  0  0  0  0  0  0  0  0
   36.3490   28.2970   41.6120 C   0  0  0  0  0  3  0  0  0  0  0  0
   35.7240   27.7580   40.8480 H   0  0  0  0  0  0  0  0  0  0  0  0
   37.6890   28.5050   40.9440 C   0  0  0  0  0  3  0  0  0  0  0  0
   37.5210   29.1550   40.0610 H   0  0  0  0  0  0  0  0  0  0  0  0
  1  7  1  0  0  0  0
  1  6  1  0  0  0  0
  2  1  2  0  0  0  0
  3  2  1  0  0  0  0
  3  4  2  0  0  0  0
  4  5  1  0  0  0  0
  5  6  2  0  0  0  0
  5 25  1  0  0  0  0
  8  3  1  0  0  0  0
  9  2  1  0  0  0  0
 10 11  1  0  0  0  0
 10  9  1  0  0  0  0
 12 10  1  0  0  0  0
 13 10  1  0  0  0  0
 13 15  1  0  0  0  0
 13 14  1  0  0  0  0
 15 20  1  0  0  0  0
 15 18  1  0  0  0  0
 16 15  1  0  0  0  0
 17 16  1  0  0  0  0
 18 19  1  0  0  0  0
 20 21  1  0  0  0  0
 21 23  1  0  0  0  0
 21 22  1  0  0  0  0
 21 24  1  0  0  0  0
 26 25  1  0  0  0  0
 26 27  1  0  0  0  0
 27 28  1  0  0  0  0
 27 29  1  0  0  0  0
 29 30  1  0  0  0  0
 31 29  1  0  0  0  0
 32 31  1  0  0  0  0
 33 32  1  0  0  0  0
 34 32  1  0  0  0  0
 34 26  1  0  0  0  0
 35 34  1  0  0  0  0
M  END
>  <minimizedAffinity>
-4.81269598

$$$$

 OpenBabel03252503043D

 35 36  0  0  0  0  0  0  0  0999 V2000
   37.7670   27.0170   40.5690 C   0  0  0  0  0  0  0  0  0  0  0  0
   37.3310   26.4930   41.7700 C   0  0  0  0  0  0  0  0  0  0  0  0
   36.9540   27.3220   42.8220 C   0  0  0  0  0  0  0  0  0  0  0  0
   37.0320   28.6590   42.6170 N   0  0  0  0  0  0  0  0  0  0  0  0
   37.4620   29.1470   41.4310 C   0  0  0  0  0  0  0  0  0  0  0  0
   37.8300   28.3600   40.4080 N   0  0  0  0  0  0  0  0  0  0  0  0
   38.0650   26.3910   39.7410 H   0  0  0  0  0  0  0  0  0  0  0  0
   36.6250   26.8790   43.7300 H   0  0  0  0  0  0  0  0  0  0  0  0
   37.2430   24.7080   42.0040 S   0  0  0  0  0  0  0  0  0  0  0  0
   38.8680   23.9950   41.7980 C   0  0  0  0  0  0  0  0  0  0  0  0
   38.8460   22.9310   41.4800 H   0  0  0  0  0  0  0  0  0  0  0  0
   39.4280   24.5280   40.9990 H   0  0  0  0  0  0  0  0  0  0  0  0
   39.5960   24.1680   43.0470 N   0  0  0  0  0  0  0  0  0  0  0  0
   40.0180   23.2770   43.3840 H   0  0  0  0  0  0  0  0  0  0  0  0
   40.9130   25.2610   42.8690 S   0  0  0  0  0  0  0  0  0  0  0  0
   42.2320   24.6180   43.1090 O   0  0  0  0  0  0  0  0  0  0  0  0
   42.3910   23.6790   43.4090 H   0  0  0  0  0  0  0  0  0  0  0  0
   40.8580   25.7620   41.4350 O   0  0  0  0  0  0  0  0  0  0  0  0
   40.1430   26.3620   41.0990 H   0  0  0  0  0  0  0  0  0  0  0  0
   40.6760   26.5740   43.8670 O   0  0  0  0  0  0  0  0  0  0  0  0
   40.5880   27.7600   43.1550 C   0  0  0  0  0  0  0  0  0  0  0  0
   41.0520   28.5340   43.8000 H   0  0  0  0  0  0  0  0  0  0  0  0
   41.0390   27.6850   42.1660 H   0  0  0  0  0  0  0  0  0  0  0  0
   39.4920   27.9600   43.0290 H   0  0  0  0  0  0  0  0  0  0  0  0
   37.5540   30.5160   41.1880 O   0  0  0  0  0  0  0  0  0  0  0  0
   38.0780   31.0350   39.9740 C   0  0  0  0  0  3  0  0  0  0  0  0
   37.1100   31.9690   39.3450 C   0  0  0  0  0  3  0  0  0  0  0  0
   37.1830   31.7940   38.2320 H   0  0  0  0  0  0  0  0  0  0  0  0
   37.3190   33.4170   39.5930 C   0  0  0  0  0  3  0  0  0  0  0  0
   37.1130   34.0070   38.6530 H   0  0  0  0  0  0  0  0  0  0  0  0
   38.5590   33.8040   40.0160 O   0  0  0  0  0  0  0  0  0  0  0  0
   39.1350   33.0060   40.9690 C   0  0  0  0  0  3  0  0  0  0  0  0
   40.1540   33.4440   41.1610 H   0  0  0  0  0  0  0  0  0  0  0  0
   39.4020   31.6630   40.3300 C   0  0  0  0  0  3  0  0  0  0  0  0
   39.9490   31.0460   41.0720 H   0  0  0  0  0  0  0  0  0  0  0  0
  1  2  1  0  0  0  0
  2  9  1  0  0  0  0
  2  3  2  0  0  0  0
  3  8  1  0  0  0  0
  4  3  1  0  0  0  0
  5  4  2  0  0  0  0
  6  1  2  0  0  0  0
  6  5  1  0  0  0  0
  7  1  1  0  0  0  0
 10  9  1  0  0  0  0
 10 13  1  0  0  0  0
 11 10  1  0  0  0  0
 12 10  1  0  0  0  0
 13 14  1  0  0  0  0
 15 13  1  0  0  0  0
 15 16  1  0  0  0  0
 15 20  1  0  0  0  0
 16 17  1  0  0  0  0
 18 15  1  0  0  0  0
 19 18  1  0  0  0  0
 21 22  1  0  0  0  0
 21 20  1  0  0  0  0
 23 21  1  0  0  0  0
 24 21  1  0  0  0  0
 25  5  1  0  0  0  0
 26 34  1  0  0  0  0
 26 25  1  0  0  0  0
 27 29  1  0  0  0  0
 27 26  1  0  0  0  0
 28 27  1  0  0  0  0
 29 31  1  0  0  0  0
 30 29  1  0  0  0  0
 31 32  1  0  0  0  0
 32 33  1  0  0  0  0
 34 32  1  0  0  0  0
 34 35  1  0  0  0  0
M  END
>  <minimizedAffinity>
-4.74273634

$$$$

 OpenBabel03252503043D

 35 36  0  0  0  0  0  0  0  0999 V2000
   37.4640   32.3520   40.4540 C   0  0  0  0  0  0  0  0  0  0  0  0
   38.7210   32.8060   40.8030 C   0  0  0  0  0  0  0  0  0  0  0  0
   39.6150   31.9910   41.4880 C   0  0  0  0  0  0  0  0  0  0  0  0
   39.2020   30.7370   41.7970 N   0  0  0  0  0  0  0  0  0  0  0  0
   37.9660   30.3160   41.4430 C   0  0  0  0  0  0  0  0  0  0  0  0
   37.0930   31.0920   40.7820 N   0  0  0  0  0  0  0  0  0  0  0  0
   36.7550   32.9700   39.9220 H   0  0  0  0  0  0  0  0  0  0  0  0
   40.5730   32.3780   41.7380 H   0  0  0  0  0  0  0  0  0  0  0  0
   39.2330   34.4800   40.3750 S   0  0  0  0  0  0  0  0  0  0  0  0
   40.8400   34.4360   39.5960 C   0  0  0  0  0  0  0  0  0  0  0  0
   41.3260   35.4330   39.5300 H   0  0  0  0  0  0  0  0  0  0  0  0
   41.5410   33.8070   40.1870 H   0  0  0  0  0  0  0  0  0  0  0  0
   40.6860   33.8240   38.2840 N   0  0  0  0  0  0  0  0  0  0  0  0
   40.2240   34.4620   37.6030 H   0  0  0  0  0  0  0  0  0  0  0  0
   42.2080   33.4310   37.5840 S   0  0  0  0  0  0  0  0  0  0  0  0
   42.6860   34.4630   36.6260 O   0  0  0  0  0  0  0  0  0  0  0  0
   42.1880   35.2780   36.3320 H   0  0  0  0  0  0  0  0  0  0  0  0
   43.1930   33.3300   38.7370 O   0  0  0  0  0  0  0  0  0  0  0  0
   43.1660   32.6010   39.4100 H   0  0  0  0  0  0  0  0  0  0  0  0
   42.1150   31.9260   36.8740 O   0  0  0  0  0  0  0  0  0  0  0  0
   41.2680   31.0750   37.5660 C   0  0  0  0  0  0  0  0  0  0  0  0
   41.7120   30.0630   37.4690 H   0  0  0  0  0  0  0  0  0  0  0  0
   41.1150   31.3900   38.5980 H   0  0  0  0  0  0  0  0  0  0  0  0
   40.2830   31.1240   37.0330 H   0  0  0  0  0  0  0  0  0  0  0  0
   37.5100   29.0350   41.7440 O   0  0  0  0  0  0  0  0  0  0  0  0
   37.3700   28.0300   40.7510 C   0  0  0  0  0  3  0  0  0  0  0  0
   38.6440   27.8500   40.0070 C   0  0  0  0  0  3  0  0  0  0  0  0
   38.3560   27.6610   38.9320 H   0  0  0  0  0  0  0  0  0  0  0  0
   39.5240   26.7380   40.4460 C   0  0  0  0  0  3  0  0  0  0  0  0
   39.9820   26.2280   39.5480 H   0  0  0  0  0  0  0  0  0  0  0  0
   38.9510   25.7470   41.1890 O   0  0  0  0  0  0  0  0  0  0  0  0
   38.0850   26.1640   42.1650 C   0  0  0  0  0  3  0  0  0  0  0  0
   37.6810   25.2270   42.6390 H   0  0  0  0  0  0  0  0  0  0  0  0
   36.8980   26.7940   41.4750 C   0  0  0  0  0  3  0  0  0  0  0  0
   36.1570   27.0520   42.2590 H   0  0  0  0  0  0  0  0  0  0  0  0
  1  6  2  0  0  0  0
  1  2  1  0  0  0  0
  2  3  2  0  0  0  0
  3  8  1  0  0  0  0
  3  4  1  0  0  0  0
  5 25  1  0  0  0  0
  5  4  2  0  0  0  0
  6  5  1  0  0  0  0
  7  1  1  0  0  0  0
  9  2  1  0  0  0  0
 10 12  1  0  0  0  0
 10  9  1  0  0  0  0
 11 10  1  0  0  0  0
 13 10  1  0  0  0  0
 14 13  1  0  0  0  0
 15 13  1  0  0  0  0
 15 18  1  0  0  0  0
 16 15  1  0  0  0  0
 17 16  1  0  0  0  0
 18 19  1  0  0  0  0
 20 21  1  0  0  0  0
 20 15  1  0  0  0  0
 21 23  1  0  0  0  0
 22 21  1  0  0  0  0
 24 21  1  0  0  0  0
 26 34  1  0  0  0  0
 26 25  1  0  0  0  0
 27 29  1  0  0  0  0
 27 26  1  0  0  0  0
 28 27  1  0  0  0  0
 29 31  1  0  0  0  0
 30 29  1  0  0  0  0
 31 32  1  0  0  0  0
 32 33  1  0  0  0  0
 34 32  1  0  0  0  0
 34 35  1  0  0  0  0
M  END
>  <minimizedAffinity>
-4.73333836

$$$$

 OpenBabel03252503043D

 35 36  0  0  0  0  0  0  0  0999 V2000
   38.4620   29.7690   41.9160 C   0  0  0  0  0  0  0  0  0  0  0  0
   37.2540   29.8990   41.2600 C   0  0  0  0  0  0  0  0  0  0  0  0
   36.3630   28.8340   41.1780 C   0  0  0  0  0  0  0  0  0  0  0  0
   36.7300   27.6690   41.7660 N   0  0  0  0  0  0  0  0  0  0  0  0
   37.9200   27.5680   42.4020 C   0  0  0  0  0  0  0  0  0  0  0  0
   38.7890   28.5870   42.4890 N   0  0  0  0  0  0  0  0  0  0  0  0
   39.1680   30.5840   41.9910 H   0  0  0  0  0  0  0  0  0  0  0  0
   35.4430   28.9750   40.6640 H   0  0  0  0  0  0  0  0  0  0  0  0
   36.8020   31.4640   40.4900 S   0  0  0  0  0  0  0  0  0  0  0  0
   38.2780   32.3980   40.1170 C   0  0  0  0  0  0  0  0  0  0  0  0
   38.4010   33.3020   40.7500 H   0  0  0  0  0  0  0  0  0  0  0  0
   39.1850   31.7820   40.3050 H   0  0  0  0  0  0  0  0  0  0  0  0
   38.2510   32.7340   38.7000 N   0  0  0  0  0  0  0  0  0  0  0  0
   38.6820   33.6620   38.5070 H   0  0  0  0  0  0  0  0  0  0  0  0
   39.1480   31.6050   37.7610 S   0  0  0  0  0  0  0  0  0  0  0  0
   38.2820   30.6180   37.0630 O   0  0  0  0  0  0  0  0  0  0  0  0
   37.2910   30.5310   37.1490 H   0  0  0  0  0  0  0  0  0  0  0  0
   39.9060   32.4210   36.7260 O   0  0  0  0  0  0  0  0  0  0  0  0
   40.6570   33.0260   36.9580 H   0  0  0  0  0  0  0  0  0  0  0  0
   40.2780   30.8580   38.7320 O   0  0  0  0  0  0  0  0  0  0  0  0
   40.1840   29.4770   38.6720 C   0  0  0  0  0  0  0  0  0  0  0  0
   40.4440   29.1130   39.6870 H   0  0  0  0  0  0  0  0  0  0  0  0
   39.2080   29.1420   38.3220 H   0  0  0  0  0  0  0  0  0  0  0  0
   40.9570   29.1500   37.9290 H   0  0  0  0  0  0  0  0  0  0  0  0
   38.3280   26.3870   43.0170 O   0  0  0  0  0  0  0  0  0  0  0  0
   38.7560   25.2560   42.2720 C   0  0  0  0  0  3  0  0  0  0  0  0
   39.3070   25.6760   40.9570 C   0  0  0  0  0  3  0  0  0  0  0  0
   38.9780   24.8920   40.2140 H   0  0  0  0  0  0  0  0  0  0  0  0
   40.7830   25.8040   40.8600 C   0  0  0  0  0  3  0  0  0  0  0  0
   41.1430   25.4120   39.8640 H   0  0  0  0  0  0  0  0  0  0  0  0
   41.5270   25.1630   41.8080 O   0  0  0  0  0  0  0  0  0  0  0  0
   41.0630   25.2610   43.0930 C   0  0  0  0  0  3  0  0  0  0  0  0
   41.7640   24.6450   43.7210 H   0  0  0  0  0  0  0  0  0  0  0  0
   39.7420   24.5290   43.1520 C   0  0  0  0  0  3  0  0  0  0  0  0
   39.4080   24.5320   44.2090 H   0  0  0  0  0  0  0  0  0  0  0  0
  1  7  1  0  0  0  0
  1  6  1  0  0  0  0
  2  1  2  0  0  0  0
  3  2  1  0  0  0  0
  3  4  2  0  0  0  0
  4  5  1  0  0  0  0
  5  6  2  0  0  0  0
  5 25  1  0  0  0  0
  8  3  1  0  0  0  0
  9  2  1  0  0  0  0
 10 12  1  0  0  0  0
 10  9  1  0  0  0  0
 10 11  1  0  0  0  0
 13 10  1  0  0  0  0
 14 13  1  0  0  0  0
 15 13  1  0  0  0  0
 15 20  1  0  0  0  0
 16 17  1  0  0  0  0
 16 15  1  0  0  0  0
 18 19  1  0  0  0  0
 18 15  1  0  0  0  0
 21 20  1  0  0  0  0
 21 22  1  0  0  0  0
 23 21  1  0  0  0  0
 24 21  1  0  0  0  0
 26 25  1  0  0  0  0
 26 34  1  0  0  0  0
 27 26  1  0  0  0  0
 28 27  1  0  0  0  0
 29 27  1  0  0  0  0
 29 31  1  0  0  0  0
 30 29  1  0  0  0  0
 31 32  1  0  0  0  0
 32 34  1  0  0  0  0
 32 33  1  0  0  0  0
 34 35  1  0  0  0  0
M  END
>  <minimizedAffinity>
-4.65254164

$$$$

 OpenBabel03252503043D

 35 36  0  0  0  0  0  0  0  0999 V2000
   39.6520   28.7020   40.8720 C   0  0  0  0  0  0  0  0  0  0  0  0
   39.0550   29.4880   41.8390 C   0  0  0  0  0  0  0  0  0  0  0  0
   37.8180   29.1490   42.3760 C   0  0  0  0  0  0  0  0  0  0  0  0
   37.2270   28.0210   41.9130 N   0  0  0  0  0  0  0  0  0  0  0  0
   37.8330   27.2690   40.9650 C   0  0  0  0  0  0  0  0  0  0  0  0
   39.0270   27.5840   40.4380 N   0  0  0  0  0  0  0  0  0  0  0  0
   40.6130   28.9480   40.4430 H   0  0  0  0  0  0  0  0  0  0  0  0
   37.3920   29.7790   43.1180 H   0  0  0  0  0  0  0  0  0  0  0  0
   39.8720   30.9810   42.4290 S   0  0  0  0  0  0  0  0  0  0  0  0
   39.8910   32.2080   41.1310 C   0  0  0  0  0  0  0  0  0  0  0  0
   40.8260   32.8070   41.1020 H   0  0  0  0  0  0  0  0  0  0  0  0
   39.8250   31.7200   40.1340 H   0  0  0  0  0  0  0  0  0  0  0  0
   38.7160   33.0530   41.2940 N   0  0  0  0  0  0  0  0  0  0  0  0
   38.9170   34.0520   41.0830 H   0  0  0  0  0  0  0  0  0  0  0  0
   37.4530   32.6000   40.2170 S   0  0  0  0  0  0  0  0  0  0  0  0
   36.3450   31.8790   40.8970 O   0  0  0  0  0  0  0  0  0  0  0  0
   36.3170   31.6000   41.8560 H   0  0  0  0  0  0  0  0  0  0  0  0
   36.9140   33.8930   39.6260 O   0  0  0  0  0  0  0  0  0  0  0  0
   37.4320   34.4560   38.9930 H   0  0  0  0  0  0  0  0  0  0  0  0
   38.0930   31.7080   38.9630 O   0  0  0  0  0  0  0  0  0  0  0  0
   37.3030   30.6150   38.6460 C   0  0  0  0  0  0  0  0  0  0  0  0
   38.0060   29.8140   38.3380 H   0  0  0  0  0  0  0  0  0  0  0  0
   36.6430   30.3280   39.4630 H   0  0  0  0  0  0  0  0  0  0  0  0
   36.6710   30.9360   37.7780 H   0  0  0  0  0  0  0  0  0  0  0  0
   37.2540   26.1040   40.4670 O   0  0  0  0  0  0  0  0  0  0  0  0
   36.9410   24.9990   41.3020 C   0  0  0  0  0  3  0  0  0  0  0  0
   36.2110   23.9560   40.5360 C   0  0  0  0  0  3  0  0  0  0  0  0
   35.4370   23.5330   41.2410 H   0  0  0  0  0  0  0  0  0  0  0  0
   37.0170   22.8250   40.0120 C   0  0  0  0  0  3  0  0  0  0  0  0
   36.4460   21.8570   40.1210 H   0  0  0  0  0  0  0  0  0  0  0  0
   38.2360   22.6090   40.5880 O   0  0  0  0  0  0  0  0  0  0  0  0
   38.9820   23.7310   40.8340 C   0  0  0  0  0  3  0  0  0  0  0  0
   39.9190   23.3720   41.3430 H   0  0  0  0  0  0  0  0  0  0  0  0
   38.2520   24.5350   41.8850 C   0  0  0  0  0  3  0  0  0  0  0  0
   38.8970   25.3980   42.1500 H   0  0  0  0  0  0  0  0  0  0  0  0
  1  2  1  0  0  0  0
  2  3  2  0  0  0  0
  2  9  1  0  0  0  0
  3  8  1  0  0  0  0
  4  3  1  0  0  0  0
  5  4  2  0  0  0  0
  6  1  2  0  0  0  0
  6  5  1  0  0  0  0
  7  1  1  0  0  0  0
 10 13  1  0  0  0  0
 10  9  1  0  0  0  0
 11 10  1  0  0  0  0
 12 10  1  0  0  0  0
 14 13  1  0  0  0  0
 15 16  1  0  0  0  0
 15 13  1  0  0  0  0
 16 17  1  0  0  0  0
 18 15  1  0  0  0  0
 19 18  1  0  0  0  0
 20 15  1  0  0  0  0
 21 20  1  0  0  0  0
 21 23  1  0  0  0  0
 22 21  1  0  0  0  0
 24 21  1  0  0  0  0
 25  5  1  0  0  0  0
 25 26  1  0  0  0  0
 26 34  1  0  0  0  0
 27 28  1  0  0  0  0
 27 26  1  0  0  0  0
 29 30  1  0  0  0  0
 29 27  1  0  0  0  0
 29 31  1  0  0  0  0
 31 32  1  0  0  0  0
 32 33  1  0  0  0  0
 32 34  1  0  0  0  0
 34 35  1  0  0  0  0
M  END
>  <minimizedAffinity>
-4.62961721

$$$$

 OpenBabel03252503043D

 35 36  0  0  0  0  0  0  0  0999 V2000
   39.6190   29.9610   39.6330 C   0  0  0  0  0  0  0  0  0  0  0  0
   39.4460   31.0540   40.4600 C   0  0  0  0  0  0  0  0  0  0  0  0
   39.4160   30.9100   41.8430 C   0  0  0  0  0  0  0  0  0  0  0  0
   39.5640   29.6590   42.3410 N   0  0  0  0  0  0  0  0  0  0  0  0
   39.7330   28.6050   41.5090 C   0  0  0  0  0  0  0  0  0  0  0  0
   39.7630   28.7290   40.1730 N   0  0  0  0  0  0  0  0  0  0  0  0
   39.6450   30.0520   38.5560 H   0  0  0  0  0  0  0  0  0  0  0  0
   39.2810   31.7760   42.4450 H   0  0  0  0  0  0  0  0  0  0  0  0
   39.2520   32.7020   39.7590 S   0  0  0  0  0  0  0  0  0  0  0  0
   40.8020   33.5840   39.8600 C   0  0  0  0  0  0  0  0  0  0  0  0
   40.8380   34.3210   40.6910 H   0  0  0  0  0  0  0  0  0  0  0  0
   41.6380   32.8790   40.0580 H   0  0  0  0  0  0  0  0  0  0  0  0
   41.0450   34.2160   38.5700 N   0  0  0  0  0  0  0  0  0  0  0  0
   41.1760   35.2450   38.6550 H   0  0  0  0  0  0  0  0  0  0  0  0
   42.4850   33.6270   37.8360 S   0  0  0  0  0  0  0  0  0  0  0  0
   42.3950   32.1920   37.4580 O   0  0  0  0  0  0  0  0  0  0  0  0
   41.6340   31.5730   37.6490 H   0  0  0  0  0  0  0  0  0  0  0  0
   42.6920   34.4590   36.5800 O   0  0  0  0  0  0  0  0  0  0  0  0
   42.9390   35.4200   36.6020 H   0  0  0  0  0  0  0  0  0  0  0  0
   43.7770   33.9200   38.8470 O   0  0  0  0  0  0  0  0  0  0  0  0
   44.9910   33.6770   38.2240 C   0  0  0  0  0  0  0  0  0  0  0  0
   45.6620   33.2830   39.0150 H   0  0  0  0  0  0  0  0  0  0  0  0
   44.8920   33.0170   37.3630 H   0  0  0  0  0  0  0  0  0  0  0  0
   45.3540   34.6740   37.8640 H   0  0  0  0  0  0  0  0  0  0  0  0
   39.8880   27.3060   41.9880 O   0  0  0  0  0  0  0  0  0  0  0  0
   39.0670   26.7780   43.0190 C   0  0  0  0  0  3  0  0  0  0  0  0
   37.6890   26.5380   42.5180 C   0  0  0  0  0  3  0  0  0  0  0  0
   36.9950   26.8130   43.3650 H   0  0  0  0  0  0  0  0  0  0  0  0
   37.3640   25.1530   42.0930 C   0  0  0  0  0  3  0  0  0  0  0  0
   36.3180   24.8820   42.4200 H   0  0  0  0  0  0  0  0  0  0  0  0
   38.1730   24.1540   42.5530 O   0  0  0  0  0  0  0  0  0  0  0  0
   39.5160   24.4220   42.5300 C   0  0  0  0  0  3  0  0  0  0  0  0
   40.0170   23.5200   42.9790 H   0  0  0  0  0  0  0  0  0  0  0  0
   39.7700   25.5390   43.5150 C   0  0  0  0  0  3  0  0  0  0  0  0
   40.8670   25.6970   43.5630 H   0  0  0  0  0  0  0  0  0  0  0  0
  1  6  2  0  0  0  0
  1  2  1  0  0  0  0
  2  3  2  0  0  0  0
  3  4  1  0  0  0  0
  3  8  1  0  0  0  0
  5 25  1  0  0  0  0
  5  4  2  0  0  0  0
  6  5  1  0  0  0  0
  7  1  1  0  0  0  0
  9 10  1  0  0  0  0
  9  2  1  0  0  0  0
 10 12  1  0  0  0  0
 10 11  1  0  0  0  0
 13 14  1  0  0  0  0
 13 10  1  0  0  0  0
 15 13  1  0  0  0  0
 15 20  1  0  0  0  0
 16 17  1  0  0  0  0
 16 15  1  0  0  0  0
 18 19  1  0  0  0  0
 18 15  1  0  0  0  0
 21 20  1  0  0  0  0
 21 22  1  0  0  0  0
 23 21  1  0  0  0  0
 24 21  1  0  0  0  0
 25 26  1  0  0  0  0
 26 34  1  0  0  0  0
 27 26  1  0  0  0  0
 27 28  1  0  0  0  0
 29 30  1  0  0  0  0
 29 27  1  0  0  0  0
 29 31  1  0  0  0  0
 32 31  1  0  0  0  0
 32 33  1  0  0  0  0
 32 34  1  0  0  0  0
 34 35  1  0  0  0  0
M  END
>  <minimizedAffinity>
-4.59250498

$$$$
