
 OpenBabel03252508103D

 45 48  0  0  0  0  0  0  0  0999 V2000
   37.5320   29.8170   37.3500 C   0  0  0  0  0  0  0  0  0  0  0  0
   37.8140   29.3530   38.6340 C   0  0  0  0  0  0  0  0  0  0  0  0
   36.7970   28.8490   39.4080 C   0  0  0  0  0  0  0  0  0  0  0  0
   35.5320   28.8290   38.8560 N   0  0  0  0  0  0  0  0  0  0  0  0
   35.2730   29.2740   37.6280 C   0  0  0  0  0  0  0  0  0  0  0  0
   36.2860   29.7670   36.8850 N   0  0  0  0  0  0  0  0  0  0  0  0
   38.3110   30.2270   36.6970 H   0  0  0  0  0  0  0  0  0  0  0  0
   34.2730   29.2440   37.2290 H   0  0  0  0  0  0  0  0  0  0  0  0
   36.9120   28.3430   40.7230 C   0  0  0  0  0  0  0  0  0  0  0  0
   37.1120   29.1390   41.8540 C   0  0  0  0  0  0  0  0  0  0  0  0
   37.2910   28.6470   43.1200 C   0  0  0  0  0  0  0  0  0  0  0  0
   37.2790   27.2900   43.3310 C   0  0  0  0  0  0  0  0  0  0  0  0
   37.0760   26.4660   42.2010 C   0  0  0  0  0  0  0  0  0  0  0  0
   37.0640   25.1030   42.3920 C   0  0  0  0  0  0  0  0  0  0  0  0
   36.8710   24.2400   41.3340 C   0  0  0  0  0  0  0  0  0  0  0  0
   36.6830   24.7650   40.0450 C   0  0  0  0  0  0  0  0  0  0  0  0
   36.7040   26.1630   39.8910 C   0  0  0  0  0  0  0  0  0  0  0  0
   36.9010   26.9920   40.9590 C   0  0  0  0  0  0  0  0  0  0  0  0
   37.1260   30.2190   41.7140 H   0  0  0  0  0  0  0  0  0  0  0  0
   37.4400   29.3370   43.9440 H   0  0  0  0  0  0  0  0  0  0  0  0
   37.4180   26.8860   44.3150 H   0  0  0  0  0  0  0  0  0  0  0  0
   37.2110   24.7230   43.3990 H   0  0  0  0  0  0  0  0  0  0  0  0
   36.8750   23.1790   41.5500 H   0  0  0  0  0  0  0  0  0  0  0  0
   36.5400   24.0190   39.2850 H   0  0  0  0  0  0  0  0  0  0  0  0
   36.5230   26.3630   38.8560 H   0  0  0  0  0  0  0  0  0  0  0  0
   39.1050   29.4270   39.0520 O   0  0  0  0  0  0  0  0  0  0  0  0
   40.2190   30.6250   41.0920 O   0  0  0  0  0  0  0  0  0  0  0  0
   39.8450   30.8220   39.6690 P   0  0  1  0  0  0  0  0  0  0  0  0
   41.2500   31.1810   38.8150 O   0  0  0  0  0  0  0  0  0  0  0  0
   41.4610   32.5140   38.5850 C   0  0  0  0  0  3  0  0  0  0  0  0
   42.1640   33.2420   39.7130 C   0  0  0  0  0  3  0  0  0  0  0  0
   41.9580   32.8210   40.6940 H   0  0  0  0  0  0  0  0  0  0  0  0
   43.6360   33.2200   39.3540 C   0  0  0  0  0  3  0  0  0  0  0  0
   44.2770   33.4430   40.2310 H   0  0  0  0  0  0  0  0  0  0  0  0
   43.8340   34.1330   38.3240 O   0  0  0  0  0  0  0  0  0  0  0  0
   42.7920   34.1600   37.4190 C   0  0  0  0  0  3  0  0  0  0  0  0
   42.0430   34.8880   37.7890 H   0  0  0  0  0  0  0  0  0  0  0  0
   42.1170   32.7990   37.2530 C   0  0  0  0  0  3  0  0  0  0  0  0
   42.8460   32.0270   36.9550 H   0  0  0  0  0  0  0  0  0  0  0  0
   38.7700   32.1020   39.4940 O   0  0  0  0  0  0  0  0  0  0  0  0
   38.0320   32.7090   40.4980 C   0  0  0  0  0  0  0  0  0  0  0  0
   36.8680   32.3050   40.3220 O   0  0  0  0  0  0  0  0  0  0  0  0
   38.8730   33.5400   41.3220 N   0  0  0  0  0  0  0  0  0  0  0  0
   38.9260   34.5600   41.3980 H   0  0  0  0  0  0  0  0  0  0  0  0
   39.5190   32.9870   41.9280 H   0  0  0  0  0  0  0  0  0  0  0  0
  1  2  1  0  0  0  0
  2 26  1  0  0  0  0
  2  3  2  0  0  0  0
  3  9  1  0  0  0  0
  4  3  1  0  0  0  0
  5  4  2  0  0  0  0
  6  1  2  0  0  0  0
  6  5  1  0  0  0  0
  7  1  1  0  0  0  0
  8  5  1  0  0  0  0
  9 18  2  0  0  0  0
  9 10  1  0  0  0  0
 10 11  2  0  0  0  0
 11 12  1  0  0  0  0
 11 20  1  0  0  0  0
 12 21  1  0  0  0  0
 13 14  1  0  0  0  0
 13 12  2  0  0  0  0
 14 22  1  0  0  0  0
 15 23  1  0  0  0  0
 15 14  2  0  0  0  0
 16 15  1  0  0  0  0
 17 16  2  0  0  0  0
 17 18  1  0  0  0  0
 18 13  1  0  0  0  0
 19 10  1  0  0  0  0
 24 16  1  0  0  0  0
 25 17  1  0  0  0  0
 26 28  1  0  0  0  0
 28 27  2  1  0  0  0
 29 28  1  0  0  0  0
 30 29  1  0  0  0  0
 30 31  1  0  0  0  0
 31 32  1  0  0  0  0
 33 31  1  0  0  0  0
 33 34  1  0  0  0  0
 35 33  1  0  0  0  0
 36 37  1  0  0  0  0
 36 35  1  0  0  0  0
 38 36  1  0  0  0  0
 38 30  1  0  0  0  0
 39 38  1  0  0  0  0
 40 28  1  0  0  0  0
 40 41  1  0  0  0  0
 41 43  1  0  0  0  0
 42 41  2  0  0  0  0
 43 44  1  0  0  0  0
 43 45  1  0  0  0  0
M  END
>  <minimizedAffinity>
-6.29316998

$$$$

 OpenBabel03252508103D

 45 48  0  0  0  0  0  0  0  0999 V2000
   37.6230   30.0480   37.7350 C   0  0  0  0  0  0  0  0  0  0  0  0
   37.7980   29.4300   38.9730 C   0  0  0  0  0  0  0  0  0  0  0  0
   36.7570   28.7290   39.5300 C   0  0  0  0  0  0  0  0  0  0  0  0
   35.5770   28.6740   38.8160 N   0  0  0  0  0  0  0  0  0  0  0  0
   35.4200   29.2660   37.6340 C   0  0  0  0  0  0  0  0  0  0  0  0
   36.4560   29.9530   37.1050 N   0  0  0  0  0  0  0  0  0  0  0  0
   38.4260   30.6180   37.2530 H   0  0  0  0  0  0  0  0  0  0  0  0
   34.4850   29.2040   37.1040 H   0  0  0  0  0  0  0  0  0  0  0  0
   36.7680   28.0490   40.7700 C   0  0  0  0  0  0  0  0  0  0  0  0
   36.7450   28.6870   42.0130 C   0  0  0  0  0  0  0  0  0  0  0  0
   36.8230   28.0360   43.2160 C   0  0  0  0  0  0  0  0  0  0  0  0
   36.9320   26.6660   43.2410 C   0  0  0  0  0  0  0  0  0  0  0  0
   36.9550   26.0000   41.9950 C   0  0  0  0  0  0  0  0  0  0  0  0
   37.0660   24.6280   42.0010 C   0  0  0  0  0  0  0  0  0  0  0  0
   37.0950   23.9140   40.8210 C   0  0  0  0  0  0  0  0  0  0  0  0
   37.0060   24.6020   39.6000 C   0  0  0  0  0  0  0  0  0  0  0  0
   36.8950   26.0030   39.6360 C   0  0  0  0  0  0  0  0  0  0  0  0
   36.8730   26.6830   40.8220 C   0  0  0  0  0  0  0  0  0  0  0  0
   36.6600   29.7730   42.0200 H   0  0  0  0  0  0  0  0  0  0  0  0
   36.7980   28.6090   44.1350 H   0  0  0  0  0  0  0  0  0  0  0  0
   36.9950   26.1380   44.1720 H   0  0  0  0  0  0  0  0  0  0  0  0
   37.1320   24.1220   42.9590 H   0  0  0  0  0  0  0  0  0  0  0  0
   37.1860   22.8380   40.8940 H   0  0  0  0  0  0  0  0  0  0  0  0
   37.0350   23.9640   38.7350 H   0  0  0  0  0  0  0  0  0  0  0  0
   36.8180   26.3340   38.6230 H   0  0  0  0  0  0  0  0  0  0  0  0
   39.0150   29.5600   39.5660 O   0  0  0  0  0  0  0  0  0  0  0  0
   40.0520   30.3940   41.8170 O   0  0  0  0  0  0  0  0  0  0  0  0
   39.4870   30.8720   40.5300 P   0  0  1  0  0  0  0  0  0  0  0  0
   40.6700   31.7860   39.7580 O   0  0  0  0  0  0  0  0  0  0  0  0
   41.0580   31.3110   38.5330 C   0  0  0  0  0  3  0  0  0  0  0  0
   40.9560   32.3210   37.4080 C   0  0  0  0  0  3  0  0  0  0  0  0
   40.1630   33.0510   37.5520 H   0  0  0  0  0  0  0  0  0  0  0  0
   42.3300   32.9510   37.3030 C   0  0  0  0  0  3  0  0  0  0  0  0
   42.3050   33.9040   36.7370 H   0  0  0  0  0  0  0  0  0  0  0  0
   43.1780   32.0210   36.7100 O   0  0  0  0  0  0  0  0  0  0  0  0
   42.9210   30.7250   37.1110 C   0  0  0  0  0  3  0  0  0  0  0  0
   42.1500   30.3080   36.4340 H   0  0  0  0  0  0  0  0  0  0  0  0
   42.4130   30.6410   38.5500 C   0  0  0  0  0  3  0  0  0  0  0  0
   43.1220   31.1120   39.2510 H   0  0  0  0  0  0  0  0  0  0  0  0
   38.1390   31.8440   40.7820 O   0  0  0  0  0  0  0  0  0  0  0  0
   37.9770   33.1600   40.3760 C   0  0  0  0  0  0  0  0  0  0  0  0
   37.1700   33.1000   39.4290 O   0  0  0  0  0  0  0  0  0  0  0  0
   38.7780   34.0470   41.1800 N   0  0  0  0  0  0  0  0  0  0  0  0
   39.6220   34.5770   40.9420 H   0  0  0  0  0  0  0  0  0  0  0  0
   38.4160   34.1490   42.1540 H   0  0  0  0  0  0  0  0  0  0  0  0
  1  2  1  0  0  0  0
  2  3  2  0  0  0  0
  2 26  1  0  0  0  0
  3  9  1  0  0  0  0
  4  3  1  0  0  0  0
  5  4  2  0  0  0  0
  6  5  1  0  0  0  0
  6  1  2  0  0  0  0
  7  1  1  0  0  0  0
  8  5  1  0  0  0  0
  9 18  2  0  0  0  0
  9 10  1  0  0  0  0
 10 19  1  0  0  0  0
 10 11  2  0  0  0  0
 11 12  1  0  0  0  0
 11 20  1  0  0  0  0
 12 21  1  0  0  0  0
 13 14  1  0  0  0  0
 13 12  2  0  0  0  0
 14 22  1  0  0  0  0
 15 23  1  0  0  0  0
 15 14  2  0  0  0  0
 16 17  2  0  0  0  0
 16 15  1  0  0  0  0
 17 18  1  0  0  0  0
 18 13  1  0  0  0  0
 24 16  1  0  0  0  0
 25 17  1  0  0  0  0
 26 28  1  0  0  0  0
 28 40  1  0  0  0  0
 28 27  2  1  0  0  0
 29 28  1  0  0  0  0
 30 38  1  0  0  0  0
 30 29  1  0  0  0  0
 31 32  1  0  0  0  0
 31 30  1  0  0  0  0
 33 31  1  0  0  0  0
 34 33  1  0  0  0  0
 35 36  1  0  0  0  0
 35 33  1  0  0  0  0
 36 38  1  0  0  0  0
 37 36  1  0  0  0  0
 38 39  1  0  0  0  0
 41 40  1  0  0  0  0
 41 43  1  0  0  0  0
 42 41  2  0  0  0  0
 43 45  1  0  0  0  0
 44 43  1  0  0  0  0
M  END
>  <minimizedAffinity>
-6.18316031

$$$$

 OpenBabel03252508103D

 45 48  0  0  0  0  0  0  0  0999 V2000
   37.4640   29.6210   37.1360 C   0  0  0  0  0  0  0  0  0  0  0  0
   37.7740   29.1840   38.4230 C   0  0  0  0  0  0  0  0  0  0  0  0
   36.7620   28.7820   39.2600 C   0  0  0  0  0  0  0  0  0  0  0  0
   35.4740   28.8330   38.7670 N   0  0  0  0  0  0  0  0  0  0  0  0
   35.1890   29.2520   37.5360 C   0  0  0  0  0  0  0  0  0  0  0  0
   36.1980   29.6450   36.7290 N   0  0  0  0  0  0  0  0  0  0  0  0
   38.2390   29.9520   36.4340 H   0  0  0  0  0  0  0  0  0  0  0  0
   34.1720   29.2800   37.1830 H   0  0  0  0  0  0  0  0  0  0  0  0
   36.9030   28.3150   40.5880 C   0  0  0  0  0  0  0  0  0  0  0  0
   37.1470   29.1420   41.6870 C   0  0  0  0  0  0  0  0  0  0  0  0
   37.3500   28.6880   42.9630 C   0  0  0  0  0  0  0  0  0  0  0  0
   37.3220   27.3380   43.2180 C   0  0  0  0  0  0  0  0  0  0  0  0
   37.0750   26.4830   42.1200 C   0  0  0  0  0  0  0  0  0  0  0  0
   37.0460   25.1270   42.3540 C   0  0  0  0  0  0  0  0  0  0  0  0
   36.8110   24.2350   41.3290 C   0  0  0  0  0  0  0  0  0  0  0  0
   36.5980   24.7230   40.0300 C   0  0  0  0  0  0  0  0  0  0  0  0
   36.6370   26.1140   39.8310 C   0  0  0  0  0  0  0  0  0  0  0  0
   36.8760   26.9730   40.8670 C   0  0  0  0  0  0  0  0  0  0  0  0
   37.1750   30.2170   41.5120 H   0  0  0  0  0  0  0  0  0  0  0  0
   37.5320   29.4000   43.7600 H   0  0  0  0  0  0  0  0  0  0  0  0
   37.4800   26.9630   44.2090 H   0  0  0  0  0  0  0  0  0  0  0  0
   37.2130   24.7770   43.3680 H   0  0  0  0  0  0  0  0  0  0  0  0
   36.8030   23.1810   41.5790 H   0  0  0  0  0  0  0  0  0  0  0  0
   36.4210   23.9550   39.2970 H   0  0  0  0  0  0  0  0  0  0  0  0
   36.4320   26.2850   38.7950 H   0  0  0  0  0  0  0  0  0  0  0  0
   39.0860   29.1790   38.7790 O   0  0  0  0  0  0  0  0  0  0  0  0
   39.2300   31.7350   39.3170 O   0  0  0  0  0  0  0  0  0  0  0  0
   40.0540   30.5640   38.9250 P   0  0  1  0  0  0  0  0  0  0  0  0
   41.2330   30.3470   40.1060 O   0  0  0  0  0  0  0  0  0  0  0  0
   41.4160   31.4160   40.9410 C   0  0  0  0  0  3  0  0  0  0  0  0
   41.0920   31.1390   42.3960 C   0  0  0  0  0  3  0  0  0  0  0  0
   40.3160   30.3890   42.5300 H   0  0  0  0  0  0  0  0  0  0  0  0
   42.4090   30.7510   43.0370 C   0  0  0  0  0  3  0  0  0  0  0  0
   42.2580   30.2340   44.0070 H   0  0  0  0  0  0  0  0  0  0  0  0
   43.1660   31.9080   43.1810 O   0  0  0  0  0  0  0  0  0  0  0  0
   43.0200   32.7830   42.1230 C   0  0  0  0  0  3  0  0  0  0  0  0
   42.1550   33.4390   42.3440 H   0  0  0  0  0  0  0  0  0  0  0  0
   42.7720   32.0690   40.7950 C   0  0  0  0  0  3  0  0  0  0  0  0
   43.5780   31.3500   40.5720 H   0  0  0  0  0  0  0  0  0  0  0  0
   40.8160   30.8230   37.4490 O   0  0  0  0  0  0  0  0  0  0  0  0
   41.6890   31.8530   37.1360 C   0  0  0  0  0  0  0  0  0  0  0  0
   42.7400   31.2820   36.7920 O   0  0  0  0  0  0  0  0  0  0  0  0
   41.0590   33.1350   37.3250 N   0  0  0  0  0  0  0  0  0  0  0  0
   41.2190   33.8540   38.0370 H   0  0  0  0  0  0  0  0  0  0  0  0
   40.3290   33.3380   36.6070 H   0  0  0  0  0  0  0  0  0  0  0  0
  1  2  1  0  0  0  0
  2 26  1  0  0  0  0
  2  3  2  0  0  0  0
  3  9  1  0  0  0  0
  4  3  1  0  0  0  0
  5  4  2  0  0  0  0
  6  1  2  0  0  0  0
  6  5  1  0  0  0  0
  7  1  1  0  0  0  0
  8  5  1  0  0  0  0
  9 18  2  0  0  0  0
  9 10  1  0  0  0  0
 10 11  2  0  0  0  0
 11 12  1  0  0  0  0
 11 20  1  0  0  0  0
 12 21  1  0  0  0  0
 13 14  1  0  0  0  0
 13 12  2  0  0  0  0
 14 22  1  0  0  0  0
 15 23  1  0  0  0  0
 15 14  2  0  0  0  0
 16 15  1  0  0  0  0
 17 16  2  0  0  0  0
 17 18  1  0  0  0  0
 18 13  1  0  0  0  0
 19 10  1  0  0  0  0
 24 16  1  0  0  0  0
 25 17  1  0  0  0  0
 26 28  1  0  0  0  0
 28 27  2  1  0  0  0
 28 29  1  0  0  0  0
 29 30  1  0  0  0  0
 30 31  1  0  0  0  0
 31 32  1  0  0  0  0
 31 33  1  0  0  0  0
 33 35  1  0  0  0  0
 33 34  1  0  0  0  0
 36 37  1  0  0  0  0
 36 35  1  0  0  0  0
 38 30  1  0  0  0  0
 38 36  1  0  0  0  0
 39 38  1  0  0  0  0
 40 28  1  0  0  0  0
 41 43  1  0  0  0  0
 41 40  1  0  0  0  0
 42 41  2  0  0  0  0
 43 44  1  0  0  0  0
 45 43  1  0  0  0  0
M  END
>  <minimizedAffinity>
-5.95252657

$$$$

 OpenBabel03252508103D

 45 48  0  0  0  0  0  0  0  0999 V2000
   36.9180   29.9700   37.4110 C   0  0  0  0  0  0  0  0  0  0  0  0
   37.2340   29.4380   38.6600 C   0  0  0  0  0  0  0  0  0  0  0  0
   36.4400   28.4520   39.1940 C   0  0  0  0  0  0  0  0  0  0  0  0
   35.3560   28.0380   38.4460 N   0  0  0  0  0  0  0  0  0  0  0  0
   35.0640   28.5520   37.2540 C   0  0  0  0  0  0  0  0  0  0  0  0
   35.8550   29.5210   36.7480 N   0  0  0  0  0  0  0  0  0  0  0  0
   37.5220   30.7580   36.9460 H   0  0  0  0  0  0  0  0  0  0  0  0
   34.2090   28.2050   36.6980 H   0  0  0  0  0  0  0  0  0  0  0  0
   36.6190   27.8110   40.4420 C   0  0  0  0  0  0  0  0  0  0  0  0
   36.2620   28.3740   41.6700 C   0  0  0  0  0  0  0  0  0  0  0  0
   36.4950   27.7840   42.8850 C   0  0  0  0  0  0  0  0  0  0  0  0
   37.1180   26.5610   42.9390 C   0  0  0  0  0  0  0  0  0  0  0  0
   37.4870   25.9730   41.7080 C   0  0  0  0  0  0  0  0  0  0  0  0
   38.1150   24.7490   41.7420 C   0  0  0  0  0  0  0  0  0  0  0  0
   38.5020   24.1170   40.5790 C   0  0  0  0  0  0  0  0  0  0  0  0
   38.2470   24.7360   39.3440 C   0  0  0  0  0  0  0  0  0  0  0  0
   37.6040   25.9870   39.3510 C   0  0  0  0  0  0  0  0  0  0  0  0
   37.2360   26.5890   40.5210 C   0  0  0  0  0  0  0  0  0  0  0  0
   35.7670   29.3440   41.6550 H   0  0  0  0  0  0  0  0  0  0  0  0
   36.1850   28.2910   43.7920 H   0  0  0  0  0  0  0  0  0  0  0  0
   37.3100   26.0840   43.8800 H   0  0  0  0  0  0  0  0  0  0  0  0
   38.2990   24.2920   42.7100 H   0  0  0  0  0  0  0  0  0  0  0  0
   38.9930   23.1570   40.6740 H   0  0  0  0  0  0  0  0  0  0  0  0
   38.5820   24.1700   38.4930 H   0  0  0  0  0  0  0  0  0  0  0  0
   37.4810   26.2780   38.3300 H   0  0  0  0  0  0  0  0  0  0  0  0
   38.3330   29.9340   39.2870 O   0  0  0  0  0  0  0  0  0  0  0  0
   36.9450   31.7020   40.6240 O   0  0  0  0  0  0  0  0  0  0  0  0
   38.3360   31.2850   40.3120 P   0  0  1  0  0  0  0  0  0  0  0  0
   39.1040   30.9310   41.7660 O   0  0  0  0  0  0  0  0  0  0  0  0
   40.0540   29.9470   41.6930 C   0  0  0  0  0  3  0  0  0  0  0  0
   41.4680   30.4540   41.4950 C   0  0  0  0  0  3  0  0  0  0  0  0
   41.5190   31.3890   40.9420 H   0  0  0  0  0  0  0  0  0  0  0  0
   42.0610   30.5530   42.8850 C   0  0  0  0  0  3  0  0  0  0  0  0
   42.9680   31.1920   42.9020 H   0  0  0  0  0  0  0  0  0  0  0  0
   42.3330   29.2610   43.3230 O   0  0  0  0  0  0  0  0  0  0  0  0
   41.3790   28.3460   42.9250 C   0  0  0  0  0  3  0  0  0  0  0  0
   41.6730   27.9650   41.9270 H   0  0  0  0  0  0  0  0  0  0  0  0
   39.9800   28.9530   42.8290 C   0  0  0  0  0  3  0  0  0  0  0  0
   39.6780   29.4100   43.7860 H   0  0  0  0  0  0  0  0  0  0  0  0
   39.1820   32.5180   39.5450 O   0  0  0  0  0  0  0  0  0  0  0  0
   39.5800   33.7230   40.1040 C   0  0  0  0  0  0  0  0  0  0  0  0
   40.4470   34.1600   39.3250 O   0  0  0  0  0  0  0  0  0  0  0  0
   38.8600   33.9870   41.3240 N   0  0  0  0  0  0  0  0  0  0  0  0
   39.1780   33.9750   42.2970 H   0  0  0  0  0  0  0  0  0  0  0  0
   37.8570   34.2260   41.1580 H   0  0  0  0  0  0  0  0  0  0  0  0
  1  2  1  0  0  0  0
  2  3  2  0  0  0  0
  2 26  1  0  0  0  0
  3  9  1  0  0  0  0
  4  3  1  0  0  0  0
  5  4  2  0  0  0  0
  6  5  1  0  0  0  0
  6  1  2  0  0  0  0
  7  1  1  0  0  0  0
  8  5  1  0  0  0  0
  9 18  2  0  0  0  0
  9 10  1  0  0  0  0
 10 11  2  0  0  0  0
 11 12  1  0  0  0  0
 11 20  1  0  0  0  0
 12 21  1  0  0  0  0
 13 14  1  0  0  0  0
 13 12  2  0  0  0  0
 14 22  1  0  0  0  0
 15 23  1  0  0  0  0
 15 14  2  0  0  0  0
 16 17  2  0  0  0  0
 16 15  1  0  0  0  0
 17 18  1  0  0  0  0
 18 13  1  0  0  0  0
 19 10  1  0  0  0  0
 24 16  1  0  0  0  0
 25 17  1  0  0  0  0
 26 28  1  0  0  0  0
 28 27  2  1  0  0  0
 28 29  1  0  0  0  0
 30 29  1  0  0  0  0
 30 38  1  0  0  0  0
 31 30  1  0  0  0  0
 31 33  1  0  0  0  0
 32 31  1  0  0  0  0
 33 34  1  0  0  0  0
 33 35  1  0  0  0  0
 36 35  1  0  0  0  0
 37 36  1  0  0  0  0
 38 36  1  0  0  0  0
 38 39  1  0  0  0  0
 40 41  1  0  0  0  0
 40 28  1  0  0  0  0
 41 43  1  0  0  0  0
 42 41  2  0  0  0  0
 43 44  1  0  0  0  0
 45 43  1  0  0  0  0
M  END
>  <minimizedAffinity>
-5.8242588

$$$$

 OpenBabel03252508103D

 45 48  0  0  0  0  0  0  0  0999 V2000
   37.3310   29.3090   36.9150 C   0  0  0  0  0  0  0  0  0  0  0  0
   37.6370   28.8480   38.1950 C   0  0  0  0  0  0  0  0  0  0  0  0
   36.6170   28.5670   39.0710 C   0  0  0  0  0  0  0  0  0  0  0  0
   35.3250   28.7600   38.6230 N   0  0  0  0  0  0  0  0  0  0  0  0
   35.0450   29.2010   37.3990 C   0  0  0  0  0  0  0  0  0  0  0  0
   36.0620   29.4730   36.5530 N   0  0  0  0  0  0  0  0  0  0  0  0
   38.1120   29.5460   36.1820 H   0  0  0  0  0  0  0  0  0  0  0  0
   34.0250   29.3410   37.0820 H   0  0  0  0  0  0  0  0  0  0  0  0
   36.7530   28.0960   40.3970 C   0  0  0  0  0  0  0  0  0  0  0  0
   36.8880   28.9250   41.5140 C   0  0  0  0  0  0  0  0  0  0  0  0
   37.0870   28.4720   42.7910 C   0  0  0  0  0  0  0  0  0  0  0  0
   37.1660   27.1210   43.0290 C   0  0  0  0  0  0  0  0  0  0  0  0
   37.0300   26.2630   41.9140 C   0  0  0  0  0  0  0  0  0  0  0  0
   37.1090   24.9060   42.1320 C   0  0  0  0  0  0  0  0  0  0  0  0
   36.9850   24.0120   41.0900 C   0  0  0  0  0  0  0  0  0  0  0  0
   36.7740   24.4980   39.7900 C   0  0  0  0  0  0  0  0  0  0  0  0
   36.7010   25.8900   39.6070 C   0  0  0  0  0  0  0  0  0  0  0  0
   36.8310   26.7520   40.6600 C   0  0  0  0  0  0  0  0  0  0  0  0
   36.8310   30.0010   41.3520 H   0  0  0  0  0  0  0  0  0  0  0  0
   37.1810   29.1860   43.6020 H   0  0  0  0  0  0  0  0  0  0  0  0
   37.3220   26.7470   44.0220 H   0  0  0  0  0  0  0  0  0  0  0  0
   37.2710   24.5580   43.1480 H   0  0  0  0  0  0  0  0  0  0  0  0
   37.0580   22.9590   41.3280 H   0  0  0  0  0  0  0  0  0  0  0  0
   36.6890   23.7290   39.0430 H   0  0  0  0  0  0  0  0  0  0  0  0
   36.5170   26.0580   38.5680 H   0  0  0  0  0  0  0  0  0  0  0  0
   38.9520   28.6970   38.5040 O   0  0  0  0  0  0  0  0  0  0  0  0
   39.1650   31.0220   39.6830 O   0  0  0  0  0  0  0  0  0  0  0  0
   39.9650   29.9410   39.0540 P   0  0  1  0  0  0  0  0  0  0  0  0
   41.0470   29.3650   40.2060 O   0  0  0  0  0  0  0  0  0  0  0  0
   40.4940   28.5600   41.1660 C   0  0  0  0  0  3  0  0  0  0  0  0
   40.6340   27.0750   40.8970 C   0  0  0  0  0  3  0  0  0  0  0  0
   40.6590   26.8280   39.8380 H   0  0  0  0  0  0  0  0  0  0  0  0
   41.8850   26.6460   41.6360 C   0  0  0  0  0  3  0  0  0  0  0  0
   42.2620   25.6680   41.2740 H   0  0  0  0  0  0  0  0  0  0  0  0
   41.5830   26.6120   42.9930 O   0  0  0  0  0  0  0  0  0  0  0  0
   40.7350   27.6290   43.3830 C   0  0  0  0  0  3  0  0  0  0  0  0
   39.6950   27.2730   43.2430 H   0  0  0  0  0  0  0  0  0  0  0  0
   40.9320   28.9080   42.5700 C   0  0  0  0  0  3  0  0  0  0  0  0
   41.9770   29.2570   42.6240 H   0  0  0  0  0  0  0  0  0  0  0  0
   40.8390   30.5180   37.7400 O   0  0  0  0  0  0  0  0  0  0  0  0
   40.8510   31.8180   37.2570 C   0  0  0  0  0  0  0  0  0  0  0  0
   42.0410   32.1720   37.3330 O   0  0  0  0  0  0  0  0  0  0  0  0
   39.5260   32.2340   36.8720 N   0  0  0  0  0  0  0  0  0  0  0  0
   38.8890   32.9070   37.3090 H   0  0  0  0  0  0  0  0  0  0  0  0
   39.1880   31.7590   36.0060 H   0  0  0  0  0  0  0  0  0  0  0  0
  1  2  1  0  0  0  0
  2 26  1  0  0  0  0
  2  3  2  0  0  0  0
  3  9  1  0  0  0  0
  4  3  1  0  0  0  0
  5  4  2  0  0  0  0
  6  1  2  0  0  0  0
  6  5  1  0  0  0  0
  7  1  1  0  0  0  0
  8  5  1  0  0  0  0
  9 18  2  0  0  0  0
  9 10  1  0  0  0  0
 10 11  2  0  0  0  0
 11 12  1  0  0  0  0
 11 20  1  0  0  0  0
 12 21  1  0  0  0  0
 13 14  1  0  0  0  0
 13 12  2  0  0  0  0
 14 22  1  0  0  0  0
 15 23  1  0  0  0  0
 15 14  2  0  0  0  0
 16 15  1  0  0  0  0
 17 16  2  0  0  0  0
 17 18  1  0  0  0  0
 18 13  1  0  0  0  0
 19 10  1  0  0  0  0
 24 16  1  0  0  0  0
 25 17  1  0  0  0  0
 26 28  1  0  0  0  0
 28 27  2  1  0  0  0
 28 29  1  0  0  0  0
 29 30  1  0  0  0  0
 30 38  1  0  0  0  0
 31 30  1  0  0  0  0
 31 33  1  0  0  0  0
 32 31  1  0  0  0  0
 33 35  1  0  0  0  0
 34 33  1  0  0  0  0
 35 36  1  0  0  0  0
 37 36  1  0  0  0  0
 38 39  1  0  0  0  0
 38 36  1  0  0  0  0
 40 28  1  0  0  0  0
 41 42  2  0  0  0  0
 41 40  1  0  0  0  0
 43 41  1  0  0  0  0
 43 44  1  0  0  0  0
 45 43  1  0  0  0  0
M  END
>  <minimizedAffinity>
-5.80138779

$$$$

 OpenBabel03252508103D

 45 48  0  0  0  0  0  0  0  0999 V2000
   36.8030   28.1890   41.2980 C   0  0  0  0  0  0  0  0  0  0  0  0
   38.0960   28.7090   41.3530 C   0  0  0  0  0  0  0  0  0  0  0  0
   38.7500   28.7630   42.5600 C   0  0  0  0  0  0  0  0  0  0  0  0
   38.0760   28.2890   43.6680 N   0  0  0  0  0  0  0  0  0  0  0  0
   36.8420   27.7950   43.6040 C   0  0  0  0  0  0  0  0  0  0  0  0
   36.2150   27.7520   42.4080 N   0  0  0  0  0  0  0  0  0  0  0  0
   36.2430   28.1270   40.3580 H   0  0  0  0  0  0  0  0  0  0  0  0
   36.3440   27.4340   44.4880 H   0  0  0  0  0  0  0  0  0  0  0  0
   40.0550   29.2580   42.7890 C   0  0  0  0  0  0  0  0  0  0  0  0
   40.4060   30.6080   42.7090 C   0  0  0  0  0  0  0  0  0  0  0  0
   41.6820   31.0830   42.8640 C   0  0  0  0  0  0  0  0  0  0  0  0
   42.7090   30.2060   43.1150 C   0  0  0  0  0  0  0  0  0  0  0  0
   42.3750   28.8350   43.2010 C   0  0  0  0  0  0  0  0  0  0  0  0
   43.3920   27.9400   43.4490 C   0  0  0  0  0  0  0  0  0  0  0  0
   43.1390   26.5880   43.5460 C   0  0  0  0  0  0  0  0  0  0  0  0
   41.8230   26.1230   43.3910 C   0  0  0  0  0  0  0  0  0  0  0  0
   40.8130   27.0680   43.1380 C   0  0  0  0  0  0  0  0  0  0  0  0
   41.0960   28.4020   43.0430 C   0  0  0  0  0  0  0  0  0  0  0  0
   39.6100   31.3240   42.5110 H   0  0  0  0  0  0  0  0  0  0  0  0
   41.8670   32.1480   42.7870 H   0  0  0  0  0  0  0  0  0  0  0  0
   43.7140   30.5580   43.2380 H   0  0  0  0  0  0  0  0  0  0  0  0
   44.4000   28.3260   43.5660 H   0  0  0  0  0  0  0  0  0  0  0  0
   43.9810   25.9370   43.7410 H   0  0  0  0  0  0  0  0  0  0  0  0
   41.7210   25.0570   43.4840 H   0  0  0  0  0  0  0  0  0  0  0  0
   39.8920   26.5290   43.0740 H   0  0  0  0  0  0  0  0  0  0  0  0
   38.6450   29.1360   40.1860 O   0  0  0  0  0  0  0  0  0  0  0  0
   39.3240   30.9490   38.4280 O   0  0  0  0  0  0  0  0  0  0  0  0
   38.2790   30.6070   39.4250 P   0  0  1  0  0  0  0  0  0  0  0  0
   36.8070   30.5110   38.6150 O   0  0  0  0  0  0  0  0  0  0  0  0
   36.7140   29.4900   37.7070 C   0  0  0  0  0  3  0  0  0  0  0  0
   35.5480   28.5500   37.9370 C   0  0  0  0  0  3  0  0  0  0  0  0
   35.2650   28.4600   38.9830 H   0  0  0  0  0  0  0  0  0  0  0  0
   34.4270   29.0750   37.0630 C   0  0  0  0  0  3  0  0  0  0  0  0
   33.4410   28.6680   37.3680 H   0  0  0  0  0  0  0  0  0  0  0  0
   34.7320   28.7540   35.7450 O   0  0  0  0  0  0  0  0  0  0  0  0
   36.0800   28.8570   35.4630 C   0  0  0  0  0  3  0  0  0  0  0  0
   36.5510   27.8850   35.7070 H   0  0  0  0  0  0  0  0  0  0  0  0
   36.7700   29.9560   36.2700 C   0  0  0  0  0  3  0  0  0  0  0  0
   36.2830   30.9330   36.1110 H   0  0  0  0  0  0  0  0  0  0  0  0
   38.1610   31.7910   40.6120 O   0  0  0  0  0  0  0  0  0  0  0  0
   38.1000   33.1620   40.4140 C   0  0  0  0  0  0  0  0  0  0  0  0
   39.1580   33.5980   40.9050 O   0  0  0  0  0  0  0  0  0  0  0  0
   36.8800   33.5300   39.7420 N   0  0  0  0  0  0  0  0  0  0  0  0
   36.0530   34.0230   40.0930 H   0  0  0  0  0  0  0  0  0  0  0  0
   36.8640   33.2360   38.7410 H   0  0  0  0  0  0  0  0  0  0  0  0
  1  2  2  0  0  0  0
  1  6  1  0  0  0  0
  2  3  1  0  0  0  0
  3  9  1  0  0  0  0
  3  4  2  0  0  0  0
  5  4  1  0  0  0  0
  5  8  1  0  0  0  0
  6  5  2  0  0  0  0
  7  1  1  0  0  0  0
  9 18  1  0  0  0  0
 10  9  2  0  0  0  0
 10 11  1  0  0  0  0
 11 12  2  0  0  0  0
 12 13  1  0  0  0  0
 12 21  1  0  0  0  0
 13 14  1  0  0  0  0
 14 15  2  0  0  0  0
 14 22  1  0  0  0  0
 15 23  1  0  0  0  0
 16 24  1  0  0  0  0
 16 15  1  0  0  0  0
 17 16  2  0  0  0  0
 18 17  1  0  0  0  0
 18 13  2  0  0  0  0
 19 10  1  0  0  0  0
 20 11  1  0  0  0  0
 25 17  1  0  0  0  0
 26  2  1  0  0  0  0
 28 27  2  6  0  0  0
 28 26  1  0  0  0  0
 28 40  1  0  0  0  0
 29 28  1  0  0  0  0
 30 31  1  0  0  0  0
 30 29  1  0  0  0  0
 31 32  1  0  0  0  0
 33 34  1  0  0  0  0
 33 31  1  0  0  0  0
 35 33  1  0  0  0  0
 36 37  1  0  0  0  0
 36 35  1  0  0  0  0
 36 38  1  0  0  0  0
 38 30  1  0  0  0  0
 39 38  1  0  0  0  0
 41 40  1  0  0  0  0
 41 42  2  0  0  0  0
 43 44  1  0  0  0  0
 43 41  1  0  0  0  0
 45 43  1  0  0  0  0
M  END
>  <minimizedAffinity>
-5.77281475

$$$$

 OpenBabel03252508103D

 45 48  0  0  0  0  0  0  0  0999 V2000
   42.6910   28.1160   41.1360 C   0  0  0  0  0  0  0  0  0  0  0  0
   41.3010   28.0340   41.2120 C   0  0  0  0  0  0  0  0  0  0  0  0
   40.7130   27.6410   42.3900 C   0  0  0  0  0  0  0  0  0  0  0  0
   41.5490   27.3470   43.4490 N   0  0  0  0  0  0  0  0  0  0  0  0
   42.8750   27.4300   43.3650 C   0  0  0  0  0  0  0  0  0  0  0  0
   43.4340   27.8160   42.1980 N   0  0  0  0  0  0  0  0  0  0  0  0
   43.2040   28.4240   40.2170 H   0  0  0  0  0  0  0  0  0  0  0  0
   43.4970   27.1920   44.2110 H   0  0  0  0  0  0  0  0  0  0  0  0
   39.3270   27.5050   42.6340 C   0  0  0  0  0  0  0  0  0  0  0  0
   38.5440   28.4740   43.2690 C   0  0  0  0  0  0  0  0  0  0  0  0
   37.2160   28.3190   43.5670 C   0  0  0  0  0  0  0  0  0  0  0  0
   36.5780   27.1480   43.2360 C   0  0  0  0  0  0  0  0  0  0  0  0
   37.3500   26.1550   42.5920 C   0  0  0  0  0  0  0  0  0  0  0  0
   36.7280   24.9740   42.2560 C   0  0  0  0  0  0  0  0  0  0  0  0
   37.4210   23.9620   41.6250 C   0  0  0  0  0  0  0  0  0  0  0  0
   38.7790   24.1450   41.3230 C   0  0  0  0  0  0  0  0  0  0  0  0
   39.3790   25.3650   41.6830 C   0  0  0  0  0  0  0  0  0  0  0  0
   38.6670   26.3480   42.3110 C   0  0  0  0  0  0  0  0  0  0  0  0
   39.0280   29.4110   43.5420 H   0  0  0  0  0  0  0  0  0  0  0  0
   36.6830   29.1230   44.0610 H   0  0  0  0  0  0  0  0  0  0  0  0
   35.5390   27.0070   43.4620 H   0  0  0  0  0  0  0  0  0  0  0  0
   35.6760   24.8590   42.5000 H   0  0  0  0  0  0  0  0  0  0  0  0
   36.8750   23.0570   41.3900 H   0  0  0  0  0  0  0  0  0  0  0  0
   39.2360   23.3050   40.8310 H   0  0  0  0  0  0  0  0  0  0  0  0
   40.3950   25.3200   41.3530 H   0  0  0  0  0  0  0  0  0  0  0  0
   40.5970   28.3560   40.0960 O   0  0  0  0  0  0  0  0  0  0  0  0
   40.3300   30.2060   38.2660 O   0  0  0  0  0  0  0  0  0  0  0  0
   40.0720   29.9200   39.7000 P   0  0  1  0  0  0  0  0  0  0  0  0
   38.4190   30.0810   39.9670 O   0  0  0  0  0  0  0  0  0  0  0  0
   37.6220   29.4340   39.0600 C   0  0  0  0  0  3  0  0  0  0  0  0
   36.9150   28.2100   39.6070 C   0  0  0  0  0  3  0  0  0  0  0  0
   37.4690   27.7070   40.3960 H   0  0  0  0  0  0  0  0  0  0  0  0
   35.5520   28.6980   40.0560 C   0  0  0  0  0  3  0  0  0  0  0  0
   35.0630   27.9780   40.7450 H   0  0  0  0  0  0  0  0  0  0  0  0
   34.7870   28.9230   38.9170 O   0  0  0  0  0  0  0  0  0  0  0  0
   35.5190   29.4490   37.8710 C   0  0  0  0  0  3  0  0  0  0  0  0
   35.9460   28.6030   37.2980 H   0  0  0  0  0  0  0  0  0  0  0  0
   36.6590   30.3510   38.3420 C   0  0  0  0  0  3  0  0  0  0  0  0
   36.2820   31.1690   38.9790 H   0  0  0  0  0  0  0  0  0  0  0  0
   40.8830   31.0070   40.6920 O   0  0  0  0  0  0  0  0  0  0  0  0
   40.3790   31.6360   41.8210 C   0  0  0  0  0  0  0  0  0  0  0  0
   40.9780   31.1040   42.7730 O   0  0  0  0  0  0  0  0  0  0  0  0
   39.3940   32.6240   41.4600 N   0  0  0  0  0  0  0  0  0  0  0  0
   38.3780   32.6240   41.5890 H   0  0  0  0  0  0  0  0  0  0  0  0
   39.8110   33.4620   40.9990 H   0  0  0  0  0  0  0  0  0  0  0  0
  1  2  2  0  0  0  0
  1  6  1  0  0  0  0
  2  3  1  0  0  0  0
  3  9  1  0  0  0  0
  3  4  2  0  0  0  0
  5  4  1  0  0  0  0
  5  8  1  0  0  0  0
  6  5  2  0  0  0  0
  7  1  1  0  0  0  0
  9 10  1  0  0  0  0
 10 19  1  0  0  0  0
 10 11  2  0  0  0  0
 11 20  1  0  0  0  0
 12 21  1  0  0  0  0
 12 11  1  0  0  0  0
 13 12  2  0  0  0  0
 14 22  1  0  0  0  0
 14 13  1  0  0  0  0
 15 14  2  0  0  0  0
 16 15  1  0  0  0  0
 16 17  2  0  0  0  0
 17 18  1  0  0  0  0
 18 13  1  0  0  0  0
 18  9  2  0  0  0  0
 23 15  1  0  0  0  0
 24 16  1  0  0  0  0
 25 17  1  0  0  0  0
 26  2  1  0  0  0  0
 28 27  2  6  0  0  0
 28 29  1  0  0  0  0
 28 26  1  0  0  0  0
 28 40  1  0  0  0  0
 30 31  1  0  0  0  0
 30 29  1  0  0  0  0
 31 33  1  0  0  0  0
 31 32  1  0  0  0  0
 33 34  1  0  0  0  0
 35 33  1  0  0  0  0
 36 38  1  0  0  0  0
 36 35  1  0  0  0  0
 37 36  1  0  0  0  0
 38 39  1  0  0  0  0
 38 30  1  0  0  0  0
 40 41  1  0  0  0  0
 41 42  2  0  0  0  0
 43 44  1  0  0  0  0
 43 41  1  0  0  0  0
 45 43  1  0  0  0  0
M  END
>  <minimizedAffinity>
-5.76763678

$$$$

 OpenBabel03252508103D

 45 48  0  0  0  0  0  0  0  0999 V2000
   38.3640   30.9110   40.0900 C   0  0  0  0  0  0  0  0  0  0  0  0
   38.8780   29.7090   40.5750 C   0  0  0  0  0  0  0  0  0  0  0  0
   38.1430   28.9760   41.4740 C   0  0  0  0  0  0  0  0  0  0  0  0
   36.9140   29.4800   41.8490 N   0  0  0  0  0  0  0  0  0  0  0  0
   36.4320   30.6280   41.3780 C   0  0  0  0  0  0  0  0  0  0  0  0
   37.1710   31.3360   40.4970 N   0  0  0  0  0  0  0  0  0  0  0  0
   38.9150   31.5300   39.3720 H   0  0  0  0  0  0  0  0  0  0  0  0
   35.4680   30.9930   41.6920 H   0  0  0  0  0  0  0  0  0  0  0  0
   38.5170   27.7450   42.0610 C   0  0  0  0  0  0  0  0  0  0  0  0
   39.3980   27.6270   43.1400 C   0  0  0  0  0  0  0  0  0  0  0  0
   39.8140   26.4330   43.6680 C   0  0  0  0  0  0  0  0  0  0  0  0
   39.3580   25.2550   43.1290 C   0  0  0  0  0  0  0  0  0  0  0  0
   38.4650   25.3510   42.0370 C   0  0  0  0  0  0  0  0  0  0  0  0
   38.0000   24.1810   41.4810 C   0  0  0  0  0  0  0  0  0  0  0  0
   37.1260   24.2000   40.4150 C   0  0  0  0  0  0  0  0  0  0  0  0
   36.7070   25.4350   39.8940 C   0  0  0  0  0  0  0  0  0  0  0  0
   37.2050   26.6080   40.4880 C   0  0  0  0  0  0  0  0  0  0  0  0
   38.0730   26.5560   41.5420 C   0  0  0  0  0  0  0  0  0  0  0  0
   39.7740   28.5470   43.5850 H   0  0  0  0  0  0  0  0  0  0  0  0
   40.5000   26.4320   44.5080 H   0  0  0  0  0  0  0  0  0  0  0  0
   39.6730   24.3110   43.5270 H   0  0  0  0  0  0  0  0  0  0  0  0
   38.3400   23.2400   41.9040 H   0  0  0  0  0  0  0  0  0  0  0  0
   36.8000   23.2460   40.0220 H   0  0  0  0  0  0  0  0  0  0  0  0
   36.0260   25.3520   39.0660 H   0  0  0  0  0  0  0  0  0  0  0  0
   36.7580   27.4310   39.9720 H   0  0  0  0  0  0  0  0  0  0  0  0
   40.1000   29.3270   40.1190 O   0  0  0  0  0  0  0  0  0  0  0  0
   42.2350   29.4350   38.6120 O   0  0  0  0  0  0  0  0  0  0  0  0
   40.8290   29.9050   38.7020 P   0  0  1  0  0  0  0  0  0  0  0  0
   40.0140   29.3470   37.3400 O   0  0  0  0  0  0  0  0  0  0  0  0
   39.2420   28.2350   37.5440 C   0  0  0  0  0  3  0  0  0  0  0  0
   37.7700   28.4270   37.2400 C   0  0  0  0  0  3  0  0  0  0  0  0
   37.4240   29.4440   37.4060 H   0  0  0  0  0  0  0  0  0  0  0  0
   37.5890   27.9640   35.8090 C   0  0  0  0  0  3  0  0  0  0  0  0
   36.6380   28.3350   35.3730 H   0  0  0  0  0  0  0  0  0  0  0  0
   37.6510   26.5750   35.8020 O   0  0  0  0  0  0  0  0  0  0  0  0
   38.5790   26.0730   36.6930 C   0  0  0  0  0  3  0  0  0  0  0  0
   38.0760   25.9480   37.6710 H   0  0  0  0  0  0  0  0  0  0  0  0
   39.7850   26.9940   36.8720 C   0  0  0  0  0  3  0  0  0  0  0  0
   40.2740   27.2030   35.9060 H   0  0  0  0  0  0  0  0  0  0  0  0
   40.7500   31.5830   38.7240 O   0  0  0  0  0  0  0  0  0  0  0  0
   40.7820   32.4300   37.6260 C   0  0  0  0  0  0  0  0  0  0  0  0
   41.8340   33.0810   37.7610 O   0  0  0  0  0  0  0  0  0  0  0  0
   39.6250   32.2310   36.7900 N   0  0  0  0  0  0  0  0  0  0  0  0
   38.8110   32.8320   36.6320 H   0  0  0  0  0  0  0  0  0  0  0  0
   39.6490   31.3230   36.2760 H   0  0  0  0  0  0  0  0  0  0  0  0
  1  6  2  0  0  0  0
  1  2  1  0  0  0  0
  2  3  2  0  0  0  0
  3  4  1  0  0  0  0
  3  9  1  0  0  0  0
  5  8  1  0  0  0  0
  5  4  2  0  0  0  0
  6  5  1  0  0  0  0
  7  1  1  0  0  0  0
  9 10  1  0  0  0  0
 10 19  1  0  0  0  0
 10 11  2  0  0  0  0
 11 20  1  0  0  0  0
 12 21  1  0  0  0  0
 12 11  1  0  0  0  0
 13 12  2  0  0  0  0
 14 22  1  0  0  0  0
 14 13  1  0  0  0  0
 15 14  2  0  0  0  0
 16 15  1  0  0  0  0
 16 17  2  0  0  0  0
 17 18  1  0  0  0  0
 18 13  1  0  0  0  0
 18  9  2  0  0  0  0
 23 15  1  0  0  0  0
 24 16  1  0  0  0  0
 25 17  1  0  0  0  0
 26  2  1  0  0  0  0
 28 27  2  6  0  0  0
 28 40  1  0  0  0  0
 28 26  1  0  0  0  0
 29 30  1  0  0  0  0
 29 28  1  0  0  0  0
 31 32  1  0  0  0  0
 31 30  1  0  0  0  0
 33 31  1  0  0  0  0
 34 33  1  0  0  0  0
 35 33  1  0  0  0  0
 35 36  1  0  0  0  0
 36 38  1  0  0  0  0
 36 37  1  0  0  0  0
 38 30  1  0  0  0  0
 39 38  1  0  0  0  0
 41 42  2  0  0  0  0
 41 40  1  0  0  0  0
 43 41  1  0  0  0  0
 44 43  1  0  0  0  0
 45 43  1  0  0  0  0
M  END
>  <minimizedAffinity>
-5.76746655

$$$$

 OpenBabel03252508103D

 45 48  0  0  0  0  0  0  0  0999 V2000
   37.1960   29.3490   37.0560 C   0  0  0  0  0  0  0  0  0  0  0  0
   37.5580   28.5080   38.1070 C   0  0  0  0  0  0  0  0  0  0  0  0
   36.5810   27.8250   38.7900 C   0  0  0  0  0  0  0  0  0  0  0  0
   35.2750   28.0150   38.3870 N   0  0  0  0  0  0  0  0  0  0  0  0
   34.9400   28.8210   37.3810 C   0  0  0  0  0  0  0  0  0  0  0  0
   35.9150   29.4840   36.7230 N   0  0  0  0  0  0  0  0  0  0  0  0
   37.9410   29.9140   36.4830 H   0  0  0  0  0  0  0  0  0  0  0  0
   33.9100   28.9460   37.0930 H   0  0  0  0  0  0  0  0  0  0  0  0
   36.7760   26.9380   39.8740 C   0  0  0  0  0  0  0  0  0  0  0  0
   36.6970   25.5460   39.7720 C   0  0  0  0  0  0  0  0  0  0  0  0
   36.8190   24.6880   40.8330 C   0  0  0  0  0  0  0  0  0  0  0  0
   37.0320   25.1900   42.0940 C   0  0  0  0  0  0  0  0  0  0  0  0
   37.1170   26.5950   42.2200 C   0  0  0  0  0  0  0  0  0  0  0  0
   37.3270   27.1170   43.4760 C   0  0  0  0  0  0  0  0  0  0  0  0
   37.4200   28.4790   43.6720 C   0  0  0  0  0  0  0  0  0  0  0  0
   37.3000   29.3410   42.5700 C   0  0  0  0  0  0  0  0  0  0  0  0
   37.0840   28.7690   41.3030 C   0  0  0  0  0  0  0  0  0  0  0  0
   36.9930   27.4150   41.1410 C   0  0  0  0  0  0  0  0  0  0  0  0
   36.5280   25.1240   38.7830 H   0  0  0  0  0  0  0  0  0  0  0  0
   36.7450   23.6190   40.6650 H   0  0  0  0  0  0  0  0  0  0  0  0
   37.1290   24.5340   42.9360 H   0  0  0  0  0  0  0  0  0  0  0  0
   37.4180   26.4280   44.3100 H   0  0  0  0  0  0  0  0  0  0  0  0
   37.5840   28.8260   44.6840 H   0  0  0  0  0  0  0  0  0  0  0  0
   37.3870   30.3830   42.8180 H   0  0  0  0  0  0  0  0  0  0  0  0
   37.0430   29.5750   40.6020 H   0  0  0  0  0  0  0  0  0  0  0  0
   38.8820   28.4080   38.3970 O   0  0  0  0  0  0  0  0  0  0  0  0
   39.0750   30.8400   39.3380 O   0  0  0  0  0  0  0  0  0  0  0  0
   39.8830   29.7140   38.8070 P   0  0  1  0  0  0  0  0  0  0  0  0
   40.9870   29.2690   39.9960 O   0  0  0  0  0  0  0  0  0  0  0  0
   40.9660   30.0460   41.1230 C   0  0  0  0  0  3  0  0  0  0  0  0
   40.9560   29.2670   42.4230 C   0  0  0  0  0  3  0  0  0  0  0  0
   40.4650   28.3000   42.3440 H   0  0  0  0  0  0  0  0  0  0  0  0
   42.4080   29.1630   42.8440 C   0  0  0  0  0  3  0  0  0  0  0  0
   42.5620   28.3670   43.6010 H   0  0  0  0  0  0  0  0  0  0  0  0
   42.8010   30.4100   43.3200 O   0  0  0  0  0  0  0  0  0  0  0  0
   42.2490   31.4560   42.6090 C   0  0  0  0  0  3  0  0  0  0  0  0
   41.2700   31.6980   43.0690 H   0  0  0  0  0  0  0  0  0  0  0  0
   42.0310   31.1200   41.1340 C   0  0  0  0  0  3  0  0  0  0  0  0
   42.9710   30.8030   40.6550 H   0  0  0  0  0  0  0  0  0  0  0  0
   40.7330   30.1710   37.4310 O   0  0  0  0  0  0  0  0  0  0  0  0
   41.2750   31.4190   37.1670 C   0  0  0  0  0  0  0  0  0  0  0  0
   42.5060   31.2410   37.2010 O   0  0  0  0  0  0  0  0  0  0  0  0
   40.2360   32.3970   36.9650 N   0  0  0  0  0  0  0  0  0  0  0  0
   39.9380   33.1780   37.5560 H   0  0  0  0  0  0  0  0  0  0  0  0
   39.7260   32.2650   36.0640 H   0  0  0  0  0  0  0  0  0  0  0  0
  1  2  1  0  0  0  0
  2 26  1  0  0  0  0
  2  3  2  0  0  0  0
  3  9  1  0  0  0  0
  4  3  1  0  0  0  0
  5  4  2  0  0  0  0
  6  1  2  0  0  0  0
  6  5  1  0  0  0  0
  7  1  1  0  0  0  0
  8  5  1  0  0  0  0
  9 18  1  0  0  0  0
 10  9  2  0  0  0  0
 10 11  1  0  0  0  0
 11 12  2  0  0  0  0
 12 13  1  0  0  0  0
 12 21  1  0  0  0  0
 13 14  1  0  0  0  0
 14 15  2  0  0  0  0
 14 22  1  0  0  0  0
 15 23  1  0  0  0  0
 16 24  1  0  0  0  0
 16 15  1  0  0  0  0
 17 16  2  0  0  0  0
 18 17  1  0  0  0  0
 18 13  2  0  0  0  0
 19 10  1  0  0  0  0
 20 11  1  0  0  0  0
 25 17  1  0  0  0  0
 26 28  1  0  0  0  0
 28 27  2  1  0  0  0
 28 29  1  0  0  0  0
 29 30  1  0  0  0  0
 30 38  1  0  0  0  0
 30 31  1  0  0  0  0
 31 33  1  0  0  0  0
 32 31  1  0  0  0  0
 33 35  1  0  0  0  0
 33 34  1  0  0  0  0
 36 37  1  0  0  0  0
 36 35  1  0  0  0  0
 38 36  1  0  0  0  0
 39 38  1  0  0  0  0
 40 28  1  0  0  0  0
 41 42  2  0  0  0  0
 41 40  1  0  0  0  0
 43 41  1  0  0  0  0
 43 44  1  0  0  0  0
 45 43  1  0  0  0  0
M  END
>  <minimizedAffinity>
-5.76156807

$$$$
