
 OpenBabel03252507123D

 29 30  0  0  0  0  0  0  0  0999 V2000
   38.9140   30.1010   42.2690 O   0  0  0  0  0  0  0  0  0  0  0  0
   37.6080   29.3950   42.1050 P   0  0  1  0  0  0  0  0  0  0  0  0
   36.9610   29.2310   43.6610 O   0  0  0  0  0  0  0  0  0  0  0  0
   36.6630   30.1320   43.9420 H   0  0  0  0  0  0  0  0  0  0  0  0
   36.5340   30.3400   41.1680 O   0  0  0  0  0  0  0  0  0  0  0  0
   37.1310   31.9990   39.6160 C   0  0  0  0  0  0  0  0  0  0  0  0
   36.8050   30.6740   39.8670 C   0  0  0  0  0  0  0  0  0  0  0  0
   36.7770   29.7860   38.7750 C   0  0  0  0  0  0  0  0  0  0  0  0
   37.0710   30.2790   37.5470 N   0  0  0  0  0  0  0  0  0  0  0  0
   37.3790   31.5540   37.3480 C   0  0  0  0  0  0  0  0  0  0  0  0
   37.4100   32.4280   38.3990 N   0  0  0  0  0  0  0  0  0  0  0  0
   36.5180   28.7550   39.0020 H   0  0  0  0  0  0  0  0  0  0  0  0
   37.6040   31.8790   36.3310 H   0  0  0  0  0  0  0  0  0  0  0  0
   38.6300   33.6000   40.7970 C   0  0  0  0  0  0  0  0  0  0  0  0
   39.6680   32.8640   40.6680 O   0  0  0  0  0  0  0  0  0  0  0  0
   37.3000   33.2460   40.2970 N   0  0  0  0  0  0  0  0  0  0  0  0
   38.7370   34.5490   41.3100 H   0  0  0  0  0  0  0  0  0  0  0  0
   36.5380   33.9350   40.4660 H   0  0  0  0  0  0  0  0  0  0  0  0
   37.8100   27.8780   41.4630 O   0  0  0  0  0  0  0  0  0  0  0  0
   38.1140   26.8640   42.2880 C   0  0  0  0  0  3  0  0  0  0  0  0
   39.3970   26.1380   42.0320 C   0  0  0  0  0  3  0  0  0  0  0  0
   39.4200   25.8300   40.9580 H   0  0  0  0  0  0  0  0  0  0  0  0
   39.3370   24.8220   42.7930 C   0  0  0  0  0  3  0  0  0  0  0  0
   39.0360   24.9510   43.8370 H   0  0  0  0  0  0  0  0  0  0  0  0
   38.4660   23.9430   42.1520 O   0  0  0  0  0  0  0  0  0  0  0  0
   37.3780   24.6250   41.6150 C   0  0  0  0  0  3  0  0  0  0  0  0
   37.5780   24.9290   40.5640 H   0  0  0  0  0  0  0  0  0  0  0  0
   37.0190   25.8360   42.4840 C   0  0  0  0  0  3  0  0  0  0  0  0
   37.0140   25.4430   43.5280 H   0  0  0  0  0  0  0  0  0  0  0  0
  2  1  2  1  0  0  0
  2  3  1  0  0  0  0
  3  4  1  0  0  0  0
  5  2  1  0  0  0  0
  6  7  1  0  0  0  0
  6 16  1  0  0  0  0
  7  5  1  0  0  0  0
  8 12  1  0  0  0  0
  8  7  2  0  0  0  0
  9  8  1  0  0  0  0
 10  9  2  0  0  0  0
 10 11  1  0  0  0  0
 11  6  2  0  0  0  0
 13 10  1  0  0  0  0
 14 17  1  0  0  0  0
 15 14  2  0  0  0  0
 16 18  1  0  0  0  0
 16 14  1  0  0  0  0
 19  2  1  0  0  0  0
 19 20  1  0  0  0  0
 20 28  1  0  0  0  0
 21 20  1  0  0  0  0
 21 23  1  0  0  0  0
 22 21  1  0  0  0  0
 23 24  1  0  0  0  0
 25 23  1  0  0  0  0
 26 25  1  0  0  0  0
 26 28  1  0  0  0  0
 27 26  1  0  0  0  0
 28 29  1  0  0  0  0
M  END
>  <minimizedAffinity>
-5.21570826

$$$$

 OpenBabel03252507123D

 29 30  0  0  0  0  0  0  0  0999 V2000
   36.7910   28.6480   39.5350 O   0  0  0  0  0  0  0  0  0  0  0  0
   36.0770   29.2400   40.7070 P   0  0  1  0  0  0  0  0  0  0  0  0
   34.4370   29.2820   40.2870 O   0  0  0  0  0  0  0  0  0  0  0  0
   34.1130   28.3470   40.3110 H   0  0  0  0  0  0  0  0  0  0  0  0
   36.2590   28.2400   42.0820 O   0  0  0  0  0  0  0  0  0  0  0  0
   37.6630   26.4030   42.4930 C   0  0  0  0  0  0  0  0  0  0  0  0
   37.4830   27.7780   42.4890 C   0  0  0  0  0  0  0  0  0  0  0  0
   38.5620   28.5840   42.9000 C   0  0  0  0  0  0  0  0  0  0  0  0
   39.7100   27.9670   43.2740 N   0  0  0  0  0  0  0  0  0  0  0  0
   39.8430   26.6460   43.2630 C   0  0  0  0  0  0  0  0  0  0  0  0
   38.8040   25.8520   42.8660 N   0  0  0  0  0  0  0  0  0  0  0  0
   38.3920   29.6570   42.8870 H   0  0  0  0  0  0  0  0  0  0  0  0
   40.7970   26.2200   43.5780 H   0  0  0  0  0  0  0  0  0  0  0  0
   36.8520   24.7680   40.7970 C   0  0  0  0  0  0  0  0  0  0  0  0
   37.3480   25.4090   39.8090 O   0  0  0  0  0  0  0  0  0  0  0  0
   36.9600   25.1930   42.1950 N   0  0  0  0  0  0  0  0  0  0  0  0
   36.3160   23.8490   40.5920 H   0  0  0  0  0  0  0  0  0  0  0  0
   36.5120   24.5790   42.9060 H   0  0  0  0  0  0  0  0  0  0  0  0
   36.5770   30.7930   41.0070 O   0  0  0  0  0  0  0  0  0  0  0  0
   37.5830   31.2990   40.2760 C   0  0  0  0  0  3  0  0  0  0  0  0
   38.7580   31.8480   41.0210 C   0  0  0  0  0  3  0  0  0  0  0  0
   38.3840   32.5740   41.7840 H   0  0  0  0  0  0  0  0  0  0  0  0
   39.5530   32.7090   40.0500 C   0  0  0  0  0  3  0  0  0  0  0  0
   39.7560   32.2010   39.1030 H   0  0  0  0  0  0  0  0  0  0  0  0
   38.8760   33.9040   39.8130 O   0  0  0  0  0  0  0  0  0  0  0  0
   37.5000   33.6980   39.7820 C   0  0  0  0  0  3  0  0  0  0  0  0
   37.0540   33.8400   40.7900 H   0  0  0  0  0  0  0  0  0  0  0  0
   37.1750   32.3080   39.2220 C   0  0  0  0  0  3  0  0  0  0  0  0
   37.8080   32.2170   38.3070 H   0  0  0  0  0  0  0  0  0  0  0  0
  2  1  2  6  0  0  0
  2 19  1  0  0  0  0
  2  5  1  0  0  0  0
  3  4  1  0  0  0  0
  3  2  1  0  0  0  0
  5  7  1  0  0  0  0
  6 11  1  0  0  0  0
  7  6  2  0  0  0  0
  7  8  1  0  0  0  0
  8  9  2  0  0  0  0
 10  9  1  0  0  0  0
 10 13  1  0  0  0  0
 11 10  2  0  0  0  0
 12  8  1  0  0  0  0
 14 16  1  0  0  0  0
 15 14  2  0  0  0  0
 16  6  1  0  0  0  0
 16 18  1  0  0  0  0
 17 14  1  0  0  0  0
 20 19  1  0  0  0  0
 20 21  1  0  0  0  0
 21 22  1  0  0  0  0
 23 21  1  0  0  0  0
 24 23  1  0  0  0  0
 25 23  1  0  0  0  0
 26 25  1  0  0  0  0
 26 27  1  0  0  0  0
 28 26  1  0  0  0  0
 28 20  1  0  0  0  0
 29 28  1  0  0  0  0
M  END
>  <minimizedAffinity>
-4.82524395

$$$$

 OpenBabel03252507123D

 29 30  0  0  0  0  0  0  0  0999 V2000
   38.8970   28.8350   42.8260 O   0  0  0  0  0  0  0  0  0  0  0  0
   37.8040   28.9110   41.8100 P   0  0  1  0  0  0  0  0  0  0  0  0
   36.5690   29.8300   42.5130 O   0  0  0  0  0  0  0  0  0  0  0  0
   36.8860   30.7670   42.5310 H   0  0  0  0  0  0  0  0  0  0  0  0
   38.3520   29.7210   40.4060 O   0  0  0  0  0  0  0  0  0  0  0  0
   38.8960   31.9230   41.0130 C   0  0  0  0  0  0  0  0  0  0  0  0
   38.1540   31.0630   40.2170 C   0  0  0  0  0  0  0  0  0  0  0  0
   37.2630   31.6310   39.2860 C   0  0  0  0  0  0  0  0  0  0  0  0
   37.1860   32.9830   39.2250 N   0  0  0  0  0  0  0  0  0  0  0  0
   37.9130   33.7730   40.0040 C   0  0  0  0  0  0  0  0  0  0  0  0
   38.7820   33.2350   40.9120 N   0  0  0  0  0  0  0  0  0  0  0  0
   36.6960   30.9330   38.6770 H   0  0  0  0  0  0  0  0  0  0  0  0
   37.7970   34.8530   39.8990 H   0  0  0  0  0  0  0  0  0  0  0  0
   41.2480   31.4970   41.7130 C   0  0  0  0  0  0  0  0  0  0  0  0
   41.6310   31.1600   40.5420 O   0  0  0  0  0  0  0  0  0  0  0  0
   39.8800   31.9000   42.0500 N   0  0  0  0  0  0  0  0  0  0  0  0
   41.9790   31.4870   42.5140 H   0  0  0  0  0  0  0  0  0  0  0  0
   39.6980   32.1530   43.0440 H   0  0  0  0  0  0  0  0  0  0  0  0
   37.1960   27.4080   41.4530 O   0  0  0  0  0  0  0  0  0  0  0  0
   37.8280   26.3260   41.9340 C   0  0  0  0  0  3  0  0  0  0  0  0
   38.9370   25.7600   41.1050 C   0  0  0  0  0  3  0  0  0  0  0  0
   38.5560   25.5990   40.0660 H   0  0  0  0  0  0  0  0  0  0  0  0
   39.2190   24.3550   41.6170 C   0  0  0  0  0  3  0  0  0  0  0  0
   39.3380   24.3170   42.7040 H   0  0  0  0  0  0  0  0  0  0  0  0
   38.1980   23.4920   41.2200 O   0  0  0  0  0  0  0  0  0  0  0  0
   36.9650   24.1380   41.2450 C   0  0  0  0  0  3  0  0  0  0  0  0
   36.7360   24.5950   40.2570 H   0  0  0  0  0  0  0  0  0  0  0  0
   36.9280   25.1870   42.3630 C   0  0  0  0  0  3  0  0  0  0  0  0
   37.3380   24.6600   43.2580 H   0  0  0  0  0  0  0  0  0  0  0  0
  2  3  1  0  0  0  0
  2  1  2  1  0  0  0
  3  4  1  0  0  0  0
  5  2  1  0  0  0  0
  6 16  1  0  0  0  0
  7  5  1  0  0  0  0
  7  6  2  0  0  0  0
  8  7  1  0  0  0  0
  9  8  2  0  0  0  0
  9 10  1  0  0  0  0
 10 11  2  0  0  0  0
 11  6  1  0  0  0  0
 12  8  1  0  0  0  0
 13 10  1  0  0  0  0
 14 16  1  0  0  0  0
 14 17  1  0  0  0  0
 15 14  2  0  0  0  0
 16 18  1  0  0  0  0
 19  2  1  0  0  0  0
 19 20  1  0  0  0  0
 20 28  1  0  0  0  0
 21 23  1  0  0  0  0
 21 20  1  0  0  0  0
 22 21  1  0  0  0  0
 23 24  1  0  0  0  0
 25 26  1  0  0  0  0
 25 23  1  0  0  0  0
 26 28  1  0  0  0  0
 27 26  1  0  0  0  0
 28 29  1  0  0  0  0
M  END
>  <minimizedAffinity>
-4.73643589

$$$$

 OpenBabel03252507123D

 29 30  0  0  0  0  0  0  0  0999 V2000
   39.0090   28.1720   43.2570 O   0  0  0  0  0  0  0  0  0  0  0  0
   38.0100   28.4980   42.1940 P   0  0  1  0  0  0  0  0  0  0  0  0
   36.8600   29.5060   42.9200 O   0  0  0  0  0  0  0  0  0  0  0  0
   37.2970   30.3840   43.0550 H   0  0  0  0  0  0  0  0  0  0  0  0
   38.7580   29.3580   40.9180 O   0  0  0  0  0  0  0  0  0  0  0  0
   37.3970   30.7300   39.5850 C   0  0  0  0  0  0  0  0  0  0  0  0
   38.3690   30.6240   40.5680 C   0  0  0  0  0  0  0  0  0  0  0  0
   38.8760   31.8140   41.1240 C   0  0  0  0  0  0  0  0  0  0  0  0
   38.3820   32.9900   40.6650 N   0  0  0  0  0  0  0  0  0  0  0  0
   37.4510   33.0500   39.7210 C   0  0  0  0  0  0  0  0  0  0  0  0
   36.9500   31.9030   39.1730 N   0  0  0  0  0  0  0  0  0  0  0  0
   39.6360   31.7000   41.8920 H   0  0  0  0  0  0  0  0  0  0  0  0
   37.1020   34.0330   39.4010 H   0  0  0  0  0  0  0  0  0  0  0  0
   35.3900   29.2830   39.2970 C   0  0  0  0  0  0  0  0  0  0  0  0
   35.0100   29.4140   40.5110 O   0  0  0  0  0  0  0  0  0  0  0  0
   36.5870   29.9120   38.7350 N   0  0  0  0  0  0  0  0  0  0  0  0
   34.7900   28.6680   38.6370 H   0  0  0  0  0  0  0  0  0  0  0  0
   36.7850   29.7270   37.7300 H   0  0  0  0  0  0  0  0  0  0  0  0
   37.2360   27.1370   41.6450 O   0  0  0  0  0  0  0  0  0  0  0  0
   37.7740   25.9370   41.9130 C   0  0  0  0  0  3  0  0  0  0  0  0
   38.7720   25.4030   40.9350 C   0  0  0  0  0  3  0  0  0  0  0  0
   38.3220   25.4450   39.9120 H   0  0  0  0  0  0  0  0  0  0  0  0
   38.9290   23.9150   41.2090 C   0  0  0  0  0  3  0  0  0  0  0  0
   39.1010   23.6950   42.2670 H   0  0  0  0  0  0  0  0  0  0  0  0
   37.8040   23.2280   40.7570 O   0  0  0  0  0  0  0  0  0  0  0  0
   36.6490   23.9780   40.9620 C   0  0  0  0  0  3  0  0  0  0  0  0
   36.4180   24.6040   40.0730 H   0  0  0  0  0  0  0  0  0  0  0  0
   36.7810   24.8360   42.2260 C   0  0  0  0  0  3  0  0  0  0  0  0
   37.1800   24.1390   43.0010 H   0  0  0  0  0  0  0  0  0  0  0  0
  2  3  1  0  0  0  0
  2  1  2  1  0  0  0
  3  4  1  0  0  0  0
  5  2  1  0  0  0  0
  6  7  1  0  0  0  0
  7  5  1  0  0  0  0
  7  8  2  0  0  0  0
  8 12  1  0  0  0  0
  9  8  1  0  0  0  0
 10  9  2  0  0  0  0
 11  6  2  0  0  0  0
 11 10  1  0  0  0  0
 13 10  1  0  0  0  0
 14 15  2  0  0  0  0
 16 14  1  0  0  0  0
 16  6  1  0  0  0  0
 17 14  1  0  0  0  0
 18 16  1  0  0  0  0
 19 20  1  0  0  0  0
 19  2  1  0  0  0  0
 20 28  1  0  0  0  0
 21 23  1  0  0  0  0
 21 20  1  0  0  0  0
 22 21  1  0  0  0  0
 23 24  1  0  0  0  0
 25 26  1  0  0  0  0
 25 23  1  0  0  0  0
 26 28  1  0  0  0  0
 27 26  1  0  0  0  0
 28 29  1  0  0  0  0
M  END
>  <minimizedAffinity>
-4.72291231

$$$$

 OpenBabel03252507123D

 29 30  0  0  0  0  0  0  0  0999 V2000
   38.1790   30.0040   41.7610 O   0  0  0  0  0  0  0  0  0  0  0  0
   36.9540   29.5550   41.0310 P   0  0  1  0  0  0  0  0  0  0  0  0
   35.7280   30.6420   41.4560 O   0  0  0  0  0  0  0  0  0  0  0  0
   35.9300   31.4940   40.9940 H   0  0  0  0  0  0  0  0  0  0  0  0
   37.2010   29.6480   39.3410 O   0  0  0  0  0  0  0  0  0  0  0  0
   38.4190   31.3770   38.3230 C   0  0  0  0  0  0  0  0  0  0  0  0
   38.3850   30.0760   38.8010 C   0  0  0  0  0  0  0  0  0  0  0  0
   39.5570   29.3040   38.6940 C   0  0  0  0  0  0  0  0  0  0  0  0
   40.6480   29.8800   38.1310 N   0  0  0  0  0  0  0  0  0  0  0  0
   40.6410   31.1300   37.6850 C   0  0  0  0  0  0  0  0  0  0  0  0
   39.5100   31.8910   37.7830 N   0  0  0  0  0  0  0  0  0  0  0  0
   39.5000   28.2890   39.0760 H   0  0  0  0  0  0  0  0  0  0  0  0
   41.5570   31.5260   37.2430 H   0  0  0  0  0  0  0  0  0  0  0  0
   37.2550   33.3090   39.3810 C   0  0  0  0  0  0  0  0  0  0  0  0
   37.6700   33.0310   40.5570 O   0  0  0  0  0  0  0  0  0  0  0  0
   37.5830   32.5290   38.1840 N   0  0  0  0  0  0  0  0  0  0  0  0
   36.6200   34.1780   39.2540 H   0  0  0  0  0  0  0  0  0  0  0  0
   37.1810   32.8630   37.2840 H   0  0  0  0  0  0  0  0  0  0  0  0
   36.4860   28.0340   41.5010 O   0  0  0  0  0  0  0  0  0  0  0  0
   37.2350   26.9850   41.1260 C   0  0  0  0  0  3  0  0  0  0  0  0
   36.7140   26.1400   40.0070 C   0  0  0  0  0  3  0  0  0  0  0  0
   35.6630   25.8450   40.2470 H   0  0  0  0  0  0  0  0  0  0  0  0
   37.4820   24.8270   40.0290 C   0  0  0  0  0  3  0  0  0  0  0  0
   38.5650   24.9720   40.0820 H   0  0  0  0  0  0  0  0  0  0  0  0
   37.0530   24.0450   41.1000 O   0  0  0  0  0  0  0  0  0  0  0  0
   36.7580   24.8370   42.2060 C   0  0  0  0  0  3  0  0  0  0  0  0
   35.6870   25.1330   42.2100 H   0  0  0  0  0  0  0  0  0  0  0  0
   37.6740   26.0670   42.2480 C   0  0  0  0  0  3  0  0  0  0  0  0
   38.6980   25.6630   42.0650 H   0  0  0  0  0  0  0  0  0  0  0  0
  2  3  1  0  0  0  0
  2 19  1  0  0  0  0
  2  1  2  1  0  0  0
  4  3  1  0  0  0  0
  5  2  1  0  0  0  0
  6  7  1  0  0  0  0
  7  5  1  0  0  0  0
  8  7  2  0  0  0  0
  8 12  1  0  0  0  0
  9  8  1  0  0  0  0
 10 11  1  0  0  0  0
 10  9  2  0  0  0  0
 11  6  2  0  0  0  0
 13 10  1  0  0  0  0
 14 15  2  0  0  0  0
 16  6  1  0  0  0  0
 16 14  1  0  0  0  0
 17 14  1  0  0  0  0
 18 16  1  0  0  0  0
 20 19  1  0  0  0  0
 20 28  1  0  0  0  0
 21 23  1  0  0  0  0
 21 22  1  0  0  0  0
 21 20  1  0  0  0  0
 23 24  1  0  0  0  0
 23 25  1  0  0  0  0
 25 26  1  0  0  0  0
 26 27  1  0  0  0  0
 26 28  1  0  0  0  0
 29 28  1  0  0  0  0
M  END
>  <minimizedAffinity>
-4.61934662

$$$$

 OpenBabel03252507123D

 29 30  0  0  0  0  0  0  0  0999 V2000
   35.7750   29.9220   39.0900 O   0  0  0  0  0  0  0  0  0  0  0  0
   36.4540   29.9200   40.4210 P   0  0  1  0  0  0  0  0  0  0  0  0
   35.5410   30.9400   41.4170 O   0  0  0  0  0  0  0  0  0  0  0  0
   34.7010   30.4590   41.6240 H   0  0  0  0  0  0  0  0  0  0  0  0
   36.4400   28.3480   41.0940 O   0  0  0  0  0  0  0  0  0  0  0  0
   38.5080   27.2860   40.7660 C   0  0  0  0  0  0  0  0  0  0  0  0
   37.1400   27.3110   40.5370 C   0  0  0  0  0  0  0  0  0  0  0  0
   36.5840   26.2800   39.7570 C   0  0  0  0  0  0  0  0  0  0  0  0
   37.4190   25.3250   39.2780 N   0  0  0  0  0  0  0  0  0  0  0  0
   38.7240   25.3360   39.5190 C   0  0  0  0  0  0  0  0  0  0  0  0
   39.2770   26.3320   40.2750 N   0  0  0  0  0  0  0  0  0  0  0  0
   35.5110   26.3260   39.5940 H   0  0  0  0  0  0  0  0  0  0  0  0
   39.3340   24.5340   39.0990 H   0  0  0  0  0  0  0  0  0  0  0  0
   39.5470   28.0360   42.9020 C   0  0  0  0  0  0  0  0  0  0  0  0
   38.6970   27.4230   43.6350 O   0  0  0  0  0  0  0  0  0  0  0  0
   39.5320   28.0250   41.4370 N   0  0  0  0  0  0  0  0  0  0  0  0
   40.3310   28.6010   43.3920 H   0  0  0  0  0  0  0  0  0  0  0  0
   40.2830   28.5640   40.9580 H   0  0  0  0  0  0  0  0  0  0  0  0
   37.9930   30.5320   40.3220 O   0  0  0  0  0  0  0  0  0  0  0  0
   38.2090   31.8000   40.7050 C   0  0  0  0  0  3  0  0  0  0  0  0
   37.8430   32.8770   39.7330 C   0  0  0  0  0  3  0  0  0  0  0  0
   38.3230   32.6450   38.7510 H   0  0  0  0  0  0  0  0  0  0  0  0
   38.5310   34.1560   40.1880 C   0  0  0  0  0  3  0  0  0  0  0  0
   38.3720   34.3660   41.2500 H   0  0  0  0  0  0  0  0  0  0  0  0
   39.8960   34.0830   39.9170 O   0  0  0  0  0  0  0  0  0  0  0  0
   40.3710   32.7880   40.1070 C   0  0  0  0  0  3  0  0  0  0  0  0
   40.3220   32.2030   39.1630 H   0  0  0  0  0  0  0  0  0  0  0  0
   39.5980   32.0900   41.2330 C   0  0  0  0  0  3  0  0  0  0  0  0
   39.5690   32.8380   42.0610 H   0  0  0  0  0  0  0  0  0  0  0  0
  2  1  2  6  0  0  0
  2  5  1  0  0  0  0
  2  3  1  0  0  0  0
  3  4  1  0  0  0  0
  6 16  1  0  0  0  0
  7  6  1  0  0  0  0
  7  5  1  0  0  0  0
  8  7  2  0  0  0  0
  9 10  2  0  0  0  0
  9  8  1  0  0  0  0
 10 11  1  0  0  0  0
 11  6  2  0  0  0  0
 12  8  1  0  0  0  0
 13 10  1  0  0  0  0
 14 17  1  0  0  0  0
 14 15  2  0  0  0  0
 16 14  1  0  0  0  0
 18 16  1  0  0  0  0
 19  2  1  0  0  0  0
 19 20  1  0  0  0  0
 20 28  1  0  0  0  0
 21 23  1  0  0  0  0
 21 20  1  0  0  0  0
 22 21  1  0  0  0  0
 23 24  1  0  0  0  0
 25 26  1  0  0  0  0
 25 23  1  0  0  0  0
 26 28  1  0  0  0  0
 27 26  1  0  0  0  0
 28 29  1  0  0  0  0
M  END
>  <minimizedAffinity>
-4.61497021

$$$$

 OpenBabel03252507123D

 29 30  0  0  0  0  0  0  0  0999 V2000
   37.1450   28.1670   40.0220 O   0  0  0  0  0  0  0  0  0  0  0  0
   36.6130   28.8340   41.2490 P   0  0  1  0  0  0  0  0  0  0  0  0
   35.0040   29.2340   40.9080 O   0  0  0  0  0  0  0  0  0  0  0  0
   34.4930   28.3850   40.9080 H   0  0  0  0  0  0  0  0  0  0  0  0
   36.6340   27.7510   42.5720 O   0  0  0  0  0  0  0  0  0  0  0  0
   38.7060   26.7220   42.9740 C   0  0  0  0  0  0  0  0  0  0  0  0
   37.3860   26.6060   42.5630 C   0  0  0  0  0  0  0  0  0  0  0  0
   36.9280   25.3330   42.1730 C   0  0  0  0  0  0  0  0  0  0  0  0
   37.8040   24.3000   42.2230 N   0  0  0  0  0  0  0  0  0  0  0  0
   39.0600   24.4510   42.6220 C   0  0  0  0  0  0  0  0  0  0  0  0
   39.5190   25.6810   43.0040 N   0  0  0  0  0  0  0  0  0  0  0  0
   35.8910   25.2730   41.8560 H   0  0  0  0  0  0  0  0  0  0  0  0
   39.7080   23.5730   42.6350 H   0  0  0  0  0  0  0  0  0  0  0  0
   40.4560   28.4200   42.4660 C   0  0  0  0  0  0  0  0  0  0  0  0
   40.3960   28.2360   41.2030 O   0  0  0  0  0  0  0  0  0  0  0  0
   39.6380   27.6990   43.4450 N   0  0  0  0  0  0  0  0  0  0  0  0
   41.1560   29.1570   42.8430 H   0  0  0  0  0  0  0  0  0  0  0  0
   39.7830   27.9440   44.4460 H   0  0  0  0  0  0  0  0  0  0  0  0
   37.4360   30.2340   41.5890 O   0  0  0  0  0  0  0  0  0  0  0  0
   38.1350   30.8260   40.6070 C   0  0  0  0  0  3  0  0  0  0  0  0
   39.3100   31.6580   41.0140 C   0  0  0  0  0  3  0  0  0  0  0  0
   38.9740   32.3870   41.7920 H   0  0  0  0  0  0  0  0  0  0  0  0
   39.6830   32.5310   39.8250 C   0  0  0  0  0  3  0  0  0  0  0  0
   39.7720   31.9630   38.8940 H   0  0  0  0  0  0  0  0  0  0  0  0
   38.7460   33.5510   39.6720 O   0  0  0  0  0  0  0  0  0  0  0  0
   37.4660   33.0990   39.9820 C   0  0  0  0  0  3  0  0  0  0  0  0
   37.2320   33.2720   41.0550 H   0  0  0  0  0  0  0  0  0  0  0  0
   37.3130   31.6190   39.6130 C   0  0  0  0  0  3  0  0  0  0  0  0
   37.7350   31.5400   38.5830 H   0  0  0  0  0  0  0  0  0  0  0  0
  2  1  2  6  0  0  0
  2 19  1  0  0  0  0
  2  5  1  0  0  0  0
  3  4  1  0  0  0  0
  3  2  1  0  0  0  0
  6 11  1  0  0  0  0
  6 16  1  0  0  0  0
  7  5  1  0  0  0  0
  7  6  2  0  0  0  0
  8  9  2  0  0  0  0
  8  7  1  0  0  0  0
  9 10  1  0  0  0  0
 10 13  1  0  0  0  0
 10 11  2  0  0  0  0
 12  8  1  0  0  0  0
 14 17  1  0  0  0  0
 14 16  1  0  0  0  0
 15 14  2  0  0  0  0
 16 18  1  0  0  0  0
 20 21  1  0  0  0  0
 20 19  1  0  0  0  0
 21 22  1  0  0  0  0
 23 21  1  0  0  0  0
 24 23  1  0  0  0  0
 25 23  1  0  0  0  0
 25 26  1  0  0  0  0
 26 27  1  0  0  0  0
 28 26  1  0  0  0  0
 28 20  1  0  0  0  0
 29 28  1  0  0  0  0
M  END
>  <minimizedAffinity>
-4.59796572

$$$$

 OpenBabel03252507123D

 29 30  0  0  0  0  0  0  0  0999 V2000
   38.6570   29.8820   37.8760 O   0  0  0  0  0  0  0  0  0  0  0  0
   38.9170   31.2870   38.3120 P   0  0  1  0  0  0  0  0  0  0  0  0
   38.2820   32.2820   37.1000 O   0  0  0  0  0  0  0  0  0  0  0  0
   37.2960   32.2320   37.1770 H   0  0  0  0  0  0  0  0  0  0  0  0
   38.0930   31.6190   39.7740 O   0  0  0  0  0  0  0  0  0  0  0  0
   37.0600   30.2700   41.3950 C   0  0  0  0  0  0  0  0  0  0  0  0
   38.2240   30.8220   40.8810 C   0  0  0  0  0  0  0  0  0  0  0  0
   39.4370   30.5230   41.5300 C   0  0  0  0  0  0  0  0  0  0  0  0
   39.3930   29.7150   42.6170 N   0  0  0  0  0  0  0  0  0  0  0  0
   38.2580   29.2050   43.0790 C   0  0  0  0  0  0  0  0  0  0  0  0
   37.0730   29.4860   42.4580 N   0  0  0  0  0  0  0  0  0  0  0  0
   40.3310   30.9700   41.1050 H   0  0  0  0  0  0  0  0  0  0  0  0
   38.3000   28.5620   43.9600 H   0  0  0  0  0  0  0  0  0  0  0  0
   35.1350   29.3460   40.1120 C   0  0  0  0  0  0  0  0  0  0  0  0
   35.8640   28.5850   39.3900 O   0  0  0  0  0  0  0  0  0  0  0  0
   35.6500   30.2360   41.1550 N   0  0  0  0  0  0  0  0  0  0  0  0
   34.0630   29.3350   39.9470 H   0  0  0  0  0  0  0  0  0  0  0  0
   34.9490   30.8040   41.6740 H   0  0  0  0  0  0  0  0  0  0  0  0
   40.5420   31.5960   38.4410 O   0  0  0  0  0  0  0  0  0  0  0  0
   41.2980   31.5440   37.3330 C   0  0  0  0  0  3  0  0  0  0  0  0
   42.0660   30.2830   37.0910 C   0  0  0  0  0  3  0  0  0  0  0  0
   42.6520   30.0430   38.0130 H   0  0  0  0  0  0  0  0  0  0  0  0
   43.1300   30.5900   36.0470 C   0  0  0  0  0  3  0  0  0  0  0  0
   42.7260   31.1050   35.1700 H   0  0  0  0  0  0  0  0  0  0  0  0
   44.1490   31.3510   36.6180 O   0  0  0  0  0  0  0  0  0  0  0  0
   43.6350   32.2500   37.5480 C   0  0  0  0  0  3  0  0  0  0  0  0
   43.6240   31.8060   38.5670 H   0  0  0  0  0  0  0  0  0  0  0  0
   42.2350   32.7160   37.1310 C   0  0  0  0  0  3  0  0  0  0  0  0
   42.3330   32.9750   36.0500 H   0  0  0  0  0  0  0  0  0  0  0  0
  2  1  2  6  0  0  0
  2 19  1  0  0  0  0
  2  5  1  0  0  0  0
  3  4  1  0  0  0  0
  3  2  1  0  0  0  0
  5  7  1  0  0  0  0
  6 11  1  0  0  0  0
  7  6  2  0  0  0  0
  7  8  1  0  0  0  0
  8  9  2  0  0  0  0
  9 10  1  0  0  0  0
 10 13  1  0  0  0  0
 11 10  2  0  0  0  0
 12  8  1  0  0  0  0
 14 16  1  0  0  0  0
 15 14  2  0  0  0  0
 16  6  1  0  0  0  0
 16 18  1  0  0  0  0
 17 14  1  0  0  0  0
 20 19  1  0  0  0  0
 21 20  1  0  0  0  0
 21 22  1  0  0  0  0
 23 25  1  0  0  0  0
 23 21  1  0  0  0  0
 24 23  1  0  0  0  0
 25 26  1  0  0  0  0
 26 27  1  0  0  0  0
 28 20  1  0  0  0  0
 28 26  1  0  0  0  0
 29 28  1  0  0  0  0
M  END
>  <minimizedAffinity>
-4.57132673

$$$$

 OpenBabel03252507123D

 29 30  0  0  0  0  0  0  0  0999 V2000
   40.0000   28.8390   40.5740 O   0  0  0  0  0  0  0  0  0  0  0  0
   39.8200   29.0630   42.0400 P   0  0  1  0  0  0  0  0  0  0  0  0
   41.3600   29.3980   42.6580 O   0  0  0  0  0  0  0  0  0  0  0  0
   41.6000   30.3070   42.3490 H   0  0  0  0  0  0  0  0  0  0  0  0
   38.8170   30.4210   42.3160 O   0  0  0  0  0  0  0  0  0  0  0  0
   37.1090   31.2260   40.9220 C   0  0  0  0  0  0  0  0  0  0  0  0
   38.4410   31.2650   41.3050 C   0  0  0  0  0  0  0  0  0  0  0  0
   39.2940   32.1610   40.6320 C   0  0  0  0  0  0  0  0  0  0  0  0
   38.7610   32.9300   39.6510 N   0  0  0  0  0  0  0  0  0  0  0  0
   37.4800   32.8630   39.3120 C   0  0  0  0  0  0  0  0  0  0  0  0
   36.6400   31.9990   39.9580 N   0  0  0  0  0  0  0  0  0  0  0  0
   40.3310   32.1690   40.9550 H   0  0  0  0  0  0  0  0  0  0  0  0
   37.1220   33.5130   38.5120 H   0  0  0  0  0  0  0  0  0  0  0  0
   35.6640   29.2080   40.7110 C   0  0  0  0  0  0  0  0  0  0  0  0
   36.5000   28.5750   39.9810 O   0  0  0  0  0  0  0  0  0  0  0  0
   35.8840   30.5580   41.2370 N   0  0  0  0  0  0  0  0  0  0  0  0
   34.7290   28.7190   40.9620 H   0  0  0  0  0  0  0  0  0  0  0  0
   35.1240   30.9620   41.8220 H   0  0  0  0  0  0  0  0  0  0  0  0
   39.2390   27.7070   42.7980 O   0  0  0  0  0  0  0  0  0  0  0  0
   38.6660   26.7480   42.0540 C   0  0  0  0  0  3  0  0  0  0  0  0
   37.3280   26.2470   42.5000 C   0  0  0  0  0  3  0  0  0  0  0  0
   37.4000   25.9590   43.5770 H   0  0  0  0  0  0  0  0  0  0  0  0
   37.0710   24.9310   41.7810 C   0  0  0  0  0  3  0  0  0  0  0  0
   37.2450   24.9960   40.7030 H   0  0  0  0  0  0  0  0  0  0  0  0
   37.8650   23.9260   42.3320 O   0  0  0  0  0  0  0  0  0  0  0  0
   39.1120   24.4260   42.6990 C   0  0  0  0  0  3  0  0  0  0  0  0
   39.1070   24.7700   43.7560 H   0  0  0  0  0  0  0  0  0  0  0  0
   39.5430   25.5510   41.7500 C   0  0  0  0  0  3  0  0  0  0  0  0
   39.3430   25.1500   40.7280 H   0  0  0  0  0  0  0  0  0  0  0  0
  2  1  2  6  0  0  0
  2  5  1  0  0  0  0
  2  3  1  0  0  0  0
  2 19  1  0  0  0  0
  4  3  1  0  0  0  0
  6 16  1  0  0  0  0
  6  7  1  0  0  0  0
  7  5  1  0  0  0  0
  8 12  1  0  0  0  0
  8  7  2  0  0  0  0
  9  8  1  0  0  0  0
 10  9  2  0  0  0  0
 10 11  1  0  0  0  0
 11  6  2  0  0  0  0
 13 10  1  0  0  0  0
 14 17  1  0  0  0  0
 14 16  1  0  0  0  0
 15 14  2  0  0  0  0
 16 18  1  0  0  0  0
 20 21  1  0  0  0  0
 20 19  1  0  0  0  0
 21 22  1  0  0  0  0
 23 25  1  0  0  0  0
 23 21  1  0  0  0  0
 24 23  1  0  0  0  0
 25 26  1  0  0  0  0
 26 27  1  0  0  0  0
 28 20  1  0  0  0  0
 28 26  1  0  0  0  0
 29 28  1  0  0  0  0
M  END
>  <minimizedAffinity>
-4.55658245

$$$$
