
 OpenBabel03252508573D

 25 26  0  0  0  0  0  0  0  0999 V2000
   47.6890   35.3810   41.9640 C   0  0  0  0  0  0  0  0  0  0  0  0
   48.4990   35.1630   42.6910 H   0  0  0  0  0  0  0  0  0  0  0  0
   47.7320   36.4530   41.7090 H   0  0  0  0  0  0  0  0  0  0  0  0
   46.3640   35.1030   42.6180 C   0  0  0  0  0  3  0  0  0  0  0  0
   46.4520   34.1480   43.7550 C   0  0  0  0  0  3  0  0  0  0  0  0
   46.3600   34.6380   44.7550 H   0  0  0  0  0  0  0  0  0  0  0  0
   45.5380   32.9750   43.6640 C   0  0  0  0  0  3  0  0  0  0  0  0
   45.3020   32.6450   44.7160 H   0  0  0  0  0  0  0  0  0  0  0  0
   44.3500   33.1320   43.0350 O   0  0  0  0  0  0  0  0  0  0  0  0
   44.1760   34.1960   42.2080 C   0  0  0  0  0  3  0  0  0  0  0  0
   43.4740   33.8960   41.3750 H   0  0  0  0  0  0  0  0  0  0  0  0
   45.4680   34.5400   41.5150 C   0  0  0  0  0  3  0  0  0  0  0  0
   45.3740   35.2710   40.7040 H   0  0  0  0  0  0  0  0  0  0  0  0
   47.8970   34.5360   40.7110 C   0  0  0  0  0  0  0  0  0  0  0  0
   47.0110   33.9320   40.4970 H   0  0  0  0  0  0  0  0  0  0  0  0
   48.0670   35.2040   39.8450 H   0  0  0  0  0  0  0  0  0  0  0  0
   50.9530   32.9750   42.2950 C   0  0  0  0  0  0  0  0  0  0  0  0
   49.8810   33.8510   42.0540 C   0  0  0  0  0  0  0  0  0  0  0  0
   49.0290   33.6150   40.9720 C   0  0  0  0  0  0  0  0  0  0  0  0
   49.3010   32.5140   40.1950 N   0  0  0  0  0  0  0  0  0  0  0  0
   50.3300   31.7070   40.4590 C   0  0  0  0  0  0  0  0  0  0  0  0
   51.1570   31.9140   41.4890 N   0  0  0  0  0  0  0  0  0  0  0  0
   51.5520   33.2420   43.1510 H   0  0  0  0  0  0  0  0  0  0  0  0
   49.6970   34.7030   42.6800 H   0  0  0  0  0  0  0  0  0  0  0  0
   50.4320   30.8720   39.7660 H   0  0  0  0  0  0  0  0  0  0  0  0
  1  4  1  0  0  0  0
  1  2  1  0  0  0  0
  3  1  1  0  0  0  0
  4  5  1  0  0  0  0
  5  6  1  0  0  0  0
  7  5  1  0  0  0  0
  7  8  1  0  0  0  0
  9  7  1  0  0  0  0
 10  9  1  0  0  0  0
 11 10  1  0  0  0  0
 12 10  1  0  0  0  0
 12  4  1  0  0  0  0
 13 12  1  0  0  0  0
 14 19  1  0  0  0  0
 14  1  1  0  0  0  0
 15 14  1  0  0  0  0
 16 14  1  0  0  0  0
 17 23  1  0  0  0  0
 18 17  1  0  0  0  0
 18 24  1  0  0  0  0
 19 18  2  0  0  0  0
 20 21  2  0  0  0  0
 20 19  1  0  0  0  0
 21 22  1  0  0  0  0
 22 17  2  0  0  0  0
 25 21  1  0  0  0  0
M  END
>  <minimizedAffinity>
-3.82777214

>  <minimizedRMSD>
5.54419851

$$$$
