
 OpenBabel03252506463D

 43 46  0  0  1  0  0  0  0  0999 V2000
   49.3770   33.3890   41.3720 N   0  0  1  0  0  0  0  0  0  0  0  0
   50.6500   33.0920   42.0130 C   0  0  0  0  0  0  0  0  0  0  0  0
   51.2280   31.7720   41.5950 C   0  0  0  0  0  0  0  0  0  0  0  0
   50.3410   30.6690   42.1490 C   0  0  0  0  0  0  0  0  0  0  0  0
   48.8890   31.0770   42.0760 C   0  0  0  0  0  0  0  0  0  0  0  0
   48.7250   32.1660   41.0430 C   0  0  2  0  0  0  0  0  0  0  0  0
   50.5780   33.0820   43.1150 H   0  0  0  0  0  0  0  0  0  0  0  0
   51.3600   33.9030   41.7380 H   0  0  0  0  0  0  0  0  0  0  0  0
   52.2250   31.7040   42.0680 H   0  0  0  0  0  0  0  0  0  0  0  0
   51.3480   31.6840   40.4900 H   0  0  0  0  0  0  0  0  0  0  0  0
   50.6540   30.3540   43.1570 H   0  0  0  0  0  0  0  0  0  0  0  0
   50.4990   29.7970   41.4810 H   0  0  0  0  0  0  0  0  0  0  0  0
   48.2180   30.2510   41.8770 H   0  0  0  0  0  0  0  0  0  0  0  0
   48.6370   31.5260   43.0710 H   0  0  0  0  0  0  0  0  0  0  0  0
   47.6270   32.3950   41.0140 H   0  0  0  0  0  0  0  0  0  0  0  0
   47.2780   34.7400   41.9890 C   0  0  1  0  0  0  0  0  0  0  0  0
   48.4100   35.6330   41.7720 C   0  0  0  0  0  0  0  0  0  0  0  0
   48.6800   34.2540   42.2700 C   0  0  2  0  0  0  0  0  0  0  0  0
   46.8180   34.1790   41.1320 H   0  0  0  0  0  0  0  0  0  0  0  0
   48.6960   35.8870   40.7250 H   0  0  0  0  0  0  0  0  0  0  0  0
   48.5560   36.4890   42.4740 H   0  0  0  0  0  0  0  0  0  0  0  0
   48.9370   34.1590   43.3440 H   0  0  0  0  0  0  0  0  0  0  0  0
   45.5300   36.0920   43.1710 C   0  0  0  0  0  0  0  0  0  0  0  0
   46.3500   34.9400   43.1090 C   0  0  0  0  0  0  0  0  0  0  0  0
   46.2360   34.0180   44.1480 C   0  0  0  0  0  0  0  0  0  0  0  0
   45.3540   34.2750   45.1430 N   0  0  0  0  0  0  0  0  0  0  0  0
   44.5870   35.3710   45.1820 C   0  0  0  0  0  0  0  0  0  0  0  0
   44.6650   36.2980   44.1940 N   0  0  0  0  0  0  0  0  0  0  0  0
   45.5950   36.8390   42.3700 H   0  0  0  0  0  0  0  0  0  0  0  0
   46.8490   33.1150   44.1410 H   0  0  0  0  0  0  0  0  0  0  0  0
   43.8820   35.5830   45.9750 H   0  0  0  0  0  0  0  0  0  0  0  0
   49.0670   31.6750   39.7420 N   0  0  0  0  0  0  0  0  0  0  0  0
   50.0100   32.0250   39.4810 H   0  0  0  0  0  0  0  0  0  0  0  0
   48.0790   31.7330   38.7560 C   0  0  0  0  0  3  0  0  0  0  0  0
   48.7240   31.3490   37.4220 C   0  0  0  0  0  3  0  0  0  0  0  0
   47.9650   31.0170   36.7060 H   0  0  0  0  0  0  0  0  0  0  0  0
   49.4190   32.5630   36.8100 C   0  0  0  0  0  3  0  0  0  0  0  0
   49.7860   32.2520   35.8180 H   0  0  0  0  0  0  0  0  0  0  0  0
   48.5490   33.6370   36.6380 O   0  0  0  0  0  0  0  0  0  0  0  0
   48.2240   34.1000   37.9230 C   0  0  0  0  0  3  0  0  0  0  0  0
   49.1140   34.3290   38.5350 H   0  0  0  0  0  0  0  0  0  0  0  0
   47.3570   33.0140   38.5470 C   0  0  0  0  0  3  0  0  0  0  0  0
   46.5770   32.7980   37.7680 H   0  0  0  0  0  0  0  0  0  0  0  0
  1  2  1  1  0  0  0
  1 18  1  0  0  0  0
  2  7  1  0  0  0  0
  3  2  1  0  0  0  0
  3  9  1  0  0  0  0
  3  4  1  0  0  0  0
  4 11  1  0  0  0  0
  5  4  1  0  0  0  0
  5 14  1  0  0  0  0
  6 15  1  6  0  0  0
  6  1  1  0  0  0  0
  6  5  1  0  0  0  0
  8  2  1  0  0  0  0
 10  3  1  0  0  0  0
 12  4  1  0  0  0  0
 13  5  1  0  0  0  0
 16 19  1  6  0  0  0
 16 18  1  0  0  0  0
 16 24  1  0  0  0  0
 17 16  1  0  0  0  0
 17 18  1  0  0  0  0
 17 21  1  0  0  0  0
 18 22  1  1  0  0  0
 20 17  1  0  0  0  0
 23 28  1  0  0  0  0
 24 23  2  0  0  0  0
 24 25  1  0  0  0  0
 25 26  2  0  0  0  0
 26 27  1  0  0  0  0
 27 31  1  0  0  0  0
 28 27  2  0  0  0  0
 29 23  1  0  0  0  0
 30 25  1  0  0  0  0
 32  6  1  0  0  0  0
 33 32  1  0  0  0  0
 34 32  1  0  0  0  0
 35 34  1  0  0  0  0
 36 35  1  0  0  0  0
 37 35  1  0  0  0  0
 38 37  1  0  0  0  0
 39 37  1  0  0  0  0
 39 40  1  0  0  0  0
 40 41  1  0  0  0  0
 40 42  1  0  0  0  0
 42 34  1  0  0  0  0
 43 42  1  0  0  0  0
M  END
>  <minimizedAffinity>
-5.160532

>  <minimizedRMSD>
1.78389406

$$$$
