
 OpenBabel03242523203D

 38 41  0  0  0  0  0  0  0  0999 V2000
   44.5150   31.8610   42.8020 Cl  0  0  0  0  0  0  0  0  0  0  0  0
   44.5740   33.6180   42.7500 C   0  0  0  0  0  0  0  0  0  0  0  0
   45.4440   34.2200   43.6810 C   0  0  0  0  0  0  0  0  0  0  0  0
   45.4190   35.5980   43.5400 C   0  0  0  0  0  0  0  0  0  0  0  0
   44.7230   36.3650   42.6890 C   0  0  0  0  0  0  0  0  0  0  0  0
   43.9130   35.7040   41.8310 C   0  0  0  0  0  0  0  0  0  0  0  0
   43.8110   34.3350   41.8300 C   0  0  0  0  0  0  0  0  0  0  0  0
   46.0250   36.2290   44.2250 H   0  0  0  0  0  0  0  0  0  0  0  0
   44.7440   37.4390   42.6220 H   0  0  0  0  0  0  0  0  0  0  0  0
   43.2860   36.1970   41.0790 H   0  0  0  0  0  0  0  0  0  0  0  0
   42.9370   33.5500   40.9120 C   0  0  0  0  0  0  0  0  0  0  0  0
   41.4840   33.6230   41.2340 C   0  0  0  0  0  0  0  0  0  0  0  0
   41.2420   34.3030   42.0840 H   0  0  0  0  0  0  0  0  0  0  0  0
   40.6570   34.2150   40.0870 C   0  0  0  0  0  0  0  0  0  0  0  0
   40.5810   33.4990   39.2430 H   0  0  0  0  0  0  0  0  0  0  0  0
   41.3540   35.3400   39.6770 O   0  0  0  0  0  0  0  0  0  0  0  0
   42.3270   34.8420   38.8030 C   0  0  0  0  0  0  0  0  0  0  0  0
   41.7340   34.2740   38.0290 H   0  0  0  0  0  0  0  0  0  0  0  0
   43.2880   33.9720   39.4970 C   0  0  0  0  0  0  0  0  0  0  0  0
   44.2880   34.4720   39.4950 H   0  0  0  0  0  0  0  0  0  0  0  0
   46.2900   33.5230   44.6750 C   0  0  0  0  0  0  0  0  0  0  0  0
   45.7100   33.8790   45.6750 O   0  0  0  0  0  0  0  0  0  0  0  0
   47.3540   32.7900   43.9730 C   0  0  0  0  0  0  0  0  0  0  0  0
   48.2180   33.3070   43.0890 C   0  0  0  0  0  0  0  0  0  0  0  0
   49.0520   32.3800   42.4970 C   0  0  0  0  0  0  0  0  0  0  0  0
   48.9290   31.0280   42.8640 N   0  0  0  0  0  0  0  0  0  0  0  0
   48.0560   30.6030   43.7430 C   0  0  0  0  0  0  0  0  0  0  0  0
   47.2050   31.4990   44.3520 N   0  0  0  0  0  0  0  0  0  0  0  0
   49.8130   32.5920   41.7580 H   0  0  0  0  0  0  0  0  0  0  0  0
   48.0790   29.5320   43.9250 H   0  0  0  0  0  0  0  0  0  0  0  0
   48.4260   34.6840   42.8040 C   0  0  0  0  0  0  0  0  0  0  0  0
   49.4660   35.2730   42.1510 C   0  0  0  0  0  0  0  0  0  0  0  0
   48.2370   35.1370   41.2930 C   0  0  0  0  0  0  0  0  0  0  0  0
   47.9700   35.3640   43.5500 H   0  0  0  0  0  0  0  0  0  0  0  0
   50.3210   34.6480   41.7440 H   0  0  0  0  0  0  0  0  0  0  0  0
   49.8230   36.3250   42.2020 H   0  0  0  0  0  0  0  0  0  0  0  0
   47.5300   35.9730   41.2080 H   0  0  0  0  0  0  0  0  0  0  0  0
   48.1410   34.2810   40.6060 H   0  0  0  0  0  0  0  0  0  0  0  0
  2  1  1  0  0  0  0
  2  3  1  0  0  0  0
  3 21  1  0  0  0  0
  4  3  2  0  0  0  0
  4  8  1  0  0  0  0
  5  4  1  0  0  0  0
  6  5  2  0  0  0  0
  7  6  1  0  0  0  0
  7  2  2  0  0  0  0
  9  5  1  0  0  0  0
 10  6  1  0  0  0  0
 11 12  1  0  0  0  0
 11  7  1  0  0  0  0
 12 13  1  0  0  0  0
 14 12  1  0  0  0  0
 15 14  1  0  0  0  0
 16 14  1  0  0  0  0
 17 19  1  0  0  0  0
 17 16  1  0  0  0  0
 18 17  1  0  0  0  0
 19 11  1  0  0  0  0
 20 19  1  0  0  0  0
 21 22  2  0  0  0  0
 23 28  1  0  0  0  0
 23 21  1  0  0  0  0
 24 23  2  0  0  0  0
 25 26  2  0  0  0  0
 25 24  1  0  0  0  0
 26 27  1  0  0  0  0
 27 30  1  0  0  0  0
 27 28  2  0  0  0  0
 29 25  1  0  0  0  0
 31 24  1  0  0  0  0
 31 34  1  0  0  0  0
 32 36  1  0  0  0  0
 32 31  1  0  0  0  0
 33 32  1  0  0  0  0
 33 31  1  0  0  0  0
 35 32  1  0  0  0  0
 37 33  1  0  0  0  0
 38 33  1  0  0  0  0
M  END
>  <minimizedAffinity>
-5.85232306

>  <minimizedRMSD>
0.476230383

$$$$
