
 OpenBabel03242518413D

 40 43  0  0  1  0  0  0  0  0999 V2000
   38.6950   32.9170   40.9990 O   0  0  0  0  0  0  0  0  0  0  0  0
   39.5440   33.9040   40.4360 C   0  0  0  0  0  0  0  0  0  0  0  0
   39.6460   35.2840   40.6600 C   0  0  0  0  0  0  0  0  0  0  0  0
   40.6430   35.7870   39.8440 C   0  0  0  0  0  0  0  0  0  0  0  0
   41.1010   34.7030   39.1660 C   0  0  0  0  0  0  0  0  0  0  0  0
   40.4540   33.6090   39.5180 O   0  0  0  0  0  0  0  0  0  0  0  0
   38.9880   35.7750   41.3870 H   0  0  0  0  0  0  0  0  0  0  0  0
   40.9270   36.8320   39.8200 H   0  0  0  0  0  0  0  0  0  0  0  0
   42.1860   34.7290   38.1570 C   0  0  2  0  0  0  0  0  0  0  0  0
   42.6280   33.4930   37.5130 C   0  0  0  0  0  0  0  0  0  0  0  0
   43.4710   34.0010   38.6260 C   0  0  1  0  0  0  0  0  0  0  0  0
   42.3360   35.7070   37.6710 H   0  0  0  0  0  0  0  0  0  0  0  0
   42.9910   33.5050   36.4570 H   0  0  0  0  0  0  0  0  0  0  0  0
   42.0410   32.5630   37.7270 H   0  0  0  0  0  0  0  0  0  0  0  0
   43.4370   33.5160   39.5990 H   0  0  0  0  0  0  0  0  0  0  0  0
   45.8760   34.4960   38.9800 C   0  0  0  0  0  0  0  0  0  0  0  0
   45.9320   33.7900   40.0290 O   0  0  0  0  0  0  0  0  0  0  0  0
   44.6860   34.7180   38.2440 N   0  0  0  0  0  0  0  0  0  0  0  0
   46.7610   34.9960   38.5560 H   0  0  0  0  0  0  0  0  0  0  0  0
   44.6370   35.3720   37.4380 H   0  0  0  0  0  0  0  0  0  0  0  0
   37.5760   32.4890   40.2420 C   0  0  0  0  0  0  0  0  0  0  0  0
   37.1600   33.2790   39.3470 O   0  0  0  0  0  0  0  0  0  0  0  0
   37.0410   31.2140   40.5750 C   0  0  0  0  0  0  0  0  0  0  0  0
   36.0150   30.7800   39.7990 C   0  0  0  0  0  0  0  0  0  0  0  0
   35.4430   29.5400   40.0680 C   0  0  0  0  0  0  0  0  0  0  0  0
   35.9310   28.8180   41.0910 N   0  0  0  0  0  0  0  0  0  0  0  0
   36.9480   29.2680   41.8470 C   0  0  0  0  0  0  0  0  0  0  0  0
   37.4690   30.4580   41.5590 N   0  0  0  0  0  0  0  0  0  0  0  0
   35.5580   31.2950   38.9560 H   0  0  0  0  0  0  0  0  0  0  0  0
   34.6210   29.1440   39.4810 H   0  0  0  0  0  0  0  0  0  0  0  0
   37.5680   28.5610   42.9990 C   0  0  0  0  0  3  0  0  0  0  0  0
   36.9850   27.1890   43.2010 C   0  0  0  0  0  3  0  0  0  0  0  0
   35.9480   27.1840   42.8250 H   0  0  0  0  0  0  0  0  0  0  0  0
   37.7850   26.1290   42.5000 C   0  0  0  0  0  3  0  0  0  0  0  0
   37.2590   25.1610   42.5860 H   0  0  0  0  0  0  0  0  0  0  0  0
   39.0460   26.0240   43.0750 O   0  0  0  0  0  0  0  0  0  0  0  0
   39.5220   27.2130   43.5910 C   0  0  0  0  0  3  0  0  0  0  0  0
   40.6340   27.1610   43.6260 H   0  0  0  0  0  0  0  0  0  0  0  0
   39.0490   28.4110   42.7870 C   0  0  0  0  0  3  0  0  0  0  0  0
   39.2760   28.2520   41.7050 H   0  0  0  0  0  0  0  0  0  0  0  0
  2  3  2  0  0  0  0
  2  1  1  0  0  0  0
  3  7  1  0  0  0  0
  4  3  1  0  0  0  0
  5  6  1  0  0  0  0
  5  4  2  0  0  0  0
  6  2  1  0  0  0  0
  8  4  1  0  0  0  0
  9 12  1  6  0  0  0
  9 11  1  0  0  0  0
  9  5  1  0  0  0  0
 10 14  1  0  0  0  0
 10  9  1  0  0  0  0
 10 11  1  0  0  0  0
 11 15  1  1  0  0  0
 13 10  1  0  0  0  0
 16 17  2  0  0  0  0
 18 11  1  0  0  0  0
 18 16  1  0  0  0  0
 19 16  1  0  0  0  0
 20 18  1  0  0  0  0
 21 23  1  0  0  0  0
 21  1  1  0  0  0  0
 22 21  2  0  0  0  0
 23 28  1  0  0  0  0
 24 25  1  0  0  0  0
 24 23  2  0  0  0  0
 25 26  2  0  0  0  0
 26 27  1  0  0  0  0
 27 31  1  0  0  0  0
 28 27  2  0  0  0  0
 29 24  1  0  0  0  0
 30 25  1  0  0  0  0
 31 32  1  0  0  0  0
 33 32  1  0  0  0  0
 34 35  1  0  0  0  0
 34 36  1  0  0  0  0
 34 32  1  0  0  0  0
 36 37  1  0  0  0  0
 37 38  1  0  0  0  0
 39 31  1  0  0  0  0
 39 37  1  0  0  0  0
 40 39  1  0  0  0  0
M  END
>  <minimizedAffinity>
-6.71571398

$$$$

 OpenBabel03242518413D

 40 43  0  0  1  0  0  0  0  0999 V2000
   38.1610   29.1350   43.1800 O   0  0  0  0  0  0  0  0  0  0  0  0
   37.4190   29.6190   42.0710 C   0  0  0  0  0  0  0  0  0  0  0  0
   36.3610   29.0610   41.3420 C   0  0  0  0  0  0  0  0  0  0  0  0
   35.9960   29.9510   40.3480 C   0  0  0  0  0  0  0  0  0  0  0  0
   36.8400   31.0030   40.5140 C   0  0  0  0  0  0  0  0  0  0  0  0
   37.6670   30.8000   41.5210 O   0  0  0  0  0  0  0  0  0  0  0  0
   35.9680   28.0710   41.6080 H   0  0  0  0  0  0  0  0  0  0  0  0
   35.1990   29.7650   39.6400 H   0  0  0  0  0  0  0  0  0  0  0  0
   36.8450   32.2270   39.6780 C   0  0  2  0  0  0  0  0  0  0  0  0
   37.7640   32.3470   38.5470 C   0  0  0  0  0  0  0  0  0  0  0  0
   38.1580   33.0410   39.8000 C   0  0  1  0  0  0  0  0  0  0  0  0
   35.9110   32.8100   39.7140 H   0  0  0  0  0  0  0  0  0  0  0  0
   37.4660   32.9180   37.6350 H   0  0  0  0  0  0  0  0  0  0  0  0
   38.3680   31.4420   38.2770 H   0  0  0  0  0  0  0  0  0  0  0  0
   38.9410   32.6240   40.4300 H   0  0  0  0  0  0  0  0  0  0  0  0
   38.9740   35.3460   40.2220 C   0  0  0  0  0  0  0  0  0  0  0  0
   40.1000   34.9400   40.6300 O   0  0  0  0  0  0  0  0  0  0  0  0
   37.9150   34.4810   39.8470 N   0  0  0  0  0  0  0  0  0  0  0  0
   38.7290   36.4150   40.1270 H   0  0  0  0  0  0  0  0  0  0  0  0
   36.9670   34.8270   39.6010 H   0  0  0  0  0  0  0  0  0  0  0  0
   37.7160   27.9460   43.8110 C   0  0  0  0  0  0  0  0  0  0  0  0
   36.8180   28.0720   44.6910 O   0  0  0  0  0  0  0  0  0  0  0  0
   38.3350   26.7390   43.3840 C   0  0  0  0  0  0  0  0  0  0  0  0
   39.6170   26.5520   43.7930 C   0  0  0  0  0  0  0  0  0  0  0  0
   40.2840   25.3920   43.4110 C   0  0  0  0  0  0  0  0  0  0  0  0
   39.6300   24.4980   42.6500 N   0  0  0  0  0  0  0  0  0  0  0  0
   38.3610   24.7030   42.2570 C   0  0  0  0  0  0  0  0  0  0  0  0
   37.7560   25.8240   42.6420 N   0  0  0  0  0  0  0  0  0  0  0  0
   40.2200   27.2180   44.4060 H   0  0  0  0  0  0  0  0  0  0  0  0
   41.3080   25.1910   43.7090 H   0  0  0  0  0  0  0  0  0  0  0  0
   37.5410   23.7900   41.4190 C   0  0  0  0  0  3  0  0  0  0  0  0
   36.5830   24.5410   40.5350 C   0  0  0  0  0  3  0  0  0  0  0  0
   36.3280   25.4990   41.0190 H   0  0  0  0  0  0  0  0  0  0  0  0
   37.1580   24.7960   39.1710 C   0  0  0  0  0  3  0  0  0  0  0  0
   36.4660   25.4410   38.6010 H   0  0  0  0  0  0  0  0  0  0  0  0
   37.3360   23.5940   38.4960 O   0  0  0  0  0  0  0  0  0  0  0  0
   37.6170   22.5270   39.3250 C   0  0  0  0  0  3  0  0  0  0  0  0
   38.1540   21.7520   38.7310 H   0  0  0  0  0  0  0  0  0  0  0  0
   38.4240   22.9490   40.5400 C   0  0  0  0  0  3  0  0  0  0  0  0
   39.3210   23.5310   40.2140 H   0  0  0  0  0  0  0  0  0  0  0  0
  1 21  1  0  0  0  0
  2  1  1  0  0  0  0
  3  7  1  0  0  0  0
  3  2  2  0  0  0  0
  4  5  2  0  0  0  0
  4  3  1  0  0  0  0
  5  6  1  0  0  0  0
  6  2  1  0  0  0  0
  8  4  1  0  0  0  0
  9 12  1  6  0  0  0
  9 11  1  0  0  0  0
  9  5  1  0  0  0  0
 10  9  1  0  0  0  0
 10 11  1  0  0  0  0
 11 18  1  0  0  0  0
 11 15  1  1  0  0  0
 13 10  1  0  0  0  0
 14 10  1  0  0  0  0
 16 17  2  0  0  0  0
 18 16  1  0  0  0  0
 19 16  1  0  0  0  0
 20 18  1  0  0  0  0
 21 22  2  0  0  0  0
 23 24  1  0  0  0  0
 23 21  1  0  0  0  0
 24 29  1  0  0  0  0
 25 30  1  0  0  0  0
 25 24  2  0  0  0  0
 26 25  1  0  0  0  0
 27 28  1  0  0  0  0
 27 26  2  0  0  0  0
 28 23  2  0  0  0  0
 31 27  1  0  0  0  0
 32 33  1  0  0  0  0
 32 31  1  0  0  0  0
 34 32  1  0  0  0  0
 35 34  1  0  0  0  0
 36 34  1  0  0  0  0
 36 37  1  0  0  0  0
 37 39  1  0  0  0  0
 38 37  1  0  0  0  0
 39 31  1  0  0  0  0
 40 39  1  0  0  0  0
M  END
>  <minimizedAffinity>
-6.48634529

$$$$

 OpenBabel03242518413D

 40 43  0  0  1  0  0  0  0  0999 V2000
   37.6780   33.4210   40.7010 O   0  0  0  0  0  0  0  0  0  0  0  0
   38.8420   34.1940   40.4530 C   0  0  0  0  0  0  0  0  0  0  0  0
   39.0090   35.5250   40.0490 C   0  0  0  0  0  0  0  0  0  0  0  0
   40.3630   35.7870   39.9500 C   0  0  0  0  0  0  0  0  0  0  0  0
   40.9570   34.6150   40.2940 C   0  0  0  0  0  0  0  0  0  0  0  0
   40.0620   33.6910   40.5860 O   0  0  0  0  0  0  0  0  0  0  0  0
   38.1330   36.1610   39.8690 H   0  0  0  0  0  0  0  0  0  0  0  0
   40.7680   36.7470   39.6550 H   0  0  0  0  0  0  0  0  0  0  0  0
   42.4210   34.3860   40.3400 C   0  0  2  0  0  0  0  0  0  0  0  0
   42.9790   33.3330   41.1870 C   0  0  0  0  0  0  0  0  0  0  0  0
   43.0450   34.7180   41.7190 C   0  0  1  0  0  0  0  0  0  0  0  0
   42.9710   34.7570   39.4610 H   0  0  0  0  0  0  0  0  0  0  0  0
   43.9010   32.7860   40.8740 H   0  0  0  0  0  0  0  0  0  0  0  0
   42.2560   32.6450   41.6970 H   0  0  0  0  0  0  0  0  0  0  0  0
   42.3640   35.0310   42.5080 H   0  0  0  0  0  0  0  0  0  0  0  0
   44.9430   35.9330   42.7590 C   0  0  0  0  0  0  0  0  0  0  0  0
   44.3880   35.9550   43.8950 O   0  0  0  0  0  0  0  0  0  0  0  0
   44.3330   35.3990   41.5960 N   0  0  0  0  0  0  0  0  0  0  0  0
   45.9540   36.3320   42.5860 H   0  0  0  0  0  0  0  0  0  0  0  0
   44.7620   35.4700   40.6530 H   0  0  0  0  0  0  0  0  0  0  0  0
   37.4110   32.3240   39.8450 C   0  0  0  0  0  0  0  0  0  0  0  0
   37.4680   32.5460   38.6020 O   0  0  0  0  0  0  0  0  0  0  0  0
   37.1060   31.0890   40.4820 C   0  0  0  0  0  0  0  0  0  0  0  0
   35.9790   30.4640   40.0530 C   0  0  0  0  0  0  0  0  0  0  0  0
   35.6190   29.2510   40.6330 C   0  0  0  0  0  0  0  0  0  0  0  0
   36.4050   28.7440   41.5980 N   0  0  0  0  0  0  0  0  0  0  0  0
   37.5160   29.3810   42.0070 C   0  0  0  0  0  0  0  0  0  0  0  0
   37.8280   30.5390   41.4290 N   0  0  0  0  0  0  0  0  0  0  0  0
   35.2880   30.7990   39.2830 H   0  0  0  0  0  0  0  0  0  0  0  0
   34.7300   28.7070   40.3300 H   0  0  0  0  0  0  0  0  0  0  0  0
   38.4570   28.9190   43.0620 C   0  0  0  0  0  3  0  0  0  0  0  0
   38.0450   27.5970   43.6480 C   0  0  0  0  0  3  0  0  0  0  0  0
   36.9500   27.4960   43.5650 H   0  0  0  0  0  0  0  0  0  0  0  0
   38.7170   26.4430   42.9590 C   0  0  0  0  0  3  0  0  0  0  0  0
   38.3010   25.4970   43.3500 H   0  0  0  0  0  0  0  0  0  0  0  0
   40.0860   26.4800   43.1930 O   0  0  0  0  0  0  0  0  0  0  0  0
   40.5900   27.7560   43.3490 C   0  0  0  0  0  3  0  0  0  0  0  0
   41.6750   27.7380   43.0980 H   0  0  0  0  0  0  0  0  0  0  0  0
   39.8430   28.7690   42.4990 C   0  0  0  0  0  3  0  0  0  0  0  0
   39.7990   28.4140   41.4400 H   0  0  0  0  0  0  0  0  0  0  0  0
  2  6  1  0  0  0  0
  2  1  1  0  0  0  0
  3  2  2  0  0  0  0
  4  3  1  0  0  0  0
  4  5  2  0  0  0  0
  5  9  1  0  0  0  0
  5  6  1  0  0  0  0
  7  3  1  0  0  0  0
  8  4  1  0  0  0  0
  9 12  1  6  0  0  0
  9 10  1  0  0  0  0
  9 11  1  0  0  0  0
 10 14  1  0  0  0  0
 10 11  1  0  0  0  0
 11 15  1  1  0  0  0
 13 10  1  0  0  0  0
 16 17  2  0  0  0  0
 18 11  1  0  0  0  0
 18 16  1  0  0  0  0
 19 16  1  0  0  0  0
 20 18  1  0  0  0  0
 21 23  1  0  0  0  0
 21  1  1  0  0  0  0
 22 21  2  0  0  0  0
 23 28  1  0  0  0  0
 24 23  2  0  0  0  0
 24 25  1  0  0  0  0
 25 26  2  0  0  0  0
 26 27  1  0  0  0  0
 27 31  1  0  0  0  0
 28 27  2  0  0  0  0
 29 24  1  0  0  0  0
 30 25  1  0  0  0  0
 31 32  1  0  0  0  0
 33 32  1  0  0  0  0
 34 36  1  0  0  0  0
 34 35  1  0  0  0  0
 34 32  1  0  0  0  0
 36 37  1  0  0  0  0
 38 37  1  0  0  0  0
 39 31  1  0  0  0  0
 39 37  1  0  0  0  0
 40 39  1  0  0  0  0
M  END
>  <minimizedAffinity>
-6.4654212

$$$$

 OpenBabel03242518413D

 40 43  0  0  1  0  0  0  0  0999 V2000
   37.1130   32.0970   40.6660 O   0  0  0  0  0  0  0  0  0  0  0  0
   36.6440   30.7730   40.8620 C   0  0  0  0  0  0  0  0  0  0  0  0
   35.5950   30.0570   40.2690 C   0  0  0  0  0  0  0  0  0  0  0  0
   35.5610   28.7900   40.8230 C   0  0  0  0  0  0  0  0  0  0  0  0
   36.5800   28.7880   41.7210 C   0  0  0  0  0  0  0  0  0  0  0  0
   37.2070   29.9490   41.7370 O   0  0  0  0  0  0  0  0  0  0  0  0
   34.9690   30.5290   39.5010 H   0  0  0  0  0  0  0  0  0  0  0  0
   34.8420   28.0310   40.5390 H   0  0  0  0  0  0  0  0  0  0  0  0
   36.9530   27.6400   42.5800 C   0  0  2  0  0  0  0  0  0  0  0  0
   36.6770   27.6690   44.0150 C   0  0  0  0  0  0  0  0  0  0  0  0
   38.0680   27.9810   43.6010 C   0  0  1  0  0  0  0  0  0  0  0  0
   37.0670   26.6840   42.0440 H   0  0  0  0  0  0  0  0  0  0  0  0
   36.4300   26.7270   44.5620 H   0  0  0  0  0  0  0  0  0  0  0  0
   36.0760   28.5310   44.4060 H   0  0  0  0  0  0  0  0  0  0  0  0
   38.4240   29.0090   43.6190 H   0  0  0  0  0  0  0  0  0  0  0  0
   40.4190   27.1880   43.5540 C   0  0  0  0  0  0  0  0  0  0  0  0
   40.8560   28.3090   43.1640 O   0  0  0  0  0  0  0  0  0  0  0  0
   39.0430   26.9010   43.7390 N   0  0  0  0  0  0  0  0  0  0  0  0
   41.0840   26.3410   43.7800 H   0  0  0  0  0  0  0  0  0  0  0  0
   38.6940   25.9510   43.9700 H   0  0  0  0  0  0  0  0  0  0  0  0
   38.1660   32.3020   39.7400 C   0  0  0  0  0  0  0  0  0  0  0  0
   38.1540   31.5850   38.6990 O   0  0  0  0  0  0  0  0  0  0  0  0
   39.1240   33.2940   40.0870 C   0  0  0  0  0  0  0  0  0  0  0  0
   38.6630   34.5710   40.1400 C   0  0  0  0  0  0  0  0  0  0  0  0
   39.5460   35.5930   40.4730 C   0  0  0  0  0  0  0  0  0  0  0  0
   40.8260   35.2750   40.7310 N   0  0  0  0  0  0  0  0  0  0  0  0
   41.2610   34.0040   40.6730 C   0  0  0  0  0  0  0  0  0  0  0  0
   40.3870   33.0540   40.3510 N   0  0  0  0  0  0  0  0  0  0  0  0
   37.6500   34.9170   39.9470 H   0  0  0  0  0  0  0  0  0  0  0  0
   39.2330   36.6300   40.5300 H   0  0  0  0  0  0  0  0  0  0  0  0
   42.6470   33.5350   40.9370 C   0  0  0  0  0  3  0  0  0  0  0  0
   43.2880   32.9470   39.7090 C   0  0  0  0  0  3  0  0  0  0  0  0
   42.4980   32.5350   39.0580 H   0  0  0  0  0  0  0  0  0  0  0  0
   44.0920   33.9650   38.9520 C   0  0  0  0  0  3  0  0  0  0  0  0
   44.4490   33.5150   38.0090 H   0  0  0  0  0  0  0  0  0  0  0  0
   45.1810   34.3740   39.7130 O   0  0  0  0  0  0  0  0  0  0  0  0
   44.9500   34.3490   41.0740 C   0  0  0  0  0  3  0  0  0  0  0  0
   45.6510   35.0630   41.5630 H   0  0  0  0  0  0  0  0  0  0  0  0
   43.5050   34.6750   41.4100 C   0  0  0  0  0  3  0  0  0  0  0  0
   43.2060   35.6260   40.9070 H   0  0  0  0  0  0  0  0  0  0  0  0
  1  2  1  0  0  0  0
  2  6  1  0  0  0  0
  3  4  1  0  0  0  0
  3  2  2  0  0  0  0
  4  5  2  0  0  0  0
  5  6  1  0  0  0  0
  5  9  1  0  0  0  0
  7  3  1  0  0  0  0
  8  4  1  0  0  0  0
  9 12  1  6  0  0  0
  9 11  1  0  0  0  0
  9 10  1  0  0  0  0
 10 14  1  0  0  0  0
 10 13  1  0  0  0  0
 11 15  1  1  0  0  0
 11 18  1  0  0  0  0
 11 10  1  0  0  0  0
 16 18  1  0  0  0  0
 16 19  1  0  0  0  0
 17 16  2  0  0  0  0
 18 20  1  0  0  0  0
 21 23  1  0  0  0  0
 21  1  1  0  0  0  0
 22 21  2  0  0  0  0
 23 24  2  0  0  0  0
 23 28  1  0  0  0  0
 24 25  1  0  0  0  0
 25 30  1  0  0  0  0
 25 26  2  0  0  0  0
 27 26  1  0  0  0  0
 27 31  1  0  0  0  0
 28 27  2  0  0  0  0
 29 24  1  0  0  0  0
 31 39  1  0  0  0  0
 32 31  1  0  0  0  0
 33 32  1  0  0  0  0
 34 32  1  0  0  0  0
 34 36  1  0  0  0  0
 35 34  1  0  0  0  0
 36 37  1  0  0  0  0
 37 39  1  0  0  0  0
 37 38  1  0  0  0  0
 40 39  1  0  0  0  0
M  END
>  <minimizedAffinity>
-6.27767563

$$$$

 OpenBabel03242518413D

 40 43  0  0  1  0  0  0  0  0999 V2000
   38.1560   30.4640   40.4480 O   0  0  0  0  0  0  0  0  0  0  0  0
   38.0530   31.8600   40.2180 C   0  0  0  0  0  0  0  0  0  0  0  0
   37.2000   32.6100   39.3970 C   0  0  0  0  0  0  0  0  0  0  0  0
   37.5210   33.9480   39.5390 C   0  0  0  0  0  0  0  0  0  0  0  0
   38.5440   33.9550   40.4320 C   0  0  0  0  0  0  0  0  0  0  0  0
   38.8490   32.7330   40.8220 O   0  0  0  0  0  0  0  0  0  0  0  0
   36.4410   32.1080   38.7850 H   0  0  0  0  0  0  0  0  0  0  0  0
   37.0110   34.7450   39.0130 H   0  0  0  0  0  0  0  0  0  0  0  0
   39.2420   35.1710   40.9140 C   0  0  2  0  0  0  0  0  0  0  0  0
   39.6310   36.2230   39.9760 C   0  0  0  0  0  0  0  0  0  0  0  0
   40.6990   35.2810   40.3980 C   0  0  1  0  0  0  0  0  0  0  0  0
   39.0910   35.3920   41.9830 H   0  0  0  0  0  0  0  0  0  0  0  0
   39.6380   37.2920   40.2980 H   0  0  0  0  0  0  0  0  0  0  0  0
   39.2790   36.1230   38.9160 H   0  0  0  0  0  0  0  0  0  0  0  0
   41.0420   34.5060   39.7160 H   0  0  0  0  0  0  0  0  0  0  0  0
   42.7990   35.0260   41.6960 C   0  0  0  0  0  0  0  0  0  0  0  0
   43.0610   33.9050   41.1710 O   0  0  0  0  0  0  0  0  0  0  0  0
   41.6170   35.7620   41.4280 N   0  0  0  0  0  0  0  0  0  0  0  0
   43.4770   35.5180   42.4090 H   0  0  0  0  0  0  0  0  0  0  0  0
   41.3730   36.6350   41.9340 H   0  0  0  0  0  0  0  0  0  0  0  0
   37.2670   29.8750   41.3820 C   0  0  0  0  0  0  0  0  0  0  0  0
   36.1870   30.4920   41.6060 O   0  0  0  0  0  0  0  0  0  0  0  0
   37.6930   28.6510   41.9680 C   0  0  0  0  0  0  0  0  0  0  0  0
   36.8250   27.6110   41.8630 C   0  0  0  0  0  0  0  0  0  0  0  0
   37.1760   26.3820   42.4150 C   0  0  0  0  0  0  0  0  0  0  0  0
   38.3650   26.2730   43.0320 N   0  0  0  0  0  0  0  0  0  0  0  0
   39.2080   27.3160   43.1240 C   0  0  0  0  0  0  0  0  0  0  0  0
   38.8380   28.4750   42.5840 N   0  0  0  0  0  0  0  0  0  0  0  0
   35.8480   27.6090   41.3850 H   0  0  0  0  0  0  0  0  0  0  0  0
   36.5230   25.5180   42.3610 H   0  0  0  0  0  0  0  0  0  0  0  0
   40.5430   27.3140   43.7790 C   0  0  0  0  0  3  0  0  0  0  0  0
   41.1480   25.9380   43.8250 C   0  0  0  0  0  3  0  0  0  0  0  0
   40.3360   25.1920   43.8400 H   0  0  0  0  0  0  0  0  0  0  0  0
   42.0520   25.6830   42.6530 C   0  0  0  0  0  3  0  0  0  0  0  0
   42.3830   24.6290   42.6730 H   0  0  0  0  0  0  0  0  0  0  0  0
   43.1610   26.5190   42.7140 O   0  0  0  0  0  0  0  0  0  0  0  0
   42.9060   27.7370   43.3120 C   0  0  0  0  0  3  0  0  0  0  0  0
   43.6600   28.4720   42.9470 H   0  0  0  0  0  0  0  0  0  0  0  0
   41.4910   28.2170   43.0410 C   0  0  0  0  0  3  0  0  0  0  0  0
   41.2860   28.1870   41.9430 H   0  0  0  0  0  0  0  0  0  0  0  0
  1 21  1  0  0  0  0
  2  1  1  0  0  0  0
  2  6  1  0  0  0  0
  3  4  1  0  0  0  0
  3  2  2  0  0  0  0
  4  5  2  0  0  0  0
  5  6  1  0  0  0  0
  5  9  1  0  0  0  0
  7  3  1  0  0  0  0
  8  4  1  0  0  0  0
  9 12  1  1  0  0  0
 10 13  1  0  0  0  0
 10 11  1  0  0  0  0
 10  9  1  0  0  0  0
 11 15  1  6  0  0  0
 11  9  1  0  0  0  0
 11 18  1  0  0  0  0
 14 10  1  0  0  0  0
 16 19  1  0  0  0  0
 17 16  2  0  0  0  0
 18 16  1  0  0  0  0
 18 20  1  0  0  0  0
 21 22  2  0  0  0  0
 21 23  1  0  0  0  0
 23 28  1  0  0  0  0
 24 23  2  0  0  0  0
 24 25  1  0  0  0  0
 25 26  2  0  0  0  0
 26 27  1  0  0  0  0
 27 31  1  0  0  0  0
 28 27  2  0  0  0  0
 29 24  1  0  0  0  0
 30 25  1  0  0  0  0
 31 32  1  0  0  0  0
 32 33  1  0  0  0  0
 34 35  1  0  0  0  0
 34 36  1  0  0  0  0
 34 32  1  0  0  0  0
 36 37  1  0  0  0  0
 38 37  1  0  0  0  0
 39 37  1  0  0  0  0
 39 31  1  0  0  0  0
 40 39  1  0  0  0  0
M  END
>  <minimizedAffinity>
-6.21205425

$$$$

 OpenBabel03242518413D

 40 43  0  0  1  0  0  0  0  0999 V2000
   38.7840   30.0840   39.4960 O   0  0  0  0  0  0  0  0  0  0  0  0
   38.3670   31.4340   39.6170 C   0  0  0  0  0  0  0  0  0  0  0  0
   37.2260   32.1040   39.1530 C   0  0  0  0  0  0  0  0  0  0  0  0
   37.3060   33.4280   39.5430 C   0  0  0  0  0  0  0  0  0  0  0  0
   38.4810   33.5080   40.2200 C   0  0  0  0  0  0  0  0  0  0  0  0
   39.0930   32.3410   40.2580 O   0  0  0  0  0  0  0  0  0  0  0  0
   36.4610   31.5610   38.5840 H   0  0  0  0  0  0  0  0  0  0  0  0
   36.5490   34.1670   39.3130 H   0  0  0  0  0  0  0  0  0  0  0  0
   39.0210   34.7410   40.8410 C   0  0  2  0  0  0  0  0  0  0  0  0
   39.2430   35.9400   40.0350 C   0  0  0  0  0  0  0  0  0  0  0  0
   40.4370   35.1090   40.3310 C   0  0  1  0  0  0  0  0  0  0  0  0
   38.8680   34.8110   41.9300 H   0  0  0  0  0  0  0  0  0  0  0  0
   39.1140   36.9540   40.4830 H   0  0  0  0  0  0  0  0  0  0  0  0
   38.8820   35.9210   38.9730 H   0  0  0  0  0  0  0  0  0  0  0  0
   40.8640   34.4750   39.5580 H   0  0  0  0  0  0  0  0  0  0  0  0
   42.6490   35.1320   41.4550 C   0  0  0  0  0  0  0  0  0  0  0  0
   43.1200   34.2470   40.6840 O   0  0  0  0  0  0  0  0  0  0  0  0
   41.3070   35.5850   41.4050 N   0  0  0  0  0  0  0  0  0  0  0  0
   43.2550   35.6220   42.2320 H   0  0  0  0  0  0  0  0  0  0  0  0
   40.9100   36.2440   42.1020 H   0  0  0  0  0  0  0  0  0  0  0  0
   39.6080   29.5470   40.5170 C   0  0  0  0  0  0  0  0  0  0  0  0
   40.8440   29.8000   40.4420 O   0  0  0  0  0  0  0  0  0  0  0  0
   38.9490   28.7770   41.5160 C   0  0  0  0  0  0  0  0  0  0  0  0
   38.3480   29.4840   42.5080 C   0  0  0  0  0  0  0  0  0  0  0  0
   37.6850   28.7960   43.5190 C   0  0  0  0  0  0  0  0  0  0  0  0
   37.6650   27.4530   43.4740 N   0  0  0  0  0  0  0  0  0  0  0  0
   38.2680   26.7730   42.4820 C   0  0  0  0  0  0  0  0  0  0  0  0
   38.8920   27.4670   41.5320 N   0  0  0  0  0  0  0  0  0  0  0  0
   38.3140   30.5650   42.6240 H   0  0  0  0  0  0  0  0  0  0  0  0
   37.1870   29.3080   44.3360 H   0  0  0  0  0  0  0  0  0  0  0  0
   38.3130   25.2960   42.3280 C   0  0  0  0  0  3  0  0  0  0  0  0
   36.9460   24.7090   42.1000 C   0  0  0  0  0  3  0  0  0  0  0  0
   36.1950   25.3620   42.5740 H   0  0  0  0  0  0  0  0  0  0  0  0
   36.6380   24.5550   40.6380 C   0  0  0  0  0  3  0  0  0  0  0  0
   35.5890   24.2260   40.5220 H   0  0  0  0  0  0  0  0  0  0  0  0
   37.4860   23.6130   40.0680 O   0  0  0  0  0  0  0  0  0  0  0  0
   38.7310   23.5560   40.6600 C   0  0  0  0  0  3  0  0  0  0  0  0
   39.4530   23.1360   39.9220 H   0  0  0  0  0  0  0  0  0  0  0  0
   39.1840   24.9160   41.1640 C   0  0  0  0  0  3  0  0  0  0  0  0
   39.0940   25.6700   40.3440 H   0  0  0  0  0  0  0  0  0  0  0  0
  1  2  1  0  0  0  0
  1 21  1  0  0  0  0
  2  6  1  0  0  0  0
  3  4  1  0  0  0  0
  3  2  2  0  0  0  0
  4  5  2  0  0  0  0
  5  6  1  0  0  0  0
  5  9  1  0  0  0  0
  7  3  1  0  0  0  0
  8  4  1  0  0  0  0
  9 12  1  1  0  0  0
 10 11  1  0  0  0  0
 10 13  1  0  0  0  0
 10  9  1  0  0  0  0
 11 15  1  6  0  0  0
 11  9  1  0  0  0  0
 11 18  1  0  0  0  0
 14 10  1  0  0  0  0
 16 19  1  0  0  0  0
 17 16  2  0  0  0  0
 18 16  1  0  0  0  0
 18 20  1  0  0  0  0
 21 23  1  0  0  0  0
 22 21  2  0  0  0  0
 23 28  2  0  0  0  0
 23 24  1  0  0  0  0
 24 29  1  0  0  0  0
 24 25  2  0  0  0  0
 25 30  1  0  0  0  0
 26 25  1  0  0  0  0
 27 26  2  0  0  0  0
 28 27  1  0  0  0  0
 31 27  1  0  0  0  0
 32 31  1  0  0  0  0
 32 33  1  0  0  0  0
 34 32  1  0  0  0  0
 35 34  1  0  0  0  0
 36 34  1  0  0  0  0
 36 37  1  0  0  0  0
 37 39  1  0  0  0  0
 38 37  1  0  0  0  0
 39 31  1  0  0  0  0
 40 39  1  0  0  0  0
M  END
>  <minimizedAffinity>
-6.20609713

$$$$

 OpenBabel03242518413D

 40 43  0  0  1  0  0  0  0  0999 V2000
   36.1320   27.9890   42.2130 O   0  0  0  0  0  0  0  0  0  0  0  0
   36.4050   28.9470   41.2030 C   0  0  0  0  0  0  0  0  0  0  0  0
   36.6480   28.8120   39.8290 C   0  0  0  0  0  0  0  0  0  0  0  0
   36.8620   30.0690   39.2960 C   0  0  0  0  0  0  0  0  0  0  0  0
   36.7420   30.9090   40.3570 C   0  0  0  0  0  0  0  0  0  0  0  0
   36.4750   30.2460   41.4650 O   0  0  0  0  0  0  0  0  0  0  0  0
   36.6440   27.8180   39.3640 H   0  0  0  0  0  0  0  0  0  0  0  0
   37.0720   30.2480   38.2490 H   0  0  0  0  0  0  0  0  0  0  0  0
   36.8890   32.3820   40.2950 C   0  0  2  0  0  0  0  0  0  0  0  0
   37.4920   33.0180   39.1240 C   0  0  0  0  0  0  0  0  0  0  0  0
   38.3680   32.8470   40.3110 C   0  0  1  0  0  0  0  0  0  0  0  0
   36.2020   32.9400   40.9510 H   0  0  0  0  0  0  0  0  0  0  0  0
   37.1520   34.0280   38.7920 H   0  0  0  0  0  0  0  0  0  0  0  0
   37.7230   32.3610   38.2450 H   0  0  0  0  0  0  0  0  0  0  0  0
   39.1300   32.0710   40.3180 H   0  0  0  0  0  0  0  0  0  0  0  0
   39.4610   35.0390   40.7030 C   0  0  0  0  0  0  0  0  0  0  0  0
   40.1890   34.9310   39.6740 O   0  0  0  0  0  0  0  0  0  0  0  0
   38.5680   34.0310   41.1440 N   0  0  0  0  0  0  0  0  0  0  0  0
   39.4680   35.9370   41.3400 H   0  0  0  0  0  0  0  0  0  0  0  0
   38.0450   34.0960   42.0390 H   0  0  0  0  0  0  0  0  0  0  0  0
   37.1760   27.6480   43.1080 C   0  0  0  0  0  0  0  0  0  0  0  0
   37.3530   28.4170   44.0950 O   0  0  0  0  0  0  0  0  0  0  0  0
   37.9140   26.4730   42.7940 C   0  0  0  0  0  0  0  0  0  0  0  0
   37.2140   25.4780   42.1890 C   0  0  0  0  0  0  0  0  0  0  0  0
   37.8720   24.2990   41.8530 C   0  0  0  0  0  0  0  0  0  0  0  0
   39.1800   24.1900   42.1420 N   0  0  0  0  0  0  0  0  0  0  0  0
   39.8530   25.1880   42.7430 C   0  0  0  0  0  0  0  0  0  0  0  0
   39.1890   26.3010   43.0480 N   0  0  0  0  0  0  0  0  0  0  0  0
   36.1600   25.4790   41.9190 H   0  0  0  0  0  0  0  0  0  0  0  0
   37.3640   23.4720   41.3680 H   0  0  0  0  0  0  0  0  0  0  0  0
   41.2930   25.1820   43.1100 C   0  0  0  0  0  3  0  0  0  0  0  0
   42.1830   25.3880   41.9150 C   0  0  0  0  0  3  0  0  0  0  0  0
   41.6660   25.0100   41.0170 H   0  0  0  0  0  0  0  0  0  0  0  0
   42.5420   26.8340   41.7250 C   0  0  0  0  0  3  0  0  0  0  0  0
   43.1010   26.9470   40.7780 H   0  0  0  0  0  0  0  0  0  0  0  0
   43.3280   27.2740   42.7830 O   0  0  0  0  0  0  0  0  0  0  0  0
   43.0540   26.6410   43.9790 C   0  0  0  0  0  3  0  0  0  0  0  0
   43.3760   27.3070   44.8120 H   0  0  0  0  0  0  0  0  0  0  0  0
   41.5860   26.2710   44.1030 C   0  0  0  0  0  3  0  0  0  0  0  0
   40.9530   27.1690   43.8990 H   0  0  0  0  0  0  0  0  0  0  0  0
  1 21  1  0  0  0  0
  2  6  1  0  0  0  0
  2  1  1  0  0  0  0
  3  2  2  0  0  0  0
  4  3  1  0  0  0  0
  4  5  2  0  0  0  0
  5  6  1  0  0  0  0
  7  3  1  0  0  0  0
  8  4  1  0  0  0  0
  9 11  1  0  0  0  0
  9  5  1  0  0  0  0
  9 12  1  1  0  0  0
 10  9  1  0  0  0  0
 10 11  1  0  0  0  0
 11 15  1  6  0  0  0
 11 18  1  0  0  0  0
 13 10  1  0  0  0  0
 14 10  1  0  0  0  0
 16 18  1  0  0  0  0
 16 19  1  0  0  0  0
 17 16  2  0  0  0  0
 18 20  1  0  0  0  0
 21 22  2  0  0  0  0
 23 28  1  0  0  0  0
 23 21  1  0  0  0  0
 24 23  2  0  0  0  0
 25 26  2  0  0  0  0
 25 24  1  0  0  0  0
 26 27  1  0  0  0  0
 27 28  2  0  0  0  0
 27 31  1  0  0  0  0
 29 24  1  0  0  0  0
 30 25  1  0  0  0  0
 31 39  1  0  0  0  0
 32 31  1  0  0  0  0
 33 32  1  0  0  0  0
 34 32  1  0  0  0  0
 34 36  1  0  0  0  0
 35 34  1  0  0  0  0
 36 37  1  0  0  0  0
 37 39  1  0  0  0  0
 37 38  1  0  0  0  0
 40 39  1  0  0  0  0
M  END
>  <minimizedAffinity>
-6.13423729

$$$$

 OpenBabel03242518413D

 40 43  0  0  1  0  0  0  0  0999 V2000
   37.7380   29.1950   43.1340 O   0  0  0  0  0  0  0  0  0  0  0  0
   37.1190   29.3670   41.8690 C   0  0  0  0  0  0  0  0  0  0  0  0
   36.0300   28.7200   41.2680 C   0  0  0  0  0  0  0  0  0  0  0  0
   35.8330   29.2690   40.0140 C   0  0  0  0  0  0  0  0  0  0  0  0
   36.8010   30.2170   39.9060 C   0  0  0  0  0  0  0  0  0  0  0  0
   37.5460   30.2670   40.9930 O   0  0  0  0  0  0  0  0  0  0  0  0
   35.4980   27.9230   41.8020 H   0  0  0  0  0  0  0  0  0  0  0  0
   35.0520   28.9490   39.3360 H   0  0  0  0  0  0  0  0  0  0  0  0
   37.0070   31.0890   38.7260 C   0  0  2  0  0  0  0  0  0  0  0  0
   37.0740   30.5150   37.3830 C   0  0  0  0  0  0  0  0  0  0  0  0
   38.3690   30.8540   38.0260 C   0  0  1  0  0  0  0  0  0  0  0  0
   36.7190   32.1420   38.8790 H   0  0  0  0  0  0  0  0  0  0  0  0
   36.6930   31.0880   36.5040 H   0  0  0  0  0  0  0  0  0  0  0  0
   36.8480   29.4220   37.2800 H   0  0  0  0  0  0  0  0  0  0  0  0
   39.0010   30.0640   38.4270 H   0  0  0  0  0  0  0  0  0  0  0  0
   40.4030   32.1390   37.4190 C   0  0  0  0  0  0  0  0  0  0  0  0
   41.1730   31.1800   37.7110 O   0  0  0  0  0  0  0  0  0  0  0  0
   38.9970   32.1030   37.6000 N   0  0  0  0  0  0  0  0  0  0  0  0
   40.7720   33.0870   36.9970 H   0  0  0  0  0  0  0  0  0  0  0  0
   38.3880   32.9290   37.4420 H   0  0  0  0  0  0  0  0  0  0  0  0
   37.5040   27.9840   43.8320 C   0  0  0  0  0  0  0  0  0  0  0  0
   36.6370   28.0150   44.7510 O   0  0  0  0  0  0  0  0  0  0  0  0
   38.2770   26.8620   43.4200 C   0  0  0  0  0  0  0  0  0  0  0  0
   39.5580   26.8290   43.8690 C   0  0  0  0  0  0  0  0  0  0  0  0
   40.3720   25.7600   43.5050 C   0  0  0  0  0  0  0  0  0  0  0  0
   39.8550   24.7990   42.7200 N   0  0  0  0  0  0  0  0  0  0  0  0
   38.5830   24.8530   42.2870 C   0  0  0  0  0  0  0  0  0  0  0  0
   37.8350   25.8910   42.6570 N   0  0  0  0  0  0  0  0  0  0  0  0
   40.0570   27.5580   44.5030 H   0  0  0  0  0  0  0  0  0  0  0  0
   41.4030   25.6810   43.8340 H   0  0  0  0  0  0  0  0  0  0  0  0
   37.9060   23.8540   41.4200 C   0  0  0  0  0  3  0  0  0  0  0  0
   36.5740   24.3470   40.9230 C   0  0  0  0  0  3  0  0  0  0  0  0
   36.1630   25.0620   41.6560 H   0  0  0  0  0  0  0  0  0  0  0  0
   36.6840   25.0030   39.5760 C   0  0  0  0  0  3  0  0  0  0  0  0
   35.7070   25.4420   39.3070 H   0  0  0  0  0  0  0  0  0  0  0  0
   37.0520   24.0670   38.6180 O   0  0  0  0  0  0  0  0  0  0  0  0
   37.8470   23.0510   39.1100 C   0  0  0  0  0  3  0  0  0  0  0  0
   38.4330   22.6220   38.2640 H   0  0  0  0  0  0  0  0  0  0  0  0
   38.7590   23.5330   40.2250 C   0  0  0  0  0  3  0  0  0  0  0  0
   39.3200   24.4390   39.8880 H   0  0  0  0  0  0  0  0  0  0  0  0
  1 21  1  0  0  0  0
  2  1  1  0  0  0  0
  3  7  1  0  0  0  0
  3  2  2  0  0  0  0
  4  3  1  0  0  0  0
  5  4  2  0  0  0  0
  5  6  1  0  0  0  0
  6  2  1  0  0  0  0
  8  4  1  0  0  0  0
  9 12  1  1  0  0  0
  9  5  1  0  0  0  0
 10 11  1  0  0  0  0
 10  9  1  0  0  0  0
 11 15  1  1  0  0  0
 11  9  1  0  0  0  0
 13 10  1  0  0  0  0
 14 10  1  0  0  0  0
 16 18  1  0  0  0  0
 16 17  2  0  0  0  0
 18 11  1  0  0  0  0
 19 16  1  0  0  0  0
 20 18  1  0  0  0  0
 21 22  2  0  0  0  0
 23 21  1  0  0  0  0
 23 24  1  0  0  0  0
 24 29  1  0  0  0  0
 25 30  1  0  0  0  0
 25 24  2  0  0  0  0
 26 25  1  0  0  0  0
 27 28  1  0  0  0  0
 27 26  2  0  0  0  0
 28 23  2  0  0  0  0
 31 27  1  0  0  0  0
 32 31  1  0  0  0  0
 32 33  1  0  0  0  0
 34 32  1  0  0  0  0
 35 34  1  0  0  0  0
 36 37  1  0  0  0  0
 36 34  1  0  0  0  0
 37 39  1  0  0  0  0
 38 37  1  0  0  0  0
 39 31  1  0  0  0  0
 40 39  1  0  0  0  0
M  END
>  <minimizedAffinity>
-6.08223534

$$$$

 OpenBabel03242518413D

 40 43  0  0  1  0  0  0  0  0999 V2000
   38.2720   33.2350   41.0440 O   0  0  0  0  0  0  0  0  0  0  0  0
   39.3180   33.9790   40.4390 C   0  0  0  0  0  0  0  0  0  0  0  0
   39.4510   35.3470   40.1640 C   0  0  0  0  0  0  0  0  0  0  0  0
   40.6760   35.5550   39.5570 C   0  0  0  0  0  0  0  0  0  0  0  0
   41.2310   34.3170   39.4890 C   0  0  0  0  0  0  0  0  0  0  0  0
   40.4320   33.4040   40.0060 O   0  0  0  0  0  0  0  0  0  0  0  0
   38.6480   36.0450   40.4320 H   0  0  0  0  0  0  0  0  0  0  0  0
   41.0310   36.5280   39.2410 H   0  0  0  0  0  0  0  0  0  0  0  0
   42.5610   34.0130   38.9110 C   0  0  2  0  0  0  0  0  0  0  0  0
   42.8540   34.3390   37.5160 C   0  0  0  0  0  0  0  0  0  0  0  0
   42.5120   32.9230   37.8100 C   0  0  1  0  0  0  0  0  0  0  0  0
   43.3710   33.9130   39.6520 H   0  0  0  0  0  0  0  0  0  0  0  0
   43.8860   34.6360   37.2100 H   0  0  0  0  0  0  0  0  0  0  0  0
   42.0820   34.9230   36.9510 H   0  0  0  0  0  0  0  0  0  0  0  0
   41.5310   32.5340   37.5440 H   0  0  0  0  0  0  0  0  0  0  0  0
   43.7600   30.9690   36.9280 C   0  0  0  0  0  0  0  0  0  0  0  0
   42.8940   30.7390   36.0350 O   0  0  0  0  0  0  0  0  0  0  0  0
   43.6340   31.9910   37.9020 N   0  0  0  0  0  0  0  0  0  0  0  0
   44.6880   30.3840   37.0160 H   0  0  0  0  0  0  0  0  0  0  0  0
   44.3070   32.1090   38.6830 H   0  0  0  0  0  0  0  0  0  0  0  0
   37.4670   32.4190   40.2100 C   0  0  0  0  0  0  0  0  0  0  0  0
   37.1250   32.9060   39.0960 O   0  0  0  0  0  0  0  0  0  0  0  0
   37.1300   31.1360   40.7240 C   0  0  0  0  0  0  0  0  0  0  0  0
   36.0170   30.5600   40.1980 C   0  0  0  0  0  0  0  0  0  0  0  0
   35.6280   29.3050   40.6550 C   0  0  0  0  0  0  0  0  0  0  0  0
   36.3720   28.7080   41.6020 N   0  0  0  0  0  0  0  0  0  0  0  0
   37.4700   29.2970   42.1080 C   0  0  0  0  0  0  0  0  0  0  0  0
   37.8110   30.4980   41.6470 N   0  0  0  0  0  0  0  0  0  0  0  0
   35.3590   30.9680   39.4340 H   0  0  0  0  0  0  0  0  0  0  0  0
   34.7490   28.7980   40.2710 H   0  0  0  0  0  0  0  0  0  0  0  0
   38.3670   28.7360   43.1530 C   0  0  0  0  0  3  0  0  0  0  0  0
   37.9200   27.3740   43.6100 C   0  0  0  0  0  3  0  0  0  0  0  0
   36.8280   27.2950   43.4790 H   0  0  0  0  0  0  0  0  0  0  0  0
   38.6060   26.2740   42.8520 C   0  0  0  0  0  3  0  0  0  0  0  0
   38.1670   25.3040   43.1450 H   0  0  0  0  0  0  0  0  0  0  0  0
   39.9660   26.2740   43.1370 O   0  0  0  0  0  0  0  0  0  0  0  0
   40.4750   27.5250   43.4190 C   0  0  0  0  0  3  0  0  0  0  0  0
   41.5700   27.5150   43.2090 H   0  0  0  0  0  0  0  0  0  0  0  0
   39.7710   28.6160   42.6310 C   0  0  0  0  0  3  0  0  0  0  0  0
   39.7640   28.3520   41.5450 H   0  0  0  0  0  0  0  0  0  0  0  0
  2  1  1  0  0  0  0
  3  7  1  0  0  0  0
  3  2  2  0  0  0  0
  4  3  1  0  0  0  0
  5  4  2  0  0  0  0
  5  6  1  0  0  0  0
  6  2  1  0  0  0  0
  8  4  1  0  0  0  0
  9  5  1  0  0  0  0
  9 12  1  1  0  0  0
 10 11  1  0  0  0  0
 10  9  1  0  0  0  0
 11 15  1  6  0  0  0
 11 18  1  0  0  0  0
 11  9  1  0  0  0  0
 13 10  1  0  0  0  0
 14 10  1  0  0  0  0
 16 19  1  0  0  0  0
 16 18  1  0  0  0  0
 17 16  2  0  0  0  0
 18 20  1  0  0  0  0
 21 23  1  0  0  0  0
 21  1  1  0  0  0  0
 22 21  2  0  0  0  0
 23 28  1  0  0  0  0
 24 25  1  0  0  0  0
 24 23  2  0  0  0  0
 25 26  2  0  0  0  0
 26 27  1  0  0  0  0
 27 31  1  0  0  0  0
 28 27  2  0  0  0  0
 29 24  1  0  0  0  0
 30 25  1  0  0  0  0
 31 32  1  0  0  0  0
 33 32  1  0  0  0  0
 34 36  1  0  0  0  0
 34 35  1  0  0  0  0
 34 32  1  0  0  0  0
 36 37  1  0  0  0  0
 38 37  1  0  0  0  0
 39 31  1  0  0  0  0
 39 37  1  0  0  0  0
 40 39  1  0  0  0  0
M  END
>  <minimizedAffinity>
-6.07697678

$$$$
