
 OpenBabel03252504123D

 26 27  0  0  0  0  0  0  0  0999 V2000
   37.2650   29.3880   41.6840 C   0  0  0  0  0  0  0  0  0  0  0  0
   37.9240   28.3250   42.3190 C   0  0  0  0  0  0  0  0  0  0  0  0
   39.2620   28.4950   42.6790 C   0  0  0  0  0  0  0  0  0  0  0  0
   39.8620   29.6750   42.4010 N   0  0  0  0  0  0  0  0  0  0  0  0
   39.1930   30.6760   41.7880 C   0  0  0  0  0  0  0  0  0  0  0  0
   37.9090   30.5440   41.4290 N   0  0  0  0  0  0  0  0  0  0  0  0
   39.7660   27.6720   43.1680 H   0  0  0  0  0  0  0  0  0  0  0  0
   39.8360   31.9780   41.4770 C   0  0  0  0  0  3  0  0  0  0  0  0
   38.9080   33.0030   40.9210 C   0  0  0  0  0  3  0  0  0  0  0  0
   38.4440   33.6200   41.7280 H   0  0  0  0  0  0  0  0  0  0  0  0
   39.5580   33.9730   39.9660 C   0  0  0  0  0  3  0  0  0  0  0  0
   38.7670   34.5180   39.4190 H   0  0  0  0  0  0  0  0  0  0  0  0
   40.2560   33.2210   39.0200 O   0  0  0  0  0  0  0  0  0  0  0  0
   41.4080   32.7600   39.6820 C   0  0  0  0  0  3  0  0  0  0  0  0
   41.7690   33.6000   40.3300 H   0  0  0  0  0  0  0  0  0  0  0  0
   41.0050   31.6430   40.5900 C   0  0  0  0  0  3  0  0  0  0  0  0
   41.8640   31.3360   41.2250 H   0  0  0  0  0  0  0  0  0  0  0  0
   37.1700   27.0670   42.5840 C   0  0  0  0  0  0  0  0  0  0  0  0
   38.0110   26.1590   43.2330 F   0  0  0  0  0  0  0  0  0  0  0  0
   36.1440   27.3390   43.4530 F   0  0  0  0  0  0  0  0  0  0  0  0
   36.6980   26.4570   41.4670 F   0  0  0  0  0  0  0  0  0  0  0  0
   35.9810   29.2050   41.3450 O   0  0  0  0  0  0  0  0  0  0  0  0
   35.4220   29.2410   40.0450 C   0  0  0  0  0  0  0  0  0  0  0  0
   36.0240   28.2180   39.3120 F   0  0  0  0  0  0  0  0  0  0  0  0
   34.0630   29.0850   40.1300 F   0  0  0  0  0  0  0  0  0  0  0  0
   35.7850   30.4080   39.4060 F   0  0  0  0  0  0  0  0  0  0  0  0
  1  2  1  0  0  0  0
  2 18  1  0  0  0  0
  2  3  2  0  0  0  0
  3  7  1  0  0  0  0
  4  3  1  0  0  0  0
  5  4  2  0  0  0  0
  6  1  2  0  0  0  0
  6  5  1  0  0  0  0
  8  5  1  0  0  0  0
  9  8  1  0  0  0  0
  9 10  1  0  0  0  0
 11  9  1  0  0  0  0
 12 11  1  0  0  0  0
 13 14  1  0  0  0  0
 13 11  1  0  0  0  0
 14 15  1  0  0  0  0
 14 16  1  0  0  0  0
 16 17  1  0  0  0  0
 16  8  1  0  0  0  0
 18 19  1  0  0  0  0
 18 20  1  0  0  0  0
 21 18  1  0  0  0  0
 22  1  1  0  0  0  0
 23 25  1  0  0  0  0
 23 22  1  0  0  0  0
 24 23  1  0  0  0  0
 26 23  1  0  0  0  0
M  END
>  <minimizedAffinity>
-5.20330667

$$$$

 OpenBabel03252504123D

 26 27  0  0  0  0  0  0  0  0999 V2000
   37.9280   31.2370   40.7130 C   0  0  0  0  0  0  0  0  0  0  0  0
   38.9970   32.0950   41.0040 C   0  0  0  0  0  0  0  0  0  0  0  0
   39.8670   31.7430   42.0380 C   0  0  0  0  0  0  0  0  0  0  0  0
   39.6410   30.5910   42.7100 N   0  0  0  0  0  0  0  0  0  0  0  0
   38.5990   29.7900   42.3990 C   0  0  0  0  0  0  0  0  0  0  0  0
   37.7460   30.0990   41.4140 N   0  0  0  0  0  0  0  0  0  0  0  0
   40.6900   32.4100   42.2590 H   0  0  0  0  0  0  0  0  0  0  0  0
   38.3370   28.5210   43.1260 C   0  0  0  0  0  3  0  0  0  0  0  0
   39.5370   27.6540   43.2950 C   0  0  0  0  0  3  0  0  0  0  0  0
   40.0810   27.8840   44.2430 H   0  0  0  0  0  0  0  0  0  0  0  0
   39.2320   26.1770   43.3290 C   0  0  0  0  0  3  0  0  0  0  0  0
   40.1760   25.6160   43.2000 H   0  0  0  0  0  0  0  0  0  0  0  0
   38.4380   25.8900   42.2190 O   0  0  0  0  0  0  0  0  0  0  0  0
   37.1590   26.3850   42.5340 C   0  0  0  0  0  3  0  0  0  0  0  0
   36.9780   26.1550   43.6150 H   0  0  0  0  0  0  0  0  0  0  0  0
   37.1920   27.8720   42.3960 C   0  0  0  0  0  3  0  0  0  0  0  0
   36.2370   28.3120   42.7580 H   0  0  0  0  0  0  0  0  0  0  0  0
   39.1610   33.3390   40.2000 C   0  0  0  0  0  0  0  0  0  0  0  0
   40.1280   34.1490   40.8030 F   0  0  0  0  0  0  0  0  0  0  0  0
   39.6480   33.0060   38.9610 F   0  0  0  0  0  0  0  0  0  0  0  0
   38.0280   34.0780   40.0830 F   0  0  0  0  0  0  0  0  0  0  0  0
   37.1020   31.5930   39.7170 O   0  0  0  0  0  0  0  0  0  0  0  0
   37.0820   31.0860   38.3970 C   0  0  0  0  0  0  0  0  0  0  0  0
   38.2330   30.3150   38.2360 F   0  0  0  0  0  0  0  0  0  0  0  0
   35.9390   30.3520   38.2090 F   0  0  0  0  0  0  0  0  0  0  0  0
   37.2070   32.1180   37.4910 F   0  0  0  0  0  0  0  0  0  0  0  0
  1  2  2  0  0  0  0
  1  6  1  0  0  0  0
  2  3  1  0  0  0  0
  3  7  1  0  0  0  0
  3  4  2  0  0  0  0
  5  4  1  0  0  0  0
  5  8  1  0  0  0  0
  6  5  2  0  0  0  0
  8  9  1  0  0  0  0
  9 11  1  0  0  0  0
  9 10  1  0  0  0  0
 12 11  1  0  0  0  0
 13 14  1  0  0  0  0
 13 11  1  0  0  0  0
 14 15  1  0  0  0  0
 16 14  1  0  0  0  0
 16 17  1  0  0  0  0
 16  8  1  0  0  0  0
 18 19  1  0  0  0  0
 18  2  1  0  0  0  0
 20 18  1  0  0  0  0
 21 18  1  0  0  0  0
 22  1  1  0  0  0  0
 23 22  1  0  0  0  0
 24 23  1  0  0  0  0
 25 23  1  0  0  0  0
 26 23  1  0  0  0  0
M  END
>  <minimizedAffinity>
-5.14798403

$$$$

 OpenBabel03252504123D

 26 27  0  0  0  0  0  0  0  0999 V2000
   37.6800   29.2300   40.6740 C   0  0  0  0  0  0  0  0  0  0  0  0
   38.2540   30.3420   41.3050 C   0  0  0  0  0  0  0  0  0  0  0  0
   38.8620   30.1580   42.5490 C   0  0  0  0  0  0  0  0  0  0  0  0
   38.8690   28.9170   43.0880 N   0  0  0  0  0  0  0  0  0  0  0  0
   38.3040   27.8700   42.4470 C   0  0  0  0  0  0  0  0  0  0  0  0
   37.7140   28.0130   41.2540 N   0  0  0  0  0  0  0  0  0  0  0  0
   39.3030   31.0200   43.0320 H   0  0  0  0  0  0  0  0  0  0  0  0
   38.3050   26.5010   43.0250 C   0  0  0  0  0  3  0  0  0  0  0  0
   39.6640   25.9230   43.2270 C   0  0  0  0  0  3  0  0  0  0  0  0
   40.0680   26.1640   44.2400 H   0  0  0  0  0  0  0  0  0  0  0  0
   39.7230   24.4220   43.0940 C   0  0  0  0  0  3  0  0  0  0  0  0
   40.7810   24.1140   43.0040 H   0  0  0  0  0  0  0  0  0  0  0  0
   39.1030   24.0860   41.8900 O   0  0  0  0  0  0  0  0  0  0  0  0
   37.7240   24.2310   42.1250 C   0  0  0  0  0  3  0  0  0  0  0  0
   37.5270   23.8440   43.1580 H   0  0  0  0  0  0  0  0  0  0  0  0
   37.4060   25.6910   42.1310 C   0  0  0  0  0  3  0  0  0  0  0  0
   36.3500   25.8530   42.4390 H   0  0  0  0  0  0  0  0  0  0  0  0
   38.1960   31.6650   40.6240 C   0  0  0  0  0  0  0  0  0  0  0  0
   38.8950   32.6050   41.3880 F   0  0  0  0  0  0  0  0  0  0  0  0
   38.8520   31.5760   39.4210 F   0  0  0  0  0  0  0  0  0  0  0  0
   36.9380   32.1430   40.4450 F   0  0  0  0  0  0  0  0  0  0  0  0
   37.1000   29.4270   39.4800 O   0  0  0  0  0  0  0  0  0  0  0  0
   35.7280   29.3000   39.1610 C   0  0  0  0  0  0  0  0  0  0  0  0
   35.0080   29.8320   40.2300 F   0  0  0  0  0  0  0  0  0  0  0  0
   35.4720   29.9590   37.9860 F   0  0  0  0  0  0  0  0  0  0  0  0
   35.3740   27.9680   39.1110 F   0  0  0  0  0  0  0  0  0  0  0  0
  1  6  2  0  0  0  0
  1  2  1  0  0  0  0
  2  3  2  0  0  0  0
  3  7  1  0  0  0  0
  3  4  1  0  0  0  0
  5  8  1  0  0  0  0
  5  4  2  0  0  0  0
  6  5  1  0  0  0  0
  8  9  1  0  0  0  0
  9 10  1  0  0  0  0
 11  9  1  0  0  0  0
 12 11  1  0  0  0  0
 13 14  1  0  0  0  0
 13 11  1  0  0  0  0
 14 16  1  0  0  0  0
 14 15  1  0  0  0  0
 16 17  1  0  0  0  0
 16  8  1  0  0  0  0
 18  2  1  0  0  0  0
 18 19  1  0  0  0  0
 20 18  1  0  0  0  0
 21 18  1  0  0  0  0
 22  1  1  0  0  0  0
 23 22  1  0  0  0  0
 23 24  1  0  0  0  0
 25 23  1  0  0  0  0
 26 23  1  0  0  0  0
M  END
>  <minimizedAffinity>
-5.12869263

$$$$

 OpenBabel03252504123D

 26 27  0  0  0  0  0  0  0  0999 V2000
   38.9550   31.4320   41.4430 C   0  0  0  0  0  0  0  0  0  0  0  0
   37.8650   31.9070   40.7000 C   0  0  0  0  0  0  0  0  0  0  0  0
   36.6880   31.1570   40.6960 C   0  0  0  0  0  0  0  0  0  0  0  0
   36.6510   30.0080   41.4090 N   0  0  0  0  0  0  0  0  0  0  0  0
   37.7230   29.5830   42.1120 C   0  0  0  0  0  0  0  0  0  0  0  0
   38.8670   30.2790   42.1360 N   0  0  0  0  0  0  0  0  0  0  0  0
   35.8500   31.5280   40.1200 H   0  0  0  0  0  0  0  0  0  0  0  0
   37.6990   28.3240   42.9010 C   0  0  0  0  0  3  0  0  0  0  0  0
   39.0410   27.8530   43.3440 C   0  0  0  0  0  3  0  0  0  0  0  0
   39.3150   28.2710   44.3430 H   0  0  0  0  0  0  0  0  0  0  0  0
   39.1620   26.3540   43.4640 C   0  0  0  0  0  3  0  0  0  0  0  0
   40.2310   26.0890   43.5440 H   0  0  0  0  0  0  0  0  0  0  0  0
   38.6980   25.8030   42.2700 O   0  0  0  0  0  0  0  0  0  0  0  0
   37.2970   25.9150   42.3240 C   0  0  0  0  0  3  0  0  0  0  0  0
   36.9920   25.6870   43.3770 H   0  0  0  0  0  0  0  0  0  0  0  0
   36.9360   27.3400   42.0560 C   0  0  0  0  0  3  0  0  0  0  0  0
   35.8460   27.4960   42.2150 H   0  0  0  0  0  0  0  0  0  0  0  0
   38.0080   33.1880   39.9530 C   0  0  0  0  0  0  0  0  0  0  0  0
   38.5380   34.1600   40.8070 F   0  0  0  0  0  0  0  0  0  0  0  0
   38.9220   33.0150   38.9440 F   0  0  0  0  0  0  0  0  0  0  0  0
   36.8410   33.6760   39.4580 F   0  0  0  0  0  0  0  0  0  0  0  0
   40.0770   32.1670   41.4340 O   0  0  0  0  0  0  0  0  0  0  0  0
   41.3310   31.8110   40.8840 C   0  0  0  0  0  0  0  0  0  0  0  0
   41.9020   32.9780   40.3770 F   0  0  0  0  0  0  0  0  0  0  0  0
   42.1080   31.2380   41.8580 F   0  0  0  0  0  0  0  0  0  0  0  0
   41.1550   30.9890   39.7920 F   0  0  0  0  0  0  0  0  0  0  0  0
  1  6  1  0  0  0  0
  2  1  2  0  0  0  0
  3  2  1  0  0  0  0
  3  4  2  0  0  0  0
  4  5  1  0  0  0  0
  5  6  2  0  0  0  0
  5  8  1  0  0  0  0
  7  3  1  0  0  0  0
  8  9  1  0  0  0  0
  9 11  1  0  0  0  0
  9 10  1  0  0  0  0
 11 12  1  0  0  0  0
 13 14  1  0  0  0  0
 13 11  1  0  0  0  0
 14 15  1  0  0  0  0
 16 17  1  0  0  0  0
 16 14  1  0  0  0  0
 16  8  1  0  0  0  0
 18  2  1  0  0  0  0
 18 19  1  0  0  0  0
 20 18  1  0  0  0  0
 21 18  1  0  0  0  0
 22  1  1  0  0  0  0
 23 22  1  0  0  0  0
 23 25  1  0  0  0  0
 24 23  1  0  0  0  0
 26 23  1  0  0  0  0
M  END
>  <minimizedAffinity>
-5.11962175

$$$$

 OpenBabel03252504123D

 26 27  0  0  0  0  0  0  0  0999 V2000
   38.3920   29.4970   41.3080 C   0  0  0  0  0  0  0  0  0  0  0  0
   37.0040   29.4180   41.1310 C   0  0  0  0  0  0  0  0  0  0  0  0
   36.3190   28.3540   41.7210 C   0  0  0  0  0  0  0  0  0  0  0  0
   37.0250   27.4480   42.4360 N   0  0  0  0  0  0  0  0  0  0  0  0
   38.3630   27.5590   42.5840 C   0  0  0  0  0  0  0  0  0  0  0  0
   39.0490   28.5670   42.0310 N   0  0  0  0  0  0  0  0  0  0  0  0
   35.2480   28.2980   41.5800 H   0  0  0  0  0  0  0  0  0  0  0  0
   39.1520   26.5730   43.3680 C   0  0  0  0  0  3  0  0  0  0  0  0
   40.5780   26.9550   43.5720 C   0  0  0  0  0  3  0  0  0  0  0  0
   40.7160   27.5500   44.5070 H   0  0  0  0  0  0  0  0  0  0  0  0
   41.5230   25.7830   43.6720 C   0  0  0  0  0  3  0  0  0  0  0  0
   42.5590   26.1520   43.5660 H   0  0  0  0  0  0  0  0  0  0  0  0
   41.2750   24.9540   42.5780 O   0  0  0  0  0  0  0  0  0  0  0  0
   40.0710   24.2900   42.8740 C   0  0  0  0  0  3  0  0  0  0  0  0
   40.0980   24.0380   43.9660 H   0  0  0  0  0  0  0  0  0  0  0  0
   38.9490   25.2560   42.6710 C   0  0  0  0  0  3  0  0  0  0  0  0
   37.9910   24.8080   43.0160 H   0  0  0  0  0  0  0  0  0  0  0  0
   36.3210   30.4710   40.3270 C   0  0  0  0  0  0  0  0  0  0  0  0
   34.9930   30.0920   40.1120 F   0  0  0  0  0  0  0  0  0  0  0  0
   36.2810   31.6320   41.0580 F   0  0  0  0  0  0  0  0  0  0  0  0
   36.8820   30.6930   39.1120 F   0  0  0  0  0  0  0  0  0  0  0  0
   39.0320   30.5260   40.7330 O   0  0  0  0  0  0  0  0  0  0  0  0
   39.6460   31.6240   41.3790 C   0  0  0  0  0  0  0  0  0  0  0  0
   40.9960   31.6030   41.0290 F   0  0  0  0  0  0  0  0  0  0  0  0
   39.0300   32.7850   40.9880 F   0  0  0  0  0  0  0  0  0  0  0  0
   39.6230   31.4440   42.7460 F   0  0  0  0  0  0  0  0  0  0  0  0
  1  6  1  0  0  0  0
  2  1  2  0  0  0  0
  2  3  1  0  0  0  0
  3  4  2  0  0  0  0
  4  5  1  0  0  0  0
  5  8  1  0  0  0  0
  6  5  2  0  0  0  0
  7  3  1  0  0  0  0
  8  9  1  0  0  0  0
  9 11  1  0  0  0  0
  9 10  1  0  0  0  0
 12 11  1  0  0  0  0
 13 14  1  0  0  0  0
 13 11  1  0  0  0  0
 14 15  1  0  0  0  0
 16 14  1  0  0  0  0
 16 17  1  0  0  0  0
 16  8  1  0  0  0  0
 18 20  1  0  0  0  0
 18  2  1  0  0  0  0
 19 18  1  0  0  0  0
 21 18  1  0  0  0  0
 22  1  1  0  0  0  0
 22 23  1  0  0  0  0
 23 26  1  0  0  0  0
 24 23  1  0  0  0  0
 25 23  1  0  0  0  0
M  END
>  <minimizedAffinity>
-4.92301321

$$$$

 OpenBabel03252504123D

 26 27  0  0  0  0  0  0  0  0999 V2000
   38.1540   29.5790   40.8850 C   0  0  0  0  0  0  0  0  0  0  0  0
   36.8060   29.6520   40.5080 C   0  0  0  0  0  0  0  0  0  0  0  0
   36.3860   30.7540   39.7620 C   0  0  0  0  0  0  0  0  0  0  0  0
   37.2960   31.7000   39.4360 N   0  0  0  0  0  0  0  0  0  0  0  0
   38.5870   31.5930   39.8180 C   0  0  0  0  0  0  0  0  0  0  0  0
   39.0220   30.5490   40.5350 N   0  0  0  0  0  0  0  0  0  0  0  0
   35.3440   30.8060   39.4740 H   0  0  0  0  0  0  0  0  0  0  0  0
   39.6000   32.6230   39.4680 C   0  0  0  0  0  3  0  0  0  0  0  0
   40.2950   32.3810   38.1710 C   0  0  0  0  0  3  0  0  0  0  0  0
   39.7580   32.8660   37.3200 H   0  0  0  0  0  0  0  0  0  0  0  0
   41.7130   32.8920   38.1260 C   0  0  0  0  0  3  0  0  0  0  0  0
   42.2210   32.4540   37.2480 H   0  0  0  0  0  0  0  0  0  0  0  0
   42.3680   32.4040   39.2570 O   0  0  0  0  0  0  0  0  0  0  0  0
   41.8910   33.1770   40.3300 C   0  0  0  0  0  3  0  0  0  0  0  0
   41.8030   34.2310   39.9600 H   0  0  0  0  0  0  0  0  0  0  0  0
   40.5120   32.7070   40.6620 C   0  0  0  0  0  3  0  0  0  0  0  0
   40.0510   33.3760   41.4210 H   0  0  0  0  0  0  0  0  0  0  0  0
   35.8850   28.5540   40.9140 C   0  0  0  0  0  0  0  0  0  0  0  0
   34.5730   28.9130   40.5900 F   0  0  0  0  0  0  0  0  0  0  0  0
   36.1750   27.4330   40.1760 F   0  0  0  0  0  0  0  0  0  0  0  0
   35.9110   28.2690   42.2410 F   0  0  0  0  0  0  0  0  0  0  0  0
   38.5390   28.5120   41.6030 O   0  0  0  0  0  0  0  0  0  0  0  0
   39.0010   28.4980   42.9400 C   0  0  0  0  0  0  0  0  0  0  0  0
   38.3880   29.5660   43.5960 F   0  0  0  0  0  0  0  0  0  0  0  0
   38.6910   27.2930   43.5150 F   0  0  0  0  0  0  0  0  0  0  0  0
   40.3510   28.7760   42.9780 F   0  0  0  0  0  0  0  0  0  0  0  0
  1 22  1  0  0  0  0
  2  1  2  0  0  0  0
  2 18  1  0  0  0  0
  3  2  1  0  0  0  0
  4  3  2  0  0  0  0
  4  5  1  0  0  0  0
  5  6  2  0  0  0  0
  6  1  1  0  0  0  0
  7  3  1  0  0  0  0
  8  5  1  0  0  0  0
  8 16  1  0  0  0  0
  9  8  1  0  0  0  0
 10  9  1  0  0  0  0
 11  9  1  0  0  0  0
 11 13  1  0  0  0  0
 12 11  1  0  0  0  0
 13 14  1  0  0  0  0
 14 16  1  0  0  0  0
 15 14  1  0  0  0  0
 16 17  1  0  0  0  0
 18 21  1  0  0  0  0
 19 18  1  0  0  0  0
 20 18  1  0  0  0  0
 22 23  1  0  0  0  0
 23 26  1  0  0  0  0
 23 25  1  0  0  0  0
 23 24  1  0  0  0  0
M  END
>  <minimizedAffinity>
-4.87068272

$$$$

 OpenBabel03252504123D

 26 27  0  0  0  0  0  0  0  0999 V2000
   37.9340   26.6110   41.5530 C   0  0  0  0  0  0  0  0  0  0  0  0
   37.0760   25.8110   40.7870 C   0  0  0  0  0  0  0  0  0  0  0  0
   36.5790   26.3300   39.5900 C   0  0  0  0  0  0  0  0  0  0  0  0
   36.9470   27.5790   39.2240 N   0  0  0  0  0  0  0  0  0  0  0  0
   37.7780   28.3190   39.9910 C   0  0  0  0  0  0  0  0  0  0  0  0
   38.2710   27.8500   41.1440 N   0  0  0  0  0  0  0  0  0  0  0  0
   35.9150   25.7080   39.0020 H   0  0  0  0  0  0  0  0  0  0  0  0
   38.1940   29.6910   39.6020 C   0  0  0  0  0  3  0  0  0  0  0  0
   38.9240   30.4340   40.6680 C   0  0  0  0  0  3  0  0  0  0  0  0
   40.0260   30.2680   40.6040 H   0  0  0  0  0  0  0  0  0  0  0  0
   38.7180   31.9280   40.6320 C   0  0  0  0  0  3  0  0  0  0  0  0
   39.0760   32.3590   41.5840 H   0  0  0  0  0  0  0  0  0  0  0  0
   37.3430   32.1570   40.5770 O   0  0  0  0  0  0  0  0  0  0  0  0
   36.9630   31.8520   39.2580 C   0  0  0  0  0  3  0  0  0  0  0  0
   37.7750   32.2370   38.5880 H   0  0  0  0  0  0  0  0  0  0  0  0
   36.9390   30.3650   39.1150 C   0  0  0  0  0  3  0  0  0  0  0  0
   36.7670   30.0840   38.0530 H   0  0  0  0  0  0  0  0  0  0  0  0
   36.7350   24.4460   41.2770 C   0  0  0  0  0  0  0  0  0  0  0  0
   37.8690   23.6330   41.1960 F   0  0  0  0  0  0  0  0  0  0  0  0
   36.4040   24.5210   42.6070 F   0  0  0  0  0  0  0  0  0  0  0  0
   35.7470   23.8340   40.5750 F   0  0  0  0  0  0  0  0  0  0  0  0
   38.4000   26.0950   42.7000 O   0  0  0  0  0  0  0  0  0  0  0  0
   39.7140   25.6420   42.9670 C   0  0  0  0  0  0  0  0  0  0  0  0
   40.3600   26.6540   43.6760 F   0  0  0  0  0  0  0  0  0  0  0  0
   39.6560   24.4710   43.6770 F   0  0  0  0  0  0  0  0  0  0  0  0
   40.4200   25.5160   41.7890 F   0  0  0  0  0  0  0  0  0  0  0  0
  1 22  1  0  0  0  0
  2 18  1  0  0  0  0
  2  1  2  0  0  0  0
  3  2  1  0  0  0  0
  4  3  2  0  0  0  0
  4  5  1  0  0  0  0
  5  6  2  0  0  0  0
  6  1  1  0  0  0  0
  7  3  1  0  0  0  0
  8  5  1  0  0  0  0
  8  9  1  0  0  0  0
 10  9  1  0  0  0  0
 11  9  1  0  0  0  0
 11 12  1  0  0  0  0
 13 11  1  0  0  0  0
 14 13  1  0  0  0  0
 15 14  1  0  0  0  0
 16 14  1  0  0  0  0
 16  8  1  0  0  0  0
 17 16  1  0  0  0  0
 18 20  1  0  0  0  0
 19 18  1  0  0  0  0
 21 18  1  0  0  0  0
 22 23  1  0  0  0  0
 23 24  1  0  0  0  0
 23 25  1  0  0  0  0
 26 23  1  0  0  0  0
M  END
>  <minimizedAffinity>
-4.84944201

$$$$

 OpenBabel03252504123D

 26 27  0  0  0  0  0  0  0  0999 V2000
   37.0600   27.6090   40.6940 C   0  0  0  0  0  0  0  0  0  0  0  0
   37.6200   28.0710   41.8930 C   0  0  0  0  0  0  0  0  0  0  0  0
   37.9610   27.1330   42.8690 C   0  0  0  0  0  0  0  0  0  0  0  0
   37.7360   25.8240   42.6150 N   0  0  0  0  0  0  0  0  0  0  0  0
   37.1930   25.4180   41.4460 C   0  0  0  0  0  0  0  0  0  0  0  0
   36.8550   26.2920   40.4900 N   0  0  0  0  0  0  0  0  0  0  0  0
   38.3920   27.4950   43.7940 H   0  0  0  0  0  0  0  0  0  0  0  0
   36.9410   23.9840   41.1510 C   0  0  0  0  0  3  0  0  0  0  0  0
   38.1760   23.1780   40.9320 C   0  0  0  0  0  3  0  0  0  0  0  0
   38.5540   22.7370   41.8870 H   0  0  0  0  0  0  0  0  0  0  0  0
   38.0000   22.0270   39.9740 C   0  0  0  0  0  3  0  0  0  0  0  0
   38.9980   21.6530   39.6800 H   0  0  0  0  0  0  0  0  0  0  0  0
   37.4040   22.5340   38.8190 O   0  0  0  0  0  0  0  0  0  0  0  0
   36.0550   22.7460   39.1550 C   0  0  0  0  0  3  0  0  0  0  0  0
   35.7390   21.8840   39.7980 H   0  0  0  0  0  0  0  0  0  0  0  0
   35.9760   23.9790   39.9970 C   0  0  0  0  0  3  0  0  0  0  0  0
   34.9430   24.1110   40.3880 H   0  0  0  0  0  0  0  0  0  0  0  0
   37.8310   29.5350   42.0720 C   0  0  0  0  0  0  0  0  0  0  0  0
   38.4060   29.7640   43.3250 F   0  0  0  0  0  0  0  0  0  0  0  0
   38.7400   29.9700   41.1400 F   0  0  0  0  0  0  0  0  0  0  0  0
   36.6930   30.2720   42.0060 F   0  0  0  0  0  0  0  0  0  0  0  0
   36.7380   28.5250   39.7680 O   0  0  0  0  0  0  0  0  0  0  0  0
   35.4440   28.8680   39.3130 C   0  0  0  0  0  0  0  0  0  0  0  0
   34.6210   28.9450   40.4370 F   0  0  0  0  0  0  0  0  0  0  0  0
   35.5010   30.0580   38.6330 F   0  0  0  0  0  0  0  0  0  0  0  0
   34.9220   27.8440   38.5500 F   0  0  0  0  0  0  0  0  0  0  0  0
  1  2  1  0  0  0  0
  2 18  1  0  0  0  0
  2  3  2  0  0  0  0
  3  7  1  0  0  0  0
  4  3  1  0  0  0  0
  5  4  2  0  0  0  0
  6  1  2  0  0  0  0
  6  5  1  0  0  0  0
  8  5  1  0  0  0  0
  9  8  1  0  0  0  0
  9 10  1  0  0  0  0
 11  9  1  0  0  0  0
 12 11  1  0  0  0  0
 13 14  1  0  0  0  0
 13 11  1  0  0  0  0
 14 15  1  0  0  0  0
 14 16  1  0  0  0  0
 16 17  1  0  0  0  0
 16  8  1  0  0  0  0
 18 19  1  0  0  0  0
 20 18  1  0  0  0  0
 21 18  1  0  0  0  0
 22  1  1  0  0  0  0
 23 22  1  0  0  0  0
 23 24  1  0  0  0  0
 25 23  1  0  0  0  0
 26 23  1  0  0  0  0
M  END
>  <minimizedAffinity>
-4.83575869

$$$$

 OpenBabel03252504123D

 26 27  0  0  0  0  0  0  0  0999 V2000
   37.0970   30.6490   39.4950 C   0  0  0  0  0  0  0  0  0  0  0  0
   37.7620   31.4120   40.4640 C   0  0  0  0  0  0  0  0  0  0  0  0
   38.0150   30.8290   41.7070 C   0  0  0  0  0  0  0  0  0  0  0  0
   37.6090   29.5560   41.9200 N   0  0  0  0  0  0  0  0  0  0  0  0
   36.9710   28.8530   40.9590 C   0  0  0  0  0  0  0  0  0  0  0  0
   36.7120   29.3840   39.7570 N   0  0  0  0  0  0  0  0  0  0  0  0
   38.5280   31.4230   42.4530 H   0  0  0  0  0  0  0  0  0  0  0  0
   36.5200   27.4540   41.1750 C   0  0  0  0  0  3  0  0  0  0  0  0
   37.2240   26.7490   42.2840 C   0  0  0  0  0  3  0  0  0  0  0  0
   36.6980   26.8870   43.2590 H   0  0  0  0  0  0  0  0  0  0  0  0
   37.3590   25.2600   42.0820 C   0  0  0  0  0  3  0  0  0  0  0  0
   38.0980   24.8690   42.8040 H   0  0  0  0  0  0  0  0  0  0  0  0
   37.8940   25.0600   40.8090 O   0  0  0  0  0  0  0  0  0  0  0  0
   36.8380   25.3070   39.9140 C   0  0  0  0  0  3  0  0  0  0  0  0
   35.9130   24.8710   40.3730 H   0  0  0  0  0  0  0  0  0  0  0  0
   36.6380   26.7860   39.8320 C   0  0  0  0  0  3  0  0  0  0  0  0
   35.7300   27.0170   39.2330 H   0  0  0  0  0  0  0  0  0  0  0  0
   38.1710   32.8050   40.1280 C   0  0  0  0  0  0  0  0  0  0  0  0
   38.7230   33.4060   41.2630 F   0  0  0  0  0  0  0  0  0  0  0  0
   39.1680   32.7600   39.1860 F   0  0  0  0  0  0  0  0  0  0  0  0
   37.1520   33.5960   39.7050 F   0  0  0  0  0  0  0  0  0  0  0  0
   36.8610   31.2270   38.3070 O   0  0  0  0  0  0  0  0  0  0  0  0
   37.4490   30.9020   37.0630 C   0  0  0  0  0  0  0  0  0  0  0  0
   37.5810   32.0930   36.3480 F   0  0  0  0  0  0  0  0  0  0  0  0
   38.6580   30.2920   37.2760 F   0  0  0  0  0  0  0  0  0  0  0  0
   36.5860   30.1260   36.3180 F   0  0  0  0  0  0  0  0  0  0  0  0
  1  6  2  0  0  0  0
  1  2  1  0  0  0  0
  2  3  2  0  0  0  0
  3  4  1  0  0  0  0
  3  7  1  0  0  0  0
  5  8  1  0  0  0  0
  5  4  2  0  0  0  0
  6  5  1  0  0  0  0
  8  9  1  0  0  0  0
  9 10  1  0  0  0  0
 11  9  1  0  0  0  0
 11 12  1  0  0  0  0
 13 11  1  0  0  0  0
 14 15  1  0  0  0  0
 14 13  1  0  0  0  0
 16 14  1  0  0  0  0
 16  8  1  0  0  0  0
 17 16  1  0  0  0  0
 18  2  1  0  0  0  0
 18 19  1  0  0  0  0
 20 18  1  0  0  0  0
 21 18  1  0  0  0  0
 22  1  1  0  0  0  0
 23 25  1  0  0  0  0
 23 22  1  0  0  0  0
 24 23  1  0  0  0  0
 26 23  1  0  0  0  0
M  END
>  <minimizedAffinity>
-4.80127287

$$$$
