
 OpenBabel03252508573D

 25 26  0  0  0  0  0  0  0  0999 V2000
   48.8040   34.4090   42.8530 C   0  0  0  0  0  0  0  0  0  0  0  0
   48.3480   35.3620   42.5110 H   0  0  0  0  0  0  0  0  0  0  0  0
   49.4800   34.6300   43.6950 H   0  0  0  0  0  0  0  0  0  0  0  0
   49.6210   33.8330   41.7290 C   0  0  0  0  0  3  0  0  0  0  0  0
   48.7980   33.2240   40.6490 C   0  0  0  0  0  3  0  0  0  0  0  0
   48.7470   33.8480   39.7230 H   0  0  0  0  0  0  0  0  0  0  0  0
   49.1470   31.8160   40.3100 C   0  0  0  0  0  3  0  0  0  0  0  0
   48.8780   31.6500   39.2290 H   0  0  0  0  0  0  0  0  0  0  0  0
   50.4320   31.4200   40.4520 O   0  0  0  0  0  0  0  0  0  0  0  0
   51.2730   32.1620   41.2200 C   0  0  0  0  0  3  0  0  0  0  0  0
   52.0260   31.4730   41.7040 H   0  0  0  0  0  0  0  0  0  0  0  0
   50.5240   32.7800   42.3710 C   0  0  0  0  0  3  0  0  0  0  0  0
   51.1570   33.2500   43.1330 H   0  0  0  0  0  0  0  0  0  0  0  0
   47.7000   33.4580   43.3040 C   0  0  0  0  0  0  0  0  0  0  0  0
   47.3690   32.8240   42.4770 H   0  0  0  0  0  0  0  0  0  0  0  0
   48.0920   32.7950   44.0990 H   0  0  0  0  0  0  0  0  0  0  0  0
   44.9570   36.0580   43.3250 C   0  0  0  0  0  0  0  0  0  0  0  0
   46.0500   35.2810   42.9030 C   0  0  0  0  0  0  0  0  0  0  0  0
   46.5470   34.2810   43.7420 C   0  0  0  0  0  0  0  0  0  0  0  0
   45.9210   34.1180   44.9550 N   0  0  0  0  0  0  0  0  0  0  0  0
   44.8860   34.8780   45.3160 C   0  0  0  0  0  0  0  0  0  0  0  0
   44.3940   35.8390   44.5290 N   0  0  0  0  0  0  0  0  0  0  0  0
   44.6480   36.8030   42.6080 H   0  0  0  0  0  0  0  0  0  0  0  0
   46.5160   35.4340   41.9490 H   0  0  0  0  0  0  0  0  0  0  0  0
   44.4830   34.6440   46.3020 H   0  0  0  0  0  0  0  0  0  0  0  0
  1 14  1  0  0  0  0
  1  3  1  0  0  0  0
  2  1  1  0  0  0  0
  4 12  1  0  0  0  0
  4  1  1  0  0  0  0
  5  4  1  0  0  0  0
  6  5  1  0  0  0  0
  7  9  1  0  0  0  0
  7  5  1  0  0  0  0
  8  7  1  0  0  0  0
  9 10  1  0  0  0  0
 10 11  1  0  0  0  0
 10 12  1  0  0  0  0
 12 13  1  0  0  0  0
 14 19  1  0  0  0  0
 14 16  1  0  0  0  0
 15 14  1  0  0  0  0
 17 22  1  0  0  0  0
 18 17  2  0  0  0  0
 18 19  1  0  0  0  0
 19 20  2  0  0  0  0
 20 21  1  0  0  0  0
 21 25  1  0  0  0  0
 22 21  2  0  0  0  0
 23 17  1  0  0  0  0
 24 18  1  0  0  0  0
M  END
>  <minimizedAffinity>
-4.03861809

>  <minimizedRMSD>
2.98539591

$$$$
