
 OpenBabel03252507203D

 45 48  0  0  1  0  0  0  0  0999 V2000
   46.7470   31.2520   44.4160 C   0  0  0  0  0  0  0  0  0  0  0  0
   47.9570   30.8360   44.5100 O   0  0  0  0  0  0  0  0  0  0  0  0
   45.9750   31.0670   43.2310 N   0  0  0  0  0  0  0  0  0  0  0  0
   44.5850   30.6140   43.0810 C   0  0  0  0  0  0  0  0  0  0  0  0
   43.8150   31.6160   42.2250 C   0  0  0  0  0  0  0  0  0  0  0  0
   44.3950   31.6060   40.8220 C   0  0  0  0  0  0  0  0  0  0  0  0
   45.7140   30.9260   40.8300 C   0  0  0  0  0  0  0  0  0  0  0  0
   46.6030   31.3410   41.9750 C   0  0  1  0  0  0  0  0  0  0  0  0
   44.1440   30.7640   44.1100 H   0  0  0  0  0  0  0  0  0  0  0  0
   44.5020   29.5850   42.7560 H   0  0  0  0  0  0  0  0  0  0  0  0
   43.9730   32.6040   42.7160 H   0  0  0  0  0  0  0  0  0  0  0  0
   42.7570   31.3090   42.2680 H   0  0  0  0  0  0  0  0  0  0  0  0
   44.3250   32.5690   40.3280 H   0  0  0  0  0  0  0  0  0  0  0  0
   43.6880   30.9350   40.2510 H   0  0  0  0  0  0  0  0  0  0  0  0
   46.2650   30.9480   39.8930 H   0  0  0  0  0  0  0  0  0  0  0  0
   45.5080   29.8290   41.0160 H   0  0  0  0  0  0  0  0  0  0  0  0
   47.4680   30.6440   41.9190 H   0  0  0  0  0  0  0  0  0  0  0  0
   47.1560   32.7170   41.7850 C   0  0  0  0  0  3  0  0  0  0  0  0
   47.9300   32.9680   40.5250 C   0  0  0  0  0  3  0  0  0  0  0  0
   47.2920   32.5640   39.6930 H   0  0  0  0  0  0  0  0  0  0  0  0
   47.9760   34.4710   40.2140 C   0  0  0  0  0  3  0  0  0  0  0  0
   47.0540   34.7890   39.7290 H   0  0  0  0  0  0  0  0  0  0  0  0
   48.1820   35.1380   41.4010 O   0  0  0  0  0  0  0  0  0  0  0  0
   47.0520   35.1140   42.2150 C   0  0  0  0  0  3  0  0  0  0  0  0
   47.4360   35.0140   43.2680 H   0  0  0  0  0  0  0  0  0  0  0  0
   46.2080   33.8480   41.9800 C   0  0  0  0  0  3  0  0  0  0  0  0
   45.5870   34.0870   41.0960 H   0  0  0  0  0  0  0  0  0  0  0  0
   45.9380   33.2990   45.4510 C   0  0  0  0  0  0  0  0  0  0  0  0
   46.1560   31.9210   45.5390 C   0  0  0  0  0  0  0  0  0  0  0  0
   45.8070   31.2520   46.6890 C   0  0  0  0  0  0  0  0  0  0  0  0
   45.2640   31.9530   47.6990 N   0  0  0  0  0  0  0  0  0  0  0  0
   45.0480   33.2950   47.6230 C   0  0  0  0  0  0  0  0  0  0  0  0
   45.3890   33.9360   46.5030 N   0  0  0  0  0  0  0  0  0  0  0  0
   46.1740   33.9120   44.5940 H   0  0  0  0  0  0  0  0  0  0  0  0
   44.6020   33.8450   48.4640 H   0  0  0  0  0  0  0  0  0  0  0  0
   46.0370   29.8240   46.7660 C   0  0  0  0  0  0  0  0  0  0  0  0
   45.0710   28.9450   46.3420 C   0  0  0  0  0  0  0  0  0  0  0  0
   45.3150   27.5920   46.4240 C   0  0  0  0  0  0  0  0  0  0  0  0
   46.4930   27.0640   46.9150 C   0  0  0  0  0  0  0  0  0  0  0  0
   47.4230   27.9960   47.3260 C   0  0  0  0  0  0  0  0  0  0  0  0
   47.1730   29.3010   47.2400 N   0  0  0  0  0  0  0  0  0  0  0  0
   44.1240   29.2010   45.9470 H   0  0  0  0  0  0  0  0  0  0  0  0
   44.5750   26.8490   46.0970 H   0  0  0  0  0  0  0  0  0  0  0  0
   46.7100   26.0070   46.9900 H   0  0  0  0  0  0  0  0  0  0  0  0
   48.3910   27.6780   47.7320 H   0  0  0  0  0  0  0  0  0  0  0  0
  1  2  2  0  0  0  0
  1 29  1  0  0  0  0
  3  1  1  0  0  0  0
  4  3  1  0  0  0  0
  4  9  1  0  0  0  0
  5 12  1  0  0  0  0
  5 11  1  0  0  0  0
  5  4  1  0  0  0  0
  6  7  1  0  0  0  0
  6  5  1  0  0  0  0
  7 16  1  0  0  0  0
  7  8  1  0  0  0  0
  8 17  1  6  0  0  0
  8  3  1  0  0  0  0
 10  4  1  0  0  0  0
 13  6  1  0  0  0  0
 14  6  1  0  0  0  0
 15  7  1  0  0  0  0
 18  8  1  0  0  0  0
 18 26  1  0  0  0  0
 19 18  1  0  0  0  0
 20 19  1  0  0  0  0
 21 19  1  0  0  0  0
 21 23  1  0  0  0  0
 22 21  1  0  0  0  0
 23 24  1  0  0  0  0
 24 25  1  0  0  0  0
 26 24  1  0  0  0  0
 27 26  1  0  0  0  0
 28 29  2  0  0  0  0
 28 33  1  0  0  0  0
 29 30  1  0  0  0  0
 30 36  1  0  0  0  0
 30 31  2  0  0  0  0
 32 31  1  0  0  0  0
 32 35  1  0  0  0  0
 33 32  2  0  0  0  0
 34 28  1  0  0  0  0
 36 41  1  0  0  0  0
 37 38  1  0  0  0  0
 37 36  2  0  0  0  0
 38 39  2  0  0  0  0
 39 44  1  0  0  0  0
 39 40  1  0  0  0  0
 40 45  1  0  0  0  0
 41 40  2  0  0  0  0
 42 37  1  0  0  0  0
 43 38  1  0  0  0  0
M  END
>  <minimizedAffinity>
-4.38935852

>  <minimizedRMSD>
3.37126112

$$$$
