
 OpenBabel03252509163D

 26 28  0  0  0  0  0  0  0  0999 V2000
   46.0190   32.9970   46.1620 C   0  0  0  0  0  0  0  0  0  0  0  0
   45.5120   32.7660   47.4670 C   0  0  0  0  0  0  0  0  0  0  0  0
   45.9920   31.7030   48.1590 C   0  0  0  0  0  0  0  0  0  0  0  0
   46.9710   30.8690   47.5640 C   0  0  0  0  0  0  0  0  0  0  0  0
   47.2180   31.6420   45.9370 S   0  0  0  0  0  0  0  0  0  0  0  0
   44.7650   33.4210   47.8920 H   0  0  0  0  0  0  0  0  0  0  0  0
   45.7080   31.4100   49.1350 H   0  0  0  0  0  0  0  0  0  0  0  0
   47.6710   29.7190   47.9730 C   0  0  0  0  0  3  0  0  0  0  0  0
   49.0080   30.0980   48.5790 C   0  0  0  0  0  3  0  0  0  0  0  0
   48.8270   30.6860   49.5120 H   0  0  0  0  0  0  0  0  0  0  0  0
   49.8180   28.8410   48.8270 C   0  0  0  0  0  3  0  0  0  0  0  0
   50.0840   28.7980   49.9220 H   0  0  0  0  0  0  0  0  0  0  0  0
   49.0380   27.7350   48.5900 O   0  0  0  0  0  0  0  0  0  0  0  0
   48.6440   27.5850   47.2800 C   0  0  0  0  0  3  0  0  0  0  0  0
   49.4530   27.2060   46.6130 H   0  0  0  0  0  0  0  0  0  0  0  0
   48.0220   28.8600   46.7600 C   0  0  0  0  0  3  0  0  0  0  0  0
   47.1540   28.6790   46.0990 H   0  0  0  0  0  0  0  0  0  0  0  0
   44.4320   36.0150   44.7110 C   0  0  0  0  0  0  0  0  0  0  0  0
   45.0390   36.0050   43.4300 C   0  0  0  0  0  0  0  0  0  0  0  0
   45.9550   34.9800   43.1210 C   0  0  0  0  0  0  0  0  0  0  0  0
   46.2000   34.0510   44.0890 N   0  0  0  0  0  0  0  0  0  0  0  0
   45.5940   34.1010   45.3010 C   0  0  0  0  0  0  0  0  0  0  0  0
   44.7100   35.0820   45.6140 N   0  0  0  0  0  0  0  0  0  0  0  0
   43.7280   36.8040   44.9470 H   0  0  0  0  0  0  0  0  0  0  0  0
   44.8280   36.7500   42.6850 H   0  0  0  0  0  0  0  0  0  0  0  0
   46.4530   34.9100   42.1710 H   0  0  0  0  0  0  0  0  0  0  0  0
  1  2  2  0  0  0  0
  2  6  1  0  0  0  0
  2  3  1  0  0  0  0
  3  7  1  0  0  0  0
  4  8  1  0  0  0  0
  4  3  2  0  0  0  0
  5  1  1  0  0  0  0
  5  4  1  0  0  0  0
  8  9  1  0  0  0  0
  9 11  1  0  0  0  0
  9 10  1  0  0  0  0
 11 12  1  0  0  0  0
 13 11  1  0  0  0  0
 14 13  1  0  0  0  0
 15 14  1  0  0  0  0
 16 14  1  0  0  0  0
 16  8  1  0  0  0  0
 17 16  1  0  0  0  0
 18 24  1  0  0  0  0
 18 23  1  0  0  0  0
 19 18  2  0  0  0  0
 20 19  1  0  0  0  0
 20 21  2  0  0  0  0
 21 22  1  0  0  0  0
 22 23  2  0  0  0  0
 22  1  1  0  0  0  0
 25 19  1  0  0  0  0
 26 20  1  0  0  0  0
M  END
>  <minimizedAffinity>
-4.55929136

>  <minimizedRMSD>
1.02138543

$$$$
