
 OpenBabel03252508563D

 25 26  0  0  0  0  0  0  0  0999 V2000
   47.8030   35.3250   41.9070 C   0  0  0  0  0  0  0  0  0  0  0  0
   47.8370   36.3980   41.6250 H   0  0  0  0  0  0  0  0  0  0  0  0
   48.1870   35.2240   42.9350 H   0  0  0  0  0  0  0  0  0  0  0  0
   48.7080   34.5540   40.9850 C   0  0  0  0  0  0  0  0  0  0  0  0
   48.2050   34.4760   39.5870 C   0  0  0  0  0  0  0  0  0  0  0  0
   48.7580   35.1410   38.8790 H   0  0  0  0  0  0  0  0  0  0  0  0
   48.0980   33.0980   39.0320 C   0  0  0  0  0  0  0  0  0  0  0  0
   48.2300   33.1700   37.9150 H   0  0  0  0  0  0  0  0  0  0  0  0
   48.9740   32.1610   39.4620 O   0  0  0  0  0  0  0  0  0  0  0  0
   49.6630   32.3780   40.6140 C   0  0  0  0  0  0  0  0  0  0  0  0
   49.8470   31.3850   41.1180 H   0  0  0  0  0  0  0  0  0  0  0  0
   48.8200   33.1540   41.5910 C   0  0  0  0  0  0  0  0  0  0  0  0
   49.2330   33.2210   42.6030 H   0  0  0  0  0  0  0  0  0  0  0  0
   46.3610   34.8330   41.8360 C   0  0  0  0  0  0  0  0  0  0  0  0
   45.7550   35.4880   41.2040 H   0  0  0  0  0  0  0  0  0  0  0  0
   46.3430   33.8210   41.3870 H   0  0  0  0  0  0  0  0  0  0  0  0
   44.4620   35.9740   44.8970 C   0  0  0  0  0  0  0  0  0  0  0  0
   44.9870   35.9410   43.5940 C   0  0  0  0  0  0  0  0  0  0  0  0
   45.8030   34.8740   43.2090 C   0  0  0  0  0  0  0  0  0  0  0  0
   46.0450   33.9030   44.1520 N   0  0  0  0  0  0  0  0  0  0  0  0
   45.5260   33.9750   45.3790 C   0  0  0  0  0  0  0  0  0  0  0  0
   44.7430   34.9850   45.7680 N   0  0  0  0  0  0  0  0  0  0  0  0
   43.8450   36.8370   45.0980 H   0  0  0  0  0  0  0  0  0  0  0  0
   44.7780   36.7150   42.8820 H   0  0  0  0  0  0  0  0  0  0  0  0
   45.7970   33.1410   46.0270 H   0  0  0  0  0  0  0  0  0  0  0  0
  1  3  1  0  0  0  0
  2  1  1  0  0  0  0
  4 12  1  0  0  0  0
  4  1  1  0  0  0  0
  5  4  1  0  0  0  0
  6  5  1  0  0  0  0
  7  9  1  0  0  0  0
  7  5  1  0  0  0  0
  8  7  1  0  0  0  0
  9 10  1  0  0  0  0
 10 11  1  0  0  0  0
 10 12  1  0  0  0  0
 12 13  1  0  0  0  0
 14  1  1  0  0  0  0
 14 19  1  0  0  0  0
 15 14  1  0  0  0  0
 16 14  1  0  0  0  0
 17 23  1  0  0  0  0
 17 22  1  0  0  0  0
 18 17  2  0  0  0  0
 19 18  1  0  0  0  0
 19 20  2  0  0  0  0
 20 21  1  0  0  0  0
 21 22  2  0  0  0  0
 21 25  1  0  0  0  0
 24 18  1  0  0  0  0
M  END
>  <minimizedAffinity>
-4.37503386

>  <minimizedRMSD>
2.18758392

$$$$
