
 OpenBabel03252500113D

 32 34  0  0  0  0  0  0  0  0999 V2000
   45.5100   32.0510   40.7300 Cl  0  0  0  0  0  0  0  0  0  0  0  0
   46.7270   33.2010   40.2650 C   0  0  0  0  0  0  0  0  0  0  0  0
   47.2920   34.0350   41.1910 C   0  0  0  0  0  0  0  0  0  0  0  0
   48.2760   34.9760   40.8570 C   0  0  0  0  0  0  0  0  0  0  0  0
   48.6430   35.0080   39.5170 C   0  0  0  0  0  0  0  0  0  0  0  0
   48.0790   34.1710   38.5860 C   0  0  0  0  0  0  0  0  0  0  0  0
   47.1230   33.2660   38.9410 C   0  0  0  0  0  0  0  0  0  0  0  0
   48.7000   35.6180   41.6150 H   0  0  0  0  0  0  0  0  0  0  0  0
   49.4040   35.7400   39.2800 H   0  0  0  0  0  0  0  0  0  0  0  0
   48.4600   34.3080   37.5870 H   0  0  0  0  0  0  0  0  0  0  0  0
   46.5330   32.3820   37.9200 C   0  0  0  0  0  0  0  0  0  0  0  0
   45.5710   33.1170   37.0100 C   0  0  0  0  0  0  0  0  0  0  0  0
   44.5150   32.9490   37.3730 H   0  0  0  0  0  0  0  0  0  0  0  0
   45.5950   32.5640   35.6000 C   0  0  0  0  0  0  0  0  0  0  0  0
   44.6160   32.8260   35.1220 H   0  0  0  0  0  0  0  0  0  0  0  0
   45.6290   31.1760   35.7380 O   0  0  0  0  0  0  0  0  0  0  0  0
   46.8930   30.7550   36.1290 C   0  0  0  0  0  0  0  0  0  0  0  0
   47.5510   30.5150   35.2560 H   0  0  0  0  0  0  0  0  0  0  0  0
   47.5940   31.7870   37.0090 C   0  0  0  0  0  0  0  0  0  0  0  0
   48.0240   32.5860   36.3660 H   0  0  0  0  0  0  0  0  0  0  0  0
   46.9410   32.9130   44.6820 C   0  0  0  0  0  0  0  0  0  0  0  0
   46.0020   33.8370   45.2100 C   0  0  0  0  0  0  0  0  0  0  0  0
   45.5200   34.8110   44.3590 C   0  0  0  0  0  0  0  0  0  0  0  0
   45.9530   34.8500   43.0730 N   0  0  0  0  0  0  0  0  0  0  0  0
   46.8580   33.9490   42.5880 C   0  0  0  0  0  0  0  0  0  0  0  0
   47.3360   32.9980   43.3990 N   0  0  0  0  0  0  0  0  0  0  0  0
   47.3290   32.1440   45.3350 H   0  0  0  0  0  0  0  0  0  0  0  0
   45.6600   33.8010   46.2340 H   0  0  0  0  0  0  0  0  0  0  0  0
   44.5210   35.8450   44.7980 C   0  0  0  0  0  0  0  0  0  0  0  0
   44.9900   37.1170   44.5480 F   0  0  0  0  0  0  0  0  0  0  0  0
   43.3400   35.6700   44.0770 F   0  0  0  0  0  0  0  0  0  0  0  0
   44.2990   35.6420   46.1330 F   0  0  0  0  0  0  0  0  0  0  0  0
  2  1  1  0  0  0  0
  2  3  1  0  0  0  0
  3 25  1  0  0  0  0
  4  3  2  0  0  0  0
  4  8  1  0  0  0  0
  5  4  1  0  0  0  0
  6  7  1  0  0  0  0
  6  5  2  0  0  0  0
  7  2  2  0  0  0  0
  9  5  1  0  0  0  0
 10  6  1  0  0  0  0
 11  7  1  0  0  0  0
 12 13  1  0  0  0  0
 12 11  1  0  0  0  0
 14 16  1  0  0  0  0
 14 12  1  0  0  0  0
 15 14  1  0  0  0  0
 16 17  1  0  0  0  0
 17 19  1  0  0  0  0
 18 17  1  0  0  0  0
 19 11  1  0  0  0  0
 20 19  1  0  0  0  0
 21 22  1  0  0  0  0
 21 27  1  0  0  0  0
 22 28  1  0  0  0  0
 23 29  1  0  0  0  0
 23 22  2  0  0  0  0
 24 23  1  0  0  0  0
 25 24  2  0  0  0  0
 25 26  1  0  0  0  0
 26 21  2  0  0  0  0
 29 32  1  0  0  0  0
 30 29  1  0  0  0  0
 31 29  1  0  0  0  0
M  END
>  <minimizedAffinity>
-5.64450216

>  <minimizedRMSD>
1.68630087

$$$$
