
 OpenBabel03242515413D

 37 40  0  0  0  0  0  0  0  0999 V2000
   36.8550   28.7090   41.9630 C   0  0  0  0  0  0  0  0  0  0  0  0
   37.6540   29.8150   41.8540 C   0  0  0  0  0  0  0  0  0  0  0  0
   37.2530   30.7940   40.9250 C   0  0  0  0  0  0  0  0  0  0  0  0
   36.1310   30.5930   40.2090 N   0  0  0  0  0  0  0  0  0  0  0  0
   35.3730   29.4930   40.3450 C   0  0  0  0  0  0  0  0  0  0  0  0
   35.7580   28.5730   41.2260 N   0  0  0  0  0  0  0  0  0  0  0  0
   38.5340   29.9500   42.4290 H   0  0  0  0  0  0  0  0  0  0  0  0
   38.1050   31.9910   40.7970 C   0  0  0  0  0  3  0  0  0  0  0  0
   39.4480   31.6530   40.1530 C   0  0  0  0  0  3  0  0  0  0  0  0
   39.7770   30.6830   40.5310 H   0  0  0  0  0  0  0  0  0  0  0  0
   40.3730   32.8070   40.5370 C   0  0  0  0  0  3  0  0  0  0  0  0
   41.1200   33.0400   39.7690 H   0  0  0  0  0  0  0  0  0  0  0  0
   39.6320   33.9640   40.7990 O   0  0  0  0  0  0  0  0  0  0  0  0
   38.6080   34.1600   39.8700 C   0  0  0  0  0  3  0  0  0  0  0  0
   38.2060   35.1860   40.1170 H   0  0  0  0  0  0  0  0  0  0  0  0
   37.5250   33.1000   39.9670 C   0  0  0  0  0  3  0  0  0  0  0  0
   36.6450   33.5840   40.3990 H   0  0  0  0  0  0  0  0  0  0  0  0
   37.3970   27.4720   43.1660 S   0  0  0  0  0  0  0  0  0  0  0  0
   39.0060   25.4060   42.5740 C   0  0  0  0  0  0  0  0  0  0  0  0
   37.7340   25.9220   42.3600 C   0  0  0  0  0  0  0  0  0  0  0  0
   36.8350   25.2460   41.5750 C   0  0  0  0  0  0  0  0  0  0  0  0
   37.1400   24.0450   40.9690 C   0  0  0  0  0  0  0  0  0  0  0  0
   38.4330   23.5230   41.1870 C   0  0  0  0  0  0  0  0  0  0  0  0
   39.3540   24.1870   41.9760 C   0  0  0  0  0  0  0  0  0  0  0  0
   38.5000   22.3130   40.4780 O   0  0  0  0  0  0  0  0  0  0  0  0
   37.4140   22.2990   39.5980 C   0  0  0  0  0  0  0  0  0  0  0  0
   36.4460   23.1640   40.1430 O   0  0  0  0  0  0  0  0  0  0  0  0
   39.7470   25.9060   43.1870 H   0  0  0  0  0  0  0  0  0  0  0  0
   35.8530   25.6870   41.4350 H   0  0  0  0  0  0  0  0  0  0  0  0
   40.3440   23.7710   42.1320 H   0  0  0  0  0  0  0  0  0  0  0  0
   37.6820   22.5340   38.5510 H   0  0  0  0  0  0  0  0  0  0  0  0
   36.9800   21.2720   39.6250 H   0  0  0  0  0  0  0  0  0  0  0  0
   34.2230   29.2310   39.6500 O   0  0  0  0  0  0  0  0  0  0  0  0
   34.3130   28.8440   38.3080 C   0  0  0  0  0  0  0  0  0  0  0  0
   35.0570   29.6930   37.5440 F   0  0  0  0  0  0  0  0  0  0  0  0
   34.8290   27.5350   38.3330 F   0  0  0  0  0  0  0  0  0  0  0  0
   33.0080   28.8310   37.8000 F   0  0  0  0  0  0  0  0  0  0  0  0
  1 18  1  0  0  0  0
  2  1  1  0  0  0  0
  2  7  1  0  0  0  0
  3  2  2  0  0  0  0
  4  5  2  0  0  0  0
  4  3  1  0  0  0  0
  5  6  1  0  0  0  0
  6  1  2  0  0  0  0
  8  3  1  0  0  0  0
  9 10  1  0  0  0  0
  9 11  1  0  0  0  0
  9  8  1  0  0  0  0
 11 13  1  0  0  0  0
 12 11  1  0  0  0  0
 14 16  1  0  0  0  0
 14 15  1  0  0  0  0
 14 13  1  0  0  0  0
 16 17  1  0  0  0  0
 16  8  1  0  0  0  0
 19 28  1  0  0  0  0
 20 19  1  0  0  0  0
 20 18  1  0  0  0  0
 21 20  2  0  0  0  0
 22 23  2  0  0  0  0
 22 21  1  0  0  0  0
 23 24  1  0  0  0  0
 24 30  1  0  0  0  0
 24 19  2  0  0  0  0
 25 23  1  0  0  0  0
 26 32  1  0  0  0  0
 26 27  1  0  0  0  0
 26 25  1  0  0  0  0
 27 22  1  0  0  0  0
 29 21  1  0  0  0  0
 31 26  1  0  0  0  0
 33  5  1  0  0  0  0
 34 36  1  0  0  0  0
 34 33  1  0  0  0  0
 35 34  1  0  0  0  0
 37 34  1  0  0  0  0
M  END
>  <minimizedAffinity>
-6.12500954

$$$$

 OpenBabel03242515413D

 37 40  0  0  0  0  0  0  0  0999 V2000
   36.5830   29.0570   41.3920 C   0  0  0  0  0  0  0  0  0  0  0  0
   35.9980   28.6690   40.2170 C   0  0  0  0  0  0  0  0  0  0  0  0
   35.9800   29.6190   39.1780 C   0  0  0  0  0  0  0  0  0  0  0  0
   36.5260   30.8310   39.3920 N   0  0  0  0  0  0  0  0  0  0  0  0
   37.0920   31.1730   40.5600 C   0  0  0  0  0  0  0  0  0  0  0  0
   37.1060   30.2700   41.5370 N   0  0  0  0  0  0  0  0  0  0  0  0
   35.5740   27.7090   40.0730 H   0  0  0  0  0  0  0  0  0  0  0  0
   35.3530   29.2150   37.9060 C   0  0  0  0  0  3  0  0  0  0  0  0
   36.3790   29.1390   36.7770 C   0  0  0  0  0  3  0  0  0  0  0  0
   37.0840   29.9640   36.8970 H   0  0  0  0  0  0  0  0  0  0  0  0
   35.5590   29.2150   35.4900 C   0  0  0  0  0  3  0  0  0  0  0  0
   35.9900   28.6380   34.6640 H   0  0  0  0  0  0  0  0  0  0  0  0
   34.2540   28.7620   35.7120 O   0  0  0  0  0  0  0  0  0  0  0  0
   34.2180   27.6120   36.5040 C   0  0  0  0  0  3  0  0  0  0  0  0
   33.1380   27.2880   36.4690 H   0  0  0  0  0  0  0  0  0  0  0  0
   34.6760   27.8740   37.9290 C   0  0  0  0  0  3  0  0  0  0  0  0
   33.7860   27.8190   38.5620 H   0  0  0  0  0  0  0  0  0  0  0  0
   36.5910   27.8140   42.7060 S   0  0  0  0  0  0  0  0  0  0  0  0
   38.1090   25.6540   42.2190 C   0  0  0  0  0  0  0  0  0  0  0  0
   38.1420   26.9430   42.7340 C   0  0  0  0  0  0  0  0  0  0  0  0
   39.3150   27.4660   43.2190 C   0  0  0  0  0  0  0  0  0  0  0  0
   40.4960   26.7540   43.2210 C   0  0  0  0  0  0  0  0  0  0  0  0
   40.4590   25.4440   42.6960 C   0  0  0  0  0  0  0  0  0  0  0  0
   39.2890   24.8980   42.2020 C   0  0  0  0  0  0  0  0  0  0  0  0
   41.7630   24.9330   42.8060 O   0  0  0  0  0  0  0  0  0  0  0  0
   42.4570   25.7800   43.6760 C   0  0  0  0  0  0  0  0  0  0  0  0
   41.7970   27.0230   43.6360 O   0  0  0  0  0  0  0  0  0  0  0  0
   37.2060   25.2020   41.8250 H   0  0  0  0  0  0  0  0  0  0  0  0
   39.2940   28.4780   43.6120 H   0  0  0  0  0  0  0  0  0  0  0  0
   39.2800   23.8890   41.8040 H   0  0  0  0  0  0  0  0  0  0  0  0
   42.5770   25.3720   44.6980 H   0  0  0  0  0  0  0  0  0  0  0  0
   43.4720   25.9390   43.2430 H   0  0  0  0  0  0  0  0  0  0  0  0
   37.6640   32.3850   40.8400 O   0  0  0  0  0  0  0  0  0  0  0  0
   38.0720   33.2050   39.7820 C   0  0  0  0  0  0  0  0  0  0  0  0
   38.7360   32.5350   38.7970 F   0  0  0  0  0  0  0  0  0  0  0  0
   36.8990   33.8320   39.3250 F   0  0  0  0  0  0  0  0  0  0  0  0
   38.9430   34.1610   40.3200 F   0  0  0  0  0  0  0  0  0  0  0  0
  1  6  1  0  0  0  0
  1 18  1  0  0  0  0
  2  1  2  0  0  0  0
  3  4  2  0  0  0  0
  3  2  1  0  0  0  0
  4  5  1  0  0  0  0
  5 33  1  0  0  0  0
  5  6  2  0  0  0  0
  7  2  1  0  0  0  0
  8 16  1  0  0  0  0
  8  3  1  0  0  0  0
  9 10  1  0  0  0  0
  9  8  1  0  0  0  0
 11 13  1  0  0  0  0
 11  9  1  0  0  0  0
 12 11  1  0  0  0  0
 13 14  1  0  0  0  0
 14 16  1  0  0  0  0
 15 14  1  0  0  0  0
 16 17  1  0  0  0  0
 18 20  1  0  0  0  0
 19 20  1  0  0  0  0
 20 21  2  0  0  0  0
 21 22  1  0  0  0  0
 21 29  1  0  0  0  0
 22 27  1  0  0  0  0
 23 25  1  0  0  0  0
 23 22  2  0  0  0  0
 24 19  2  0  0  0  0
 24 23  1  0  0  0  0
 25 26  1  0  0  0  0
 26 31  1  0  0  0  0
 27 26  1  0  0  0  0
 28 19  1  0  0  0  0
 30 24  1  0  0  0  0
 32 26  1  0  0  0  0
 34 37  1  0  0  0  0
 34 33  1  0  0  0  0
 35 34  1  0  0  0  0
 36 34  1  0  0  0  0
M  END
>  <minimizedAffinity>
-5.95193863

$$$$

 OpenBabel03242515413D

 37 40  0  0  0  0  0  0  0  0999 V2000
   35.4840   28.6000   37.9000 C   0  0  0  0  0  0  0  0  0  0  0  0
   35.9090   27.7950   38.9230 C   0  0  0  0  0  0  0  0  0  0  0  0
   36.8260   28.3600   39.8310 C   0  0  0  0  0  0  0  0  0  0  0  0
   37.2260   29.6320   39.6470 N   0  0  0  0  0  0  0  0  0  0  0  0
   36.7850   30.3890   38.6310 C   0  0  0  0  0  0  0  0  0  0  0  0
   35.9190   29.8490   37.7770 N   0  0  0  0  0  0  0  0  0  0  0  0
   35.5790   26.7950   39.0450 H   0  0  0  0  0  0  0  0  0  0  0  0
   37.2920   27.5040   40.9370 C   0  0  0  0  0  3  0  0  0  0  0  0
   36.6470   27.9050   42.2620 C   0  0  0  0  0  3  0  0  0  0  0  0
   36.5760   28.9940   42.2950 H   0  0  0  0  0  0  0  0  0  0  0  0
   37.5550   27.3160   43.3400 C   0  0  0  0  0  3  0  0  0  0  0  0
   37.0160   27.0050   44.2430 H   0  0  0  0  0  0  0  0  0  0  0  0
   38.2570   26.2130   42.8430 O   0  0  0  0  0  0  0  0  0  0  0  0
   37.4510   25.3780   42.0660 C   0  0  0  0  0  3  0  0  0  0  0  0
   38.1010   24.4760   41.8670 H   0  0  0  0  0  0  0  0  0  0  0  0
   37.0030   26.0390   40.7740 C   0  0  0  0  0  3  0  0  0  0  0  0
   37.5510   25.5510   39.9630 H   0  0  0  0  0  0  0  0  0  0  0  0
   34.3070   27.8450   36.7530 S   0  0  0  0  0  0  0  0  0  0  0  0
   32.9930   29.4150   35.0180 C   0  0  0  0  0  0  0  0  0  0  0  0
   33.0120   28.9920   36.3410 C   0  0  0  0  0  0  0  0  0  0  0  0
   32.0760   29.4560   37.2310 C   0  0  0  0  0  0  0  0  0  0  0  0
   31.0880   30.3470   36.8660 C   0  0  0  0  0  0  0  0  0  0  0  0
   31.0700   30.7750   35.5210 C   0  0  0  0  0  0  0  0  0  0  0  0
   32.0030   30.3200   34.6080 C   0  0  0  0  0  0  0  0  0  0  0  0
   29.9900   31.6630   35.3990 O   0  0  0  0  0  0  0  0  0  0  0  0
   29.6030   32.0100   36.6970 C   0  0  0  0  0  0  0  0  0  0  0  0
   30.0370   30.9670   37.5370 O   0  0  0  0  0  0  0  0  0  0  0  0
   33.7120   29.0750   34.2820 H   0  0  0  0  0  0  0  0  0  0  0  0
   32.1300   29.0990   38.2540 H   0  0  0  0  0  0  0  0  0  0  0  0
   31.9750   30.6610   33.5780 H   0  0  0  0  0  0  0  0  0  0  0  0
   29.9490   33.0120   37.0160 H   0  0  0  0  0  0  0  0  0  0  0  0
   28.4880   32.0030   36.7240 H   0  0  0  0  0  0  0  0  0  0  0  0
   37.1520   31.6860   38.3900 O   0  0  0  0  0  0  0  0  0  0  0  0
   37.3360   32.5530   39.4730 C   0  0  0  0  0  0  0  0  0  0  0  0
   36.6570   32.1770   40.5950 F   0  0  0  0  0  0  0  0  0  0  0  0
   38.7280   32.6120   39.6690 F   0  0  0  0  0  0  0  0  0  0  0  0
   36.8580   33.8080   39.0760 F   0  0  0  0  0  0  0  0  0  0  0  0
  1  2  1  0  0  0  0
  2  7  1  0  0  0  0
  2  3  2  0  0  0  0
  3  8  1  0  0  0  0
  4  3  1  0  0  0  0
  5  4  2  0  0  0  0
  6  1  2  0  0  0  0
  6  5  1  0  0  0  0
  8  9  1  0  0  0  0
  9 10  1  0  0  0  0
  9 11  1  0  0  0  0
 11 12  1  0  0  0  0
 13 11  1  0  0  0  0
 14 13  1  0  0  0  0
 15 14  1  0  0  0  0
 16  8  1  0  0  0  0
 16 14  1  0  0  0  0
 17 16  1  0  0  0  0
 18  1  1  0  0  0  0
 19 20  1  0  0  0  0
 20 18  1  0  0  0  0
 20 21  2  0  0  0  0
 21 29  1  0  0  0  0
 22 21  1  0  0  0  0
 22 27  1  0  0  0  0
 23 22  2  0  0  0  0
 24 19  2  0  0  0  0
 24 23  1  0  0  0  0
 25 23  1  0  0  0  0
 25 26  1  0  0  0  0
 26 32  1  0  0  0  0
 26 31  1  0  0  0  0
 26 27  1  0  0  0  0
 28 19  1  0  0  0  0
 30 24  1  0  0  0  0
 33  5  1  0  0  0  0
 33 34  1  0  0  0  0
 34 36  1  0  0  0  0
 34 35  1  0  0  0  0
 37 34  1  0  0  0  0
M  END
>  <minimizedAffinity>
-5.90217113

$$$$

 OpenBabel03242515413D

 37 40  0  0  0  0  0  0  0  0999 V2000
   38.0650   26.6090   42.9640 C   0  0  0  0  0  0  0  0  0  0  0  0
   37.3040   25.8310   42.1330 C   0  0  0  0  0  0  0  0  0  0  0  0
   37.8940   24.6400   41.6690 C   0  0  0  0  0  0  0  0  0  0  0  0
   39.1460   24.3370   42.0570 N   0  0  0  0  0  0  0  0  0  0  0  0
   39.8610   25.1270   42.8740 C   0  0  0  0  0  0  0  0  0  0  0  0
   39.2960   26.2510   43.3100 N   0  0  0  0  0  0  0  0  0  0  0  0
   36.3190   26.0920   41.8410 H   0  0  0  0  0  0  0  0  0  0  0  0
   37.0850   23.7930   40.7730 C   0  0  0  0  0  3  0  0  0  0  0  0
   36.6420   24.5610   39.5290 C   0  0  0  0  0  3  0  0  0  0  0  0
   36.3930   25.5810   39.8250 H   0  0  0  0  0  0  0  0  0  0  0  0
   35.4530   23.7740   38.9800 C   0  0  0  0  0  3  0  0  0  0  0  0
   35.3760   23.8060   37.8860 H   0  0  0  0  0  0  0  0  0  0  0  0
   35.5230   22.4350   39.3780 O   0  0  0  0  0  0  0  0  0  0  0  0
   36.8170   21.9180   39.2770 C   0  0  0  0  0  3  0  0  0  0  0  0
   36.6900   20.8160   39.4820 H   0  0  0  0  0  0  0  0  0  0  0  0
   37.7780   22.5610   40.2640 C   0  0  0  0  0  3  0  0  0  0  0  0
   37.9970   21.8090   41.0270 H   0  0  0  0  0  0  0  0  0  0  0  0
   37.2780   28.1310   43.5430 S   0  0  0  0  0  0  0  0  0  0  0  0
   39.0170   30.0010   42.7170 C   0  0  0  0  0  0  0  0  0  0  0  0
   37.7360   29.5040   42.5100 C   0  0  0  0  0  0  0  0  0  0  0  0
   36.9190   30.0670   41.5630 C   0  0  0  0  0  0  0  0  0  0  0  0
   37.3170   31.1330   40.7830 C   0  0  0  0  0  0  0  0  0  0  0  0
   38.6190   31.6360   40.9950 C   0  0  0  0  0  0  0  0  0  0  0  0
   39.4590   31.0830   41.9440 C   0  0  0  0  0  0  0  0  0  0  0  0
   38.7860   32.7010   40.0950 O   0  0  0  0  0  0  0  0  0  0  0  0
   37.5150   33.0320   39.6190 C   0  0  0  0  0  0  0  0  0  0  0  0
   36.7170   31.8830   39.7750 O   0  0  0  0  0  0  0  0  0  0  0  0
   39.6950   29.5870   43.4540 H   0  0  0  0  0  0  0  0  0  0  0  0
   35.9260   29.6470   41.4360 H   0  0  0  0  0  0  0  0  0  0  0  0
   40.4560   31.4840   42.0930 H   0  0  0  0  0  0  0  0  0  0  0  0
   37.0840   33.9400   40.0830 H   0  0  0  0  0  0  0  0  0  0  0  0
   37.6090   33.2130   38.5220 H   0  0  0  0  0  0  0  0  0  0  0  0
   41.1350   24.8760   43.3060 O   0  0  0  0  0  0  0  0  0  0  0  0
   42.2100   25.4710   42.6360 C   0  0  0  0  0  0  0  0  0  0  0  0
   42.1060   26.8270   42.5320 F   0  0  0  0  0  0  0  0  0  0  0  0
   43.3580   25.0620   43.3400 F   0  0  0  0  0  0  0  0  0  0  0  0
   42.2300   24.9360   41.3420 F   0  0  0  0  0  0  0  0  0  0  0  0
  1  6  1  0  0  0  0
  1 18  1  0  0  0  0
  2  1  2  0  0  0  0
  3  4  2  0  0  0  0
  3  2  1  0  0  0  0
  4  5  1  0  0  0  0
  5 33  1  0  0  0  0
  5  6  2  0  0  0  0
  7  2  1  0  0  0  0
  8  3  1  0  0  0  0
  9 10  1  0  0  0  0
  9  8  1  0  0  0  0
 11 13  1  0  0  0  0
 11  9  1  0  0  0  0
 12 11  1  0  0  0  0
 14 13  1  0  0  0  0
 14 15  1  0  0  0  0
 14 16  1  0  0  0  0
 16  8  1  0  0  0  0
 16 17  1  0  0  0  0
 19 28  1  0  0  0  0
 20 19  1  0  0  0  0
 20 18  1  0  0  0  0
 21 20  2  0  0  0  0
 22 23  2  0  0  0  0
 22 21  1  0  0  0  0
 23 24  1  0  0  0  0
 24 30  1  0  0  0  0
 24 19  2  0  0  0  0
 25 23  1  0  0  0  0
 26 27  1  0  0  0  0
 26 31  1  0  0  0  0
 26 25  1  0  0  0  0
 27 22  1  0  0  0  0
 29 21  1  0  0  0  0
 32 26  1  0  0  0  0
 34 33  1  0  0  0  0
 34 36  1  0  0  0  0
 35 34  1  0  0  0  0
 37 34  1  0  0  0  0
M  END
>  <minimizedAffinity>
-5.89246655

$$$$

 OpenBabel03242515413D

 37 40  0  0  0  0  0  0  0  0999 V2000
   34.0630   29.0040   36.4020 C   0  0  0  0  0  0  0  0  0  0  0  0
   34.6880   29.0270   37.6200 C   0  0  0  0  0  0  0  0  0  0  0  0
   36.0410   29.4170   37.6280 C   0  0  0  0  0  0  0  0  0  0  0  0
   36.6340   29.7380   36.4640 N   0  0  0  0  0  0  0  0  0  0  0  0
   35.9870   29.7040   35.2880 C   0  0  0  0  0  0  0  0  0  0  0  0
   34.7090   29.3350   35.2880 N   0  0  0  0  0  0  0  0  0  0  0  0
   34.1980   28.7690   38.5230 H   0  0  0  0  0  0  0  0  0  0  0  0
   36.7250   29.4460   38.9340 C   0  0  0  0  0  3  0  0  0  0  0  0
   36.3350   30.6830   39.7410 C   0  0  0  0  0  3  0  0  0  0  0  0
   36.2500   31.5280   39.0560 H   0  0  0  0  0  0  0  0  0  0  0  0
   37.4430   30.8440   40.7800 C   0  0  0  0  0  3  0  0  0  0  0  0
   37.0910   31.2590   41.7320 H   0  0  0  0  0  0  0  0  0  0  0  0
   38.0590   29.6150   41.0360 O   0  0  0  0  0  0  0  0  0  0  0  0
   37.1380   28.5710   41.1440 C   0  0  0  0  0  3  0  0  0  0  0  0
   37.7570   27.6930   41.4930 H   0  0  0  0  0  0  0  0  0  0  0  0
   36.4410   28.2720   39.8280 C   0  0  0  0  0  3  0  0  0  0  0  0
   36.8350   27.3170   39.4700 H   0  0  0  0  0  0  0  0  0  0  0  0
   32.3270   28.5010   36.4260 S   0  0  0  0  0  0  0  0  0  0  0  0
   30.6740   30.5110   37.0810 C   0  0  0  0  0  0  0  0  0  0  0  0
   31.2720   29.8700   36.0040 C   0  0  0  0  0  0  0  0  0  0  0  0
   31.0370   30.3000   34.7230 C   0  0  0  0  0  0  0  0  0  0  0  0
   30.2100   31.3680   34.4430 C   0  0  0  0  0  0  0  0  0  0  0  0
   29.6040   32.0190   35.5390 C   0  0  0  0  0  0  0  0  0  0  0  0
   29.8280   31.6020   36.8380 C   0  0  0  0  0  0  0  0  0  0  0  0
   28.8230   33.0570   35.0050 O   0  0  0  0  0  0  0  0  0  0  0  0
   28.7010   32.8080   33.6340 C   0  0  0  0  0  0  0  0  0  0  0  0
   29.8000   32.0050   33.2740 O   0  0  0  0  0  0  0  0  0  0  0  0
   30.8330   30.2060   38.1090 H   0  0  0  0  0  0  0  0  0  0  0  0
   31.5250   29.7680   33.9120 H   0  0  0  0  0  0  0  0  0  0  0  0
   29.3520   32.1140   37.6680 H   0  0  0  0  0  0  0  0  0  0  0  0
   27.7240   32.3810   33.3410 H   0  0  0  0  0  0  0  0  0  0  0  0
   28.8270   33.7830   33.1080 H   0  0  0  0  0  0  0  0  0  0  0  0
   36.5320   30.0190   34.0730 O   0  0  0  0  0  0  0  0  0  0  0  0
   36.4100   31.3270   33.5910 C   0  0  0  0  0  0  0  0  0  0  0  0
   35.1250   31.6920   33.3200 F   0  0  0  0  0  0  0  0  0  0  0  0
   37.0160   32.1390   34.5680 F   0  0  0  0  0  0  0  0  0  0  0  0
   37.1410   31.3920   32.3980 F   0  0  0  0  0  0  0  0  0  0  0  0
  1 18  1  0  0  0  0
  1  2  1  0  0  0  0
  2  3  2  0  0  0  0
  2  7  1  0  0  0  0
  3  8  1  0  0  0  0
  4  3  1  0  0  0  0
  5  4  2  0  0  0  0
  6  5  1  0  0  0  0
  6  1  2  0  0  0  0
  8  9  1  0  0  0  0
  8 16  1  0  0  0  0
  9 11  1  0  0  0  0
 10  9  1  0  0  0  0
 11 13  1  0  0  0  0
 11 12  1  0  0  0  0
 13 14  1  0  0  0  0
 14 15  1  0  0  0  0
 16 14  1  0  0  0  0
 17 16  1  0  0  0  0
 19 28  1  0  0  0  0
 20 18  1  0  0  0  0
 20 19  2  0  0  0  0
 21 20  1  0  0  0  0
 22 21  2  0  0  0  0
 22 23  1  0  0  0  0
 23 24  2  0  0  0  0
 24 19  1  0  0  0  0
 24 30  1  0  0  0  0
 25 23  1  0  0  0  0
 26 25  1  0  0  0  0
 27 26  1  0  0  0  0
 27 22  1  0  0  0  0
 29 21  1  0  0  0  0
 31 26  1  0  0  0  0
 32 26  1  0  0  0  0
 33  5  1  0  0  0  0
 34 33  1  0  0  0  0
 34 36  1  0  0  0  0
 35 34  1  0  0  0  0
 37 34  1  0  0  0  0
M  END
>  <minimizedAffinity>
-5.83871508

$$$$

 OpenBabel03242515413D

 37 40  0  0  0  0  0  0  0  0999 V2000
   39.1080   30.9380   40.3860 C   0  0  0  0  0  0  0  0  0  0  0  0
   38.1240   30.3820   39.6140 C   0  0  0  0  0  0  0  0  0  0  0  0
   38.0210   30.8490   38.2900 C   0  0  0  0  0  0  0  0  0  0  0  0
   38.8770   31.7970   37.8640 N   0  0  0  0  0  0  0  0  0  0  0  0
   39.8300   32.3180   38.6530 C   0  0  0  0  0  0  0  0  0  0  0  0
   39.9220   31.8700   39.9030 N   0  0  0  0  0  0  0  0  0  0  0  0
   37.4620   29.6370   39.9730 H   0  0  0  0  0  0  0  0  0  0  0  0
   36.9650   30.2590   37.4480 C   0  0  0  0  0  3  0  0  0  0  0  0
   37.5200   29.1540   36.5510 C   0  0  0  0  0  3  0  0  0  0  0  0
   38.5070   29.4580   36.2010 H   0  0  0  0  0  0  0  0  0  0  0  0
   36.4930   28.9990   35.4300 C   0  0  0  0  0  3  0  0  0  0  0  0
   36.4030   27.9710   35.0600 H   0  0  0  0  0  0  0  0  0  0  0  0
   35.2310   29.4250   35.8580 O   0  0  0  0  0  0  0  0  0  0  0  0
   34.9340   28.9900   37.1520 C   0  0  0  0  0  3  0  0  0  0  0  0
   33.8520   29.2750   37.2960 H   0  0  0  0  0  0  0  0  0  0  0  0
   35.8240   29.6350   38.2000 C   0  0  0  0  0  3  0  0  0  0  0  0
   35.2000   30.3410   38.7550 H   0  0  0  0  0  0  0  0  0  0  0  0
   39.2140   30.3160   42.0810 S   0  0  0  0  0  0  0  0  0  0  0  0
   37.2900   28.6370   42.9060 C   0  0  0  0  0  0  0  0  0  0  0  0
   38.4840   28.6980   42.2000 C   0  0  0  0  0  0  0  0  0  0  0  0
   39.0230   27.5630   41.6500 C   0  0  0  0  0  0  0  0  0  0  0  0
   38.4210   26.3270   41.7670 C   0  0  0  0  0  0  0  0  0  0  0  0
   37.2070   26.2680   42.4850 C   0  0  0  0  0  0  0  0  0  0  0  0
   36.6460   27.3990   43.0470 C   0  0  0  0  0  0  0  0  0  0  0  0
   36.7970   24.9250   42.4650 O   0  0  0  0  0  0  0  0  0  0  0  0
   37.9000   24.1710   42.0520 C   0  0  0  0  0  0  0  0  0  0  0  0
   38.7310   25.0440   41.3250 O   0  0  0  0  0  0  0  0  0  0  0  0
   36.8280   29.5080   43.3570 H   0  0  0  0  0  0  0  0  0  0  0  0
   39.9580   27.6580   41.1070 H   0  0  0  0  0  0  0  0  0  0  0  0
   35.7130   27.3340   43.5970 H   0  0  0  0  0  0  0  0  0  0  0  0
   38.4180   23.6450   42.8760 H   0  0  0  0  0  0  0  0  0  0  0  0
   37.5260   23.4060   41.3310 H   0  0  0  0  0  0  0  0  0  0  0  0
   40.7300   33.2800   38.2810 O   0  0  0  0  0  0  0  0  0  0  0  0
   41.8790   32.9010   37.5770 C   0  0  0  0  0  0  0  0  0  0  0  0
   41.6700   31.8810   36.6980 F   0  0  0  0  0  0  0  0  0  0  0  0
   42.3370   34.0770   36.9550 F   0  0  0  0  0  0  0  0  0  0  0  0
   42.8150   32.4720   38.5270 F   0  0  0  0  0  0  0  0  0  0  0  0
  1 18  1  0  0  0  0
  2  7  1  0  0  0  0
  2  1  2  0  0  0  0
  3  2  1  0  0  0  0
  4  3  2  0  0  0  0
  4  5  1  0  0  0  0
  5  6  2  0  0  0  0
  6  1  1  0  0  0  0
  8 16  1  0  0  0  0
  8  3  1  0  0  0  0
  9  8  1  0  0  0  0
 10  9  1  0  0  0  0
 11 13  1  0  0  0  0
 11  9  1  0  0  0  0
 12 11  1  0  0  0  0
 13 14  1  0  0  0  0
 14 15  1  0  0  0  0
 14 16  1  0  0  0  0
 16 17  1  0  0  0  0
 18 20  1  0  0  0  0
 19 24  1  0  0  0  0
 19 28  1  0  0  0  0
 20 19  2  0  0  0  0
 21 22  2  0  0  0  0
 21 20  1  0  0  0  0
 22 23  1  0  0  0  0
 23 24  2  0  0  0  0
 24 30  1  0  0  0  0
 25 23  1  0  0  0  0
 26 25  1  0  0  0  0
 26 31  1  0  0  0  0
 27 22  1  0  0  0  0
 27 26  1  0  0  0  0
 29 21  1  0  0  0  0
 32 26  1  0  0  0  0
 33  5  1  0  0  0  0
 34 33  1  0  0  0  0
 34 37  1  0  0  0  0
 35 34  1  0  0  0  0
 36 34  1  0  0  0  0
M  END
>  <minimizedAffinity>
-5.71747208

$$$$

 OpenBabel03242515413D

 37 40  0  0  0  0  0  0  0  0999 V2000
   36.7250   28.5100   41.7550 C   0  0  0  0  0  0  0  0  0  0  0  0
   37.5900   29.5690   41.6770 C   0  0  0  0  0  0  0  0  0  0  0  0
   37.2480   30.5980   40.7790 C   0  0  0  0  0  0  0  0  0  0  0  0
   36.1150   30.4880   40.0610 N   0  0  0  0  0  0  0  0  0  0  0  0
   35.2920   29.4320   40.1650 C   0  0  0  0  0  0  0  0  0  0  0  0
   35.6220   28.4640   41.0170 N   0  0  0  0  0  0  0  0  0  0  0  0
   38.4770   29.6320   42.2530 H   0  0  0  0  0  0  0  0  0  0  0  0
   38.1710   31.7440   40.6850 C   0  0  0  0  0  3  0  0  0  0  0  0
   39.3650   31.4270   39.7870 C   0  0  0  0  0  3  0  0  0  0  0  0
   39.6620   30.3920   39.9620 H   0  0  0  0  0  0  0  0  0  0  0  0
   40.4340   32.4470   40.1730 C   0  0  0  0  0  3  0  0  0  0  0  0
   41.0720   32.7500   39.3340 H   0  0  0  0  0  0  0  0  0  0  0  0
   39.8460   33.5940   40.7180 O   0  0  0  0  0  0  0  0  0  0  0  0
   38.7120   33.9960   40.0090 C   0  0  0  0  0  3  0  0  0  0  0  0
   38.4430   34.9940   40.4630 H   0  0  0  0  0  0  0  0  0  0  0  0
   37.5680   33.0030   40.1300 C   0  0  0  0  0  3  0  0  0  0  0  0
   36.8110   33.4690   40.7660 H   0  0  0  0  0  0  0  0  0  0  0  0
   37.1930   27.2070   42.9180 S   0  0  0  0  0  0  0  0  0  0  0  0
   39.7630   26.9350   43.6430 C   0  0  0  0  0  0  0  0  0  0  0  0
   38.8620   26.6710   42.6190 C   0  0  0  0  0  0  0  0  0  0  0  0
   39.2790   26.0380   41.4750 C   0  0  0  0  0  0  0  0  0  0  0  0
   40.5860   25.6400   41.2860 C   0  0  0  0  0  0  0  0  0  0  0  0
   41.4990   25.9090   42.3280 C   0  0  0  0  0  0  0  0  0  0  0  0
   41.1000   26.5450   43.4890 C   0  0  0  0  0  0  0  0  0  0  0  0
   42.7440   25.4160   41.9060 O   0  0  0  0  0  0  0  0  0  0  0  0
   42.6410   25.1800   40.5310 C   0  0  0  0  0  0  0  0  0  0  0  0
   41.2720   24.9970   40.2580 O   0  0  0  0  0  0  0  0  0  0  0  0
   39.4770   27.4310   44.5630 H   0  0  0  0  0  0  0  0  0  0  0  0
   38.5410   25.8530   40.7010 H   0  0  0  0  0  0  0  0  0  0  0  0
   41.8160   26.7440   44.2800 H   0  0  0  0  0  0  0  0  0  0  0  0
   43.1200   25.9570   39.9060 H   0  0  0  0  0  0  0  0  0  0  0  0
   43.1450   24.2070   40.3230 H   0  0  0  0  0  0  0  0  0  0  0  0
   34.1280   29.2610   39.4660 O   0  0  0  0  0  0  0  0  0  0  0  0
   34.1920   28.8740   38.1230 C   0  0  0  0  0  0  0  0  0  0  0  0
   35.1000   29.5820   37.3920 F   0  0  0  0  0  0  0  0  0  0  0  0
   34.4660   27.4940   38.1480 F   0  0  0  0  0  0  0  0  0  0  0  0
   32.9230   29.0960   37.5730 F   0  0  0  0  0  0  0  0  0  0  0  0
  1 18  1  0  0  0  0
  2  1  1  0  0  0  0
  2  7  1  0  0  0  0
  3  2  2  0  0  0  0
  4  5  2  0  0  0  0
  4  3  1  0  0  0  0
  5  6  1  0  0  0  0
  6  1  2  0  0  0  0
  8  3  1  0  0  0  0
  9 10  1  0  0  0  0
  9 11  1  0  0  0  0
  9  8  1  0  0  0  0
 11 13  1  0  0  0  0
 12 11  1  0  0  0  0
 14 16  1  0  0  0  0
 14 15  1  0  0  0  0
 14 13  1  0  0  0  0
 16  8  1  0  0  0  0
 16 17  1  0  0  0  0
 19 28  1  0  0  0  0
 20 18  1  0  0  0  0
 20 19  2  0  0  0  0
 21 20  1  0  0  0  0
 22 21  2  0  0  0  0
 22 23  1  0  0  0  0
 23 24  2  0  0  0  0
 24 19  1  0  0  0  0
 24 30  1  0  0  0  0
 25 23  1  0  0  0  0
 26 25  1  0  0  0  0
 27 26  1  0  0  0  0
 27 22  1  0  0  0  0
 29 21  1  0  0  0  0
 31 26  1  0  0  0  0
 32 26  1  0  0  0  0
 33  5  1  0  0  0  0
 34 36  1  0  0  0  0
 34 33  1  0  0  0  0
 35 34  1  0  0  0  0
 37 34  1  0  0  0  0
M  END
>  <minimizedAffinity>
-5.68348074

$$$$

 OpenBabel03242515413D

 37 40  0  0  0  0  0  0  0  0999 V2000
   36.4390   29.7700   39.2310 C   0  0  0  0  0  0  0  0  0  0  0  0
   37.4320   30.6590   39.5430 C   0  0  0  0  0  0  0  0  0  0  0  0
   38.0600   31.3080   38.4620 C   0  0  0  0  0  0  0  0  0  0  0  0
   37.6600   31.0240   37.2090 N   0  0  0  0  0  0  0  0  0  0  0  0
   36.6810   30.1440   36.9440 C   0  0  0  0  0  0  0  0  0  0  0  0
   36.0910   29.5370   37.9700 N   0  0  0  0  0  0  0  0  0  0  0  0
   37.7300   30.8650   40.5390 H   0  0  0  0  0  0  0  0  0  0  0  0
   39.1320   32.2680   38.7840 C   0  0  0  0  0  3  0  0  0  0  0  0
   38.9410   32.8710   40.1740 C   0  0  0  0  0  3  0  0  0  0  0  0
   37.8750   33.0420   40.3320 H   0  0  0  0  0  0  0  0  0  0  0  0
   39.7730   34.1530   40.1680 C   0  0  0  0  0  3  0  0  0  0  0  0
   40.2100   34.3930   41.1450 H   0  0  0  0  0  0  0  0  0  0  0  0
   40.8080   34.0620   39.2310 O   0  0  0  0  0  0  0  0  0  0  0  0
   41.4350   32.8150   39.2520 C   0  0  0  0  0  3  0  0  0  0  0  0
   42.3230   32.9420   38.5670 H   0  0  0  0  0  0  0  0  0  0  0  0
   40.5220   31.6970   38.7770 C   0  0  0  0  0  3  0  0  0  0  0  0
   40.8860   31.3870   37.7940 H   0  0  0  0  0  0  0  0  0  0  0  0
   35.6510   28.9560   40.6410 S   0  0  0  0  0  0  0  0  0  0  0  0
   37.0250   28.3950   42.8780 C   0  0  0  0  0  0  0  0  0  0  0  0
   36.8420   28.0040   41.5580 C   0  0  0  0  0  0  0  0  0  0  0  0
   37.5520   26.9490   41.0420 C   0  0  0  0  0  0  0  0  0  0  0  0
   38.4660   26.2380   41.7910 C   0  0  0  0  0  0  0  0  0  0  0  0
   38.6510   26.6370   43.1320 C   0  0  0  0  0  0  0  0  0  0  0  0
   37.9450   27.6960   43.6720 C   0  0  0  0  0  0  0  0  0  0  0  0
   39.6150   25.7740   43.6760 O   0  0  0  0  0  0  0  0  0  0  0  0
   40.2240   25.1180   42.6020 C   0  0  0  0  0  0  0  0  0  0  0  0
   39.3050   25.1550   41.5370 O   0  0  0  0  0  0  0  0  0  0  0  0
   36.4860   29.2210   43.3260 H   0  0  0  0  0  0  0  0  0  0  0  0
   37.3770   26.6790   40.0050 H   0  0  0  0  0  0  0  0  0  0  0  0
   38.1010   27.9890   44.7050 H   0  0  0  0  0  0  0  0  0  0  0  0
   41.2230   25.5170   42.3410 H   0  0  0  0  0  0  0  0  0  0  0  0
   40.3420   24.0480   42.8910 H   0  0  0  0  0  0  0  0  0  0  0  0
   36.2280   29.8130   35.6960 O   0  0  0  0  0  0  0  0  0  0  0  0
   36.7900   28.7140   35.0370 C   0  0  0  0  0  0  0  0  0  0  0  0
   38.0050   28.3430   35.5330 F   0  0  0  0  0  0  0  0  0  0  0  0
   35.8250   27.6940   35.1310 F   0  0  0  0  0  0  0  0  0  0  0  0
   36.9610   29.0840   33.6970 F   0  0  0  0  0  0  0  0  0  0  0  0
  1  2  1  0  0  0  0
  1 18  1  0  0  0  0
  2  7  1  0  0  0  0
  3  8  1  0  0  0  0
  3  2  2  0  0  0  0
  4  3  1  0  0  0  0
  5  4  2  0  0  0  0
  5  6  1  0  0  0  0
  6  1  2  0  0  0  0
  8  9  1  0  0  0  0
  9 10  1  0  0  0  0
 11  9  1  0  0  0  0
 11 12  1  0  0  0  0
 13 14  1  0  0  0  0
 13 11  1  0  0  0  0
 15 14  1  0  0  0  0
 16  8  1  0  0  0  0
 16 14  1  0  0  0  0
 17 16  1  0  0  0  0
 18 20  1  0  0  0  0
 19 28  1  0  0  0  0
 19 24  1  0  0  0  0
 20 19  2  0  0  0  0
 21 20  1  0  0  0  0
 21 22  2  0  0  0  0
 22 23  1  0  0  0  0
 23 24  2  0  0  0  0
 23 25  1  0  0  0  0
 24 30  1  0  0  0  0
 26 32  1  0  0  0  0
 26 25  1  0  0  0  0
 27 22  1  0  0  0  0
 27 26  1  0  0  0  0
 29 21  1  0  0  0  0
 31 26  1  0  0  0  0
 33  5  1  0  0  0  0
 34 36  1  0  0  0  0
 34 35  1  0  0  0  0
 34 33  1  0  0  0  0
 37 34  1  0  0  0  0
M  END
>  <minimizedAffinity>
-5.64517641

$$$$

 OpenBabel03242515413D

 37 40  0  0  0  0  0  0  0  0999 V2000
   37.1370   30.8470   40.2800 C   0  0  0  0  0  0  0  0  0  0  0  0
   36.4970   30.6360   39.0890 C   0  0  0  0  0  0  0  0  0  0  0  0
   35.7310   29.4590   38.9840 C   0  0  0  0  0  0  0  0  0  0  0  0
   35.6710   28.6240   40.0380 N   0  0  0  0  0  0  0  0  0  0  0  0
   36.3140   28.8670   41.1910 C   0  0  0  0  0  0  0  0  0  0  0  0
   37.0350   29.9810   41.2820 N   0  0  0  0  0  0  0  0  0  0  0  0
   36.5600   31.3090   38.2730 H   0  0  0  0  0  0  0  0  0  0  0  0
   35.0360   29.2190   37.7060 C   0  0  0  0  0  3  0  0  0  0  0  0
   36.0270   28.9730   36.5700 C   0  0  0  0  0  3  0  0  0  0  0  0
   36.8800   29.6390   36.7070 H   0  0  0  0  0  0  0  0  0  0  0  0
   35.2380   29.2420   35.2900 C   0  0  0  0  0  3  0  0  0  0  0  0
   35.5470   28.6130   34.4470 H   0  0  0  0  0  0  0  0  0  0  0  0
   33.8700   29.0500   35.5060 O   0  0  0  0  0  0  0  0  0  0  0  0
   33.6080   27.9090   36.2690 C   0  0  0  0  0  3  0  0  0  0  0  0
   32.4850   27.8050   36.2310 H   0  0  0  0  0  0  0  0  0  0  0  0
   34.1080   28.0380   37.6970 C   0  0  0  0  0  3  0  0  0  0  0  0
   33.2250   28.1430   38.3330 H   0  0  0  0  0  0  0  0  0  0  0  0
   38.1110   32.3670   40.3820 S   0  0  0  0  0  0  0  0  0  0  0  0
   40.2800   33.4300   39.2100 C   0  0  0  0  0  0  0  0  0  0  0  0
   39.5600   32.2510   39.3570 C   0  0  0  0  0  0  0  0  0  0  0  0
   39.9790   31.1020   38.7350 C   0  0  0  0  0  0  0  0  0  0  0  0
   41.1100   31.0580   37.9470 C   0  0  0  0  0  0  0  0  0  0  0  0
   41.8400   32.2570   37.8000 C   0  0  0  0  0  0  0  0  0  0  0  0
   41.4370   33.4260   38.4180 C   0  0  0  0  0  0  0  0  0  0  0  0
   42.9310   31.9610   36.9680 O   0  0  0  0  0  0  0  0  0  0  0  0
   42.6610   30.7260   36.3700 C   0  0  0  0  0  0  0  0  0  0  0  0
   41.7530   30.0620   37.2170 O   0  0  0  0  0  0  0  0  0  0  0  0
   39.9860   34.3600   39.6830 H   0  0  0  0  0  0  0  0  0  0  0  0
   39.3850   30.2040   38.8770 H   0  0  0  0  0  0  0  0  0  0  0  0
   42.0100   34.3390   38.2930 H   0  0  0  0  0  0  0  0  0  0  0  0
   42.3180   30.8010   35.3210 H   0  0  0  0  0  0  0  0  0  0  0  0
   43.6070   30.1370   36.3850 H   0  0  0  0  0  0  0  0  0  0  0  0
   36.2920   28.0600   42.2970 O   0  0  0  0  0  0  0  0  0  0  0  0
   37.3140   27.1200   42.4730 C   0  0  0  0  0  0  0  0  0  0  0  0
   38.2370   27.4860   43.4070 F   0  0  0  0  0  0  0  0  0  0  0  0
   36.6590   25.9160   42.7900 F   0  0  0  0  0  0  0  0  0  0  0  0
   37.9690   26.9940   41.2400 F   0  0  0  0  0  0  0  0  0  0  0  0
  1 18  1  0  0  0  0
  1  6  1  0  0  0  0
  2  1  2  0  0  0  0
  3  2  1  0  0  0  0
  3  4  2  0  0  0  0
  4  5  1  0  0  0  0
  5  6  2  0  0  0  0
  5 33  1  0  0  0  0
  7  2  1  0  0  0  0
  8  3  1  0  0  0  0
  9 10  1  0  0  0  0
  9  8  1  0  0  0  0
 11 13  1  0  0  0  0
 11  9  1  0  0  0  0
 12 11  1  0  0  0  0
 13 14  1  0  0  0  0
 14 16  1  0  0  0  0
 15 14  1  0  0  0  0
 16  8  1  0  0  0  0
 16 17  1  0  0  0  0
 19 20  1  0  0  0  0
 19 28  1  0  0  0  0
 20 18  1  0  0  0  0
 21 29  1  0  0  0  0
 21 20  2  0  0  0  0
 22 21  1  0  0  0  0
 23 22  2  0  0  0  0
 23 24  1  0  0  0  0
 24 19  2  0  0  0  0
 25 23  1  0  0  0  0
 26 32  1  0  0  0  0
 26 25  1  0  0  0  0
 26 27  1  0  0  0  0
 27 22  1  0  0  0  0
 30 24  1  0  0  0  0
 31 26  1  0  0  0  0
 33 34  1  0  0  0  0
 34 36  1  0  0  0  0
 34 35  1  0  0  0  0
 37 34  1  0  0  0  0
M  END
>  <minimizedAffinity>
-5.59106445

$$$$
