
 OpenBabel03252507533D

 39 42  0  0  1  0  0  0  0  0999 V2000
   38.0170   31.1190   39.4770 C   0  0  2  0  0  0  0  0  0  0  0  0
   37.0380   31.9090   40.3020 C   0  0  0  0  0  0  0  0  0  0  0  0
   36.1970   30.7430   40.8360 C   0  0  0  0  0  0  0  0  0  0  0  0
   37.1650   29.5950   41.0030 C   0  0  1  0  0  0  0  0  0  0  0  0
   38.4710   30.0900   40.5130 C   0  0  0  0  0  0  0  0  0  0  0  0
   37.4620   30.7000   38.6420 H   0  0  0  0  0  0  0  0  0  0  0  0
   36.3890   32.5050   39.6200 H   0  0  0  0  0  0  0  0  0  0  0  0
   37.5080   32.4960   41.0970 H   0  0  0  0  0  0  0  0  0  0  0  0
   35.3280   30.5270   40.2110 H   0  0  0  0  0  0  0  0  0  0  0  0
   35.8880   31.0790   41.8610 H   0  0  0  0  0  0  0  0  0  0  0  0
   36.8310   28.7730   40.3630 H   0  0  0  0  0  0  0  0  0  0  0  0
   39.0540   30.7560   41.1520 H   0  0  0  0  0  0  0  0  0  0  0  0
   39.0750   29.3810   39.9180 H   0  0  0  0  0  0  0  0  0  0  0  0
   40.7040   33.7450   39.1770 C   0  0  0  0  0  0  0  0  0  0  0  0
   39.6030   33.0520   39.7390 C   0  0  0  0  0  0  0  0  0  0  0  0
   39.1760   31.9220   38.9950 C   0  0  0  0  0  0  0  0  0  0  0  0
   39.8000   31.5430   37.8100 N   0  0  0  0  0  0  0  0  0  0  0  0
   40.8460   32.2810   37.3660 C   0  0  0  0  0  0  0  0  0  0  0  0
   41.2870   33.3630   38.0410 N   0  0  0  0  0  0  0  0  0  0  0  0
   41.0430   34.6090   39.7310 H   0  0  0  0  0  0  0  0  0  0  0  0
   39.0910   33.2960   40.6350 H   0  0  0  0  0  0  0  0  0  0  0  0
   41.2240   31.8680   36.4440 H   0  0  0  0  0  0  0  0  0  0  0  0
   37.3560   29.1980   42.4370 C   0  0  2  0  0  0  0  0  0  0  0  0
   38.6830   29.2540   43.0060 C   0  0  0  0  0  0  0  0  0  0  0  0
   37.9000   27.9520   42.8960 C   0  0  2  0  0  0  0  0  0  0  0  0
   36.5330   29.6710   43.0150 H   0  0  0  0  0  0  0  0  0  0  0  0
   39.6850   29.1010   42.6670 H   0  0  0  0  0  0  0  0  0  0  0  0
   38.7500   29.6370   44.0780 H   0  0  0  0  0  0  0  0  0  0  0  0
   37.4430   27.5390   43.8490 H   0  0  0  0  0  0  0  0  0  0  0  0
   38.4280   26.8340   42.0590 C   0  0  0  0  0  3  0  0  0  0  0  0
   37.7000   25.5310   42.1820 C   0  0  0  0  0  3  0  0  0  0  0  0
   37.1370   25.3570   41.2410 H   0  0  0  0  0  0  0  0  0  0  0  0
   38.7460   24.4100   42.2050 C   0  0  0  0  0  3  0  0  0  0  0  0
   39.3280   24.4220   41.2620 H   0  0  0  0  0  0  0  0  0  0  0  0
   39.5700   24.4570   43.3010 O   0  0  0  0  0  0  0  0  0  0  0  0
   39.8960   25.7490   43.6800 C   0  0  0  0  0  3  0  0  0  0  0  0
   39.1070   26.0790   44.3700 H   0  0  0  0  0  0  0  0  0  0  0  0
   39.8840   26.5790   42.4040 C   0  0  0  0  0  3  0  0  0  0  0  0
   40.4340   26.1030   41.5950 H   0  0  0  0  0  0  0  0  0  0  0  0
  1  6  1  6  0  0  0
  1  2  1  0  0  0  0
  1  5  1  0  0  0  0
  2  3  1  0  0  0  0
  2  8  1  0  0  0  0
  3  4  1  0  0  0  0
  3 10  1  0  0  0  0
  4 11  1  6  0  0  0
  4 23  1  0  0  0  0
  5  4  1  0  0  0  0
  5 12  1  0  0  0  0
  7  2  1  0  0  0  0
  9  3  1  0  0  0  0
 13  5  1  0  0  0  0
 14 20  1  0  0  0  0
 14 15  1  0  0  0  0
 15 21  1  0  0  0  0
 16  1  1  0  0  0  0
 16 15  2  0  0  0  0
 17 16  1  0  0  0  0
 18 17  2  0  0  0  0
 18 19  1  0  0  0  0
 19 14  2  0  0  0  0
 22 18  1  0  0  0  0
 23 25  1  0  0  0  0
 23 24  1  0  0  0  0
 23 26  1  1  0  0  0
 24 28  1  0  0  0  0
 25 24  1  0  0  0  0
 25 29  1  1  0  0  0
 27 24  1  0  0  0  0
 30 31  1  0  0  0  0
 30 38  1  0  0  0  0
 30 25  1  0  0  0  0
 31 33  1  0  0  0  0
 32 31  1  0  0  0  0
 33 35  1  0  0  0  0
 34 33  1  0  0  0  0
 35 36  1  0  0  0  0
 36 37  1  0  0  0  0
 38 36  1  0  0  0  0
 39 38  1  0  0  0  0
M  END
>  <minimizedAffinity>
-5.49675846

$$$$

 OpenBabel03252507533D

 39 42  0  0  1  0  0  0  0  0999 V2000
   37.2300   30.4870   40.1100 C   0  0  2  0  0  0  0  0  0  0  0  0
   35.8360   30.5740   40.6690 C   0  0  0  0  0  0  0  0  0  0  0  0
   35.5030   29.0770   40.6830 C   0  0  0  0  0  0  0  0  0  0  0  0
   36.8090   28.3790   40.9810 C   0  0  1  0  0  0  0  0  0  0  0  0
   37.8320   29.4470   41.0550 C   0  0  0  0  0  0  0  0  0  0  0  0
   37.1380   30.1570   39.0790 H   0  0  0  0  0  0  0  0  0  0  0  0
   35.1730   31.0570   39.9130 H   0  0  0  0  0  0  0  0  0  0  0  0
   35.7890   31.0330   41.6610 H   0  0  0  0  0  0  0  0  0  0  0  0
   35.0000   28.7460   39.7720 H   0  0  0  0  0  0  0  0  0  0  0  0
   34.8410   28.9560   41.5800 H   0  0  0  0  0  0  0  0  0  0  0  0
   37.0420   27.7200   40.1390 H   0  0  0  0  0  0  0  0  0  0  0  0
   37.8850   30.0620   41.9550 H   0  0  0  0  0  0  0  0  0  0  0  0
   38.8130   29.2240   40.5950 H   0  0  0  0  0  0  0  0  0  0  0  0
   39.9470   33.0360   40.6880 C   0  0  0  0  0  0  0  0  0  0  0  0
   39.3340   31.7580   40.6380 C   0  0  0  0  0  0  0  0  0  0  0  0
   37.9870   31.7690   40.1920 C   0  0  0  0  0  0  0  0  0  0  0  0
   37.3380   32.9480   39.8400 N   0  0  0  0  0  0  0  0  0  0  0  0
   38.0230   34.1130   39.9270 C   0  0  0  0  0  0  0  0  0  0  0  0
   39.3060   34.1510   40.3450 N   0  0  0  0  0  0  0  0  0  0  0  0
   40.9740   33.0470   41.0250 H   0  0  0  0  0  0  0  0  0  0  0  0
   39.7800   30.8300   40.8940 H   0  0  0  0  0  0  0  0  0  0  0  0
   37.3940   34.9350   39.6230 H   0  0  0  0  0  0  0  0  0  0  0  0
   36.8080   27.6790   42.3070 C   0  0  2  0  0  0  0  0  0  0  0  0
   37.3010   28.3840   43.4690 C   0  0  0  0  0  0  0  0  0  0  0  0
   37.9530   27.1070   42.9540 C   0  0  2  0  0  0  0  0  0  0  0  0
   35.8250   27.1670   42.4000 H   0  0  0  0  0  0  0  0  0  0  0  0
   38.0530   29.1130   43.6790 H   0  0  0  0  0  0  0  0  0  0  0  0
   36.7190   28.2200   44.4350 H   0  0  0  0  0  0  0  0  0  0  0  0
   37.7610   26.1540   43.5380 H   0  0  0  0  0  0  0  0  0  0  0  0
   39.3680   27.1340   42.4760 C   0  0  0  0  0  3  0  0  0  0  0  0
   39.6740   26.2590   41.3000 C   0  0  0  0  0  3  0  0  0  0  0  0
   39.8470   26.9100   40.4180 H   0  0  0  0  0  0  0  0  0  0  0  0
   41.0330   25.5960   41.5500 C   0  0  0  0  0  3  0  0  0  0  0  0
   41.8160   26.3740   41.6460 H   0  0  0  0  0  0  0  0  0  0  0  0
   41.0350   24.7480   42.6290 O   0  0  0  0  0  0  0  0  0  0  0  0
   40.2580   25.2060   43.6800 C   0  0  0  0  0  3  0  0  0  0  0  0
   39.2400   24.8310   43.5000 H   0  0  0  0  0  0  0  0  0  0  0  0
   40.2970   26.7250   43.6050 C   0  0  0  0  0  3  0  0  0  0  0  0
   41.3080   27.1080   43.4800 H   0  0  0  0  0  0  0  0  0  0  0  0
  1  6  1  6  0  0  0
  1 16  1  0  0  0  0
  1  2  1  0  0  0  0
  1  5  1  0  0  0  0
  2  3  1  0  0  0  0
  2  8  1  0  0  0  0
  3  4  1  0  0  0  0
  3 10  1  0  0  0  0
  4 11  1  6  0  0  0
  4  5  1  0  0  0  0
  4 23  1  0  0  0  0
  5 12  1  0  0  0  0
  7  2  1  0  0  0  0
  9  3  1  0  0  0  0
 13  5  1  0  0  0  0
 14 20  1  0  0  0  0
 15 14  1  0  0  0  0
 15 21  1  0  0  0  0
 16 15  2  0  0  0  0
 17 18  2  0  0  0  0
 17 16  1  0  0  0  0
 18 19  1  0  0  0  0
 19 14  2  0  0  0  0
 22 18  1  0  0  0  0
 23 26  1  1  0  0  0
 23 25  1  0  0  0  0
 23 24  1  0  0  0  0
 24 27  1  0  0  0  0
 24 28  1  0  0  0  0
 25 24  1  0  0  0  0
 25 29  1  1  0  0  0
 30 25  1  0  0  0  0
 30 38  1  0  0  0  0
 31 33  1  0  0  0  0
 31 30  1  0  0  0  0
 32 31  1  0  0  0  0
 33 34  1  0  0  0  0
 33 35  1  0  0  0  0
 35 36  1  0  0  0  0
 37 36  1  0  0  0  0
 38 36  1  0  0  0  0
 39 38  1  0  0  0  0
M  END
>  <minimizedAffinity>
-5.4511447

$$$$

 OpenBabel03252507533D

 39 42  0  0  1  0  0  0  0  0999 V2000
   37.7410   26.5570   41.7020 C   0  0  2  0  0  0  0  0  0  0  0  0
   36.8780   26.7510   42.9180 C   0  0  0  0  0  0  0  0  0  0  0  0
   37.2050   28.2230   43.1970 C   0  0  0  0  0  0  0  0  0  0  0  0
   37.4190   28.8490   41.8390 C   0  0  1  0  0  0  0  0  0  0  0  0
   37.2850   27.7470   40.8580 C   0  0  0  0  0  0  0  0  0  0  0  0
   38.7740   26.6110   42.0330 H   0  0  0  0  0  0  0  0  0  0  0  0
   37.2980   26.1500   43.7590 H   0  0  0  0  0  0  0  0  0  0  0  0
   35.8140   26.5760   42.7340 H   0  0  0  0  0  0  0  0  0  0  0  0
   38.0320   28.3480   43.8980 H   0  0  0  0  0  0  0  0  0  0  0  0
   36.2500   28.6370   43.6160 H   0  0  0  0  0  0  0  0  0  0  0  0
   38.4400   29.2380   41.8010 H   0  0  0  0  0  0  0  0  0  0  0  0
   36.2870   27.3890   40.6040 H   0  0  0  0  0  0  0  0  0  0  0  0
   38.0000   27.7490   40.0150 H   0  0  0  0  0  0  0  0  0  0  0  0
   36.3490   23.9710   39.3370 C   0  0  0  0  0  0  0  0  0  0  0  0
   36.5210   25.2440   39.9370 C   0  0  0  0  0  0  0  0  0  0  0  0
   37.4800   25.2770   40.9830 C   0  0  0  0  0  0  0  0  0  0  0  0
   38.1820   24.1400   41.3730 N   0  0  0  0  0  0  0  0  0  0  0  0
   37.9350   22.9750   40.7270 C   0  0  0  0  0  0  0  0  0  0  0  0
   37.0330   22.8970   39.7270 N   0  0  0  0  0  0  0  0  0  0  0  0
   35.6220   23.9270   38.5380 H   0  0  0  0  0  0  0  0  0  0  0  0
   36.0150   26.1400   39.6810 H   0  0  0  0  0  0  0  0  0  0  0  0
   38.5500   22.1890   41.1360 H   0  0  0  0  0  0  0  0  0  0  0  0
   36.3750   29.8700   41.4960 C   0  0  2  0  0  0  0  0  0  0  0  0
   35.7460   29.8170   40.1960 C   0  0  0  0  0  0  0  0  0  0  0  0
   36.5680   31.0150   40.6540 C   0  0  2  0  0  0  0  0  0  0  0  0
   35.7090   29.9590   42.3820 H   0  0  0  0  0  0  0  0  0  0  0  0
   36.0290   29.5450   39.2020 H   0  0  0  0  0  0  0  0  0  0  0  0
   34.6270   30.0350   40.1740 H   0  0  0  0  0  0  0  0  0  0  0  0
   35.9990   31.9490   40.9590 H   0  0  0  0  0  0  0  0  0  0  0  0
   37.8090   31.3940   39.9150 C   0  0  0  0  0  3  0  0  0  0  0  0
   38.9420   31.8900   40.7580 C   0  0  0  0  0  3  0  0  0  0  0  0
   39.7360   31.1140   40.7650 H   0  0  0  0  0  0  0  0  0  0  0  0
   39.5850   33.0770   40.0300 C   0  0  0  0  0  3  0  0  0  0  0  0
   39.9730   32.7450   39.0460 H   0  0  0  0  0  0  0  0  0  0  0  0
   38.7460   34.1540   39.9000 O   0  0  0  0  0  0  0  0  0  0  0  0
   37.4320   33.7920   39.6580 C   0  0  0  0  0  3  0  0  0  0  0  0
   36.9600   33.6580   40.6420 H   0  0  0  0  0  0  0  0  0  0  0  0
   37.4880   32.4750   38.8980 C   0  0  0  0  0  3  0  0  0  0  0  0
   38.1970   32.5030   38.0730 H   0  0  0  0  0  0  0  0  0  0  0  0
  1  6  1  1  0  0  0
  1  2  1  0  0  0  0
  2  3  1  0  0  0  0
  2  7  1  0  0  0  0
  3 10  1  0  0  0  0
  3  9  1  0  0  0  0
  4 11  1  6  0  0  0
  4  3  1  0  0  0  0
  5  1  1  0  0  0  0
  5  4  1  0  0  0  0
  8  2  1  0  0  0  0
 12  5  1  0  0  0  0
 13  5  1  0  0  0  0
 14 19  2  0  0  0  0
 14 15  1  0  0  0  0
 15 16  2  0  0  0  0
 16 17  1  0  0  0  0
 16  1  1  0  0  0  0
 18 22  1  0  0  0  0
 18 17  2  0  0  0  0
 19 18  1  0  0  0  0
 20 14  1  0  0  0  0
 21 15  1  0  0  0  0
 23  4  1  0  0  0  0
 23 26  1  1  0  0  0
 24 25  1  0  0  0  0
 24 23  1  0  0  0  0
 25 29  1  1  0  0  0
 25 23  1  0  0  0  0
 27 24  1  0  0  0  0
 28 24  1  0  0  0  0
 30 25  1  0  0  0  0
 30 31  1  0  0  0  0
 31 32  1  0  0  0  0
 33 31  1  0  0  0  0
 34 33  1  0  0  0  0
 35 33  1  0  0  0  0
 36 35  1  0  0  0  0
 36 37  1  0  0  0  0
 38 36  1  0  0  0  0
 38 30  1  0  0  0  0
 39 38  1  0  0  0  0
M  END
>  <minimizedAffinity>
-5.39122581

$$$$

 OpenBabel03252507533D

 39 42  0  0  1  0  0  0  0  0999 V2000
   36.9690   26.9870   41.2930 C   0  0  2  0  0  0  0  0  0  0  0  0
   37.4400   27.3720   39.9170 C   0  0  0  0  0  0  0  0  0  0  0  0
   36.2520   28.2530   39.5090 C   0  0  0  0  0  0  0  0  0  0  0  0
   35.7900   28.9180   40.7840 C   0  0  1  0  0  0  0  0  0  0  0  0
   36.6450   28.3680   41.8620 C   0  0  0  0  0  0  0  0  0  0  0  0
   36.1050   26.3410   41.1630 H   0  0  0  0  0  0  0  0  0  0  0  0
   37.4260   26.4680   39.2640 H   0  0  0  0  0  0  0  0  0  0  0  0
   38.3930   27.9100   39.9140 H   0  0  0  0  0  0  0  0  0  0  0  0
   35.4800   27.7000   38.9700 H   0  0  0  0  0  0  0  0  0  0  0  0
   36.7130   29.0440   38.8610 H   0  0  0  0  0  0  0  0  0  0  0  0
   34.7530   28.6210   40.9650 H   0  0  0  0  0  0  0  0  0  0  0  0
   37.6650   28.7400   41.9640 H   0  0  0  0  0  0  0  0  0  0  0  0
   36.1430   28.1370   42.8190 H   0  0  0  0  0  0  0  0  0  0  0  0
   39.8180   26.3490   43.6780 C   0  0  0  0  0  0  0  0  0  0  0  0
   38.8520   27.0950   42.9560 C   0  0  0  0  0  0  0  0  0  0  0  0
   38.0160   26.3150   42.1150 C   0  0  0  0  0  0  0  0  0  0  0  0
   38.1500   24.9330   42.0210 N   0  0  0  0  0  0  0  0  0  0  0  0
   39.1090   24.3260   42.7600 C   0  0  0  0  0  0  0  0  0  0  0  0
   39.9270   25.0260   43.5730 N   0  0  0  0  0  0  0  0  0  0  0  0
   40.4640   26.9270   44.3250 H   0  0  0  0  0  0  0  0  0  0  0  0
   38.7060   28.1440   42.9890 H   0  0  0  0  0  0  0  0  0  0  0  0
   39.0930   23.2620   42.5840 H   0  0  0  0  0  0  0  0  0  0  0  0
   35.9970   30.4040   40.7750 C   0  0  2  0  0  0  0  0  0  0  0  0
   36.5040   31.0310   39.5770 C   0  0  0  0  0  0  0  0  0  0  0  0
   37.2580   31.0740   40.8990 C   0  0  2  0  0  0  0  0  0  0  0  0
   35.0970   30.8560   41.2460 H   0  0  0  0  0  0  0  0  0  0  0  0
   37.1770   30.7760   38.7860 H   0  0  0  0  0  0  0  0  0  0  0  0
   36.0380   32.0340   39.3040 H   0  0  0  0  0  0  0  0  0  0  0  0
   37.2390   32.0520   41.4750 H   0  0  0  0  0  0  0  0  0  0  0  0
   38.6090   30.4460   41.0080 C   0  0  0  0  0  3  0  0  0  0  0  0
   39.3320   30.6790   42.2980 C   0  0  0  0  0  3  0  0  0  0  0  0
   39.3490   29.7230   42.8640 H   0  0  0  0  0  0  0  0  0  0  0  0
   40.8050   30.9470   41.9690 C   0  0  0  0  0  3  0  0  0  0  0  0
   41.2390   30.0660   41.4550 H   0  0  0  0  0  0  0  0  0  0  0  0
   41.0010   32.0950   41.2460 O   0  0  0  0  0  0  0  0  0  0  0  0
   40.0050   32.3230   40.3100 C   0  0  0  0  0  3  0  0  0  0  0  0
   39.2170   32.8890   40.8270 H   0  0  0  0  0  0  0  0  0  0  0  0
   39.5000   30.9520   39.8870 C   0  0  0  0  0  3  0  0  0  0  0  0
   40.3110   30.2660   39.6500 H   0  0  0  0  0  0  0  0  0  0  0  0
  1  6  1  6  0  0  0
  1  5  1  0  0  0  0
  1 16  1  0  0  0  0
  2  1  1  0  0  0  0
  3  2  1  0  0  0  0
  3  4  1  0  0  0  0
  4 11  1  1  0  0  0
  4  5  1  0  0  0  0
  5 12  1  0  0  0  0
  5 13  1  0  0  0  0
  7  2  1  0  0  0  0
  8  2  1  0  0  0  0
  9  3  1  0  0  0  0
 10  3  1  0  0  0  0
 14 20  1  0  0  0  0
 15 21  1  0  0  0  0
 15 14  2  0  0  0  0
 16 15  1  0  0  0  0
 17 16  2  0  0  0  0
 17 18  1  0  0  0  0
 18 19  2  0  0  0  0
 19 14  1  0  0  0  0
 22 18  1  0  0  0  0
 23  4  1  0  0  0  0
 23 25  1  0  0  0  0
 23 26  1  1  0  0  0
 24 23  1  0  0  0  0
 24 25  1  0  0  0  0
 25 30  1  0  0  0  0
 25 29  1  1  0  0  0
 27 24  1  0  0  0  0
 28 24  1  0  0  0  0
 30 31  1  0  0  0  0
 31 32  1  0  0  0  0
 33 31  1  0  0  0  0
 34 33  1  0  0  0  0
 35 33  1  0  0  0  0
 36 37  1  0  0  0  0
 36 35  1  0  0  0  0
 38 36  1  0  0  0  0
 38 30  1  0  0  0  0
 39 38  1  0  0  0  0
M  END
>  <minimizedAffinity>
-5.23485422

$$$$

 OpenBabel03252507533D

 39 42  0  0  1  0  0  0  0  0999 V2000
   36.9770   29.5370   41.6480 C   0  0  2  0  0  0  0  0  0  0  0  0
   37.4160   28.9750   42.9720 C   0  0  0  0  0  0  0  0  0  0  0  0
   36.6750   27.6340   42.9080 C   0  0  0  0  0  0  0  0  0  0  0  0
   36.6760   27.2460   41.4480 C   0  0  1  0  0  0  0  0  0  0  0  0
   37.3280   28.3660   40.7310 C   0  0  0  0  0  0  0  0  0  0  0  0
   35.9130   29.7410   41.7280 H   0  0  0  0  0  0  0  0  0  0  0  0
   36.9530   29.5740   43.7910 H   0  0  0  0  0  0  0  0  0  0  0  0
   38.5010   28.8600   43.0630 H   0  0  0  0  0  0  0  0  0  0  0  0
   35.6890   27.6720   43.3750 H   0  0  0  0  0  0  0  0  0  0  0  0
   37.3540   26.9230   43.4480 H   0  0  0  0  0  0  0  0  0  0  0  0
   35.6360   27.1680   41.1170 H   0  0  0  0  0  0  0  0  0  0  0  0
   38.4150   28.4530   40.7720 H   0  0  0  0  0  0  0  0  0  0  0  0
   36.8810   28.6580   39.7630 H   0  0  0  0  0  0  0  0  0  0  0  0
   39.6860   32.1170   41.1860 C   0  0  0  0  0  0  0  0  0  0  0  0
   39.0850   30.9070   41.6160 C   0  0  0  0  0  0  0  0  0  0  0  0
   37.7240   30.7610   41.2420 C   0  0  0  0  0  0  0  0  0  0  0  0
   37.0520   31.7380   40.5140 N   0  0  0  0  0  0  0  0  0  0  0  0
   37.7290   32.8560   40.1560 C   0  0  0  0  0  0  0  0  0  0  0  0
   39.0230   33.0380   40.4890 N   0  0  0  0  0  0  0  0  0  0  0  0
   40.7240   32.2450   41.4620 H   0  0  0  0  0  0  0  0  0  0  0  0
   39.5470   30.1310   42.1710 H   0  0  0  0  0  0  0  0  0  0  0  0
   37.0820   33.5170   39.6000 H   0  0  0  0  0  0  0  0  0  0  0  0
   37.4870   26.0150   41.1710 C   0  0  2  0  0  0  0  0  0  0  0  0
   37.5540   24.9820   42.1790 C   0  0  0  0  0  0  0  0  0  0  0  0
   38.7900   25.7340   41.7010 C   0  0  2  0  0  0  0  0  0  0  0  0
   37.2490   25.7000   40.1320 H   0  0  0  0  0  0  0  0  0  0  0  0
   37.5540   24.9310   43.2470 H   0  0  0  0  0  0  0  0  0  0  0  0
   37.5180   23.9090   41.7960 H   0  0  0  0  0  0  0  0  0  0  0  0
   39.4940   25.1830   41.0030 H   0  0  0  0  0  0  0  0  0  0  0  0
   39.5730   26.5670   42.6620 C   0  0  0  0  0  3  0  0  0  0  0  0
   40.5970   27.4730   42.0530 C   0  0  0  0  0  3  0  0  0  0  0  0
   40.2390   28.5190   42.1510 H   0  0  0  0  0  0  0  0  0  0  0  0
   41.8520   27.4220   42.9320 C   0  0  0  0  0  3  0  0  0  0  0  0
   41.6060   27.7750   43.9540 H   0  0  0  0  0  0  0  0  0  0  0  0
   42.4480   26.1870   42.9590 O   0  0  0  0  0  0  0  0  0  0  0  0
   41.5360   25.1440   42.9520 C   0  0  0  0  0  3  0  0  0  0  0  0
   41.3270   24.9220   41.8960 H   0  0  0  0  0  0  0  0  0  0  0  0
   40.2900   25.6670   43.6520 C   0  0  0  0  0  3  0  0  0  0  0  0
   40.5210   26.1690   44.5900 H   0  0  0  0  0  0  0  0  0  0  0  0
  1  6  1  6  0  0  0
  1  2  1  0  0  0  0
  2  8  1  0  0  0  0
  2  7  1  0  0  0  0
  3  2  1  0  0  0  0
  3  9  1  0  0  0  0
  3 10  1  0  0  0  0
  4 11  1  6  0  0  0
  4  3  1  0  0  0  0
  5 12  1  0  0  0  0
  5  4  1  0  0  0  0
  5  1  1  0  0  0  0
 13  5  1  0  0  0  0
 14 20  1  0  0  0  0
 14 15  1  0  0  0  0
 15 21  1  0  0  0  0
 16 15  2  0  0  0  0
 16  1  1  0  0  0  0
 17 16  1  0  0  0  0
 18 19  1  0  0  0  0
 18 17  2  0  0  0  0
 19 14  2  0  0  0  0
 22 18  1  0  0  0  0
 23 26  1  6  0  0  0
 23  4  1  0  0  0  0
 23 25  1  0  0  0  0
 23 24  1  0  0  0  0
 24 27  1  0  0  0  0
 25 29  1  6  0  0  0
 25 24  1  0  0  0  0
 25 30  1  0  0  0  0
 28 24  1  0  0  0  0
 30 38  1  0  0  0  0
 31 32  1  0  0  0  0
 31 30  1  0  0  0  0
 31 33  1  0  0  0  0
 33 35  1  0  0  0  0
 33 34  1  0  0  0  0
 36 35  1  0  0  0  0
 36 38  1  0  0  0  0
 37 36  1  0  0  0  0
 38 39  1  0  0  0  0
M  END
>  <minimizedAffinity>
-5.21417236

$$$$

 OpenBabel03252507533D

 39 42  0  0  1  0  0  0  0  0999 V2000
   37.6350   26.6270   42.2380 C   0  0  2  0  0  0  0  0  0  0  0  0
   36.7970   27.8300   42.5760 C   0  0  0  0  0  0  0  0  0  0  0  0
   37.8200   28.5870   43.4320 C   0  0  0  0  0  0  0  0  0  0  0  0
   39.1660   28.2690   42.8230 C   0  0  1  0  0  0  0  0  0  0  0  0
   38.8970   27.3170   41.7200 C   0  0  0  0  0  0  0  0  0  0  0  0
   37.7750   26.0690   43.1600 H   0  0  0  0  0  0  0  0  0  0  0  0
   35.9660   27.5140   43.2490 H   0  0  0  0  0  0  0  0  0  0  0  0
   36.4700   28.3970   41.6990 H   0  0  0  0  0  0  0  0  0  0  0  0
   37.7310   28.3620   44.4970 H   0  0  0  0  0  0  0  0  0  0  0  0
   37.6000   29.6670   43.2240 H   0  0  0  0  0  0  0  0  0  0  0  0
   39.7740   27.7710   43.5830 H   0  0  0  0  0  0  0  0  0  0  0  0
   38.4940   27.7010   40.7820 H   0  0  0  0  0  0  0  0  0  0  0  0
   39.6130   26.4830   41.6040 H   0  0  0  0  0  0  0  0  0  0  0  0
   36.2370   23.6680   40.3680 C   0  0  0  0  0  0  0  0  0  0  0  0
   36.7910   24.3930   41.4530 C   0  0  0  0  0  0  0  0  0  0  0  0
   37.0400   25.7630   41.1800 C   0  0  0  0  0  0  0  0  0  0  0  0
   36.7570   26.3290   39.9410 N   0  0  0  0  0  0  0  0  0  0  0  0
   36.2270   25.5400   38.9760 C   0  0  0  0  0  0  0  0  0  0  0  0
   35.9740   24.2320   39.1900 N   0  0  0  0  0  0  0  0  0  0  0  0
   36.0410   22.6220   40.5570 H   0  0  0  0  0  0  0  0  0  0  0  0
   37.0260   24.0130   42.4150 H   0  0  0  0  0  0  0  0  0  0  0  0
   36.0630   26.1140   38.0770 H   0  0  0  0  0  0  0  0  0  0  0  0
   39.8290   29.4690   42.2150 C   0  0  2  0  0  0  0  0  0  0  0  0
   39.4660   30.7840   42.6910 C   0  0  0  0  0  0  0  0  0  0  0  0
   39.2420   30.3510   41.2480 C   0  0  2  0  0  0  0  0  0  0  0  0
   40.9130   29.2340   42.1420 H   0  0  0  0  0  0  0  0  0  0  0  0
   38.5870   31.2640   43.0640 H   0  0  0  0  0  0  0  0  0  0  0  0
   40.3220   31.5290   42.7980 H   0  0  0  0  0  0  0  0  0  0  0  0
   39.9530   30.7640   40.4660 H   0  0  0  0  0  0  0  0  0  0  0  0
   37.8560   30.2910   40.6950 C   0  0  0  0  0  3  0  0  0  0  0  0
   37.7310   29.7240   39.3150 C   0  0  0  0  0  3  0  0  0  0  0  0
   37.2500   28.7270   39.3910 H   0  0  0  0  0  0  0  0  0  0  0  0
   36.7120   30.5750   38.5480 C   0  0  0  0  0  3  0  0  0  0  0  0
   35.7290   30.5290   39.0580 H   0  0  0  0  0  0  0  0  0  0  0  0
   37.1180   31.8720   38.3600 O   0  0  0  0  0  0  0  0  0  0  0  0
   37.8100   32.3870   39.4440 C   0  0  0  0  0  3  0  0  0  0  0  0
   38.8670   32.1270   39.2890 H   0  0  0  0  0  0  0  0  0  0  0  0
   37.2530   31.6840   40.6740 C   0  0  0  0  0  3  0  0  0  0  0  0
   36.1650   31.6740   40.6890 H   0  0  0  0  0  0  0  0  0  0  0  0
  1  2  1  0  0  0  0
  1  6  1  1  0  0  0
  2  7  1  0  0  0  0
  2  3  1  0  0  0  0
  3  9  1  0  0  0  0
  4  3  1  0  0  0  0
  4 11  1  1  0  0  0
  5  1  1  0  0  0  0
  5  4  1  0  0  0  0
  8  2  1  0  0  0  0
 10  3  1  0  0  0  0
 12  5  1  0  0  0  0
 13  5  1  0  0  0  0
 14 20  1  0  0  0  0
 14 15  1  0  0  0  0
 15 21  1  0  0  0  0
 16 15  2  0  0  0  0
 16  1  1  0  0  0  0
 17 16  1  0  0  0  0
 18 19  1  0  0  0  0
 18 17  2  0  0  0  0
 19 14  2  0  0  0  0
 22 18  1  0  0  0  0
 23 26  1  6  0  0  0
 23 24  1  0  0  0  0
 23  4  1  0  0  0  0
 24 28  1  0  0  0  0
 24 27  1  0  0  0  0
 25 29  1  6  0  0  0
 25 23  1  0  0  0  0
 25 24  1  0  0  0  0
 30 25  1  0  0  0  0
 31 32  1  0  0  0  0
 31 30  1  0  0  0  0
 33 34  1  0  0  0  0
 33 31  1  0  0  0  0
 35 33  1  0  0  0  0
 35 36  1  0  0  0  0
 36 38  1  0  0  0  0
 37 36  1  0  0  0  0
 38 39  1  0  0  0  0
 38 30  1  0  0  0  0
M  END
>  <minimizedAffinity>
-5.16487122

$$$$

 OpenBabel03252507533D

 39 42  0  0  1  0  0  0  0  0999 V2000
   39.1170   30.2860   42.2010 C   0  0  2  0  0  0  0  0  0  0  0  0
   39.8760   29.2190   41.4610 C   0  0  0  0  0  0  0  0  0  0  0  0
   39.8810   28.1440   42.5550 C   0  0  0  0  0  0  0  0  0  0  0  0
   38.5700   28.3110   43.2870 C   0  0  1  0  0  0  0  0  0  0  0  0
   37.9040   29.4790   42.6650 C   0  0  0  0  0  0  0  0  0  0  0  0
   39.7590   30.6330   43.0050 H   0  0  0  0  0  0  0  0  0  0  0  0
   40.9290   29.5570   41.3200 H   0  0  0  0  0  0  0  0  0  0  0  0
   39.3850   28.8900   40.5400 H   0  0  0  0  0  0  0  0  0  0  0  0
   40.7710   28.1860   43.1860 H   0  0  0  0  0  0  0  0  0  0  0  0
   39.8310   27.1790   41.9850 H   0  0  0  0  0  0  0  0  0  0  0  0
   38.7930   28.5420   44.3330 H   0  0  0  0  0  0  0  0  0  0  0  0
   37.4180   29.3520   41.6970 H   0  0  0  0  0  0  0  0  0  0  0  0
   37.3850   30.1730   43.3520 H   0  0  0  0  0  0  0  0  0  0  0  0
   37.1440   32.4900   39.8640 C   0  0  0  0  0  0  0  0  0  0  0  0
   37.4370   31.3600   40.6680 C   0  0  0  0  0  0  0  0  0  0  0  0
   38.6880   31.4220   41.3360 C   0  0  0  0  0  0  0  0  0  0  0  0
   39.5420   32.5120   41.1990 N   0  0  0  0  0  0  0  0  0  0  0  0
   39.1560   33.5380   40.4030 C   0  0  0  0  0  0  0  0  0  0  0  0
   37.9770   33.5230   39.7490 N   0  0  0  0  0  0  0  0  0  0  0  0
   36.1940   32.4600   39.3470 H   0  0  0  0  0  0  0  0  0  0  0  0
   36.8260   30.5050   40.8080 H   0  0  0  0  0  0  0  0  0  0  0  0
   39.9150   34.3050   40.3960 H   0  0  0  0  0  0  0  0  0  0  0  0
   37.6510   27.1380   43.1140 C   0  0  2  0  0  0  0  0  0  0  0  0
   38.1650   25.9330   42.5050 C   0  0  0  0  0  0  0  0  0  0  0  0
   37.0290   26.7360   41.8860 C   0  0  2  0  0  0  0  0  0  0  0  0
   37.0870   27.0290   44.0650 H   0  0  0  0  0  0  0  0  0  0  0  0
   38.8810   25.6820   41.7520 H   0  0  0  0  0  0  0  0  0  0  0  0
   37.8100   24.9520   42.9640 H   0  0  0  0  0  0  0  0  0  0  0  0
   35.9800   26.3130   41.9840 H   0  0  0  0  0  0  0  0  0  0  0  0
   37.2030   27.3570   40.5390 C   0  0  0  0  0  3  0  0  0  0  0  0
   36.0050   28.0690   39.9910 C   0  0  0  0  0  3  0  0  0  0  0  0
   36.2090   29.1600   40.0120 H   0  0  0  0  0  0  0  0  0  0  0  0
   35.9020   27.7350   38.4980 C   0  0  0  0  0  3  0  0  0  0  0  0
   36.8130   28.0860   37.9740 H   0  0  0  0  0  0  0  0  0  0  0  0
   35.6640   26.4060   38.2530 O   0  0  0  0  0  0  0  0  0  0  0  0
   36.3270   25.5650   39.1310 C   0  0  0  0  0  3  0  0  0  0  0  0
   35.6620   25.4330   39.9960 H   0  0  0  0  0  0  0  0  0  0  0  0
   37.6020   26.2920   39.5330 C   0  0  0  0  0  3  0  0  0  0  0  0
   38.1350   26.6990   38.6750 H   0  0  0  0  0  0  0  0  0  0  0  0
  1  5  1  0  0  0  0
  1  6  1  1  0  0  0
  2  1  1  0  0  0  0
  2  3  1  0  0  0  0
  3  9  1  0  0  0  0
  3  4  1  0  0  0  0
  4 11  1  1  0  0  0
  5  4  1  0  0  0  0
  5 13  1  0  0  0  0
  7  2  1  0  0  0  0
  8  2  1  0  0  0  0
 10  3  1  0  0  0  0
 12  5  1  0  0  0  0
 14 15  1  0  0  0  0
 15 21  1  0  0  0  0
 15 16  2  0  0  0  0
 16  1  1  0  0  0  0
 17 16  1  0  0  0  0
 18 17  2  0  0  0  0
 19 14  2  0  0  0  0
 19 18  1  0  0  0  0
 20 14  1  0  0  0  0
 22 18  1  0  0  0  0
 23  4  1  0  0  0  0
 23 26  1  1  0  0  0
 24 28  1  0  0  0  0
 24 23  1  0  0  0  0
 25 29  1  1  0  0  0
 25 24  1  0  0  0  0
 25 23  1  0  0  0  0
 27 24  1  0  0  0  0
 30 25  1  0  0  0  0
 31 32  1  0  0  0  0
 31 30  1  0  0  0  0
 33 31  1  0  0  0  0
 34 33  1  0  0  0  0
 35 33  1  0  0  0  0
 35 36  1  0  0  0  0
 36 38  1  0  0  0  0
 36 37  1  0  0  0  0
 38 30  1  0  0  0  0
 39 38  1  0  0  0  0
M  END
>  <minimizedAffinity>
-5.15551853

$$$$

 OpenBabel03252507533D

 39 42  0  0  1  0  0  0  0  0999 V2000
   36.9660   29.0140   42.0210 C   0  0  2  0  0  0  0  0  0  0  0  0
   37.3040   28.8180   43.4730 C   0  0  0  0  0  0  0  0  0  0  0  0
   36.8090   27.3750   43.6300 C   0  0  0  0  0  0  0  0  0  0  0  0
   37.0750   26.7140   42.2980 C   0  0  1  0  0  0  0  0  0  0  0  0
   37.6280   27.7730   41.4220 C   0  0  0  0  0  0  0  0  0  0  0  0
   35.8820   29.0250   41.9460 H   0  0  0  0  0  0  0  0  0  0  0  0
   36.6400   29.4690   44.0900 H   0  0  0  0  0  0  0  0  0  0  0  0
   38.3700   28.9310   43.6950 H   0  0  0  0  0  0  0  0  0  0  0  0
   35.7750   27.3170   43.9760 H   0  0  0  0  0  0  0  0  0  0  0  0
   37.5140   26.9270   44.3780 H   0  0  0  0  0  0  0  0  0  0  0  0
   36.1180   26.3770   41.8890 H   0  0  0  0  0  0  0  0  0  0  0  0
   38.6690   28.0710   41.5520 H   0  0  0  0  0  0  0  0  0  0  0  0
   37.2770   27.7790   40.3740 H   0  0  0  0  0  0  0  0  0  0  0  0
   39.3520   31.7780   41.0830 C   0  0  0  0  0  0  0  0  0  0  0  0
   38.9110   30.5700   41.6810 C   0  0  0  0  0  0  0  0  0  0  0  0
   37.5510   30.2530   41.4330 C   0  0  0  0  0  0  0  0  0  0  0  0
   36.7320   31.0750   40.6650 N   0  0  0  0  0  0  0  0  0  0  0  0
   37.2610   32.2070   40.1420 C   0  0  0  0  0  0  0  0  0  0  0  0
   38.5500   32.5480   40.3510 N   0  0  0  0  0  0  0  0  0  0  0  0
   40.3870   32.0360   41.2610 H   0  0  0  0  0  0  0  0  0  0  0  0
   39.4900   29.9080   42.2740 H   0  0  0  0  0  0  0  0  0  0  0  0
   36.5130   32.7360   39.5740 H   0  0  0  0  0  0  0  0  0  0  0  0
   38.1080   25.6290   42.3800 C   0  0  2  0  0  0  0  0  0  0  0  0
   39.3040   25.7420   41.5790 C   0  0  0  0  0  0  0  0  0  0  0  0
   38.3160   24.5960   41.4080 C   0  0  2  0  0  0  0  0  0  0  0  0
   38.2360   25.3890   43.4580 H   0  0  0  0  0  0  0  0  0  0  0  0
   39.5690   26.1350   40.6210 H   0  0  0  0  0  0  0  0  0  0  0  0
   40.2740   25.4150   42.0810 H   0  0  0  0  0  0  0  0  0  0  0  0
   38.6170   23.5840   41.8260 H   0  0  0  0  0  0  0  0  0  0  0  0
   37.5980   24.4170   40.1110 C   0  0  0  0  0  3  0  0  0  0  0  0
   36.1560   24.0270   40.2140 C   0  0  0  0  0  3  0  0  0  0  0  0
   35.5380   24.8970   39.9090 H   0  0  0  0  0  0  0  0  0  0  0  0
   35.8780   22.9720   39.1370 C   0  0  0  0  0  3  0  0  0  0  0  0
   36.0740   23.4010   38.1340 H   0  0  0  0  0  0  0  0  0  0  0  0
   36.5720   21.8040   39.3260 O   0  0  0  0  0  0  0  0  0  0  0  0
   37.8510   22.0070   39.8160 C   0  0  0  0  0  3  0  0  0  0  0  0
   37.7650   22.0290   40.9110 H   0  0  0  0  0  0  0  0  0  0  0  0
   38.3000   23.3590   39.2790 C   0  0  0  0  0  3  0  0  0  0  0  0
   38.1120   23.4650   38.2130 H   0  0  0  0  0  0  0  0  0  0  0  0
  1  6  1  6  0  0  0
  1  2  1  0  0  0  0
  2  3  1  0  0  0  0
  2  8  1  0  0  0  0
  2  7  1  0  0  0  0
  3  9  1  0  0  0  0
  3 10  1  0  0  0  0
  4 11  1  6  0  0  0
  4 23  1  0  0  0  0
  4  3  1  0  0  0  0
  5 12  1  0  0  0  0
  5  1  1  0  0  0  0
  5  4  1  0  0  0  0
 13  5  1  0  0  0  0
 14 20  1  0  0  0  0
 14 15  1  0  0  0  0
 15 21  1  0  0  0  0
 16 15  2  0  0  0  0
 16  1  1  0  0  0  0
 17 16  1  0  0  0  0
 18 19  1  0  0  0  0
 18 17  2  0  0  0  0
 19 14  2  0  0  0  0
 22 18  1  0  0  0  0
 23 26  1  1  0  0  0
 24 28  1  0  0  0  0
 24 23  1  0  0  0  0
 25 24  1  0  0  0  0
 25 29  1  1  0  0  0
 25 23  1  0  0  0  0
 27 24  1  0  0  0  0
 30 31  1  0  0  0  0
 30 25  1  0  0  0  0
 32 31  1  0  0  0  0
 33 35  1  0  0  0  0
 33 31  1  0  0  0  0
 34 33  1  0  0  0  0
 35 36  1  0  0  0  0
 36 37  1  0  0  0  0
 38 36  1  0  0  0  0
 38 30  1  0  0  0  0
 39 38  1  0  0  0  0
M  END
>  <minimizedAffinity>
-5.14794683

$$$$

 OpenBabel03252507533D

 39 42  0  0  1  0  0  0  0  0999 V2000
   37.5800   30.6750   39.9650 C   0  0  2  0  0  0  0  0  0  0  0  0
   36.2580   30.9820   40.6120 C   0  0  0  0  0  0  0  0  0  0  0  0
   35.7580   29.5450   40.8030 C   0  0  0  0  0  0  0  0  0  0  0  0
   36.9970   28.7240   41.0740 C   0  0  1  0  0  0  0  0  0  0  0  0
   38.1380   29.6620   40.9640 C   0  0  0  0  0  0  0  0  0  0  0  0
   37.3650   30.2650   38.9820 H   0  0  0  0  0  0  0  0  0  0  0  0
   35.5930   31.4710   39.8620 H   0  0  0  0  0  0  0  0  0  0  0  0
   36.3470   31.5330   41.5540 H   0  0  0  0  0  0  0  0  0  0  0  0
   35.1450   29.1960   39.9700 H   0  0  0  0  0  0  0  0  0  0  0  0
   35.1650   29.5900   41.7540 H   0  0  0  0  0  0  0  0  0  0  0  0
   37.0800   27.9670   40.2890 H   0  0  0  0  0  0  0  0  0  0  0  0
   38.3360   30.3460   41.7900 H   0  0  0  0  0  0  0  0  0  0  0  0
   39.0440   29.2780   40.4580 H   0  0  0  0  0  0  0  0  0  0  0  0
   38.9940   34.1610   40.2090 C   0  0  0  0  0  0  0  0  0  0  0  0
   38.0600   33.1090   40.3780 C   0  0  0  0  0  0  0  0  0  0  0  0
   38.4830   31.8570   39.8600 C   0  0  0  0  0  0  0  0  0  0  0  0
   39.7180   31.6970   39.2400 N   0  0  0  0  0  0  0  0  0  0  0  0
   40.5320   32.7750   39.1350 C   0  0  0  0  0  0  0  0  0  0  0  0
   40.1720   33.9840   39.6130 N   0  0  0  0  0  0  0  0  0  0  0  0
   38.6890   35.1230   40.5970 H   0  0  0  0  0  0  0  0  0  0  0  0
   37.1080   33.1740   40.8410 H   0  0  0  0  0  0  0  0  0  0  0  0
   41.4480   32.4990   38.6360 H   0  0  0  0  0  0  0  0  0  0  0  0
   37.0280   28.1550   42.4620 C   0  0  2  0  0  0  0  0  0  0  0  0
   38.0020   28.6600   43.4020 C   0  0  0  0  0  0  0  0  0  0  0  0
   37.9820   27.2040   42.9560 C   0  0  2  0  0  0  0  0  0  0  0  0
   35.9730   28.0890   42.8060 H   0  0  0  0  0  0  0  0  0  0  0  0
   39.0030   29.0350   43.3640 H   0  0  0  0  0  0  0  0  0  0  0  0
   37.6370   28.7970   44.4730 H   0  0  0  0  0  0  0  0  0  0  0  0
   37.5770   26.4420   43.6920 H   0  0  0  0  0  0  0  0  0  0  0  0
   39.1510   26.6330   42.2230 C   0  0  0  0  0  3  0  0  0  0  0  0
   38.8390   25.9690   40.9180 C   0  0  0  0  0  3  0  0  0  0  0  0
   39.2260   26.6120   40.0990 H   0  0  0  0  0  0  0  0  0  0  0  0
   39.6860   24.6940   40.8260 C   0  0  0  0  0  3  0  0  0  0  0  0
   40.7620   24.9570   40.8590 H   0  0  0  0  0  0  0  0  0  0  0  0
   39.3680   23.7600   41.7790 O   0  0  0  0  0  0  0  0  0  0  0  0
   39.0520   24.3220   43.0050 C   0  0  0  0  0  3  0  0  0  0  0  0
   37.9730   24.5330   42.9800 H   0  0  0  0  0  0  0  0  0  0  0  0
   39.8540   25.6120   43.0990 C   0  0  0  0  0  3  0  0  0  0  0  0
   40.8990   25.4710   42.8290 H   0  0  0  0  0  0  0  0  0  0  0  0
  1  6  1  6  0  0  0
  1  2  1  0  0  0  0
  1  5  1  0  0  0  0
  2  3  1  0  0  0  0
  2  8  1  0  0  0  0
  3  4  1  0  0  0  0
  3 10  1  0  0  0  0
  4 11  1  6  0  0  0
  4 23  1  0  0  0  0
  5  4  1  0  0  0  0
  5 12  1  0  0  0  0
  7  2  1  0  0  0  0
  9  3  1  0  0  0  0
 13  5  1  0  0  0  0
 14 15  1  0  0  0  0
 14 20  1  0  0  0  0
 15 21  1  0  0  0  0
 16  1  1  0  0  0  0
 16 15  2  0  0  0  0
 17 16  1  0  0  0  0
 18 17  2  0  0  0  0
 18 19  1  0  0  0  0
 19 14  2  0  0  0  0
 22 18  1  0  0  0  0
 23 26  1  1  0  0  0
 23 25  1  0  0  0  0
 23 24  1  0  0  0  0
 24 28  1  0  0  0  0
 25 24  1  0  0  0  0
 25 29  1  1  0  0  0
 27 24  1  0  0  0  0
 30 25  1  0  0  0  0
 30 38  1  0  0  0  0
 31 30  1  0  0  0  0
 32 31  1  0  0  0  0
 33 34  1  0  0  0  0
 33 31  1  0  0  0  0
 33 35  1  0  0  0  0
 35 36  1  0  0  0  0
 36 38  1  0  0  0  0
 37 36  1  0  0  0  0
 39 38  1  0  0  0  0
M  END
>  <minimizedAffinity>
-5.1457181

$$$$
