
 OpenBabel03252508393D

 42 45  0  0  0  0  0  0  0  0999 V2000
   45.1180   33.9460   40.7240 C   0  0  0  0  0  0  0  0  0  0  0  0
   44.0670   33.6330   39.9020 C   0  0  0  0  0  0  0  0  0  0  0  0
   44.3680   33.1340   38.6680 C   0  0  0  0  0  0  0  0  0  0  0  0
   45.6550   32.9330   38.2110 C   0  0  0  0  0  0  0  0  0  0  0  0
   46.6790   33.2600   39.0650 C   0  0  0  0  0  0  0  0  0  0  0  0
   46.4380   33.7640   40.3160 C   0  0  0  0  0  0  0  0  0  0  0  0
   43.5490   32.8820   38.0070 H   0  0  0  0  0  0  0  0  0  0  0  0
   45.8190   32.5310   37.2130 H   0  0  0  0  0  0  0  0  0  0  0  0
   47.6870   33.0940   38.6870 H   0  0  0  0  0  0  0  0  0  0  0  0
   40.7970   35.2920   40.7880 C   0  0  0  0  0  0  0  0  0  0  0  0
   42.0950   35.1050   40.2810 C   0  0  0  0  0  0  0  0  0  0  0  0
   42.7320   33.8570   40.4130 C   0  0  0  0  0  0  0  0  0  0  0  0
   42.0150   32.9040   41.0400 N   0  0  0  0  0  0  0  0  0  0  0  0
   40.7850   33.0920   41.5170 C   0  0  0  0  0  0  0  0  0  0  0  0
   40.1780   34.2850   41.3900 N   0  0  0  0  0  0  0  0  0  0  0  0
   40.1990   36.5500   40.6370 N   0  0  0  0  0  0  0  0  0  0  0  0
   42.6240   35.9220   39.7810 H   0  0  0  0  0  0  0  0  0  0  0  0
   40.2270   32.3060   42.0200 H   0  0  0  0  0  0  0  0  0  0  0  0
   39.3870   36.7340   39.9980 H   0  0  0  0  0  0  0  0  0  0  0  0
   40.7490   37.1610   41.2800 H   0  0  0  0  0  0  0  0  0  0  0  0
   47.5960   34.0780   41.1440 C   0  0  0  0  0  0  0  0  0  0  0  0
   48.1270   35.3430   40.9500 C   0  0  0  0  0  0  0  0  0  0  0  0
   49.2330   35.8250   41.6480 C   0  0  0  0  0  0  0  0  0  0  0  0
   49.8160   34.9930   42.5710 C   0  0  0  0  0  0  0  0  0  0  0  0
   49.2890   33.7240   42.7710 C   0  0  0  0  0  0  0  0  0  0  0  0
   48.1960   33.2580   42.0760 C   0  0  0  0  0  0  0  0  0  0  0  0
   47.7140   36.0540   40.2330 H   0  0  0  0  0  0  0  0  0  0  0  0
   49.6280   36.8160   41.4770 H   0  0  0  0  0  0  0  0  0  0  0  0
   50.6820   35.3510   43.1290 H   0  0  0  0  0  0  0  0  0  0  0  0
   49.7510   33.0950   43.4880 H   0  0  0  0  0  0  0  0  0  0  0  0
   47.5990   31.9220   42.2500 C   0  0  0  0  0  3  0  0  0  0  0  0
   48.6140   30.7940   42.2350 C   0  0  0  0  0  3  0  0  0  0  0  0
   49.4530   30.9900   42.9380 H   0  0  0  0  0  0  0  0  0  0  0  0
   47.8530   29.5870   42.7980 C   0  0  0  0  0  3  0  0  0  0  0  0
   46.7750   29.6260   42.5310 H   0  0  0  0  0  0  0  0  0  0  0  0
   47.9000   29.7260   44.1970 O   0  0  0  0  0  0  0  0  0  0  0  0
   47.6150   31.0070   44.5980 C   0  0  0  0  0  3  0  0  0  0  0  0
   48.5070   31.4970   45.0270 H   0  0  0  0  0  0  0  0  0  0  0  0
   46.8740   31.8210   43.5790 C   0  0  0  0  0  3  0  0  0  0  0  0
   46.7130   32.8310   44.0060 H   0  0  0  0  0  0  0  0  0  0  0  0
   44.7070   34.9160   43.1140 N   0  0  0  0  0  0  0  0  0  0  0  0
   44.8900   34.4760   42.0380 C   0  0  0  0  0  0  0  0  0  0  0  0
  1 42  1  0  0  0  0
  2 12  1  0  0  0  0
  2  1  2  0  0  0  0
  3  2  1  0  0  0  0
  4  3  2  0  0  0  0
  4  5  1  0  0  0  0
  5  6  2  0  0  0  0
  6  1  1  0  0  0  0
  6 21  1  0  0  0  0
  7  3  1  0  0  0  0
  8  4  1  0  0  0  0
  9  5  1  0  0  0  0
 10 15  1  0  0  0  0
 11 12  1  0  0  0  0
 11 10  2  0  0  0  0
 12 13  2  0  0  0  0
 13 14  1  0  0  0  0
 14 18  1  0  0  0  0
 15 14  2  0  0  0  0
 16 10  1  0  0  0  0
 16 20  1  0  0  0  0
 17 11  1  0  0  0  0
 19 16  1  0  0  0  0
 21 26  1  0  0  0  0
 22 21  2  0  0  0  0
 22 23  1  0  0  0  0
 23 24  2  0  0  0  0
 24 25  1  0  0  0  0
 24 29  1  0  0  0  0
 25 30  1  0  0  0  0
 26 31  1  0  0  0  0
 26 25  2  0  0  0  0
 27 22  1  0  0  0  0
 28 23  1  0  0  0  0
 31 39  1  0  0  0  0
 32 31  1  0  0  0  0
 32 34  1  0  0  0  0
 32 33  1  0  0  0  0
 34 36  1  0  0  0  0
 35 34  1  0  0  0  0
 36 37  1  0  0  0  0
 37 38  1  0  0  0  0
 39 40  1  0  0  0  0
 39 37  1  0  0  0  0
 42 41  3  0  0  0  0
M  END
>  <minimizedAffinity>
-6.13745594

>  <minimizedRMSD>
1.17964447

$$$$
