
 OpenBabel03252508263D

 42 46  0  0  1  0  0  0  0  0999 V2000
   46.3730   32.3620   46.1610 C   0  0  1  0  0  0  0  0  0  0  0  0
   46.6270   32.4880   47.6040 C   0  0  0  0  0  0  0  0  0  0  0  0
   45.3710   31.7450   47.0060 C   0  0  2  0  0  0  0  0  0  0  0  0
   47.3070   31.8430   45.7400 H   0  0  0  0  0  0  0  0  0  0  0  0
   47.2580   31.7930   48.1900 H   0  0  0  0  0  0  0  0  0  0  0  0
   46.3810   33.3970   48.1700 H   0  0  0  0  0  0  0  0  0  0  0  0
   44.4880   32.3050   47.4570 H   0  0  0  0  0  0  0  0  0  0  0  0
   45.2090   30.3040   47.2270 C   0  0  0  0  0  0  0  0  0  0  0  0
   45.1150   29.6440   48.4090 C   0  0  0  0  0  0  0  0  0  0  0  0
   45.0900   28.2730   48.5770 C   0  0  0  0  0  0  0  0  0  0  0  0
   45.1700   27.5010   47.4110 C   0  0  0  0  0  0  0  0  0  0  0  0
   45.2640   28.1440   46.1760 C   0  0  0  0  0  0  0  0  0  0  0  0
   45.2740   27.3400   45.0510 C   0  0  0  0  0  0  0  0  0  0  0  0
   45.2890   27.9410   43.7990 C   0  0  0  0  0  0  0  0  0  0  0  0
   45.2930   29.3160   43.6750 C   0  0  0  0  0  0  0  0  0  0  0  0
   45.2860   30.0650   44.8300 C   0  0  0  0  0  0  0  0  0  0  0  0
   45.2790   29.5180   46.1050 C   0  0  0  0  0  0  0  0  0  0  0  0
   45.0550   30.2850   49.2910 H   0  0  0  0  0  0  0  0  0  0  0  0
   45.0130   27.8170   49.5440 H   0  0  0  0  0  0  0  0  0  0  0  0
   45.1550   26.4290   47.5230 H   0  0  0  0  0  0  0  0  0  0  0  0
   45.2670   26.2580   45.1820 H   0  0  0  0  0  0  0  0  0  0  0  0
   45.2980   27.2090   42.9850 H   0  0  0  0  0  0  0  0  0  0  0  0
   45.3020   29.5820   42.6480 H   0  0  0  0  0  0  0  0  0  0  0  0
   45.2050   31.0560   44.4850 H   0  0  0  0  0  0  0  0  0  0  0  0
   44.6710   35.4340   45.0250 C   0  0  0  0  0  0  0  0  0  0  0  0
   45.3040   35.6770   43.7550 C   0  0  0  0  0  0  0  0  0  0  0  0
   46.3230   34.7620   43.3350 C   0  0  0  0  0  0  0  0  0  0  0  0
   46.6410   33.7360   44.1260 N   0  0  0  0  0  0  0  0  0  0  0  0
   46.0030   33.5480   45.3330 C   0  0  0  0  0  0  0  0  0  0  0  0
   45.0510   34.3690   45.7660 N   0  0  0  0  0  0  0  0  0  0  0  0
   43.9240   36.1560   45.2670 H   0  0  0  0  0  0  0  0  0  0  0  0
   45.0670   36.4860   43.1130 H   0  0  0  0  0  0  0  0  0  0  0  0
   47.0230   34.9290   42.0590 C   0  0  0  0  0  3  0  0  0  0  0  0
   46.8390   33.7440   41.1220 C   0  0  0  0  0  3  0  0  0  0  0  0
   46.8820   32.7750   41.6360 H   0  0  0  0  0  0  0  0  0  0  0  0
   47.9490   33.8920   40.0760 C   0  0  0  0  0  3  0  0  0  0  0  0
   47.5710   33.5740   39.0840 H   0  0  0  0  0  0  0  0  0  0  0  0
   48.3210   35.2320   39.9210 O   0  0  0  0  0  0  0  0  0  0  0  0
   49.0710   35.7090   40.9900 C   0  0  0  0  0  3  0  0  0  0  0  0
   50.1510   35.6290   40.8580 H   0  0  0  0  0  0  0  0  0  0  0  0
   48.5330   35.0700   42.2470 C   0  0  0  0  0  3  0  0  0  0  0  0
   48.7270   35.6540   43.1490 H   0  0  0  0  0  0  0  0  0  0  0  0
  1  4  1  6  0  0  0
  1  3  1  0  0  0  0
  1  2  1  0  0  0  0
  2  6  1  0  0  0  0
  2  5  1  0  0  0  0
  3  8  1  0  0  0  0
  3  7  1  1  0  0  0
  3  2  1  0  0  0  0
  8  9  1  0  0  0  0
  9 10  2  0  0  0  0
  9 18  1  0  0  0  0
 10 19  1  0  0  0  0
 11 20  1  0  0  0  0
 11 10  1  0  0  0  0
 12 11  2  0  0  0  0
 13 21  1  0  0  0  0
 13 12  1  0  0  0  0
 14 13  2  0  0  0  0
 15 14  1  0  0  0  0
 15 16  2  0  0  0  0
 16 17  1  0  0  0  0
 17 12  1  0  0  0  0
 17  8  2  0  0  0  0
 22 14  1  0  0  0  0
 23 15  1  0  0  0  0
 24 16  1  0  0  0  0
 25 31  1  0  0  0  0
 25 30  1  0  0  0  0
 26 25  2  0  0  0  0
 27 26  1  0  0  0  0
 27 28  2  0  0  0  0
 28 29  1  0  0  0  0
 29 30  2  0  0  0  0
 29  1  1  0  0  0  0
 32 26  1  0  0  0  0
 33 41  1  0  0  0  0
 33 27  1  0  0  0  0
 34 35  1  0  0  0  0
 34 33  1  0  0  0  0
 36 34  1  0  0  0  0
 37 36  1  0  0  0  0
 38 36  1  0  0  0  0
 38 39  1  0  0  0  0
 39 41  1  0  0  0  0
 40 39  1  0  0  0  0
 41 42  1  0  0  0  0
M  END
>  <minimizedAffinity>
-5.7546587

>  <minimizedRMSD>
0.720252514

$$$$
