
 OpenBabel03252509053D

 49 51  0  0  1  0  0  0  0  0999 V2000
   46.6310   34.3740   43.7240 N   0  0  0  0  0  0  0  0  0  0  0  0
   46.2440   35.0940   42.5740 C   0  0  0  0  0  0  0  0  0  0  0  0
   44.7470   35.2310   42.3750 C   0  0  0  0  0  0  0  0  0  0  0  0
   43.9650   35.3220   43.6560 C   0  0  0  0  0  0  0  0  0  0  0  0
   44.8700   35.3560   44.8670 C   0  0  0  0  0  0  0  0  0  0  0  0
   45.7300   34.0420   44.7160 C   0  0  2  0  0  0  0  0  0  0  0  0
   46.6420   34.7480   41.6130 H   0  0  0  0  0  0  0  0  0  0  0  0
   46.6320   36.1420   42.6900 H   0  0  0  0  0  0  0  0  0  0  0  0
   44.4090   34.3980   41.7280 H   0  0  0  0  0  0  0  0  0  0  0  0
   44.5550   36.1710   41.8080 H   0  0  0  0  0  0  0  0  0  0  0  0
   43.3080   36.2240   43.6900 H   0  0  0  0  0  0  0  0  0  0  0  0
   43.3000   34.4570   43.7720 H   0  0  0  0  0  0  0  0  0  0  0  0
   44.2620   35.2220   45.7670 H   0  0  0  0  0  0  0  0  0  0  0  0
   45.5500   36.2310   44.8890 H   0  0  0  0  0  0  0  0  0  0  0  0
   44.9680   33.2660   44.4990 H   0  0  0  0  0  0  0  0  0  0  0  0
   47.7660   33.5150   43.5200 C   0  0  0  0  0  0  0  0  0  0  0  0
   48.1220   33.1700   44.5150 H   0  0  0  0  0  0  0  0  0  0  0  0
   48.5400   34.1130   43.0070 H   0  0  0  0  0  0  0  0  0  0  0  0
   47.3550   32.3340   42.7250 C   0  0  0  0  0  0  0  0  0  0  0  0
   47.2510   31.3990   43.3040 H   0  0  0  0  0  0  0  0  0  0  0  0
   46.3470   32.4910   42.2550 H   0  0  0  0  0  0  0  0  0  0  0  0
   50.3040   31.1910   40.6990 C   0  0  0  0  0  0  0  0  0  0  0  0
   49.4090   31.3900   41.7670 C   0  0  0  0  0  0  0  0  0  0  0  0
   48.2820   32.1400   41.5840 C   0  0  0  0  0  0  0  0  0  0  0  0
   48.0790   32.6610   40.3710 N   0  0  0  0  0  0  0  0  0  0  0  0
   48.9150   32.4830   39.3440 C   0  0  0  0  0  0  0  0  0  0  0  0
   50.0350   31.7510   39.4870 N   0  0  0  0  0  0  0  0  0  0  0  0
   51.2090   30.5930   40.8340 H   0  0  0  0  0  0  0  0  0  0  0  0
   49.6620   30.9250   42.7180 H   0  0  0  0  0  0  0  0  0  0  0  0
   48.5990   32.9780   38.4210 H   0  0  0  0  0  0  0  0  0  0  0  0
   46.3230   33.9430   45.9550 O   0  0  0  0  0  0  0  0  0  0  0  0
   45.6320   31.4000   45.6690 O   0  0  0  0  0  0  0  0  0  0  0  0
   46.0490   32.4500   46.6960 P   0  0  2  0  0  0  0  0  0  0  0  0
   44.7030   32.6760   47.7120 O   0  0  0  0  0  0  0  0  0  0  0  0
   44.8540   32.3400   48.6270 H   0  0  0  0  0  0  0  0  0  0  0  0
   47.3450   31.9610   47.6320 O   0  0  0  0  0  0  0  0  0  0  0  0
   47.6960   30.6710   47.2300 C   0  0  0  0  0  0  0  0  0  0  0  0
   46.8240   30.0050   47.4610 H   0  0  0  0  0  0  0  0  0  0  0  0
   47.9580   30.6230   46.1720 H   0  0  0  0  0  0  0  0  0  0  0  0
   48.8400   30.2480   48.1280 C   0  0  0  0  0  3  0  0  0  0  0  0
   49.0310   28.7500   48.1720 C   0  0  0  0  0  3  0  0  0  0  0  0
   48.1800   28.2890   48.7130 H   0  0  0  0  0  0  0  0  0  0  0  0
   50.2670   28.5290   49.0470 C   0  0  0  0  0  3  0  0  0  0  0  0
   50.4870   27.4510   49.1840 H   0  0  0  0  0  0  0  0  0  0  0  0
   50.0470   29.0550   50.3000 O   0  0  0  0  0  0  0  0  0  0  0  0
   49.8390   30.4160   50.3370 C   0  0  0  0  0  3  0  0  0  0  0  0
   49.6750   30.6880   51.3960 H   0  0  0  0  0  0  0  0  0  0  0  0
   48.6030   30.7780   49.5220 C   0  0  0  0  0  3  0  0  0  0  0  0
   47.7320   30.2420   49.9400 H   0  0  0  0  0  0  0  0  0  0  0  0
  1  6  1  0  0  0  0
  2  8  1  0  0  0  0
  2  1  1  0  0  0  0
  3  2  1  0  0  0  0
  3  4  1  0  0  0  0
  4 11  1  0  0  0  0
  4 12  1  0  0  0  0
  4  5  1  0  0  0  0
  5 14  1  0  0  0  0
  5 13  1  0  0  0  0
  6 15  1  6  0  0  0
  6  5  1  0  0  0  0
  6 31  1  0  0  0  0
  7  2  1  0  0  0  0
  9  3  1  0  0  0  0
 10  3  1  0  0  0  0
 16  1  1  0  0  0  0
 16 17  1  0  0  0  0
 18 16  1  0  0  0  0
 19 20  1  0  0  0  0
 19 16  1  0  0  0  0
 21 19  1  0  0  0  0
 22 28  1  0  0  0  0
 22 23  1  0  0  0  0
 23 29  1  0  0  0  0
 24 23  2  0  0  0  0
 24 19  1  0  0  0  0
 25 24  1  0  0  0  0
 26 27  1  0  0  0  0
 26 25  2  0  0  0  0
 27 22  2  0  0  0  0
 30 26  1  0  0  0  0
 31 33  1  0  0  0  0
 33 32  2  6  0  0  0
 33 36  1  0  0  0  0
 33 34  1  0  0  0  0
 34 35  1  0  0  0  0
 37 38  1  0  0  0  0
 37 36  1  0  0  0  0
 37 40  1  0  0  0  0
 39 37  1  0  0  0  0
 40 41  1  0  0  0  0
 40 48  1  0  0  0  0
 41 42  1  0  0  0  0
 41 43  1  0  0  0  0
 43 44  1  0  0  0  0
 43 45  1  0  0  0  0
 45 46  1  0  0  0  0
 46 47  1  0  0  0  0
 48 49  1  0  0  0  0
 48 46  1  0  0  0  0
M  END
>  <minimizedAffinity>
-4.86340618

>  <minimizedRMSD>
2.35669661

$$$$
