
 OpenBabel03252500153D

 39 42  0  0  0  0  0  0  0  0999 V2000
   45.5720   32.5060   40.2230 Cl  0  0  0  0  0  0  0  0  0  0  0  0
   46.8890   33.6160   39.9910 C   0  0  0  0  0  0  0  0  0  0  0  0
   47.4240   34.2920   41.0430 C   0  0  0  0  0  0  0  0  0  0  0  0
   48.4780   35.1890   40.8900 C   0  0  0  0  0  0  0  0  0  0  0  0
   48.9510   35.3510   39.6070 C   0  0  0  0  0  0  0  0  0  0  0  0
   48.4110   34.6660   38.5330 C   0  0  0  0  0  0  0  0  0  0  0  0
   47.3860   33.8020   38.7170 C   0  0  0  0  0  0  0  0  0  0  0  0
   48.9050   35.7220   41.7020 H   0  0  0  0  0  0  0  0  0  0  0  0
   49.7680   36.0250   39.3880 H   0  0  0  0  0  0  0  0  0  0  0  0
   48.8000   34.8100   37.5250 H   0  0  0  0  0  0  0  0  0  0  0  0
   46.7380   32.7750   44.3390 C   0  0  0  0  0  0  0  0  0  0  0  0
   45.8310   33.7030   44.9110 C   0  0  0  0  0  0  0  0  0  0  0  0
   45.4760   34.8150   44.1720 C   0  0  0  0  0  0  0  0  0  0  0  0
   46.0140   34.9760   42.9140 N   0  0  0  0  0  0  0  0  0  0  0  0
   46.8750   34.0750   42.3940 C   0  0  0  0  0  0  0  0  0  0  0  0
   47.2310   32.9880   43.1010 N   0  0  0  0  0  0  0  0  0  0  0  0
   47.0080   31.9100   44.9280 H   0  0  0  0  0  0  0  0  0  0  0  0
   45.4150   33.5720   45.8930 H   0  0  0  0  0  0  0  0  0  0  0  0
   44.5260   35.8660   44.6730 C   0  0  0  0  0  0  0  0  0  0  0  0
   45.0130   37.1090   44.4380 F   0  0  0  0  0  0  0  0  0  0  0  0
   43.3100   35.6970   44.0170 F   0  0  0  0  0  0  0  0  0  0  0  0
   44.3520   35.6190   46.0160 F   0  0  0  0  0  0  0  0  0  0  0  0
   46.8030   33.0720   37.6050 C   0  0  0  0  0  0  0  0  0  0  0  0
   45.4840   33.2240   37.1610 C   0  0  0  0  0  0  0  0  0  0  0  0
   45.2630   32.3840   36.0920 C   0  0  0  0  0  0  0  0  0  0  0  0
   46.4850   31.7490   35.9360 C   0  0  0  0  0  0  0  0  0  0  0  0
   47.3620   32.1690   36.8320 O   0  0  0  0  0  0  0  0  0  0  0  0
   44.7200   33.8900   37.5660 H   0  0  0  0  0  0  0  0  0  0  0  0
   44.4040   32.2100   35.4900 H   0  0  0  0  0  0  0  0  0  0  0  0
   46.9010   30.7120   34.9420 C   0  0  0  0  0  0  0  0  0  0  0  0
   47.5730   31.4530   33.7890 C   0  0  0  0  0  0  0  0  0  0  0  0
   46.8770   32.3000   33.5240 H   0  0  0  0  0  0  0  0  0  0  0  0
   47.7790   30.5980   32.5780 C   0  0  0  0  0  0  0  0  0  0  0  0
   48.8720   30.4990   32.4180 H   0  0  0  0  0  0  0  0  0  0  0  0
   47.1570   29.3740   32.7160 O   0  0  0  0  0  0  0  0  0  0  0  0
   45.7990   29.6200   32.9760 C   0  0  0  0  0  0  0  0  0  0  0  0
   45.1720   28.7330   32.7490 H   0  0  0  0  0  0  0  0  0  0  0  0
   45.6750   30.0220   34.4290 C   0  0  0  0  0  0  0  0  0  0  0  0
   45.4020   29.1390   35.0190 H   0  0  0  0  0  0  0  0  0  0  0  0
  2  1  1  0  0  0  0
  2  3  1  0  0  0  0
  3 15  1  0  0  0  0
  4  3  2  0  0  0  0
  4  8  1  0  0  0  0
  5  4  1  0  0  0  0
  6  7  1  0  0  0  0
  6  5  2  0  0  0  0
  7  2  2  0  0  0  0
  9  5  1  0  0  0  0
 10  6  1  0  0  0  0
 11 12  1  0  0  0  0
 11 17  1  0  0  0  0
 12 18  1  0  0  0  0
 13 19  1  0  0  0  0
 13 12  2  0  0  0  0
 14 13  1  0  0  0  0
 15 14  2  0  0  0  0
 15 16  1  0  0  0  0
 16 11  2  0  0  0  0
 19 22  1  0  0  0  0
 20 19  1  0  0  0  0
 21 19  1  0  0  0  0
 23  7  1  0  0  0  0
 24 28  1  0  0  0  0
 24 23  2  0  0  0  0
 25 24  1  0  0  0  0
 26 25  2  0  0  0  0
 26 27  1  0  0  0  0
 27 23  1  0  0  0  0
 29 25  1  0  0  0  0
 30 26  1  0  0  0  0
 31 30  1  0  0  0  0
 32 31  1  0  0  0  0
 33 35  1  0  0  0  0
 33 31  1  0  0  0  0
 34 33  1  0  0  0  0
 35 36  1  0  0  0  0
 36 38  1  0  0  0  0
 37 36  1  0  0  0  0
 38 30  1  0  0  0  0
 38 39  1  0  0  0  0
M  END
>  <minimizedAffinity>
-6.16810322

>  <minimizedRMSD>
1.0741725

$$$$
