
 OpenBabel03252507203D

 45 48  0  0  1  0  0  0  0  0999 V2000
   47.8700   30.6110   43.0980 C   0  0  0  0  0  0  0  0  0  0  0  0
   48.7140   30.8420   44.0360 O   0  0  0  0  0  0  0  0  0  0  0  0
   47.8990   29.4040   42.3380 N   0  0  0  0  0  0  0  0  0  0  0  0
   46.7930   28.5190   41.9440 C   0  0  0  0  0  0  0  0  0  0  0  0
   46.8400   28.2910   40.4360 C   0  0  0  0  0  0  0  0  0  0  0  0
   48.1080   27.5260   40.0970 C   0  0  0  0  0  0  0  0  0  0  0  0
   49.0420   27.5710   41.2490 C   0  0  0  0  0  0  0  0  0  0  0  0
   49.1690   28.9370   41.8730 C   0  0  1  0  0  0  0  0  0  0  0  0
   45.8760   29.1650   42.0760 H   0  0  0  0  0  0  0  0  0  0  0  0
   46.7350   27.6150   42.5360 H   0  0  0  0  0  0  0  0  0  0  0  0
   46.8560   29.3100   39.9850 H   0  0  0  0  0  0  0  0  0  0  0  0
   45.9140   27.7500   40.1770 H   0  0  0  0  0  0  0  0  0  0  0  0
   48.5000   27.7710   39.1160 H   0  0  0  0  0  0  0  0  0  0  0  0
   47.7530   26.4570   40.0090 H   0  0  0  0  0  0  0  0  0  0  0  0
   50.0240   27.1360   41.0800 H   0  0  0  0  0  0  0  0  0  0  0  0
   48.5810   26.9310   42.0610 H   0  0  0  0  0  0  0  0  0  0  0  0
   49.7740   28.7650   42.7910 H   0  0  0  0  0  0  0  0  0  0  0  0
   49.9580   29.8740   41.0170 C   0  0  0  0  0  3  0  0  0  0  0  0
   49.1950   30.6660   39.9970 C   0  0  0  0  0  3  0  0  0  0  0  0
   48.3220   31.1060   40.5490 H   0  0  0  0  0  0  0  0  0  0  0  0
   49.9910   31.9110   39.5780 C   0  0  0  0  0  3  0  0  0  0  0  0
   49.8680   32.7060   40.3130 H   0  0  0  0  0  0  0  0  0  0  0  0
   51.3100   31.5390   39.4490 O   0  0  0  0  0  0  0  0  0  0  0  0
   51.9080   31.2970   40.6820 C   0  0  0  0  0  3  0  0  0  0  0  0
   52.6040   30.4290   40.5210 H   0  0  0  0  0  0  0  0  0  0  0  0
   50.8870   30.7980   41.7210 C   0  0  0  0  0  3  0  0  0  0  0  0
   50.4140   31.7190   42.1110 H   0  0  0  0  0  0  0  0  0  0  0  0
   47.0380   32.4030   41.6800 C   0  0  0  0  0  0  0  0  0  0  0  0
   46.8680   31.5960   42.8090 C   0  0  0  0  0  0  0  0  0  0  0  0
   45.7610   31.7700   43.6060 C   0  0  0  0  0  0  0  0  0  0  0  0
   44.8710   32.7190   43.2690 N   0  0  0  0  0  0  0  0  0  0  0  0
   45.0280   33.5110   42.1730 C   0  0  0  0  0  0  0  0  0  0  0  0
   46.1050   33.3350   41.4050 N   0  0  0  0  0  0  0  0  0  0  0  0
   47.8680   32.3430   40.9930 H   0  0  0  0  0  0  0  0  0  0  0  0
   44.2850   34.2810   41.9200 H   0  0  0  0  0  0  0  0  0  0  0  0
   45.5960   30.9250   44.7710 C   0  0  0  0  0  0  0  0  0  0  0  0
   44.9590   29.7140   44.6620 C   0  0  0  0  0  0  0  0  0  0  0  0
   44.8180   28.9280   45.7840 C   0  0  0  0  0  0  0  0  0  0  0  0
   45.2880   29.2960   47.0300 C   0  0  0  0  0  0  0  0  0  0  0  0
   45.9180   30.5230   47.0760 C   0  0  0  0  0  0  0  0  0  0  0  0
   46.0470   31.2710   45.9820 N   0  0  0  0  0  0  0  0  0  0  0  0
   44.5460   29.3020   43.7790 H   0  0  0  0  0  0  0  0  0  0  0  0
   44.3170   27.9520   45.7490 H   0  0  0  0  0  0  0  0  0  0  0  0
   45.1910   28.6990   47.9260 H   0  0  0  0  0  0  0  0  0  0  0  0
   46.3270   30.9060   48.0190 H   0  0  0  0  0  0  0  0  0  0  0  0
  1  2  2  0  0  0  0
  3  1  1  0  0  0  0
  4  9  1  0  0  0  0
  4  3  1  0  0  0  0
  4 10  1  0  0  0  0
  5  4  1  0  0  0  0
  6  5  1  0  0  0  0
  6  7  1  0  0  0  0
  7  8  1  0  0  0  0
  7 16  1  0  0  0  0
  8  3  1  0  0  0  0
  8 17  1  1  0  0  0
 11  5  1  0  0  0  0
 12  5  1  0  0  0  0
 13  6  1  0  0  0  0
 14  6  1  0  0  0  0
 15  7  1  0  0  0  0
 18 26  1  0  0  0  0
 18  8  1  0  0  0  0
 19 20  1  0  0  0  0
 19 18  1  0  0  0  0
 21 19  1  0  0  0  0
 21 22  1  0  0  0  0
 23 21  1  0  0  0  0
 23 24  1  0  0  0  0
 24 26  1  0  0  0  0
 25 24  1  0  0  0  0
 26 27  1  0  0  0  0
 28 29  1  0  0  0  0
 29  1  1  0  0  0  0
 29 30  2  0  0  0  0
 30 36  1  0  0  0  0
 31 30  1  0  0  0  0
 32 31  2  0  0  0  0
 33 28  2  0  0  0  0
 33 32  1  0  0  0  0
 34 28  1  0  0  0  0
 35 32  1  0  0  0  0
 36 41  1  0  0  0  0
 37 36  2  0  0  0  0
 37 38  1  0  0  0  0
 38 39  2  0  0  0  0
 39 40  1  0  0  0  0
 39 44  1  0  0  0  0
 40 45  1  0  0  0  0
 41 40  2  0  0  0  0
 42 37  1  0  0  0  0
 43 38  1  0  0  0  0
M  END
>  <minimizedAffinity>
-2.96378112

>  <minimizedRMSD>
4.1131711

$$$$
