
 OpenBabel03252508393D

 42 45  0  0  0  0  0  0  0  0999 V2000
   45.1190   33.9490   40.7240 C   0  0  0  0  0  0  0  0  0  0  0  0
   44.0690   33.6330   39.9040 C   0  0  0  0  0  0  0  0  0  0  0  0
   44.3700   33.1320   38.6700 C   0  0  0  0  0  0  0  0  0  0  0  0
   45.6570   32.9310   38.2140 C   0  0  0  0  0  0  0  0  0  0  0  0
   46.6810   33.2600   39.0670 C   0  0  0  0  0  0  0  0  0  0  0  0
   46.4390   33.7660   40.3170 C   0  0  0  0  0  0  0  0  0  0  0  0
   43.5510   32.8780   38.0100 H   0  0  0  0  0  0  0  0  0  0  0  0
   45.8210   32.5270   37.2170 H   0  0  0  0  0  0  0  0  0  0  0  0
   47.6880   33.0940   38.6890 H   0  0  0  0  0  0  0  0  0  0  0  0
   40.7980   35.2920   40.7870 C   0  0  0  0  0  0  0  0  0  0  0  0
   42.0960   35.1060   40.2810 C   0  0  0  0  0  0  0  0  0  0  0  0
   42.7330   33.8570   40.4130 C   0  0  0  0  0  0  0  0  0  0  0  0
   42.0160   32.9050   41.0410 N   0  0  0  0  0  0  0  0  0  0  0  0
   40.7860   33.0930   41.5170 C   0  0  0  0  0  0  0  0  0  0  0  0
   40.1790   34.2850   41.3900 N   0  0  0  0  0  0  0  0  0  0  0  0
   40.2000   36.5500   40.6350 N   0  0  0  0  0  0  0  0  0  0  0  0
   42.6260   35.9220   39.7800 H   0  0  0  0  0  0  0  0  0  0  0  0
   40.2280   32.3070   42.0200 H   0  0  0  0  0  0  0  0  0  0  0  0
   39.3880   36.7340   39.9960 H   0  0  0  0  0  0  0  0  0  0  0  0
   40.7500   37.1620   41.2780 H   0  0  0  0  0  0  0  0  0  0  0  0
   47.5970   34.0830   41.1440 C   0  0  0  0  0  0  0  0  0  0  0  0
   48.1280   35.3480   40.9470 C   0  0  0  0  0  0  0  0  0  0  0  0
   49.2340   35.8320   41.6440 C   0  0  0  0  0  0  0  0  0  0  0  0
   49.8170   35.0030   42.5700 C   0  0  0  0  0  0  0  0  0  0  0  0
   49.2900   33.7340   42.7720 C   0  0  0  0  0  0  0  0  0  0  0  0
   48.1970   33.2660   42.0790 C   0  0  0  0  0  0  0  0  0  0  0  0
   47.7150   36.0570   40.2290 H   0  0  0  0  0  0  0  0  0  0  0  0
   49.6280   36.8220   41.4710 H   0  0  0  0  0  0  0  0  0  0  0  0
   50.6830   35.3620   43.1270 H   0  0  0  0  0  0  0  0  0  0  0  0
   49.7520   33.1070   43.4910 H   0  0  0  0  0  0  0  0  0  0  0  0
   47.6010   31.9300   42.2550 C   0  0  0  0  0  3  0  0  0  0  0  0
   48.6170   30.8040   42.2530 C   0  0  0  0  0  3  0  0  0  0  0  0
   49.4520   31.0040   42.9610 H   0  0  0  0  0  0  0  0  0  0  0  0
   47.8530   29.5980   42.8180 C   0  0  0  0  0  3  0  0  0  0  0  0
   46.7770   29.6350   42.5430 H   0  0  0  0  0  0  0  0  0  0  0  0
   47.8930   29.7450   44.2160 O   0  0  0  0  0  0  0  0  0  0  0  0
   47.6020   31.0280   44.6090 C   0  0  0  0  0  3  0  0  0  0  0  0
   48.4910   31.5210   45.0410 H   0  0  0  0  0  0  0  0  0  0  0  0
   46.8670   31.8360   43.5810 C   0  0  0  0  0  3  0  0  0  0  0  0
   46.7020   32.8480   44.0010 H   0  0  0  0  0  0  0  0  0  0  0  0
   44.7080   34.9230   43.1120 N   0  0  0  0  0  0  0  0  0  0  0  0
   44.8910   34.4810   42.0370 C   0  0  0  0  0  0  0  0  0  0  0  0
  1 42  1  0  0  0  0
  2 12  1  0  0  0  0
  2  1  2  0  0  0  0
  3  2  1  0  0  0  0
  4  3  2  0  0  0  0
  4  5  1  0  0  0  0
  5  6  2  0  0  0  0
  6  1  1  0  0  0  0
  6 21  1  0  0  0  0
  7  3  1  0  0  0  0
  8  4  1  0  0  0  0
  9  5  1  0  0  0  0
 10 15  1  0  0  0  0
 11 12  1  0  0  0  0
 11 10  2  0  0  0  0
 12 13  2  0  0  0  0
 13 14  1  0  0  0  0
 14 18  1  0  0  0  0
 15 14  2  0  0  0  0
 16 10  1  0  0  0  0
 16 20  1  0  0  0  0
 17 11  1  0  0  0  0
 19 16  1  0  0  0  0
 21 26  1  0  0  0  0
 22 21  2  0  0  0  0
 22 23  1  0  0  0  0
 23 24  2  0  0  0  0
 24 25  1  0  0  0  0
 24 29  1  0  0  0  0
 25 30  1  0  0  0  0
 26 31  1  0  0  0  0
 26 25  2  0  0  0  0
 27 22  1  0  0  0  0
 28 23  1  0  0  0  0
 31 39  1  0  0  0  0
 32 31  1  0  0  0  0
 32 34  1  0  0  0  0
 32 33  1  0  0  0  0
 34 36  1  0  0  0  0
 35 34  1  0  0  0  0
 36 37  1  0  0  0  0
 37 38  1  0  0  0  0
 39 40  1  0  0  0  0
 39 37  1  0  0  0  0
 42 41  3  0  0  0  0
M  END
>  <minimizedAffinity>
-6.14180183

>  <minimizedRMSD>
0.90769583

$$$$
