
 OpenBabel03252500583D

 39 41  0  0  0  0  0  0  0  0999 V2000
   43.6710   35.0740   40.1770 O   0  0  0  0  0  0  0  0  0  0  0  0
   43.2330   34.8380   41.6170 P   0  0  1  0  0  0  0  0  0  0  0  0
   43.1970   33.1530   41.8960 O   0  0  0  0  0  0  0  0  0  0  0  0
   44.0190   32.7280   41.5140 H   0  0  0  0  0  0  0  0  0  0  0  0
   44.3720   35.5090   42.6690 O   0  0  0  0  0  0  0  0  0  0  0  0
   46.3980   34.3960   43.0870 C   0  0  0  0  0  0  0  0  0  0  0  0
   45.1820   34.8270   43.5610 C   0  0  0  0  0  0  0  0  0  0  0  0
   44.8560   34.5430   44.9110 C   0  0  0  0  0  0  0  0  0  0  0  0
   45.7680   33.8670   45.6350 N   0  0  0  0  0  0  0  0  0  0  0  0
   46.9430   33.4600   45.1460 C   0  0  0  0  0  0  0  0  0  0  0  0
   47.2590   33.7270   43.8630 N   0  0  0  0  0  0  0  0  0  0  0  0
   43.9030   34.9030   45.2170 H   0  0  0  0  0  0  0  0  0  0  0  0
   47.6030   32.9290   45.7950 H   0  0  0  0  0  0  0  0  0  0  0  0
   46.7980   34.6560   41.7020 C   0  0  0  0  0  0  0  0  0  0  0  0
   46.7180   33.7660   41.0480 H   0  0  0  0  0  0  0  0  0  0  0  0
   46.1080   35.4310   41.2640 H   0  0  0  0  0  0  0  0  0  0  0  0
   48.1680   35.2710   41.6850 C   0  0  0  0  0  0  0  0  0  0  0  0
   48.2230   36.0540   42.4440 H   0  0  0  0  0  0  0  0  0  0  0  0
   48.3490   35.7610   40.6950 H   0  0  0  0  0  0  0  0  0  0  0  0
   48.9750   34.5090   41.7960 H   0  0  0  0  0  0  0  0  0  0  0  0
   41.6600   35.4100   41.8700 O   0  0  0  0  0  0  0  0  0  0  0  0
   40.6010   34.7220   41.3110 C   0  0  0  0  0  0  0  0  0  0  0  0
   39.8820   35.3460   40.2890 C   0  0  0  0  0  0  0  0  0  0  0  0
   38.8050   34.7270   39.6700 C   0  0  0  0  0  0  0  0  0  0  0  0
   38.4600   33.4720   40.0960 N   0  0  0  0  0  0  0  0  0  0  0  0
   39.1510   32.8820   41.0720 C   0  0  0  0  0  0  0  0  0  0  0  0
   40.1760   33.5000   41.6430 N   0  0  0  0  0  0  0  0  0  0  0  0
   40.1530   36.3280   39.9570 H   0  0  0  0  0  0  0  0  0  0  0  0
   38.2650   35.2360   38.8790 H   0  0  0  0  0  0  0  0  0  0  0  0
   38.7070   31.5210   41.4680 C   0  0  0  0  0  0  0  0  0  0  0  0
   37.9250   30.8200   40.3690 C   0  0  0  0  0  0  0  0  0  0  0  0
   37.2240   30.1210   40.8800 H   0  0  0  0  0  0  0  0  0  0  0  0
   38.8450   29.9520   39.5170 C   0  0  0  0  0  0  0  0  0  0  0  0
   38.4210   29.9610   38.4920 H   0  0  0  0  0  0  0  0  0  0  0  0
   40.1200   30.5050   39.4360 O   0  0  0  0  0  0  0  0  0  0  0  0
   40.7790   30.5270   40.6410 C   0  0  0  0  0  0  0  0  0  0  0  0
   41.4650   31.4190   40.6480 H   0  0  0  0  0  0  0  0  0  0  0  0
   39.8610   30.6120   41.8390 C   0  0  0  0  0  0  0  0  0  0  0  0
   40.4770   31.0550   42.6590 H   0  0  0  0  0  0  0  0  0  0  0  0
  2  1  2  6  0  0  0
  2 21  1  0  0  0  0
  2  3  1  0  0  0  0
  2  5  1  0  0  0  0
  4  3  1  0  0  0  0
  5  7  1  0  0  0  0
  6  7  2  0  0  0  0
  6 11  1  0  0  0  0
  7  8  1  0  0  0  0
  8 12  1  0  0  0  0
  8  9  2  0  0  0  0
 10  9  1  0  0  0  0
 10 13  1  0  0  0  0
 11 10  2  0  0  0  0
 14  6  1  0  0  0  0
 15 14  1  0  0  0  0
 16 14  1  0  0  0  0
 17 14  1  0  0  0  0
 17 20  1  0  0  0  0
 17 18  1  0  0  0  0
 19 17  1  0  0  0  0
 22 27  1  0  0  0  0
 22 21  1  0  0  0  0
 23 22  2  0  0  0  0
 24 25  2  0  0  0  0
 24 23  1  0  0  0  0
 25 26  1  0  0  0  0
 26 30  1  0  0  0  0
 26 27  2  0  0  0  0
 28 23  1  0  0  0  0
 29 24  1  0  0  0  0
 30 38  1  0  0  0  0
 31 32  1  0  0  0  0
 31 30  1  0  0  0  0
 33 31  1  0  0  0  0
 34 33  1  0  0  0  0
 35 33  1  0  0  0  0
 35 36  1  0  0  0  0
 36 37  1  0  0  0  0
 36 38  1  0  0  0  0
 38 39  1  0  0  0  0
M  END
>  <minimizedAffinity>
-5.67435789

>  <minimizedRMSD>
1.34144557

$$$$
