
 OpenBabel03252507533D

 39 42  0  0  1  0  0  0  0  0999 V2000
   47.1880   34.5160   41.3650 C   0  0  2  0  0  0  0  0  0  0  0  0
   46.6540   35.2040   42.5910 C   0  0  0  0  0  0  0  0  0  0  0  0
   45.2080   35.4110   42.1250 C   0  0  0  0  0  0  0  0  0  0  0  0
   44.8920   34.2140   41.2590 C   0  0  1  0  0  0  0  0  0  0  0  0
   46.1390   33.4180   41.1950 C   0  0  0  0  0  0  0  0  0  0  0  0
   47.1990   35.2540   40.5670 H   0  0  0  0  0  0  0  0  0  0  0  0
   47.1260   36.2110   42.6760 H   0  0  0  0  0  0  0  0  0  0  0  0
   46.7280   34.5990   43.5010 H   0  0  0  0  0  0  0  0  0  0  0  0
   45.0520   36.3800   41.6470 H   0  0  0  0  0  0  0  0  0  0  0  0
   44.6050   35.3190   43.0660 H   0  0  0  0  0  0  0  0  0  0  0  0
   44.6470   34.5750   40.2560 H   0  0  0  0  0  0  0  0  0  0  0  0
   46.4140   32.8030   42.0530 H   0  0  0  0  0  0  0  0  0  0  0  0
   46.3910   32.9750   40.2140 H   0  0  0  0  0  0  0  0  0  0  0  0
   50.7260   33.9070   42.5150 C   0  0  0  0  0  0  0  0  0  0  0  0
   49.4680   34.5550   42.4240 C   0  0  0  0  0  0  0  0  0  0  0  0
   48.5420   33.9210   41.5550 C   0  0  0  0  0  0  0  0  0  0  0  0
   48.8620   32.7600   40.8580 N   0  0  0  0  0  0  0  0  0  0  0  0
   50.0960   32.2280   41.0230 C   0  0  0  0  0  0  0  0  0  0  0  0
   51.0100   32.7950   41.8380 N   0  0  0  0  0  0  0  0  0  0  0  0
   51.4450   34.3750   43.1730 H   0  0  0  0  0  0  0  0  0  0  0  0
   49.1720   35.4380   42.9310 H   0  0  0  0  0  0  0  0  0  0  0  0
   50.1970   31.3370   40.4240 H   0  0  0  0  0  0  0  0  0  0  0  0
   43.8360   33.3280   41.8520 C   0  0  2  0  0  0  0  0  0  0  0  0
   43.6360   32.0100   41.2940 C   0  0  0  0  0  0  0  0  0  0  0  0
   42.5430   33.0720   41.2860 C   0  0  2  0  0  0  0  0  0  0  0  0
   43.9350   33.4040   42.9560 H   0  0  0  0  0  0  0  0  0  0  0  0
   43.7000   31.5520   40.3300 H   0  0  0  0  0  0  0  0  0  0  0  0
   43.4330   31.1760   42.0440 H   0  0  0  0  0  0  0  0  0  0  0  0
   41.6970   32.9500   42.0320 H   0  0  0  0  0  0  0  0  0  0  0  0
   42.0080   33.5800   39.9870 C   0  0  0  0  0  0  0  0  0  0  0  0
   42.0920   35.0620   39.7860 C   0  0  0  0  0  0  0  0  0  0  0  0
   42.8680   35.2650   39.0180 H   0  0  0  0  0  0  0  0  0  0  0  0
   40.7850   35.5210   39.1290 C   0  0  0  0  0  0  0  0  0  0  0  0
   40.6640   35.0200   38.1480 H   0  0  0  0  0  0  0  0  0  0  0  0
   39.6820   35.3360   39.9240 O   0  0  0  0  0  0  0  0  0  0  0  0
   39.7390   34.1690   40.6670 C   0  0  0  0  0  0  0  0  0  0  0  0
   40.2600   34.4210   41.6020 H   0  0  0  0  0  0  0  0  0  0  0  0
   40.5510   33.1810   39.8430 C   0  0  0  0  0  0  0  0  0  0  0  0
   40.2240   33.1390   38.8060 H   0  0  0  0  0  0  0  0  0  0  0  0
  1  6  1  6  0  0  0
  1 16  1  0  0  0  0
  1  2  1  0  0  0  0
  2  7  1  0  0  0  0
  2  8  1  0  0  0  0
  3  2  1  0  0  0  0
  3 10  1  0  0  0  0
  4 11  1  6  0  0  0
  4 23  1  0  0  0  0
  4  3  1  0  0  0  0
  5  4  1  0  0  0  0
  5  1  1  0  0  0  0
  5 12  1  0  0  0  0
  9  3  1  0  0  0  0
 13  5  1  0  0  0  0
 14 20  1  0  0  0  0
 15 14  1  0  0  0  0
 15 21  1  0  0  0  0
 16 15  2  0  0  0  0
 17 18  2  0  0  0  0
 17 16  1  0  0  0  0
 18 19  1  0  0  0  0
 19 14  2  0  0  0  0
 22 18  1  0  0  0  0
 23 26  1  1  0  0  0
 24 23  1  0  0  0  0
 24 28  1  0  0  0  0
 25 24  1  0  0  0  0
 25 23  1  0  0  0  0
 25 29  1  1  0  0  0
 27 24  1  0  0  0  0
 30 25  1  0  0  0  0
 31 30  1  0  0  0  0
 32 31  1  0  0  0  0
 33 31  1  0  0  0  0
 33 35  1  0  0  0  0
 34 33  1  0  0  0  0
 35 36  1  0  0  0  0
 36 37  1  0  0  0  0
 38 30  1  0  0  0  0
 38 36  1  0  0  0  0
 39 38  1  0  0  0  0
M  END
>  <minimizedAffinity>
-5.15519619

>  <minimizedRMSD>
7.32613754

$$$$
