
 OpenBabel03252505543D

 34 36  0  0  0  0  0  0  0  0999 V2000
   46.6730   30.6280   47.8020 C   0  0  0  0  0  0  0  0  0  0  0  0
   47.1490   29.5610   47.0550 C   0  0  0  0  0  0  0  0  0  0  0  0
   48.3480   29.0070   47.3940 C   0  0  0  0  0  0  0  0  0  0  0  0
   49.0880   29.4520   48.4190 N   0  0  0  0  0  0  0  0  0  0  0  0
   48.6140   30.4890   49.1350 C   0  0  0  0  0  0  0  0  0  0  0  0
   47.4260   31.0830   48.8460 N   0  0  0  0  0  0  0  0  0  0  0  0
   46.4810   29.2920   46.2680 H   0  0  0  0  0  0  0  0  0  0  0  0
   48.6540   28.1770   46.7640 H   0  0  0  0  0  0  0  0  0  0  0  0
   49.4780   30.9510   50.2710 C   0  0  0  0  0  0  0  0  0  0  0  0
   50.2740   29.8590   50.8960 C   0  0  0  0  0  0  0  0  0  0  0  0
   49.7200   29.4990   51.8040 H   0  0  0  0  0  0  0  0  0  0  0  0
   51.5830   30.4710   51.3670 C   0  0  0  0  0  0  0  0  0  0  0  0
   51.3400   31.4470   51.8430 H   0  0  0  0  0  0  0  0  0  0  0  0
   52.3570   30.6480   50.2240 O   0  0  0  0  0  0  0  0  0  0  0  0
   51.7290   31.4260   49.2670 C   0  0  0  0  0  0  0  0  0  0  0  0
   51.5260   30.8890   48.3250 H   0  0  0  0  0  0  0  0  0  0  0  0
   50.4340   32.0230   49.7480 C   0  0  0  0  0  0  0  0  0  0  0  0
   49.9550   32.4780   48.8330 H   0  0  0  0  0  0  0  0  0  0  0  0
   45.4400   31.4090   47.6720 C   0  0  0  0  0  0  0  0  0  0  0  0
   44.8800   31.0790   46.7610 H   0  0  0  0  0  0  0  0  0  0  0  0
   44.7660   31.2440   48.5240 H   0  0  0  0  0  0  0  0  0  0  0  0
   45.8040   32.7670   47.5870 O   0  0  0  0  0  0  0  0  0  0  0  0
   44.6910   35.1840   45.2130 C   0  0  0  0  0  0  0  0  0  0  0  0
   45.4370   34.9090   44.0770 C   0  0  0  0  0  0  0  0  0  0  0  0
   46.3480   33.8500   44.1570 C   0  0  0  0  0  0  0  0  0  0  0  0
   46.4670   33.1560   45.2930 N   0  0  0  0  0  0  0  0  0  0  0  0
   45.7120   33.4660   46.3800 C   0  0  0  0  0  0  0  0  0  0  0  0
   44.8250   34.4720   46.3530 N   0  0  0  0  0  0  0  0  0  0  0  0
   43.9870   35.9940   45.1700 H   0  0  0  0  0  0  0  0  0  0  0  0
   46.9280   33.6410   43.2650 H   0  0  0  0  0  0  0  0  0  0  0  0
   45.2180   35.7520   42.8630 C   0  0  0  0  0  0  0  0  0  0  0  0
   45.3010   37.0490   43.3050 F   0  0  0  0  0  0  0  0  0  0  0  0
   43.9110   35.4740   42.4350 F   0  0  0  0  0  0  0  0  0  0  0  0
   46.1460   35.4280   41.9250 F   0  0  0  0  0  0  0  0  0  0  0  0
  1  6  1  0  0  0  0
  2  3  1  0  0  0  0
  2  1  2  0  0  0  0
  3  4  2  0  0  0  0
  4  5  1  0  0  0  0
  5  9  1  0  0  0  0
  6  5  2  0  0  0  0
  7  2  1  0  0  0  0
  8  3  1  0  0  0  0
  9 10  1  0  0  0  0
 10 12  1  0  0  0  0
 10 11  1  0  0  0  0
 12 13  1  0  0  0  0
 14 12  1  0  0  0  0
 15 17  1  0  0  0  0
 15 14  1  0  0  0  0
 16 15  1  0  0  0  0
 17  9  1  0  0  0  0
 18 17  1  0  0  0  0
 19  1  1  0  0  0  0
 19 21  1  0  0  0  0
 20 19  1  0  0  0  0
 22 19  1  0  0  0  0
 23 28  1  0  0  0  0
 24 25  1  0  0  0  0
 24 23  2  0  0  0  0
 25 26  2  0  0  0  0
 26 27  1  0  0  0  0
 27 22  1  0  0  0  0
 28 27  2  0  0  0  0
 29 23  1  0  0  0  0
 30 25  1  0  0  0  0
 31 32  1  0  0  0  0
 31 24  1  0  0  0  0
 33 31  1  0  0  0  0
 34 31  1  0  0  0  0
M  END
>  <minimizedAffinity>
-5.71008301

>  <minimizedRMSD>
0.908911884

$$$$
