
 OpenBabel03252509163D

 26 28  0  0  0  0  0  0  0  0999 V2000
   45.8940   33.0770   46.3880 C   0  0  0  0  0  0  0  0  0  0  0  0
   45.3440   32.9030   47.6840 C   0  0  0  0  0  0  0  0  0  0  0  0
   45.9550   32.0330   48.5260 C   0  0  0  0  0  0  0  0  0  0  0  0
   47.1090   31.3350   48.0890 C   0  0  0  0  0  0  0  0  0  0  0  0
   47.3290   31.9530   46.3930 S   0  0  0  0  0  0  0  0  0  0  0  0
   44.4630   33.4510   47.9870 H   0  0  0  0  0  0  0  0  0  0  0  0
   45.6580   31.8030   49.5150 H   0  0  0  0  0  0  0  0  0  0  0  0
   47.9720   30.3890   48.6720 C   0  0  0  0  0  3  0  0  0  0  0  0
   48.9810   31.0740   49.5720 C   0  0  0  0  0  3  0  0  0  0  0  0
   48.4380   31.5510   50.4250 H   0  0  0  0  0  0  0  0  0  0  0  0
   50.0130   30.0620   50.0270 C   0  0  0  0  0  3  0  0  0  0  0  0
   50.0180   30.0390   51.1530 H   0  0  0  0  0  0  0  0  0  0  0  0
   49.6310   28.8040   49.6300 O   0  0  0  0  0  0  0  0  0  0  0  0
   49.6070   28.6180   48.2670 C   0  0  0  0  0  3  0  0  0  0  0  0
   50.6210   28.4930   47.8180 H   0  0  0  0  0  0  0  0  0  0  0  0
   48.8100   29.7080   47.5920 C   0  0  0  0  0  3  0  0  0  0  0  0
   48.2000   29.3400   46.7470 H   0  0  0  0  0  0  0  0  0  0  0  0
   44.3230   35.8900   44.5580 C   0  0  0  0  0  0  0  0  0  0  0  0
   44.4110   35.3860   43.2350 C   0  0  0  0  0  0  0  0  0  0  0  0
   44.9980   34.1220   43.0280 C   0  0  0  0  0  0  0  0  0  0  0  0
   45.4480   33.4560   44.1310 N   0  0  0  0  0  0  0  0  0  0  0  0
   45.3420   33.9790   45.3770 C   0  0  0  0  0  0  0  0  0  0  0  0
   44.7800   35.1960   45.5930 N   0  0  0  0  0  0  0  0  0  0  0  0
   43.8730   36.8620   44.7150 H   0  0  0  0  0  0  0  0  0  0  0  0
   44.0480   35.9320   42.3840 H   0  0  0  0  0  0  0  0  0  0  0  0
   45.0990   33.6780   42.0550 H   0  0  0  0  0  0  0  0  0  0  0  0
  1  5  1  0  0  0  0
  1  2  2  0  0  0  0
  2  6  1  0  0  0  0
  2  3  1  0  0  0  0
  3  7  1  0  0  0  0
  4  3  2  0  0  0  0
  4  8  1  0  0  0  0
  5  4  1  0  0  0  0
  8  9  1  0  0  0  0
  9 11  1  0  0  0  0
  9 10  1  0  0  0  0
 11 12  1  0  0  0  0
 13 11  1  0  0  0  0
 14 13  1  0  0  0  0
 15 14  1  0  0  0  0
 16 14  1  0  0  0  0
 16  8  1  0  0  0  0
 17 16  1  0  0  0  0
 18 24  1  0  0  0  0
 18 23  1  0  0  0  0
 19 18  2  0  0  0  0
 20 19  1  0  0  0  0
 20 21  2  0  0  0  0
 21 22  1  0  0  0  0
 22 23  2  0  0  0  0
 22  1  1  0  0  0  0
 25 19  1  0  0  0  0
 26 20  1  0  0  0  0
M  END
>  <minimizedAffinity>
-4.71810341

>  <minimizedRMSD>
0.92291683

$$$$
