
 OpenBabel03252500473D

 27 29  0  0  0  0  0  0  0  0999 V2000
   38.8760   28.0360   41.3970 C   0  0  0  0  0  0  0  0  0  0  0  0
   37.6230   27.5090   41.7980 C   0  0  0  0  0  0  0  0  0  0  0  0
   36.5300   28.3630   41.8230 C   0  0  0  0  0  0  0  0  0  0  0  0
   36.7310   29.6620   41.4580 N   0  0  0  0  0  0  0  0  0  0  0  0
   37.9260   30.1290   41.0860 C   0  0  0  0  0  0  0  0  0  0  0  0
   39.0080   29.3450   41.0460 N   0  0  0  0  0  0  0  0  0  0  0  0
   39.7950   27.4620   41.3410 H   0  0  0  0  0  0  0  0  0  0  0  0
   35.6010   27.9530   42.1240 H   0  0  0  0  0  0  0  0  0  0  0  0
   37.5940   26.0510   42.1640 C   0  0  0  0  0  3  0  0  0  0  0  0
   38.9890   25.5390   42.4370 C   0  0  0  0  0  3  0  0  0  0  0  0
   39.2100   25.8700   43.4970 H   0  0  0  0  0  0  0  0  0  0  0  0
   39.0610   24.0470   42.4740 C   0  0  0  0  0  3  0  0  0  0  0  0
   40.1330   23.7610   42.4630 H   0  0  0  0  0  0  0  0  0  0  0  0
   38.4880   23.4420   41.3610 O   0  0  0  0  0  0  0  0  0  0  0  0
   38.0850   24.4220   40.4240 C   0  0  0  0  0  3  0  0  0  0  0  0
   37.6780   23.9070   39.5290 H   0  0  0  0  0  0  0  0  0  0  0  0
   36.9910   25.2130   41.0850 C   0  0  0  0  0  3  0  0  0  0  0  0
   36.3820   25.7920   40.3610 H   0  0  0  0  0  0  0  0  0  0  0  0
   38.0770   31.5310   40.7060 C   0  0  0  0  0  0  0  0  0  0  0  0
   37.1310   32.1850   39.9660 C   0  0  0  0  0  0  0  0  0  0  0  0
   37.2290   33.5060   39.5850 C   0  0  0  0  0  0  0  0  0  0  0  0
   38.3470   34.1600   39.9890 N   0  0  0  0  0  0  0  0  0  0  0  0
   39.2870   33.5210   40.7210 C   0  0  0  0  0  0  0  0  0  0  0  0
   39.2030   32.2100   41.1070 N   0  0  0  0  0  0  0  0  0  0  0  0
   36.2460   31.6480   39.6530 H   0  0  0  0  0  0  0  0  0  0  0  0
   36.4760   33.9960   39.0060 H   0  0  0  0  0  0  0  0  0  0  0  0
   40.1470   34.1120   41.0030 H   0  0  0  0  0  0  0  0  0  0  0  0
  1  2  1  0  0  0  0
  2  3  2  0  0  0  0
  2  9  1  0  0  0  0
  3  8  1  0  0  0  0
  4  3  1  0  0  0  0
  5  4  2  0  0  0  0
  6  5  1  0  0  0  0
  6  1  2  0  0  0  0
  7  1  1  0  0  0  0
  9 10  1  0  0  0  0
 10 12  1  0  0  0  0
 10 11  1  0  0  0  0
 13 12  1  0  0  0  0
 14 12  1  0  0  0  0
 15 17  1  0  0  0  0
 15 14  1  0  0  0  0
 16 15  1  0  0  0  0
 17  9  1  0  0  0  0
 18 17  1  0  0  0  0
 19  5  1  0  0  0  0
 19 24  1  0  0  0  0
 20 19  2  0  0  0  0
 21 20  1  0  0  0  0
 21 22  2  0  0  0  0
 22 23  1  0  0  0  0
 23 27  1  0  0  0  0
 23 24  2  0  0  0  0
 25 20  1  0  0  0  0
 26 21  1  0  0  0  0
M  END
>  <minimizedAffinity>
-4.82529449

$$$$

 OpenBabel03252500473D

 27 29  0  0  0  0  0  0  0  0999 V2000
   35.3900   28.9620   40.7770 C   0  0  0  0  0  0  0  0  0  0  0  0
   36.4000   27.9690   40.8220 C   0  0  0  0  0  0  0  0  0  0  0  0
   36.6920   27.2760   39.6560 C   0  0  0  0  0  0  0  0  0  0  0  0
   35.9850   27.5960   38.5340 N   0  0  0  0  0  0  0  0  0  0  0  0
   35.0380   28.5380   38.5240 C   0  0  0  0  0  0  0  0  0  0  0  0
   34.7210   29.2320   39.6210 N   0  0  0  0  0  0  0  0  0  0  0  0
   35.0800   29.5630   41.6250 H   0  0  0  0  0  0  0  0  0  0  0  0
   37.4490   26.5380   39.7070 H   0  0  0  0  0  0  0  0  0  0  0  0
   37.0730   27.7560   42.1500 C   0  0  0  0  0  3  0  0  0  0  0  0
   38.5080   28.2250   42.1060 C   0  0  0  0  0  3  0  0  0  0  0  0
   38.4450   29.3470   42.2430 H   0  0  0  0  0  0  0  0  0  0  0  0
   39.3110   27.7370   43.2680 C   0  0  0  0  0  3  0  0  0  0  0  0
   40.3800   27.9410   43.0480 H   0  0  0  0  0  0  0  0  0  0  0  0
   39.2130   26.3660   43.4680 O   0  0  0  0  0  0  0  0  0  0  0  0
   38.4540   25.7730   42.4300 C   0  0  0  0  0  3  0  0  0  0  0  0
   38.4350   24.6750   42.5920 H   0  0  0  0  0  0  0  0  0  0  0  0
   37.0610   26.3200   42.5610 C   0  0  0  0  0  3  0  0  0  0  0  0
   36.3070   25.7110   42.0230 H   0  0  0  0  0  0  0  0  0  0  0  0
   34.3150   28.8340   37.2890 C   0  0  0  0  0  0  0  0  0  0  0  0
   32.9680   29.0710   37.2800 C   0  0  0  0  0  0  0  0  0  0  0  0
   32.2450   29.3550   36.1420 C   0  0  0  0  0  0  0  0  0  0  0  0
   32.9490   29.3910   34.9820 N   0  0  0  0  0  0  0  0  0  0  0  0
   34.2810   29.1580   34.9840 C   0  0  0  0  0  0  0  0  0  0  0  0
   35.0130   28.8760   36.1050 N   0  0  0  0  0  0  0  0  0  0  0  0
   32.4230   29.0380   38.2130 H   0  0  0  0  0  0  0  0  0  0  0  0
   31.1910   29.5360   36.1600 H   0  0  0  0  0  0  0  0  0  0  0  0
   34.7690   29.2070   34.0190 H   0  0  0  0  0  0  0  0  0  0  0  0
  1  2  1  0  0  0  0
  1  7  1  0  0  0  0
  2  9  1  0  0  0  0
  3  8  1  0  0  0  0
  3  2  2  0  0  0  0
  4  3  1  0  0  0  0
  5  4  2  0  0  0  0
  5  6  1  0  0  0  0
  6  1  2  0  0  0  0
  9 17  1  0  0  0  0
 10  9  1  0  0  0  0
 10 11  1  0  0  0  0
 10 12  1  0  0  0  0
 12 14  1  0  0  0  0
 13 12  1  0  0  0  0
 15 17  1  0  0  0  0
 15 16  1  0  0  0  0
 15 14  1  0  0  0  0
 18 17  1  0  0  0  0
 19  5  1  0  0  0  0
 20 19  1  0  0  0  0
 20 25  1  0  0  0  0
 21 26  1  0  0  0  0
 21 20  2  0  0  0  0
 22 23  2  0  0  0  0
 22 21  1  0  0  0  0
 23 24  1  0  0  0  0
 24 19  2  0  0  0  0
 27 23  1  0  0  0  0
M  END
>  <minimizedAffinity>
-4.50480413

$$$$

 OpenBabel03252500473D

 27 29  0  0  0  0  0  0  0  0999 V2000
   39.8120   28.2010   41.4940 C   0  0  0  0  0  0  0  0  0  0  0  0
   38.8280   28.1190   42.5100 C   0  0  0  0  0  0  0  0  0  0  0  0
   38.2040   29.2890   42.9160 C   0  0  0  0  0  0  0  0  0  0  0  0
   38.5790   30.4520   42.3080 N   0  0  0  0  0  0  0  0  0  0  0  0
   39.5110   30.4960   41.3520 C   0  0  0  0  0  0  0  0  0  0  0  0
   40.1400   29.3950   40.9290 N   0  0  0  0  0  0  0  0  0  0  0  0
   40.3630   27.3530   41.1020 H   0  0  0  0  0  0  0  0  0  0  0  0
   37.4710   29.2100   43.6760 H   0  0  0  0  0  0  0  0  0  0  0  0
   38.5470   26.7490   43.0630 C   0  0  0  0  0  3  0  0  0  0  0  0
   39.6540   25.7870   42.7000 C   0  0  0  0  0  3  0  0  0  0  0  0
   40.4710   25.9960   43.4550 H   0  0  0  0  0  0  0  0  0  0  0  0
   39.2760   24.3580   42.9260 C   0  0  0  0  0  3  0  0  0  0  0  0
   40.0470   23.7250   42.4400 H   0  0  0  0  0  0  0  0  0  0  0  0
   38.0650   24.0110   42.3390 O   0  0  0  0  0  0  0  0  0  0  0  0
   37.5620   25.0930   41.5770 C   0  0  0  0  0  3  0  0  0  0  0  0
   36.6220   24.7680   41.0830 H   0  0  0  0  0  0  0  0  0  0  0  0
   37.2570   26.1920   42.5550 C   0  0  0  0  0  3  0  0  0  0  0  0
   36.5750   26.9610   42.1400 H   0  0  0  0  0  0  0  0  0  0  0  0
   39.8690   31.7730   40.7390 C   0  0  0  0  0  0  0  0  0  0  0  0
   41.1070   31.9940   40.2010 C   0  0  0  0  0  0  0  0  0  0  0  0
   41.4890   33.1800   39.6130 C   0  0  0  0  0  0  0  0  0  0  0  0
   40.5520   34.1610   39.5870 N   0  0  0  0  0  0  0  0  0  0  0  0
   39.3260   33.9500   40.1160 C   0  0  0  0  0  0  0  0  0  0  0  0
   38.9320   32.7780   40.7040 N   0  0  0  0  0  0  0  0  0  0  0  0
   41.8410   31.2010   40.2310 H   0  0  0  0  0  0  0  0  0  0  0  0
   42.4630   33.3290   39.1990 H   0  0  0  0  0  0  0  0  0  0  0  0
   38.6370   34.7810   40.0550 H   0  0  0  0  0  0  0  0  0  0  0  0
  1  2  1  0  0  0  0
  2  3  2  0  0  0  0
  2  9  1  0  0  0  0
  3  8  1  0  0  0  0
  4  3  1  0  0  0  0
  5  4  2  0  0  0  0
  6  5  1  0  0  0  0
  6  1  2  0  0  0  0
  7  1  1  0  0  0  0
 10 12  1  0  0  0  0
 10  9  1  0  0  0  0
 10 11  1  0  0  0  0
 13 12  1  0  0  0  0
 14 12  1  0  0  0  0
 15 14  1  0  0  0  0
 15 17  1  0  0  0  0
 16 15  1  0  0  0  0
 17  9  1  0  0  0  0
 18 17  1  0  0  0  0
 19  5  1  0  0  0  0
 20 25  1  0  0  0  0
 20 19  2  0  0  0  0
 21 20  1  0  0  0  0
 22 21  2  0  0  0  0
 22 23  1  0  0  0  0
 23 24  2  0  0  0  0
 24 19  1  0  0  0  0
 26 21  1  0  0  0  0
 27 23  1  0  0  0  0
M  END
>  <minimizedAffinity>
-4.49218941

$$$$

 OpenBabel03252500473D

 27 29  0  0  0  0  0  0  0  0999 V2000
   39.3520   29.5460   40.6900 C   0  0  0  0  0  0  0  0  0  0  0  0
   38.5140   30.5270   41.2740 C   0  0  0  0  0  0  0  0  0  0  0  0
   37.2830   30.1260   41.7750 C   0  0  0  0  0  0  0  0  0  0  0  0
   36.9560   28.8060   41.6710 N   0  0  0  0  0  0  0  0  0  0  0  0
   37.7690   27.9040   41.1140 C   0  0  0  0  0  0  0  0  0  0  0  0
   38.9630   28.2420   40.6180 N   0  0  0  0  0  0  0  0  0  0  0  0
   40.3310   29.7450   40.2680 H   0  0  0  0  0  0  0  0  0  0  0  0
   36.6700   30.8720   42.2080 H   0  0  0  0  0  0  0  0  0  0  0  0
   39.0440   31.9340   41.2990 C   0  0  0  0  0  3  0  0  0  0  0  0
   38.1810   32.8470   40.4610 C   0  0  0  0  0  3  0  0  0  0  0  0
   37.3010   33.0970   41.1270 H   0  0  0  0  0  0  0  0  0  0  0  0
   38.8360   34.1610   40.1760 C   0  0  0  0  0  3  0  0  0  0  0  0
   38.2380   34.6720   39.3920 H   0  0  0  0  0  0  0  0  0  0  0  0
   40.1200   34.0350   39.6620 O   0  0  0  0  0  0  0  0  0  0  0  0
   40.4260   32.6710   39.4360 C   0  0  0  0  0  3  0  0  0  0  0  0
   41.4370   32.6080   38.9820 H   0  0  0  0  0  0  0  0  0  0  0  0
   40.4460   32.0150   40.7880 C   0  0  0  0  0  3  0  0  0  0  0  0
   40.9740   31.0400   40.7850 H   0  0  0  0  0  0  0  0  0  0  0  0
   37.3610   26.5040   41.0330 C   0  0  0  0  0  0  0  0  0  0  0  0
   37.2620   25.7150   42.1460 C   0  0  0  0  0  0  0  0  0  0  0  0
   36.8810   24.3910   42.1200 C   0  0  0  0  0  0  0  0  0  0  0  0
   36.5980   23.8780   40.8960 N   0  0  0  0  0  0  0  0  0  0  0  0
   36.6930   24.6510   39.7910 C   0  0  0  0  0  0  0  0  0  0  0  0
   37.0690   25.9670   39.8020 N   0  0  0  0  0  0  0  0  0  0  0  0
   37.4920   26.1410   43.1130 H   0  0  0  0  0  0  0  0  0  0  0  0
   36.8120   23.7940   43.0040 H   0  0  0  0  0  0  0  0  0  0  0  0
   36.4490   24.1670   38.8550 H   0  0  0  0  0  0  0  0  0  0  0  0
  1  2  1  0  0  0  0
  2  9  1  0  0  0  0
  2  3  2  0  0  0  0
  3  8  1  0  0  0  0
  4  3  1  0  0  0  0
  5  4  2  0  0  0  0
  6  1  2  0  0  0  0
  6  5  1  0  0  0  0
  7  1  1  0  0  0  0
 10 11  1  0  0  0  0
 10  9  1  0  0  0  0
 12 10  1  0  0  0  0
 13 12  1  0  0  0  0
 14 12  1  0  0  0  0
 15 14  1  0  0  0  0
 15 17  1  0  0  0  0
 16 15  1  0  0  0  0
 17  9  1  0  0  0  0
 18 17  1  0  0  0  0
 19  5  1  0  0  0  0
 19 20  1  0  0  0  0
 20 25  1  0  0  0  0
 21 20  2  0  0  0  0
 21 26  1  0  0  0  0
 22 21  1  0  0  0  0
 23 24  1  0  0  0  0
 23 22  2  0  0  0  0
 24 19  2  0  0  0  0
 27 23  1  0  0  0  0
M  END
>  <minimizedAffinity>
-4.38832808

$$$$

 OpenBabel03252500473D

 27 29  0  0  0  0  0  0  0  0999 V2000
   38.2540   26.1430   40.3150 C   0  0  0  0  0  0  0  0  0  0  0  0
   37.4920   25.5780   41.3690 C   0  0  0  0  0  0  0  0  0  0  0  0
   37.0580   26.4150   42.3870 C   0  0  0  0  0  0  0  0  0  0  0  0
   37.3930   27.7350   42.3090 N   0  0  0  0  0  0  0  0  0  0  0  0
   38.1130   28.2370   41.3020 C   0  0  0  0  0  0  0  0  0  0  0  0
   38.5530   27.4710   40.2990 N   0  0  0  0  0  0  0  0  0  0  0  0
   38.6440   25.5850   39.4710 H   0  0  0  0  0  0  0  0  0  0  0  0
   36.4910   25.9770   43.1650 H   0  0  0  0  0  0  0  0  0  0  0  0
   37.2210   24.1010   41.2840 C   0  0  0  0  0  3  0  0  0  0  0  0
   38.4010   23.3730   40.6850 C   0  0  0  0  0  3  0  0  0  0  0  0
   39.1300   23.2570   41.5430 H   0  0  0  0  0  0  0  0  0  0  0  0
   38.0690   21.9770   40.2690 C   0  0  0  0  0  3  0  0  0  0  0  0
   38.9130   21.5980   39.6550 H   0  0  0  0  0  0  0  0  0  0  0  0
   36.9390   21.8970   39.4630 O   0  0  0  0  0  0  0  0  0  0  0  0
   36.4650   23.1950   39.1550 C   0  0  0  0  0  3  0  0  0  0  0  0
   35.5940   23.0990   38.4730 H   0  0  0  0  0  0  0  0  0  0  0  0
   36.0150   23.7990   40.4560 C   0  0  0  0  0  3  0  0  0  0  0  0
   35.3420   24.6690   40.3170 H   0  0  0  0  0  0  0  0  0  0  0  0
   38.4390   29.6610   41.2760 C   0  0  0  0  0  0  0  0  0  0  0  0
   39.5720   30.1530   41.8620 C   0  0  0  0  0  0  0  0  0  0  0  0
   39.9220   31.4860   41.8630 C   0  0  0  0  0  0  0  0  0  0  0  0
   39.0630   32.3270   41.2330 N   0  0  0  0  0  0  0  0  0  0  0  0
   37.9410   31.8480   40.6510 C   0  0  0  0  0  0  0  0  0  0  0  0
   37.5810   30.5270   40.6420 N   0  0  0  0  0  0  0  0  0  0  0  0
   40.2460   29.4690   42.3600 H   0  0  0  0  0  0  0  0  0  0  0  0
   40.8140   31.8470   42.3290 H   0  0  0  0  0  0  0  0  0  0  0  0
   37.3090   32.5820   40.1690 H   0  0  0  0  0  0  0  0  0  0  0  0
  1  2  1  0  0  0  0
  2  3  2  0  0  0  0
  3  8  1  0  0  0  0
  4  3  1  0  0  0  0
  5  4  2  0  0  0  0
  6  1  2  0  0  0  0
  6  5  1  0  0  0  0
  7  1  1  0  0  0  0
  9  2  1  0  0  0  0
 10  9  1  0  0  0  0
 10 11  1  0  0  0  0
 12 10  1  0  0  0  0
 13 12  1  0  0  0  0
 14 12  1  0  0  0  0
 15 14  1  0  0  0  0
 15 17  1  0  0  0  0
 16 15  1  0  0  0  0
 17  9  1  0  0  0  0
 18 17  1  0  0  0  0
 19  5  1  0  0  0  0
 19 20  1  0  0  0  0
 20 21  2  0  0  0  0
 20 25  1  0  0  0  0
 21 26  1  0  0  0  0
 22 21  1  0  0  0  0
 23 22  2  0  0  0  0
 24 23  1  0  0  0  0
 24 19  2  0  0  0  0
 27 23  1  0  0  0  0
M  END
>  <minimizedAffinity>
-4.25978422

$$$$

 OpenBabel03252500473D

 27 29  0  0  0  0  0  0  0  0999 V2000
   36.7070   30.7990   38.5090 C   0  0  0  0  0  0  0  0  0  0  0  0
   36.5720   30.8910   39.9170 C   0  0  0  0  0  0  0  0  0  0  0  0
   35.7580   29.9690   40.5590 C   0  0  0  0  0  0  0  0  0  0  0  0
   35.1380   29.0270   39.7920 N   0  0  0  0  0  0  0  0  0  0  0  0
   35.2860   28.9670   38.4650 C   0  0  0  0  0  0  0  0  0  0  0  0
   36.0590   29.8330   37.8020 N   0  0  0  0  0  0  0  0  0  0  0  0
   37.3140   31.4650   37.9050 H   0  0  0  0  0  0  0  0  0  0  0  0
   35.6680   30.0510   41.6110 H   0  0  0  0  0  0  0  0  0  0  0  0
   37.3330   31.9970   40.5940 C   0  0  0  0  0  3  0  0  0  0  0  0
   37.4910   33.1820   39.6710 C   0  0  0  0  0  3  0  0  0  0  0  0
   36.5030   33.7300   39.7410 H   0  0  0  0  0  0  0  0  0  0  0  0
   38.5110   34.1610   40.1560 C   0  0  0  0  0  3  0  0  0  0  0  0
   38.7150   34.8730   39.3290 H   0  0  0  0  0  0  0  0  0  0  0  0
   39.7310   33.5740   40.4690 O   0  0  0  0  0  0  0  0  0  0  0  0
   39.7140   32.1990   40.1310 C   0  0  0  0  0  3  0  0  0  0  0  0
   40.7150   31.7710   40.3470 H   0  0  0  0  0  0  0  0  0  0  0  0
   38.6930   31.5570   41.0280 C   0  0  0  0  0  3  0  0  0  0  0  0
   38.8060   30.4560   41.0890 H   0  0  0  0  0  0  0  0  0  0  0  0
   34.5950   27.9340   37.6990 C   0  0  0  0  0  0  0  0  0  0  0  0
   34.9900   26.6250   37.7300 C   0  0  0  0  0  0  0  0  0  0  0  0
   34.3690   25.6160   37.0260 C   0  0  0  0  0  0  0  0  0  0  0  0
   33.3070   25.9870   36.2670 N   0  0  0  0  0  0  0  0  0  0  0  0
   32.9100   27.2790   36.2300 C   0  0  0  0  0  0  0  0  0  0  0  0
   33.5160   28.2910   36.9240 N   0  0  0  0  0  0  0  0  0  0  0  0
   35.8380   26.3470   38.3410 H   0  0  0  0  0  0  0  0  0  0  0  0
   34.6970   24.5990   37.0670 H   0  0  0  0  0  0  0  0  0  0  0  0
   32.0560   27.4920   35.6020 H   0  0  0  0  0  0  0  0  0  0  0  0
  1  2  1  0  0  0  0
  2  3  2  0  0  0  0
  2  9  1  0  0  0  0
  3  8  1  0  0  0  0
  4  3  1  0  0  0  0
  5  4  2  0  0  0  0
  6  5  1  0  0  0  0
  6  1  2  0  0  0  0
  7  1  1  0  0  0  0
  9 17  1  0  0  0  0
 10 11  1  0  0  0  0
 10 12  1  0  0  0  0
 10  9  1  0  0  0  0
 12 14  1  0  0  0  0
 13 12  1  0  0  0  0
 15 16  1  0  0  0  0
 15 14  1  0  0  0  0
 15 17  1  0  0  0  0
 17 18  1  0  0  0  0
 19 20  1  0  0  0  0
 19  5  1  0  0  0  0
 20 25  1  0  0  0  0
 21 26  1  0  0  0  0
 21 20  2  0  0  0  0
 22 21  1  0  0  0  0
 23 22  2  0  0  0  0
 23 24  1  0  0  0  0
 24 19  2  0  0  0  0
 27 23  1  0  0  0  0
M  END
>  <minimizedAffinity>
-4.2514019

$$$$

 OpenBabel03252500473D

 27 29  0  0  0  0  0  0  0  0999 V2000
   39.4450   30.3490   38.0210 C   0  0  0  0  0  0  0  0  0  0  0  0
   38.9740   31.5650   38.5750 C   0  0  0  0  0  0  0  0  0  0  0  0
   39.8210   32.6640   38.5630 C   0  0  0  0  0  0  0  0  0  0  0  0
   41.0600   32.5040   38.0140 N   0  0  0  0  0  0  0  0  0  0  0  0
   41.4750   31.3430   37.4990 C   0  0  0  0  0  0  0  0  0  0  0  0
   40.6950   30.2580   37.4880 N   0  0  0  0  0  0  0  0  0  0  0  0
   38.8710   29.4300   37.9780 H   0  0  0  0  0  0  0  0  0  0  0  0
   39.4530   33.5640   38.9810 H   0  0  0  0  0  0  0  0  0  0  0  0
   37.5780   31.5510   39.1350 C   0  0  0  0  0  3  0  0  0  0  0  0
   37.5900   31.1650   40.5950 C   0  0  0  0  0  3  0  0  0  0  0  0
   37.8690   32.1180   41.1390 H   0  0  0  0  0  0  0  0  0  0  0  0
   36.2320   30.8100   41.1100 C   0  0  0  0  0  3  0  0  0  0  0  0
   36.3630   30.3400   42.1080 H   0  0  0  0  0  0  0  0  0  0  0  0
   35.5740   29.8710   40.3240 O   0  0  0  0  0  0  0  0  0  0  0  0
   36.4280   29.4130   39.2920 C   0  0  0  0  0  3  0  0  0  0  0  0
   35.8910   28.6310   38.7140 H   0  0  0  0  0  0  0  0  0  0  0  0
   36.6900   30.5970   38.4050 C   0  0  0  0  0  3  0  0  0  0  0  0
   37.0750   30.3090   37.4060 H   0  0  0  0  0  0  0  0  0  0  0  0
   42.8140   31.2360   36.9260 C   0  0  0  0  0  0  0  0  0  0  0  0
   43.1000   30.3540   35.9200 C   0  0  0  0  0  0  0  0  0  0  0  0
   44.3460   30.2170   35.3480 C   0  0  0  0  0  0  0  0  0  0  0  0
   45.3190   31.0240   35.8410 N   0  0  0  0  0  0  0  0  0  0  0  0
   45.0440   31.8980   36.8350 C   0  0  0  0  0  0  0  0  0  0  0  0
   43.8120   32.0450   37.4130 N   0  0  0  0  0  0  0  0  0  0  0  0
   42.3120   29.7190   35.5390 H   0  0  0  0  0  0  0  0  0  0  0  0
   44.5450   29.5200   34.5620 H   0  0  0  0  0  0  0  0  0  0  0  0
   45.8740   32.5050   37.1720 H   0  0  0  0  0  0  0  0  0  0  0  0
  1  2  1  0  0  0  0
  2  9  1  0  0  0  0
  3  2  2  0  0  0  0
  3  8  1  0  0  0  0
  4  3  1  0  0  0  0
  5  4  2  0  0  0  0
  6  5  1  0  0  0  0
  6  1  2  0  0  0  0
  7  1  1  0  0  0  0
  9 10  1  0  0  0  0
 10 12  1  0  0  0  0
 10 11  1  0  0  0  0
 12 13  1  0  0  0  0
 14 12  1  0  0  0  0
 15 14  1  0  0  0  0
 16 15  1  0  0  0  0
 17  9  1  0  0  0  0
 17 15  1  0  0  0  0
 18 17  1  0  0  0  0
 19 24  1  0  0  0  0
 19  5  1  0  0  0  0
 20 19  2  0  0  0  0
 21 22  2  0  0  0  0
 21 20  1  0  0  0  0
 22 23  1  0  0  0  0
 23 27  1  0  0  0  0
 23 24  2  0  0  0  0
 25 20  1  0  0  0  0
 26 21  1  0  0  0  0
M  END
>  <minimizedAffinity>
-4.22935438

$$$$

 OpenBabel03252500473D

 27 29  0  0  0  0  0  0  0  0999 V2000
   40.3590   31.6540   40.9220 C   0  0  0  0  0  0  0  0  0  0  0  0
   40.0090   32.0280   39.6010 C   0  0  0  0  0  0  0  0  0  0  0  0
   39.0220   31.3000   38.9520 C   0  0  0  0  0  0  0  0  0  0  0  0
   38.4480   30.2650   39.6310 N   0  0  0  0  0  0  0  0  0  0  0  0
   38.8000   29.9370   40.8770 C   0  0  0  0  0  0  0  0  0  0  0  0
   39.7450   30.6090   41.5420 N   0  0  0  0  0  0  0  0  0  0  0  0
   41.1140   32.1500   41.5220 H   0  0  0  0  0  0  0  0  0  0  0  0
   38.7730   31.5930   37.9660 H   0  0  0  0  0  0  0  0  0  0  0  0
   40.7510   33.1980   39.0150 C   0  0  0  0  0  3  0  0  0  0  0  0
   41.4450   32.8050   37.7330 C   0  0  0  0  0  3  0  0  0  0  0  0
   40.6320   32.8420   36.9460 H   0  0  0  0  0  0  0  0  0  0  0  0
   42.4580   33.8120   37.2910 C   0  0  0  0  0  3  0  0  0  0  0  0
   43.0600   33.3510   36.4800 H   0  0  0  0  0  0  0  0  0  0  0  0
   43.3590   34.1600   38.2900 O   0  0  0  0  0  0  0  0  0  0  0  0
   43.1410   33.3700   39.4440 C   0  0  0  0  0  3  0  0  0  0  0  0
   43.9050   33.6380   40.2030 H   0  0  0  0  0  0  0  0  0  0  0  0
   41.7770   33.7400   39.9560 C   0  0  0  0  0  3  0  0  0  0  0  0
   41.6170   33.4360   41.0100 H   0  0  0  0  0  0  0  0  0  0  0  0
   38.1470   28.8180   41.5500 C   0  0  0  0  0  0  0  0  0  0  0  0
   38.0550   28.7490   42.9130 C   0  0  0  0  0  0  0  0  0  0  0  0
   37.4480   27.7150   43.5920 C   0  0  0  0  0  0  0  0  0  0  0  0
   36.9260   26.7250   42.8250 N   0  0  0  0  0  0  0  0  0  0  0  0
   37.0130   26.7850   41.4770 C   0  0  0  0  0  0  0  0  0  0  0  0
   37.6120   27.8060   40.7890 N   0  0  0  0  0  0  0  0  0  0  0  0
   38.4770   29.5470   43.5080 H   0  0  0  0  0  0  0  0  0  0  0  0
   37.3890   27.6830   44.6590 H   0  0  0  0  0  0  0  0  0  0  0  0
   36.5710   25.9580   40.9390 H   0  0  0  0  0  0  0  0  0  0  0  0
  1  7  1  0  0  0  0
  1  6  1  0  0  0  0
  2  1  2  0  0  0  0
  3  2  1  0  0  0  0
  3  4  2  0  0  0  0
  4  5  1  0  0  0  0
  5  6  2  0  0  0  0
  5 19  1  0  0  0  0
  8  3  1  0  0  0  0
  9  2  1  0  0  0  0
  9 17  1  0  0  0  0
 10  9  1  0  0  0  0
 11 10  1  0  0  0  0
 12 10  1  0  0  0  0
 12 14  1  0  0  0  0
 13 12  1  0  0  0  0
 14 15  1  0  0  0  0
 15 17  1  0  0  0  0
 15 16  1  0  0  0  0
 17 18  1  0  0  0  0
 19 20  1  0  0  0  0
 20 25  1  0  0  0  0
 20 21  2  0  0  0  0
 21 26  1  0  0  0  0
 22 21  1  0  0  0  0
 23 22  2  0  0  0  0
 24 23  1  0  0  0  0
 24 19  2  0  0  0  0
 27 23  1  0  0  0  0
M  END
>  <minimizedAffinity>
-4.19798756

$$$$

 OpenBabel03252500473D

 27 29  0  0  0  0  0  0  0  0999 V2000
   37.4570   29.1380   39.5370 C   0  0  0  0  0  0  0  0  0  0  0  0
   37.2570   29.7380   40.8050 C   0  0  0  0  0  0  0  0  0  0  0  0
   36.9600   28.9150   41.8820 C   0  0  0  0  0  0  0  0  0  0  0  0
   36.8800   27.5730   41.6510 N   0  0  0  0  0  0  0  0  0  0  0  0
   37.0740   27.0370   40.4420 C   0  0  0  0  0  0  0  0  0  0  0  0
   37.3620   27.7890   39.3750 N   0  0  0  0  0  0  0  0  0  0  0  0
   37.6920   29.6830   38.6290 H   0  0  0  0  0  0  0  0  0  0  0  0
   36.8140   29.3800   42.8210 H   0  0  0  0  0  0  0  0  0  0  0  0
   37.3860   31.2350   40.8660 C   0  0  0  0  0  3  0  0  0  0  0  0
   36.9410   31.8660   39.5680 C   0  0  0  0  0  3  0  0  0  0  0  0
   35.8120   31.8940   39.6380 H   0  0  0  0  0  0  0  0  0  0  0  0
   37.3580   33.2960   39.4470 C   0  0  0  0  0  3  0  0  0  0  0  0
   37.1840   33.6100   38.3960 H   0  0  0  0  0  0  0  0  0  0  0  0
   38.7110   33.4970   39.6910 O   0  0  0  0  0  0  0  0  0  0  0  0
   39.3640   32.2560   39.8820 C   0  0  0  0  0  3  0  0  0  0  0  0
   40.4480   32.4480   40.0260 H   0  0  0  0  0  0  0  0  0  0  0  0
   38.7900   31.6670   41.1400 C   0  0  0  0  0  3  0  0  0  0  0  0
   39.4250   30.8650   41.5670 H   0  0  0  0  0  0  0  0  0  0  0  0
   36.9740   25.5920   40.2590 C   0  0  0  0  0  0  0  0  0  0  0  0
   36.2640   25.0410   39.2280 C   0  0  0  0  0  0  0  0  0  0  0  0
   36.1420   23.6850   39.0150 C   0  0  0  0  0  0  0  0  0  0  0  0
   36.7800   22.8830   39.9050 N   0  0  0  0  0  0  0  0  0  0  0  0
   37.4830   23.4190   40.9270 C   0  0  0  0  0  0  0  0  0  0  0  0
   37.6140   24.7630   41.1510 N   0  0  0  0  0  0  0  0  0  0  0  0
   35.7630   25.6950   38.5280 H   0  0  0  0  0  0  0  0  0  0  0  0
   35.5810   23.2790   38.2010 H   0  0  0  0  0  0  0  0  0  0  0  0
   37.9620   22.7130   41.5910 H   0  0  0  0  0  0  0  0  0  0  0  0
  1  2  1  0  0  0  0
  2  9  1  0  0  0  0
  2  3  2  0  0  0  0
  3  8  1  0  0  0  0
  4  3  1  0  0  0  0
  5  4  2  0  0  0  0
  6  1  2  0  0  0  0
  6  5  1  0  0  0  0
  7  1  1  0  0  0  0
  9 17  1  0  0  0  0
 10 11  1  0  0  0  0
 10  9  1  0  0  0  0
 12 10  1  0  0  0  0
 12 14  1  0  0  0  0
 13 12  1  0  0  0  0
 14 15  1  0  0  0  0
 15 16  1  0  0  0  0
 15 17  1  0  0  0  0
 17 18  1  0  0  0  0
 19  5  1  0  0  0  0
 19 24  1  0  0  0  0
 20 19  2  0  0  0  0
 21 20  1  0  0  0  0
 21 22  2  0  0  0  0
 22 23  1  0  0  0  0
 23 24  2  0  0  0  0
 23 27  1  0  0  0  0
 25 20  1  0  0  0  0
 26 21  1  0  0  0  0
M  END
>  <minimizedAffinity>
-4.19100618

$$$$
