
 OpenBabel03252507203D

 45 48  0  0  1  0  0  0  0  0999 V2000
   46.7690   32.5410   43.9620 C   0  0  0  0  0  0  0  0  0  0  0  0
   48.0000   32.4410   44.3080 O   0  0  0  0  0  0  0  0  0  0  0  0
   46.1890   31.6830   42.9820 N   0  0  0  0  0  0  0  0  0  0  0  0
   44.9010   30.9750   43.0020 C   0  0  0  0  0  0  0  0  0  0  0  0
   44.1250   31.2970   41.7280 C   0  0  0  0  0  0  0  0  0  0  0  0
   44.8800   30.7260   40.5400 C   0  0  0  0  0  0  0  0  0  0  0  0
   46.2630   30.3780   40.9460 C   0  0  0  0  0  0  0  0  0  0  0  0
   46.9330   31.4350   41.7850 C   0  0  1  0  0  0  0  0  0  0  0  0
   44.3140   31.5140   43.8020 H   0  0  0  0  0  0  0  0  0  0  0  0
   44.9950   29.9180   43.2180 H   0  0  0  0  0  0  0  0  0  0  0  0
   44.0880   32.4100   41.6800 H   0  0  0  0  0  0  0  0  0  0  0  0
   43.1190   30.8660   41.8620 H   0  0  0  0  0  0  0  0  0  0  0  0
   44.7490   31.3110   39.6350 H   0  0  0  0  0  0  0  0  0  0  0  0
   44.3460   29.7520   40.3350 H   0  0  0  0  0  0  0  0  0  0  0  0
   46.9240   30.0500   40.1470 H   0  0  0  0  0  0  0  0  0  0  0  0
   46.1790   29.4830   41.6340 H   0  0  0  0  0  0  0  0  0  0  0  0
   47.8820   30.9610   42.1210 H   0  0  0  0  0  0  0  0  0  0  0  0
   47.3230   32.6300   40.9750 C   0  0  0  0  0  3  0  0  0  0  0  0
   48.2250   33.6310   41.6360 C   0  0  0  0  0  3  0  0  0  0  0  0
   49.0630   33.0330   42.0850 H   0  0  0  0  0  0  0  0  0  0  0  0
   48.9460   34.4840   40.5810 C   0  0  0  0  0  3  0  0  0  0  0  0
   49.8050   33.9480   40.1820 H   0  0  0  0  0  0  0  0  0  0  0  0
   48.0340   34.7860   39.5950 O   0  0  0  0  0  0  0  0  0  0  0  0
   47.7240   33.6770   38.8120 C   0  0  0  0  0  3  0  0  0  0  0  0
   46.6290   33.7670   38.5720 H   0  0  0  0  0  0  0  0  0  0  0  0
   47.8480   32.3660   39.6090 C   0  0  0  0  0  3  0  0  0  0  0  0
   48.9250   32.1160   39.5680 H   0  0  0  0  0  0  0  0  0  0  0  0
   45.4480   34.5750   43.7850 C   0  0  0  0  0  0  0  0  0  0  0  0
   45.9540   33.5450   44.5830 C   0  0  0  0  0  0  0  0  0  0  0  0
   45.6670   33.5260   45.9280 C   0  0  0  0  0  0  0  0  0  0  0  0
   44.9010   34.5080   46.4340 N   0  0  0  0  0  0  0  0  0  0  0  0
   44.4040   35.5150   45.6660 C   0  0  0  0  0  0  0  0  0  0  0  0
   44.6870   35.5260   44.3620 N   0  0  0  0  0  0  0  0  0  0  0  0
   45.6130   34.6770   42.7240 H   0  0  0  0  0  0  0  0  0  0  0  0
   43.7800   36.3070   46.1050 H   0  0  0  0  0  0  0  0  0  0  0  0
   46.1970   32.4520   46.7430 C   0  0  0  0  0  0  0  0  0  0  0  0
   45.6080   31.2120   46.7210 C   0  0  0  0  0  0  0  0  0  0  0  0
   46.1320   30.2080   47.5030 C   0  0  0  0  0  0  0  0  0  0  0  0
   47.2340   30.3800   48.3190 C   0  0  0  0  0  0  0  0  0  0  0  0
   47.7810   31.6470   48.2990 C   0  0  0  0  0  0  0  0  0  0  0  0
   47.2620   32.6080   47.5370 N   0  0  0  0  0  0  0  0  0  0  0  0
   44.7620   30.9330   46.1500 H   0  0  0  0  0  0  0  0  0  0  0  0
   45.6980   29.1990   47.5190 H   0  0  0  0  0  0  0  0  0  0  0  0
   47.6650   29.6100   48.9420 H   0  0  0  0  0  0  0  0  0  0  0  0
   48.6580   31.8860   48.9130 H   0  0  0  0  0  0  0  0  0  0  0  0
  1  2  2  0  0  0  0
  1 29  1  0  0  0  0
  3  4  1  0  0  0  0
  3  1  1  0  0  0  0
  4 10  1  0  0  0  0
  4  9  1  0  0  0  0
  5 12  1  0  0  0  0
  5  4  1  0  0  0  0
  6  7  1  0  0  0  0
  6  5  1  0  0  0  0
  7 16  1  0  0  0  0
  7  8  1  0  0  0  0
  8 17  1  1  0  0  0
  8  3  1  0  0  0  0
 11  5  1  0  0  0  0
 13  6  1  0  0  0  0
 14  6  1  0  0  0  0
 15  7  1  0  0  0  0
 18 19  1  0  0  0  0
 18  8  1  0  0  0  0
 19 20  1  0  0  0  0
 21 19  1  0  0  0  0
 22 21  1  0  0  0  0
 23 21  1  0  0  0  0
 24 23  1  0  0  0  0
 24 26  1  0  0  0  0
 25 24  1  0  0  0  0
 26 18  1  0  0  0  0
 27 26  1  0  0  0  0
 28 33  2  0  0  0  0
 28 29  1  0  0  0  0
 29 30  2  0  0  0  0
 30 31  1  0  0  0  0
 30 36  1  0  0  0  0
 32 35  1  0  0  0  0
 32 31  2  0  0  0  0
 33 32  1  0  0  0  0
 34 28  1  0  0  0  0
 36 41  1  0  0  0  0
 37 36  2  0  0  0  0
 37 38  1  0  0  0  0
 38 43  1  0  0  0  0
 38 39  2  0  0  0  0
 39 44  1  0  0  0  0
 40 39  1  0  0  0  0
 40 45  1  0  0  0  0
 41 40  2  0  0  0  0
 42 37  1  0  0  0  0
M  END
>  <minimizedAffinity>
-4.7477603

>  <minimizedRMSD>
2.32115364

$$$$
