
 OpenBabel03252503513D

 22 23  0  0  0  0  0  0  0  0999 V2000
   47.0810   34.9240   41.7550 C   0  0  0  0  0  0  0  0  0  0  0  0
   46.3260   34.0130   41.0060 C   0  0  0  0  0  0  0  0  0  0  0  0
   44.9410   33.9450   41.2510 C   0  0  0  0  0  0  0  0  0  0  0  0
   44.4310   34.7630   42.1940 N   0  0  0  0  0  0  0  0  0  0  0  0
   45.1750   35.6360   42.9080 C   0  0  0  0  0  0  0  0  0  0  0  0
   46.4980   35.7080   42.6820 N   0  0  0  0  0  0  0  0  0  0  0  0
   46.7740   33.3670   40.2520 H   0  0  0  0  0  0  0  0  0  0  0  0
   44.7020   36.2670   43.6530 H   0  0  0  0  0  0  0  0  0  0  0  0
   44.1230   32.9910   40.4710 C   0  0  0  0  0  3  0  0  0  0  0  0
   44.9670   31.7840   40.1450 C   0  0  0  0  0  3  0  0  0  0  0  0
   44.9750   31.0450   40.9590 H   0  0  0  0  0  0  0  0  0  0  0  0
   44.4280   31.2170   38.8520 C   0  0  0  0  0  3  0  0  0  0  0  0
   45.0260   30.2870   38.6550 H   0  0  0  0  0  0  0  0  0  0  0  0
   44.7420   32.0920   37.8350 O   0  0  0  0  0  0  0  0  0  0  0  0
   44.2570   33.3690   37.9920 C   0  0  0  0  0  3  0  0  0  0  0  0
   43.5710   33.5810   37.1460 H   0  0  0  0  0  0  0  0  0  0  0  0
   43.5020   33.6200   39.2670 C   0  0  0  0  0  3  0  0  0  0  0  0
   42.4190   33.3460   39.1550 H   0  0  0  0  0  0  0  0  0  0  0  0
   48.5590   34.9760   41.4750 C   0  0  0  0  0  0  0  0  0  0  0  0
   48.8740   35.9920   40.6130 F   0  0  0  0  0  0  0  0  0  0  0  0
   49.2230   35.0970   42.6780 F   0  0  0  0  0  0  0  0  0  0  0  0
   48.9580   33.7470   40.9390 F   0  0  0  0  0  0  0  0  0  0  0  0
  1  6  1  0  0  0  0
  2  3  1  0  0  0  0
  2  1  2  0  0  0  0
  3  4  2  0  0  0  0
  4  5  1  0  0  0  0
  5  8  1  0  0  0  0
  6  5  2  0  0  0  0
  7  2  1  0  0  0  0
  9  3  1  0  0  0  0
 10  9  1  0  0  0  0
 10 11  1  0  0  0  0
 12 10  1  0  0  0  0
 13 12  1  0  0  0  0
 14 15  1  0  0  0  0
 14 12  1  0  0  0  0
 15 17  1  0  0  0  0
 16 15  1  0  0  0  0
 17  9  1  0  0  0  0
 18 17  1  0  0  0  0
 19  1  1  0  0  0  0
 19 21  1  0  0  0  0
 20 19  1  0  0  0  0
 22 19  1  0  0  0  0
M  END
>  <minimizedAffinity>
-3.85212111

>  <minimizedRMSD>
5.05225039

$$$$
