
 OpenBabel03252507203D

 45 48  0  0  1  0  0  0  0  0999 V2000
   46.8510   32.2300   44.1980 C   0  0  0  0  0  0  0  0  0  0  0  0
   46.8490   33.0870   45.1520 O   0  0  0  0  0  0  0  0  0  0  0  0
   45.9640   31.1120   44.1880 N   0  0  0  0  0  0  0  0  0  0  0  0
   45.1490   30.5750   43.0880 C   0  0  0  0  0  0  0  0  0  0  0  0
   45.4270   29.0830   42.9340 C   0  0  0  0  0  0  0  0  0  0  0  0
   44.9440   28.3640   44.1820 C   0  0  0  0  0  0  0  0  0  0  0  0
   44.7070   29.3490   45.2650 C   0  0  0  0  0  0  0  0  0  0  0  0
   45.8020   30.3750   45.4030 C   0  0  1  0  0  0  0  0  0  0  0  0
   45.6220   31.0200   42.1640 H   0  0  0  0  0  0  0  0  0  0  0  0
   44.1010   30.8330   43.1660 H   0  0  0  0  0  0  0  0  0  0  0  0
   46.5340   28.9990   42.8280 H   0  0  0  0  0  0  0  0  0  0  0  0
   44.9100   28.7660   42.0130 H   0  0  0  0  0  0  0  0  0  0  0  0
   45.5320   27.4830   44.4170 H   0  0  0  0  0  0  0  0  0  0  0  0
   43.9320   27.9650   43.8780 H   0  0  0  0  0  0  0  0  0  0  0  0
   44.4510   28.9330   46.2370 H   0  0  0  0  0  0  0  0  0  0  0  0
   43.7960   29.9480   44.9610 H   0  0  0  0  0  0  0  0  0  0  0  0
   45.4040   31.1060   46.1410 H   0  0  0  0  0  0  0  0  0  0  0  0
   47.0400   29.7960   46.0090 C   0  0  0  0  0  3  0  0  0  0  0  0
   48.0810   29.2810   45.0590 C   0  0  0  0  0  3  0  0  0  0  0  0
   48.2280   30.0970   44.3000 H   0  0  0  0  0  0  0  0  0  0  0  0
   49.4520   29.2140   45.7500 C   0  0  0  0  0  3  0  0  0  0  0  0
   49.9220   30.1970   45.7580 H   0  0  0  0  0  0  0  0  0  0  0  0
   49.2540   28.7340   47.0250 O   0  0  0  0  0  0  0  0  0  0  0  0
   48.6370   29.6750   47.8450 C   0  0  0  0  0  3  0  0  0  0  0  0
   47.9400   29.0930   48.5080 H   0  0  0  0  0  0  0  0  0  0  0  0
   47.7230   30.6180   47.0430 C   0  0  0  0  0  3  0  0  0  0  0  0
   48.4060   31.3910   46.6410 H   0  0  0  0  0  0  0  0  0  0  0  0
   48.9220   31.6100   43.0840 C   0  0  0  0  0  0  0  0  0  0  0  0
   47.7710   32.4040   43.1120 C   0  0  0  0  0  0  0  0  0  0  0  0
   47.5580   33.3240   42.1120 C   0  0  0  0  0  0  0  0  0  0  0  0
   48.4720   33.4300   41.1320 N   0  0  0  0  0  0  0  0  0  0  0  0
   49.5950   32.6630   41.0960 C   0  0  0  0  0  0  0  0  0  0  0  0
   49.7940   31.7720   42.0700 N   0  0  0  0  0  0  0  0  0  0  0  0
   49.1780   30.8610   43.8170 H   0  0  0  0  0  0  0  0  0  0  0  0
   50.3280   32.7700   40.2830 H   0  0  0  0  0  0  0  0  0  0  0  0
   46.3600   34.1380   42.1530 C   0  0  0  0  0  0  0  0  0  0  0  0
   45.2620   33.7890   41.4070 C   0  0  0  0  0  0  0  0  0  0  0  0
   44.1350   34.5790   41.4650 C   0  0  0  0  0  0  0  0  0  0  0  0
   44.0470   35.7170   42.2430 C   0  0  0  0  0  0  0  0  0  0  0  0
   45.1820   36.0160   42.9680 C   0  0  0  0  0  0  0  0  0  0  0  0
   46.2650   35.2420   42.9020 N   0  0  0  0  0  0  0  0  0  0  0  0
   45.1820   32.9510   40.7660 H   0  0  0  0  0  0  0  0  0  0  0  0
   43.2310   34.3420   40.8880 H   0  0  0  0  0  0  0  0  0  0  0  0
   43.1760   36.3540   42.3070 H   0  0  0  0  0  0  0  0  0  0  0  0
   45.2150   36.9000   43.6170 H   0  0  0  0  0  0  0  0  0  0  0  0
  1  2  2  0  0  0  0
  3  1  1  0  0  0  0
  3  8  1  0  0  0  0
  4 10  1  0  0  0  0
  4  3  1  0  0  0  0
  5  4  1  0  0  0  0
  5  6  1  0  0  0  0
  6 13  1  0  0  0  0
  6  7  1  0  0  0  0
  7  8  1  0  0  0  0
  7 15  1  0  0  0  0
  8 18  1  0  0  0  0
  8 17  1  1  0  0  0
  9  4  1  0  0  0  0
 11  5  1  0  0  0  0
 12  5  1  0  0  0  0
 14  6  1  0  0  0  0
 16  7  1  0  0  0  0
 18 26  1  0  0  0  0
 19 21  1  0  0  0  0
 19 18  1  0  0  0  0
 20 19  1  0  0  0  0
 21 22  1  0  0  0  0
 21 23  1  0  0  0  0
 23 24  1  0  0  0  0
 24 25  1  0  0  0  0
 26 24  1  0  0  0  0
 27 26  1  0  0  0  0
 28 29  1  0  0  0  0
 28 34  1  0  0  0  0
 29  1  1  0  0  0  0
 30 36  1  0  0  0  0
 30 29  2  0  0  0  0
 31 30  1  0  0  0  0
 32 31  2  0  0  0  0
 32 33  1  0  0  0  0
 33 28  2  0  0  0  0
 35 32  1  0  0  0  0
 36 41  1  0  0  0  0
 37 38  1  0  0  0  0
 37 36  2  0  0  0  0
 38 39  2  0  0  0  0
 39 44  1  0  0  0  0
 39 40  1  0  0  0  0
 40 45  1  0  0  0  0
 41 40  2  0  0  0  0
 42 37  1  0  0  0  0
 43 38  1  0  0  0  0
M  END
>  <minimizedAffinity>
-4.38697243

>  <minimizedRMSD>
6.51165867

$$$$
