
 OpenBabel03252502443D

 32 34  0  0  1  0  0  0  0  0999 V2000
   48.9130   34.7100   41.5470 C   0  0  1  0  0  0  0  0  0  0  0  0
   49.9730   34.9820   42.5590 C   0  0  0  0  0  0  0  0  0  0  0  0
   49.4100   33.6090   42.3920 C   0  0  2  0  0  0  0  0  0  0  0  0
   49.1360   34.7680   40.4480 H   0  0  0  0  0  0  0  0  0  0  0  0
   50.9290   35.2680   42.0760 H   0  0  0  0  0  0  0  0  0  0  0  0
   49.8240   35.6050   43.4500 H   0  0  0  0  0  0  0  0  0  0  0  0
   48.8790   33.0090   43.1070 H   0  0  0  0  0  0  0  0  0  0  0  0
   50.3210   32.6760   41.6220 C   0  0  0  0  0  3  0  0  0  0  0  0
   50.8590   31.5660   42.4770 C   0  0  0  0  0  3  0  0  0  0  0  0
   50.0780   30.8630   42.8520 H   0  0  0  0  0  0  0  0  0  0  0  0
   51.7290   30.6630   41.6010 C   0  0  0  0  0  3  0  0  0  0  0  0
   52.0280   29.8250   42.2670 H   0  0  0  0  0  0  0  0  0  0  0  0
   50.9460   30.0860   40.6080 O   0  0  0  0  0  0  0  0  0  0  0  0
   50.4260   31.0160   39.7500 C   0  0  0  0  0  3  0  0  0  0  0  0
   49.6920   30.4660   39.0900 H   0  0  0  0  0  0  0  0  0  0  0  0
   49.7090   32.1600   40.3360 C   0  0  0  0  0  3  0  0  0  0  0  0
   48.6530   31.8570   40.5790 H   0  0  0  0  0  0  0  0  0  0  0  0
   47.5360   35.2190   41.8370 C   0  0  0  0  0  0  0  0  0  0  0  0
   47.6800   35.9230   42.7170 H   0  0  0  0  0  0  0  0  0  0  0  0
   47.0860   35.7960   41.0350 H   0  0  0  0  0  0  0  0  0  0  0  0
   46.7370   34.0180   42.3010 C   0  0  0  0  0  0  0  0  0  0  0  0
   47.4740   33.3810   42.8870 H   0  0  0  0  0  0  0  0  0  0  0  0
   46.1890   33.4930   41.5370 H   0  0  0  0  0  0  0  0  0  0  0  0
   44.5210   35.9220   44.6540 C   0  0  0  0  0  0  0  0  0  0  0  0
   45.1960   35.5520   43.4730 C   0  0  0  0  0  0  0  0  0  0  0  0
   45.9550   34.4120   43.5060 C   0  0  0  0  0  0  0  0  0  0  0  0
   46.0250   33.6900   44.6600 N   0  0  0  0  0  0  0  0  0  0  0  0
   45.3830   34.0510   45.7600 C   0  0  0  0  0  0  0  0  0  0  0  0
   44.6350   35.1580   45.7670 N   0  0  0  0  0  0  0  0  0  0  0  0
   43.8990   36.7910   44.7560 H   0  0  0  0  0  0  0  0  0  0  0  0
   44.9880   36.2540   42.6860 H   0  0  0  0  0  0  0  0  0  0  0  0
   45.4900   33.4230   46.6350 H   0  0  0  0  0  0  0  0  0  0  0  0
  1  4  1  6  0  0  0
  1 18  1  0  0  0  0
  1  3  1  0  0  0  0
  1  2  1  0  0  0  0
  2  6  1  0  0  0  0
  3  2  1  0  0  0  0
  3  7  1  1  0  0  0
  5  2  1  0  0  0  0
  8  3  1  0  0  0  0
  8  9  1  0  0  0  0
  9 10  1  0  0  0  0
 11 12  1  0  0  0  0
 11  9  1  0  0  0  0
 13 11  1  0  0  0  0
 14 16  1  0  0  0  0
 14 13  1  0  0  0  0
 15 14  1  0  0  0  0
 16 17  1  0  0  0  0
 16  8  1  0  0  0  0
 18 21  1  0  0  0  0
 18 19  1  0  0  0  0
 20 18  1  0  0  0  0
 21 22  1  0  0  0  0
 21 26  1  0  0  0  0
 23 21  1  0  0  0  0
 24 30  1  0  0  0  0
 24 29  1  0  0  0  0
 25 26  1  0  0  0  0
 25 24  2  0  0  0  0
 26 27  2  0  0  0  0
 27 28  1  0  0  0  0
 28 29  2  0  0  0  0
 28 32  1  0  0  0  0
 31 25  1  0  0  0  0
M  END
>  <minimizedAffinity>
-4.74904728

>  <minimizedRMSD>
1.12364411

$$$$
