
 OpenBabel03242510203D

 37 40  0  0  1  0  0  0  0  0999 V2000
   37.0220   29.5930   39.7100 N   0  0  0  0  0  0  0  0  0  0  0  0
   36.1580   28.9790   40.5940 C   0  0  0  0  0  0  0  0  0  0  0  0
   34.9020   29.0340   40.6920 O   0  0  0  0  0  0  0  0  0  0  0  0
   37.9030   30.0100   40.1280 H   0  0  0  0  0  0  0  0  0  0  0  0
   37.3430   30.8840   37.6230 C   0  0  1  0  0  0  0  0  0  0  0  0
   38.0690   29.6750   37.4540 C   0  0  0  0  0  0  0  0  0  0  0  0
   36.7850   29.6850   38.3080 C   0  0  1  0  0  0  0  0  0  0  0  0
   36.7420   31.3540   36.8070 H   0  0  0  0  0  0  0  0  0  0  0  0
   37.9460   29.1090   36.4900 H   0  0  0  0  0  0  0  0  0  0  0  0
   38.9650   29.3540   37.9940 H   0  0  0  0  0  0  0  0  0  0  0  0
   35.9790   29.0960   37.8720 H   0  0  0  0  0  0  0  0  0  0  0  0
   37.2010   32.9470   39.1940 C   0  0  0  0  0  0  0  0  0  0  0  0
   37.9670   31.9580   38.5280 C   0  0  0  0  0  0  0  0  0  0  0  0
   39.3330   31.9800   38.6880 C   0  0  0  0  0  0  0  0  0  0  0  0
   39.8900   32.9370   39.4660 N   0  0  0  0  0  0  0  0  0  0  0  0
   39.1530   33.8820   40.0990 C   0  0  0  0  0  0  0  0  0  0  0  0
   37.7630   33.8800   39.9520 N   0  0  0  0  0  0  0  0  0  0  0  0
   36.1480   32.9180   39.0640 H   0  0  0  0  0  0  0  0  0  0  0  0
   39.9460   31.2350   38.1920 H   0  0  0  0  0  0  0  0  0  0  0  0
   39.7160   34.5910   40.6900 H   0  0  0  0  0  0  0  0  0  0  0  0
   36.7040   28.0530   41.6670 C   0  0  2  0  0  0  0  0  0  0  0  0
   37.3490   28.7510   42.9160 C   0  0  0  0  0  0  0  0  0  0  0  0
   38.1400   27.9290   41.9110 C   0  0  1  0  0  0  0  0  0  0  0  0
   36.0130   27.2390   41.9960 H   0  0  0  0  0  0  0  0  0  0  0  0
   37.0900   28.3080   43.8790 H   0  0  0  0  0  0  0  0  0  0  0  0
   37.2840   29.8380   42.8450 H   0  0  0  0  0  0  0  0  0  0  0  0
   38.9050   28.5680   41.4840 H   0  0  0  0  0  0  0  0  0  0  0  0
   38.7090   26.6610   42.5150 C   0  0  0  0  0  3  0  0  0  0  0  0
   40.0590   26.2970   41.9660 C   0  0  0  0  0  3  0  0  0  0  0  0
   40.0710   25.8770   40.9630 H   0  0  0  0  0  0  0  0  0  0  0  0
   40.5870   25.1990   42.8930 C   0  0  0  0  0  3  0  0  0  0  0  0
   41.2760   24.5480   42.3160 H   0  0  0  0  0  0  0  0  0  0  0  0
   39.5430   24.3910   43.3400 O   0  0  0  0  0  0  0  0  0  0  0  0
   38.5670   24.2330   42.3570 C   0  0  0  0  0  3  0  0  0  0  0  0
   39.0050   23.9610   41.3750 H   0  0  0  0  0  0  0  0  0  0  0  0
   37.7880   25.5130   42.1690 C   0  0  0  0  0  3  0  0  0  0  0  0
   37.4560   25.6130   41.0940 H   0  0  0  0  0  0  0  0  0  0  0  0
  1  4  1  0  0  0  0
  1  2  1  0  0  0  0
  2  3  2  0  0  0  0
  2 21  1  0  0  0  0
  5  8  1  6  0  0  0
  5  7  1  0  0  0  0
  5 13  1  0  0  0  0
  6  5  1  0  0  0  0
  6 10  1  0  0  0  0
  6  7  1  0  0  0  0
  7 11  1  6  0  0  0
  7  1  1  0  0  0  0
  9  6  1  0  0  0  0
 12 17  1  0  0  0  0
 13 14  1  0  0  0  0
 13 12  2  0  0  0  0
 14 15  2  0  0  0  0
 15 16  1  0  0  0  0
 16 20  1  0  0  0  0
 17 16  2  0  0  0  0
 18 12  1  0  0  0  0
 19 14  1  0  0  0  0
 21 23  1  0  0  0  0
 21 24  1  1  0  0  0
 21 22  1  0  0  0  0
 22 25  1  0  0  0  0
 23 27  1  6  0  0  0
 23 28  1  0  0  0  0
 23 22  1  0  0  0  0
 26 22  1  0  0  0  0
 29 28  1  0  0  0  0
 29 31  1  0  0  0  0
 30 29  1  0  0  0  0
 31 33  1  0  0  0  0
 32 31  1  0  0  0  0
 34 33  1  0  0  0  0
 35 34  1  0  0  0  0
 36 34  1  0  0  0  0
 36 28  1  0  0  0  0
 37 36  1  0  0  0  0
M  END
>  <minimizedAffinity>
-5.24089718

$$$$

 OpenBabel03242510203D

 37 40  0  0  1  0  0  0  0  0999 V2000
   36.4970   30.4120   41.3660 N   0  0  0  0  0  0  0  0  0  0  0  0
   35.8990   29.1950   41.1100 C   0  0  0  0  0  0  0  0  0  0  0  0
   34.8130   28.9150   40.5340 O   0  0  0  0  0  0  0  0  0  0  0  0
   36.9120   30.5370   42.3340 H   0  0  0  0  0  0  0  0  0  0  0  0
   37.9370   31.8020   39.9080 C   0  0  1  0  0  0  0  0  0  0  0  0
   37.1180   31.0340   39.0380 C   0  0  0  0  0  0  0  0  0  0  0  0
   36.5760   31.4700   40.4140 C   0  0  1  0  0  0  0  0  0  0  0  0
   38.1850   32.8750   39.7240 H   0  0  0  0  0  0  0  0  0  0  0  0
   36.6090   31.5590   38.1830 H   0  0  0  0  0  0  0  0  0  0  0  0
   37.1380   29.9510   38.8850 H   0  0  0  0  0  0  0  0  0  0  0  0
   35.7480   32.1740   40.3410 H   0  0  0  0  0  0  0  0  0  0  0  0
   39.7530   29.9490   40.0220 C   0  0  0  0  0  0  0  0  0  0  0  0
   39.1110   31.0800   40.5870 C   0  0  0  0  0  0  0  0  0  0  0  0
   39.5530   31.5320   41.8090 C   0  0  0  0  0  0  0  0  0  0  0  0
   40.5710   30.8860   42.4230 N   0  0  0  0  0  0  0  0  0  0  0  0
   41.1800   29.8040   41.8790 C   0  0  0  0  0  0  0  0  0  0  0  0
   40.7500   29.3260   40.6370 N   0  0  0  0  0  0  0  0  0  0  0  0
   39.4040   29.6120   39.0790 H   0  0  0  0  0  0  0  0  0  0  0  0
   39.0810   32.3960   42.2660 H   0  0  0  0  0  0  0  0  0  0  0  0
   41.9800   29.3770   42.4670 H   0  0  0  0  0  0  0  0  0  0  0  0
   36.5820   27.9100   41.5440 C   0  0  2  0  0  0  0  0  0  0  0  0
   36.5430   27.5950   43.0810 C   0  0  0  0  0  0  0  0  0  0  0  0
   37.8190   27.9270   42.3240 C   0  0  1  0  0  0  0  0  0  0  0  0
   36.3080   26.9990   40.9580 H   0  0  0  0  0  0  0  0  0  0  0  0
   36.3300   26.5550   43.3350 H   0  0  0  0  0  0  0  0  0  0  0  0
   35.9860   28.3560   43.6320 H   0  0  0  0  0  0  0  0  0  0  0  0
   38.2590   28.8070   42.7800 H   0  0  0  0  0  0  0  0  0  0  0  0
   38.7810   26.7580   42.2630 C   0  0  0  0  0  3  0  0  0  0  0  0
   38.0900   25.4260   42.1820 C   0  0  0  0  0  3  0  0  0  0  0  0
   37.6380   25.0650   43.1030 H   0  0  0  0  0  0  0  0  0  0  0  0
   39.1900   24.4240   41.8250 C   0  0  0  0  0  3  0  0  0  0  0  0
   38.9110   23.4290   42.2320 H   0  0  0  0  0  0  0  0  0  0  0  0
   40.3960   24.7850   42.4260 O   0  0  0  0  0  0  0  0  0  0  0  0
   40.1860   25.3590   43.6800 C   0  0  0  0  0  3  0  0  0  0  0  0
   39.4940   24.7560   44.3030 H   0  0  0  0  0  0  0  0  0  0  0  0
   39.5890   26.7390   43.5400 C   0  0  0  0  0  3  0  0  0  0  0  0
   38.9090   26.9590   44.4150 H   0  0  0  0  0  0  0  0  0  0  0  0
  1  4  1  0  0  0  0
  2  1  1  0  0  0  0
  2 21  1  0  0  0  0
  3  2  2  0  0  0  0
  5  8  1  6  0  0  0
  5  7  1  0  0  0  0
  5 13  1  0  0  0  0
  6  5  1  0  0  0  0
  6  7  1  0  0  0  0
  7 11  1  1  0  0  0
  7  1  1  0  0  0  0
  9  6  1  0  0  0  0
 10  6  1  0  0  0  0
 12 13  2  0  0  0  0
 12 17  1  0  0  0  0
 13 14  1  0  0  0  0
 14 19  1  0  0  0  0
 14 15  2  0  0  0  0
 16 15  1  0  0  0  0
 16 20  1  0  0  0  0
 17 16  2  0  0  0  0
 18 12  1  0  0  0  0
 21 24  1  6  0  0  0
 21 23  1  0  0  0  0
 21 22  1  0  0  0  0
 22 25  1  0  0  0  0
 22 26  1  0  0  0  0
 23 27  1  1  0  0  0
 23 22  1  0  0  0  0
 28 23  1  0  0  0  0
 28 36  1  0  0  0  0
 29 28  1  0  0  0  0
 29 30  1  0  0  0  0
 31 29  1  0  0  0  0
 31 32  1  0  0  0  0
 31 33  1  0  0  0  0
 33 34  1  0  0  0  0
 34 35  1  0  0  0  0
 36 34  1  0  0  0  0
 36 37  1  0  0  0  0
M  END
>  <minimizedAffinity>
-5.14505339

$$$$

 OpenBabel03242510203D

 37 40  0  0  1  0  0  0  0  0999 V2000
   38.2270   30.9220   40.5280 N   0  0  0  0  0  0  0  0  0  0  0  0
   38.7690   30.3400   41.6560 C   0  0  0  0  0  0  0  0  0  0  0  0
   39.4800   30.8290   42.5750 O   0  0  0  0  0  0  0  0  0  0  0  0
   38.3060   30.3650   39.6290 H   0  0  0  0  0  0  0  0  0  0  0  0
   38.3260   33.2990   39.8480 C   0  0  1  0  0  0  0  0  0  0  0  0
   37.2550   32.7240   39.1140 C   0  0  0  0  0  0  0  0  0  0  0  0
   37.5900   32.1950   40.5240 C   0  0  1  0  0  0  0  0  0  0  0  0
   38.2790   34.3200   40.2970 H   0  0  0  0  0  0  0  0  0  0  0  0
   36.2760   33.2760   39.0770 H   0  0  0  0  0  0  0  0  0  0  0  0
   37.3160   31.9680   38.3250 H   0  0  0  0  0  0  0  0  0  0  0  0
   36.8010   32.3910   41.2490 H   0  0  0  0  0  0  0  0  0  0  0  0
   40.0360   32.3790   38.1230 C   0  0  0  0  0  0  0  0  0  0  0  0
   39.7530   32.9780   39.3760 C   0  0  0  0  0  0  0  0  0  0  0  0
   40.8090   33.2620   40.2110 C   0  0  0  0  0  0  0  0  0  0  0  0
   42.0660   32.9600   39.8110 N   0  0  0  0  0  0  0  0  0  0  0  0
   42.3300   32.3850   38.6130 C   0  0  0  0  0  0  0  0  0  0  0  0
   41.2740   32.0870   37.7460 N   0  0  0  0  0  0  0  0  0  0  0  0
   39.2130   32.1660   37.4880 H   0  0  0  0  0  0  0  0  0  0  0  0
   40.6230   33.7220   41.1770 H   0  0  0  0  0  0  0  0  0  0  0  0
   43.3750   32.1930   38.4100 H   0  0  0  0  0  0  0  0  0  0  0  0
   38.5230   28.8680   41.9410 C   0  0  2  0  0  0  0  0  0  0  0  0
   37.4260   28.5490   43.0170 C   0  0  0  0  0  0  0  0  0  0  0  0
   38.9060   28.2610   43.2150 C   0  0  1  0  0  0  0  0  0  0  0  0
   38.3770   28.2230   41.0400 H   0  0  0  0  0  0  0  0  0  0  0  0
   36.7540   27.7270   42.7620 H   0  0  0  0  0  0  0  0  0  0  0  0
   36.9610   29.4600   43.3970 H   0  0  0  0  0  0  0  0  0  0  0  0
   39.2380   28.8050   44.0920 H   0  0  0  0  0  0  0  0  0  0  0  0
   39.2040   26.7780   43.2990 C   0  0  0  0  0  3  0  0  0  0  0  0
   40.4730   26.3880   42.5950 C   0  0  0  0  0  3  0  0  0  0  0  0
   40.4290   26.3630   41.5080 H   0  0  0  0  0  0  0  0  0  0  0  0
   40.7560   24.9520   43.0430 C   0  0  0  0  0  3  0  0  0  0  0  0
   41.3210   24.4340   42.2410 H   0  0  0  0  0  0  0  0  0  0  0  0
   39.5640   24.2490   43.2190 O   0  0  0  0  0  0  0  0  0  0  0  0
   38.6010   24.6430   42.2890 C   0  0  0  0  0  3  0  0  0  0  0  0
   39.0040   24.6650   41.2560 H   0  0  0  0  0  0  0  0  0  0  0  0
   38.0890   26.0270   42.6070 C   0  0  0  0  0  3  0  0  0  0  0  0
   37.8100   26.5670   41.6560 H   0  0  0  0  0  0  0  0  0  0  0  0
  1  2  1  0  0  0  0
  2 21  1  0  0  0  0
  2  3  2  0  0  0  0
  4  1  1  0  0  0  0
  5  8  1  1  0  0  0
  5  7  1  0  0  0  0
  6  5  1  0  0  0  0
  6  7  1  0  0  0  0
  7  1  1  0  0  0  0
  7 11  1  1  0  0  0
  9  6  1  0  0  0  0
 10  6  1  0  0  0  0
 12 13  1  0  0  0  0
 13  5  1  0  0  0  0
 13 14  2  0  0  0  0
 14 19  1  0  0  0  0
 15 14  1  0  0  0  0
 16 15  2  0  0  0  0
 17 12  2  0  0  0  0
 17 16  1  0  0  0  0
 18 12  1  0  0  0  0
 20 16  1  0  0  0  0
 21 24  1  6  0  0  0
 21 22  1  0  0  0  0
 21 23  1  0  0  0  0
 22 23  1  0  0  0  0
 22 26  1  0  0  0  0
 23 28  1  0  0  0  0
 23 27  1  1  0  0  0
 25 22  1  0  0  0  0
 29 31  1  0  0  0  0
 29 28  1  0  0  0  0
 30 29  1  0  0  0  0
 31 33  1  0  0  0  0
 32 31  1  0  0  0  0
 34 36  1  0  0  0  0
 34 33  1  0  0  0  0
 35 34  1  0  0  0  0
 36 28  1  0  0  0  0
 37 36  1  0  0  0  0
M  END
>  <minimizedAffinity>
-5.12616873

$$$$

 OpenBabel03242510203D

 37 40  0  0  1  0  0  0  0  0999 V2000
   36.5610   28.3190   41.2230 N   0  0  0  0  0  0  0  0  0  0  0  0
   35.8140   29.2280   40.5000 C   0  0  0  0  0  0  0  0  0  0  0  0
   34.5770   29.2770   40.2660 O   0  0  0  0  0  0  0  0  0  0  0  0
   37.4740   28.0070   40.7830 H   0  0  0  0  0  0  0  0  0  0  0  0
   36.8480   26.5550   42.9350 C   0  0  1  0  0  0  0  0  0  0  0  0
   37.3050   27.7610   43.5300 C   0  0  0  0  0  0  0  0  0  0  0  0
   36.1670   27.8030   42.4900 C   0  0  1  0  0  0  0  0  0  0  0  0
   36.2470   25.7920   43.4860 H   0  0  0  0  0  0  0  0  0  0  0  0
   36.9540   28.0090   44.5700 H   0  0  0  0  0  0  0  0  0  0  0  0
   38.1870   28.3490   43.2560 H   0  0  0  0  0  0  0  0  0  0  0  0
   35.2150   28.1200   42.9150 H   0  0  0  0  0  0  0  0  0  0  0  0
   37.2960   25.0690   40.8530 C   0  0  0  0  0  0  0  0  0  0  0  0
   37.7750   25.8820   41.9100 C   0  0  0  0  0  0  0  0  0  0  0  0
   39.1350   26.0560   42.0290 C   0  0  0  0  0  0  0  0  0  0  0  0
   39.9570   25.4480   41.1440 N   0  0  0  0  0  0  0  0  0  0  0  0
   39.4940   24.6700   40.1350 C   0  0  0  0  0  0  0  0  0  0  0  0
   38.1160   24.4790   39.9930 N   0  0  0  0  0  0  0  0  0  0  0  0
   36.2460   24.9450   40.7710 H   0  0  0  0  0  0  0  0  0  0  0  0
   39.5310   26.6740   42.8280 H   0  0  0  0  0  0  0  0  0  0  0  0
   40.2520   24.2390   39.4950 H   0  0  0  0  0  0  0  0  0  0  0  0
   36.4970   30.4130   39.8390 C   0  0  2  0  0  0  0  0  0  0  0  0
   37.1550   30.1370   38.4410 C   0  0  0  0  0  0  0  0  0  0  0  0
   37.9500   30.4740   39.6930 C   0  0  1  0  0  0  0  0  0  0  0  0
   35.8950   31.3530   39.8020 H   0  0  0  0  0  0  0  0  0  0  0  0
   36.9900   30.9120   37.6910 H   0  0  0  0  0  0  0  0  0  0  0  0
   36.9970   29.1050   38.1210 H   0  0  0  0  0  0  0  0  0  0  0  0
   38.6340   29.6550   39.8860 H   0  0  0  0  0  0  0  0  0  0  0  0
   38.6560   31.8120   39.5910 C   0  0  0  0  0  3  0  0  0  0  0  0
   39.7440   31.9860   40.6110 C   0  0  0  0  0  3  0  0  0  0  0  0
   39.4190   32.1840   41.6300 H   0  0  0  0  0  0  0  0  0  0  0  0
   40.5200   33.2270   40.1630 C   0  0  0  0  0  3  0  0  0  0  0  0
   40.9690   33.7080   41.0570 H   0  0  0  0  0  0  0  0  0  0  0  0
   39.6600   34.1610   39.5870 O   0  0  0  0  0  0  0  0  0  0  0  0
   38.4130   34.1560   40.2120 C   0  0  0  0  0  3  0  0  0  0  0  0
   38.5010   34.1940   41.3170 H   0  0  0  0  0  0  0  0  0  0  0  0
   37.6460   32.9040   39.8600 C   0  0  0  0  0  3  0  0  0  0  0  0
   36.9850   32.5970   40.7220 H   0  0  0  0  0  0  0  0  0  0  0  0
  1  7  1  0  0  0  0
  2  1  1  0  0  0  0
  3  2  2  0  0  0  0
  4  1  1  0  0  0  0
  5  8  1  1  0  0  0
  5  6  1  0  0  0  0
  6  9  1  0  0  0  0
  7 11  1  1  0  0  0
  7  5  1  0  0  0  0
  7  6  1  0  0  0  0
 10  6  1  0  0  0  0
 12 13  1  0  0  0  0
 13 14  2  0  0  0  0
 13  5  1  0  0  0  0
 14 19  1  0  0  0  0
 15 14  1  0  0  0  0
 16 15  2  0  0  0  0
 17 16  1  0  0  0  0
 17 12  2  0  0  0  0
 18 12  1  0  0  0  0
 20 16  1  0  0  0  0
 21 24  1  1  0  0  0
 21  2  1  0  0  0  0
 22 23  1  0  0  0  0
 22 21  1  0  0  0  0
 23 21  1  0  0  0  0
 23 27  1  1  0  0  0
 25 22  1  0  0  0  0
 26 22  1  0  0  0  0
 28 23  1  0  0  0  0
 28 36  1  0  0  0  0
 28 29  1  0  0  0  0
 29 30  1  0  0  0  0
 31 29  1  0  0  0  0
 31 32  1  0  0  0  0
 33 31  1  0  0  0  0
 33 34  1  0  0  0  0
 34 35  1  0  0  0  0
 36 34  1  0  0  0  0
 36 37  1  0  0  0  0
M  END
>  <minimizedAffinity>
-4.93219995

$$$$

 OpenBabel03242510203D

 37 40  0  0  1  0  0  0  0  0999 V2000
   36.8530   27.8280   40.8490 N   0  0  0  0  0  0  0  0  0  0  0  0
   36.0050   28.8860   40.5860 C   0  0  0  0  0  0  0  0  0  0  0  0
   34.7470   28.9530   40.5860 O   0  0  0  0  0  0  0  0  0  0  0  0
   37.6750   27.7100   40.1890 H   0  0  0  0  0  0  0  0  0  0  0  0
   37.8010   26.8180   42.9000 C   0  0  1  0  0  0  0  0  0  0  0  0
   36.6890   27.5950   43.3200 C   0  0  0  0  0  0  0  0  0  0  0  0
   36.6730   26.9220   41.9330 C   0  0  1  0  0  0  0  0  0  0  0  0
   38.0400   25.8150   43.3270 H   0  0  0  0  0  0  0  0  0  0  0  0
   35.9550   27.1330   44.0370 H   0  0  0  0  0  0  0  0  0  0  0  0
   36.5860   28.6840   43.2930 H   0  0  0  0  0  0  0  0  0  0  0  0
   35.9160   26.1430   41.8470 H   0  0  0  0  0  0  0  0  0  0  0  0
   39.3240   28.9210   42.9030 C   0  0  0  0  0  0  0  0  0  0  0  0
   39.0870   27.5750   42.5310 C   0  0  0  0  0  0  0  0  0  0  0  0
   40.0470   26.9290   41.7870 C   0  0  0  0  0  0  0  0  0  0  0  0
   41.1710   27.5970   41.4390 N   0  0  0  0  0  0  0  0  0  0  0  0
   41.3930   28.8850   41.7970 C   0  0  0  0  0  0  0  0  0  0  0  0
   40.4320   29.5630   42.5530 N   0  0  0  0  0  0  0  0  0  0  0  0
   38.5770   29.4070   43.4780 H   0  0  0  0  0  0  0  0  0  0  0  0
   39.8930   25.8970   41.4880 H   0  0  0  0  0  0  0  0  0  0  0  0
   42.3290   29.3070   41.4570 H   0  0  0  0  0  0  0  0  0  0  0  0
   36.5800   30.2470   40.2340 C   0  0  2  0  0  0  0  0  0  0  0  0
   37.0250   30.4410   38.7420 C   0  0  0  0  0  0  0  0  0  0  0  0
   37.9960   30.4190   39.9120 C   0  0  1  0  0  0  0  0  0  0  0  0
   35.9770   31.1240   40.5730 H   0  0  0  0  0  0  0  0  0  0  0  0
   36.7490   31.4000   38.2980 H   0  0  0  0  0  0  0  0  0  0  0  0
   36.8240   29.5500   38.1440 H   0  0  0  0  0  0  0  0  0  0  0  0
   38.7020   29.6130   39.7460 H   0  0  0  0  0  0  0  0  0  0  0  0
   38.6750   31.7560   40.1310 C   0  0  0  0  0  3  0  0  0  0  0  0
   37.8470   32.9230   39.6740 C   0  0  0  0  0  3  0  0  0  0  0  0
   37.7880   33.0770   38.5990 H   0  0  0  0  0  0  0  0  0  0  0  0
   38.5460   34.1590   40.2450 C   0  0  0  0  0  3  0  0  0  0  0  0
   38.3380   35.0240   39.5810 H   0  0  0  0  0  0  0  0  0  0  0  0
   39.9290   33.9790   40.2570 O   0  0  0  0  0  0  0  0  0  0  0  0
   40.3520   33.2330   39.1570 C   0  0  0  0  0  3  0  0  0  0  0  0
   39.9200   33.6080   38.2070 H   0  0  0  0  0  0  0  0  0  0  0  0
   39.9410   31.7870   39.3040 C   0  0  0  0  0  3  0  0  0  0  0  0
   39.7360   31.3360   38.2900 H   0  0  0  0  0  0  0  0  0  0  0  0
  1  7  1  0  0  0  0
  2  3  2  0  0  0  0
  2  1  1  0  0  0  0
  4  1  1  0  0  0  0
  5  6  1  0  0  0  0
  5  8  1  1  0  0  0
  6  9  1  0  0  0  0
  7 11  1  6  0  0  0
  7  5  1  0  0  0  0
  7  6  1  0  0  0  0
 10  6  1  0  0  0  0
 12 18  1  0  0  0  0
 13  5  1  0  0  0  0
 13 12  2  0  0  0  0
 14 13  1  0  0  0  0
 15 14  2  0  0  0  0
 15 16  1  0  0  0  0
 16 17  2  0  0  0  0
 17 12  1  0  0  0  0
 19 14  1  0  0  0  0
 20 16  1  0  0  0  0
 21 24  1  1  0  0  0
 21  2  1  0  0  0  0
 22 23  1  0  0  0  0
 22 21  1  0  0  0  0
 23 27  1  1  0  0  0
 23 28  1  0  0  0  0
 23 21  1  0  0  0  0
 25 22  1  0  0  0  0
 26 22  1  0  0  0  0
 29 28  1  0  0  0  0
 29 31  1  0  0  0  0
 30 29  1  0  0  0  0
 31 33  1  0  0  0  0
 32 31  1  0  0  0  0
 34 36  1  0  0  0  0
 34 33  1  0  0  0  0
 35 34  1  0  0  0  0
 36 28  1  0  0  0  0
 37 36  1  0  0  0  0
M  END
>  <minimizedAffinity>
-4.81380177

$$$$

 OpenBabel03242510203D

 37 40  0  0  1  0  0  0  0  0999 V2000
   38.0180   30.6350   40.5260 N   0  0  0  0  0  0  0  0  0  0  0  0
   37.7280   29.6130   41.4070 C   0  0  0  0  0  0  0  0  0  0  0  0
   37.4560   29.6370   42.6370 O   0  0  0  0  0  0  0  0  0  0  0  0
   38.8270   30.4670   39.8610 H   0  0  0  0  0  0  0  0  0  0  0  0
   38.0380   33.0390   39.9360 C   0  0  1  0  0  0  0  0  0  0  0  0
   37.1120   32.4240   39.0530 C   0  0  0  0  0  0  0  0  0  0  0  0
   37.2990   31.8640   40.4780 C   0  0  1  0  0  0  0  0  0  0  0  0
   37.8620   34.0370   40.4060 H   0  0  0  0  0  0  0  0  0  0  0  0
   36.1090   32.9120   38.9050 H   0  0  0  0  0  0  0  0  0  0  0  0
   37.3260   31.7050   38.2550 H   0  0  0  0  0  0  0  0  0  0  0  0
   36.4130   31.9800   41.1000 H   0  0  0  0  0  0  0  0  0  0  0  0
   40.0170   32.3520   38.4020 C   0  0  0  0  0  0  0  0  0  0  0  0
   39.5320   32.8290   39.6440 C   0  0  0  0  0  0  0  0  0  0  0  0
   40.4470   33.0960   40.6370 C   0  0  0  0  0  0  0  0  0  0  0  0
   41.7620   32.8910   40.3950 N   0  0  0  0  0  0  0  0  0  0  0  0
   42.2200   32.4320   39.2040 C   0  0  0  0  0  0  0  0  0  0  0  0
   41.3100   32.1550   38.1790 N   0  0  0  0  0  0  0  0  0  0  0  0
   39.3020   32.1520   37.6440 H   0  0  0  0  0  0  0  0  0  0  0  0
   40.1050   33.4640   41.6000 H   0  0  0  0  0  0  0  0  0  0  0  0
   43.2920   32.3100   39.1350 H   0  0  0  0  0  0  0  0  0  0  0  0
   37.6970   28.1760   40.9140 C   0  0  2  0  0  0  0  0  0  0  0  0
   36.3690   27.7170   40.2150 C   0  0  0  0  0  0  0  0  0  0  0  0
   36.8490   27.1680   41.5490 C   0  0  1  0  0  0  0  0  0  0  0  0
   38.5800   27.8570   40.3090 H   0  0  0  0  0  0  0  0  0  0  0  0
   36.5040   27.1170   39.3130 H   0  0  0  0  0  0  0  0  0  0  0  0
   35.6450   28.5320   40.1550 H   0  0  0  0  0  0  0  0  0  0  0  0
   36.0830   27.3720   42.2890 H   0  0  0  0  0  0  0  0  0  0  0  0
   37.2170   25.7000   41.4760 C   0  0  0  0  0  3  0  0  0  0  0  0
   38.7000   25.4620   41.4490 C   0  0  0  0  0  3  0  0  0  0  0  0
   39.2030   25.6800   40.5100 H   0  0  0  0  0  0  0  0  0  0  0  0
   38.8690   23.9580   41.6830 C   0  0  0  0  0  3  0  0  0  0  0  0
   39.8070   23.6250   41.1930 H   0  0  0  0  0  0  0  0  0  0  0  0
   37.8260   23.2490   41.0890 O   0  0  0  0  0  0  0  0  0  0  0  0
   37.4160   23.8520   39.9000 C   0  0  0  0  0  3  0  0  0  0  0  0
   38.2720   24.0980   39.2400 H   0  0  0  0  0  0  0  0  0  0  0  0
   36.6740   25.1370   40.1830 C   0  0  0  0  0  3  0  0  0  0  0  0
   36.8500   25.8790   39.3500 H   0  0  0  0  0  0  0  0  0  0  0  0
  1  2  1  0  0  0  0
  2  3  2  0  0  0  0
  4  1  1  0  0  0  0
  5  8  1  1  0  0  0
  5  7  1  0  0  0  0
  6  5  1  0  0  0  0
  6  7  1  0  0  0  0
  7  1  1  0  0  0  0
  7 11  1  1  0  0  0
  9  6  1  0  0  0  0
 10  6  1  0  0  0  0
 12 13  1  0  0  0  0
 13  5  1  0  0  0  0
 13 14  2  0  0  0  0
 14 19  1  0  0  0  0
 15 14  1  0  0  0  0
 16 15  2  0  0  0  0
 17 12  2  0  0  0  0
 17 16  1  0  0  0  0
 18 12  1  0  0  0  0
 20 16  1  0  0  0  0
 21 24  1  6  0  0  0
 21  2  1  0  0  0  0
 21 23  1  0  0  0  0
 22 21  1  0  0  0  0
 22 23  1  0  0  0  0
 23 27  1  1  0  0  0
 25 22  1  0  0  0  0
 26 22  1  0  0  0  0
 28 23  1  0  0  0  0
 29 28  1  0  0  0  0
 29 31  1  0  0  0  0
 30 29  1  0  0  0  0
 32 31  1  0  0  0  0
 33 31  1  0  0  0  0
 34 36  1  0  0  0  0
 34 33  1  0  0  0  0
 35 34  1  0  0  0  0
 36 28  1  0  0  0  0
 37 36  1  0  0  0  0
M  END
>  <minimizedAffinity>
-4.80042553

$$$$

 OpenBabel03242510203D

 37 40  0  0  1  0  0  0  0  0999 V2000
   39.4890   31.7570   41.7870 N   0  0  0  0  0  0  0  0  0  0  0  0
   39.5760   32.5860   40.6870 C   0  0  0  0  0  0  0  0  0  0  0  0
   40.3310   33.5680   40.4520 O   0  0  0  0  0  0  0  0  0  0  0  0
   38.5110   31.5290   42.1270 H   0  0  0  0  0  0  0  0  0  0  0  0
   40.6030   29.7460   42.7050 C   0  0  1  0  0  0  0  0  0  0  0  0
   41.4120   30.1860   41.6240 C   0  0  0  0  0  0  0  0  0  0  0  0
   40.6230   31.2150   42.4590 C   0  0  1  0  0  0  0  0  0  0  0  0
   41.0240   29.3650   43.6660 H   0  0  0  0  0  0  0  0  0  0  0  0
   42.5230   30.2570   41.7830 H   0  0  0  0  0  0  0  0  0  0  0  0
   41.1620   30.1850   40.5580 H   0  0  0  0  0  0  0  0  0  0  0  0
   41.2660   31.8840   43.0280 H   0  0  0  0  0  0  0  0  0  0  0  0
   39.0810   28.3820   41.1030 C   0  0  0  0  0  0  0  0  0  0  0  0
   39.2980   29.0130   42.3530 C   0  0  0  0  0  0  0  0  0  0  0  0
   38.2830   28.9830   43.2800 C   0  0  0  0  0  0  0  0  0  0  0  0
   37.1230   28.3590   42.9680 N   0  0  0  0  0  0  0  0  0  0  0  0
   36.9190   27.7580   41.7700 C   0  0  0  0  0  0  0  0  0  0  0  0
   37.9370   27.7750   40.8110 N   0  0  0  0  0  0  0  0  0  0  0  0
   39.8720   28.4110   40.3980 H   0  0  0  0  0  0  0  0  0  0  0  0
   38.4210   29.4570   44.2460 H   0  0  0  0  0  0  0  0  0  0  0  0
   35.9510   27.2950   41.6410 H   0  0  0  0  0  0  0  0  0  0  0  0
   38.6580   32.3640   39.4970 C   0  0  2  0  0  0  0  0  0  0  0  0
   37.2600   33.0750   39.5640 C   0  0  0  0  0  0  0  0  0  0  0  0
   37.4390   31.5660   39.6110 C   0  0  1  0  0  0  0  0  0  0  0  0
   39.1240   32.5260   38.4950 H   0  0  0  0  0  0  0  0  0  0  0  0
   36.9350   33.5430   38.6330 H   0  0  0  0  0  0  0  0  0  0  0  0
   37.1570   33.6710   40.4730 H   0  0  0  0  0  0  0  0  0  0  0  0
   37.0100   31.2070   40.5410 H   0  0  0  0  0  0  0  0  0  0  0  0
   36.8590   30.8720   38.3950 C   0  0  0  0  0  3  0  0  0  0  0  0
   35.9360   29.7400   38.7430 C   0  0  0  0  0  3  0  0  0  0  0  0
   36.4100   28.8260   39.0930 H   0  0  0  0  0  0  0  0  0  0  0  0
   35.2320   29.3790   37.4320 C   0  0  0  0  0  3  0  0  0  0  0  0
   34.9530   28.3050   37.4620 H   0  0  0  0  0  0  0  0  0  0  0  0
   36.0950   29.5450   36.3500 O   0  0  0  0  0  0  0  0  0  0  0  0
   37.4070   29.2170   36.6920 C   0  0  0  0  0  3  0  0  0  0  0  0
   37.4690   28.2420   37.2170 H   0  0  0  0  0  0  0  0  0  0  0  0
   37.9960   30.2640   37.6060 C   0  0  0  0  0  3  0  0  0  0  0  0
   38.7320   29.7900   38.3180 H   0  0  0  0  0  0  0  0  0  0  0  0
  1  4  1  0  0  0  0
  1  7  1  0  0  0  0
  2  1  1  0  0  0  0
  3  2  2  0  0  0  0
  5  8  1  1  0  0  0
  6  9  1  0  0  0  0
  6  7  1  0  0  0  0
  6  5  1  0  0  0  0
  7  5  1  0  0  0  0
  7 11  1  1  0  0  0
 10  6  1  0  0  0  0
 12 13  1  0  0  0  0
 13  5  1  0  0  0  0
 13 14  2  0  0  0  0
 14 19  1  0  0  0  0
 15 14  1  0  0  0  0
 16 15  2  0  0  0  0
 17 12  2  0  0  0  0
 17 16  1  0  0  0  0
 18 12  1  0  0  0  0
 20 16  1  0  0  0  0
 21 24  1  6  0  0  0
 21 22  1  0  0  0  0
 21 23  1  0  0  0  0
 21  2  1  0  0  0  0
 22 23  1  0  0  0  0
 22 26  1  0  0  0  0
 23 27  1  1  0  0  0
 25 22  1  0  0  0  0
 28 29  1  0  0  0  0
 28 23  1  0  0  0  0
 29 30  1  0  0  0  0
 31 32  1  0  0  0  0
 31 29  1  0  0  0  0
 33 34  1  0  0  0  0
 33 31  1  0  0  0  0
 34 35  1  0  0  0  0
 34 36  1  0  0  0  0
 36 37  1  0  0  0  0
 36 28  1  0  0  0  0
M  END
>  <minimizedAffinity>
-4.78542328

$$$$

 OpenBabel03242510203D

 37 40  0  0  1  0  0  0  0  0999 V2000
   37.2880   26.3230   41.6670 N   0  0  0  0  0  0  0  0  0  0  0  0
   36.7760   27.3780   42.3960 C   0  0  0  0  0  0  0  0  0  0  0  0
   36.2930   27.4180   43.5600 O   0  0  0  0  0  0  0  0  0  0  0  0
   36.9930   26.2680   40.6500 H   0  0  0  0  0  0  0  0  0  0  0  0
   38.3170   24.0860   41.4220 C   0  0  1  0  0  0  0  0  0  0  0  0
   39.3790   25.0220   41.3100 C   0  0  0  0  0  0  0  0  0  0  0  0
   38.1670   25.3420   42.2090 C   0  0  1  0  0  0  0  0  0  0  0  0
   38.4100   23.1220   41.9780 H   0  0  0  0  0  0  0  0  0  0  0  0
   40.3200   24.8360   41.8970 H   0  0  0  0  0  0  0  0  0  0  0  0
   39.5470   25.7480   40.5080 H   0  0  0  0  0  0  0  0  0  0  0  0
   38.4240   25.3920   43.2660 H   0  0  0  0  0  0  0  0  0  0  0  0
   36.0090   23.6260   40.3250 C   0  0  0  0  0  0  0  0  0  0  0  0
   37.3890   23.9270   40.2080 C   0  0  0  0  0  0  0  0  0  0  0  0
   37.9180   24.0610   38.9450 C   0  0  0  0  0  0  0  0  0  0  0  0
   37.1100   23.9000   37.8710 N   0  0  0  0  0  0  0  0  0  0  0  0
   35.7910   23.6100   37.9890 C   0  0  0  0  0  0  0  0  0  0  0  0
   35.2300   23.4690   39.2620 N   0  0  0  0  0  0  0  0  0  0  0  0
   35.6130   23.5260   41.3040 H   0  0  0  0  0  0  0  0  0  0  0  0
   38.9710   24.2930   38.8240 H   0  0  0  0  0  0  0  0  0  0  0  0
   35.2540   23.5060   37.0570 H   0  0  0  0  0  0  0  0  0  0  0  0
   36.7490   28.7720   41.7930 C   0  0  2  0  0  0  0  0  0  0  0  0
   35.5430   29.0860   40.8380 C   0  0  0  0  0  0  0  0  0  0  0  0
   36.9870   28.9930   40.3680 C   0  0  1  0  0  0  0  0  0  0  0  0
   36.8940   29.6100   42.5170 H   0  0  0  0  0  0  0  0  0  0  0  0
   35.0900   30.0690   40.9740 H   0  0  0  0  0  0  0  0  0  0  0  0
   34.8590   28.2380   40.7650 H   0  0  0  0  0  0  0  0  0  0  0  0
   37.0430   28.2150   39.6150 H   0  0  0  0  0  0  0  0  0  0  0  0
   37.5250   30.3220   39.8770 C   0  0  0  0  0  3  0  0  0  0  0  0
   36.6790   31.4920   40.2900 C   0  0  0  0  0  3  0  0  0  0  0  0
   35.7430   31.6210   39.7490 H   0  0  0  0  0  0  0  0  0  0  0  0
   37.5240   32.7300   39.9770 C   0  0  0  0  0  3  0  0  0  0  0  0
   36.8450   33.5810   39.7640 H   0  0  0  0  0  0  0  0  0  0  0  0
   38.2890   32.5230   38.8290 O   0  0  0  0  0  0  0  0  0  0  0  0
   37.6050   31.7420   37.8980 C   0  0  0  0  0  3  0  0  0  0  0  0
   36.5690   32.1010   37.7320 H   0  0  0  0  0  0  0  0  0  0  0  0
   37.5200   30.3080   38.3650 C   0  0  0  0  0  3  0  0  0  0  0  0
   36.5630   29.8360   37.9990 H   0  0  0  0  0  0  0  0  0  0  0  0
  1  7  1  0  0  0  0
  1  2  1  0  0  0  0
  2  3  2  0  0  0  0
  4  1  1  0  0  0  0
  5  8  1  1  0  0  0
  5  7  1  0  0  0  0
  6  5  1  0  0  0  0
  6  9  1  0  0  0  0
  6  7  1  0  0  0  0
  7 11  1  1  0  0  0
 10  6  1  0  0  0  0
 12 18  1  0  0  0  0
 13 12  1  0  0  0  0
 13  5  1  0  0  0  0
 14 13  2  0  0  0  0
 15 16  2  0  0  0  0
 15 14  1  0  0  0  0
 16 17  1  0  0  0  0
 17 12  2  0  0  0  0
 19 14  1  0  0  0  0
 20 16  1  0  0  0  0
 21  2  1  0  0  0  0
 21 24  1  1  0  0  0
 22 25  1  0  0  0  0
 22 21  1  0  0  0  0
 23 27  1  6  0  0  0
 23 22  1  0  0  0  0
 23 21  1  0  0  0  0
 26 22  1  0  0  0  0
 28 29  1  0  0  0  0
 28 23  1  0  0  0  0
 30 29  1  0  0  0  0
 31 29  1  0  0  0  0
 32 31  1  0  0  0  0
 33 31  1  0  0  0  0
 34 36  1  0  0  0  0
 34 33  1  0  0  0  0
 35 34  1  0  0  0  0
 36 28  1  0  0  0  0
 37 36  1  0  0  0  0
M  END
>  <minimizedAffinity>
-4.75525284

$$$$

 OpenBabel03242510203D

 37 40  0  0  1  0  0  0  0  0999 V2000
   38.2750   27.0680   41.6880 N   0  0  0  0  0  0  0  0  0  0  0  0
   37.4690   26.0430   41.2340 C   0  0  0  0  0  0  0  0  0  0  0  0
   37.2730   24.8850   41.6910 O   0  0  0  0  0  0  0  0  0  0  0  0
   38.8390   27.5820   40.9520 H   0  0  0  0  0  0  0  0  0  0  0  0
   38.0470   28.8640   43.3750 C   0  0  1  0  0  0  0  0  0  0  0  0
   37.0410   27.9080   43.6780 C   0  0  0  0  0  0  0  0  0  0  0  0
   38.3760   27.4460   43.0580 C   0  0  1  0  0  0  0  0  0  0  0  0
   38.6500   29.3840   44.1580 H   0  0  0  0  0  0  0  0  0  0  0  0
   36.9220   27.5800   44.7480 H   0  0  0  0  0  0  0  0  0  0  0  0
   36.1580   27.6560   43.0840 H   0  0  0  0  0  0  0  0  0  0  0  0
   38.9670   26.8290   43.7320 H   0  0  0  0  0  0  0  0  0  0  0  0
   36.5050   30.0280   41.6400 C   0  0  0  0  0  0  0  0  0  0  0  0
   37.7950   29.7910   42.1750 C   0  0  0  0  0  0  0  0  0  0  0  0
   38.8700   30.4050   41.5740 C   0  0  0  0  0  0  0  0  0  0  0  0
   38.6580   31.2040   40.5020 N   0  0  0  0  0  0  0  0  0  0  0  0
   37.4210   31.4270   39.9930 C   0  0  0  0  0  0  0  0  0  0  0  0
   36.3140   30.8140   40.5880 N   0  0  0  0  0  0  0  0  0  0  0  0
   35.6850   29.5500   42.1140 H   0  0  0  0  0  0  0  0  0  0  0  0
   39.8700   30.2430   41.9620 H   0  0  0  0  0  0  0  0  0  0  0  0
   37.3840   32.0840   39.1360 H   0  0  0  0  0  0  0  0  0  0  0  0
   36.6250   26.2400   39.9870 C   0  0  2  0  0  0  0  0  0  0  0  0
   37.3920   26.1700   38.6190 C   0  0  0  0  0  0  0  0  0  0  0  0
   36.7510   27.4390   39.1600 C   0  0  1  0  0  0  0  0  0  0  0  0
   35.6930   25.6260   39.9360 H   0  0  0  0  0  0  0  0  0  0  0  0
   36.8830   25.6120   37.8310 H   0  0  0  0  0  0  0  0  0  0  0  0
   38.4520   25.9540   38.7650 H   0  0  0  0  0  0  0  0  0  0  0  0
   37.5280   28.1890   39.2600 H   0  0  0  0  0  0  0  0  0  0  0  0
   35.5880   27.9110   38.3110 C   0  0  0  0  0  3  0  0  0  0  0  0
   34.9930   26.8230   37.4640 C   0  0  0  0  0  3  0  0  0  0  0  0
   35.5700   26.5270   36.5900 H   0  0  0  0  0  0  0  0  0  0  0  0
   33.6790   27.4010   36.9310 C   0  0  0  0  0  3  0  0  0  0  0  0
   33.4490   26.9220   35.9570 H   0  0  0  0  0  0  0  0  0  0  0  0
   33.8070   28.7690   36.6920 O   0  0  0  0  0  0  0  0  0  0  0  0
   35.0860   29.0870   36.2360 C   0  0  0  0  0  3  0  0  0  0  0  0
   35.4130   28.4180   35.4140 H   0  0  0  0  0  0  0  0  0  0  0  0
   36.0950   28.9640   37.3520 C   0  0  0  0  0  3  0  0  0  0  0  0
   37.0950   28.6420   36.9390 H   0  0  0  0  0  0  0  0  0  0  0  0
  1  7  1  0  0  0  0
  2  1  1  0  0  0  0
  2  3  2  0  0  0  0
  4  1  1  0  0  0  0
  5  6  1  0  0  0  0
  5  8  1  1  0  0  0
  6  9  1  0  0  0  0
  7  5  1  0  0  0  0
  7  6  1  0  0  0  0
  7 11  1  1  0  0  0
 10  6  1  0  0  0  0
 12 18  1  0  0  0  0
 12 13  1  0  0  0  0
 13  5  1  0  0  0  0
 14 19  1  0  0  0  0
 14 13  2  0  0  0  0
 15 14  1  0  0  0  0
 16 15  2  0  0  0  0
 16 17  1  0  0  0  0
 17 12  2  0  0  0  0
 20 16  1  0  0  0  0
 21 24  1  1  0  0  0
 21  2  1  0  0  0  0
 22 26  1  0  0  0  0
 22 23  1  0  0  0  0
 22 21  1  0  0  0  0
 23 27  1  1  0  0  0
 23 21  1  0  0  0  0
 25 22  1  0  0  0  0
 28 23  1  0  0  0  0
 29 28  1  0  0  0  0
 30 29  1  0  0  0  0
 31 29  1  0  0  0  0
 32 31  1  0  0  0  0
 33 31  1  0  0  0  0
 34 33  1  0  0  0  0
 34 36  1  0  0  0  0
 35 34  1  0  0  0  0
 36 28  1  0  0  0  0
 37 36  1  0  0  0  0
M  END
>  <minimizedAffinity>
-4.7520237

$$$$
