
 OpenBabel03252506563D

 39 43  0  0  0  0  0  0  0  0999 V2000
   47.3280   31.3460   45.1930 C   0  0  0  0  0  0  0  0  0  0  0  0
   46.9190   32.6630   45.0940 C   0  0  0  0  0  0  0  0  0  0  0  0
   46.2640   33.3320   46.1220 C   0  0  0  0  0  0  0  0  0  0  0  0
   45.9930   32.6780   47.3140 C   0  0  0  0  0  0  0  0  0  0  0  0
   45.3980   32.9950   48.4890 N   0  0  0  0  0  0  0  0  0  0  0  0
   45.4340   31.9040   49.2990 C   0  0  0  0  0  0  0  0  0  0  0  0
   46.0560   30.9160   48.6120 N   0  0  0  0  0  0  0  0  0  0  0  0
   46.4120   31.3590   47.3890 C   0  0  0  0  0  0  0  0  0  0  0  0
   47.0600   30.6740   46.3900 C   0  0  0  0  0  0  0  0  0  0  0  0
   47.8350   30.8390   44.3850 H   0  0  0  0  0  0  0  0  0  0  0  0
   45.9430   34.3610   46.0490 H   0  0  0  0  0  0  0  0  0  0  0  0
   44.9860   33.9420   48.7030 H   0  0  0  0  0  0  0  0  0  0  0  0
   45.0400   31.8320   50.3080 H   0  0  0  0  0  0  0  0  0  0  0  0
   46.6360   35.1060   42.3530 C   0  0  0  0  0  0  0  0  0  0  0  0
   47.7040   34.7640   41.5320 C   0  0  0  0  0  0  0  0  0  0  0  0
   48.5260   33.6890   41.9210 C   0  0  0  0  0  0  0  0  0  0  0  0
   48.2350   33.0360   43.0850 N   0  0  0  0  0  0  0  0  0  0  0  0
   47.1790   33.4010   43.8610 C   0  0  0  0  0  0  0  0  0  0  0  0
   46.3900   34.4220   43.5020 N   0  0  0  0  0  0  0  0  0  0  0  0
   46.0210   35.9330   42.0350 H   0  0  0  0  0  0  0  0  0  0  0  0
   47.8760   35.3260   40.6240 H   0  0  0  0  0  0  0  0  0  0  0  0
   49.3560   33.4040   41.3080 H   0  0  0  0  0  0  0  0  0  0  0  0
   47.4570   29.2750   46.5830 C   0  0  0  0  0  0  0  0  0  0  0  0
   48.7470   28.8000   46.3430 C   0  0  0  0  0  0  0  0  0  0  0  0
   48.6430   27.4390   46.6610 C   0  0  0  0  0  0  0  0  0  0  0  0
   47.3340   27.1780   47.0620 C   0  0  0  0  0  0  0  0  0  0  0  0
   46.6720   28.3260   46.9920 O   0  0  0  0  0  0  0  0  0  0  0  0
   49.6370   29.2960   46.0030 H   0  0  0  0  0  0  0  0  0  0  0  0
   49.4180   26.6730   46.6190 H   0  0  0  0  0  0  0  0  0  0  0  0
   46.7170   25.9140   47.4950 C   0  0  0  0  0  3  0  0  0  0  0  0
   45.2900   26.0850   47.9030 C   0  0  0  0  0  3  0  0  0  0  0  0
   44.7650   26.8860   47.3450 H   0  0  0  0  0  0  0  0  0  0  0  0
   44.6040   24.7330   47.6810 C   0  0  0  0  0  3  0  0  0  0  0  0
   44.4480   24.5370   46.5980 H   0  0  0  0  0  0  0  0  0  0  0  0
   45.5280   23.7790   48.1170 O   0  0  0  0  0  0  0  0  0  0  0  0
   46.4580   23.5440   47.0840 C   0  0  0  0  0  3  0  0  0  0  0  0
   47.3780   23.0890   47.5160 H   0  0  0  0  0  0  0  0  0  0  0  0
   46.7530   24.8600   46.3970 C   0  0  0  0  0  3  0  0  0  0  0  0
   47.8250   24.8050   46.0600 H   0  0  0  0  0  0  0  0  0  0  0  0
  1  9  1  0  0  0  0
  2  1  2  0  0  0  0
  2  3  1  0  0  0  0
  3  4  2  0  0  0  0
  4  8  1  0  0  0  0
  4  5  1  0  0  0  0
  5 12  1  0  0  0  0
  5  6  1  0  0  0  0
  6 13  1  0  0  0  0
  7  6  2  0  0  0  0
  8  7  1  0  0  0  0
  9 23  1  0  0  0  0
  9  8  2  0  0  0  0
 10  1  1  0  0  0  0
 11  3  1  0  0  0  0
 14 19  1  0  0  0  0
 15 16  1  0  0  0  0
 15 14  2  0  0  0  0
 16 17  2  0  0  0  0
 17 18  1  0  0  0  0
 18  2  1  0  0  0  0
 19 18  2  0  0  0  0
 20 14  1  0  0  0  0
 21 15  1  0  0  0  0
 22 16  1  0  0  0  0
 23 27  1  0  0  0  0
 24 23  2  0  0  0  0
 24 25  1  0  0  0  0
 25 26  2  0  0  0  0
 26 30  1  0  0  0  0
 27 26  1  0  0  0  0
 28 24  1  0  0  0  0
 29 25  1  0  0  0  0
 30 31  1  0  0  0  0
 32 31  1  0  0  0  0
 33 31  1  0  0  0  0
 33 35  1  0  0  0  0
 34 33  1  0  0  0  0
 36 37  1  0  0  0  0
 36 35  1  0  0  0  0
 38 36  1  0  0  0  0
 38 30  1  0  0  0  0
 39 38  1  0  0  0  0
M  END
>  <minimizedAffinity>
-5.64927387

>  <minimizedRMSD>
0.957789242

$$$$
