
 OpenBabel03252507203D

 45 48  0  0  1  0  0  0  0  0999 V2000
   46.7560   32.5060   43.8240 C   0  0  0  0  0  0  0  0  0  0  0  0
   48.0210   32.5180   44.0360 O   0  0  0  0  0  0  0  0  0  0  0  0
   46.1220   31.4540   43.0990 N   0  0  0  0  0  0  0  0  0  0  0  0
   44.8860   30.7190   43.4050 C   0  0  0  0  0  0  0  0  0  0  0  0
   43.9590   30.7600   42.1930 C   0  0  0  0  0  0  0  0  0  0  0  0
   44.6110   29.9950   41.0550 C   0  0  0  0  0  0  0  0  0  0  0  0
   46.0480   29.7800   41.3540 C   0  0  0  0  0  0  0  0  0  0  0  0
   46.7450   31.0040   41.8930 C   0  0  1  0  0  0  0  0  0  0  0  0
   44.3590   31.3830   44.1520 H   0  0  0  0  0  0  0  0  0  0  0  0
   45.0630   29.7290   43.8050 H   0  0  0  0  0  0  0  0  0  0  0  0
   43.8540   31.8410   41.9400 H   0  0  0  0  0  0  0  0  0  0  0  0
   43.0000   30.3290   42.5240 H   0  0  0  0  0  0  0  0  0  0  0  0
   44.3500   30.3870   40.0770 H   0  0  0  0  0  0  0  0  0  0  0  0
   44.1150   28.9820   41.1020 H   0  0  0  0  0  0  0  0  0  0  0  0
   46.6350   29.3260   40.5600 H   0  0  0  0  0  0  0  0  0  0  0  0
   46.0900   29.0340   42.2040 H   0  0  0  0  0  0  0  0  0  0  0  0
   47.7500   30.6360   42.1980 H   0  0  0  0  0  0  0  0  0  0  0  0
   46.9750   32.0300   40.8310 C   0  0  0  0  0  3  0  0  0  0  0  0
   48.3910   32.4810   40.6210 C   0  0  0  0  0  3  0  0  0  0  0  0
   49.0010   31.5390   40.5520 H   0  0  0  0  0  0  0  0  0  0  0  0
   48.5590   33.0940   39.2220 C   0  0  0  0  0  3  0  0  0  0  0  0
   48.6800   32.3120   38.4760 H   0  0  0  0  0  0  0  0  0  0  0  0
   47.4470   33.8690   38.9710 O   0  0  0  0  0  0  0  0  0  0  0  0
   46.3140   33.0940   38.7400 C   0  0  0  0  0  3  0  0  0  0  0  0
   45.4600   33.6530   39.2120 H   0  0  0  0  0  0  0  0  0  0  0  0
   46.3750   31.7550   39.4970 C   0  0  0  0  0  3  0  0  0  0  0  0
   46.9800   31.0950   38.8460 H   0  0  0  0  0  0  0  0  0  0  0  0
   45.5140   34.5620   43.4400 C   0  0  0  0  0  0  0  0  0  0  0  0
   45.9580   33.5840   44.3350 C   0  0  0  0  0  0  0  0  0  0  0  0
   45.6280   33.6830   45.6660 C   0  0  0  0  0  0  0  0  0  0  0  0
   44.8810   34.7270   46.0660 N   0  0  0  0  0  0  0  0  0  0  0  0
   44.4440   35.6840   45.2030 C   0  0  0  0  0  0  0  0  0  0  0  0
   44.7690   35.5800   43.9130 N   0  0  0  0  0  0  0  0  0  0  0  0
   45.7160   34.5720   42.3800 H   0  0  0  0  0  0  0  0  0  0  0  0
   43.8360   36.5290   45.5560 H   0  0  0  0  0  0  0  0  0  0  0  0
   46.0930   32.6610   46.5820 C   0  0  0  0  0  0  0  0  0  0  0  0
   45.3690   31.5080   46.7560 C   0  0  0  0  0  0  0  0  0  0  0  0
   45.8340   30.5510   47.6310 C   0  0  0  0  0  0  0  0  0  0  0  0
   47.0050   30.6890   48.3510 C   0  0  0  0  0  0  0  0  0  0  0  0
   47.6870   31.8680   48.1340 C   0  0  0  0  0  0  0  0  0  0  0  0
   47.2250   32.7840   47.2850 N   0  0  0  0  0  0  0  0  0  0  0  0
   44.4570   31.2640   46.2780 H   0  0  0  0  0  0  0  0  0  0  0  0
   45.2920   29.6120   47.8040 H   0  0  0  0  0  0  0  0  0  0  0  0
   47.3930   29.9550   49.0430 H   0  0  0  0  0  0  0  0  0  0  0  0
   48.6280   32.0750   48.6590 H   0  0  0  0  0  0  0  0  0  0  0  0
  1  2  2  0  0  0  0
  1 29  1  0  0  0  0
  3  4  1  0  0  0  0
  3  1  1  0  0  0  0
  4 10  1  0  0  0  0
  4  9  1  0  0  0  0
  5 12  1  0  0  0  0
  5  4  1  0  0  0  0
  6 14  1  0  0  0  0
  6  7  1  0  0  0  0
  6  5  1  0  0  0  0
  7  8  1  0  0  0  0
  7 16  1  0  0  0  0
  8 17  1  1  0  0  0
  8  3  1  0  0  0  0
 11  5  1  0  0  0  0
 13  6  1  0  0  0  0
 15  7  1  0  0  0  0
 18  8  1  0  0  0  0
 19 18  1  0  0  0  0
 20 19  1  0  0  0  0
 21 19  1  0  0  0  0
 22 21  1  0  0  0  0
 23 21  1  0  0  0  0
 24 23  1  0  0  0  0
 24 25  1  0  0  0  0
 24 26  1  0  0  0  0
 26 18  1  0  0  0  0
 27 26  1  0  0  0  0
 28 33  2  0  0  0  0
 28 29  1  0  0  0  0
 29 30  2  0  0  0  0
 30 31  1  0  0  0  0
 30 36  1  0  0  0  0
 32 35  1  0  0  0  0
 32 31  2  0  0  0  0
 33 32  1  0  0  0  0
 34 28  1  0  0  0  0
 36 37  2  0  0  0  0
 36 41  1  0  0  0  0
 37 38  1  0  0  0  0
 38 43  1  0  0  0  0
 38 39  2  0  0  0  0
 39 44  1  0  0  0  0
 40 39  1  0  0  0  0
 40 45  1  0  0  0  0
 41 40  2  0  0  0  0
 42 37  1  0  0  0  0
M  END
>  <minimizedAffinity>
-4.80118656

>  <minimizedRMSD>
2.86861753

$$$$
