
 OpenBabel03252507203D

 45 48  0  0  1  0  0  0  0  0999 V2000
   46.6950   30.5640   44.6690 C   0  0  0  0  0  0  0  0  0  0  0  0
   47.8030   29.9250   44.7680 O   0  0  0  0  0  0  0  0  0  0  0  0
   45.9440   30.5870   43.4560 N   0  0  0  0  0  0  0  0  0  0  0  0
   44.4990   30.4100   43.2470 C   0  0  0  0  0  0  0  0  0  0  0  0
   43.9590   31.5810   42.4310 C   0  0  0  0  0  0  0  0  0  0  0  0
   44.5750   31.5340   41.0440 C   0  0  0  0  0  0  0  0  0  0  0  0
   45.7430   30.6210   41.0460 C   0  0  0  0  0  0  0  0  0  0  0  0
   46.6540   30.8030   42.2330 C   0  0  1  0  0  0  0  0  0  0  0  0
   44.0580   30.5880   44.2720 H   0  0  0  0  0  0  0  0  0  0  0  0
   44.2380   29.4330   42.8630 H   0  0  0  0  0  0  0  0  0  0  0  0
   44.2800   32.4960   42.9810 H   0  0  0  0  0  0  0  0  0  0  0  0
   42.8610   31.4760   42.4310 H   0  0  0  0  0  0  0  0  0  0  0  0
   44.7010   32.5180   40.6040 H   0  0  0  0  0  0  0  0  0  0  0  0
   43.7760   31.0380   40.4190 H   0  0  0  0  0  0  0  0  0  0  0  0
   46.3210   30.5860   40.1250 H   0  0  0  0  0  0  0  0  0  0  0  0
   45.3310   29.5730   41.1640 H   0  0  0  0  0  0  0  0  0  0  0  0
   47.3770   29.9600   42.1590 H   0  0  0  0  0  0  0  0  0  0  0  0
   47.4590   32.0590   42.1350 C   0  0  0  0  0  3  0  0  0  0  0  0
   46.8810   33.2850   42.7770 C   0  0  0  0  0  3  0  0  0  0  0  0
   46.5700   32.9680   43.8090 H   0  0  0  0  0  0  0  0  0  0  0  0
   47.9860   34.3150   43.0600 C   0  0  0  0  0  3  0  0  0  0  0  0
   48.5150   34.0620   43.9790 H   0  0  0  0  0  0  0  0  0  0  0  0
   48.8320   34.3280   41.9740 O   0  0  0  0  0  0  0  0  0  0  0  0
   49.6110   33.1760   41.9060 C   0  0  0  0  0  3  0  0  0  0  0  0
   49.7040   32.9320   40.8130 H   0  0  0  0  0  0  0  0  0  0  0  0
   48.8920   31.9640   42.5230 C   0  0  0  0  0  3  0  0  0  0  0  0
   49.0820   32.0500   43.6090 H   0  0  0  0  0  0  0  0  0  0  0  0
   46.3430   32.6640   45.8440 C   0  0  0  0  0  0  0  0  0  0  0  0
   46.2000   31.2730   45.8130 C   0  0  0  0  0  0  0  0  0  0  0  0
   45.6010   30.6300   46.8700 C   0  0  0  0  0  0  0  0  0  0  0  0
   45.1690   31.3670   47.9080 N   0  0  0  0  0  0  0  0  0  0  0  0
   45.3040   32.7200   47.9490 C   0  0  0  0  0  0  0  0  0  0  0  0
   45.8860   33.3360   46.9180 N   0  0  0  0  0  0  0  0  0  0  0  0
   46.7950   33.2590   45.0660 H   0  0  0  0  0  0  0  0  0  0  0  0
   44.9430   33.3000   48.8100 H   0  0  0  0  0  0  0  0  0  0  0  0
   45.4570   29.1890   46.8230 C   0  0  0  0  0  0  0  0  0  0  0  0
   44.3120   28.6240   46.3200 C   0  0  0  0  0  0  0  0  0  0  0  0
   44.2010   27.2520   46.2840 C   0  0  0  0  0  0  0  0  0  0  0  0
   45.1920   26.4010   46.7330 C   0  0  0  0  0  0  0  0  0  0  0  0
   46.3170   27.0270   47.2280 C   0  0  0  0  0  0  0  0  0  0  0  0
   46.4100   28.3550   47.2560 N   0  0  0  0  0  0  0  0  0  0  0  0
   43.4710   29.1460   45.9440 H   0  0  0  0  0  0  0  0  0  0  0  0
   43.3050   26.7530   45.8900 H   0  0  0  0  0  0  0  0  0  0  0  0
   45.1310   25.3220   46.7160 H   0  0  0  0  0  0  0  0  0  0  0  0
   47.1620   26.4390   47.6100 H   0  0  0  0  0  0  0  0  0  0  0  0
  1  2  2  0  0  0  0
  1 29  1  0  0  0  0
  3  1  1  0  0  0  0
  4  3  1  0  0  0  0
  4  9  1  0  0  0  0
  5 11  1  0  0  0  0
  5  4  1  0  0  0  0
  6  7  1  0  0  0  0
  6  5  1  0  0  0  0
  7 16  1  0  0  0  0
  7  8  1  0  0  0  0
  8 17  1  6  0  0  0
  8  3  1  0  0  0  0
 10  4  1  0  0  0  0
 12  5  1  0  0  0  0
 13  6  1  0  0  0  0
 14  6  1  0  0  0  0
 15  7  1  0  0  0  0
 18  8  1  0  0  0  0
 18 26  1  0  0  0  0
 18 19  1  0  0  0  0
 19 21  1  0  0  0  0
 19 20  1  0  0  0  0
 21 22  1  0  0  0  0
 23 21  1  0  0  0  0
 24 23  1  0  0  0  0
 24 26  1  0  0  0  0
 25 24  1  0  0  0  0
 26 27  1  0  0  0  0
 28 33  1  0  0  0  0
 29 28  2  0  0  0  0
 29 30  1  0  0  0  0
 30 31  2  0  0  0  0
 31 32  1  0  0  0  0
 32 35  1  0  0  0  0
 33 32  2  0  0  0  0
 34 28  1  0  0  0  0
 36 30  1  0  0  0  0
 36 41  1  0  0  0  0
 37 36  2  0  0  0  0
 38 37  1  0  0  0  0
 38 39  2  0  0  0  0
 39 40  1  0  0  0  0
 40 41  2  0  0  0  0
 40 45  1  0  0  0  0
 42 37  1  0  0  0  0
 43 38  1  0  0  0  0
 44 39  1  0  0  0  0
M  END
>  <minimizedAffinity>
-4.33427954

>  <minimizedRMSD>
4.15915203

$$$$
