
 OpenBabel03242520373D

 36 39  0  0  1  0  0  0  0  0999 V2000
   46.2180   33.2340   42.4300 C   0  0  0  0  0  0  0  0  0  0  0  0
   47.5710   32.9060   42.0410 C   0  0  0  0  0  0  0  0  0  0  0  0
   48.3380   32.2320   42.9540 C   0  0  0  0  0  0  0  0  0  0  0  0
   47.8090   31.9070   44.1600 N   0  0  0  0  0  0  0  0  0  0  0  0
   46.5360   32.2290   44.4960 C   0  0  0  0  0  0  0  0  0  0  0  0
   45.7580   32.8900   43.6200 N   0  0  0  0  0  0  0  0  0  0  0  0
   45.6090   33.7580   41.7290 H   0  0  0  0  0  0  0  0  0  0  0  0
   49.3670   31.9490   42.7410 H   0  0  0  0  0  0  0  0  0  0  0  0
   48.1170   33.2930   40.7120 C   0  0  1  0  0  0  0  0  0  0  0  0
   47.5030   34.3150   39.9220 C   0  0  0  0  0  0  0  0  0  0  0  0
   48.7590   34.6900   40.5950 C   0  0  1  0  0  0  0  0  0  0  0  0
   48.7680   32.5190   40.2650 H   0  0  0  0  0  0  0  0  0  0  0  0
   46.5970   34.8630   40.2740 H   0  0  0  0  0  0  0  0  0  0  0  0
   47.4870   34.2550   38.7930 H   0  0  0  0  0  0  0  0  0  0  0  0
   49.6460   34.7870   39.9070 H   0  0  0  0  0  0  0  0  0  0  0  0
   48.8290   35.5900   41.7640 C   0  0  0  0  0  0  0  0  0  0  0  0
   49.4300   36.7980   41.4530 F   0  0  0  0  0  0  0  0  0  0  0  0
   49.5150   35.0010   42.8270 F   0  0  0  0  0  0  0  0  0  0  0  0
   47.5390   35.8740   42.1450 F   0  0  0  0  0  0  0  0  0  0  0  0
   46.0400   31.8210   45.8450 C   0  0  2  0  0  0  0  0  0  0  0  0
   45.8270   32.9970   46.7820 C   0  0  0  0  0  0  0  0  0  0  0  0
   46.9090   31.9960   47.0440 C   0  0  1  0  0  0  0  0  0  0  0  0
   45.3360   30.9830   45.7970 H   0  0  0  0  0  0  0  0  0  0  0  0
   46.1630   33.9930   46.4760 H   0  0  0  0  0  0  0  0  0  0  0  0
   44.8730   32.9840   47.3380 H   0  0  0  0  0  0  0  0  0  0  0  0
   47.9520   32.2950   46.8930 H   0  0  0  0  0  0  0  0  0  0  0  0
   46.7180   30.9210   48.1040 C   0  0  0  0  0  0  0  0  0  0  0  0
   45.2990   30.4710   48.2310 C   0  0  0  0  0  0  0  0  0  0  0  0
   45.1700   30.1160   49.2950 H   0  0  0  0  0  0  0  0  0  0  0  0
   44.9610   29.2930   47.3580 C   0  0  0  0  0  0  0  0  0  0  0  0
   45.1170   29.4930   46.2860 H   0  0  0  0  0  0  0  0  0  0  0  0
   45.8080   28.2470   47.7690 O   0  0  0  0  0  0  0  0  0  0  0  0
   47.0710   28.5650   47.2760 C   0  0  0  0  0  0  0  0  0  0  0  0
   47.7850   27.7200   47.4390 H   0  0  0  0  0  0  0  0  0  0  0  0
   47.6630   29.7660   47.9500 C   0  0  0  0  0  0  0  0  0  0  0  0
   47.9970   29.4070   48.9680 H   0  0  0  0  0  0  0  0  0  0  0  0
  1  6  1  0  0  0  0
  2  1  2  0  0  0  0
  2  3  1  0  0  0  0
  3  4  2  0  0  0  0
  4  5  1  0  0  0  0
  5 20  1  0  0  0  0
  6  5  2  0  0  0  0
  7  1  1  0  0  0  0
  8  3  1  0  0  0  0
  9 12  1  6  0  0  0
  9  2  1  0  0  0  0
 10 13  1  0  0  0  0
 10 11  1  0  0  0  0
 10  9  1  0  0  0  0
 11 15  1  6  0  0  0
 11  9  1  0  0  0  0
 11 16  1  0  0  0  0
 14 10  1  0  0  0  0
 16 19  1  0  0  0  0
 16 18  1  0  0  0  0
 17 16  1  0  0  0  0
 20 23  1  1  0  0  0
 20 21  1  0  0  0  0
 20 22  1  0  0  0  0
 21 22  1  0  0  0  0
 21 25  1  0  0  0  0
 22 26  1  6  0  0  0
 22 27  1  0  0  0  0
 24 21  1  0  0  0  0
 27 28  1  0  0  0  0
 28 29  1  0  0  0  0
 30 32  1  0  0  0  0
 30 28  1  0  0  0  0
 31 30  1  0  0  0  0
 33 34  1  0  0  0  0
 33 32  1  0  0  0  0
 33 35  1  0  0  0  0
 35 27  1  0  0  0  0
 35 36  1  0  0  0  0
M  END
>  <minimizedAffinity>
-5.44232512

>  <minimizedRMSD>
1.63145494

$$$$
