
 OpenBabel03242516273D

 44 48  0  0  0  0  0  0  0  0999 V2000
   36.7210   28.8760   41.6310 C   0  0  0  0  0  0  0  0  0  0  0  0
   37.1100   29.1040   42.9100 N   0  0  0  0  0  0  0  0  0  0  0  0
   37.5320   28.1490   43.7490 C   0  0  0  0  0  0  0  0  0  0  0  0
   37.5630   26.8940   43.2760 N   0  0  0  0  0  0  0  0  0  0  0  0
   37.2000   26.5740   42.0300 C   0  0  0  0  0  0  0  0  0  0  0  0
   37.2610   25.2840   41.5410 C   0  0  0  0  0  0  0  0  0  0  0  0
   36.9120   24.9940   40.2550 C   0  0  0  0  0  0  0  0  0  0  0  0
   36.4830   25.9940   39.3970 C   0  0  0  0  0  0  0  0  0  0  0  0
   36.4130   27.3010   39.8710 C   0  0  0  0  0  0  0  0  0  0  0  0
   36.7690   27.5830   41.1820 C   0  0  0  0  0  0  0  0  0  0  0  0
   37.8400   28.3420   44.7660 H   0  0  0  0  0  0  0  0  0  0  0  0
   37.6080   24.5740   42.2920 H   0  0  0  0  0  0  0  0  0  0  0  0
   37.0280   23.9300   40.0650 H   0  0  0  0  0  0  0  0  0  0  0  0
   36.2740   25.5210   38.4720 H   0  0  0  0  0  0  0  0  0  0  0  0
   36.0150   28.2360   38.8100 C   0  0  0  0  0  3  0  0  0  0  0  0
   37.0920   28.1780   37.6610 C   0  0  0  0  0  3  0  0  0  0  0  0
   36.9150   27.2360   37.1110 H   0  0  0  0  0  0  0  0  0  0  0  0
   36.9580   29.3790   36.7530 C   0  0  0  0  0  3  0  0  0  0  0  0
   37.5840   29.1590   35.8720 H   0  0  0  0  0  0  0  0  0  0  0  0
   35.6200   29.5250   36.4500 O   0  0  0  0  0  0  0  0  0  0  0  0
   34.9550   28.3350   36.5410 C   0  0  0  0  0  3  0  0  0  0  0  0
   33.9150   28.4930   36.1890 H   0  0  0  0  0  0  0  0  0  0  0  0
   34.8290   27.8540   37.9960 C   0  0  0  0  0  3  0  0  0  0  0  0
   33.8980   28.3260   38.3610 H   0  0  0  0  0  0  0  0  0  0  0  0
   36.1890   30.1330   40.5600 S   0  0  0  0  0  0  0  0  0  0  0  0
   39.5390   32.3060   40.9870 C   0  0  0  0  0  0  0  0  0  0  0  0
   38.5990   31.2880   41.0200 C   0  0  0  0  0  0  0  0  0  0  0  0
   37.3610   31.4480   40.4530 C   0  0  0  0  0  0  0  0  0  0  0  0
   37.0280   32.6400   39.8310 C   0  0  0  0  0  0  0  0  0  0  0  0
   37.9260   33.6570   39.7800 C   0  0  0  0  0  0  0  0  0  0  0  0
   39.1650   33.4680   40.3610 C   0  0  0  0  0  0  0  0  0  0  0  0
   38.8510   30.3560   41.5030 H   0  0  0  0  0  0  0  0  0  0  0  0
   36.0510   32.8000   39.3700 H   0  0  0  0  0  0  0  0  0  0  0  0
   37.7470   34.6210   39.3140 H   0  0  0  0  0  0  0  0  0  0  0  0
   39.8980   34.2790   40.3270 H   0  0  0  0  0  0  0  0  0  0  0  0
   43.0930   32.7920   41.6720 C   0  0  0  0  0  0  0  0  0  0  0  0
   43.3690   31.8550   42.6910 C   0  0  0  0  0  0  0  0  0  0  0  0
   42.3290   31.0570   43.1390 C   0  0  0  0  0  0  0  0  0  0  0  0
   41.0800   31.1830   42.5990 N   0  0  0  0  0  0  0  0  0  0  0  0
   40.8570   32.1060   41.6110 C   0  0  0  0  0  0  0  0  0  0  0  0
   41.8580   32.9080   41.1470 N   0  0  0  0  0  0  0  0  0  0  0  0
   43.9350   33.3960   41.3510 H   0  0  0  0  0  0  0  0  0  0  0  0
   44.3060   31.6910   43.1650 H   0  0  0  0  0  0  0  0  0  0  0  0
   42.3640   30.2940   43.9050 H   0  0  0  0  0  0  0  0  0  0  0  0
  1  2  1  0  0  0  0
  2  3  2  0  0  0  0
  3 11  1  0  0  0  0
  4  3  1  0  0  0  0
  5  4  2  0  0  0  0
  6  5  1  0  0  0  0
  6 12  1  0  0  0  0
  7  6  2  0  0  0  0
  8  9  2  0  0  0  0
  8  7  1  0  0  0  0
  9 10  1  0  0  0  0
 10  1  2  0  0  0  0
 10  5  1  0  0  0  0
 13  7  1  0  0  0  0
 14  8  1  0  0  0  0
 15  9  1  0  0  0  0
 16 15  1  0  0  0  0
 17 16  1  0  0  0  0
 18 16  1  0  0  0  0
 19 18  1  0  0  0  0
 20 21  1  0  0  0  0
 20 18  1  0  0  0  0
 21 23  1  0  0  0  0
 22 21  1  0  0  0  0
 23 24  1  0  0  0  0
 23 15  1  0  0  0  0
 25  1  1  0  0  0  0
 26 27  1  0  0  0  0
 26 40  1  0  0  0  0
 27 32  1  0  0  0  0
 28 25  1  0  0  0  0
 28 27  2  0  0  0  0
 29 28  1  0  0  0  0
 30 29  2  0  0  0  0
 30 31  1  0  0  0  0
 31 26  2  0  0  0  0
 33 29  1  0  0  0  0
 34 30  1  0  0  0  0
 35 31  1  0  0  0  0
 36 37  1  0  0  0  0
 37 38  2  0  0  0  0
 37 43  1  0  0  0  0
 38 44  1  0  0  0  0
 39 38  1  0  0  0  0
 40 39  2  0  0  0  0
 41 40  1  0  0  0  0
 41 36  2  0  0  0  0
 42 36  1  0  0  0  0
M  END
>  <minimizedAffinity>
-6.48928547

$$$$

 OpenBabel03242516273D

 44 48  0  0  0  0  0  0  0  0999 V2000
   36.9500   28.0520   41.4090 C   0  0  0  0  0  0  0  0  0  0  0  0
   37.1100   29.0090   42.3580 N   0  0  0  0  0  0  0  0  0  0  0  0
   37.8690   28.8630   43.4510 C   0  0  0  0  0  0  0  0  0  0  0  0
   38.5010   27.6900   43.6020 N   0  0  0  0  0  0  0  0  0  0  0  0
   38.4040   26.6900   42.7200 C   0  0  0  0  0  0  0  0  0  0  0  0
   39.0800   25.4940   42.8670 C   0  0  0  0  0  0  0  0  0  0  0  0
   38.9850   24.5040   41.9340 C   0  0  0  0  0  0  0  0  0  0  0  0
   38.2000   24.6720   40.8050 C   0  0  0  0  0  0  0  0  0  0  0  0
   37.5090   25.8690   40.6380 C   0  0  0  0  0  0  0  0  0  0  0  0
   37.6130   26.8680   41.5960 C   0  0  0  0  0  0  0  0  0  0  0  0
   37.9900   29.6330   44.2000 H   0  0  0  0  0  0  0  0  0  0  0  0
   39.6660   25.4620   43.7850 H   0  0  0  0  0  0  0  0  0  0  0  0
   39.5870   23.6490   42.2310 H   0  0  0  0  0  0  0  0  0  0  0  0
   38.2890   23.7760   40.2460 H   0  0  0  0  0  0  0  0  0  0  0  0
   36.7940   25.9020   39.3550 C   0  0  0  0  0  3  0  0  0  0  0  0
   37.8360   25.6690   38.1950 C   0  0  0  0  0  3  0  0  0  0  0  0
   38.0810   24.5910   38.2060 H   0  0  0  0  0  0  0  0  0  0  0  0
   37.2460   26.0840   36.8670 C   0  0  0  0  0  3  0  0  0  0  0  0
   37.9350   25.6940   36.0980 H   0  0  0  0  0  0  0  0  0  0  0  0
   35.9780   25.5460   36.7870 O   0  0  0  0  0  0  0  0  0  0  0  0
   35.8620   24.4240   37.5580 C   0  0  0  0  0  3  0  0  0  0  0  0
   34.8620   23.9810   37.3760 H   0  0  0  0  0  0  0  0  0  0  0  0
   35.9000   24.7500   39.0610 C   0  0  0  0  0  3  0  0  0  0  0  0
   34.8460   24.9580   39.3220 H   0  0  0  0  0  0  0  0  0  0  0  0
   35.9690   28.2690   39.9950 S   0  0  0  0  0  0  0  0  0  0  0  0
   37.9090   31.4940   38.5920 C   0  0  0  0  0  0  0  0  0  0  0  0
   37.3800   30.5120   39.4150 C   0  0  0  0  0  0  0  0  0  0  0  0
   36.6520   29.4710   38.8980 C   0  0  0  0  0  0  0  0  0  0  0  0
   36.4330   29.3840   37.5330 C   0  0  0  0  0  0  0  0  0  0  0  0
   36.9370   30.3300   36.7000 C   0  0  0  0  0  0  0  0  0  0  0  0
   37.6650   31.3670   37.2490 C   0  0  0  0  0  0  0  0  0  0  0  0
   37.5480   30.5710   40.4800 H   0  0  0  0  0  0  0  0  0  0  0  0
   35.8570   28.5690   37.0890 H   0  0  0  0  0  0  0  0  0  0  0  0
   36.8120   30.3380   35.6210 H   0  0  0  0  0  0  0  0  0  0  0  0
   38.0770   32.1360   36.5890 H   0  0  0  0  0  0  0  0  0  0  0  0
   38.5740   34.6500   40.3040 C   0  0  0  0  0  0  0  0  0  0  0  0
   39.9830   34.7300   40.3250 C   0  0  0  0  0  0  0  0  0  0  0  0
   40.7010   33.6970   39.7470 C   0  0  0  0  0  0  0  0  0  0  0  0
   40.0500   32.6390   39.1760 N   0  0  0  0  0  0  0  0  0  0  0  0
   38.6800   32.6020   39.1790 C   0  0  0  0  0  0  0  0  0  0  0  0
   37.9430   33.6030   39.7400 N   0  0  0  0  0  0  0  0  0  0  0  0
   38.0510   35.4800   40.7680 H   0  0  0  0  0  0  0  0  0  0  0  0
   40.5680   35.5120   40.7450 H   0  0  0  0  0  0  0  0  0  0  0  0
   41.7750   33.5970   39.6750 H   0  0  0  0  0  0  0  0  0  0  0  0
  1 10  2  0  0  0  0
  1  2  1  0  0  0  0
  2  3  2  0  0  0  0
  3  4  1  0  0  0  0
  3 11  1  0  0  0  0
  5  6  1  0  0  0  0
  5  4  2  0  0  0  0
  6 12  1  0  0  0  0
  7 13  1  0  0  0  0
  7  6  2  0  0  0  0
  8  7  1  0  0  0  0
  9  8  2  0  0  0  0
  9 10  1  0  0  0  0
 10  5  1  0  0  0  0
 14  8  1  0  0  0  0
 15  9  1  0  0  0  0
 16 17  1  0  0  0  0
 16 15  1  0  0  0  0
 18 16  1  0  0  0  0
 19 18  1  0  0  0  0
 20 18  1  0  0  0  0
 20 21  1  0  0  0  0
 21 23  1  0  0  0  0
 22 21  1  0  0  0  0
 23 24  1  0  0  0  0
 23 15  1  0  0  0  0
 25  1  1  0  0  0  0
 26 40  1  0  0  0  0
 26 27  1  0  0  0  0
 27 32  1  0  0  0  0
 28 27  2  0  0  0  0
 28 25  1  0  0  0  0
 29 28  1  0  0  0  0
 30 31  1  0  0  0  0
 30 29  2  0  0  0  0
 31 26  2  0  0  0  0
 33 29  1  0  0  0  0
 34 30  1  0  0  0  0
 35 31  1  0  0  0  0
 36 37  1  0  0  0  0
 36 42  1  0  0  0  0
 37 43  1  0  0  0  0
 38 37  2  0  0  0  0
 39 40  2  0  0  0  0
 39 38  1  0  0  0  0
 40 41  1  0  0  0  0
 41 36  2  0  0  0  0
 44 38  1  0  0  0  0
M  END
>  <minimizedAffinity>
-6.45308495

$$$$

 OpenBabel03242516273D

 44 48  0  0  0  0  0  0  0  0999 V2000
   36.1700   26.6440   39.0930 C   0  0  0  0  0  0  0  0  0  0  0  0
   35.4070   26.2500   38.0430 N   0  0  0  0  0  0  0  0  0  0  0  0
   35.4720   25.0370   37.4800 C   0  0  0  0  0  0  0  0  0  0  0  0
   36.3540   24.1710   38.0010 N   0  0  0  0  0  0  0  0  0  0  0  0
   37.1470   24.4690   39.0350 C   0  0  0  0  0  0  0  0  0  0  0  0
   38.0340   23.5630   39.5840 C   0  0  0  0  0  0  0  0  0  0  0  0
   38.8080   23.8880   40.6590 C   0  0  0  0  0  0  0  0  0  0  0  0
   38.7250   25.1460   41.2340 C   0  0  0  0  0  0  0  0  0  0  0  0
   37.8390   26.0750   40.6950 C   0  0  0  0  0  0  0  0  0  0  0  0
   37.0580   25.7330   39.5990 C   0  0  0  0  0  0  0  0  0  0  0  0
   34.8590   24.7330   36.6450 H   0  0  0  0  0  0  0  0  0  0  0  0
   38.0240   22.6080   39.0610 H   0  0  0  0  0  0  0  0  0  0  0  0
   39.4350   23.0460   40.9390 H   0  0  0  0  0  0  0  0  0  0  0  0
   39.4160   25.1510   42.0370 H   0  0  0  0  0  0  0  0  0  0  0  0
   37.8270   27.3210   41.4720 C   0  0  0  0  0  3  0  0  0  0  0  0
   37.6520   26.9590   42.9960 C   0  0  0  0  0  3  0  0  0  0  0  0
   38.6280   26.5710   43.3410 H   0  0  0  0  0  0  0  0  0  0  0  0
   37.2370   28.1800   43.7830 C   0  0  0  0  0  3  0  0  0  0  0  0
   37.3460   27.9040   44.8460 H   0  0  0  0  0  0  0  0  0  0  0  0
   38.0590   29.2210   43.4020 O   0  0  0  0  0  0  0  0  0  0  0  0
   39.2590   28.7650   42.9380 C   0  0  0  0  0  3  0  0  0  0  0  0
   39.9110   29.6410   42.7450 H   0  0  0  0  0  0  0  0  0  0  0  0
   39.1210   28.0490   41.5840 C   0  0  0  0  0  3  0  0  0  0  0  0
   39.2140   28.8570   40.8360 H   0  0  0  0  0  0  0  0  0  0  0  0
   36.0600   28.2200   39.8110 S   0  0  0  0  0  0  0  0  0  0  0  0
   37.9060   31.5500   38.5330 C   0  0  0  0  0  0  0  0  0  0  0  0
   37.3930   30.5300   39.3190 C   0  0  0  0  0  0  0  0  0  0  0  0
   36.7260   29.4710   38.7600 C   0  0  0  0  0  0  0  0  0  0  0  0
   36.5530   29.4030   37.3870 C   0  0  0  0  0  0  0  0  0  0  0  0
   37.0440   30.3850   36.5890 C   0  0  0  0  0  0  0  0  0  0  0  0
   37.7100   31.4400   37.1800 C   0  0  0  0  0  0  0  0  0  0  0  0
   37.5240   30.5750   40.3900 H   0  0  0  0  0  0  0  0  0  0  0  0
   36.0270   28.5730   36.9090 H   0  0  0  0  0  0  0  0  0  0  0  0
   36.9530   30.4090   35.5060 H   0  0  0  0  0  0  0  0  0  0  0  0
   38.1100   32.2390   36.5490 H   0  0  0  0  0  0  0  0  0  0  0  0
   40.6690   33.7480   39.4630 C   0  0  0  0  0  0  0  0  0  0  0  0
   40.0580   34.7340   40.2680 C   0  0  0  0  0  0  0  0  0  0  0  0
   38.6940   34.6370   40.4900 C   0  0  0  0  0  0  0  0  0  0  0  0
   37.9760   33.6110   39.9410 N   0  0  0  0  0  0  0  0  0  0  0  0
   38.6110   32.6760   39.1650 C   0  0  0  0  0  0  0  0  0  0  0  0
   39.9520   32.7430   38.9270 N   0  0  0  0  0  0  0  0  0  0  0  0
   41.7380   33.8630   39.3150 H   0  0  0  0  0  0  0  0  0  0  0  0
   40.5370   35.5610   40.7330 H   0  0  0  0  0  0  0  0  0  0  0  0
   38.0700   35.2980   41.0770 H   0  0  0  0  0  0  0  0  0  0  0  0
  1 10  1  0  0  0  0
  1 25  1  0  0  0  0
  2  1  2  0  0  0  0
  3  4  2  0  0  0  0
  3  2  1  0  0  0  0
  4  5  1  0  0  0  0
  5  6  2  0  0  0  0
  5 10  1  0  0  0  0
  6  7  1  0  0  0  0
  7 13  1  0  0  0  0
  7  8  2  0  0  0  0
  8 14  1  0  0  0  0
  9  8  1  0  0  0  0
  9 15  1  0  0  0  0
 10  9  2  0  0  0  0
 11  3  1  0  0  0  0
 12  6  1  0  0  0  0
 15 23  1  0  0  0  0
 15 16  1  0  0  0  0
 16 17  1  0  0  0  0
 16 18  1  0  0  0  0
 18 19  1  0  0  0  0
 20 18  1  0  0  0  0
 21 20  1  0  0  0  0
 22 21  1  0  0  0  0
 23 21  1  0  0  0  0
 24 23  1  0  0  0  0
 26 40  1  0  0  0  0
 26 27  1  0  0  0  0
 27 32  1  0  0  0  0
 28 27  2  0  0  0  0
 28 25  1  0  0  0  0
 29 28  1  0  0  0  0
 30 31  1  0  0  0  0
 30 29  2  0  0  0  0
 31 26  2  0  0  0  0
 33 29  1  0  0  0  0
 34 30  1  0  0  0  0
 35 31  1  0  0  0  0
 36 37  1  0  0  0  0
 37 38  2  0  0  0  0
 37 43  1  0  0  0  0
 38 44  1  0  0  0  0
 39 38  1  0  0  0  0
 40 39  2  0  0  0  0
 41 40  1  0  0  0  0
 41 36  2  0  0  0  0
 42 36  1  0  0  0  0
M  END
>  <minimizedAffinity>
-6.42147636

$$$$

 OpenBabel03242516273D

 44 48  0  0  0  0  0  0  0  0999 V2000
   35.8680   29.3990   39.2700 C   0  0  0  0  0  0  0  0  0  0  0  0
   35.1500   28.2540   39.1530 N   0  0  0  0  0  0  0  0  0  0  0  0
   34.8730   27.6570   37.9870 C   0  0  0  0  0  0  0  0  0  0  0  0
   35.3450   28.2420   36.8760 N   0  0  0  0  0  0  0  0  0  0  0  0
   36.0630   29.3690   36.8930 C   0  0  0  0  0  0  0  0  0  0  0  0
   36.5690   29.9510   35.7480 C   0  0  0  0  0  0  0  0  0  0  0  0
   37.3250   31.0860   35.8010 C   0  0  0  0  0  0  0  0  0  0  0  0
   37.6070   31.6900   37.0150 C   0  0  0  0  0  0  0  0  0  0  0  0
   37.1050   31.1200   38.1820 C   0  0  0  0  0  0  0  0  0  0  0  0
   36.3350   29.9660   38.1150 C   0  0  0  0  0  0  0  0  0  0  0  0
   34.3000   26.7440   37.9060 H   0  0  0  0  0  0  0  0  0  0  0  0
   36.2910   29.4020   34.8490 H   0  0  0  0  0  0  0  0  0  0  0  0
   37.6260   31.3840   34.8000 H   0  0  0  0  0  0  0  0  0  0  0  0
   38.1980   32.5400   36.7930 H   0  0  0  0  0  0  0  0  0  0  0  0
   37.5640   31.8440   39.3740 C   0  0  0  0  0  3  0  0  0  0  0  0
   39.1330   31.9820   39.3040 C   0  0  0  0  0  3  0  0  0  0  0  0
   39.3460   32.7670   38.5550 H   0  0  0  0  0  0  0  0  0  0  0  0
   39.6900   32.3500   40.6590 C   0  0  0  0  0  3  0  0  0  0  0  0
   40.7410   32.6360   40.4840 H   0  0  0  0  0  0  0  0  0  0  0  0
   38.9200   33.3790   41.1620 O   0  0  0  0  0  0  0  0  0  0  0  0
   38.3320   34.0970   40.1610 C   0  0  0  0  0  3  0  0  0  0  0  0
   37.8140   34.9650   40.6160 H   0  0  0  0  0  0  0  0  0  0  0  0
   37.2350   33.2940   39.4410 C   0  0  0  0  0  3  0  0  0  0  0  0
   36.3200   33.4920   40.0290 H   0  0  0  0  0  0  0  0  0  0  0  0
   36.2220   30.1490   40.7950 S   0  0  0  0  0  0  0  0  0  0  0  0
   39.1560   28.3600   42.8730 C   0  0  0  0  0  0  0  0  0  0  0  0
   38.4350   29.2130   42.0530 C   0  0  0  0  0  0  0  0  0  0  0  0
   37.0840   29.0570   41.8810 C   0  0  0  0  0  0  0  0  0  0  0  0
   36.4120   28.0350   42.5310 C   0  0  0  0  0  0  0  0  0  0  0  0
   37.0890   27.1820   43.3420 C   0  0  0  0  0  0  0  0  0  0  0  0
   38.4490   27.3630   43.4950 C   0  0  0  0  0  0  0  0  0  0  0  0
   38.9510   30.0130   41.5430 H   0  0  0  0  0  0  0  0  0  0  0  0
   35.3360   27.8830   42.4160 H   0  0  0  0  0  0  0  0  0  0  0  0
   36.6410   26.3570   43.8880 H   0  0  0  0  0  0  0  0  0  0  0  0
   39.0070   26.6830   44.1450 H   0  0  0  0  0  0  0  0  0  0  0  0
   42.5890   27.6700   43.9090 C   0  0  0  0  0  0  0  0  0  0  0  0
   43.3210   28.7620   43.3940 C   0  0  0  0  0  0  0  0  0  0  0  0
   42.6280   29.7350   42.6920 C   0  0  0  0  0  0  0  0  0  0  0  0
   41.2770   29.6280   42.5140 N   0  0  0  0  0  0  0  0  0  0  0  0
   40.6070   28.5500   43.0310 C   0  0  0  0  0  0  0  0  0  0  0  0
   41.2590   27.5740   43.7270 N   0  0  0  0  0  0  0  0  0  0  0  0
   43.1700   26.9320   44.4510 H   0  0  0  0  0  0  0  0  0  0  0  0
   44.3670   28.9250   43.4860 H   0  0  0  0  0  0  0  0  0  0  0  0
   43.0270   30.6300   42.2350 H   0  0  0  0  0  0  0  0  0  0  0  0
  1 25  1  0  0  0  0
  2  1  1  0  0  0  0
  3  2  2  0  0  0  0
  4  5  2  0  0  0  0
  4  3  1  0  0  0  0
  5 10  1  0  0  0  0
  6  7  2  0  0  0  0
  6  5  1  0  0  0  0
  7  8  1  0  0  0  0
  8  9  2  0  0  0  0
  9 15  1  0  0  0  0
 10  9  1  0  0  0  0
 10  1  2  0  0  0  0
 11  3  1  0  0  0  0
 12  6  1  0  0  0  0
 13  7  1  0  0  0  0
 14  8  1  0  0  0  0
 15 23  1  0  0  0  0
 16 15  1  0  0  0  0
 16 18  1  0  0  0  0
 17 16  1  0  0  0  0
 18 20  1  0  0  0  0
 19 18  1  0  0  0  0
 21 22  1  0  0  0  0
 21 20  1  0  0  0  0
 23 24  1  0  0  0  0
 23 21  1  0  0  0  0
 25 28  1  0  0  0  0
 26 40  1  0  0  0  0
 26 31  1  0  0  0  0
 27 26  2  0  0  0  0
 28 27  1  0  0  0  0
 28 29  2  0  0  0  0
 29 30  1  0  0  0  0
 30 31  2  0  0  0  0
 30 34  1  0  0  0  0
 31 35  1  0  0  0  0
 32 27  1  0  0  0  0
 33 29  1  0  0  0  0
 36 42  1  0  0  0  0
 37 43  1  0  0  0  0
 37 36  2  0  0  0  0
 38 37  1  0  0  0  0
 39 38  2  0  0  0  0
 39 40  1  0  0  0  0
 40 41  2  0  0  0  0
 41 36  1  0  0  0  0
 44 38  1  0  0  0  0
M  END
>  <minimizedAffinity>
-6.38346577

$$$$

 OpenBabel03242516273D

 44 48  0  0  0  0  0  0  0  0999 V2000
   36.8420   29.0630   41.4130 C   0  0  0  0  0  0  0  0  0  0  0  0
   37.2890   29.3480   42.6610 N   0  0  0  0  0  0  0  0  0  0  0  0
   37.6870   28.4260   43.5460 C   0  0  0  0  0  0  0  0  0  0  0  0
   37.6310   27.1440   43.1560 N   0  0  0  0  0  0  0  0  0  0  0  0
   37.2060   26.7670   41.9450 C   0  0  0  0  0  0  0  0  0  0  0  0
   37.1780   25.4470   41.5400 C   0  0  0  0  0  0  0  0  0  0  0  0
   36.7670   25.0970   40.2870 C   0  0  0  0  0  0  0  0  0  0  0  0
   36.3640   26.0630   39.3810 C   0  0  0  0  0  0  0  0  0  0  0  0
   36.3830   27.4000   39.7700 C   0  0  0  0  0  0  0  0  0  0  0  0
   36.8010   27.7440   41.0480 C   0  0  0  0  0  0  0  0  0  0  0  0
   38.0420   28.6650   44.5380 H   0  0  0  0  0  0  0  0  0  0  0  0
   37.5120   24.7670   42.3230 H   0  0  0  0  0  0  0  0  0  0  0  0
   36.8160   24.0180   40.1630 H   0  0  0  0  0  0  0  0  0  0  0  0
   36.0950   25.5460   38.4960 H   0  0  0  0  0  0  0  0  0  0  0  0
   35.9990   28.2870   38.6640 C   0  0  0  0  0  3  0  0  0  0  0  0
   36.9100   27.9600   37.4200 C   0  0  0  0  0  3  0  0  0  0  0  0
   36.5320   27.0120   36.9950 H   0  0  0  0  0  0  0  0  0  0  0  0
   36.8420   29.0810   36.4090 C   0  0  0  0  0  3  0  0  0  0  0  0
   37.3190   28.6890   35.4940 H   0  0  0  0  0  0  0  0  0  0  0  0
   35.5120   29.4070   36.2350 O   0  0  0  0  0  0  0  0  0  0  0  0
   34.6980   28.3490   36.5230 C   0  0  0  0  0  3  0  0  0  0  0  0
   33.6570   28.6350   36.2690 H   0  0  0  0  0  0  0  0  0  0  0  0
   34.6810   28.0240   38.0260 C   0  0  0  0  0  3  0  0  0  0  0  0
   33.8790   28.6670   38.4350 H   0  0  0  0  0  0  0  0  0  0  0  0
   36.3420   30.2790   40.2800 S   0  0  0  0  0  0  0  0  0  0  0  0
   39.7670   31.6110   38.6610 C   0  0  0  0  0  0  0  0  0  0  0  0
   38.6830   30.8280   39.0270 C   0  0  0  0  0  0  0  0  0  0  0  0
   37.6780   31.3320   39.8110 C   0  0  0  0  0  0  0  0  0  0  0  0
   37.7290   32.6440   40.2530 C   0  0  0  0  0  0  0  0  0  0  0  0
   38.7760   33.4380   39.9120 C   0  0  0  0  0  0  0  0  0  0  0  0
   39.7750   32.9030   39.1220 C   0  0  0  0  0  0  0  0  0  0  0  0
   38.6350   29.8050   38.6860 H   0  0  0  0  0  0  0  0  0  0  0  0
   36.9450   33.0760   40.8790 H   0  0  0  0  0  0  0  0  0  0  0  0
   38.8940   34.4740   40.2140 H   0  0  0  0  0  0  0  0  0  0  0  0
   40.6240   33.5320   38.8400 H   0  0  0  0  0  0  0  0  0  0  0  0
   41.6510   29.1100   36.7840 C   0  0  0  0  0  0  0  0  0  0  0  0
   42.7440   29.8350   36.2610 C   0  0  0  0  0  0  0  0  0  0  0  0
   42.8290   31.1850   36.5580 C   0  0  0  0  0  0  0  0  0  0  0  0
   41.8770   31.7820   37.3370 N   0  0  0  0  0  0  0  0  0  0  0  0
   40.8330   31.0390   37.8240 C   0  0  0  0  0  0  0  0  0  0  0  0
   40.7200   29.7080   37.5500 N   0  0  0  0  0  0  0  0  0  0  0  0
   41.6230   28.0560   36.5260 H   0  0  0  0  0  0  0  0  0  0  0  0
   43.5250   29.4530   35.6500 H   0  0  0  0  0  0  0  0  0  0  0  0
   43.5920   31.8850   36.2440 H   0  0  0  0  0  0  0  0  0  0  0  0
  1  2  1  0  0  0  0
  2  3  2  0  0  0  0
  3 11  1  0  0  0  0
  4  3  1  0  0  0  0
  5  4  2  0  0  0  0
  6  5  1  0  0  0  0
  6 12  1  0  0  0  0
  7  6  2  0  0  0  0
  8  9  2  0  0  0  0
  8  7  1  0  0  0  0
  9 10  1  0  0  0  0
 10  1  2  0  0  0  0
 10  5  1  0  0  0  0
 13  7  1  0  0  0  0
 14  8  1  0  0  0  0
 15  9  1  0  0  0  0
 16 15  1  0  0  0  0
 17 16  1  0  0  0  0
 18 16  1  0  0  0  0
 19 18  1  0  0  0  0
 20 18  1  0  0  0  0
 20 21  1  0  0  0  0
 21 23  1  0  0  0  0
 22 21  1  0  0  0  0
 23 24  1  0  0  0  0
 23 15  1  0  0  0  0
 25  1  1  0  0  0  0
 26 27  2  0  0  0  0
 26 31  1  0  0  0  0
 27 28  1  0  0  0  0
 28 29  2  0  0  0  0
 28 25  1  0  0  0  0
 29 33  1  0  0  0  0
 30 34  1  0  0  0  0
 30 29  1  0  0  0  0
 31 30  2  0  0  0  0
 32 27  1  0  0  0  0
 35 31  1  0  0  0  0
 36 41  1  0  0  0  0
 37 38  1  0  0  0  0
 37 36  2  0  0  0  0
 38 39  2  0  0  0  0
 39 40  1  0  0  0  0
 40 26  1  0  0  0  0
 41 40  2  0  0  0  0
 42 36  1  0  0  0  0
 43 37  1  0  0  0  0
 44 38  1  0  0  0  0
M  END
>  <minimizedAffinity>
-6.34807539

$$$$

 OpenBabel03242516273D

 44 48  0  0  0  0  0  0  0  0999 V2000
   36.2310   28.5770   39.9720 C   0  0  0  0  0  0  0  0  0  0  0  0
   35.9920   29.9100   39.8920 N   0  0  0  0  0  0  0  0  0  0  0  0
   36.3160   30.7900   40.8480 C   0  0  0  0  0  0  0  0  0  0  0  0
   36.9130   30.3040   41.9460 N   0  0  0  0  0  0  0  0  0  0  0  0
   37.1890   29.0070   42.1140 C   0  0  0  0  0  0  0  0  0  0  0  0
   37.8290   28.5170   43.2360 C   0  0  0  0  0  0  0  0  0  0  0  0
   38.1250   27.1910   43.3640 C   0  0  0  0  0  0  0  0  0  0  0  0
   37.7880   26.2940   42.3640 C   0  0  0  0  0  0  0  0  0  0  0  0
   37.1410   26.7660   41.2250 C   0  0  0  0  0  0  0  0  0  0  0  0
   36.8440   28.1170   41.1080 C   0  0  0  0  0  0  0  0  0  0  0  0
   36.1210   31.8500   40.7730 H   0  0  0  0  0  0  0  0  0  0  0  0
   38.0490   29.3000   43.9600 H   0  0  0  0  0  0  0  0  0  0  0  0
   38.6250   27.0080   44.3110 H   0  0  0  0  0  0  0  0  0  0  0  0
   38.1170   25.3430   42.6960 H   0  0  0  0  0  0  0  0  0  0  0  0
   36.9320   25.6950   40.2420 C   0  0  0  0  0  3  0  0  0  0  0  0
   38.3400   25.1830   39.7520 C   0  0  0  0  0  3  0  0  0  0  0  0
   38.7500   24.5630   40.5700 H   0  0  0  0  0  0  0  0  0  0  0  0
   38.1940   24.3840   38.4770 C   0  0  0  0  0  3  0  0  0  0  0  0
   39.1670   23.8880   38.3220 H   0  0  0  0  0  0  0  0  0  0  0  0
   37.1510   23.4980   38.6570 O   0  0  0  0  0  0  0  0  0  0  0  0
   36.9690   23.2030   39.9780 C   0  0  0  0  0  3  0  0  0  0  0  0
   36.1920   22.4150   40.0520 H   0  0  0  0  0  0  0  0  0  0  0  0
   36.4160   24.4020   40.7670 C   0  0  0  0  0  3  0  0  0  0  0  0
   35.3180   24.3140   40.6640 H   0  0  0  0  0  0  0  0  0  0  0  0
   35.8110   27.4570   38.7150 S   0  0  0  0  0  0  0  0  0  0  0  0
   32.7430   29.1060   36.7150 C   0  0  0  0  0  0  0  0  0  0  0  0
   33.5410   28.5330   37.6930 C   0  0  0  0  0  0  0  0  0  0  0  0
   34.8530   28.2220   37.4460 C   0  0  0  0  0  0  0  0  0  0  0  0
   35.4080   28.4790   36.2030 C   0  0  0  0  0  0  0  0  0  0  0  0
   34.6530   29.0410   35.2230 C   0  0  0  0  0  0  0  0  0  0  0  0
   33.3350   29.3420   35.5010 C   0  0  0  0  0  0  0  0  0  0  0  0
   33.1160   28.3300   38.6650 H   0  0  0  0  0  0  0  0  0  0  0  0
   36.4490   28.2440   35.9730 H   0  0  0  0  0  0  0  0  0  0  0  0
   35.0090   29.2750   34.2230 H   0  0  0  0  0  0  0  0  0  0  0  0
   32.7160   29.7940   34.7200 H   0  0  0  0  0  0  0  0  0  0  0  0
   29.8320   30.2530   38.5970 C   0  0  0  0  0  0  0  0  0  0  0  0
   28.7590   30.0710   37.6990 C   0  0  0  0  0  0  0  0  0  0  0  0
   29.0400   29.5510   36.4460 C   0  0  0  0  0  0  0  0  0  0  0  0
   30.3240   29.2270   36.1070 N   0  0  0  0  0  0  0  0  0  0  0  0
   31.3360   29.4210   37.0110 C   0  0  0  0  0  0  0  0  0  0  0  0
   31.0930   29.9320   38.2520 N   0  0  0  0  0  0  0  0  0  0  0  0
   29.5670   30.6630   39.5660 H   0  0  0  0  0  0  0  0  0  0  0  0
   27.7350   30.2940   37.8800 H   0  0  0  0  0  0  0  0  0  0  0  0
   28.3460   29.3470   35.6430 H   0  0  0  0  0  0  0  0  0  0  0  0
  1 10  1  0  0  0  0
  2  1  2  0  0  0  0
  2  3  1  0  0  0  0
  3  4  2  0  0  0  0
  4  5  1  0  0  0  0
  5  6  1  0  0  0  0
  6  7  2  0  0  0  0
  6 12  1  0  0  0  0
  7 13  1  0  0  0  0
  8 14  1  0  0  0  0
  8  7  1  0  0  0  0
  9  8  2  0  0  0  0
 10  9  1  0  0  0  0
 10  5  2  0  0  0  0
 11  3  1  0  0  0  0
 15 23  1  0  0  0  0
 15  9  1  0  0  0  0
 16 15  1  0  0  0  0
 16 17  1  0  0  0  0
 18 20  1  0  0  0  0
 18 16  1  0  0  0  0
 19 18  1  0  0  0  0
 20 21  1  0  0  0  0
 21 22  1  0  0  0  0
 21 23  1  0  0  0  0
 24 23  1  0  0  0  0
 25  1  1  0  0  0  0
 26 40  1  0  0  0  0
 26 27  1  0  0  0  0
 27 32  1  0  0  0  0
 28 27  2  0  0  0  0
 28 25  1  0  0  0  0
 29 28  1  0  0  0  0
 30 31  1  0  0  0  0
 30 29  2  0  0  0  0
 31 26  2  0  0  0  0
 33 29  1  0  0  0  0
 34 30  1  0  0  0  0
 35 31  1  0  0  0  0
 36 42  1  0  0  0  0
 37 43  1  0  0  0  0
 37 36  2  0  0  0  0
 38 37  1  0  0  0  0
 39 38  2  0  0  0  0
 39 40  1  0  0  0  0
 40 41  2  0  0  0  0
 41 36  1  0  0  0  0
 44 38  1  0  0  0  0
M  END
>  <minimizedAffinity>
-6.32325697

$$$$

 OpenBabel03242516273D

 44 48  0  0  0  0  0  0  0  0999 V2000
   35.5520   28.8190   39.0900 C   0  0  0  0  0  0  0  0  0  0  0  0
   34.7930   29.1970   38.0310 N   0  0  0  0  0  0  0  0  0  0  0  0
   34.4080   28.3720   37.0500 C   0  0  0  0  0  0  0  0  0  0  0  0
   34.8070   27.0940   37.1370 N   0  0  0  0  0  0  0  0  0  0  0  0
   35.5550   26.6300   38.1440 C   0  0  0  0  0  0  0  0  0  0  0  0
   35.9390   25.3070   38.2420 C   0  0  0  0  0  0  0  0  0  0  0  0
   36.6760   24.8570   39.2980 C   0  0  0  0  0  0  0  0  0  0  0  0
   37.0630   25.7230   40.3080 C   0  0  0  0  0  0  0  0  0  0  0  0
   36.6880   27.0610   40.2270 C   0  0  0  0  0  0  0  0  0  0  0  0
   35.9390   27.5070   39.1470 C   0  0  0  0  0  0  0  0  0  0  0  0
   33.8030   28.6840   36.2110 H   0  0  0  0  0  0  0  0  0  0  0  0
   35.5870   24.7120   37.4000 H   0  0  0  0  0  0  0  0  0  0  0  0
   36.8760   23.7940   39.1910 H   0  0  0  0  0  0  0  0  0  0  0  0
   37.6190   25.1430   40.9980 H   0  0  0  0  0  0  0  0  0  0  0  0
   37.1160   27.8110   41.4150 C   0  0  0  0  0  3  0  0  0  0  0  0
   36.7360   26.9780   42.6980 C   0  0  0  0  0  3  0  0  0  0  0  0
   37.4690   26.1530   42.7650 H   0  0  0  0  0  0  0  0  0  0  0  0
   36.7820   27.8550   43.9280 C   0  0  0  0  0  3  0  0  0  0  0  0
   36.7220   27.1680   44.7880 H   0  0  0  0  0  0  0  0  0  0  0  0
   37.9600   28.5740   43.8840 O   0  0  0  0  0  0  0  0  0  0  0  0
   38.9150   27.9230   43.1570 C   0  0  0  0  0  3  0  0  0  0  0  0
   39.8620   28.4930   43.2420 H   0  0  0  0  0  0  0  0  0  0  0  0
   38.5820   27.8990   41.6560 C   0  0  0  0  0  3  0  0  0  0  0  0
   39.0170   28.8370   41.2640 H   0  0  0  0  0  0  0  0  0  0  0  0
   36.0300   29.9070   40.3550 S   0  0  0  0  0  0  0  0  0  0  0  0
   39.3910   31.3110   38.6630 C   0  0  0  0  0  0  0  0  0  0  0  0
   38.3420   30.5000   39.0670 C   0  0  0  0  0  0  0  0  0  0  0  0
   37.3200   30.9940   39.8350 C   0  0  0  0  0  0  0  0  0  0  0  0
   37.3190   32.3240   40.2230 C   0  0  0  0  0  0  0  0  0  0  0  0
   38.3310   33.1450   39.8430 C   0  0  0  0  0  0  0  0  0  0  0  0
   39.3470   32.6200   39.0700 C   0  0  0  0  0  0  0  0  0  0  0  0
   38.3350   29.4620   38.7680 H   0  0  0  0  0  0  0  0  0  0  0  0
   36.5200   32.7480   40.8350 H   0  0  0  0  0  0  0  0  0  0  0  0
   38.4070   34.1970   40.1030 H   0  0  0  0  0  0  0  0  0  0  0  0
   40.1690   33.2710   38.7580 H   0  0  0  0  0  0  0  0  0  0  0  0
   42.4590   31.2000   36.6860 C   0  0  0  0  0  0  0  0  0  0  0  0
   42.5730   29.8420   36.3190 C   0  0  0  0  0  0  0  0  0  0  0  0
   41.5900   28.9670   36.7520 C   0  0  0  0  0  0  0  0  0  0  0  0
   40.5470   29.4220   37.5100 N   0  0  0  0  0  0  0  0  0  0  0  0
   40.4770   30.7490   37.8440 C   0  0  0  0  0  0  0  0  0  0  0  0
   41.4280   31.6360   37.4340 N   0  0  0  0  0  0  0  0  0  0  0  0
   43.2500   31.8500   36.3260 H   0  0  0  0  0  0  0  0  0  0  0  0
   43.3460   29.4050   35.7350 H   0  0  0  0  0  0  0  0  0  0  0  0
   41.5210   27.9040   36.5640 H   0  0  0  0  0  0  0  0  0  0  0  0
  1 10  1  0  0  0  0
  1 25  1  0  0  0  0
  2  1  2  0  0  0  0
  3  4  2  0  0  0  0
  3  2  1  0  0  0  0
  4  5  1  0  0  0  0
  5  6  2  0  0  0  0
  5 10  1  0  0  0  0
  6  7  1  0  0  0  0
  7  8  2  0  0  0  0
  8 14  1  0  0  0  0
  9  8  1  0  0  0  0
  9 15  1  0  0  0  0
 10  9  2  0  0  0  0
 11  3  1  0  0  0  0
 12  6  1  0  0  0  0
 13  7  1  0  0  0  0
 15 23  1  0  0  0  0
 15 16  1  0  0  0  0
 16 17  1  0  0  0  0
 16 18  1  0  0  0  0
 18 19  1  0  0  0  0
 20 18  1  0  0  0  0
 21 22  1  0  0  0  0
 21 20  1  0  0  0  0
 23 21  1  0  0  0  0
 24 23  1  0  0  0  0
 26 27  2  0  0  0  0
 26 31  1  0  0  0  0
 27 28  1  0  0  0  0
 28 29  2  0  0  0  0
 28 25  1  0  0  0  0
 29 33  1  0  0  0  0
 30 34  1  0  0  0  0
 30 29  1  0  0  0  0
 31 30  2  0  0  0  0
 32 27  1  0  0  0  0
 35 31  1  0  0  0  0
 36 41  1  0  0  0  0
 37 36  2  0  0  0  0
 37 38  1  0  0  0  0
 38 39  2  0  0  0  0
 39 40  1  0  0  0  0
 40 26  1  0  0  0  0
 41 40  2  0  0  0  0
 42 36  1  0  0  0  0
 43 37  1  0  0  0  0
 44 38  1  0  0  0  0
M  END
>  <minimizedAffinity>
-6.27570295

$$$$

 OpenBabel03242516273D

 44 48  0  0  0  0  0  0  0  0999 V2000
   37.1150   26.5950   38.2910 C   0  0  0  0  0  0  0  0  0  0  0  0
   36.6360   26.8840   37.0560 N   0  0  0  0  0  0  0  0  0  0  0  0
   35.7090   26.1560   36.4200 C   0  0  0  0  0  0  0  0  0  0  0  0
   35.2380   25.0760   37.0610 N   0  0  0  0  0  0  0  0  0  0  0  0
   35.6490   24.7140   38.2800 C   0  0  0  0  0  0  0  0  0  0  0  0
   35.1390   23.6170   38.9470 C   0  0  0  0  0  0  0  0  0  0  0  0
   35.5570   23.2900   40.2030 C   0  0  0  0  0  0  0  0  0  0  0  0
   36.5130   24.0560   40.8500 C   0  0  0  0  0  0  0  0  0  0  0  0
   37.0410   25.1660   40.1960 C   0  0  0  0  0  0  0  0  0  0  0  0
   36.6090   25.4870   38.9160 C   0  0  0  0  0  0  0  0  0  0  0  0
   35.3350   26.3960   35.4350 H   0  0  0  0  0  0  0  0  0  0  0  0
   34.3970   23.0820   38.3540 H   0  0  0  0  0  0  0  0  0  0  0  0
   35.0400   22.4000   40.5520 H   0  0  0  0  0  0  0  0  0  0  0  0
   36.6650   23.6030   41.7950 H   0  0  0  0  0  0  0  0  0  0  0  0
   37.9780   25.9010   41.0550 C   0  0  0  0  0  3  0  0  0  0  0  0
   37.2080   26.3750   42.3460 C   0  0  0  0  0  3  0  0  0  0  0  0
   37.0840   25.4800   42.9840 H   0  0  0  0  0  0  0  0  0  0  0  0
   37.9900   27.4530   43.0600 C   0  0  0  0  0  3  0  0  0  0  0  0
   37.5070   27.5730   44.0440 H   0  0  0  0  0  0  0  0  0  0  0  0
   39.3020   27.0310   43.1430 O   0  0  0  0  0  0  0  0  0  0  0  0
   39.3910   25.6690   43.1130 C   0  0  0  0  0  3  0  0  0  0  0  0
   40.4490   25.3880   43.2850 H   0  0  0  0  0  0  0  0  0  0  0  0
   39.0330   25.0970   41.7310 C   0  0  0  0  0  3  0  0  0  0  0  0
   39.9890   25.1050   41.1750 H   0  0  0  0  0  0  0  0  0  0  0  0
   38.3090   27.5610   39.0980 S   0  0  0  0  0  0  0  0  0  0  0  0
   38.0060   31.4770   39.9360 C   0  0  0  0  0  0  0  0  0  0  0  0
   38.4630   30.2350   39.5240 C   0  0  0  0  0  0  0  0  0  0  0  0
   37.6630   29.1240   39.6000 C   0  0  0  0  0  0  0  0  0  0  0  0
   36.3730   29.2270   40.0930 C   0  0  0  0  0  0  0  0  0  0  0  0
   35.8940   30.4300   40.5050 C   0  0  0  0  0  0  0  0  0  0  0  0
   36.7230   31.5310   40.4170 C   0  0  0  0  0  0  0  0  0  0  0  0
   39.4670   30.1460   39.1370 H   0  0  0  0  0  0  0  0  0  0  0  0
   35.7100   28.3630   40.1670 H   0  0  0  0  0  0  0  0  0  0  0  0
   34.8980   30.5980   40.9030 H   0  0  0  0  0  0  0  0  0  0  0  0
   36.3510   32.5050   40.7450 H   0  0  0  0  0  0  0  0  0  0  0  0
   39.2050   34.8880   40.4490 C   0  0  0  0  0  0  0  0  0  0  0  0
   40.4480   34.9110   39.7800 C   0  0  0  0  0  0  0  0  0  0  0  0
   40.8690   33.7510   39.1510 C   0  0  0  0  0  0  0  0  0  0  0  0
   40.0930   32.6260   39.1850 N   0  0  0  0  0  0  0  0  0  0  0  0
   38.8930   32.6480   39.8470 C   0  0  0  0  0  0  0  0  0  0  0  0
   38.4490   33.7740   40.4770 N   0  0  0  0  0  0  0  0  0  0  0  0
   38.9140   35.8170   40.9270 H   0  0  0  0  0  0  0  0  0  0  0  0
   41.1120   35.7370   39.7030 H   0  0  0  0  0  0  0  0  0  0  0  0
   41.7850   33.5930   38.5970 H   0  0  0  0  0  0  0  0  0  0  0  0
  1 10  1  0  0  0  0
  1 25  1  0  0  0  0
  2  1  2  0  0  0  0
  3  2  1  0  0  0  0
  3  4  2  0  0  0  0
  4  5  1  0  0  0  0
  5 10  2  0  0  0  0
  5  6  1  0  0  0  0
  6  7  2  0  0  0  0
  7 13  1  0  0  0  0
  7  8  1  0  0  0  0
  8 14  1  0  0  0  0
  9  8  2  0  0  0  0
  9 15  1  0  0  0  0
 10  9  1  0  0  0  0
 11  3  1  0  0  0  0
 12  6  1  0  0  0  0
 15 23  1  0  0  0  0
 15 16  1  0  0  0  0
 16 17  1  0  0  0  0
 16 18  1  0  0  0  0
 18 20  1  0  0  0  0
 18 19  1  0  0  0  0
 21 20  1  0  0  0  0
 21 22  1  0  0  0  0
 23 21  1  0  0  0  0
 24 23  1  0  0  0  0
 25 28  1  0  0  0  0
 26 31  1  0  0  0  0
 27 28  1  0  0  0  0
 27 26  2  0  0  0  0
 28 29  2  0  0  0  0
 29 33  1  0  0  0  0
 29 30  1  0  0  0  0
 30 34  1  0  0  0  0
 31 30  2  0  0  0  0
 31 35  1  0  0  0  0
 32 27  1  0  0  0  0
 36 41  1  0  0  0  0
 36 42  1  0  0  0  0
 37 36  2  0  0  0  0
 38 39  2  0  0  0  0
 38 37  1  0  0  0  0
 39 40  1  0  0  0  0
 40 26  1  0  0  0  0
 40 41  2  0  0  0  0
 43 37  1  0  0  0  0
 44 38  1  0  0  0  0
M  END
>  <minimizedAffinity>
-6.2646637

$$$$

 OpenBabel03242516273D

 44 48  0  0  0  0  0  0  0  0999 V2000
   36.8600   29.1730   41.3050 C   0  0  0  0  0  0  0  0  0  0  0  0
   35.5880   28.7520   41.0970 N   0  0  0  0  0  0  0  0  0  0  0  0
   34.8880   28.9970   39.9820 C   0  0  0  0  0  0  0  0  0  0  0  0
   35.5000   29.7060   39.0220 N   0  0  0  0  0  0  0  0  0  0  0  0
   36.7520   30.1620   39.1370 C   0  0  0  0  0  0  0  0  0  0  0  0
   37.3870   30.8670   38.1340 C   0  0  0  0  0  0  0  0  0  0  0  0
   38.6760   31.2920   38.2690 C   0  0  0  0  0  0  0  0  0  0  0  0
   39.3880   31.0260   39.4270 C   0  0  0  0  0  0  0  0  0  0  0  0
   38.7670   30.3180   40.4520 C   0  0  0  0  0  0  0  0  0  0  0  0
   37.4540   29.8920   40.3020 C   0  0  0  0  0  0  0  0  0  0  0  0
   33.8740   28.6560   39.8270 H   0  0  0  0  0  0  0  0  0  0  0  0
   36.7420   31.0250   37.2690 H   0  0  0  0  0  0  0  0  0  0  0  0
   38.9910   31.8260   37.3760 H   0  0  0  0  0  0  0  0  0  0  0  0
   40.3470   31.4550   39.2890 H   0  0  0  0  0  0  0  0  0  0  0  0
   39.6900   30.0610   41.5640 C   0  0  0  0  0  3  0  0  0  0  0  0
   41.0410   29.5010   40.9750 C   0  0  0  0  0  3  0  0  0  0  0  0
   41.5710   30.3640   40.5310 H   0  0  0  0  0  0  0  0  0  0  0  0
   41.8630   28.8540   42.0660 C   0  0  0  0  0  3  0  0  0  0  0  0
   42.8620   28.6880   41.6300 H   0  0  0  0  0  0  0  0  0  0  0  0
   41.8740   29.7130   43.1460 O   0  0  0  0  0  0  0  0  0  0  0  0
   41.6820   31.0080   42.7550 C   0  0  0  0  0  3  0  0  0  0  0  0
   41.8020   31.6580   43.6450 H   0  0  0  0  0  0  0  0  0  0  0  0
   40.2490   31.2550   42.2550 C   0  0  0  0  0  3  0  0  0  0  0  0
   39.6820   31.5160   43.1680 H   0  0  0  0  0  0  0  0  0  0  0  0
   37.7500   28.8330   42.7550 S   0  0  0  0  0  0  0  0  0  0  0  0
   38.2750   24.9380   41.9280 C   0  0  0  0  0  0  0  0  0  0  0  0
   37.8330   26.2520   41.9260 C   0  0  0  0  0  0  0  0  0  0  0  0
   38.3780   27.1840   42.7710 C   0  0  0  0  0  0  0  0  0  0  0  0
   39.3890   26.8240   43.6470 C   0  0  0  0  0  0  0  0  0  0  0  0
   39.8450   25.5450   43.6730 C   0  0  0  0  0  0  0  0  0  0  0  0
   39.2770   24.6280   42.8110 C   0  0  0  0  0  0  0  0  0  0  0  0
   37.0460   26.5410   41.2460 H   0  0  0  0  0  0  0  0  0  0  0  0
   39.8440   27.5410   44.3330 H   0  0  0  0  0  0  0  0  0  0  0  0
   40.6330   25.1800   44.3270 H   0  0  0  0  0  0  0  0  0  0  0  0
   39.6350   23.5940   42.8220 H   0  0  0  0  0  0  0  0  0  0  0  0
   35.7820   23.4210   39.7330 C   0  0  0  0  0  0  0  0  0  0  0  0
   36.4040   22.2340   39.2890 C   0  0  0  0  0  0  0  0  0  0  0  0
   37.6810   21.9580   39.7500 C   0  0  0  0  0  0  0  0  0  0  0  0
   38.3060   22.8180   40.6080 N   0  0  0  0  0  0  0  0  0  0  0  0
   37.6650   23.9600   41.0130 C   0  0  0  0  0  0  0  0  0  0  0  0
   36.4080   24.2620   40.5780 N   0  0  0  0  0  0  0  0  0  0  0  0
   34.7830   23.5980   39.3480 H   0  0  0  0  0  0  0  0  0  0  0  0
   35.9930   21.5120   38.6260 H   0  0  0  0  0  0  0  0  0  0  0  0
   38.2980   21.1010   39.5150 H   0  0  0  0  0  0  0  0  0  0  0  0
  1 25  1  0  0  0  0
  2  1  1  0  0  0  0
  3  2  2  0  0  0  0
  4  5  2  0  0  0  0
  4  3  1  0  0  0  0
  5 10  1  0  0  0  0
  6  7  2  0  0  0  0
  6  5  1  0  0  0  0
  7  8  1  0  0  0  0
  8  9  2  0  0  0  0
  9 15  1  0  0  0  0
 10  9  1  0  0  0  0
 10  1  2  0  0  0  0
 11  3  1  0  0  0  0
 12  6  1  0  0  0  0
 13  7  1  0  0  0  0
 14  8  1  0  0  0  0
 15 23  1  0  0  0  0
 16 15  1  0  0  0  0
 16 18  1  0  0  0  0
 17 16  1  0  0  0  0
 18 20  1  0  0  0  0
 19 18  1  0  0  0  0
 21 20  1  0  0  0  0
 21 22  1  0  0  0  0
 23 21  1  0  0  0  0
 23 24  1  0  0  0  0
 25 28  1  0  0  0  0
 26 31  1  0  0  0  0
 27 26  2  0  0  0  0
 27 28  1  0  0  0  0
 28 29  2  0  0  0  0
 29 30  1  0  0  0  0
 29 33  1  0  0  0  0
 30 34  1  0  0  0  0
 31 35  1  0  0  0  0
 31 30  2  0  0  0  0
 32 27  1  0  0  0  0
 36 41  1  0  0  0  0
 37 36  2  0  0  0  0
 37 38  1  0  0  0  0
 38 39  2  0  0  0  0
 39 40  1  0  0  0  0
 40 26  1  0  0  0  0
 41 40  2  0  0  0  0
 42 36  1  0  0  0  0
 43 37  1  0  0  0  0
 44 38  1  0  0  0  0
M  END
>  <minimizedAffinity>
-6.25268984

$$$$
