
 OpenBabel03252508573D

 25 26  0  0  0  0  0  0  0  0999 V2000
   46.2180   31.9990   45.7220 C   0  0  0  0  0  0  0  0  0  0  0  0
   45.4430   31.3950   45.2070 H   0  0  0  0  0  0  0  0  0  0  0  0
   47.1740   31.8620   45.1920 H   0  0  0  0  0  0  0  0  0  0  0  0
   46.3770   31.4870   47.1270 C   0  0  0  0  0  3  0  0  0  0  0  0
   46.1270   30.0250   47.2580 C   0  0  0  0  0  3  0  0  0  0  0  0
   47.0600   29.4260   47.3880 H   0  0  0  0  0  0  0  0  0  0  0  0
   45.1170   29.6500   48.2870 C   0  0  0  0  0  3  0  0  0  0  0  0
   45.3790   28.6190   48.6580 H   0  0  0  0  0  0  0  0  0  0  0  0
   44.9940   30.4340   49.3830 O   0  0  0  0  0  0  0  0  0  0  0  0
   45.4990   31.6940   49.3560 C   0  0  0  0  0  3  0  0  0  0  0  0
   44.8540   32.3570   50.0040 H   0  0  0  0  0  0  0  0  0  0  0  0
   45.3790   32.2780   47.9720 C   0  0  0  0  0  3  0  0  0  0  0  0
   45.6020   33.3480   47.9030 H   0  0  0  0  0  0  0  0  0  0  0  0
   45.8090   33.4690   45.6920 C   0  0  0  0  0  0  0  0  0  0  0  0
   44.7220   33.5730   45.7370 H   0  0  0  0  0  0  0  0  0  0  0  0
   46.2340   33.9830   46.5760 H   0  0  0  0  0  0  0  0  0  0  0  0
   45.9110   35.4910   42.5010 C   0  0  0  0  0  0  0  0  0  0  0  0
   45.4670   34.9540   43.7210 C   0  0  0  0  0  0  0  0  0  0  0  0
   46.2720   34.0400   44.4040 C   0  0  0  0  0  0  0  0  0  0  0  0
   47.4760   33.7160   43.8250 N   0  0  0  0  0  0  0  0  0  0  0  0
   47.8590   34.2490   42.6640 C   0  0  0  0  0  0  0  0  0  0  0  0
   47.1050   35.1260   41.9940 N   0  0  0  0  0  0  0  0  0  0  0  0
   45.2190   36.1860   42.0520 H   0  0  0  0  0  0  0  0  0  0  0  0
   44.5210   35.2280   44.1470 H   0  0  0  0  0  0  0  0  0  0  0  0
   48.8350   33.9080   42.3160 H   0  0  0  0  0  0  0  0  0  0  0  0
  1  4  1  0  0  0  0
  2  1  1  0  0  0  0
  3  1  1  0  0  0  0
  4  5  1  0  0  0  0
  4 12  1  0  0  0  0
  5  6  1  0  0  0  0
  5  7  1  0  0  0  0
  7  8  1  0  0  0  0
  7  9  1  0  0  0  0
 10  9  1  0  0  0  0
 10 11  1  0  0  0  0
 12 10  1  0  0  0  0
 13 12  1  0  0  0  0
 14  1  1  0  0  0  0
 14 15  1  0  0  0  0
 14 16  1  0  0  0  0
 17 18  1  0  0  0  0
 18 24  1  0  0  0  0
 18 19  2  0  0  0  0
 19 14  1  0  0  0  0
 20 19  1  0  0  0  0
 21 20  2  0  0  0  0
 22 17  2  0  0  0  0
 22 21  1  0  0  0  0
 23 17  1  0  0  0  0
 25 21  1  0  0  0  0
M  END
>  <minimizedAffinity>
-4.01313591

>  <minimizedRMSD>
7.71373272

$$$$
