
 OpenBabel03252508083D

 45 48  0  0  0  0  0  0  0  0999 V2000
   45.0540   35.4420   43.3610 C   0  0  0  0  0  0  0  0  0  0  0  0
   45.5010   34.1220   43.3980 C   0  0  0  0  0  0  0  0  0  0  0  0
   45.4960   33.4430   44.5920 C   0  0  0  0  0  0  0  0  0  0  0  0
   45.0370   34.1190   45.7040 N   0  0  0  0  0  0  0  0  0  0  0  0
   44.6120   35.3800   45.6570 C   0  0  0  0  0  0  0  0  0  0  0  0
   44.6270   36.0310   44.4740 N   0  0  0  0  0  0  0  0  0  0  0  0
   45.0400   36.0240   42.4310 H   0  0  0  0  0  0  0  0  0  0  0  0
   44.2610   35.8780   46.5450 H   0  0  0  0  0  0  0  0  0  0  0  0
   45.9150   32.1090   44.8020 C   0  0  0  0  0  0  0  0  0  0  0  0
   45.6380   31.0530   43.9290 C   0  0  0  0  0  0  0  0  0  0  0  0
   45.9840   29.7490   44.1630 C   0  0  0  0  0  0  0  0  0  0  0  0
   46.6470   29.4170   45.3200 C   0  0  0  0  0  0  0  0  0  0  0  0
   46.9390   30.4700   46.2170 C   0  0  0  0  0  0  0  0  0  0  0  0
   47.6000   30.1570   47.3830 C   0  0  0  0  0  0  0  0  0  0  0  0
   47.9170   31.1340   48.3030 C   0  0  0  0  0  0  0  0  0  0  0  0
   47.5590   32.4660   48.0400 C   0  0  0  0  0  0  0  0  0  0  0  0
   46.8830   32.7450   46.8390 C   0  0  0  0  0  0  0  0  0  0  0  0
   46.5800   31.7540   45.9480 C   0  0  0  0  0  0  0  0  0  0  0  0
   45.1130   31.2900   43.0050 H   0  0  0  0  0  0  0  0  0  0  0  0
   45.7310   28.9900   43.4310 H   0  0  0  0  0  0  0  0  0  0  0  0
   46.9260   28.4020   45.5210 H   0  0  0  0  0  0  0  0  0  0  0  0
   47.8660   29.1190   47.5610 H   0  0  0  0  0  0  0  0  0  0  0  0
   48.4350   30.8220   49.2010 H   0  0  0  0  0  0  0  0  0  0  0  0
   47.8480   33.1570   48.8120 H   0  0  0  0  0  0  0  0  0  0  0  0
   46.7210   33.8020   46.8130 H   0  0  0  0  0  0  0  0  0  0  0  0
   45.9220   33.5750   42.2270 O   0  0  0  0  0  0  0  0  0  0  0  0
   48.2400   32.6080   41.4980 O   0  0  0  0  0  0  0  0  0  0  0  0
   47.4360   33.8560   41.5160 P   0  0  1  0  0  0  0  0  0  0  0  0
   47.2610   34.3770   39.9260 O   0  0  0  0  0  0  0  0  0  0  0  0
   47.8330   33.5630   38.9850 C   0  0  0  0  0  0  0  0  0  0  0  0
   46.9170   32.4800   38.4520 C   0  0  0  0  0  0  0  0  0  0  0  0
   46.1770   32.1450   39.1760 H   0  0  0  0  0  0  0  0  0  0  0  0
   46.2990   33.0550   37.1940 C   0  0  0  0  0  0  0  0  0  0  0  0
   45.3940   32.4930   36.8850 H   0  0  0  0  0  0  0  0  0  0  0  0
   47.2750   33.0470   36.2020 O   0  0  0  0  0  0  0  0  0  0  0  0
   48.5340   33.3460   36.6830 C   0  0  0  0  0  0  0  0  0  0  0  0
   49.0030   32.3990   37.0150 H   0  0  0  0  0  0  0  0  0  0  0  0
   48.5020   34.3200   37.8610 C   0  0  0  0  0  0  0  0  0  0  0  0
   47.9770   35.2520   37.5920 H   0  0  0  0  0  0  0  0  0  0  0  0
   48.2070   35.0630   42.3940 O   0  0  0  0  0  0  0  0  0  0  0  0
   49.5030   35.5210   42.2140 C   0  0  0  0  0  0  0  0  0  0  0  0
   49.3840   36.5270   41.4910 O   0  0  0  0  0  0  0  0  0  0  0  0
   50.4450   34.6820   42.9100 N   0  0  0  0  0  0  0  0  0  0  0  0
   51.1360   34.0190   42.5470 H   0  0  0  0  0  0  0  0  0  0  0  0
   50.3940   34.7900   43.9470 H   0  0  0  0  0  0  0  0  0  0  0  0
  1  2  2  0  0  0  0
  1  6  1  0  0  0  0
  2  3  1  0  0  0  0
  3  9  1  0  0  0  0
  3  4  2  0  0  0  0
  5  4  1  0  0  0  0
  5  8  1  0  0  0  0
  6  5  2  0  0  0  0
  7  1  1  0  0  0  0
  9 18  1  0  0  0  0
 10 11  1  0  0  0  0
 10  9  2  0  0  0  0
 11 12  2  0  0  0  0
 12 21  1  0  0  0  0
 12 13  1  0  0  0  0
 13 14  1  0  0  0  0
 14 22  1  0  0  0  0
 14 15  2  0  0  0  0
 15 23  1  0  0  0  0
 16 15  1  0  0  0  0
 16 24  1  0  0  0  0
 17 16  2  0  0  0  0
 18 13  2  0  0  0  0
 18 17  1  0  0  0  0
 19 10  1  0  0  0  0
 20 11  1  0  0  0  0
 25 17  1  0  0  0  0
 26  2  1  0  0  0  0
 28 27  2  1  0  0  0
 28 26  1  0  0  0  0
 28 40  1  0  0  0  0
 29 28  1  0  0  0  0
 30 29  1  0  0  0  0
 31 30  1  0  0  0  0
 31 32  1  0  0  0  0
 33 31  1  0  0  0  0
 34 33  1  0  0  0  0
 35 36  1  0  0  0  0
 35 33  1  0  0  0  0
 36 37  1  0  0  0  0
 36 38  1  0  0  0  0
 38 30  1  0  0  0  0
 39 38  1  0  0  0  0
 41 40  1  0  0  0  0
 41 43  1  0  0  0  0
 42 41  2  0  0  0  0
 43 45  1  0  0  0  0
 44 43  1  0  0  0  0
M  END
>  <minimizedAffinity>
-6.51780128

>  <minimizedRMSD>
0.916531682

$$$$
