
 OpenBabel03252507533D

 39 42  0  0  1  0  0  0  0  0999 V2000
   43.6940   34.0620   39.2400 C   0  0  2  0  0  0  0  0  0  0  0  0
   44.1800   32.6500   39.0650 C   0  0  0  0  0  0  0  0  0  0  0  0
   45.3830   32.7040   40.0140 C   0  0  0  0  0  0  0  0  0  0  0  0
   44.9730   33.6390   41.1270 C   0  0  1  0  0  0  0  0  0  0  0  0
   43.6250   34.1340   40.7660 C   0  0  0  0  0  0  0  0  0  0  0  0
   44.4400   34.7130   38.7940 H   0  0  0  0  0  0  0  0  0  0  0  0
   44.5760   32.5300   38.0290 H   0  0  0  0  0  0  0  0  0  0  0  0
   43.4430   31.8930   39.3510 H   0  0  0  0  0  0  0  0  0  0  0  0
   46.3120   32.9710   39.5050 H   0  0  0  0  0  0  0  0  0  0  0  0
   45.4370   31.6680   40.4420 H   0  0  0  0  0  0  0  0  0  0  0  0
   45.6710   34.4810   41.1390 H   0  0  0  0  0  0  0  0  0  0  0  0
   42.7670   33.4770   40.9170 H   0  0  0  0  0  0  0  0  0  0  0  0
   43.4240   35.2030   40.9610 H   0  0  0  0  0  0  0  0  0  0  0  0
   40.7280   35.7130   37.6000 C   0  0  0  0  0  0  0  0  0  0  0  0
   42.0390   35.5930   38.1270 C   0  0  0  0  0  0  0  0  0  0  0  0
   42.3490   34.3090   38.6450 C   0  0  0  0  0  0  0  0  0  0  0  0
   41.4280   33.2660   38.6280 N   0  0  0  0  0  0  0  0  0  0  0  0
   40.2030   33.4950   38.0970 C   0  0  0  0  0  0  0  0  0  0  0  0
   39.8630   34.7000   37.5930 N   0  0  0  0  0  0  0  0  0  0  0  0
   40.4730   36.6850   37.2000 H   0  0  0  0  0  0  0  0  0  0  0  0
   42.7790   36.3520   38.1650 H   0  0  0  0  0  0  0  0  0  0  0  0
   39.6030   32.6010   38.1530 H   0  0  0  0  0  0  0  0  0  0  0  0
   44.8460   32.9470   42.4530 C   0  0  2  0  0  0  0  0  0  0  0  0
   45.4310   31.6360   42.6150 C   0  0  0  0  0  0  0  0  0  0  0  0
   43.9350   31.8820   42.7570 C   0  0  2  0  0  0  0  0  0  0  0  0
   45.0690   33.7060   43.2340 H   0  0  0  0  0  0  0  0  0  0  0  0
   45.5980   30.7740   42.0050 H   0  0  0  0  0  0  0  0  0  0  0  0
   45.9410   31.4380   43.6150 H   0  0  0  0  0  0  0  0  0  0  0  0
   43.5080   31.8890   43.8090 H   0  0  0  0  0  0  0  0  0  0  0  0
   42.9780   31.2170   41.8240 C   0  0  0  0  0  3  0  0  0  0  0  0
   41.5580   31.6830   41.9080 C   0  0  0  0  0  3  0  0  0  0  0  0
   41.3280   32.2670   40.9920 H   0  0  0  0  0  0  0  0  0  0  0  0
   40.6520   30.4490   41.8020 C   0  0  0  0  0  3  0  0  0  0  0  0
   40.8200   29.9460   40.8290 H   0  0  0  0  0  0  0  0  0  0  0  0
   40.7970   29.5760   42.8500 O   0  0  0  0  0  0  0  0  0  0  0  0
   42.1080   29.4680   43.2870 C   0  0  0  0  0  3  0  0  0  0  0  0
   42.2490   30.2550   44.0410 H   0  0  0  0  0  0  0  0  0  0  0  0
   42.9830   29.7180   42.0690 C   0  0  0  0  0  3  0  0  0  0  0  0
   42.6600   29.1470   41.2010 H   0  0  0  0  0  0  0  0  0  0  0  0
  1  6  1  6  0  0  0
  1  5  1  0  0  0  0
  2  1  1  0  0  0  0
  2  8  1  0  0  0  0
  2  3  1  0  0  0  0
  3 10  1  0  0  0  0
  3  4  1  0  0  0  0
  4 11  1  1  0  0  0
  4 23  1  0  0  0  0
  5 12  1  0  0  0  0
  5 13  1  0  0  0  0
  5  4  1  0  0  0  0
  7  2  1  0  0  0  0
  9  3  1  0  0  0  0
 14 15  1  0  0  0  0
 15 21  1  0  0  0  0
 15 16  2  0  0  0  0
 16  1  1  0  0  0  0
 17 16  1  0  0  0  0
 18 22  1  0  0  0  0
 18 17  2  0  0  0  0
 19 14  2  0  0  0  0
 19 18  1  0  0  0  0
 20 14  1  0  0  0  0
 23 24  1  0  0  0  0
 23 25  1  0  0  0  0
 23 26  1  1  0  0  0
 24 25  1  0  0  0  0
 24 28  1  0  0  0  0
 25 29  1  1  0  0  0
 27 24  1  0  0  0  0
 30 31  1  0  0  0  0
 30 38  1  0  0  0  0
 30 25  1  0  0  0  0
 32 31  1  0  0  0  0
 33 31  1  0  0  0  0
 33 35  1  0  0  0  0
 34 33  1  0  0  0  0
 35 36  1  0  0  0  0
 36 37  1  0  0  0  0
 38 36  1  0  0  0  0
 39 38  1  0  0  0  0
M  END
>  <minimizedAffinity>
-3.55930972

>  <minimizedRMSD>
7.79567862

$$$$
