
 OpenBabel03252507203D

 45 48  0  0  1  0  0  0  0  0999 V2000
   47.0170   31.7780   45.0560 C   0  0  0  0  0  0  0  0  0  0  0  0
   46.9610   32.3570   46.1990 O   0  0  0  0  0  0  0  0  0  0  0  0
   47.7720   32.3180   43.9730 N   0  0  0  0  0  0  0  0  0  0  0  0
   48.6850   31.6420   43.0400 C   0  0  0  0  0  0  0  0  0  0  0  0
   48.2790   31.9700   41.6060 C   0  0  0  0  0  0  0  0  0  0  0  0
   48.4860   33.4550   41.3670 C   0  0  0  0  0  0  0  0  0  0  0  0
   48.6560   34.1520   42.6660 C   0  0  0  0  0  0  0  0  0  0  0  0
   47.6670   33.7220   43.7190 C   0  0  1  0  0  0  0  0  0  0  0  0
   48.4100   30.5520   43.1410 H   0  0  0  0  0  0  0  0  0  0  0  0
   49.7310   31.8140   43.2630 H   0  0  0  0  0  0  0  0  0  0  0  0
   47.1990   31.7010   41.5380 H   0  0  0  0  0  0  0  0  0  0  0  0
   48.8960   31.3270   40.9560 H   0  0  0  0  0  0  0  0  0  0  0  0
   47.7800   33.8720   40.6560 H   0  0  0  0  0  0  0  0  0  0  0  0
   49.4850   33.4990   40.8420 H   0  0  0  0  0  0  0  0  0  0  0  0
   48.7150   35.2370   42.6180 H   0  0  0  0  0  0  0  0  0  0  0  0
   49.6610   33.8290   43.0740 H   0  0  0  0  0  0  0  0  0  0  0  0
   48.0210   34.2190   44.6490 H   0  0  0  0  0  0  0  0  0  0  0  0
   46.2960   34.2570   43.4510 C   0  0  0  0  0  3  0  0  0  0  0  0
   45.5300   34.7770   44.6310 C   0  0  0  0  0  3  0  0  0  0  0  0
   46.2380   35.4590   45.1760 H   0  0  0  0  0  0  0  0  0  0  0  0
   44.4230   35.7380   44.1730 C   0  0  0  0  0  3  0  0  0  0  0  0
   44.8340   36.7280   43.9840 H   0  0  0  0  0  0  0  0  0  0  0  0
   43.8470   35.2020   43.0420 O   0  0  0  0  0  0  0  0  0  0  0  0
   44.6880   35.2880   41.9370 C   0  0  0  0  0  3  0  0  0  0  0  0
   44.5240   34.3420   41.3530 H   0  0  0  0  0  0  0  0  0  0  0  0
   46.1720   35.2470   42.3460 C   0  0  0  0  0  3  0  0  0  0  0  0
   46.4110   36.2890   42.6320 H   0  0  0  0  0  0  0  0  0  0  0  0
   45.1500   30.5720   44.0670 C   0  0  0  0  0  0  0  0  0  0  0  0
   46.2980   30.5510   44.8650 C   0  0  0  0  0  0  0  0  0  0  0  0
   46.7000   29.3700   45.4440 C   0  0  0  0  0  0  0  0  0  0  0  0
   45.9670   28.2660   45.2200 N   0  0  0  0  0  0  0  0  0  0  0  0
   44.8480   28.2750   44.4460 C   0  0  0  0  0  0  0  0  0  0  0  0
   44.4660   29.4260   43.8880 N   0  0  0  0  0  0  0  0  0  0  0  0
   44.7560   31.4450   43.5680 H   0  0  0  0  0  0  0  0  0  0  0  0
   44.2670   27.3570   44.2800 H   0  0  0  0  0  0  0  0  0  0  0  0
   47.8920   29.3630   46.2660 C   0  0  0  0  0  0  0  0  0  0  0  0
   49.1180   29.1110   45.7040 C   0  0  0  0  0  0  0  0  0  0  0  0
   50.2370   29.1110   46.5070 C   0  0  0  0  0  0  0  0  0  0  0  0
   50.1920   29.3550   47.8660 C   0  0  0  0  0  0  0  0  0  0  0  0
   48.9330   29.6010   48.3730 C   0  0  0  0  0  0  0  0  0  0  0  0
   47.8600   29.5970   47.5830 N   0  0  0  0  0  0  0  0  0  0  0  0
   49.3070   28.9060   44.6830 H   0  0  0  0  0  0  0  0  0  0  0  0
   51.2390   28.9160   46.1040 H   0  0  0  0  0  0  0  0  0  0  0  0
   51.0540   29.3620   48.5190 H   0  0  0  0  0  0  0  0  0  0  0  0
   48.7900   29.8050   49.4410 H   0  0  0  0  0  0  0  0  0  0  0  0
  1  2  2  0  0  0  0
  3  1  1  0  0  0  0
  4  9  1  0  0  0  0
  4 10  1  0  0  0  0
  4  3  1  0  0  0  0
  5  4  1  0  0  0  0
  6  5  1  0  0  0  0
  6  7  1  0  0  0  0
  7 16  1  0  0  0  0
  7  8  1  0  0  0  0
  8  3  1  0  0  0  0
  8 17  1  1  0  0  0
 11  5  1  0  0  0  0
 12  5  1  0  0  0  0
 13  6  1  0  0  0  0
 14  6  1  0  0  0  0
 15  7  1  0  0  0  0
 18  8  1  0  0  0  0
 18 19  1  0  0  0  0
 19 20  1  0  0  0  0
 21 19  1  0  0  0  0
 22 21  1  0  0  0  0
 23 21  1  0  0  0  0
 24 26  1  0  0  0  0
 24 23  1  0  0  0  0
 25 24  1  0  0  0  0
 26 27  1  0  0  0  0
 26 18  1  0  0  0  0
 28 29  1  0  0  0  0
 29  1  1  0  0  0  0
 29 30  2  0  0  0  0
 30 36  1  0  0  0  0
 31 30  1  0  0  0  0
 32 31  2  0  0  0  0
 33 28  2  0  0  0  0
 33 32  1  0  0  0  0
 34 28  1  0  0  0  0
 35 32  1  0  0  0  0
 36 41  1  0  0  0  0
 37 36  2  0  0  0  0
 37 38  1  0  0  0  0
 38 39  2  0  0  0  0
 39 40  1  0  0  0  0
 39 44  1  0  0  0  0
 40 45  1  0  0  0  0
 41 40  2  0  0  0  0
 42 37  1  0  0  0  0
 43 38  1  0  0  0  0
M  END
>  <minimizedAffinity>
-4.71575737

>  <minimizedRMSD>
4.74637318

$$$$
