
 OpenBabel03252506283D

 48 52  0  0  0  0  0  0  0  0999 V2000
   46.4650   32.8610   45.8200 C   0  0  0  0  0  0  0  0  0  0  0  0
   47.3910   31.8390   45.5710 C   0  0  0  0  0  0  0  0  0  0  0  0
   47.4970   31.0630   46.6670 C   0  0  0  0  0  0  0  0  0  0  0  0
   46.6690   31.5790   47.5670 N   0  0  0  0  0  0  0  0  0  0  0  0
   46.0390   32.6570   47.0860 N   0  0  0  0  0  0  0  0  0  0  0  0
   47.9010   31.7560   44.6120 H   0  0  0  0  0  0  0  0  0  0  0  0
   48.1310   30.1930   46.7840 H   0  0  0  0  0  0  0  0  0  0  0  0
   44.6850   35.6780   44.3080 C   0  0  0  0  0  0  0  0  0  0  0  0
   45.3650   35.8610   43.0940 C   0  0  0  0  0  0  0  0  0  0  0  0
   46.4440   34.9910   42.8160 C   0  0  0  0  0  0  0  0  0  0  0  0
   46.7140   34.0720   43.7460 N   0  0  0  0  0  0  0  0  0  0  0  0
   46.0720   33.9040   44.8870 C   0  0  0  0  0  0  0  0  0  0  0  0
   45.0520   34.7190   45.1590 N   0  0  0  0  0  0  0  0  0  0  0  0
   43.8490   36.3510   44.5260 H   0  0  0  0  0  0  0  0  0  0  0  0
   45.0590   36.6400   42.4130 H   0  0  0  0  0  0  0  0  0  0  0  0
   47.1750   35.1690   41.5280 C   0  0  0  0  0  0  0  0  0  0  0  0
   47.0790   33.9620   40.6340 C   0  0  0  0  0  0  0  0  0  0  0  0
   46.0640   33.5290   40.7270 H   0  0  0  0  0  0  0  0  0  0  0  0
   48.0870   32.8950   40.9110 C   0  0  0  0  0  0  0  0  0  0  0  0
   48.0920   32.2100   40.0380 H   0  0  0  0  0  0  0  0  0  0  0  0
   49.3770   33.4050   41.0370 O   0  0  0  0  0  0  0  0  0  0  0  0
   49.3710   34.2860   42.1420 C   0  0  0  0  0  0  0  0  0  0  0  0
   50.4290   34.5140   42.4100 H   0  0  0  0  0  0  0  0  0  0  0  0
   48.6250   35.5230   41.7080 C   0  0  0  0  0  0  0  0  0  0  0  0
   48.7780   36.3350   42.4480 H   0  0  0  0  0  0  0  0  0  0  0  0
   46.4480   31.0700   48.9160 C   0  0  0  0  0  0  0  0  0  0  0  0
   46.5510   31.8760   49.6610 H   0  0  0  0  0  0  0  0  0  0  0  0
   47.1870   30.2990   49.1520 H   0  0  0  0  0  0  0  0  0  0  0  0
   45.0870   30.4840   49.0360 C   0  0  0  0  0  0  0  0  0  0  0  0
   44.3420   31.2750   48.7820 H   0  0  0  0  0  0  0  0  0  0  0  0
   44.9110   30.2870   50.1320 H   0  0  0  0  0  0  0  0  0  0  0  0
   44.9070   27.9420   48.7960 C   0  0  0  0  0  0  0  0  0  0  0  0
   44.8300   29.2400   48.3410 C   0  0  0  0  0  0  0  0  0  0  0  0
   44.4480   29.3930   47.0070 C   0  0  0  0  0  0  0  0  0  0  0  0
   44.1670   28.3270   46.2010 C   0  0  0  0  0  0  0  0  0  0  0  0
   43.7860   28.1700   44.9210 N   0  0  0  0  0  0  0  0  0  0  0  0
   43.6370   26.8850   44.5960 C   0  0  0  0  0  0  0  0  0  0  0  0
   43.9300   26.1140   45.7150 C   0  0  0  0  0  0  0  0  0  0  0  0
   44.2490   27.0440   46.6730 C   0  0  0  0  0  0  0  0  0  0  0  0
   44.6280   26.8720   47.9940 C   0  0  0  0  0  0  0  0  0  0  0  0
   45.2090   27.8630   49.8410 H   0  0  0  0  0  0  0  0  0  0  0  0
   44.3470   30.3640   46.5180 H   0  0  0  0  0  0  0  0  0  0  0  0
   43.6150   28.9480   44.2190 H   0  0  0  0  0  0  0  0  0  0  0  0
   43.3370   26.4670   43.6330 H   0  0  0  0  0  0  0  0  0  0  0  0
   43.8990   25.0330   45.7680 H   0  0  0  0  0  0  0  0  0  0  0  0
   44.7290   25.5220   48.5390 C   0  0  0  0  0  0  0  0  0  0  0  0
   45.1110   25.3360   49.7220 O   0  0  0  0  0  0  0  0  0  0  0  0
   44.4770   24.6550   47.9360 H   0  0  0  0  0  0  0  0  0  0  0  0
  1  5  2  0  0  0  0
  2  1  1  0  0  0  0
  2  3  2  0  0  0  0
  3  7  1  0  0  0  0
  3  4  1  0  0  0  0
  4 26  1  0  0  0  0
  5  4  1  0  0  0  0
  6  2  1  0  0  0  0
  8 14  1  0  0  0  0
  8 13  1  0  0  0  0
  9  8  2  0  0  0  0
 10  9  1  0  0  0  0
 10 11  2  0  0  0  0
 11 12  1  0  0  0  0
 12 13  2  0  0  0  0
 12  1  1  0  0  0  0
 15  9  1  0  0  0  0
 16 24  1  0  0  0  0
 16 10  1  0  0  0  0
 17 18  1  0  0  0  0
 17 19  1  0  0  0  0
 17 16  1  0  0  0  0
 19 21  1  0  0  0  0
 20 19  1  0  0  0  0
 21 22  1  0  0  0  0
 22 23  1  0  0  0  0
 24 22  1  0  0  0  0
 24 25  1  0  0  0  0
 26 29  1  0  0  0  0
 26 28  1  0  0  0  0
 26 27  1  0  0  0  0
 29 31  1  0  0  0  0
 30 29  1  0  0  0  0
 32 41  1  0  0  0  0
 33 32  1  0  0  0  0
 33 29  1  0  0  0  0
 34 33  2  0  0  0  0
 35 39  2  0  0  0  0
 35 34  1  0  0  0  0
 36 35  1  0  0  0  0
 37 36  1  0  0  0  0
 37 38  2  0  0  0  0
 38 45  1  0  0  0  0
 38 39  1  0  0  0  0
 39 40  1  0  0  0  0
 40 46  1  0  0  0  0
 40 32  2  0  0  0  0
 42 34  1  0  0  0  0
 43 36  1  0  0  0  0
 44 37  1  0  0  0  0
 46 47  2  0  0  0  0
 48 46  1  0  0  0  0
M  END
>  <minimizedAffinity>
-6.24482346

>  <minimizedRMSD>
1.30680656

$$$$
