
 OpenBabel03252506583D

 39 43  0  0  0  0  0  0  0  0999 V2000
   36.5720   30.5140   38.6410 C   0  0  0  0  0  0  0  0  0  0  0  0
   35.6660   29.4720   38.7020 C   0  0  0  0  0  0  0  0  0  0  0  0
   35.5100   28.6670   39.8250 C   0  0  0  0  0  0  0  0  0  0  0  0
   36.2820   28.8950   40.9540 C   0  0  0  0  0  0  0  0  0  0  0  0
   36.4030   28.3390   42.1840 N   0  0  0  0  0  0  0  0  0  0  0  0
   37.3580   29.0170   42.8720 C   0  0  0  0  0  0  0  0  0  0  0  0
   37.8220   29.9930   42.0550 N   0  0  0  0  0  0  0  0  0  0  0  0
   37.1820   29.9440   40.8700 C   0  0  0  0  0  0  0  0  0  0  0  0
   37.3570   30.7540   39.7730 C   0  0  0  0  0  0  0  0  0  0  0  0
   36.6810   31.1300   37.7600 H   0  0  0  0  0  0  0  0  0  0  0  0
   34.8030   27.8510   39.8770 H   0  0  0  0  0  0  0  0  0  0  0  0
   35.8320   27.5170   42.5170 H   0  0  0  0  0  0  0  0  0  0  0  0
   37.6910   28.8190   43.8860 H   0  0  0  0  0  0  0  0  0  0  0  0
   32.7260   28.7680   36.5980 C   0  0  0  0  0  0  0  0  0  0  0  0
   33.2830   28.6500   35.3300 C   0  0  0  0  0  0  0  0  0  0  0  0
   34.6750   28.8120   35.1960 C   0  0  0  0  0  0  0  0  0  0  0  0
   35.4090   29.0780   36.3170 N   0  0  0  0  0  0  0  0  0  0  0  0
   34.8260   29.1860   37.5420 C   0  0  0  0  0  0  0  0  0  0  0  0
   33.5020   29.0350   37.6810 N   0  0  0  0  0  0  0  0  0  0  0  0
   31.6580   28.6410   36.6750 H   0  0  0  0  0  0  0  0  0  0  0  0
   32.6410   28.4380   34.4860 H   0  0  0  0  0  0  0  0  0  0  0  0
   35.1320   28.7260   34.2320 H   0  0  0  0  0  0  0  0  0  0  0  0
   38.3440   31.8390   39.7990 C   0  0  0  0  0  0  0  0  0  0  0  0
   38.0710   33.1170   40.2870 C   0  0  0  0  0  0  0  0  0  0  0  0
   39.2900   33.7870   40.1080 C   0  0  0  0  0  0  0  0  0  0  0  0
   40.2010   32.9000   39.5390 C   0  0  0  0  0  0  0  0  0  0  0  0
   39.5690   31.7440   39.3780 O   0  0  0  0  0  0  0  0  0  0  0  0
   37.1800   33.5450   40.7050 H   0  0  0  0  0  0  0  0  0  0  0  0
   39.5370   34.8200   40.3530 H   0  0  0  0  0  0  0  0  0  0  0  0
   41.6070   33.1110   39.1560 C   0  0  0  0  0  3  0  0  0  0  0  0
   41.7530   33.5550   37.7380 C   0  0  0  0  0  3  0  0  0  0  0  0
   40.9020   34.1680   37.3780 H   0  0  0  0  0  0  0  0  0  0  0  0
   43.0620   34.3470   37.6580 C   0  0  0  0  0  3  0  0  0  0  0  0
   42.9540   35.3460   38.1370 H   0  0  0  0  0  0  0  0  0  0  0  0
   43.9690   33.6360   38.4470 O   0  0  0  0  0  0  0  0  0  0  0  0
   43.7690   33.9880   39.7980 C   0  0  0  0  0  3  0  0  0  0  0  0
   44.2030   33.1970   40.4490 H   0  0  0  0  0  0  0  0  0  0  0  0
   42.2830   34.1560   40.0330 C   0  0  0  0  0  3  0  0  0  0  0  0
   42.0960   33.8340   41.0940 H   0  0  0  0  0  0  0  0  0  0  0  0
  1  2  2  0  0  0  0
  1  9  1  0  0  0  0
  2  3  1  0  0  0  0
  3 11  1  0  0  0  0
  3  4  2  0  0  0  0
  4  5  1  0  0  0  0
  5 12  1  0  0  0  0
  5  6  1  0  0  0  0
  6 13  1  0  0  0  0
  7  6  2  0  0  0  0
  8  4  1  0  0  0  0
  8  7  1  0  0  0  0
  9 23  1  0  0  0  0
  9  8  2  0  0  0  0
 10  1  1  0  0  0  0
 14 20  1  0  0  0  0
 14 19  1  0  0  0  0
 15 14  2  0  0  0  0
 16 15  1  0  0  0  0
 16 17  2  0  0  0  0
 17 18  1  0  0  0  0
 18 19  2  0  0  0  0
 18  2  1  0  0  0  0
 21 15  1  0  0  0  0
 22 16  1  0  0  0  0
 23 24  2  0  0  0  0
 24 28  1  0  0  0  0
 25 24  1  0  0  0  0
 25 29  1  0  0  0  0
 26 25  2  0  0  0  0
 27 26  1  0  0  0  0
 27 23  1  0  0  0  0
 30 26  1  0  0  0  0
 30 38  1  0  0  0  0
 31 30  1  0  0  0  0
 32 31  1  0  0  0  0
 33 31  1  0  0  0  0
 33 34  1  0  0  0  0
 33 35  1  0  0  0  0
 35 36  1  0  0  0  0
 36 38  1  0  0  0  0
 36 37  1  0  0  0  0
 38 39  1  0  0  0  0
M  END
>  <minimizedAffinity>
-6.16452312

$$$$

 OpenBabel03252506583D

 39 43  0  0  0  0  0  0  0  0999 V2000
   40.6000   30.5130   41.5760 C   0  0  0  0  0  0  0  0  0  0  0  0
   40.5270   31.8240   41.1420 C   0  0  0  0  0  0  0  0  0  0  0  0
   39.3300   32.4450   40.8050 C   0  0  0  0  0  0  0  0  0  0  0  0
   38.1360   31.7470   40.8980 C   0  0  0  0  0  0  0  0  0  0  0  0
   36.8270   32.0130   40.6650 N   0  0  0  0  0  0  0  0  0  0  0  0
   36.1040   30.8980   40.9460 C   0  0  0  0  0  0  0  0  0  0  0  0
   36.9780   29.9460   41.3540 N   0  0  0  0  0  0  0  0  0  0  0  0
   38.2340   30.4360   41.3350 C   0  0  0  0  0  0  0  0  0  0  0  0
   39.4030   29.7980   41.6740 C   0  0  0  0  0  0  0  0  0  0  0  0
   41.5380   30.0440   41.8340 H   0  0  0  0  0  0  0  0  0  0  0  0
   39.2690   33.4690   40.4650 H   0  0  0  0  0  0  0  0  0  0  0  0
   36.4680   32.9430   40.3210 H   0  0  0  0  0  0  0  0  0  0  0  0
   35.0270   30.7840   40.8610 H   0  0  0  0  0  0  0  0  0  0  0  0
   43.1670   34.0120   39.7980 C   0  0  0  0  0  0  0  0  0  0  0  0
   44.0760   34.0700   40.8490 C   0  0  0  0  0  0  0  0  0  0  0  0
   43.7810   33.3530   42.0250 C   0  0  0  0  0  0  0  0  0  0  0  0
   42.6180   32.6380   42.0760 N   0  0  0  0  0  0  0  0  0  0  0  0
   41.7540   32.6070   41.0250 C   0  0  0  0  0  0  0  0  0  0  0  0
   42.0230   33.2850   39.9020 N   0  0  0  0  0  0  0  0  0  0  0  0
   43.4140   34.5690   38.9090 H   0  0  0  0  0  0  0  0  0  0  0  0
   44.9770   34.6570   40.7390 H   0  0  0  0  0  0  0  0  0  0  0  0
   44.4630   33.3800   42.8490 H   0  0  0  0  0  0  0  0  0  0  0  0
   39.3840   28.4020   42.1260 C   0  0  0  0  0  0  0  0  0  0  0  0
   39.9410   27.9760   43.3320 C   0  0  0  0  0  0  0  0  0  0  0  0
   39.6840   26.5970   43.3250 C   0  0  0  0  0  0  0  0  0  0  0  0
   39.0080   26.2810   42.1490 C   0  0  0  0  0  0  0  0  0  0  0  0
   38.8590   27.4120   41.4710 O   0  0  0  0  0  0  0  0  0  0  0  0
   40.4490   28.5120   44.1120 H   0  0  0  0  0  0  0  0  0  0  0  0
   39.9460   25.8570   44.0810 H   0  0  0  0  0  0  0  0  0  0  0  0
   38.5160   24.9800   41.6670 C   0  0  0  0  0  3  0  0  0  0  0  0
   37.0400   24.8260   41.8420 C   0  0  0  0  0  3  0  0  0  0  0  0
   36.4850   25.7820   41.7570 H   0  0  0  0  0  0  0  0  0  0  0  0
   36.5730   23.8320   40.7750 C   0  0  0  0  0  3  0  0  0  0  0  0
   36.5750   24.2990   39.7650 H   0  0  0  0  0  0  0  0  0  0  0  0
   37.5550   22.8390   40.7430 O   0  0  0  0  0  0  0  0  0  0  0  0
   38.6270   23.2870   39.9430 C   0  0  0  0  0  3  0  0  0  0  0  0
   39.5390   22.7000   40.1920 H   0  0  0  0  0  0  0  0  0  0  0  0
   38.8250   24.7660   40.1920 C   0  0  0  0  0  3  0  0  0  0  0  0
   39.9270   24.9580   40.0780 H   0  0  0  0  0  0  0  0  0  0  0  0
  1  9  1  0  0  0  0
  1 10  1  0  0  0  0
  2  1  2  0  0  0  0
  3  4  2  0  0  0  0
  3  2  1  0  0  0  0
  4  8  1  0  0  0  0
  5  4  1  0  0  0  0
  5  6  1  0  0  0  0
  6  7  2  0  0  0  0
  8  7  1  0  0  0  0
  8  9  2  0  0  0  0
  9 23  1  0  0  0  0
 11  3  1  0  0  0  0
 12  5  1  0  0  0  0
 13  6  1  0  0  0  0
 14 19  2  0  0  0  0
 14 15  1  0  0  0  0
 15 16  2  0  0  0  0
 16 17  1  0  0  0  0
 16 22  1  0  0  0  0
 18  2  1  0  0  0  0
 18 17  2  0  0  0  0
 19 18  1  0  0  0  0
 20 14  1  0  0  0  0
 21 15  1  0  0  0  0
 23 24  2  0  0  0  0
 24 28  1  0  0  0  0
 25 24  1  0  0  0  0
 25 29  1  0  0  0  0
 26 25  2  0  0  0  0
 27 23  1  0  0  0  0
 27 26  1  0  0  0  0
 30 31  1  0  0  0  0
 30 26  1  0  0  0  0
 32 31  1  0  0  0  0
 33 31  1  0  0  0  0
 34 33  1  0  0  0  0
 35 33  1  0  0  0  0
 36 38  1  0  0  0  0
 36 37  1  0  0  0  0
 36 35  1  0  0  0  0
 38 30  1  0  0  0  0
 39 38  1  0  0  0  0
M  END
>  <minimizedAffinity>
-6.16368866

$$$$

 OpenBabel03252506583D

 39 43  0  0  0  0  0  0  0  0999 V2000
   41.0750   30.3640   39.2250 C   0  0  0  0  0  0  0  0  0  0  0  0
   41.4860   31.3030   38.2980 C   0  0  0  0  0  0  0  0  0  0  0  0
   40.9800   32.5970   38.2520 C   0  0  0  0  0  0  0  0  0  0  0  0
   40.0170   32.9970   39.1660 C   0  0  0  0  0  0  0  0  0  0  0  0
   39.3200   34.1320   39.4180 N   0  0  0  0  0  0  0  0  0  0  0  0
   38.4980   33.9070   40.4750 C   0  0  0  0  0  0  0  0  0  0  0  0
   38.6940   32.6260   40.8710 N   0  0  0  0  0  0  0  0  0  0  0  0
   39.6210   32.0400   40.0860 C   0  0  0  0  0  0  0  0  0  0  0  0
   40.1050   30.7560   40.1530 C   0  0  0  0  0  0  0  0  0  0  0  0
   41.4780   29.3620   39.2470 H   0  0  0  0  0  0  0  0  0  0  0  0
   41.2980   33.3330   37.5280 H   0  0  0  0  0  0  0  0  0  0  0  0
   39.4270   35.0230   38.8640 H   0  0  0  0  0  0  0  0  0  0  0  0
   37.8090   34.6160   40.9240 H   0  0  0  0  0  0  0  0  0  0  0  0
   43.1940   29.6440   35.4880 C   0  0  0  0  0  0  0  0  0  0  0  0
   44.4310   30.2790   35.4690 C   0  0  0  0  0  0  0  0  0  0  0  0
   44.6800   31.2810   36.4250 C   0  0  0  0  0  0  0  0  0  0  0  0
   43.6960   31.5810   37.3240 N   0  0  0  0  0  0  0  0  0  0  0  0
   42.4980   30.9360   37.3100 C   0  0  0  0  0  0  0  0  0  0  0  0
   42.2490   29.9810   36.4040 N   0  0  0  0  0  0  0  0  0  0  0  0
   43.0270   28.8800   34.7450 H   0  0  0  0  0  0  0  0  0  0  0  0
   45.1640   29.9900   34.7270 H   0  0  0  0  0  0  0  0  0  0  0  0
   45.6230   31.7870   36.4340 H   0  0  0  0  0  0  0  0  0  0  0  0
   39.6090   29.8260   41.1740 C   0  0  0  0  0  0  0  0  0  0  0  0
   39.2740   30.2140   42.4710 C   0  0  0  0  0  0  0  0  0  0  0  0
   38.8640   29.0110   43.0620 C   0  0  0  0  0  0  0  0  0  0  0  0
   38.9720   27.9950   42.1150 C   0  0  0  0  0  0  0  0  0  0  0  0
   39.4270   28.5530   41.0000 O   0  0  0  0  0  0  0  0  0  0  0  0
   39.3000   31.1710   42.9580 H   0  0  0  0  0  0  0  0  0  0  0  0
   38.5120   28.8420   44.0800 H   0  0  0  0  0  0  0  0  0  0  0  0
   38.6660   26.5600   42.2340 C   0  0  0  0  0  3  0  0  0  0  0  0
   37.2120   26.3020   42.4540 C   0  0  0  0  0  3  0  0  0  0  0  0
   36.5530   27.0500   41.9680 H   0  0  0  0  0  0  0  0  0  0  0  0
   36.9280   24.8970   41.9130 C   0  0  0  0  0  3  0  0  0  0  0  0
   36.9340   24.8890   40.8000 H   0  0  0  0  0  0  0  0  0  0  0  0
   38.0210   24.1240   42.3110 O   0  0  0  0  0  0  0  0  0  0  0  0
   39.0770   24.3270   41.3990 C   0  0  0  0  0  3  0  0  0  0  0  0
   40.0360   24.0270   41.8770 H   0  0  0  0  0  0  0  0  0  0  0  0
   39.0840   25.7850   40.9920 C   0  0  0  0  0  3  0  0  0  0  0  0
   40.1610   26.0540   40.8100 H   0  0  0  0  0  0  0  0  0  0  0  0
  1 10  1  0  0  0  0
  1  9  1  0  0  0  0
  2  1  2  0  0  0  0
  3  2  1  0  0  0  0
  3  4  2  0  0  0  0
  4  5  1  0  0  0  0
  4  8  1  0  0  0  0
  5  6  1  0  0  0  0
  6  7  2  0  0  0  0
  6 13  1  0  0  0  0
  8  9  2  0  0  0  0
  8  7  1  0  0  0  0
  9 23  1  0  0  0  0
 11  3  1  0  0  0  0
 12  5  1  0  0  0  0
 14 19  1  0  0  0  0
 15 14  2  0  0  0  0
 15 16  1  0  0  0  0
 16 22  1  0  0  0  0
 16 17  2  0  0  0  0
 18 17  1  0  0  0  0
 18  2  1  0  0  0  0
 19 18  2  0  0  0  0
 20 14  1  0  0  0  0
 21 15  1  0  0  0  0
 23 24  2  0  0  0  0
 24 28  1  0  0  0  0
 24 25  1  0  0  0  0
 25 29  1  0  0  0  0
 26 30  1  0  0  0  0
 26 25  2  0  0  0  0
 27 23  1  0  0  0  0
 27 26  1  0  0  0  0
 30 31  1  0  0  0  0
 32 31  1  0  0  0  0
 33 35  1  0  0  0  0
 33 31  1  0  0  0  0
 34 33  1  0  0  0  0
 36 37  1  0  0  0  0
 36 35  1  0  0  0  0
 38 36  1  0  0  0  0
 38 30  1  0  0  0  0
 39 38  1  0  0  0  0
M  END
>  <minimizedAffinity>
-6.12563276

$$$$

 OpenBabel03252506583D

 39 43  0  0  0  0  0  0  0  0999 V2000
   36.8140   26.0960   40.3410 C   0  0  0  0  0  0  0  0  0  0  0  0
   37.1530   24.7730   40.5510 C   0  0  0  0  0  0  0  0  0  0  0  0
   38.0840   24.3700   41.5020 C   0  0  0  0  0  0  0  0  0  0  0  0
   38.7200   25.3150   42.2930 C   0  0  0  0  0  0  0  0  0  0  0  0
   39.6460   25.2970   43.2830 N   0  0  0  0  0  0  0  0  0  0  0  0
   39.8770   26.5750   43.6790 C   0  0  0  0  0  0  0  0  0  0  0  0
   39.0870   27.3780   42.9250 N   0  0  0  0  0  0  0  0  0  0  0  0
   38.3650   26.6340   42.0640 C   0  0  0  0  0  0  0  0  0  0  0  0
   37.4490   27.0590   41.1320 C   0  0  0  0  0  0  0  0  0  0  0  0
   36.0890   26.3930   39.5970 H   0  0  0  0  0  0  0  0  0  0  0  0
   38.3520   23.3370   41.6690 H   0  0  0  0  0  0  0  0  0  0  0  0
   40.0900   24.4170   43.6570 H   0  0  0  0  0  0  0  0  0  0  0  0
   40.5660   26.9000   44.4540 H   0  0  0  0  0  0  0  0  0  0  0  0
   34.6200   22.5060   39.1340 C   0  0  0  0  0  0  0  0  0  0  0  0
   35.3540   21.7730   38.2090 C   0  0  0  0  0  0  0  0  0  0  0  0
   36.7260   22.0570   38.0710 C   0  0  0  0  0  0  0  0  0  0  0  0
   37.2670   23.0390   38.8510 N   0  0  0  0  0  0  0  0  0  0  0  0
   36.5140   23.7350   39.7460 C   0  0  0  0  0  0  0  0  0  0  0  0
   35.2080   23.4730   39.8860 N   0  0  0  0  0  0  0  0  0  0  0  0
   33.5710   22.2700   39.2210 H   0  0  0  0  0  0  0  0  0  0  0  0
   34.8590   21.0090   37.6240 H   0  0  0  0  0  0  0  0  0  0  0  0
   37.3150   21.5090   37.3660 H   0  0  0  0  0  0  0  0  0  0  0  0
   37.1520   28.4870   40.9780 C   0  0  0  0  0  0  0  0  0  0  0  0
   35.8570   29.0040   40.9380 C   0  0  0  0  0  0  0  0  0  0  0  0
   36.0740   30.3810   40.7830 C   0  0  0  0  0  0  0  0  0  0  0  0
   37.4480   30.6080   40.7400 C   0  0  0  0  0  0  0  0  0  0  0  0
   38.0400   29.4270   40.8620 O   0  0  0  0  0  0  0  0  0  0  0  0
   34.8960   28.5280   41.0040 H   0  0  0  0  0  0  0  0  0  0  0  0
   35.3350   31.1780   40.7050 H   0  0  0  0  0  0  0  0  0  0  0  0
   38.1890   31.8710   40.5900 C   0  0  0  0  0  3  0  0  0  0  0  0
   39.5230   31.6790   39.9450 C   0  0  0  0  0  3  0  0  0  0  0  0
   39.5420   30.8450   39.2150 H   0  0  0  0  0  0  0  0  0  0  0  0
   39.8760   33.0040   39.2630 C   0  0  0  0  0  3  0  0  0  0  0  0
   39.2650   33.1560   38.3450 H   0  0  0  0  0  0  0  0  0  0  0  0
   39.4760   33.9970   40.1620 O   0  0  0  0  0  0  0  0  0  0  0  0
   38.0920   34.2170   40.0080 C   0  0  0  0  0  3  0  0  0  0  0  0
   37.6960   34.7110   40.9230 H   0  0  0  0  0  0  0  0  0  0  0  0
   37.4200   32.8850   39.7540 C   0  0  0  0  0  3  0  0  0  0  0  0
   36.3990   32.9560   40.2200 H   0  0  0  0  0  0  0  0  0  0  0  0
  1  2  2  0  0  0  0
  1  9  1  0  0  0  0
  2  3  1  0  0  0  0
  3 11  1  0  0  0  0
  3  4  2  0  0  0  0
  4  5  1  0  0  0  0
  5 12  1  0  0  0  0
  5  6  1  0  0  0  0
  6 13  1  0  0  0  0
  7  6  2  0  0  0  0
  8  4  1  0  0  0  0
  8  7  1  0  0  0  0
  9  8  2  0  0  0  0
 10  1  1  0  0  0  0
 14 20  1  0  0  0  0
 14 19  1  0  0  0  0
 15 14  2  0  0  0  0
 16 15  1  0  0  0  0
 16 17  2  0  0  0  0
 17 18  1  0  0  0  0
 18 19  2  0  0  0  0
 18  2  1  0  0  0  0
 21 15  1  0  0  0  0
 22 16  1  0  0  0  0
 23  9  1  0  0  0  0
 24 23  2  0  0  0  0
 24 28  1  0  0  0  0
 25 24  1  0  0  0  0
 26 25  2  0  0  0  0
 26 27  1  0  0  0  0
 27 23  1  0  0  0  0
 29 25  1  0  0  0  0
 30 26  1  0  0  0  0
 31 30  1  0  0  0  0
 32 31  1  0  0  0  0
 33 31  1  0  0  0  0
 33 35  1  0  0  0  0
 34 33  1  0  0  0  0
 36 35  1  0  0  0  0
 36 37  1  0  0  0  0
 38 36  1  0  0  0  0
 38 39  1  0  0  0  0
 38 30  1  0  0  0  0
M  END
>  <minimizedAffinity>
-6.06022024

$$$$

 OpenBabel03252506583D

 39 43  0  0  0  0  0  0  0  0999 V2000
   34.3890   28.6630   38.0330 C   0  0  0  0  0  0  0  0  0  0  0  0
   34.1030   28.9180   36.7050 C   0  0  0  0  0  0  0  0  0  0  0  0
   35.0610   28.8640   35.6990 C   0  0  0  0  0  0  0  0  0  0  0  0
   36.3730   28.5400   36.0080 C   0  0  0  0  0  0  0  0  0  0  0  0
   37.5320   28.3950   35.3200 N   0  0  0  0  0  0  0  0  0  0  0  0
   38.5140   28.0580   36.1960 C   0  0  0  0  0  0  0  0  0  0  0  0
   37.9490   27.9960   37.4270 N   0  0  0  0  0  0  0  0  0  0  0  0
   36.6350   28.2880   37.3450 C   0  0  0  0  0  0  0  0  0  0  0  0
   35.7080   28.3360   38.3580 C   0  0  0  0  0  0  0  0  0  0  0  0
   33.6330   28.7110   38.8040 H   0  0  0  0  0  0  0  0  0  0  0  0
   34.8420   29.0630   34.6600 H   0  0  0  0  0  0  0  0  0  0  0  0
   37.6180   28.5300   34.2780 H   0  0  0  0  0  0  0  0  0  0  0  0
   39.5570   27.8710   35.9610 H   0  0  0  0  0  0  0  0  0  0  0  0
   31.1100   29.6290   34.6800 C   0  0  0  0  0  0  0  0  0  0  0  0
   30.1530   29.9220   35.6470 C   0  0  0  0  0  0  0  0  0  0  0  0
   30.5380   29.8760   37.0000 C   0  0  0  0  0  0  0  0  0  0  0  0
   31.8300   29.5450   37.2980 N   0  0  0  0  0  0  0  0  0  0  0  0
   32.7360   29.2650   36.3220 C   0  0  0  0  0  0  0  0  0  0  0  0
   32.3820   29.3050   35.0310 N   0  0  0  0  0  0  0  0  0  0  0  0
   30.7910   29.6700   33.6510 H   0  0  0  0  0  0  0  0  0  0  0  0
   29.1480   30.1750   35.3380 H   0  0  0  0  0  0  0  0  0  0  0  0
   29.8230   30.0970   37.7650 H   0  0  0  0  0  0  0  0  0  0  0  0
   36.1030   28.0480   39.7420 C   0  0  0  0  0  0  0  0  0  0  0  0
   35.7140   28.8280   40.8310 C   0  0  0  0  0  0  0  0  0  0  0  0
   36.3210   28.1760   41.9150 C   0  0  0  0  0  0  0  0  0  0  0  0
   37.0200   27.0730   41.4300 C   0  0  0  0  0  0  0  0  0  0  0  0
   36.8490   27.0530   40.1140 O   0  0  0  0  0  0  0  0  0  0  0  0
   35.1080   29.7120   40.8950 H   0  0  0  0  0  0  0  0  0  0  0  0
   36.2840   28.4430   42.9710 H   0  0  0  0  0  0  0  0  0  0  0  0
   37.8190   26.0720   42.1560 C   0  0  0  0  0  3  0  0  0  0  0  0
   37.9720   24.7980   41.3910 C   0  0  0  0  0  3  0  0  0  0  0  0
   37.9890   24.9440   40.2920 H   0  0  0  0  0  0  0  0  0  0  0  0
   39.2740   24.1510   41.8720 C   0  0  0  0  0  3  0  0  0  0  0  0
   40.1610   24.6930   41.4750 H   0  0  0  0  0  0  0  0  0  0  0  0
   39.2900   24.3440   43.2550 O   0  0  0  0  0  0  0  0  0  0  0  0
   39.7660   25.6440   43.5260 C   0  0  0  0  0  3  0  0  0  0  0  0
   39.4520   25.9420   44.5510 H   0  0  0  0  0  0  0  0  0  0  0  0
   39.2170   26.5840   42.4740 C   0  0  0  0  0  3  0  0  0  0  0  0
   39.0720   27.5750   42.9850 H   0  0  0  0  0  0  0  0  0  0  0  0
  1  9  1  0  0  0  0
  1 10  1  0  0  0  0
  2  1  2  0  0  0  0
  3  4  2  0  0  0  0
  3  2  1  0  0  0  0
  4  8  1  0  0  0  0
  5  4  1  0  0  0  0
  5  6  1  0  0  0  0
  6  7  2  0  0  0  0
  8  7  1  0  0  0  0
  8  9  2  0  0  0  0
  9 23  1  0  0  0  0
 11  3  1  0  0  0  0
 12  5  1  0  0  0  0
 13  6  1  0  0  0  0
 14 19  2  0  0  0  0
 14 15  1  0  0  0  0
 15 16  2  0  0  0  0
 16 17  1  0  0  0  0
 16 22  1  0  0  0  0
 18  2  1  0  0  0  0
 18 17  2  0  0  0  0
 19 18  1  0  0  0  0
 20 14  1  0  0  0  0
 21 15  1  0  0  0  0
 23 27  1  0  0  0  0
 23 24  2  0  0  0  0
 24 28  1  0  0  0  0
 24 25  1  0  0  0  0
 25 29  1  0  0  0  0
 26 25  2  0  0  0  0
 26 30  1  0  0  0  0
 27 26  1  0  0  0  0
 30 38  1  0  0  0  0
 31 33  1  0  0  0  0
 31 30  1  0  0  0  0
 32 31  1  0  0  0  0
 33 35  1  0  0  0  0
 34 33  1  0  0  0  0
 35 36  1  0  0  0  0
 36 37  1  0  0  0  0
 38 39  1  0  0  0  0
 38 36  1  0  0  0  0
M  END
>  <minimizedAffinity>
-5.86837292

$$$$

 OpenBabel03252506583D

 39 43  0  0  0  0  0  0  0  0999 V2000
   35.4110   28.3250   39.0510 C   0  0  0  0  0  0  0  0  0  0  0  0
   36.2580   27.5270   39.7970 C   0  0  0  0  0  0  0  0  0  0  0  0
   36.5300   26.2020   39.4750 C   0  0  0  0  0  0  0  0  0  0  0  0
   35.9430   25.6250   38.3600 C   0  0  0  0  0  0  0  0  0  0  0  0
   35.9710   24.4100   37.7580 N   0  0  0  0  0  0  0  0  0  0  0  0
   35.1640   24.4510   36.6670 C   0  0  0  0  0  0  0  0  0  0  0  0
   34.6400   25.6990   36.6020 N   0  0  0  0  0  0  0  0  0  0  0  0
   35.0990   26.4440   37.6280 C   0  0  0  0  0  0  0  0  0  0  0  0
   34.8120   27.7550   37.9240 C   0  0  0  0  0  0  0  0  0  0  0  0
   35.2100   29.3530   39.3150 H   0  0  0  0  0  0  0  0  0  0  0  0
   37.1910   25.5740   40.0560 H   0  0  0  0  0  0  0  0  0  0  0  0
   36.5380   23.5930   38.1090 H   0  0  0  0  0  0  0  0  0  0  0  0
   34.9700   23.6390   35.9720 H   0  0  0  0  0  0  0  0  0  0  0  0
   38.0120   29.8340   42.0700 C   0  0  0  0  0  0  0  0  0  0  0  0
   38.1130   29.0880   43.2390 C   0  0  0  0  0  0  0  0  0  0  0  0
   37.5770   27.7860   43.2470 C   0  0  0  0  0  0  0  0  0  0  0  0
   36.9830   27.3200   42.1080 N   0  0  0  0  0  0  0  0  0  0  0  0
   36.9050   28.0820   40.9830 C   0  0  0  0  0  0  0  0  0  0  0  0
   37.4110   29.3220   40.9640 N   0  0  0  0  0  0  0  0  0  0  0  0
   38.4290   30.8280   42.0890 H   0  0  0  0  0  0  0  0  0  0  0  0
   38.5960   29.5210   44.1040 H   0  0  0  0  0  0  0  0  0  0  0  0
   37.6400   27.1890   44.1330 H   0  0  0  0  0  0  0  0  0  0  0  0
   33.9000   28.5280   37.0740 C   0  0  0  0  0  0  0  0  0  0  0  0
   34.1650   28.8330   35.7390 C   0  0  0  0  0  0  0  0  0  0  0  0
   33.0340   29.5670   35.3550 C   0  0  0  0  0  0  0  0  0  0  0  0
   32.1770   29.6590   36.4500 C   0  0  0  0  0  0  0  0  0  0  0  0
   32.7570   29.0130   37.4520 O   0  0  0  0  0  0  0  0  0  0  0  0
   35.0000   28.5980   35.1050 H   0  0  0  0  0  0  0  0  0  0  0  0
   32.8120   30.0110   34.3840 H   0  0  0  0  0  0  0  0  0  0  0  0
   30.8670   30.3220   36.5660 C   0  0  0  0  0  3  0  0  0  0  0  0
   30.4420   30.5030   37.9860 C   0  0  0  0  0  3  0  0  0  0  0  0
   31.2910   30.6540   38.6840 H   0  0  0  0  0  0  0  0  0  0  0  0
   29.4980   31.7090   38.0120 C   0  0  0  0  0  3  0  0  0  0  0  0
   30.0610   32.6600   37.8820 H   0  0  0  0  0  0  0  0  0  0  0  0
   28.7000   31.5740   36.8740 O   0  0  0  0  0  0  0  0  0  0  0  0
   29.4080   32.0750   35.7610 C   0  0  0  0  0  3  0  0  0  0  0  0
   28.9660   31.6590   34.8290 H   0  0  0  0  0  0  0  0  0  0  0  0
   30.8650   31.6960   35.9100 C   0  0  0  0  0  3  0  0  0  0  0  0
   31.2560   31.5390   34.8680 H   0  0  0  0  0  0  0  0  0  0  0  0
  1 10  1  0  0  0  0
  1  2  1  0  0  0  0
  2 18  1  0  0  0  0
  3  2  2  0  0  0  0
  3 11  1  0  0  0  0
  4  3  1  0  0  0  0
  5 12  1  0  0  0  0
  5  4  1  0  0  0  0
  6  5  1  0  0  0  0
  7  6  2  0  0  0  0
  7  8  1  0  0  0  0
  8  9  1  0  0  0  0
  8  4  2  0  0  0  0
  9  1  2  0  0  0  0
 13  6  1  0  0  0  0
 14 20  1  0  0  0  0
 14 15  1  0  0  0  0
 15 16  2  0  0  0  0
 15 21  1  0  0  0  0
 16 22  1  0  0  0  0
 17 16  1  0  0  0  0
 18 17  2  0  0  0  0
 19 18  1  0  0  0  0
 19 14  2  0  0  0  0
 23 27  1  0  0  0  0
 23  9  1  0  0  0  0
 24 23  2  0  0  0  0
 25 24  1  0  0  0  0
 25 26  2  0  0  0  0
 26 30  1  0  0  0  0
 26 27  1  0  0  0  0
 28 24  1  0  0  0  0
 29 25  1  0  0  0  0
 30 31  1  0  0  0  0
 31 33  1  0  0  0  0
 31 32  1  0  0  0  0
 34 33  1  0  0  0  0
 35 33  1  0  0  0  0
 36 38  1  0  0  0  0
 36 35  1  0  0  0  0
 37 36  1  0  0  0  0
 38 30  1  0  0  0  0
 39 38  1  0  0  0  0
M  END
>  <minimizedAffinity>
-5.83637667

$$$$

 OpenBabel03252506583D

 39 43  0  0  0  0  0  0  0  0999 V2000
   36.9390   26.4380   40.3050 C   0  0  0  0  0  0  0  0  0  0  0  0
   36.7080   25.1130   39.9880 C   0  0  0  0  0  0  0  0  0  0  0  0
   37.3540   24.0580   40.6230 C   0  0  0  0  0  0  0  0  0  0  0  0
   38.2780   24.3120   41.6250 C   0  0  0  0  0  0  0  0  0  0  0  0
   39.0710   23.5690   42.4340 N   0  0  0  0  0  0  0  0  0  0  0  0
   39.7780   24.4090   43.2340 C   0  0  0  0  0  0  0  0  0  0  0  0
   39.4120   25.6730   42.9100 N   0  0  0  0  0  0  0  0  0  0  0  0
   38.4930   25.6470   41.9250 C   0  0  0  0  0  0  0  0  0  0  0  0
   37.8690   26.7080   41.3130 C   0  0  0  0  0  0  0  0  0  0  0  0
   36.4290   27.2470   39.8020 H   0  0  0  0  0  0  0  0  0  0  0  0
   37.1760   23.0200   40.3780 H   0  0  0  0  0  0  0  0  0  0  0  0
   39.1070   22.5150   42.4170 H   0  0  0  0  0  0  0  0  0  0  0  0
   40.5020   24.1270   43.9930 H   0  0  0  0  0  0  0  0  0  0  0  0
   34.2700   23.2800   37.9240 C   0  0  0  0  0  0  0  0  0  0  0  0
   33.9360   24.2140   36.9490 C   0  0  0  0  0  0  0  0  0  0  0  0
   34.5510   25.4800   37.0010 C   0  0  0  0  0  0  0  0  0  0  0  0
   35.4440   25.7280   38.0050 N   0  0  0  0  0  0  0  0  0  0  0  0
   35.7440   24.7860   38.9400 C   0  0  0  0  0  0  0  0  0  0  0  0
   35.1650   23.5790   38.9010 N   0  0  0  0  0  0  0  0  0  0  0  0
   33.7860   22.3190   37.8630 H   0  0  0  0  0  0  0  0  0  0  0  0
   33.2200   23.9490   36.1840 H   0  0  0  0  0  0  0  0  0  0  0  0
   34.3130   26.2180   36.2640 H   0  0  0  0  0  0  0  0  0  0  0  0
   38.1780   28.0850   41.7160 C   0  0  0  0  0  0  0  0  0  0  0  0
   38.2720   28.4960   43.0450 C   0  0  0  0  0  0  0  0  0  0  0  0
   38.5760   29.8600   42.9300 C   0  0  0  0  0  0  0  0  0  0  0  0
   38.6450   30.1840   41.5770 C   0  0  0  0  0  0  0  0  0  0  0  0
   38.3950   29.0710   40.8990 O   0  0  0  0  0  0  0  0  0  0  0  0
   38.1550   27.9590   43.9680 H   0  0  0  0  0  0  0  0  0  0  0  0
   38.7400   30.5860   43.7260 H   0  0  0  0  0  0  0  0  0  0  0  0
   38.9310   31.4750   40.9320 C   0  0  0  0  0  3  0  0  0  0  0  0
   39.9860   31.3670   39.8790 C   0  0  0  0  0  3  0  0  0  0  0  0
   39.9910   30.3870   39.3600 H   0  0  0  0  0  0  0  0  0  0  0  0
   39.7320   32.5050   38.8840 C   0  0  0  0  0  3  0  0  0  0  0  0
   38.8400   32.2920   38.2530 H   0  0  0  0  0  0  0  0  0  0  0  0
   39.3940   33.6090   39.6700 O   0  0  0  0  0  0  0  0  0  0  0  0
   38.0280   33.5220   40.0120 C   0  0  0  0  0  3  0  0  0  0  0  0
   37.8330   34.1610   40.9020 H   0  0  0  0  0  0  0  0  0  0  0  0
   37.6920   32.0710   40.2770 C   0  0  0  0  0  3  0  0  0  0  0  0
   36.8970   32.0740   41.0720 H   0  0  0  0  0  0  0  0  0  0  0  0
  1  9  1  0  0  0  0
  2  1  2  0  0  0  0
  2  3  1  0  0  0  0
  3  4  2  0  0  0  0
  4  8  1  0  0  0  0
  4  5  1  0  0  0  0
  5  6  1  0  0  0  0
  6 13  1  0  0  0  0
  7  6  2  0  0  0  0
  8  7  1  0  0  0  0
  9 23  1  0  0  0  0
  9  8  2  0  0  0  0
 10  1  1  0  0  0  0
 11  3  1  0  0  0  0
 12  5  1  0  0  0  0
 14 19  1  0  0  0  0
 15 16  1  0  0  0  0
 15 14  2  0  0  0  0
 16 17  2  0  0  0  0
 17 18  1  0  0  0  0
 18  2  1  0  0  0  0
 19 18  2  0  0  0  0
 20 14  1  0  0  0  0
 21 15  1  0  0  0  0
 22 16  1  0  0  0  0
 23 24  2  0  0  0  0
 24 28  1  0  0  0  0
 25 24  1  0  0  0  0
 25 29  1  0  0  0  0
 26 25  2  0  0  0  0
 27 26  1  0  0  0  0
 27 23  1  0  0  0  0
 30 26  1  0  0  0  0
 31 30  1  0  0  0  0
 32 31  1  0  0  0  0
 33 35  1  0  0  0  0
 33 31  1  0  0  0  0
 34 33  1  0  0  0  0
 35 36  1  0  0  0  0
 36 38  1  0  0  0  0
 36 37  1  0  0  0  0
 38 30  1  0  0  0  0
 38 39  1  0  0  0  0
M  END
>  <minimizedAffinity>
-5.82556963

$$$$

 OpenBabel03252506583D

 39 43  0  0  0  0  0  0  0  0999 V2000
   37.3420   29.5610   39.1850 C   0  0  0  0  0  0  0  0  0  0  0  0
   37.0170   30.3860   38.1240 C   0  0  0  0  0  0  0  0  0  0  0  0
   37.3280   31.7400   38.0940 C   0  0  0  0  0  0  0  0  0  0  0  0
   37.9950   32.3220   39.1610 C   0  0  0  0  0  0  0  0  0  0  0  0
   38.4480   33.5620   39.4730 N   0  0  0  0  0  0  0  0  0  0  0  0
   39.0390   33.5100   40.6950 C   0  0  0  0  0  0  0  0  0  0  0  0
   38.9460   32.2310   41.1310 N   0  0  0  0  0  0  0  0  0  0  0  0
   38.3100   31.4760   40.2120 C   0  0  0  0  0  0  0  0  0  0  0  0
   38.0150   30.1360   40.2670 C   0  0  0  0  0  0  0  0  0  0  0  0
   37.0920   28.5100   39.1930 H   0  0  0  0  0  0  0  0  0  0  0  0
   37.0760   32.3890   37.2680 H   0  0  0  0  0  0  0  0  0  0  0  0
   38.3400   34.4020   38.8450 H   0  0  0  0  0  0  0  0  0  0  0  0
   39.5000   34.3360   41.2280 H   0  0  0  0  0  0  0  0  0  0  0  0
   34.4460   28.7690   36.0410 C   0  0  0  0  0  0  0  0  0  0  0  0
   35.0260   28.7860   34.7780 C   0  0  0  0  0  0  0  0  0  0  0  0
   36.3060   29.3550   34.6400 C   0  0  0  0  0  0  0  0  0  0  0  0
   36.9150   29.8620   35.7530 N   0  0  0  0  0  0  0  0  0  0  0  0
   36.3130   29.8260   36.9730 C   0  0  0  0  0  0  0  0  0  0  0  0
   35.0960   29.2880   37.1160 N   0  0  0  0  0  0  0  0  0  0  0  0
   33.4650   28.3290   36.1210 H   0  0  0  0  0  0  0  0  0  0  0  0
   34.4850   28.3660   33.9400 H   0  0  0  0  0  0  0  0  0  0  0  0
   36.7770   29.3820   33.6790 H   0  0  0  0  0  0  0  0  0  0  0  0
   38.3990   29.3360   41.4360 C   0  0  0  0  0  0  0  0  0  0  0  0
   37.6850   29.3310   42.6340 C   0  0  0  0  0  0  0  0  0  0  0  0
   38.4190   28.4400   43.4310 C   0  0  0  0  0  0  0  0  0  0  0  0
   39.5010   27.9740   42.6890 C   0  0  0  0  0  0  0  0  0  0  0  0
   39.4320   28.5520   41.4970 O   0  0  0  0  0  0  0  0  0  0  0  0
   36.7950   29.8500   42.9360 H   0  0  0  0  0  0  0  0  0  0  0  0
   38.2210   28.1310   44.4580 H   0  0  0  0  0  0  0  0  0  0  0  0
   40.5630   27.0270   43.0670 C   0  0  0  0  0  3  0  0  0  0  0  0
   40.5280   25.7740   42.2550 C   0  0  0  0  0  3  0  0  0  0  0  0
   40.1600   25.9290   41.2210 H   0  0  0  0  0  0  0  0  0  0  0  0
   41.9550   25.2170   42.2440 C   0  0  0  0  0  3  0  0  0  0  0  0
   42.6160   25.8260   41.5860 H   0  0  0  0  0  0  0  0  0  0  0  0
   42.4300   25.4000   43.5440 O   0  0  0  0  0  0  0  0  0  0  0  0
   42.8850   26.7290   43.6790 C   0  0  0  0  0  3  0  0  0  0  0  0
   42.9210   26.9950   44.7580 H   0  0  0  0  0  0  0  0  0  0  0  0
   41.9500   27.6350   42.9070 C   0  0  0  0  0  3  0  0  0  0  0  0
   41.9250   28.6090   43.4680 H   0  0  0  0  0  0  0  0  0  0  0  0
  1 10  1  0  0  0  0
  1  9  1  0  0  0  0
  2  1  2  0  0  0  0
  3  2  1  0  0  0  0
  3  4  2  0  0  0  0
  4  5  1  0  0  0  0
  4  8  1  0  0  0  0
  5  6  1  0  0  0  0
  6  7  2  0  0  0  0
  6 13  1  0  0  0  0
  8  9  2  0  0  0  0
  8  7  1  0  0  0  0
  9 23  1  0  0  0  0
 11  3  1  0  0  0  0
 12  5  1  0  0  0  0
 14 20  1  0  0  0  0
 14 19  1  0  0  0  0
 15 14  2  0  0  0  0
 16 15  1  0  0  0  0
 16 17  2  0  0  0  0
 17 18  1  0  0  0  0
 18 19  2  0  0  0  0
 18  2  1  0  0  0  0
 21 15  1  0  0  0  0
 22 16  1  0  0  0  0
 23 27  1  0  0  0  0
 23 24  2  0  0  0  0
 24 28  1  0  0  0  0
 24 25  1  0  0  0  0
 25 29  1  0  0  0  0
 26 30  1  0  0  0  0
 26 25  2  0  0  0  0
 27 26  1  0  0  0  0
 31 30  1  0  0  0  0
 32 31  1  0  0  0  0
 33 31  1  0  0  0  0
 33 35  1  0  0  0  0
 34 33  1  0  0  0  0
 35 36  1  0  0  0  0
 36 37  1  0  0  0  0
 38 30  1  0  0  0  0
 38 39  1  0  0  0  0
 38 36  1  0  0  0  0
M  END
>  <minimizedAffinity>
-5.8245573

$$$$

 OpenBabel03252506583D

 39 43  0  0  0  0  0  0  0  0999 V2000
   36.4240   30.0170   38.9900 C   0  0  0  0  0  0  0  0  0  0  0  0
   35.8010   28.7990   39.1930 C   0  0  0  0  0  0  0  0  0  0  0  0
   35.9800   28.0380   40.3430 C   0  0  0  0  0  0  0  0  0  0  0  0
   36.8140   28.4930   41.3530 C   0  0  0  0  0  0  0  0  0  0  0  0
   37.2150   28.0420   42.5670 N   0  0  0  0  0  0  0  0  0  0  0  0
   38.0650   28.9550   43.1060 C   0  0  0  0  0  0  0  0  0  0  0  0
   38.1820   29.9680   42.2150 N   0  0  0  0  0  0  0  0  0  0  0  0
   37.4270   29.7150   41.1270 C   0  0  0  0  0  0  0  0  0  0  0  0
   37.2680   30.4860   40.0010 C   0  0  0  0  0  0  0  0  0  0  0  0
   36.2750   30.5960   38.0910 H   0  0  0  0  0  0  0  0  0  0  0  0
   35.4960   27.0860   40.5050 H   0  0  0  0  0  0  0  0  0  0  0  0
   36.8980   27.1290   42.9890 H   0  0  0  0  0  0  0  0  0  0  0  0
   38.5600   28.8890   44.0700 H   0  0  0  0  0  0  0  0  0  0  0  0
   34.1870   26.5120   36.8000 C   0  0  0  0  0  0  0  0  0  0  0  0
   33.2150   27.3190   36.2200 C   0  0  0  0  0  0  0  0  0  0  0  0
   33.1130   28.6550   36.6510 C   0  0  0  0  0  0  0  0  0  0  0  0
   33.9730   29.0930   37.6180 N   0  0  0  0  0  0  0  0  0  0  0  0
   34.9110   28.2710   38.1620 C   0  0  0  0  0  0  0  0  0  0  0  0
   35.0170   26.9980   37.7600 N   0  0  0  0  0  0  0  0  0  0  0  0
   34.2440   25.4930   36.4540 H   0  0  0  0  0  0  0  0  0  0  0  0
   32.5670   26.9050   35.4580 H   0  0  0  0  0  0  0  0  0  0  0  0
   32.3740   29.2990   36.2220 H   0  0  0  0  0  0  0  0  0  0  0  0
   37.9700   31.7680   39.8720 C   0  0  0  0  0  0  0  0  0  0  0  0
   37.3820   33.0000   40.1590 C   0  0  0  0  0  0  0  0  0  0  0  0
   38.4160   33.9090   39.8930 C   0  0  0  0  0  0  0  0  0  0  0  0
   39.5350   33.1940   39.4740 C   0  0  0  0  0  0  0  0  0  0  0  0
   39.2000   31.9100   39.4830 O   0  0  0  0  0  0  0  0  0  0  0  0
   36.3970   33.2580   40.5000 H   0  0  0  0  0  0  0  0  0  0  0  0
   38.4010   34.9960   39.9820 H   0  0  0  0  0  0  0  0  0  0  0  0
   40.8680   33.6780   39.0780 C   0  0  0  0  0  3  0  0  0  0  0  0
   41.8860   33.4940   40.1550 C   0  0  0  0  0  3  0  0  0  0  0  0
   41.7000   32.6040   40.7890 H   0  0  0  0  0  0  0  0  0  0  0  0
   43.2470   33.3890   39.4590 C   0  0  0  0  0  3  0  0  0  0  0  0
   43.3610   32.4060   38.9500 H   0  0  0  0  0  0  0  0  0  0  0  0
   43.2150   34.3490   38.4440 O   0  0  0  0  0  0  0  0  0  0  0  0
   42.5370   33.8080   37.3310 C   0  0  0  0  0  3  0  0  0  0  0  0
   42.1870   34.6390   36.6780 H   0  0  0  0  0  0  0  0  0  0  0  0
   41.3850   32.9660   37.8350 C   0  0  0  0  0  3  0  0  0  0  0  0
   40.5700   33.0590   37.0660 H   0  0  0  0  0  0  0  0  0  0  0  0
  1  2  2  0  0  0  0
  1  9  1  0  0  0  0
  2  3  1  0  0  0  0
  3 11  1  0  0  0  0
  3  4  2  0  0  0  0
  4  5  1  0  0  0  0
  5 12  1  0  0  0  0
  5  6  1  0  0  0  0
  6 13  1  0  0  0  0
  7  6  2  0  0  0  0
  8  4  1  0  0  0  0
  8  7  1  0  0  0  0
  9  8  2  0  0  0  0
 10  1  1  0  0  0  0
 14 19  1  0  0  0  0
 15 16  1  0  0  0  0
 15 14  2  0  0  0  0
 16 17  2  0  0  0  0
 17 18  1  0  0  0  0
 18  2  1  0  0  0  0
 19 18  2  0  0  0  0
 20 14  1  0  0  0  0
 21 15  1  0  0  0  0
 22 16  1  0  0  0  0
 23  9  1  0  0  0  0
 23 24  2  0  0  0  0
 24 28  1  0  0  0  0
 25 29  1  0  0  0  0
 25 24  1  0  0  0  0
 26 27  1  0  0  0  0
 26 25  2  0  0  0  0
 27 23  1  0  0  0  0
 30 26  1  0  0  0  0
 30 31  1  0  0  0  0
 31 32  1  0  0  0  0
 33 31  1  0  0  0  0
 34 33  1  0  0  0  0
 35 33  1  0  0  0  0
 36 38  1  0  0  0  0
 36 35  1  0  0  0  0
 37 36  1  0  0  0  0
 38 30  1  0  0  0  0
 39 38  1  0  0  0  0
M  END
>  <minimizedAffinity>
-5.81730127

$$$$
