
 OpenBabel03242510363D

 22 23  0  0  0  0  0  0  0  0999 V2000
   38.2590   28.5010   43.3000 C   0  0  0  0  0  0  0  0  0  0  0  0
   37.5970   29.4460   42.4920 C   0  0  0  0  0  0  0  0  0  0  0  0
   36.7350   28.9500   41.4880 C   0  0  0  0  0  0  0  0  0  0  0  0
   36.5970   27.6050   41.3640 N   0  0  0  0  0  0  0  0  0  0  0  0
   37.2630   26.7340   42.1760 C   0  0  0  0  0  0  0  0  0  0  0  0
   38.0820   27.1830   43.1290 N   0  0  0  0  0  0  0  0  0  0  0  0
   38.9270   28.8470   44.0790 H   0  0  0  0  0  0  0  0  0  0  0  0
   37.7640   30.4990   42.6600 H   0  0  0  0  0  0  0  0  0  0  0  0
   37.0400   25.3040   41.9530 C   0  0  0  0  0  3  0  0  0  0  0  0
   38.1940   24.4160   42.2810 C   0  0  0  0  0  3  0  0  0  0  0  0
   39.0790   24.9930   42.6460 H   0  0  0  0  0  0  0  0  0  0  0  0
   38.6980   23.6090   41.1130 C   0  0  0  0  0  3  0  0  0  0  0  0
   39.3900   22.8370   41.5070 H   0  0  0  0  0  0  0  0  0  0  0  0
   37.7190   22.9260   40.4190 O   0  0  0  0  0  0  0  0  0  0  0  0
   36.5070   23.5940   40.3210 C   0  0  0  0  0  3  0  0  0  0  0  0
   35.9680   23.4330   39.3750 H   0  0  0  0  0  0  0  0  0  0  0  0
   36.7520   25.0930   40.4650 C   0  0  0  0  0  3  0  0  0  0  0  0
   35.8730   25.6870   40.2020 H   0  0  0  0  0  0  0  0  0  0  0  0
   36.0690   29.9680   40.6740 C   0  0  0  0  0  0  0  0  0  0  0  0
   35.9220   31.1170   41.4420 F   0  0  0  0  0  0  0  0  0  0  0  0
   34.8020   29.5070   40.4130 F   0  0  0  0  0  0  0  0  0  0  0  0
   36.7770   30.3070   39.5470 F   0  0  0  0  0  0  0  0  0  0  0  0
  1  7  1  0  0  0  0
  2  8  1  0  0  0  0
  2  1  2  0  0  0  0
  3  2  1  0  0  0  0
  4  3  2  0  0  0  0
  4  5  1  0  0  0  0
  5  6  2  0  0  0  0
  6  1  1  0  0  0  0
  9  5  1  0  0  0  0
  9 10  1  0  0  0  0
 10 11  1  0  0  0  0
 12 13  1  0  0  0  0
 12 10  1  0  0  0  0
 14 12  1  0  0  0  0
 15 14  1  0  0  0  0
 15 17  1  0  0  0  0
 16 15  1  0  0  0  0
 17  9  1  0  0  0  0
 18 17  1  0  0  0  0
 19 20  1  0  0  0  0
 19  3  1  0  0  0  0
 21 19  1  0  0  0  0
 22 19  1  0  0  0  0
M  END
>  <minimizedAffinity>
-4.83411455

$$$$

 OpenBabel03242510363D

 22 23  0  0  0  0  0  0  0  0999 V2000
   37.7850   28.7200   43.4290 C   0  0  0  0  0  0  0  0  0  0  0  0
   37.9080   27.3190   43.3590 C   0  0  0  0  0  0  0  0  0  0  0  0
   37.4380   26.6840   42.1870 C   0  0  0  0  0  0  0  0  0  0  0  0
   36.9020   27.4560   41.2080 N   0  0  0  0  0  0  0  0  0  0  0  0
   36.8080   28.8120   41.3280 C   0  0  0  0  0  0  0  0  0  0  0  0
   37.2440   29.4290   42.4260 N   0  0  0  0  0  0  0  0  0  0  0  0
   38.1340   29.2390   44.3140 H   0  0  0  0  0  0  0  0  0  0  0  0
   38.3480   26.7820   44.1860 H   0  0  0  0  0  0  0  0  0  0  0  0
   36.2120   29.5450   40.2090 C   0  0  0  0  0  3  0  0  0  0  0  0
   34.7890   29.2070   39.9060 C   0  0  0  0  0  3  0  0  0  0  0  0
   34.3900   28.4180   40.5900 H   0  0  0  0  0  0  0  0  0  0  0  0
   34.5680   28.6770   38.5130 C   0  0  0  0  0  3  0  0  0  0  0  0
   33.4760   28.6710   38.3220 H   0  0  0  0  0  0  0  0  0  0  0  0
   35.1280   29.4430   37.5100 O   0  0  0  0  0  0  0  0  0  0  0  0
   36.3420   30.0280   37.8380 C   0  0  0  0  0  3  0  0  0  0  0  0
   37.0570   30.1030   37.0050 H   0  0  0  0  0  0  0  0  0  0  0  0
   37.0050   29.2120   38.9440 C   0  0  0  0  0  3  0  0  0  0  0  0
   38.0460   29.5010   39.1100 H   0  0  0  0  0  0  0  0  0  0  0  0
   37.5880   25.2280   42.1600 C   0  0  0  0  0  0  0  0  0  0  0  0
   37.7260   24.8260   40.8360 F   0  0  0  0  0  0  0  0  0  0  0  0
   36.4040   24.6960   42.6090 F   0  0  0  0  0  0  0  0  0  0  0  0
   38.6900   24.7850   42.8480 F   0  0  0  0  0  0  0  0  0  0  0  0
  1  7  1  0  0  0  0
  2  1  1  0  0  0  0
  2  8  1  0  0  0  0
  3  2  2  0  0  0  0
  4  5  2  0  0  0  0
  4  3  1  0  0  0  0
  5  6  1  0  0  0  0
  6  1  2  0  0  0  0
  9  5  1  0  0  0  0
 10  9  1  0  0  0  0
 10 11  1  0  0  0  0
 12 10  1  0  0  0  0
 13 12  1  0  0  0  0
 14 15  1  0  0  0  0
 14 12  1  0  0  0  0
 15 17  1  0  0  0  0
 16 15  1  0  0  0  0
 17 18  1  0  0  0  0
 17  9  1  0  0  0  0
 19  3  1  0  0  0  0
 19 21  1  0  0  0  0
 19 22  1  0  0  0  0
 20 19  1  0  0  0  0
M  END
>  <minimizedAffinity>
-4.69124746

$$$$

 OpenBabel03242510363D

 22 23  0  0  0  0  0  0  0  0999 V2000
   35.7980   29.7330   40.2120 C   0  0  0  0  0  0  0  0  0  0  0  0
   35.8170   28.6060   41.0570 C   0  0  0  0  0  0  0  0  0  0  0  0
   36.8820   28.5040   41.9790 C   0  0  0  0  0  0  0  0  0  0  0  0
   37.8160   29.4890   41.9960 N   0  0  0  0  0  0  0  0  0  0  0  0
   37.7490   30.5610   41.1530 C   0  0  0  0  0  0  0  0  0  0  0  0
   36.7520   30.6740   40.2760 N   0  0  0  0  0  0  0  0  0  0  0  0
   34.9960   29.8420   39.4920 H   0  0  0  0  0  0  0  0  0  0  0  0
   35.0320   27.8690   40.9770 H   0  0  0  0  0  0  0  0  0  0  0  0
   38.8110   31.5630   41.2580 C   0  0  0  0  0  3  0  0  0  0  0  0
   38.4810   32.9080   40.6990 C   0  0  0  0  0  3  0  0  0  0  0  0
   37.4510   32.9410   40.2650 H   0  0  0  0  0  0  0  0  0  0  0  0
   39.3970   33.3520   39.5890 C   0  0  0  0  0  3  0  0  0  0  0  0
   39.2090   34.4290   39.4040 H   0  0  0  0  0  0  0  0  0  0  0  0
   40.7440   33.2430   39.8750 O   0  0  0  0  0  0  0  0  0  0  0  0
   41.0840   32.1420   40.6480 C   0  0  0  0  0  3  0  0  0  0  0  0
   42.0590   31.6930   40.4060 H   0  0  0  0  0  0  0  0  0  0  0  0
   40.0210   31.0610   40.4690 C   0  0  0  0  0  3  0  0  0  0  0  0
   40.3270   30.1010   40.8910 H   0  0  0  0  0  0  0  0  0  0  0  0
   36.8580   27.3170   42.8360 C   0  0  0  0  0  0  0  0  0  0  0  0
   38.0060   27.3200   43.6220 F   0  0  0  0  0  0  0  0  0  0  0  0
   36.9530   26.2250   42.0090 F   0  0  0  0  0  0  0  0  0  0  0  0
   35.7760   27.2810   43.6790 F   0  0  0  0  0  0  0  0  0  0  0  0
  1  6  2  0  0  0  0
  1  2  1  0  0  0  0
  2  3  2  0  0  0  0
  3  4  1  0  0  0  0
  3 19  1  0  0  0  0
  5  9  1  0  0  0  0
  5  4  2  0  0  0  0
  6  5  1  0  0  0  0
  7  1  1  0  0  0  0
  8  2  1  0  0  0  0
 10  9  1  0  0  0  0
 11 10  1  0  0  0  0
 12 14  1  0  0  0  0
 12 10  1  0  0  0  0
 13 12  1  0  0  0  0
 14 15  1  0  0  0  0
 16 15  1  0  0  0  0
 17 15  1  0  0  0  0
 17 18  1  0  0  0  0
 17  9  1  0  0  0  0
 19 20  1  0  0  0  0
 19 22  1  0  0  0  0
 21 19  1  0  0  0  0
M  END
>  <minimizedAffinity>
-4.6811018

$$$$

 OpenBabel03242510363D

 22 23  0  0  0  0  0  0  0  0999 V2000
   38.2040   27.8900   43.6170 C   0  0  0  0  0  0  0  0  0  0  0  0
   37.9690   26.6410   43.0090 C   0  0  0  0  0  0  0  0  0  0  0  0
   37.2850   26.6400   41.7720 C   0  0  0  0  0  0  0  0  0  0  0  0
   36.8990   27.8310   41.2490 N   0  0  0  0  0  0  0  0  0  0  0  0
   37.1530   29.0130   41.8810 C   0  0  0  0  0  0  0  0  0  0  0  0
   37.7960   29.0350   43.0480 N   0  0  0  0  0  0  0  0  0  0  0  0
   38.7250   27.9280   44.5650 H   0  0  0  0  0  0  0  0  0  0  0  0
   38.3120   25.7410   43.4960 H   0  0  0  0  0  0  0  0  0  0  0  0
   36.6900   30.2370   41.2240 C   0  0  0  0  0  3  0  0  0  0  0  0
   35.9580   30.0380   39.9390 C   0  0  0  0  0  3  0  0  0  0  0  0
   35.8830   28.9590   39.6610 H   0  0  0  0  0  0  0  0  0  0  0  0
   36.6030   30.7120   38.7550 C   0  0  0  0  0  3  0  0  0  0  0  0
   35.8780   30.6910   37.9160 H   0  0  0  0  0  0  0  0  0  0  0  0
   36.9230   32.0400   38.9510 O   0  0  0  0  0  0  0  0  0  0  0  0
   37.3500   32.3490   40.2350 C   0  0  0  0  0  3  0  0  0  0  0  0
   38.1260   33.1280   40.2870 H   0  0  0  0  0  0  0  0  0  0  0  0
   37.9150   31.0900   40.8880 C   0  0  0  0  0  3  0  0  0  0  0  0
   38.4460   31.3040   41.8180 H   0  0  0  0  0  0  0  0  0  0  0  0
   37.0650   25.3190   41.1800 C   0  0  0  0  0  0  0  0  0  0  0  0
   36.4540   24.5080   42.1290 F   0  0  0  0  0  0  0  0  0  0  0  0
   38.3040   24.7760   40.9410 F   0  0  0  0  0  0  0  0  0  0  0  0
   36.2530   25.3520   40.0730 F   0  0  0  0  0  0  0  0  0  0  0  0
  1  7  1  0  0  0  0
  2  8  1  0  0  0  0
  2  1  2  0  0  0  0
  3  2  1  0  0  0  0
  4  3  2  0  0  0  0
  4  5  1  0  0  0  0
  5  6  2  0  0  0  0
  6  1  1  0  0  0  0
  9  5  1  0  0  0  0
 10  9  1  0  0  0  0
 11 10  1  0  0  0  0
 12 14  1  0  0  0  0
 12 10  1  0  0  0  0
 13 12  1  0  0  0  0
 14 15  1  0  0  0  0
 15 16  1  0  0  0  0
 15 17  1  0  0  0  0
 17  9  1  0  0  0  0
 17 18  1  0  0  0  0
 19  3  1  0  0  0  0
 19 20  1  0  0  0  0
 21 19  1  0  0  0  0
 22 19  1  0  0  0  0
M  END
>  <minimizedAffinity>
-4.64145088

$$$$

 OpenBabel03242510363D

 22 23  0  0  0  0  0  0  0  0999 V2000
   35.8120   30.1770   40.5020 C   0  0  0  0  0  0  0  0  0  0  0  0
   36.8900   31.0760   40.6140 C   0  0  0  0  0  0  0  0  0  0  0  0
   38.0200   30.6460   41.3460 C   0  0  0  0  0  0  0  0  0  0  0  0
   37.9980   29.4040   41.8920 N   0  0  0  0  0  0  0  0  0  0  0  0
   36.9250   28.5720   41.7520 C   0  0  0  0  0  0  0  0  0  0  0  0
   35.8500   28.9610   41.0660 N   0  0  0  0  0  0  0  0  0  0  0  0
   34.9300   30.4750   39.9480 H   0  0  0  0  0  0  0  0  0  0  0  0
   36.8230   32.0470   40.1470 H   0  0  0  0  0  0  0  0  0  0  0  0
   37.0110   27.2540   42.3840 C   0  0  0  0  0  3  0  0  0  0  0  0
   38.2160   27.0280   43.2350 C   0  0  0  0  0  3  0  0  0  0  0  0
   38.8920   27.9180   43.2520 H   0  0  0  0  0  0  0  0  0  0  0  0
   39.0790   25.8790   42.7820 C   0  0  0  0  0  3  0  0  0  0  0  0
   39.8060   25.6610   43.5920 H   0  0  0  0  0  0  0  0  0  0  0  0
   38.3970   24.7010   42.5530 O   0  0  0  0  0  0  0  0  0  0  0  0
   37.1290   24.8620   42.0130 C   0  0  0  0  0  3  0  0  0  0  0  0
   36.8280   24.0770   41.3030 H   0  0  0  0  0  0  0  0  0  0  0  0
   37.0680   26.1980   41.2780 C   0  0  0  0  0  3  0  0  0  0  0  0
   36.1670   26.2980   40.6670 H   0  0  0  0  0  0  0  0  0  0  0  0
   39.1150   31.6140   41.4350 C   0  0  0  0  0  0  0  0  0  0  0  0
   40.0430   31.3180   40.4430 F   0  0  0  0  0  0  0  0  0  0  0  0
   39.7440   31.3970   42.6360 F   0  0  0  0  0  0  0  0  0  0  0  0
   38.7060   32.9110   41.2510 F   0  0  0  0  0  0  0  0  0  0  0  0
  1  2  2  0  0  0  0
  1  6  1  0  0  0  0
  2  3  1  0  0  0  0
  3 19  1  0  0  0  0
  3  4  2  0  0  0  0
  5  4  1  0  0  0  0
  5  9  1  0  0  0  0
  6  5  2  0  0  0  0
  7  1  1  0  0  0  0
  8  2  1  0  0  0  0
  9 10  1  0  0  0  0
 10 11  1  0  0  0  0
 12 10  1  0  0  0  0
 12 13  1  0  0  0  0
 14 12  1  0  0  0  0
 15 14  1  0  0  0  0
 16 15  1  0  0  0  0
 17 15  1  0  0  0  0
 17  9  1  0  0  0  0
 18 17  1  0  0  0  0
 19 21  1  0  0  0  0
 20 19  1  0  0  0  0
 22 19  1  0  0  0  0
M  END
>  <minimizedAffinity>
-4.63837719

$$$$

 OpenBabel03242510363D

 22 23  0  0  0  0  0  0  0  0999 V2000
   35.3210   29.2440   39.9950 C   0  0  0  0  0  0  0  0  0  0  0  0
   35.8340   28.4750   41.0580 C   0  0  0  0  0  0  0  0  0  0  0  0
   36.9420   28.9980   41.7630 C   0  0  0  0  0  0  0  0  0  0  0  0
   37.4400   30.2010   41.3780 N   0  0  0  0  0  0  0  0  0  0  0  0
   36.9030   30.9050   40.3400 C   0  0  0  0  0  0  0  0  0  0  0  0
   35.8580   30.4270   39.6620 N   0  0  0  0  0  0  0  0  0  0  0  0
   34.4730   28.8720   39.4340 H   0  0  0  0  0  0  0  0  0  0  0  0
   35.3760   27.5270   41.2970 H   0  0  0  0  0  0  0  0  0  0  0  0
   37.5210   32.1910   40.0110 C   0  0  0  0  0  3  0  0  0  0  0  0
   38.1780   32.2630   38.6720 C   0  0  0  0  0  3  0  0  0  0  0  0
   38.1060   31.2960   38.1160 H   0  0  0  0  0  0  0  0  0  0  0  0
   39.6490   32.5830   38.7290 C   0  0  0  0  0  3  0  0  0  0  0  0
   39.9830   32.8290   37.7000 H   0  0  0  0  0  0  0  0  0  0  0  0
   39.9730   33.6770   39.5070 O   0  0  0  0  0  0  0  0  0  0  0  0
   39.1920   33.8280   40.6450 C   0  0  0  0  0  3  0  0  0  0  0  0
   39.7260   34.2300   41.5190 H   0  0  0  0  0  0  0  0  0  0  0  0
   38.6200   32.4690   41.0390 C   0  0  0  0  0  3  0  0  0  0  0  0
   38.1610   32.4810   42.0310 H   0  0  0  0  0  0  0  0  0  0  0  0
   37.4390   28.1640   42.8580 C   0  0  0  0  0  0  0  0  0  0  0  0
   36.3520   27.7330   43.6100 F   0  0  0  0  0  0  0  0  0  0  0  0
   38.1820   28.9790   43.6760 F   0  0  0  0  0  0  0  0  0  0  0  0
   38.1150   27.0500   42.4250 F   0  0  0  0  0  0  0  0  0  0  0  0
  1  2  1  0  0  0  0
  2  8  1  0  0  0  0
  2  3  2  0  0  0  0
  3 19  1  0  0  0  0
  4  3  1  0  0  0  0
  5  4  2  0  0  0  0
  6  1  2  0  0  0  0
  6  5  1  0  0  0  0
  7  1  1  0  0  0  0
  9  5  1  0  0  0  0
  9 17  1  0  0  0  0
 10 12  1  0  0  0  0
 10  9  1  0  0  0  0
 11 10  1  0  0  0  0
 12 14  1  0  0  0  0
 13 12  1  0  0  0  0
 14 15  1  0  0  0  0
 15 17  1  0  0  0  0
 15 16  1  0  0  0  0
 17 18  1  0  0  0  0
 19 20  1  0  0  0  0
 19 21  1  0  0  0  0
 22 19  1  0  0  0  0
M  END
>  <minimizedAffinity>
-4.63316917

$$$$

 OpenBabel03242510363D

 22 23  0  0  0  0  0  0  0  0999 V2000
   36.4410   30.1640   38.3760 C   0  0  0  0  0  0  0  0  0  0  0  0
   36.9570   31.4660   38.5250 C   0  0  0  0  0  0  0  0  0  0  0  0
   37.4350   31.8310   39.8040 C   0  0  0  0  0  0  0  0  0  0  0  0
   37.3700   30.9140   40.8020 N   0  0  0  0  0  0  0  0  0  0  0  0
   36.8600   29.6640   40.6010 C   0  0  0  0  0  0  0  0  0  0  0  0
   36.4030   29.3010   39.4020 N   0  0  0  0  0  0  0  0  0  0  0  0
   36.0660   29.8510   37.4090 H   0  0  0  0  0  0  0  0  0  0  0  0
   36.9720   32.1320   37.6760 H   0  0  0  0  0  0  0  0  0  0  0  0
   36.8380   28.7560   41.7500 C   0  0  0  0  0  3  0  0  0  0  0  0
   37.7780   29.1000   42.8570 C   0  0  0  0  0  3  0  0  0  0  0  0
   38.3790   30.0150   42.6300 H   0  0  0  0  0  0  0  0  0  0  0  0
   38.7880   28.0240   43.1600 C   0  0  0  0  0  3  0  0  0  0  0  0
   39.2790   28.2790   44.1210 H   0  0  0  0  0  0  0  0  0  0  0  0
   38.2540   26.7610   43.3270 O   0  0  0  0  0  0  0  0  0  0  0  0
   37.1720   26.4780   42.5050 C   0  0  0  0  0  3  0  0  0  0  0  0
   37.1140   25.4330   42.1660 H   0  0  0  0  0  0  0  0  0  0  0  0
   37.2450   27.3630   41.2640 C   0  0  0  0  0  3  0  0  0  0  0  0
   36.5390   27.0540   40.4890 H   0  0  0  0  0  0  0  0  0  0  0  0
   37.9620   33.1930   39.9110 C   0  0  0  0  0  0  0  0  0  0  0  0
   39.0840   33.2940   39.0960 F   0  0  0  0  0  0  0  0  0  0  0  0
   38.4010   33.3520   41.2020 F   0  0  0  0  0  0  0  0  0  0  0  0
   37.0670   34.1520   39.5090 F   0  0  0  0  0  0  0  0  0  0  0  0
  1  2  2  0  0  0  0
  1  6  1  0  0  0  0
  2  3  1  0  0  0  0
  3 19  1  0  0  0  0
  3  4  2  0  0  0  0
  5  4  1  0  0  0  0
  5  9  1  0  0  0  0
  6  5  2  0  0  0  0
  7  1  1  0  0  0  0
  8  2  1  0  0  0  0
  9 10  1  0  0  0  0
 10 12  1  0  0  0  0
 11 10  1  0  0  0  0
 12 14  1  0  0  0  0
 12 13  1  0  0  0  0
 15 14  1  0  0  0  0
 16 15  1  0  0  0  0
 17  9  1  0  0  0  0
 17 15  1  0  0  0  0
 18 17  1  0  0  0  0
 19 21  1  0  0  0  0
 20 19  1  0  0  0  0
 22 19  1  0  0  0  0
M  END
>  <minimizedAffinity>
-4.58776188

$$$$

 OpenBabel03242510363D

 22 23  0  0  0  0  0  0  0  0999 V2000
   36.4740   27.6620   39.2830 C   0  0  0  0  0  0  0  0  0  0  0  0
   36.5780   27.1790   40.6020 C   0  0  0  0  0  0  0  0  0  0  0  0
   37.1670   28.0340   41.5610 C   0  0  0  0  0  0  0  0  0  0  0  0
   37.5920   29.2580   41.1580 N   0  0  0  0  0  0  0  0  0  0  0  0
   37.4650   29.6760   39.8650 C   0  0  0  0  0  0  0  0  0  0  0  0
   36.9130   28.8830   38.9460 N   0  0  0  0  0  0  0  0  0  0  0  0
   36.0280   27.0320   38.5230 H   0  0  0  0  0  0  0  0  0  0  0  0
   36.2130   26.1900   40.8370 H   0  0  0  0  0  0  0  0  0  0  0  0
   37.9590   31.0160   39.5420 C   0  0  0  0  0  3  0  0  0  0  0  0
   39.2590   31.3900   40.1730 C   0  0  0  0  0  3  0  0  0  0  0  0
   39.6620   30.5740   40.8210 H   0  0  0  0  0  0  0  0  0  0  0  0
   39.1820   32.6040   41.0610 C   0  0  0  0  0  3  0  0  0  0  0  0
   40.2190   32.9210   41.2940 H   0  0  0  0  0  0  0  0  0  0  0  0
   38.5670   33.7000   40.4890 O   0  0  0  0  0  0  0  0  0  0  0  0
   37.5060   33.3940   39.6490 C   0  0  0  0  0  3  0  0  0  0  0  0
   36.6800   34.1210   39.6680 H   0  0  0  0  0  0  0  0  0  0  0  0
   36.9340   32.0360   40.0440 C   0  0  0  0  0  3  0  0  0  0  0  0
   35.9800   31.8260   39.5560 H   0  0  0  0  0  0  0  0  0  0  0  0
   37.2540   27.4890   42.9170 C   0  0  0  0  0  0  0  0  0  0  0  0
   35.9670   27.4010   43.4380 F   0  0  0  0  0  0  0  0  0  0  0  0
   37.9210   28.4160   43.6790 F   0  0  0  0  0  0  0  0  0  0  0  0
   37.8090   26.2340   42.9620 F   0  0  0  0  0  0  0  0  0  0  0  0
  1  2  1  0  0  0  0
  2  8  1  0  0  0  0
  2  3  2  0  0  0  0
  3 19  1  0  0  0  0
  4  3  1  0  0  0  0
  5  4  2  0  0  0  0
  6  1  2  0  0  0  0
  6  5  1  0  0  0  0
  7  1  1  0  0  0  0
  9  5  1  0  0  0  0
  9 17  1  0  0  0  0
  9 10  1  0  0  0  0
 10 11  1  0  0  0  0
 10 12  1  0  0  0  0
 12 13  1  0  0  0  0
 14 12  1  0  0  0  0
 15 16  1  0  0  0  0
 15 17  1  0  0  0  0
 15 14  1  0  0  0  0
 18 17  1  0  0  0  0
 19 22  1  0  0  0  0
 19 20  1  0  0  0  0
 19 21  1  0  0  0  0
M  END
>  <minimizedAffinity>
-4.56344938

$$$$

 OpenBabel03242510363D

 22 23  0  0  0  0  0  0  0  0999 V2000
   40.4150   26.1870   43.6550 C   0  0  0  0  0  0  0  0  0  0  0  0
   39.5070   25.2660   43.0980 C   0  0  0  0  0  0  0  0  0  0  0  0
   38.3670   25.7900   42.4480 C   0  0  0  0  0  0  0  0  0  0  0  0
   38.2180   27.1380   42.3980 N   0  0  0  0  0  0  0  0  0  0  0  0
   39.1300   27.9860   42.9540 C   0  0  0  0  0  0  0  0  0  0  0  0
   40.2110   27.5100   43.5730 N   0  0  0  0  0  0  0  0  0  0  0  0
   41.2990   25.8190   44.1610 H   0  0  0  0  0  0  0  0  0  0  0  0
   39.7040   24.2070   43.1840 H   0  0  0  0  0  0  0  0  0  0  0  0
   38.8670   29.4220   42.8410 C   0  0  0  0  0  3  0  0  0  0  0  0
   37.5620   29.7880   42.2170 C   0  0  0  0  0  3  0  0  0  0  0  0
   36.9740   28.8880   41.9130 H   0  0  0  0  0  0  0  0  0  0  0  0
   37.6920   30.6210   40.9680 C   0  0  0  0  0  3  0  0  0  0  0  0
   36.6870   31.0170   40.7180 H   0  0  0  0  0  0  0  0  0  0  0  0
   38.5160   31.7210   41.0910 O   0  0  0  0  0  0  0  0  0  0  0  0
   39.6230   31.5270   41.9060 C   0  0  0  0  0  3  0  0  0  0  0  0
   40.5310   32.0580   41.5830 H   0  0  0  0  0  0  0  0  0  0  0  0
   39.9510   30.0370   41.9520 C   0  0  0  0  0  3  0  0  0  0  0  0
   40.9210   29.8370   42.4120 H   0  0  0  0  0  0  0  0  0  0  0  0
   37.4530   24.7950   41.8850 C   0  0  0  0  0  0  0  0  0  0  0  0
   37.0920   25.2030   40.6060 F   0  0  0  0  0  0  0  0  0  0  0  0
   36.3080   24.8290   42.6440 F   0  0  0  0  0  0  0  0  0  0  0  0
   38.0110   23.5450   41.7820 F   0  0  0  0  0  0  0  0  0  0  0  0
  1  7  1  0  0  0  0
  2  8  1  0  0  0  0
  2  1  2  0  0  0  0
  3  2  1  0  0  0  0
  4  3  2  0  0  0  0
  4  5  1  0  0  0  0
  5  6  2  0  0  0  0
  6  1  1  0  0  0  0
  9  5  1  0  0  0  0
 10  9  1  0  0  0  0
 11 10  1  0  0  0  0
 12 14  1  0  0  0  0
 12 10  1  0  0  0  0
 13 12  1  0  0  0  0
 14 15  1  0  0  0  0
 15 17  1  0  0  0  0
 16 15  1  0  0  0  0
 17 18  1  0  0  0  0
 17  9  1  0  0  0  0
 19  3  1  0  0  0  0
 19 21  1  0  0  0  0
 20 19  1  0  0  0  0
 22 19  1  0  0  0  0
M  END
>  <minimizedAffinity>
-4.5253129

$$$$
