
 OpenBabel03252501303D

 39 41  0  0  0  0  0  0  0  0999 V2000
   46.4680   30.9930   46.7590 C   0  0  0  0  0  0  0  0  0  0  0  0
   45.3110   30.8700   47.4830 C   0  0  0  0  0  0  0  0  0  0  0  0
   44.8010   29.6810   47.9020 C   0  0  0  0  0  0  0  0  0  0  0  0
   45.4720   28.5500   47.5890 C   0  0  0  0  0  0  0  0  0  0  0  0
   46.6600   28.6380   46.8510 C   0  0  0  0  0  0  0  0  0  0  0  0
   47.1480   29.8570   46.4430 C   0  0  0  0  0  0  0  0  0  0  0  0
   44.8200   31.8330   47.7000 H   0  0  0  0  0  0  0  0  0  0  0  0
   43.8840   29.7150   48.4640 H   0  0  0  0  0  0  0  0  0  0  0  0
   47.0650   27.6270   46.6930 H   0  0  0  0  0  0  0  0  0  0  0  0
   44.8870   27.2360   48.0630 C   0  0  0  0  0  0  0  0  0  0  0  0
   44.3480   27.4350   49.4480 C   0  0  0  0  0  0  0  0  0  0  0  0
   43.4820   28.1010   49.4180 H   0  0  0  0  0  0  0  0  0  0  0  0
   43.9960   26.0460   49.9690 C   0  0  0  0  0  0  0  0  0  0  0  0
   43.3750   26.1080   50.8790 H   0  0  0  0  0  0  0  0  0  0  0  0
   45.1730   25.3550   50.1350 O   0  0  0  0  0  0  0  0  0  0  0  0
   45.6680   25.0020   48.8880 C   0  0  0  0  0  0  0  0  0  0  0  0
   44.9680   24.2980   48.3790 H   0  0  0  0  0  0  0  0  0  0  0  0
   45.9800   26.1940   48.0240 C   0  0  0  0  0  0  0  0  0  0  0  0
   46.9190   26.6730   48.3480 H   0  0  0  0  0  0  0  0  0  0  0  0
   49.5100   29.3340   46.5620 C   0  0  0  0  0  0  0  0  0  0  0  0
   49.8430   29.3180   47.8030 O   0  0  0  0  0  0  0  0  0  0  0  0
   48.3610   29.5650   45.7380 N   0  0  0  0  0  0  0  0  0  0  0  0
   50.5140   29.0780   46.2260 H   0  0  0  0  0  0  0  0  0  0  0  0
   48.5820   29.4860   44.7430 H   0  0  0  0  0  0  0  0  0  0  0  0
   47.1150   32.2020   46.2330 C   0  0  0  0  0  0  0  0  0  0  0  0
   48.2360   32.1390   46.3470 H   0  0  0  0  0  0  0  0  0  0  0  0
   46.8220   33.0550   46.8700 H   0  0  0  0  0  0  0  0  0  0  0  0
   46.7930   32.4180   44.7780 C   0  0  0  0  0  0  0  0  0  0  0  0
   46.1380   31.5830   44.4500 H   0  0  0  0  0  0  0  0  0  0  0  0
   47.7220   32.4070   44.1720 H   0  0  0  0  0  0  0  0  0  0  0  0
   44.6460   35.2970   45.5000 C   0  0  0  0  0  0  0  0  0  0  0  0
   44.7000   36.0420   44.3050 C   0  0  0  0  0  0  0  0  0  0  0  0
   45.4940   35.5070   43.2780 C   0  0  0  0  0  0  0  0  0  0  0  0
   46.1490   34.3490   43.4690 N   0  0  0  0  0  0  0  0  0  0  0  0
   46.0500   33.6890   44.6430 C   0  0  0  0  0  0  0  0  0  0  0  0
   45.3260   34.1350   45.6390 N   0  0  0  0  0  0  0  0  0  0  0  0
   44.0510   35.6640   46.3180 H   0  0  0  0  0  0  0  0  0  0  0  0
   44.1290   36.9600   44.2690 H   0  0  0  0  0  0  0  0  0  0  0  0
   45.5310   36.0810   42.3680 H   0  0  0  0  0  0  0  0  0  0  0  0
  1  2  1  0  0  0  0
  2  7  1  0  0  0  0
  2  3  2  0  0  0  0
  3  8  1  0  0  0  0
  4  3  1  0  0  0  0
  4 10  1  0  0  0  0
  5  4  2  0  0  0  0
  6  1  2  0  0  0  0
  6  5  1  0  0  0  0
  9  5  1  0  0  0  0
 10 11  1  0  0  0  0
 11 13  1  0  0  0  0
 12 11  1  0  0  0  0
 13 15  1  0  0  0  0
 13 14  1  0  0  0  0
 16 15  1  0  0  0  0
 17 16  1  0  0  0  0
 18 10  1  0  0  0  0
 18 19  1  0  0  0  0
 18 16  1  0  0  0  0
 20 21  2  0  0  0  0
 22  6  1  0  0  0  0
 22 20  1  0  0  0  0
 23 20  1  0  0  0  0
 24 22  1  0  0  0  0
 25 26  1  0  0  0  0
 25  1  1  0  0  0  0
 25 27  1  0  0  0  0
 28 25  1  0  0  0  0
 29 28  1  0  0  0  0
 30 28  1  0  0  0  0
 31 36  1  0  0  0  0
 31 37  1  0  0  0  0
 32 31  2  0  0  0  0
 33 34  2  0  0  0  0
 33 32  1  0  0  0  0
 34 35  1  0  0  0  0
 35 28  1  0  0  0  0
 35 36  2  0  0  0  0
 38 32  1  0  0  0  0
 39 33  1  0  0  0  0
M  END
>  <minimizedAffinity>
-4.79051161

>  <minimizedRMSD>
1.85761046

$$$$
