
 OpenBabel03252505463D

 29 31  0  0  1  0  0  0  0  0999 V2000
   48.0340   32.0280   42.9300 C   0  0  0  0  0  0  0  0  0  0  0  0
   48.9780   30.9580   42.9270 C   0  0  0  0  0  0  0  0  0  0  0  0
   49.0330   30.0460   43.9760 C   0  0  0  0  0  0  0  0  0  0  0  0
   48.1390   30.2440   44.9880 N   0  0  0  0  0  0  0  0  0  0  0  0
   47.2490   31.2780   44.9600 C   0  0  0  0  0  0  0  0  0  0  0  0
   47.2070   32.1380   43.9550 N   0  0  0  0  0  0  0  0  0  0  0  0
   49.6760   30.8240   42.1120 H   0  0  0  0  0  0  0  0  0  0  0  0
   49.7300   29.2430   43.9900 H   0  0  0  0  0  0  0  0  0  0  0  0
   46.3020   31.4370   46.0960 C   0  0  0  0  0  0  0  0  0  0  0  0
   46.2810   32.9320   46.4320 C   0  0  0  0  0  0  0  0  0  0  0  0
   47.2810   33.2470   46.8050 H   0  0  0  0  0  0  0  0  0  0  0  0
   45.2580   33.0420   47.5700 C   0  0  0  0  0  0  0  0  0  0  0  0
   44.8690   34.0590   47.6590 H   0  0  0  0  0  0  0  0  0  0  0  0
   45.8690   32.5690   48.7020 O   0  0  0  0  0  0  0  0  0  0  0  0
   46.8960   31.6820   48.5120 C   0  0  0  0  0  0  0  0  0  0  0  0
   46.8970   31.0080   49.4190 H   0  0  0  0  0  0  0  0  0  0  0  0
   46.7000   30.7350   47.3440 C   0  0  0  0  0  0  0  0  0  0  0  0
   47.5980   30.1160   47.2600 H   0  0  0  0  0  0  0  0  0  0  0  0
   48.0330   32.9600   41.7940 C   0  0  1  0  0  0  0  0  0  0  0  0
   49.1360   34.0550   41.9460 C   0  0  1  0  0  0  0  0  0  0  0  0
   49.0810   33.0600   40.8250 C   0  0  0  0  0  0  0  0  0  0  0  0
   47.0210   33.3670   41.5690 H   0  0  0  0  0  0  0  0  0  0  0  0
   49.8990   33.9190   42.7100 H   0  0  0  0  0  0  0  0  0  0  0  0
   49.8790   32.2880   40.8340 H   0  0  0  0  0  0  0  0  0  0  0  0
   48.8820   33.4400   39.8050 H   0  0  0  0  0  0  0  0  0  0  0  0
   48.6600   35.4440   41.5830 C   0  0  0  0  0  0  0  0  0  0  0  0
   49.5500   36.4180   41.9730 F   0  0  0  0  0  0  0  0  0  0  0  0
   48.5450   35.5160   40.1890 F   0  0  0  0  0  0  0  0  0  0  0  0
   47.3980   35.6740   42.0860 F   0  0  0  0  0  0  0  0  0  0  0  0
  1  6  1  0  0  0  0
  2  1  2  0  0  0  0
  2  3  1  0  0  0  0
  3  8  1  0  0  0  0
  3  4  2  0  0  0  0
  5  4  1  0  0  0  0
  5  9  1  0  0  0  0
  6  5  2  0  0  0  0
  7  2  1  0  0  0  0
  9 10  1  0  0  0  0
  9 17  1  0  0  0  0
 10 11  1  0  0  0  0
 10 12  1  0  0  0  0
 12 13  1  0  0  0  0
 12 14  1  0  0  0  0
 15 14  1  0  0  0  0
 15 16  1  0  0  0  0
 17 15  1  0  0  0  0
 18 17  1  0  0  0  0
 19 22  1  6  0  0  0
 19 20  1  0  0  0  0
 19  1  1  0  0  0  0
 20 23  1  1  0  0  0
 21 24  1  0  0  0  0
 21 19  1  0  0  0  0
 21 20  1  0  0  0  0
 25 21  1  0  0  0  0
 26 20  1  0  0  0  0
 26 27  1  0  0  0  0
 26 29  1  0  0  0  0
 28 26  1  0  0  0  0
M  END
>  <minimizedAffinity>
-5.11139774

>  <minimizedRMSD>
3.43161893

$$$$
